=
 OpenBabel11042416183D

 33 36  0  0  1  0  0  0  0  0999 V2000
  184.1510  177.7360  141.8670 C   0  0  0  0  0  1  0  0  0  0  0  0
  186.5120  177.2130  142.4690 C   0  0  1  0  0  3  0  0  0  0  0  0
  186.8180  177.1520  140.1580 N   0  0  0  0  0  0  0  0  0  0  0  0
  186.0460  178.3540  140.3880 C   0  0  0  0  0  2  0  0  0  0  0  0
  185.5790  178.2480  141.8330 C   0  0  1  0  0  3  0  0  0  0  0  0
  188.2460  173.3350  142.4130 O   0  0  0  0  0  0  0  0  0  0  0  0
  187.6290  175.2290  141.2370 N   0  0  0  0  0  2  0  0  0  0  0  0
  188.3560  174.5830  142.2820 C   0  0  0  0  0  0  0  0  0  0  0  0
  187.1150  176.5640  141.2620 C   0  0  0  0  0  0  0  0  0  0  0  0
  185.9230  177.4190  146.6180 C   0  0  2  0  0  3  0  0  0  0  0  0
  187.5390  177.9140  143.2440 N   0  0  1  0  0  0  0  0  0  0  0  0
  186.9770  178.4040  144.5320 C   0  0  2  0  0  3  0  0  0  0  0  0
  187.7650  177.1810  144.4940 C   0  0  2  0  0  3  0  0  0  0  0  0
  188.5250  177.2930  146.8400 C   0  0  2  0  0  3  0  0  0  0  0  0
  184.8100  177.7370  147.3950 O   0  0  0  0  0  1  0  0  0  0  0  0
  187.2050  177.9780  147.2920 C   0  0  0  0  0  2  0  0  0  0  0  0
  185.6830  177.8880  145.1570 C   0  0  0  0  0  2  0  0  0  0  0  0
  188.9210  177.5850  145.3770 C   0  0  0  0  0  2  0  0  0  0  0  0
  188.4670  175.8880  147.0640 O   0  0  0  0  0  0  0  0  0  0  0  0
  189.5190  173.9640  146.2320 C   0  0  0  0  0  2  0  0  0  0  0  0
  189.5880  175.0580  146.9750 C   0  0  0  0  0  0  0  0  0  0  0  0
  190.8660  175.3800  147.6860 C   0  0  0  0  0  2  0  0  0  0  0  0
  192.1630  176.6600  146.1500 O   0  0  0  0  0  0  0  0  0  0  0  0
  191.9870  175.5510  146.7190 C   0  0  0  0  0  0  0  0  0  0  0  0
  192.8480  174.4940  146.4530 O   0  0  0  0  0  1  0  0  0  0  0  0
  189.2750  175.3080  143.0520 O   0  0  0  0  0  0  0  0  0  0  0  0
  192.8010  176.3700  142.7140 C   0  0  0  0  0  3  0  0  0  0  0  0
  193.4720  175.1460  142.7820 C   0  0  0  0  0  0  0  0  0  0  0  0
  190.6720  175.2240  142.9390 C   0  0  0  0  0  0  0  0  0  0  0  0
  195.2200  175.1020  142.6990 Cl  0  0  0  0  0  0  0  0  0  0  0  0
  191.4050  176.4070  142.7920 C   0  0  0  0  0  3  0  0  0  0  0  0
  192.7490  173.9600  142.9230 C   0  0  0  0  0  3  0  0  0  0  0  0
  191.3550  173.9970  143.0030 C   0  0  0  0  0  3  0  0  0  0  0  0
  2  9  1  6  0  0  0
  3  4  1  0  0  0  0
  3  9  2  0  0  0  0
  4  5  1  0  0  0  0
  5  1  1  6  0  0  0
  5  2  1  0  0  0  0
  7  9  1  0  0  0  0
  7  8  1  0  0  0  0
  8  6  2  0  0  0  0
  8 26  1  0  0  0  0
 10 16  1  0  0  0  0
 10 15  1  1  0  0  0
 11  2  1  6  0  0  0
 11 13  1  0  0  0  0
 11 12  1  0  0  0  0
 12 17  1  6  0  0  0
 13 12  1  0  0  0  0
 13 18  1  1  0  0  0
 14 19  1  6  0  0  0
 14 16  1  0  0  0  0
 17 10  1  0  0  0  0
 18 14  1  0  0  0  0
 20 21  2  0  0  0  0
 21 19  1  0  0  0  0
 21 22  1  0  0  0  0
 23 24  2  0  0  0  0
 24 22  1  0  0  0  0
 25 24  1  0  0  0  0
 27 28  2  0  0  0  0
 27 31  1  0  0  0  0
 28 32  1  0  0  0  0
 29 33  1  0  0  0  0
 29 26  1  0  0  0  0
 30 28  1  0  0  0  0
 31 29  2  0  0  0  0
 32 33  2  0  0  0  0
M  END
>  <MODEL>
1

>  <REMARK>
 VINA RESULT:      -7.0      0.000      0.000
  Name = 
  7 active torsions:
  status: ('A' for Active; 'I' for Inactive)
    1  A    between atoms: O_2  and  C_12
    2  A    between atoms: O_2  and  C_31
    3  A    between atoms: N_6  and  C_9
    4  A    between atoms: O_8  and  C_13
    5  A    between atoms: O_8  and  C_19
    6  A    between atoms: C_17  and  C_19
    7  A    between atoms: C_17  and  C_24
                            x       y       z     vdW  Elec       q    Type
                         _______ _______ _______ _____ _____    ______ ____

>  <TORSDO>
F 7

$$$$
=
 OpenBabel11042416183D

 33 36  0  0  1  0  0  0  0  0999 V2000
  190.7200  177.8900  148.4120 C   0  0  0  0  0  1  0  0  0  0  0  0
  190.1620  176.6740  146.3110 C   0  0  1  0  0  3  0  0  0  0  0  0
  192.2110  175.6200  146.6800 N   0  0  0  0  0  0  0  0  0  0  0  0
  191.5540  175.5950  147.9690 C   0  0  0  0  0  2  0  0  0  0  0  0
  190.3680  176.5370  147.8230 C   0  0  1  0  0  3  0  0  0  0  0  0
  191.7530  177.5700  142.4740 O   0  0  0  0  0  0  0  0  0  0  0  0
  192.0210  176.5140  144.5150 N   0  0  0  0  0  2  0  0  0  0  0  0
  191.3020  176.7340  143.3020 C   0  0  0  0  0  0  0  0  0  0  0  0
  191.4590  176.1460  145.7790 C   0  0  0  0  0  0  0  0  0  0  0  0
  186.3230  178.3580  146.4680 C   0  0  2  0  0  3  0  0  0  0  0  0
  189.0500  175.8110  145.9040 N   0  0  1  0  0  0  0  0  0  0  0  0
  187.7760  176.2800  146.5140 C   0  0  2  0  0  3  0  0  0  0  0  0
  188.0930  176.6130  145.1330 C   0  0  2  0  0  3  0  0  0  0  0  0
  185.7540  176.8760  144.3900 C   0  0  2  0  0  3  0  0  0  0  0  0
  185.6680  179.1150  147.4380 O   0  0  0  0  0  1  0  0  0  0  0  0
  185.3120  177.3970  145.7860 C   0  0  0  0  0  2  0  0  0  0  0  0
  187.5660  177.6740  147.1000 C   0  0  0  0  0  2  0  0  0  0  0  0
  186.9580  175.9120  144.4260 C   0  0  0  0  0  2  0  0  0  0  0  0
  186.0190  177.9610  143.5070 O   0  0  0  0  0  0  0  0  0  0  0  0
  184.0560  178.1910  142.2440 C   0  0  0  0  0  2  0  0  0  0  0  0
  185.3780  178.1110  142.2740 C   0  0  0  0  0  0  0  0  0  0  0  0
  186.1450  178.1960  140.9910 C   0  0  0  0  0  2  0  0  0  0  0  0
  187.6200  176.3250  140.8990 O   0  0  0  0  0  0  0  0  0  0  0  0
  187.4850  177.5560  141.1260 C   0  0  0  0  0  0  0  0  0  0  0  0
  188.5890  178.3160  141.4910 O   0  0  0  0  0  1  0  0  0  0  0  0
  190.1950  175.9360  142.9850 O   0  0  0  0  0  0  0  0  0  0  0  0
  191.3950  172.8030  141.4290 C   0  0  0  0  0  3  0  0  0  0  0  0
  190.4720  171.8740  141.9180 C   0  0  0  0  0  0  0  0  0  0  0  0
  190.2490  174.5800  142.6240 C   0  0  0  0  0  0  0  0  0  0  0  0
  190.6230  170.1840  141.4880 Cl  0  0  0  0  0  0  0  0  0  0  0  0
  191.2820  174.1520  141.7820 C   0  0  0  0  0  3  0  0  0  0  0  0
  189.4350  172.2930  142.7540 C   0  0  0  0  0  3  0  0  0  0  0  0
  189.3240  173.6400  143.1080 C   0  0  0  0  0  3  0  0  0  0  0  0
  2  9  1  6  0  0  0
  2  5  1  0  0  0  0
  3  4  1  0  0  0  0
  5  4  1  0  0  0  0
  5  1  1  6  0  0  0
  6  8  2  0  0  0  0
  7  9  1  0  0  0  0
  8  7  1  0  0  0  0
  9  3  2  0  0  0  0
 10 17  1  0  0  0  0
 10 15  1  1  0  0  0
 11  2  1  1  0  0  0
 11 12  1  0  0  0  0
 12 17  1  1  0  0  0
 13 18  1  6  0  0  0
 13 11  1  0  0  0  0
 13 12  1  0  0  0  0
 14 19  1  6  0  0  0
 14 18  1  0  0  0  0
 14 16  1  0  0  0  0
 16 10  1  0  0  0  0
 20 21  2  0  0  0  0
 21 19  1  0  0  0  0
 22 24  1  0  0  0  0
 22 21  1  0  0  0  0
 23 24  2  0  0  0  0
 24 25  1  0  0  0  0
 26  8  1  0  0  0  0
 27 31  2  0  0  0  0
 27 28  1  0  0  0  0
 28 32  2  0  0  0  0
 29 26  1  0  0  0  0
 29 33  2  0  0  0  0
 30 28  1  0  0  0  0
 31 29  1  0  0  0  0
 32 33  1  0  0  0  0
M  END
>  <MODEL>
2

>  <REMARK>
 VINA RESULT:      -6.7      2.688      5.519
  Name = 
  7 active torsions:
  status: ('A' for Active; 'I' for Inactive)
    1  A    between atoms: O_2  and  C_12
    2  A    between atoms: O_2  and  C_31
    3  A    between atoms: N_6  and  C_9
    4  A    between atoms: O_8  and  C_13
    5  A    between atoms: O_8  and  C_19
    6  A    between atoms: C_17  and  C_19
    7  A    between atoms: C_17  and  C_24
                            x       y       z     vdW  Elec       q    Type
                         _______ _______ _______ _____ _____    ______ ____

>  <TORSDO>
F 7

$$$$
=
 OpenBabel11042416183D

 33 36  0  0  1  0  0  0  0  0999 V2000
  191.3370  173.1830  139.0050 C   0  0  0  0  0  1  0  0  0  0  0  0
  189.9380  173.7820  140.9770 C   0  0  1  0  0  3  0  0  0  0  0  0
  188.1680  173.5040  139.4830 N   0  0  0  0  0  0  0  0  0  0  0  0
  189.0140  172.3510  139.2600 C   0  0  0  0  0  2  0  0  0  0  0  0
  190.3090  172.6670  139.9930 C   0  0  1  0  0  3  0  0  0  0  0  0
  188.2290  177.6050  141.6910 O   0  0  0  0  0  0  0  0  0  0  0  0
  188.0930  175.5620  140.6150 N   0  0  0  0  0  2  0  0  0  0  0  0
  188.1850  176.3510  141.8010 C   0  0  0  0  0  0  0  0  0  0  0  0
  188.6240  174.2460  140.4290 C   0  0  0  0  0  0  0  0  0  0  0  0
  193.3630  173.5420  143.3890 C   0  0  2  0  0  3  0  0  0  0  0  0
  189.7630  173.1980  142.3100 N   0  0  1  0  0  0  0  0  0  0  0  0
  191.0540  172.6600  142.8180 C   0  0  2  0  0  3  0  0  0  0  0  0
  190.5750  173.9590  143.2650 C   0  0  2  0  0  3  0  0  0  0  0  0
  191.7710  173.9440  145.4250 C   0  0  2  0  0  3  0  0  0  0  0  0
  194.6640  173.1130  143.1330 O   0  0  0  0  0  1  0  0  0  0  0  0
  192.9510  173.1260  144.8270 C   0  0  0  0  0  2  0  0  0  0  0  0
  192.4230  173.0410  142.2580 C   0  0  0  0  0  2  0  0  0  0  0  0
  190.4120  173.6860  144.7410 C   0  0  0  0  0  2  0  0  0  0  0  0
  192.0680  175.3360  145.4200 O   0  0  0  0  0  0  0  0  0  0  0  0
  191.5790  176.1040  147.5810 C   0  0  0  0  0  2  0  0  0  0  0  0
  192.4330  176.0390  146.5710 C   0  0  0  0  0  0  0  0  0  0  0  0
  193.7670  176.7080  146.6970 C   0  0  0  0  0  2  0  0  0  0  0  0
  195.4500  175.1110  146.1490 O   0  0  0  0  0  1  0  0  0  0  0  0
  194.7620  176.0960  145.7720 C   0  0  0  0  0  0  0  0  0  0  0  0
  194.9250  176.6010  144.4880 O   0  0  0  0  0  0  0  0  0  0  0  0
  188.0900  175.7440  143.0600 O   0  0  0  0  0  0  0  0  0  0  0  0
  188.2720  177.4220  146.3500 C   0  0  0  0  0  3  0  0  0  0  0  0
  186.9300  177.7320  146.5840 C   0  0  0  0  0  0  0  0  0  0  0  0
  187.6730  176.3830  144.2390 C   0  0  0  0  0  0  0  0  0  0  0  0
  186.4710  178.5870  148.0400 Cl  0  0  0  0  0  0  0  0  0  0  0  0
  188.6410  176.7490  145.1810 C   0  0  0  0  0  3  0  0  0  0  0  0
  185.9560  177.3650  145.6520 C   0  0  0  0  0  3  0  0  0  0  0  0
  186.3250  176.6950  144.4830 C   0  0  0  0  0  3  0  0  0  0  0  0
  2  9  1  6  0  0  0
  3  9  2  0  0  0  0
  4  3  1  0  0  0  0
  4  5  1  0  0  0  0
  5  1  1  6  0  0  0
  5  2  1  0  0  0  0
  6  8  2  0  0  0  0
  7  8  1  0  0  0  0
  8 26  1  0  0  0  0
  9  7  1  0  0  0  0
 10 15  1  6  0  0  0
 10 16  1  0  0  0  0
 11  2  1  6  0  0  0
 11 12  1  0  0  0  0
 11 13  1  0  0  0  0
 12 17  1  6  0  0  0
 12 13  1  0  0  0  0
 13 18  1  1  0  0  0
 14 19  1  6  0  0  0
 16 14  1  0  0  0  0
 17 10  1  0  0  0  0
 18 14  1  0  0  0  0
 19 21  1  0  0  0  0
 21 22  1  0  0  0  0
 21 20  2  0  0  0  0
 24 23  1  0  0  0  0
 24 22  1  0  0  0  0
 25 24  2  0  0  0  0
 26 29  1  0  0  0  0
 27 28  1  0  0  0  0
 28 30  1  0  0  0  0
 29 33  2  0  0  0  0
 29 31  1  0  0  0  0
 31 27  2  0  0  0  0
 32 28  2  0  0  0  0
 33 32  1  0  0  0  0
M  END
>  <MODEL>
3

>  <REMARK>
 VINA RESULT:      -6.7      2.904      5.980
  Name = 
  7 active torsions:
  status: ('A' for Active; 'I' for Inactive)
    1  A    between atoms: O_2  and  C_12
    2  A    between atoms: O_2  and  C_31
    3  A    between atoms: N_6  and  C_9
    4  A    between atoms: O_8  and  C_13
    5  A    between atoms: O_8  and  C_19
    6  A    between atoms: C_17  and  C_19
    7  A    between atoms: C_17  and  C_24
                            x       y       z     vdW  Elec       q    Type
                         _______ _______ _______ _____ _____    ______ ____

>  <TORSDO>
F 7

$$$$
=
 OpenBabel11042416183D

 33 36  0  0  1  0  0  0  0  0999 V2000
  189.7680  172.1900  140.8850 C   0  0  0  0  0  1  0  0  0  0  0  0
  189.3380  174.0020  142.5390 C   0  0  1  0  0  3  0  0  0  0  0  0
  187.1520  173.8630  141.7370 N   0  0  0  0  0  0  0  0  0  0  0  0
  187.5470  172.4870  141.9490 C   0  0  0  0  0  2  0  0  0  0  0  0
  189.0500  172.5420  142.1740 C   0  0  1  0  0  3  0  0  0  0  0  0
  189.0080  178.1340  141.6080 O   0  0  0  0  0  0  0  0  0  0  0  0
  187.9960  176.0560  141.7130 N   0  0  0  0  0  2  0  0  0  0  0  0
  188.6880  177.1460  142.3220 C   0  0  0  0  0  0  0  0  0  0  0  0
  188.0780  174.6800  142.0960 C   0  0  0  0  0  0  0  0  0  0  0  0
  193.2040  173.4200  144.0630 C   0  0  2  0  0  3  0  0  0  0  0  0
  189.4930  174.1040  143.9930 N   0  0  1  0  0  0  0  0  0  0  0  0
  190.6970  173.3550  144.4430 C   0  0  2  0  0  3  0  0  0  0  0  0
  190.7520  174.8000  144.2820 C   0  0  2  0  0  3  0  0  0  0  0  0
  192.5770  175.1690  145.9030 C   0  0  2  0  0  3  0  0  0  0  0  0
  194.1790  172.4580  143.8080 O   0  0  0  0  0  1  0  0  0  0  0  0
  193.2240  173.7960  145.5690 C   0  0  0  0  0  2  0  0  0  0  0  0
  191.8350  172.9230  143.5220 C   0  0  0  0  0  2  0  0  0  0  0  0
  191.0470  175.2130  145.7040 C   0  0  0  0  0  2  0  0  0  0  0  0
  193.1990  176.2140  145.1630 O   0  0  0  0  0  0  0  0  0  0  0  0
  194.5540  177.2590  146.7680 C   0  0  0  0  0  2  0  0  0  0  0  0
  194.4170  176.7880  145.5370 C   0  0  0  0  0  0  0  0  0  0  0  0
  195.5730  176.8720  144.5900 C   0  0  0  0  0  2  0  0  0  0  0  0
  196.2200  175.1290  143.0980 O   0  0  0  0  0  0  0  0  0  0  0  0
  196.1200  175.5180  144.2910 C   0  0  0  0  0  0  0  0  0  0  0  0
  196.5300  174.6870  145.3250 O   0  0  0  0  0  1  0  0  0  0  0  0
  188.8840  177.1690  143.7090 O   0  0  0  0  0  0  0  0  0  0  0  0
  185.8920  178.7310  145.2210 C   0  0  0  0  0  3  0  0  0  0  0  0
  185.8630  178.1240  146.4790 C   0  0  0  0  0  0  0  0  0  0  0  0
  187.9030  177.4890  144.6600 C   0  0  0  0  0  0  0  0  0  0  0  0
  184.5800  178.5110  147.6060 Cl  0  0  0  0  0  0  0  0  0  0  0  0
  186.9100  178.4140  144.3160 C   0  0  0  0  0  3  0  0  0  0  0  0
  186.8520  177.2040  146.8350 C   0  0  0  0  0  3  0  0  0  0  0  0
  187.8670  176.8860  145.9290 C   0  0  0  0  0  3  0  0  0  0  0  0
  2  9  1  1  0  0  0
  3  4  1  0  0  0  0
  3  9  2  0  0  0  0
  4  5  1  0  0  0  0
  5  1  1  6  0  0  0
  5  2  1  0  0  0  0
  6  8  2  0  0  0  0
  7  9  1  0  0  0  0
  7  8  1  0  0  0  0
  8 26  1  0  0  0  0
 10 15  1  1  0  0  0
 10 16  1  0  0  0  0
 11  2  1  6  0  0  0
 11 13  1  0  0  0  0
 11 12  1  0  0  0  0
 12 17  1  6  0  0  0
 13 12  1  0  0  0  0
 13 18  1  1  0  0  0
 14 19  1  6  0  0  0
 16 14  1  0  0  0  0
 17 10  1  0  0  0  0
 18 14  1  0  0  0  0
 19 21  1  0  0  0  0
 21 20  2  0  0  0  0
 22 21  1  0  0  0  0
 23 24  2  0  0  0  0
 24 22  1  0  0  0  0
 24 25  1  0  0  0  0
 26 29  1  0  0  0  0
 27 28  1  0  0  0  0
 28 32  2  0  0  0  0
 28 30  1  0  0  0  0
 29 33  2  0  0  0  0
 31 29  1  0  0  0  0
 31 27  2  0  0  0  0
 33 32  1  0  0  0  0
M  END
>  <MODEL>
4

>  <REMARK>
 VINA RESULT:      -6.5      3.106      6.186
  Name = 
  7 active torsions:
  status: ('A' for Active; 'I' for Inactive)
    1  A    between atoms: O_2  and  C_12
    2  A    between atoms: O_2  and  C_31
    3  A    between atoms: N_6  and  C_9
    4  A    between atoms: O_8  and  C_13
    5  A    between atoms: O_8  and  C_19
    6  A    between atoms: C_17  and  C_19
    7  A    between atoms: C_17  and  C_24
                            x       y       z     vdW  Elec       q    Type
                         _______ _______ _______ _____ _____    ______ ____

>  <TORSDO>
F 7

$$$$
=
 OpenBabel11042416183D

 33 36  0  0  1  0  0  0  0  0999 V2000
  188.1890  173.0250  139.4450 C   0  0  0  0  0  1  0  0  0  0  0  0
  189.4090  173.6790  141.5160 C   0  0  1  0  0  3  0  0  0  0  0  0
  190.9180  172.0340  140.8390 N   0  0  0  0  0  0  0  0  0  0  0  0
  190.6520  172.7960  139.6380 C   0  0  0  0  0  2  0  0  0  0  0  0
  189.4530  173.6670  139.9840 C   0  0  1  0  0  3  0  0  0  0  0  0
  189.3170  171.5400  145.1850 O   0  0  0  0  0  0  0  0  0  0  0  0
  190.2110  171.7650  143.0640 N   0  0  0  0  0  2  0  0  0  0  0  0
  189.9260  172.2780  144.3650 C   0  0  0  0  0  0  0  0  0  0  0  0
  190.3010  172.5260  141.8550 C   0  0  0  0  0  0  0  0  0  0  0  0
  186.7070  176.6600  142.7060 C   0  0  2  0  0  3  0  0  0  0  0  0
  189.9880  174.9370  141.9950 N   0  0  1  0  0  0  0  0  0  0  0  0
  189.0140  176.0510  141.8450 C   0  0  2  0  0  3  0  0  0  0  0  0
  189.1990  175.4100  143.1380 C   0  0  2  0  0  3  0  0  0  0  0  0
  188.4900  177.3500  144.4900 C   0  0  2  0  0  3  0  0  0  0  0  0
  185.5470  177.1650  142.1200 O   0  0  0  0  0  1  0  0  0  0  0  0
  187.4840  177.8120  143.3980 C   0  0  0  0  0  2  0  0  0  0  0  0
  187.5120  175.8590  141.6460 C   0  0  0  0  0  2  0  0  0  0  0  0
  189.7110  176.5810  143.9420 C   0  0  0  0  0  2  0  0  0  0  0  0
  187.8310  176.5790  145.4890 O   0  0  0  0  0  0  0  0  0  0  0  0
  187.3210  177.9670  147.3100 C   0  0  0  0  0  2  0  0  0  0  0  0
  186.9010  177.1240  146.3780 C   0  0  0  0  0  0  0  0  0  0  0  0
  185.4430  176.7910  146.2980 C   0  0  0  0  0  2  0  0  0  0  0  0
  184.4250  178.4760  144.9540 O   0  0  0  0  0  0  0  0  0  0  0  0
  184.6230  178.0220  146.1100 C   0  0  0  0  0  0  0  0  0  0  0  0
  184.0660  178.6640  147.2090 O   0  0  0  0  0  1  0  0  0  0  0  0
  190.4360  173.5210  144.7600 O   0  0  0  0  0  0  0  0  0  0  0  0
  194.1020  173.1100  145.0210 C   0  0  0  0  0  3  0  0  0  0  0  0
  194.4610  174.2420  145.7580 C   0  0  0  0  0  0  0  0  0  0  0  0
  191.7680  173.7710  145.1280 C   0  0  0  0  0  0  0  0  0  0  0  0
  196.1440  174.5410  146.1360 Cl  0  0  0  0  0  0  0  0  0  0  0  0
  192.7590  172.8770  144.7080 C   0  0  0  0  0  3  0  0  0  0  0  0
  193.4790  175.1380  146.1850 C   0  0  0  0  0  3  0  0  0  0  0  0
  192.1380  174.9050  145.8710 C   0  0  0  0  0  3  0  0  0  0  0  0
  2  9  1  1  0  0  0
  3  9  2  0  0  0  0
  4  5  1  0  0  0  0
  4  3  1  0  0  0  0
  5  1  1  6  0  0  0
  5  2  1  0  0  0  0
  7  8  1  0  0  0  0
  8 26  1  0  0  0  0
  8  6  2  0  0  0  0
  9  7  1  0  0  0  0
 10 15  1  6  0  0  0
 10 16  1  0  0  0  0
 11  2  1  6  0  0  0
 11 13  1  0  0  0  0
 12 17  1  6  0  0  0
 12 11  1  0  0  0  0
 12 13  1  0  0  0  0
 13 18  1  1  0  0  0
 14 19  1  1  0  0  0
 16 14  1  0  0  0  0
 17 10  1  0  0  0  0
 18 14  1  0  0  0  0
 19 21  1  0  0  0  0
 21 20  2  0  0  0  0
 22 21  1  0  0  0  0
 23 24  2  0  0  0  0
 24 22  1  0  0  0  0
 24 25  1  0  0  0  0
 26 29  1  0  0  0  0
 27 28  1  0  0  0  0
 28 30  1  0  0  0  0
 28 32  2  0  0  0  0
 29 33  2  0  0  0  0
 31 27  2  0  0  0  0
 31 29  1  0  0  0  0
 33 32  1  0  0  0  0
M  END
>  <MODEL>
5

>  <REMARK>
 VINA RESULT:      -6.3      2.467      4.901
  Name = 
  7 active torsions:
  status: ('A' for Active; 'I' for Inactive)
    1  A    between atoms: O_2  and  C_12
    2  A    between atoms: O_2  and  C_31
    3  A    between atoms: N_6  and  C_9
    4  A    between atoms: O_8  and  C_13
    5  A    between atoms: O_8  and  C_19
    6  A    between atoms: C_17  and  C_19
    7  A    between atoms: C_17  and  C_24
                            x       y       z     vdW  Elec       q    Type
                         _______ _______ _______ _____ _____    ______ ____

>  <TORSDO>
F 7

$$$$
=
 OpenBabel11042416183D

 33 36  0  0  1  0  0  0  0  0999 V2000
  195.2450  174.8950  146.1970 C   0  0  0  0  0  1  0  0  0  0  0  0
  192.9800  175.4840  145.3420 C   0  0  1  0  0  3  0  0  0  0  0  0
  192.9430  176.9240  147.1770 N   0  0  0  0  0  0  0  0  0  0  0  0
  194.2440  177.1340  146.5800 C   0  0  0  0  0  2  0  0  0  0  0  0
  194.4040  175.9970  145.5800 C   0  0  1  0  0  3  0  0  0  0  0  0
  189.3160  174.0120  146.9110 O   0  0  0  0  0  0  0  0  0  0  0  0
  191.0480  175.5380  147.0650 N   0  0  0  0  0  2  0  0  0  0  0  0
  189.9750  174.9280  146.3490 C   0  0  0  0  0  0  0  0  0  0  0  0
  192.2420  176.0860  146.4980 C   0  0  0  0  0  0  0  0  0  0  0  0
  193.6600  173.1740  141.9060 C   0  0  2  0  0  3  0  0  0  0  0  0
  192.4860  176.0300  144.0750 N   0  0  1  0  0  0  0  0  0  0  0  0
  193.2430  175.4570  142.9290 C   0  0  2  0  0  3  0  0  0  0  0  0
  191.9310  174.9330  143.2760 C   0  0  2  0  0  3  0  0  0  0  0  0
  191.3820  174.1000  141.0180 C   0  0  2  0  0  3  0  0  0  0  0  0
  194.7880  172.5070  141.4300 O   0  0  0  0  0  1  0  0  0  0  0  0
  192.8730  173.7820  140.7140 C   0  0  0  0  0  2  0  0  0  0  0  0
  194.0850  174.1860  143.0060 C   0  0  0  0  0  2  0  0  0  0  0  0
  191.1730  175.2620  142.0130 C   0  0  0  0  0  2  0  0  0  0  0  0
  190.6990  172.9360  141.4700 O   0  0  0  0  0  0  0  0  0  0  0  0
  188.5570  172.6640  142.3870 C   0  0  0  0  0  2  0  0  0  0  0  0
  189.3230  172.7520  141.3090 C   0  0  0  0  0  0  0  0  0  0  0  0
  188.6920  172.6650  139.9540 C   0  0  0  0  0  2  0  0  0  0  0  0
  188.2590  174.2050  138.1880 O   0  0  0  0  0  0  0  0  0  0  0  0
  188.3660  174.0200  139.4280 C   0  0  0  0  0  0  0  0  0  0  0  0
  188.1670  175.0800  140.3040 O   0  0  0  0  0  1  0  0  0  0  0  0
  189.5820  175.4330  145.1030 O   0  0  0  0  0  0  0  0  0  0  0  0
  187.4670  177.9150  143.3590 C   0  0  0  0  0  3  0  0  0  0  0  0
  186.6810  178.4020  144.4060 C   0  0  0  0  0  0  0  0  0  0  0  0
  188.6260  176.4410  144.9020 C   0  0  0  0  0  0  0  0  0  0  0  0
  185.4580  179.6140  144.0910 Cl  0  0  0  0  0  0  0  0  0  0  0  0
  188.4360  176.9380  143.6080 C   0  0  0  0  0  3  0  0  0  0  0  0
  186.8660  177.9160  145.7030 C   0  0  0  0  0  3  0  0  0  0  0  0
  187.8330  176.9390  145.9500 C   0  0  0  0  0  3  0  0  0  0  0  0
  2  5  1  0  0  0  0
  2  9  1  1  0  0  0
  4  3  1  0  0  0  0
  5  1  1  1  0  0  0
  5  4  1  0  0  0  0
  8  6  2  0  0  0  0
  8  7  1  0  0  0  0
  9  7  1  0  0  0  0
  9  3  2  0  0  0  0
 10 15  1  6  0  0  0
 10 17  1  0  0  0  0
 11  2  1  1  0  0  0
 12 17  1  1  0  0  0
 12 13  1  0  0  0  0
 12 11  1  0  0  0  0
 13 18  1  6  0  0  0
 13 11  1  0  0  0  0
 14 19  1  1  0  0  0
 14 18  1  0  0  0  0
 16 14  1  0  0  0  0
 16 10  1  0  0  0  0
 21 19  1  0  0  0  0
 21 20  2  0  0  0  0
 22 21  1  0  0  0  0
 23 24  2  0  0  0  0
 24 22  1  0  0  0  0
 24 25  1  0  0  0  0
 26  8  1  0  0  0  0
 27 31  2  0  0  0  0
 27 28  1  0  0  0  0
 28 32  2  0  0  0  0
 29 26  1  0  0  0  0
 29 33  2  0  0  0  0
 30 28  1  0  0  0  0
 31 29  1  0  0  0  0
 32 33  1  0  0  0  0
M  END
>  <MODEL>
6

>  <REMARK>
 VINA RESULT:      -6.0      3.389      7.708
  Name = 
  7 active torsions:
  status: ('A' for Active; 'I' for Inactive)
    1  A    between atoms: O_2  and  C_12
    2  A    between atoms: O_2  and  C_31
    3  A    between atoms: N_6  and  C_9
    4  A    between atoms: O_8  and  C_13
    5  A    between atoms: O_8  and  C_19
    6  A    between atoms: C_17  and  C_19
    7  A    between atoms: C_17  and  C_24
                            x       y       z     vdW  Elec       q    Type
                         _______ _______ _______ _____ _____    ______ ____

>  <TORSDO>
F 7

$$$$
=
 OpenBabel11042416183D

 33 36  0  0  1  0  0  0  0  0999 V2000
  188.1910  173.2980  139.4330 C   0  0  0  0  0  1  0  0  0  0  0  0
  189.2390  173.9760  141.5890 C   0  0  1  0  0  3  0  0  0  0  0  0
  190.9000  172.4630  140.9620 N   0  0  0  0  0  0  0  0  0  0  0  0
  190.6490  173.2400  139.7660 C   0  0  0  0  0  2  0  0  0  0  0  0
  189.3720  174.0120  140.0630 C   0  0  1  0  0  3  0  0  0  0  0  0
  189.0920  171.7290  145.1910 O   0  0  0  0  0  0  0  0  0  0  0  0
  190.0880  172.0790  143.1330 N   0  0  0  0  0  2  0  0  0  0  0  0
  189.6930  172.5310  144.4280 C   0  0  0  0  0  0  0  0  0  0  0  0
  190.1920  172.8790  141.9510 C   0  0  0  0  0  0  0  0  0  0  0  0
  186.4070  177.0670  141.7620 C   0  0  2  0  0  3  0  0  0  0  0  0
  189.6970  175.2570  142.1340 N   0  0  1  0  0  0  0  0  0  0  0  0
  188.8420  176.3700  141.6400 C   0  0  2  0  0  3  0  0  0  0  0  0
  188.6310  175.8190  142.9700 C   0  0  2  0  0  3  0  0  0  0  0  0
  187.6270  177.8570  143.9350 C   0  0  2  0  0  3  0  0  0  0  0  0
  185.4790  177.5430  140.8370 O   0  0  0  0  0  1  0  0  0  0  0  0
  186.9900  178.2540  142.5730 C   0  0  0  0  0  2  0  0  0  0  0  0
  187.4550  176.1830  141.0310 C   0  0  0  0  0  2  0  0  0  0  0  0
  188.9290  177.0370  143.8100 C   0  0  0  0  0  2  0  0  0  0  0  0
  186.6860  177.1660  144.7500 O   0  0  0  0  0  0  0  0  0  0  0  0
  185.5830  178.7230  146.1140 C   0  0  0  0  0  2  0  0  0  0  0  0
  186.3040  177.6160  146.0170 C   0  0  0  0  0  0  0  0  0  0  0  0
  186.6750  176.8740  147.2630 C   0  0  0  0  0  2  0  0  0  0  0  0
  188.4580  175.2920  147.2350 O   0  0  0  0  0  0  0  0  0  0  0  0
  188.1190  176.5040  147.2540 C   0  0  0  0  0  0  0  0  0  0  0  0
  189.0940  177.4940  147.2550 O   0  0  0  0  0  1  0  0  0  0  0  0
  190.0870  173.7960  144.8830 O   0  0  0  0  0  0  0  0  0  0  0  0
  193.7570  173.5770  145.2870 C   0  0  0  0  0  3  0  0  0  0  0  0
  194.0670  174.8580  145.7500 C   0  0  0  0  0  0  0  0  0  0  0  0
  191.4030  174.1670  145.2040 C   0  0  0  0  0  0  0  0  0  0  0  0
  195.7310  175.2910  146.0750 Cl  0  0  0  0  0  0  0  0  0  0  0  0
  192.4280  173.2340  145.0160 C   0  0  0  0  0  3  0  0  0  0  0  0
  193.0500  175.7950  145.9460 C   0  0  0  0  0  3  0  0  0  0  0  0
  191.7230  175.4530  145.6730 C   0  0  0  0  0  3  0  0  0  0  0  0
  2  9  1  1  0  0  0
  3  9  2  0  0  0  0
  4  5  1  0  0  0  0
  4  3  1  0  0  0  0
  5  1  1  6  0  0  0
  5  2  1  0  0  0  0
  7  8  1  0  0  0  0
  8 26  1  0  0  0  0
  8  6  2  0  0  0  0
  9  7  1  0  0  0  0
 10 15  1  6  0  0  0
 10 16  1  0  0  0  0
 11  2  1  6  0  0  0
 11 13  1  0  0  0  0
 12 17  1  6  0  0  0
 12 11  1  0  0  0  0
 12 13  1  0  0  0  0
 13 18  1  1  0  0  0
 14 19  1  1  0  0  0
 16 14  1  0  0  0  0
 17 10  1  0  0  0  0
 18 14  1  0  0  0  0
 19 21  1  0  0  0  0
 21 20  2  0  0  0  0
 21 22  1  0  0  0  0
 23 24  2  0  0  0  0
 24 25  1  0  0  0  0
 24 22  1  0  0  0  0
 26 29  1  0  0  0  0
 27 28  1  0  0  0  0
 28 32  2  0  0  0  0
 28 30  1  0  0  0  0
 29 33  2  0  0  0  0
 31 29  1  0  0  0  0
 31 27  2  0  0  0  0
 33 32  1  0  0  0  0
M  END
>  <MODEL>
7

>  <REMARK>
 VINA RESULT:      -6.0      2.385      4.395
  Name = 
  7 active torsions:
  status: ('A' for Active; 'I' for Inactive)
    1  A    between atoms: O_2  and  C_12
    2  A    between atoms: O_2  and  C_31
    3  A    between atoms: N_6  and  C_9
    4  A    between atoms: O_8  and  C_13
    5  A    between atoms: O_8  and  C_19
    6  A    between atoms: C_17  and  C_19
    7  A    between atoms: C_17  and  C_24
                            x       y       z     vdW  Elec       q    Type
                         _______ _______ _______ _____ _____    ______ ____

>  <TORSDO>
F 7

$$$$
=
 OpenBabel11042416183D

 33 36  0  0  1  0  0  0  0  0999 V2000
  186.3960  177.5110  145.6900 C   0  0  0  0  0  1  0  0  0  0  0  0
  187.9790  176.6900  143.9500 C   0  0  1  0  0  3  0  0  0  0  0  0
  186.1830  177.0630  142.5070 N   0  0  0  0  0  0  0  0  0  0  0  0
  186.2410  178.2540  143.3270 C   0  0  0  0  0  2  0  0  0  0  0  0
  187.1940  177.9030  144.4600 C   0  0  1  0  0  3  0  0  0  0  0  0
  187.9860  172.7720  142.3070 O   0  0  0  0  0  0  0  0  0  0  0  0
  187.0900  174.9050  142.2990 N   0  0  0  0  0  2  0  0  0  0  0  0
  188.1950  174.0090  142.1850 C   0  0  0  0  0  0  0  0  0  0  0  0
  187.1340  176.2460  142.7960 C   0  0  0  0  0  0  0  0  0  0  0  0
  191.1390  176.4290  146.6970 C   0  0  2  0  0  3  0  0  0  0  0  0
  189.2930  177.1390  143.4830 N   0  0  1  0  0  0  0  0  0  0  0  0
  190.1510  177.5270  144.6340 C   0  0  2  0  0  3  0  0  0  0  0  0
  190.3140  176.2250  144.0060 C   0  0  2  0  0  3  0  0  0  0  0  0
  192.6800  175.9250  144.6450 C   0  0  2  0  0  3  0  0  0  0  0  0
  191.2500  176.7910  148.0380 O   0  0  0  0  0  1  0  0  0  0  0  0
  192.4790  176.7170  145.9670 C   0  0  0  0  0  2  0  0  0  0  0  0
  189.8880  177.1130  146.0800 C   0  0  0  0  0  2  0  0  0  0  0  0
  191.7310  176.3500  143.5030 C   0  0  0  0  0  2  0  0  0  0  0  0
  192.5760  174.5240  144.8740 O   0  0  0  0  0  0  0  0  0  0  0  0
  193.4840  172.3630  144.9630 C   0  0  0  0  0  2  0  0  0  0  0  0
  193.6190  173.6320  144.6090 C   0  0  0  0  0  0  0  0  0  0  0  0
  194.8770  174.0700  143.9250 C   0  0  0  0  0  2  0  0  0  0  0  0
  197.1510  174.0290  144.6370 O   0  0  0  0  0  0  0  0  0  0  0  0
  195.9610  174.3300  144.9150 C   0  0  0  0  0  0  0  0  0  0  0  0
  195.6640  174.9150  146.1390 O   0  0  0  0  0  1  0  0  0  0  0  0
  189.4560  174.4900  141.8090 O   0  0  0  0  0  0  0  0  0  0  0  0
  192.4940  172.6420  140.7950 C   0  0  0  0  0  3  0  0  0  0  0  0
  192.2250  172.3730  139.4500 C   0  0  0  0  0  0  0  0  0  0  0  0
  190.3740  173.8090  140.9940 C   0  0  0  0  0  0  0  0  0  0  0  0
  193.3750  171.4640  138.4940 Cl  0  0  0  0  0  0  0  0  0  0  0  0
  191.5700  173.3580  141.5630 C   0  0  0  0  0  3  0  0  0  0  0  0
  191.0360  172.8230  138.8720 C   0  0  0  0  0  3  0  0  0  0  0  0
  190.1130  173.5360  139.6410 C   0  0  0  0  0  3  0  0  0  0  0  0
  2  9  1  6  0  0  0
  2  5  1  0  0  0  0
  3  9  2  0  0  0  0
  3  4  1  0  0  0  0
  4  5  1  0  0  0  0
  5  1  1  1  0  0  0
  7  9  1  0  0  0  0
  8  7  1  0  0  0  0
  8  6  2  0  0  0  0
 10 15  1  1  0  0  0
 11  2  1  1  0  0  0
 11 13  1  0  0  0  0
 11 12  1  0  0  0  0
 12 17  1  1  0  0  0
 13 18  1  6  0  0  0
 13 12  1  0  0  0  0
 14 19  1  1  0  0  0
 14 16  1  0  0  0  0
 16 10  1  0  0  0  0
 17 10  1  0  0  0  0
 18 14  1  0  0  0  0
 21 19  1  0  0  0  0
 21 20  2  0  0  0  0
 22 21  1  0  0  0  0
 22 24  1  0  0  0  0
 23 24  2  0  0  0  0
 24 25  1  0  0  0  0
 26  8  1  0  0  0  0
 27 31  1  0  0  0  0
 28 27  2  0  0  0  0
 29 31  2  0  0  0  0
 29 26  1  0  0  0  0
 30 28  1  0  0  0  0
 32 28  1  0  0  0  0
 32 33  2  0  0  0  0
 33 29  1  0  0  0  0
M  END
>  <MODEL>
8

>  <REMARK>
 VINA RESULT:      -5.9      2.384      3.973
  Name = 
  7 active torsions:
  status: ('A' for Active; 'I' for Inactive)
    1  A    between atoms: O_2  and  C_12
    2  A    between atoms: O_2  and  C_31
    3  A    between atoms: N_6  and  C_9
    4  A    between atoms: O_8  and  C_13
    5  A    between atoms: O_8  and  C_19
    6  A    between atoms: C_17  and  C_19
    7  A    between atoms: C_17  and  C_24
                            x       y       z     vdW  Elec       q    Type
                         _______ _______ _______ _____ _____    ______ ____

>  <TORSDO>
F 7

$$$$
=
 OpenBabel11042416183D

 33 36  0  0  1  0  0  0  0  0999 V2000
  190.0780  177.9340  147.9500 C   0  0  0  0  0  1  0  0  0  0  0  0
  189.8200  176.5500  145.8950 C   0  0  1  0  0  3  0  0  0  0  0  0
  191.6770  175.4150  146.7360 N   0  0  0  0  0  0  0  0  0  0  0  0
  190.7960  175.5600  147.8750 C   0  0  0  0  0  2  0  0  0  0  0  0
  189.7340  176.5530  147.4250 C   0  0  1  0  0  3  0  0  0  0  0  0
  192.1490  176.9560  142.3660 O   0  0  0  0  0  0  0  0  0  0  0  0
  191.9560  176.0970  144.5050 N   0  0  0  0  0  2  0  0  0  0  0  0
  191.4900  176.2370  143.1630 C   0  0  0  0  0  0  0  0  0  0  0  0
  191.1460  175.8930  145.6670 C   0  0  0  0  0  0  0  0  0  0  0  0
  186.2650  178.5290  144.8720 C   0  0  2  0  0  3  0  0  0  0  0  0
  188.7360  175.7200  145.3630 N   0  0  1  0  0  0  0  0  0  0  0  0
  187.4200  176.3820  145.5710 C   0  0  2  0  0  3  0  0  0  0  0  0
  188.0770  176.4500  144.2750 C   0  0  2  0  0  3  0  0  0  0  0  0
  186.0130  176.7650  142.9580 C   0  0  2  0  0  3  0  0  0  0  0  0
  185.4990  179.4870  145.5340 O   0  0  0  0  0  1  0  0  0  0  0  0
  185.3300  177.5480  144.1150 C   0  0  0  0  0  2  0  0  0  0  0  0
  187.2460  177.8670  145.8790 C   0  0  0  0  0  2  0  0  0  0  0  0
  187.0590  175.7300  143.4250 C   0  0  0  0  0  2  0  0  0  0  0  0
  186.5940  177.6610  142.0160 O   0  0  0  0  0  0  0  0  0  0  0  0
  186.5290  177.2170  139.7140 C   0  0  0  0  0  2  0  0  0  0  0  0
  186.0500  177.8900  140.7500 C   0  0  0  0  0  0  0  0  0  0  0  0
  184.9320  178.8630  140.5350 C   0  0  0  0  0  2  0  0  0  0  0  0
  183.1020  177.5360  139.7820 O   0  0  0  0  0  0  0  0  0  0  0  0
  183.6080  178.2060  140.7190 C   0  0  0  0  0  0  0  0  0  0  0  0
  182.9330  178.3200  141.9290 O   0  0  0  0  0  1  0  0  0  0  0  0
  190.4010  175.4800  142.7130 O   0  0  0  0  0  0  0  0  0  0  0  0
  191.1270  172.5490  140.5790 C   0  0  0  0  0  3  0  0  0  0  0  0
  190.6930  171.4960  141.3890 C   0  0  0  0  0  0  0  0  0  0  0  0
  190.4630  174.1450  142.2850 C   0  0  0  0  0  0  0  0  0  0  0  0
  190.8520  169.8440  140.8330 Cl  0  0  0  0  0  0  0  0  0  0  0  0
  191.0120  173.8690  141.0280 C   0  0  0  0  0  3  0  0  0  0  0  0
  190.1400  171.7610  142.6430 C   0  0  0  0  0  3  0  0  0  0  0  0
  190.0260  173.0800  143.0910 C   0  0  0  0  0  3  0  0  0  0  0  0
  2  9  1  1  0  0  0
  2  5  1  0  0  0  0
  3  4  1  0  0  0  0
  5  4  1  0  0  0  0
  5  1  1  1  0  0  0
  6  8  2  0  0  0  0
  7  9  1  0  0  0  0
  8  7  1  0  0  0  0
  9  3  2  0  0  0  0
 10 15  1  1  0  0  0
 10 17  1  0  0  0  0
 11 12  1  0  0  0  0
 11  2  1  1  0  0  0
 12 17  1  1  0  0  0
 13 18  1  6  0  0  0
 13 11  1  0  0  0  0
 13 12  1  0  0  0  0
 14 19  1  6  0  0  0
 14 18  1  0  0  0  0
 14 16  1  0  0  0  0
 16 10  1  0  0  0  0
 20 21  2  0  0  0  0
 21 19  1  0  0  0  0
 22 24  1  0  0  0  0
 22 21  1  0  0  0  0
 23 24  2  0  0  0  0
 24 25  1  0  0  0  0
 26  8  1  0  0  0  0
 27 31  2  0  0  0  0
 27 28  1  0  0  0  0
 28 32  2  0  0  0  0
 29 26  1  0  0  0  0
 29 33  2  0  0  0  0
 30 28  1  0  0  0  0
 31 29  1  0  0  0  0
 32 33  1  0  0  0  0
M  END
>  <MODEL>
9

>  <REMARK>
 VINA RESULT:      -5.9      3.007      6.111
  Name = 
  7 active torsions:
  status: ('A' for Active; 'I' for Inactive)
    1  A    between atoms: O_2  and  C_12
    2  A    between atoms: O_2  and  C_31
    3  A    between atoms: N_6  and  C_9
    4  A    between atoms: O_8  and  C_13
    5  A    between atoms: O_8  and  C_19
    6  A    between atoms: C_17  and  C_19
    7  A    between atoms: C_17  and  C_24
                            x       y       z     vdW  Elec       q    Type
                         _______ _______ _______ _____ _____    ______ ____

>  <TORSDO>
F 7

$$$$
