=
 OpenBabel11042418133D

 53 56  0  0  1  0  0  0  0  0999 V2000
  184.1640  178.4390  144.4850 C   0  0  0  0  0  3  0  0  0  0  0  0
  184.7090  178.3010  143.1990 C   0  0  0  0  0  0  0  0  0  0  0  0
  186.1200  178.1980  143.0670 C   0  0  0  0  0  0  0  0  0  0  0  0
  186.9280  178.2200  144.2090 C   0  0  0  0  0  3  0  0  0  0  0  0
  186.3690  178.3500  145.4800 C   0  0  0  0  0  0  0  0  0  0  0  0
  184.9810  178.4650  145.6150 C   0  0  0  0  0  3  0  0  0  0  0  0
  184.0430  177.9250  140.7360 C   0  0  0  0  0  3  0  0  0  0  0  0
  181.9530  178.3440  140.9480 N   0  0  0  0  0  0  0  0  0  0  0  0
  182.4490  178.5180  142.1600 N   0  0  0  0  0  0  0  0  0  0  0  0
  182.8730  177.9890  140.0690 N   0  0  0  0  0  0  0  0  0  0  0  0
  183.7670  178.2600  142.0520 C   0  0  0  0  0  0  0  0  0  0  0  0
  180.5470  178.5070  140.6260 C   0  0  0  0  0  2  0  0  0  0  0  0
  179.7290  177.9110  141.6710 N   0  0  0  0  0  2  0  0  0  0  0  0
  178.2020  178.8930  140.0680 C   0  0  0  0  0  1  0  0  0  0  0  0
  178.0600  176.6080  140.6950 O   0  0  0  0  0  1  0  0  0  0  0  0
  178.3620  177.8810  141.1820 C   0  0  1  0  0  3  0  0  0  0  0  0
  186.8080  178.0540  141.7490 C   0  0  0  0  0  2  0  0  0  0  0  0
  187.9300  177.0410  141.8500 C   0  0  0  0  0  2  0  0  0  0  0  0
  187.3340  175.6500  141.9390 C   0  0  0  0  0  2  0  0  0  0  0  0
  188.3090  174.5910  139.8250 C   0  0  0  0  0  0  0  0  0  0  0  0
  189.2070  173.5750  139.5620 C   0  0  0  0  0  0  0  0  0  0  0  0
  189.6080  173.0800  140.7920 C   0  0  0  0  0  0  0  0  0  0  0  0
  187.7030  175.3890  138.9110 F   0  0  0  0  0  0  0  0  0  0  0  0
  188.9880  173.7570  141.7820 N   0  0  0  0  0  0  0  0  0  0  0  0
  189.1690  173.5570  143.2130 C   0  0  0  0  0  1  0  0  0  0  0  0
  188.1880  174.6740  141.1990 C   0  0  0  0  0  0  0  0  0  0  0  0
  189.7280  173.1830  138.2230 C   0  0  0  0  0  2  0  0  0  0  0  0
  188.6630  172.8850  137.3750 O   0  0  0  0  0  1  0  0  0  0  0  0
  190.6400  172.0200  141.0100 C   0  0  0  0  0  2  0  0  0  0  0  0
  191.9140  172.5900  140.9750 O   0  0  0  0  0  1  0  0  0  0  0  0
  187.2750  178.3600  146.6730 C   0  0  2  0  0  3  0  0  0  0  0  0
  187.4700  175.9900  146.8220 O   0  0  0  0  0  0  0  0  0  0  0  0
  189.5000  177.1420  146.8050 N   0  0  0  0  0  2  0  0  0  0  0  0
  188.0720  177.0950  146.7650 C   0  0  0  0  0  0  0  0  0  0  0  0
  190.3050  175.9340  146.9090 C   0  0  0  0  0  2  0  0  0  0  0  0
  191.7720  176.2670  146.6850 C   0  0  0  0  0  2  0  0  0  0  0  0
  192.4820  175.1000  146.1730 N   0  0  0  0  0  2  0  0  0  0  0  0
  194.1590  173.4210  143.8970 C   0  0  1  0  0  3  0  0  0  0  0  0
  194.5730  173.8770  142.6280 O   0  0  0  0  0  0  0  0  0  0  0  0
  192.4970  175.1720  144.7160 C   0  0  2  0  0  3  0  0  0  0  0  0
  193.8600  176.0420  142.9000 O   0  0  0  0  0  0  0  0  0  0  0  0
  194.9290  175.2000  142.6920 N   0  0  0  0  0  0  0  0  0  0  0  0
  192.6750  173.7690  144.1060 C   0  0  2  0  0  3  0  0  0  0  0  0
  192.0020  172.8100  144.8710 O   0  0  0  0  0  1  0  0  0  0  0  0
  193.5950  176.1430  144.2780 C   0  0  0  0  0  2  0  0  0  0  0  0
  196.7460  177.1900  143.5620 O   0  0  0  0  0  1  0  0  0  0  0  0
  196.4170  175.5320  143.6110 P   0  0  0  0  0  0  0  0  0  0  0  0
  196.2520  175.0470  145.2260 O   0  0  0  0  0  1  0  0  0  0  0  0
  197.5680  174.7800  142.9830 O   0  0  0  0  0  0  0  0  0  0  0  0
  194.5230  171.5900  144.0250 P   0  0  0  0  0  2  0  0  0  0  0  0
  196.1590  171.7270  143.4560 O   0  0  0  0  0  1  0  0  0  0  0  0
  186.5040  178.6540  147.9530 C   0  0  0  0  0  2  0  0  0  0  0  0
  187.3470  179.2550  148.8900 O   0  0  0  0  0  1  0  0  0  0  0  0
  1  6  1  0  0  0  0
  2  1  2  0  0  0  0
  3  2  1  0  0  0  0
  3  4  2  0  0  0  0
  4  5  1  0  0  0  0
  5  6  2  0  0  0  0
  5 31  1  0  0  0  0
  7 11  1  0  0  0  0
  8  9  1  0  0  0  0
 10  7  2  0  0  0  0
 10  8  1  0  0  0  0
 11  9  2  0  0  0  0
 11  2  1  0  0  0  0
 12  8  1  0  0  0  0
 12 13  1  0  0  0  0
 15 16  1  0  0  0  0
 16 14  1  6  0  0  0
 16 13  1  0  0  0  0
 17 18  1  0  0  0  0
 17  3  1  0  0  0  0
 18 19  1  0  0  0  0
 20 26  2  0  0  0  0
 21 20  1  0  0  0  0
 21 22  2  0  0  0  0
 22 29  1  0  0  0  0
 22 24  1  0  0  0  0
 23 20  1  0  0  0  0
 24 25  1  0  0  0  0
 26 24  1  0  0  0  0
 26 19  1  0  0  0  0
 27 21  1  0  0  0  0
 28 27  1  0  0  0  0
 30 29  1  0  0  0  0
 31 34  1  0  0  0  0
 31 52  1  1  0  0  0
 33 35  1  0  0  0  0
 34 33  1  0  0  0  0
 34 32  2  0  0  0  0
 36 35  1  0  0  0  0
 37 36  1  0  0  0  0
 38 50  1  6  0  0  0
 38 43  1  0  0  0  0
 39 42  1  0  0  0  0
 39 38  1  0  0  0  0
 40 37  1  1  0  0  0
 41 45  1  0  0  0  0
 42 41  1  0  0  0  0
 42 47  1  0  0  0  0
 43 40  1  0  0  0  0
 43 44  1  1  0  0  0
 45 40  1  0  0  0  0
 46 47  1  0  0  0  0
 47 48  1  0  0  0  0
 49 47  2  0  0  0  0
 51 50  1  0  0  0  0
 52 53  1  0  0  0  0
M  END
>  <MODEL>
1

>  <REMARK>
 VINA RESULT:      -7.2      0.000      0.000
  Name = 
  19 active torsions:
  status: ('A' for Active; 'I' for Inactive)
    1  A    between atoms: C_2  and  C_3
    2  A    between atoms: C_4  and  N_35
    3  A    between atoms: C_4  and  N_45
    4  A    between atoms: C_5  and  C_19
    5  A    between atoms: N_6  and  C_12
    6  A    between atoms: N_6  and  C_25
    7  A    between atoms: C_10  and  P_15
    8  A    between atoms: C_12  and  C_21
    9  A    between atoms: C_13  and  C_18
   10  A    between atoms: C_13  and  C_48
   11  A    between atoms: C_18  and  C_33
   12  A    between atoms: C_21  and  N_30
   13  A    between atoms: C_22  and  C_34
   14  A    between atoms: P_23  and  N_29
   15  A    between atoms: C_24  and  C_51
   16  A    between atoms: C_34  and  C_42
   17  A    between atoms: C_34  and  C_50
   18  A    between atoms: C_41  and  C_48
   19  A    between atoms: N_45  and  C_52
                            x       y       z     vdW  Elec       q    Type
                         _______ _______ _______ _____ _____    ______ ____

>  <TORSDO>
F 19

$$$$
=
 OpenBabel11042418133D

 53 56  0  0  1  0  0  0  0  0999 V2000
  184.1840  178.7490  144.5910 C   0  0  0  0  0  3  0  0  0  0  0  0
  184.6790  178.3420  143.3420 C   0  0  0  0  0  0  0  0  0  0  0  0
  186.0350  177.9290  143.2500 C   0  0  0  0  0  0  0  0  0  0  0  0
  186.8380  177.9210  144.3960 C   0  0  0  0  0  3  0  0  0  0  0  0
  186.3290  178.3230  145.6320 C   0  0  0  0  0  0  0  0  0  0  0  0
  184.9970  178.7420  145.7250 C   0  0  0  0  0  3  0  0  0  0  0  0
  184.0460  178.2680  140.8430 C   0  0  0  0  0  3  0  0  0  0  0  0
  181.9220  178.3800  141.0930 N   0  0  0  0  0  0  0  0  0  0  0  0
  182.4020  178.4270  142.3230 N   0  0  0  0  0  0  0  0  0  0  0  0
  182.8730  178.2850  140.1800 N   0  0  0  0  0  0  0  0  0  0  0  0
  183.7410  178.3580  142.1920 C   0  0  0  0  0  0  0  0  0  0  0  0
  180.5040  178.4110  140.7820 C   0  0  0  0  0  2  0  0  0  0  0  0
  180.1290  179.7380  140.3210 N   0  0  0  0  0  2  0  0  0  0  0  0
  177.8390  179.6110  141.0980 C   0  0  0  0  0  1  0  0  0  0  0  0
  178.4270  180.7940  139.1260 O   0  0  0  0  0  1  0  0  0  0  0  0
  178.7450  179.6670  139.8870 C   0  0  1  0  0  3  0  0  0  0  0  0
  186.6670  177.4820  141.9730 C   0  0  0  0  0  2  0  0  0  0  0  0
  187.9550  176.7360  142.2580 C   0  0  0  0  0  2  0  0  0  0  0  0
  188.1150  175.6210  141.2440 C   0  0  0  0  0  2  0  0  0  0  0  0
  189.1950  174.3150  143.1590 C   0  0  0  0  0  0  0  0  0  0  0  0
  189.9830  173.1840  143.2530 C   0  0  0  0  0  0  0  0  0  0  0  0
  190.1790  172.7360  141.9570 C   0  0  0  0  0  0  0  0  0  0  0  0
  188.7140  175.0510  144.1910 F   0  0  0  0  0  0  0  0  0  0  0  0
  189.5410  173.5500  141.0900 N   0  0  0  0  0  0  0  0  0  0  0  0
  189.4790  173.3960  139.6430 C   0  0  0  0  0  1  0  0  0  0  0  0
  188.9450  174.5190  141.8160 C   0  0  0  0  0  0  0  0  0  0  0  0
  190.4250  172.5180  144.5100 C   0  0  0  0  0  2  0  0  0  0  0  0
  189.3200  171.9810  145.1680 O   0  0  0  0  0  1  0  0  0  0  0  0
  190.9070  171.4890  141.5670 C   0  0  0  0  0  2  0  0  0  0  0  0
  192.2360  171.7940  141.2670 O   0  0  0  0  0  1  0  0  0  0  0  0
  187.2250  178.2880  146.8310 C   0  0  2  0  0  3  0  0  0  0  0  0
  187.1160  175.9380  147.2090 O   0  0  0  0  0  0  0  0  0  0  0  0
  189.2740  176.7930  146.9640 N   0  0  0  0  0  2  0  0  0  0  0  0
  187.8520  176.9400  147.0070 C   0  0  0  0  0  0  0  0  0  0  0  0
  189.9170  175.5010  147.1460 C   0  0  0  0  0  2  0  0  0  0  0  0
  191.4290  175.6610  147.0910 C   0  0  0  0  0  2  0  0  0  0  0  0
  191.9210  175.3570  145.7530 N   0  0  0  0  0  2  0  0  0  0  0  0
  194.0880  175.4430  143.2810 C   0  0  1  0  0  3  0  0  0  0  0  0
  195.4180  175.9110  143.3230 O   0  0  0  0  0  0  0  0  0  0  0  0
  193.0360  176.2520  145.4570 C   0  0  2  0  0  3  0  0  0  0  0  0
  195.4640  176.3190  145.5820 O   0  0  0  0  0  0  0  0  0  0  0  0
  195.9920  175.6030  144.5310 N   0  0  0  0  0  0  0  0  0  0  0  0
  193.1610  176.4790  143.9390 C   0  0  2  0  0  3  0  0  0  0  0  0
  191.8960  176.5240  143.3430 O   0  0  0  0  0  1  0  0  0  0  0  0
  194.3140  175.6710  146.0680 C   0  0  0  0  0  2  0  0  0  0  0  0
  197.3030  173.2820  143.5750 O   0  0  0  0  0  0  0  0  0  0  0  0
  196.2930  173.8690  144.7970 P   0  0  0  0  0  0  0  0  0  0  0  0
  197.0290  173.6060  146.3000 O   0  0  0  0  0  1  0  0  0  0  0  0
  194.9770  173.1240  144.7520 O   0  0  0  0  0  1  0  0  0  0  0  0
  193.6420  175.0630  141.5040 P   0  0  0  0  0  2  0  0  0  0  0  0
  195.1120  174.2010  141.1650 O   0  0  0  0  0  1  0  0  0  0  0  0
  186.4940  178.7570  148.0830 C   0  0  0  0  0  2  0  0  0  0  0  0
  187.3530  179.5160  148.8800 O   0  0  0  0  0  1  0  0  0  0  0  0
  1  6  1  0  0  0  0
  2  1  2  0  0  0  0
  3  2  1  0  0  0  0
  3  4  2  0  0  0  0
  4  5  1  0  0  0  0
  5  6  2  0  0  0  0
  5 31  1  0  0  0  0
  7 11  1  0  0  0  0
  8  9  1  0  0  0  0
 10  7  2  0  0  0  0
 10  8  1  0  0  0  0
 11  9  2  0  0  0  0
 11  2  1  0  0  0  0
 12  8  1  0  0  0  0
 13 12  1  0  0  0  0
 15 16  1  0  0  0  0
 16 13  1  0  0  0  0
 16 14  1  1  0  0  0
 17 18  1  0  0  0  0
 17  3  1  0  0  0  0
 19 26  1  0  0  0  0
 19 18  1  0  0  0  0
 20 21  1  0  0  0  0
 20 23  1  0  0  0  0
 21 27  1  0  0  0  0
 22 21  2  0  0  0  0
 24 26  1  0  0  0  0
 24 22  1  0  0  0  0
 25 24  1  0  0  0  0
 26 20  2  0  0  0  0
 27 28  1  0  0  0  0
 29 22  1  0  0  0  0
 30 29  1  0  0  0  0
 31 34  1  0  0  0  0
 31 52  1  1  0  0  0
 33 34  1  0  0  0  0
 33 35  1  0  0  0  0
 34 32  2  0  0  0  0
 36 35  1  0  0  0  0
 37 36  1  0  0  0  0
 38 50  1  6  0  0  0
 38 39  1  0  0  0  0
 38 43  1  0  0  0  0
 39 42  1  0  0  0  0
 40 37  1  6  0  0  0
 40 45  1  0  0  0  0
 41 45  1  0  0  0  0
 42 47  1  0  0  0  0
 42 41  1  0  0  0  0
 43 44  1  6  0  0  0
 43 40  1  0  0  0  0
 46 47  2  0  0  0  0
 47 48  1  0  0  0  0
 49 47  1  0  0  0  0
 51 50  1  0  0  0  0
 52 53  1  0  0  0  0
M  END
>  <MODEL>
2

>  <REMARK>
 VINA RESULT:      -7.1      1.729      2.513
  Name = 
  19 active torsions:
  status: ('A' for Active; 'I' for Inactive)
    1  A    between atoms: C_2  and  C_3
    2  A    between atoms: C_4  and  N_35
    3  A    between atoms: C_4  and  N_45
    4  A    between atoms: C_5  and  C_19
    5  A    between atoms: N_6  and  C_12
    6  A    between atoms: N_6  and  C_25
    7  A    between atoms: C_10  and  P_15
    8  A    between atoms: C_12  and  C_21
    9  A    between atoms: C_13  and  C_18
   10  A    between atoms: C_13  and  C_48
   11  A    between atoms: C_18  and  C_33
   12  A    between atoms: C_21  and  N_30
   13  A    between atoms: C_22  and  C_34
   14  A    between atoms: P_23  and  N_29
   15  A    between atoms: C_24  and  C_51
   16  A    between atoms: C_34  and  C_42
   17  A    between atoms: C_34  and  C_50
   18  A    between atoms: C_41  and  C_48
   19  A    between atoms: N_45  and  C_52
                            x       y       z     vdW  Elec       q    Type
                         _______ _______ _______ _____ _____    ______ ____

>  <TORSDO>
F 19

$$$$
=
 OpenBabel11042418133D

 53 56  0  0  1  0  0  0  0  0999 V2000
  184.8630  179.0570  144.3520 C   0  0  0  0  0  3  0  0  0  0  0  0
  185.0650  178.1480  143.3010 C   0  0  0  0  0  0  0  0  0  0  0  0
  186.1190  177.2040  143.4130 C   0  0  0  0  0  0  0  0  0  0  0  0
  186.9190  177.1880  144.5610 C   0  0  0  0  0  3  0  0  0  0  0  0
  186.7020  178.0940  145.5990 C   0  0  0  0  0  0  0  0  0  0  0  0
  185.6720  179.0340  145.4890 C   0  0  0  0  0  3  0  0  0  0  0  0
  184.4710  178.1870  140.7910 C   0  0  0  0  0  3  0  0  0  0  0  0
  182.3450  178.3210  141.0130 N   0  0  0  0  0  0  0  0  0  0  0  0
  182.8060  178.3090  142.2500 N   0  0  0  0  0  0  0  0  0  0  0  0
  183.3100  178.2490  140.1120 N   0  0  0  0  0  0  0  0  0  0  0  0
  184.1460  178.2260  142.1380 C   0  0  0  0  0  0  0  0  0  0  0  0
  180.9330  178.3860  140.6810 C   0  0  0  0  0  2  0  0  0  0  0  0
  180.1920  178.9580  141.7940 N   0  0  0  0  0  2  0  0  0  0  0  0
  179.2910  180.1970  139.9180 C   0  0  0  0  0  1  0  0  0  0  0  0
  178.0170  178.5500  141.0580 O   0  0  0  0  0  1  0  0  0  0  0  0
  178.9800  179.5430  141.2470 C   0  0  1  0  0  3  0  0  0  0  0  0
  186.4280  176.1950  142.3550 C   0  0  0  0  0  2  0  0  0  0  0  0
  187.9170  176.1620  142.0790 C   0  0  0  0  0  2  0  0  0  0  0  0
  188.2070  175.0790  141.0590 C   0  0  0  0  0  2  0  0  0  0  0  0
  189.2850  173.8680  143.0360 C   0  0  0  0  0  0  0  0  0  0  0  0
  189.9400  172.6640  143.2100 C   0  0  0  0  0  0  0  0  0  0  0  0
  189.9710  172.0530  141.9680 C   0  0  0  0  0  0  0  0  0  0  0  0
  188.9830  174.7690  144.0040 F   0  0  0  0  0  0  0  0  0  0  0  0
  189.3610  172.8400  141.0560 N   0  0  0  0  0  0  0  0  0  0  0  0
  189.1590  172.5350  139.6460 C   0  0  0  0  0  1  0  0  0  0  0  0
  188.9470  173.9510  141.7000 C   0  0  0  0  0  0  0  0  0  0  0  0
  190.4050  172.0910  144.5040 C   0  0  0  0  0  2  0  0  0  0  0  0
  191.7930  172.1850  144.5850 O   0  0  0  0  0  1  0  0  0  0  0  0
  190.5110  170.6880  141.6810 C   0  0  0  0  0  2  0  0  0  0  0  0
  191.8480  170.7850  141.2890 O   0  0  0  0  0  1  0  0  0  0  0  0
  187.5790  178.0310  146.8120 C   0  0  2  0  0  3  0  0  0  0  0  0
  188.8560  176.0470  147.1470 O   0  0  0  0  0  0  0  0  0  0  0  0
  189.8340  177.6160  145.7220 N   0  0  0  0  0  2  0  0  0  0  0  0
  188.7790  177.1670  146.5750 C   0  0  0  0  0  0  0  0  0  0  0  0
  191.0210  176.8090  145.4810 C   0  0  0  0  0  2  0  0  0  0  0  0
  191.7800  177.3470  144.2770 C   0  0  0  0  0  2  0  0  0  0  0  0
  193.1370  176.8160  144.2570 N   0  0  0  0  0  2  0  0  0  0  0  0
  195.4230  174.6550  143.2980 C   0  0  1  0  0  3  0  0  0  0  0  0
  195.2370  173.5110  142.4930 O   0  0  0  0  0  0  0  0  0  0  0  0
  193.0710  175.3910  143.9510 C   0  0  2  0  0  3  0  0  0  0  0  0
  193.0190  173.8890  142.0390 O   0  0  0  0  0  0  0  0  0  0  0  0
  194.2910  173.7570  141.5300 N   0  0  0  0  0  0  0  0  0  0  0  0
  194.3580  174.6780  144.4080 C   0  0  2  0  0  3  0  0  0  0  0  0
  194.8340  175.2370  145.5980 O   0  0  0  0  0  1  0  0  0  0  0  0
  192.8070  175.2160  142.4540 C   0  0  0  0  0  2  0  0  0  0  0  0
  193.6480  174.9010  139.0210 O   0  0  0  0  0  0  0  0  0  0  0  0
  194.7870  174.9130  140.2710 P   0  0  0  0  0  0  0  0  0  0  0  0
  194.9050  176.4810  140.9000 O   0  0  0  0  0  1  0  0  0  0  0  0
  196.1320  174.4980  139.7180 O   0  0  0  0  0  1  0  0  0  0  0  0
  197.1780  174.6520  143.9470 P   0  0  0  0  0  2  0  0  0  0  0  0
  197.6030  176.1740  143.2230 O   0  0  0  0  0  1  0  0  0  0  0  0
  186.7910  177.6050  148.0440 C   0  0  0  0  0  2  0  0  0  0  0  0
  185.8120  176.6760  147.6860 O   0  0  0  0  0  1  0  0  0  0  0  0
  1  6  1  0  0  0  0
  2  3  1  0  0  0  0
  2  1  2  0  0  0  0
  3  4  2  0  0  0  0
  4  5  1  0  0  0  0
  5 31  1  0  0  0  0
  6  5  2  0  0  0  0
  7 11  1  0  0  0  0
  8  9  1  0  0  0  0
 10  7  2  0  0  0  0
 10  8  1  0  0  0  0
 11  9  2  0  0  0  0
 11  2  1  0  0  0  0
 12  8  1  0  0  0  0
 12 13  1  0  0  0  0
 15 16  1  0  0  0  0
 16 14  1  6  0  0  0
 16 13  1  0  0  0  0
 17  3  1  0  0  0  0
 18 17  1  0  0  0  0
 19 26  1  0  0  0  0
 19 18  1  0  0  0  0
 20 21  1  0  0  0  0
 20 23  1  0  0  0  0
 21 27  1  0  0  0  0
 22 21  2  0  0  0  0
 24 26  1  0  0  0  0
 24 22  1  0  0  0  0
 25 24  1  0  0  0  0
 26 20  2  0  0  0  0
 27 28  1  0  0  0  0
 29 22  1  0  0  0  0
 30 29  1  0  0  0  0
 31 52  1  1  0  0  0
 33 34  1  0  0  0  0
 34 31  1  0  0  0  0
 34 32  2  0  0  0  0
 35 33  1  0  0  0  0
 36 35  1  0  0  0  0
 37 36  1  0  0  0  0
 38 50  1  1  0  0  0
 38 43  1  0  0  0  0
 39 38  1  0  0  0  0
 40 37  1  6  0  0  0
 40 43  1  0  0  0  0
 41 45  1  0  0  0  0
 42 41  1  0  0  0  0
 42 39  1  0  0  0  0
 43 44  1  1  0  0  0
 45 40  1  0  0  0  0
 46 47  2  0  0  0  0
 47 48  1  0  0  0  0
 47 42  1  0  0  0  0
 49 47  1  0  0  0  0
 51 50  1  0  0  0  0
 53 52  1  0  0  0  0
M  END
>  <MODEL>
3

>  <REMARK>
 VINA RESULT:      -7.0      1.780      2.750
  Name = 
  19 active torsions:
  status: ('A' for Active; 'I' for Inactive)
    1  A    between atoms: C_2  and  C_3
    2  A    between atoms: C_4  and  N_35
    3  A    between atoms: C_4  and  N_45
    4  A    between atoms: C_5  and  C_19
    5  A    between atoms: N_6  and  C_12
    6  A    between atoms: N_6  and  C_25
    7  A    between atoms: C_10  and  P_15
    8  A    between atoms: C_12  and  C_21
    9  A    between atoms: C_13  and  C_18
   10  A    between atoms: C_13  and  C_48
   11  A    between atoms: C_18  and  C_33
   12  A    between atoms: C_21  and  N_30
   13  A    between atoms: C_22  and  C_34
   14  A    between atoms: P_23  and  N_29
   15  A    between atoms: C_24  and  C_51
   16  A    between atoms: C_34  and  C_42
   17  A    between atoms: C_34  and  C_50
   18  A    between atoms: C_41  and  C_48
   19  A    between atoms: N_45  and  C_52
                            x       y       z     vdW  Elec       q    Type
                         _______ _______ _______ _____ _____    ______ ____

>  <TORSDO>
F 19

$$$$
=
 OpenBabel11042418133D

 53 56  0  0  1  0  0  0  0  0999 V2000
  191.5970  173.2760  143.2820 C   0  0  0  0  0  3  0  0  0  0  0  0
  190.5090  173.2450  142.3960 C   0  0  0  0  0  0  0  0  0  0  0  0
  189.3190  173.9310  142.7570 C   0  0  0  0  0  0  0  0  0  0  0  0
  189.2600  174.6300  143.9680 C   0  0  0  0  0  3  0  0  0  0  0  0
  190.3530  174.6560  144.8340 C   0  0  0  0  0  0  0  0  0  0  0  0
  191.5230  173.9710  144.4890 C   0  0  0  0  0  3  0  0  0  0  0  0
  190.4480  171.1540  140.8860 C   0  0  0  0  0  3  0  0  0  0  0  0
  191.0600  172.1090  139.0690 N   0  0  0  0  0  0  0  0  0  0  0  0
  191.0600  173.0770  139.9670 N   0  0  0  0  0  0  0  0  0  0  0  0
  190.6990  170.9440  139.5790 N   0  0  0  0  0  0  0  0  0  0  0  0
  190.6790  172.5000  141.1230 C   0  0  0  0  0  0  0  0  0  0  0  0
  191.3990  172.3080  137.6710 C   0  0  0  0  0  2  0  0  0  0  0  0
  190.4570  173.2360  137.0640 N   0  0  0  0  0  2  0  0  0  0  0  0
  189.4590  171.4140  135.8180 C   0  0  0  0  0  1  0  0  0  0  0  0
  189.3610  173.6570  135.0490 O   0  0  0  0  0  1  0  0  0  0  0  0
  190.1730  172.7450  135.7270 C   0  0  1  0  0  3  0  0  0  0  0  0
  188.0990  173.9600  141.8940 C   0  0  0  0  0  2  0  0  0  0  0  0
  188.1960  175.0880  140.8860 C   0  0  0  0  0  2  0  0  0  0  0  0
  188.4120  176.3930  141.6250 C   0  0  0  0  0  2  0  0  0  0  0  0
  186.3150  177.5000  140.6650 C   0  0  0  0  0  0  0  0  0  0  0  0
  185.2260  178.1630  141.1960 C   0  0  0  0  0  0  0  0  0  0  0  0
  185.4110  178.1830  142.5680 C   0  0  0  0  0  0  0  0  0  0  0  0
  186.5220  177.2040  139.3580 F   0  0  0  0  0  0  0  0  0  0  0  0
  186.5660  177.5590  142.8830 N   0  0  0  0  0  0  0  0  0  0  0  0
  187.0960  177.3420  144.2220 C   0  0  0  0  0  1  0  0  0  0  0  0
  187.1260  177.1470  141.7260 C   0  0  0  0  0  0  0  0  0  0  0  0
  184.0340  178.6460  140.4430 C   0  0  0  0  0  2  0  0  0  0  0  0
  183.2300  177.5630  140.0940 O   0  0  0  0  0  1  0  0  0  0  0  0
  184.4430  178.7270  143.5700 C   0  0  0  0  0  2  0  0  0  0  0  0
  184.5120  177.9750  144.7450 O   0  0  0  0  0  1  0  0  0  0  0  0
  190.2440  175.4250  146.1150 C   0  0  2  0  0  3  0  0  0  0  0  0
  191.8410  175.0160  147.8360 O   0  0  0  0  0  0  0  0  0  0  0  0
  192.5570  176.4720  146.1580 N   0  0  0  0  0  2  0  0  0  0  0  0
  191.5840  175.6120  146.7560 C   0  0  0  0  0  0  0  0  0  0  0  0
  193.8630  176.6890  146.7610 C   0  0  0  0  0  2  0  0  0  0  0  0
  194.8730  175.7130  146.1770 C   0  0  0  0  0  2  0  0  0  0  0  0
  194.8830  175.8070  144.7220 N   0  0  0  0  0  2  0  0  0  0  0  0
  195.7230  173.4380  142.6020 C   0  0  1  0  0  3  0  0  0  0  0  0
  196.9040  172.6650  142.6040 O   0  0  0  0  0  0  0  0  0  0  0  0
  196.1780  175.3390  144.2380 C   0  0  2  0  0  3  0  0  0  0  0  0
  197.7480  173.5120  144.5640 O   0  0  0  0  0  0  0  0  0  0  0  0
  197.2950  172.3990  143.8920 N   0  0  0  0  0  0  0  0  0  0  0  0
  196.0850  174.9250  142.7570 C   0  0  2  0  0  3  0  0  0  0  0  0
  195.2080  175.7660  142.0640 O   0  0  0  0  0  1  0  0  0  0  0  0
  196.6610  174.1980  145.1350 C   0  0  0  0  0  2  0  0  0  0  0  0
  194.7430  172.0450  145.0670 O   0  0  0  0  0  1  0  0  0  0  0  0
  196.2280  171.2880  144.7840 P   0  0  0  0  0  0  0  0  0  0  0  0
  195.9660  169.8630  143.9050 O   0  0  0  0  0  0  0  0  0  0  0  0
  196.8670  170.9420  146.1100 O   0  0  0  0  0  1  0  0  0  0  0  0
  194.7630  173.0610  141.0410 P   0  0  0  0  0  2  0  0  0  0  0  0
  194.1360  171.5460  141.6170 O   0  0  0  0  0  1  0  0  0  0  0  0
  189.2320  174.7880  147.0600 C   0  0  0  0  0  2  0  0  0  0  0  0
  188.1130  175.6130  147.1860 O   0  0  0  0  0  1  0  0  0  0  0  0
  1  6  1  0  0  0  0
  2  3  1  0  0  0  0
  2  1  2  0  0  0  0
  3  4  2  0  0  0  0
  4  5  1  0  0  0  0
  5 31  1  0  0  0  0
  6  5  2  0  0  0  0
  7 11  1  0  0  0  0
  8 10  1  0  0  0  0
  8  9  1  0  0  0  0
  9 11  2  0  0  0  0
 10  7  2  0  0  0  0
 11  2  1  0  0  0  0
 12  8  1  0  0  0  0
 13 12  1  0  0  0  0
 15 16  1  0  0  0  0
 16 14  1  1  0  0  0
 16 13  1  0  0  0  0
 17  3  1  0  0  0  0
 18 19  1  0  0  0  0
 18 17  1  0  0  0  0
 19 26  1  0  0  0  0
 20 21  1  0  0  0  0
 20 26  2  0  0  0  0
 21 22  2  0  0  0  0
 22 24  1  0  0  0  0
 22 29  1  0  0  0  0
 23 20  1  0  0  0  0
 24 25  1  0  0  0  0
 26 24  1  0  0  0  0
 27 21  1  0  0  0  0
 28 27  1  0  0  0  0
 29 30  1  0  0  0  0
 31 34  1  0  0  0  0
 31 52  1  1  0  0  0
 33 34  1  0  0  0  0
 33 35  1  0  0  0  0
 34 32  2  0  0  0  0
 36 35  1  0  0  0  0
 37 36  1  0  0  0  0
 38 50  1  6  0  0  0
 38 39  1  0  0  0  0
 38 43  1  0  0  0  0
 39 42  1  0  0  0  0
 40 37  1  1  0  0  0
 40 45  1  0  0  0  0
 41 45  1  0  0  0  0
 42 41  1  0  0  0  0
 42 47  1  0  0  0  0
 43 44  1  6  0  0  0
 43 40  1  0  0  0  0
 47 46  1  0  0  0  0
 47 49  1  0  0  0  0
 48 47  2  0  0  0  0
 50 51  1  0  0  0  0
 52 53  1  0  0  0  0
M  END
>  <MODEL>
4

>  <REMARK>
 VINA RESULT:      -6.3      2.777      6.946
  Name = 
  19 active torsions:
  status: ('A' for Active; 'I' for Inactive)
    1  A    between atoms: C_2  and  C_3
    2  A    between atoms: C_4  and  N_35
    3  A    between atoms: C_4  and  N_45
    4  A    between atoms: C_5  and  C_19
    5  A    between atoms: N_6  and  C_12
    6  A    between atoms: N_6  and  C_25
    7  A    between atoms: C_10  and  P_15
    8  A    between atoms: C_12  and  C_21
    9  A    between atoms: C_13  and  C_18
   10  A    between atoms: C_13  and  C_48
   11  A    between atoms: C_18  and  C_33
   12  A    between atoms: C_21  and  N_30
   13  A    between atoms: C_22  and  C_34
   14  A    between atoms: P_23  and  N_29
   15  A    between atoms: C_24  and  C_51
   16  A    between atoms: C_34  and  C_42
   17  A    between atoms: C_34  and  C_50
   18  A    between atoms: C_41  and  C_48
   19  A    between atoms: N_45  and  C_52
                            x       y       z     vdW  Elec       q    Type
                         _______ _______ _______ _____ _____    ______ ____

>  <TORSDO>
F 19

$$$$
=
 OpenBabel11042418133D

 53 56  0  0  1  0  0  0  0  0999 V2000
  192.7720  175.7520  146.4620 C   0  0  0  0  0  3  0  0  0  0  0  0
  191.7090  174.9370  146.0430 C   0  0  0  0  0  0  0  0  0  0  0  0
  192.0010  173.7870  145.2630 C   0  0  0  0  0  0  0  0  0  0  0  0
  193.3290  173.4840  144.9420 C   0  0  0  0  0  3  0  0  0  0  0  0
  194.3750  174.3020  145.3720 C   0  0  0  0  0  0  0  0  0  0  0  0
  194.0910  175.4430  146.1300 C   0  0  0  0  0  3  0  0  0  0  0  0
  189.3730  174.5350  147.0610 C   0  0  0  0  0  3  0  0  0  0  0  0
  188.6280  176.5310  146.8390 N   0  0  0  0  0  0  0  0  0  0  0  0
  189.8470  176.5750  146.3310 N   0  0  0  0  0  0  0  0  0  0  0  0
  188.3080  175.3290  147.2860 N   0  0  0  0  0  0  0  0  0  0  0  0
  190.3380  175.3270  146.4580 C   0  0  0  0  0  0  0  0  0  0  0  0
  187.7470  177.6830  146.9150 C   0  0  0  0  0  2  0  0  0  0  0  0
  186.4520  177.3510  146.3420 N   0  0  0  0  0  2  0  0  0  0  0  0
  185.8400  178.7270  144.4460 C   0  0  0  0  0  1  0  0  0  0  0  0
  184.5000  178.6240  146.4020 O   0  0  0  0  0  1  0  0  0  0  0  0
  185.8220  178.6000  145.9540 C   0  0  1  0  0  3  0  0  0  0  0  0
  190.9500  172.8530  144.7590 C   0  0  0  0  0  2  0  0  0  0  0  0
  190.6500  173.1370  143.3010 C   0  0  0  0  0  2  0  0  0  0  0  0
  189.1610  172.9830  143.0640 C   0  0  0  0  0  2  0  0  0  0  0  0
  188.6240  173.4830  140.6150 C   0  0  0  0  0  0  0  0  0  0  0  0
  188.1680  174.5840  139.9160 C   0  0  0  0  0  0  0  0  0  0  0  0
  188.0000  175.5960  140.8460 C   0  0  0  0  0  0  0  0  0  0  0  0
  188.8740  172.2510  140.1060 F   0  0  0  0  0  0  0  0  0  0  0  0
  188.3350  175.1470  142.0750 N   0  0  0  0  0  0  0  0  0  0  0  0
  188.2620  175.8980  143.3200 C   0  0  0  0  0  1  0  0  0  0  0  0
  188.7240  173.8620  141.9390 C   0  0  0  0  0  0  0  0  0  0  0  0
  187.8140  174.6270  138.4690 C   0  0  0  0  0  2  0  0  0  0  0  0
  188.9410  174.3390  137.7020 O   0  0  0  0  0  1  0  0  0  0  0  0
  187.4430  176.9550  140.5650 C   0  0  0  0  0  2  0  0  0  0  0  0
  186.1730  177.0690  141.1330 O   0  0  0  0  0  1  0  0  0  0  0  0
  195.7800  173.9310  145.0100 C   0  0  2  0  0  3  0  0  0  0  0  0
  197.6120  175.1900  144.1520 O   0  0  0  0  0  0  0  0  0  0  0  0
  195.5700  175.5780  143.0900 N   0  0  0  0  0  2  0  0  0  0  0  0
  196.3840  174.9250  144.0670 C   0  0  0  0  0  0  0  0  0  0  0  0
  196.1190  176.5600  142.1670 C   0  0  0  0  0  2  0  0  0  0  0  0
  196.5870  175.8710  140.8940 C   0  0  0  0  0  2  0  0  0  0  0  0
  195.4420  175.4010  140.1240 N   0  0  0  0  0  2  0  0  0  0  0  0
  194.3270  173.7530  137.5050 C   0  0  1  0  0  3  0  0  0  0  0  0
  194.2080  172.3550  137.3590 O   0  0  0  0  0  0  0  0  0  0  0  0
  195.7560  174.0790  139.5910 C   0  0  2  0  0  3  0  0  0  0  0  0
  194.8340  171.8300  139.5050 O   0  0  0  0  0  0  0  0  0  0  0  0
  193.8420  171.7830  138.5510 N   0  0  0  0  0  0  0  0  0  0  0  0
  195.7240  174.0940  138.0510 C   0  0  2  0  0  3  0  0  0  0  0  0
  196.2120  175.3090  137.5610 O   0  0  0  0  0  1  0  0  0  0  0  0
  194.7810  173.0600  140.1860 C   0  0  0  0  0  2  0  0  0  0  0  0
  192.0750  173.7980  139.4660 O   0  0  0  0  0  1  0  0  0  0  0  0
  192.1840  172.1550  139.0830 P   0  0  0  0  0  0  0  0  0  0  0  0
  191.0630  171.7930  137.8660 O   0  0  0  0  0  0  0  0  0  0  0  0
  191.8620  171.3370  140.3130 O   0  0  0  0  0  1  0  0  0  0  0  0
  193.9500  174.5620  135.8600 P   0  0  0  0  0  2  0  0  0  0  0  0
  193.0670  175.8900  136.5490 O   0  0  0  0  0  1  0  0  0  0  0  0
  195.8580  172.5050  144.4790 C   0  0  0  0  0  2  0  0  0  0  0  0
  196.3740  172.5070  143.1820 O   0  0  0  0  0  1  0  0  0  0  0  0
  2 11  1  0  0  0  0
  2  1  2  0  0  0  0
  3  2  1  0  0  0  0
  4  3  2  0  0  0  0
  4  5  1  0  0  0  0
  5  6  2  0  0  0  0
  6  1  1  0  0  0  0
  7 10  2  0  0  0  0
  8 12  1  0  0  0  0
  8 10  1  0  0  0  0
  9 11  2  0  0  0  0
  9  8  1  0  0  0  0
 11  7  1  0  0  0  0
 13 12  1  0  0  0  0
 16 14  1  6  0  0  0
 16 13  1  0  0  0  0
 16 15  1  0  0  0  0
 17  3  1  0  0  0  0
 18 17  1  0  0  0  0
 19 18  1  0  0  0  0
 20 26  2  0  0  0  0
 21 20  1  0  0  0  0
 21 22  2  0  0  0  0
 22 24  1  0  0  0  0
 23 20  1  0  0  0  0
 24 25  1  0  0  0  0
 26 24  1  0  0  0  0
 26 19  1  0  0  0  0
 27 21  1  0  0  0  0
 28 27  1  0  0  0  0
 29 22  1  0  0  0  0
 29 30  1  0  0  0  0
 31 52  1  6  0  0  0
 31  5  1  0  0  0  0
 33 34  1  0  0  0  0
 34 32  2  0  0  0  0
 34 31  1  0  0  0  0
 35 33  1  0  0  0  0
 36 35  1  0  0  0  0
 37 36  1  0  0  0  0
 38 50  1  6  0  0  0
 38 43  1  0  0  0  0
 39 38  1  0  0  0  0
 39 42  1  0  0  0  0
 40 37  1  1  0  0  0
 40 45  1  0  0  0  0
 41 45  1  0  0  0  0
 42 47  1  0  0  0  0
 42 41  1  0  0  0  0
 43 44  1  1  0  0  0
 43 40  1  0  0  0  0
 47 46  1  0  0  0  0
 47 49  1  0  0  0  0
 48 47  2  0  0  0  0
 50 51  1  0  0  0  0
 53 52  1  0  0  0  0
M  END
>  <MODEL>
5

>  <REMARK>
 VINA RESULT:      -6.3      3.675      7.490
  Name = 
  19 active torsions:
  status: ('A' for Active; 'I' for Inactive)
    1  A    between atoms: C_2  and  C_3
    2  A    between atoms: C_4  and  N_35
    3  A    between atoms: C_4  and  N_45
    4  A    between atoms: C_5  and  C_19
    5  A    between atoms: N_6  and  C_12
    6  A    between atoms: N_6  and  C_25
    7  A    between atoms: C_10  and  P_15
    8  A    between atoms: C_12  and  C_21
    9  A    between atoms: C_13  and  C_18
   10  A    between atoms: C_13  and  C_48
   11  A    between atoms: C_18  and  C_33
   12  A    between atoms: C_21  and  N_30
   13  A    between atoms: C_22  and  C_34
   14  A    between atoms: P_23  and  N_29
   15  A    between atoms: C_24  and  C_51
   16  A    between atoms: C_34  and  C_42
   17  A    between atoms: C_34  and  C_50
   18  A    between atoms: C_41  and  C_48
   19  A    between atoms: N_45  and  C_52
                            x       y       z     vdW  Elec       q    Type
                         _______ _______ _______ _____ _____    ______ ____

>  <TORSDO>
F 19

$$$$
=
 OpenBabel11042418133D

 53 56  0  0  1  0  0  0  0  0999 V2000
  188.1920  174.5490  139.7870 C   0  0  0  0  0  3  0  0  0  0  0  0
  188.5330  174.5220  141.1480 C   0  0  0  0  0  0  0  0  0  0  0  0
  189.2220  173.3880  141.6540 C   0  0  0  0  0  0  0  0  0  0  0  0
  189.5570  172.3370  140.7920 C   0  0  0  0  0  3  0  0  0  0  0  0
  189.2170  172.3820  139.4400 C   0  0  0  0  0  0  0  0  0  0  0  0
  188.5270  173.4920  138.9400 C   0  0  0  0  0  3  0  0  0  0  0  0
  188.9800  176.7230  142.4180 C   0  0  0  0  0  3  0  0  0  0  0  0
  186.9670  177.0870  143.0540 N   0  0  0  0  0  0  0  0  0  0  0  0
  186.9010  175.9500  142.3860 N   0  0  0  0  0  0  0  0  0  0  0  0
  188.1930  177.5810  143.0960 N   0  0  0  0  0  0  0  0  0  0  0  0
  188.1590  175.6980  141.9750 C   0  0  0  0  0  0  0  0  0  0  0  0
  185.8150  177.7320  143.6590 C   0  0  0  0  0  2  0  0  0  0  0  0
  186.1260  178.1130  145.0270 N   0  0  0  0  0  2  0  0  0  0  0  0
  186.7940  176.7270  146.8970 C   0  0  0  0  0  1  0  0  0  0  0  0
  184.5320  177.3600  146.5540 O   0  0  0  0  0  1  0  0  0  0  0  0
  185.7090  177.0170  145.8830 C   0  0  1  0  0  3  0  0  0  0  0  0
  189.6290  173.2510  143.0850 C   0  0  0  0  0  2  0  0  0  0  0  0
  191.0420  172.7100  143.1790 C   0  0  0  0  0  2  0  0  0  0  0  0
  191.4440  172.6320  144.6380 C   0  0  0  0  0  2  0  0  0  0  0  0
  192.4670  174.9540  144.9560 C   0  0  0  0  0  0  0  0  0  0  0  0
  193.7240  175.4380  145.2620 C   0  0  0  0  0  0  0  0  0  0  0  0
  194.5460  174.3320  145.4020 C   0  0  0  0  0  0  0  0  0  0  0  0
  191.3400  175.6880  144.7840 F   0  0  0  0  0  0  0  0  0  0  0  0
  193.8330  173.2040  145.1960 N   0  0  0  0  0  0  0  0  0  0  0  0
  194.3290  171.8380  145.2870 C   0  0  0  0  0  1  0  0  0  0  0  0
  192.5670  173.5770  144.9150 C   0  0  0  0  0  0  0  0  0  0  0  0
  194.0860  176.8620  145.5100 C   0  0  0  0  0  2  0  0  0  0  0  0
  194.0830  177.1140  146.8800 O   0  0  0  0  0  1  0  0  0  0  0  0
  195.9830  174.3600  145.8140 C   0  0  0  0  0  2  0  0  0  0  0  0
  196.7700  174.7860  144.7410 O   0  0  0  0  0  1  0  0  0  0  0  0
  189.6050  171.2370  138.5570 C   0  0  2  0  0  3  0  0  0  0  0  0
  190.5070  169.3440  139.6880 O   0  0  0  0  0  0  0  0  0  0  0  0
  192.0720  170.9710  139.0950 N   0  0  0  0  0  2  0  0  0  0  0  0
  190.7400  170.4550  139.1420 C   0  0  0  0  0  0  0  0  0  0  0  0
  193.1960  170.2450  139.6660 C   0  0  0  0  0  2  0  0  0  0  0  0
  194.5030  170.7890  139.1090 C   0  0  0  0  0  2  0  0  0  0  0  0
  195.3230  171.3320  140.1860 N   0  0  0  0  0  2  0  0  0  0  0  0
  195.1210  174.6120  140.0480 C   0  0  1  0  0  3  0  0  0  0  0  0
  195.6490  175.4620  139.0540 O   0  0  0  0  0  0  0  0  0  0  0  0
  196.2100  172.3470  139.6240 C   0  0  2  0  0  3  0  0  0  0  0  0
  196.4050  173.7890  137.6760 O   0  0  0  0  0  0  0  0  0  0  0  0
  195.5590  174.8650  137.8210 N   0  0  0  0  0  0  0  0  0  0  0  0
  196.2030  173.6150  140.4970 C   0  0  2  0  0  3  0  0  0  0  0  0
  196.0980  173.2810  141.8510 O   0  0  0  0  0  1  0  0  0  0  0  0
  195.7900  172.6280  138.1800 C   0  0  0  0  0  2  0  0  0  0  0  0
  193.3100  176.2080  136.7450 O   0  0  0  0  0  1  0  0  0  0  0  0
  193.9030  174.6890  137.1930 P   0  0  0  0  0  0  0  0  0  0  0  0
  193.8720  173.6610  135.8470 O   0  0  0  0  0  0  0  0  0  0  0  0
  193.0190  174.1130  138.2770 O   0  0  0  0  0  1  0  0  0  0  0  0
  194.4490  175.6640  141.4420 P   0  0  0  0  0  2  0  0  0  0  0  0
  195.8090  176.7450  141.4770 O   0  0  0  0  0  1  0  0  0  0  0  0
  189.8950  171.7070  137.1360 C   0  0  0  0  0  2  0  0  0  0  0  0
  189.9520  170.6100  136.2740 O   0  0  0  0  0  1  0  0  0  0  0  0
  1  2  1  0  0  0  0
  2  3  2  0  0  0  0
  2 11  1  0  0  0  0
  3 17  1  0  0  0  0
  4  3  1  0  0  0  0
  5  4  2  0  0  0  0
  6  5  1  0  0  0  0
  6  1  2  0  0  0  0
  7 10  2  0  0  0  0
  8 10  1  0  0  0  0
  8 12  1  0  0  0  0
  9  8  1  0  0  0  0
 11  9  2  0  0  0  0
 11  7  1  0  0  0  0
 12 13  1  0  0  0  0
 13 16  1  0  0  0  0
 16 15  1  0  0  0  0
 16 14  1  1  0  0  0
 17 18  1  0  0  0  0
 18 19  1  0  0  0  0
 19 26  1  0  0  0  0
 20 21  1  0  0  0  0
 21 22  2  0  0  0  0
 21 27  1  0  0  0  0
 22 29  1  0  0  0  0
 23 20  1  0  0  0  0
 24 25  1  0  0  0  0
 24 22  1  0  0  0  0
 26 20  2  0  0  0  0
 26 24  1  0  0  0  0
 27 28  1  0  0  0  0
 30 29  1  0  0  0  0
 31 52  1  6  0  0  0
 31 34  1  0  0  0  0
 31  5  1  0  0  0  0
 33 34  1  0  0  0  0
 33 35  1  0  0  0  0
 34 32  2  0  0  0  0
 36 35  1  0  0  0  0
 36 37  1  0  0  0  0
 38 43  1  0  0  0  0
 38 50  1  1  0  0  0
 39 38  1  0  0  0  0
 40 37  1  1  0  0  0
 40 43  1  0  0  0  0
 41 42  1  0  0  0  0
 41 45  1  0  0  0  0
 42 39  1  0  0  0  0
 43 44  1  1  0  0  0
 45 40  1  0  0  0  0
 46 47  1  0  0  0  0
 47 42  1  0  0  0  0
 47 49  1  0  0  0  0
 48 47  2  0  0  0  0
 50 51  1  0  0  0  0
 53 52  1  0  0  0  0
M  END
>  <MODEL>
6

>  <REMARK>
 VINA RESULT:      -6.2      3.563      7.801
  Name = 
  19 active torsions:
  status: ('A' for Active; 'I' for Inactive)
    1  A    between atoms: C_2  and  C_3
    2  A    between atoms: C_4  and  N_35
    3  A    between atoms: C_4  and  N_45
    4  A    between atoms: C_5  and  C_19
    5  A    between atoms: N_6  and  C_12
    6  A    between atoms: N_6  and  C_25
    7  A    between atoms: C_10  and  P_15
    8  A    between atoms: C_12  and  C_21
    9  A    between atoms: C_13  and  C_18
   10  A    between atoms: C_13  and  C_48
   11  A    between atoms: C_18  and  C_33
   12  A    between atoms: C_21  and  N_30
   13  A    between atoms: C_22  and  C_34
   14  A    between atoms: P_23  and  N_29
   15  A    between atoms: C_24  and  C_51
   16  A    between atoms: C_34  and  C_42
   17  A    between atoms: C_34  and  C_50
   18  A    between atoms: C_41  and  C_48
   19  A    between atoms: N_45  and  C_52
                            x       y       z     vdW  Elec       q    Type
                         _______ _______ _______ _____ _____    ______ ____

>  <TORSDO>
F 19

$$$$
=
 OpenBabel11042418133D

 53 56  0  0  1  0  0  0  0  0999 V2000
  190.8360  177.5260  143.8400 C   0  0  0  0  0  3  0  0  0  0  0  0
  190.1510  176.3020  143.8060 C   0  0  0  0  0  0  0  0  0  0  0  0
  190.8940  175.1030  143.9720 C   0  0  0  0  0  0  0  0  0  0  0  0
  192.2770  175.1650  144.1790 C   0  0  0  0  0  3  0  0  0  0  0  0
  192.9420  176.3910  144.2160 C   0  0  0  0  0  0  0  0  0  0  0  0
  192.2160  177.5740  144.0410 C   0  0  0  0  0  3  0  0  0  0  0  0
  187.9550  175.9010  142.5130 C   0  0  0  0  0  3  0  0  0  0  0  0
  186.6140  176.6350  144.0140 N   0  0  0  0  0  0  0  0  0  0  0  0
  187.8160  176.7960  144.5380 N   0  0  0  0  0  0  0  0  0  0  0  0
  186.6550  176.1030  142.8050 N   0  0  0  0  0  0  0  0  0  0  0  0
  188.6800  176.3410  143.6100 C   0  0  0  0  0  0  0  0  0  0  0  0
  185.3840  176.9870  144.7010 C   0  0  0  0  0  2  0  0  0  0  0  0
  185.6910  177.7510  145.9000 N   0  0  0  0  0  2  0  0  0  0  0  0
  185.6610  179.7760  144.5720 C   0  0  0  0  0  1  0  0  0  0  0  0
  183.6870  178.8890  145.5470 O   0  0  0  0  0  1  0  0  0  0  0  0
  185.0580  179.0500  145.7550 C   0  0  1  0  0  3  0  0  0  0  0  0
  190.2710  173.7450  143.9480 C   0  0  0  0  0  2  0  0  0  0  0  0
  191.1340  172.7570  144.7070 C   0  0  0  0  0  2  0  0  0  0  0  0
  191.3510  171.5290  143.8460 C   0  0  0  0  0  2  0  0  0  0  0  0
  193.6530  171.4570  144.9570 C   0  0  0  0  0  0  0  0  0  0  0  0
  194.6840  170.5400  145.0180 C   0  0  0  0  0  0  0  0  0  0  0  0
  194.2800  169.4470  144.2700 C   0  0  0  0  0  0  0  0  0  0  0  0
  193.6000  172.6550  145.5910 F   0  0  0  0  0  0  0  0  0  0  0  0
  193.0490  169.6700  143.7630 N   0  0  0  0  0  0  0  0  0  0  0  0
  192.2660  168.7470  142.9520 C   0  0  0  0  0  1  0  0  0  0  0  0
  192.6640  170.8970  144.1720 C   0  0  0  0  0  0  0  0  0  0  0  0
  195.9260  170.6610  145.8320 C   0  0  0  0  0  2  0  0  0  0  0  0
  196.4160  171.9630  145.7480 O   0  0  0  0  0  1  0  0  0  0  0  0
  195.0400  168.1680  144.1150 C   0  0  0  0  0  2  0  0  0  0  0  0
  196.0320  168.3260  143.1450 O   0  0  0  0  0  1  0  0  0  0  0  0
  194.4210  176.4070  144.4490 C   0  0  2  0  0  3  0  0  0  0  0  0
  195.6750  174.6070  143.5180 O   0  0  0  0  0  0  0  0  0  0  0  0
  195.2890  176.3900  142.0630 N   0  0  0  0  0  2  0  0  0  0  0  0
  195.1590  175.7400  143.3290 C   0  0  0  0  0  0  0  0  0  0  0  0
  196.0110  175.7790  140.9570 C   0  0  0  0  0  2  0  0  0  0  0  0
  195.0290  175.2740  139.9110 C   0  0  0  0  0  2  0  0  0  0  0  0
  194.9930  173.8160  139.9140 N   0  0  0  0  0  2  0  0  0  0  0  0
  193.0210  171.1860  139.8130 C   0  0  1  0  0  3  0  0  0  0  0  0
  191.6850  171.0990  140.2570 O   0  0  0  0  0  0  0  0  0  0  0  0
  193.8910  173.3830  140.7690 C   0  0  2  0  0  3  0  0  0  0  0  0
  191.4610  173.3180  140.7980 O   0  0  0  0  0  0  0  0  0  0  0  0
  191.0250  172.2760  140.0120 N   0  0  0  0  0  0  0  0  0  0  0  0
  193.8810  171.8490  140.9030 C   0  0  2  0  0  3  0  0  0  0  0  0
  195.1860  171.3480  140.9360 O   0  0  0  0  0  1  0  0  0  0  0  0
  192.5790  173.9290  140.2020 C   0  0  0  0  0  2  0  0  0  0  0  0
  192.2000  172.9590  137.5270 O   0  0  0  0  0  1  0  0  0  0  0  0
  190.7290  172.6240  138.2910 P   0  0  0  0  0  0  0  0  0  0  0  0
  189.9930  171.3040  137.5250 O   0  0  0  0  0  0  0  0  0  0  0  0
  189.8260  173.8310  138.1760 O   0  0  0  0  0  1  0  0  0  0  0  0
  193.6080  169.4740  139.3370 P   0  0  0  0  0  2  0  0  0  0  0  0
  192.6760  169.4030  137.8720 O   0  0  0  0  0  1  0  0  0  0  0  0
  194.7750  175.8170  145.8090 C   0  0  0  0  0  2  0  0  0  0  0  0
  194.4560  176.7250  146.8200 O   0  0  0  0  0  1  0  0  0  0  0  0
  1  6  1  0  0  0  0
  2  1  2  0  0  0  0
  2  3  1  0  0  0  0
  3  4  2  0  0  0  0
  4  5  1  0  0  0  0
  5 31  1  0  0  0  0
  6  5  2  0  0  0  0
  7 10  2  0  0  0  0
  7 11  1  0  0  0  0
  8  9  1  0  0  0  0
  8 12  1  0  0  0  0
 10  8  1  0  0  0  0
 11  2  1  0  0  0  0
 11  9  2  0  0  0  0
 12 13  1  0  0  0  0
 15 16  1  0  0  0  0
 16 14  1  6  0  0  0
 16 13  1  0  0  0  0
 17  3  1  0  0  0  0
 17 18  1  0  0  0  0
 19 26  1  0  0  0  0
 19 18  1  0  0  0  0
 20 21  1  0  0  0  0
 20 23  1  0  0  0  0
 21 27  1  0  0  0  0
 22 21  2  0  0  0  0
 24 26  1  0  0  0  0
 24 22  1  0  0  0  0
 25 24  1  0  0  0  0
 26 20  2  0  0  0  0
 28 27  1  0  0  0  0
 29 22  1  0  0  0  0
 30 29  1  0  0  0  0
 31 52  1  1  0  0  0
 33 34  1  0  0  0  0
 34 32  2  0  0  0  0
 34 31  1  0  0  0  0
 35 33  1  0  0  0  0
 36 37  1  0  0  0  0
 36 35  1  0  0  0  0
 38 50  1  1  0  0  0
 38 39  1  0  0  0  0
 38 43  1  0  0  0  0
 40 37  1  6  0  0  0
 40 43  1  0  0  0  0
 42 39  1  0  0  0  0
 42 41  1  0  0  0  0
 43 44  1  6  0  0  0
 45 40  1  0  0  0  0
 45 41  1  0  0  0  0
 46 47  1  0  0  0  0
 47 42  1  0  0  0  0
 48 47  2  0  0  0  0
 49 47  1  0  0  0  0
 51 50  1  0  0  0  0
 52 53  1  0  0  0  0
M  END
>  <MODEL>
7

>  <REMARK>
 VINA RESULT:      -6.2      4.026      7.115
  Name = 
  19 active torsions:
  status: ('A' for Active; 'I' for Inactive)
    1  A    between atoms: C_2  and  C_3
    2  A    between atoms: C_4  and  N_35
    3  A    between atoms: C_4  and  N_45
    4  A    between atoms: C_5  and  C_19
    5  A    between atoms: N_6  and  C_12
    6  A    between atoms: N_6  and  C_25
    7  A    between atoms: C_10  and  P_15
    8  A    between atoms: C_12  and  C_21
    9  A    between atoms: C_13  and  C_18
   10  A    between atoms: C_13  and  C_48
   11  A    between atoms: C_18  and  C_33
   12  A    between atoms: C_21  and  N_30
   13  A    between atoms: C_22  and  C_34
   14  A    between atoms: P_23  and  N_29
   15  A    between atoms: C_24  and  C_51
   16  A    between atoms: C_34  and  C_42
   17  A    between atoms: C_34  and  C_50
   18  A    between atoms: C_41  and  C_48
   19  A    between atoms: N_45  and  C_52
                            x       y       z     vdW  Elec       q    Type
                         _______ _______ _______ _____ _____    ______ ____

>  <TORSDO>
F 19

$$$$
=
 OpenBabel11042418133D

 53 56  0  0  1  0  0  0  0  0999 V2000
  188.1600  174.3660  139.5140 C   0  0  0  0  0  3  0  0  0  0  0  0
  188.2970  174.3730  140.9110 C   0  0  0  0  0  0  0  0  0  0  0  0
  188.9530  173.2780  141.5340 C   0  0  0  0  0  0  0  0  0  0  0  0
  189.4570  172.2330  140.7520 C   0  0  0  0  0  3  0  0  0  0  0  0
  189.3190  172.2450  139.3640 C   0  0  0  0  0  0  0  0  0  0  0  0
  188.6630  173.3150  138.7460 C   0  0  0  0  0  3  0  0  0  0  0  0
  188.1200  176.8710  141.5290 C   0  0  0  0  0  3  0  0  0  0  0  0
  186.5330  176.6900  142.9560 N   0  0  0  0  0  0  0  0  0  0  0  0
  186.7550  175.4530  142.5510 N   0  0  0  0  0  0  0  0  0  0  0  0
  187.3280  177.5670  142.3680 N   0  0  0  0  0  0  0  0  0  0  0  0
  187.7530  175.5400  141.6500 C   0  0  0  0  0  0  0  0  0  0  0  0
  185.5130  177.0470  143.9260 C   0  0  0  0  0  2  0  0  0  0  0  0
  184.7280  178.1640  143.4250 N   0  0  0  0  0  2  0  0  0  0  0  0
  184.9550  178.4890  145.8140 C   0  0  0  0  0  1  0  0  0  0  0  0
  185.6040  180.1580  144.2570 O   0  0  0  0  0  1  0  0  0  0  0  0
  184.6620  179.1530  144.4870 C   0  0  1  0  0  3  0  0  0  0  0  0
  189.1490  173.1780  143.0120 C   0  0  0  0  0  2  0  0  0  0  0  0
  190.5400  172.6650  143.3230 C   0  0  0  0  0  2  0  0  0  0  0  0
  190.8880  173.0180  144.7550 C   0  0  0  0  0  2  0  0  0  0  0  0
  191.3780  175.4570  144.1630 C   0  0  0  0  0  0  0  0  0  0  0  0
  191.0230  176.6840  144.6890 C   0  0  0  0  0  0  0  0  0  0  0  0
  190.2240  176.4220  145.7890 C   0  0  0  0  0  0  0  0  0  0  0  0
  192.1160  175.2410  143.0460 F   0  0  0  0  0  0  0  0  0  0  0  0
  190.0820  175.0880  145.9440 N   0  0  0  0  0  0  0  0  0  0  0  0
  189.2900  174.4140  146.9630 C   0  0  0  0  0  1  0  0  0  0  0  0
  190.7900  174.4940  144.9610 C   0  0  0  0  0  0  0  0  0  0  0  0
  191.3410  178.0190  144.1080 C   0  0  0  0  0  2  0  0  0  0  0  0
  190.9540  178.0520  142.7700 O   0  0  0  0  0  1  0  0  0  0  0  0
  189.5360  177.4490  146.6310 C   0  0  0  0  0  2  0  0  0  0  0  0
  188.3940  177.9080  145.9720 O   0  0  0  0  0  1  0  0  0  0  0  0
  189.8840  171.1080  138.5690 C   0  0  2  0  0  3  0  0  0  0  0  0
  191.0000  169.3900  139.7860 O   0  0  0  0  0  0  0  0  0  0  0  0
  192.3230  171.2400  139.2630 N   0  0  0  0  0  2  0  0  0  0  0  0
  191.0890  170.5200  139.2360 C   0  0  0  0  0  0  0  0  0  0  0  0
  193.5090  170.7060  139.9140 C   0  0  0  0  0  2  0  0  0  0  0  0
  194.7560  171.3690  139.3490 C   0  0  0  0  0  2  0  0  0  0  0  0
  195.5440  171.9600  140.4230 N   0  0  0  0  0  2  0  0  0  0  0  0
  195.7080  174.4630  142.5510 C   0  0  1  0  0  3  0  0  0  0  0  0
  195.1450  174.5270  143.8430 O   0  0  0  0  0  0  0  0  0  0  0  0
  194.6320  172.4220  141.4650 C   0  0  2  0  0  3  0  0  0  0  0  0
  194.3710  172.3660  143.8820 O   0  0  0  0  0  0  0  0  0  0  0  0
  195.2090  173.2990  144.4510 N   0  0  0  0  0  0  0  0  0  0  0  0
  194.6480  173.9600  141.5560 C   0  0  2  0  0  3  0  0  0  0  0  0
  194.7920  174.5260  140.2850 O   0  0  0  0  0  1  0  0  0  0  0  0
  195.0120  171.7550  142.7890 C   0  0  0  0  0  2  0  0  0  0  0  0
  197.7650  174.0970  145.3720 O   0  0  0  0  0  1  0  0  0  0  0  0
  196.8500  172.7610  144.8830 P   0  0  0  0  0  0  0  0  0  0  0  0
  196.8040  171.6290  146.1420 O   0  0  0  0  0  1  0  0  0  0  0  0
  197.5020  172.1320  143.6730 O   0  0  0  0  0  0  0  0  0  0  0  0
  196.4040  176.1440  142.1160 P   0  0  0  0  0  2  0  0  0  0  0  0
  197.9250  175.5290  141.5460 O   0  0  0  0  0  1  0  0  0  0  0  0
  190.1610  171.5230  137.1300 C   0  0  0  0  0  2  0  0  0  0  0  0
  190.1560  170.3990  136.3010 O   0  0  0  0  0  1  0  0  0  0  0  0
  1  2  1  0  0  0  0
  2  3  2  0  0  0  0
  2 11  1  0  0  0  0
  3 17  1  0  0  0  0
  4  3  1  0  0  0  0
  5  4  2  0  0  0  0
  6  5  1  0  0  0  0
  6  1  2  0  0  0  0
  7 11  1  0  0  0  0
  7 10  2  0  0  0  0
  8 12  1  0  0  0  0
  9  8  1  0  0  0  0
 10  8  1  0  0  0  0
 11  9  2  0  0  0  0
 13 12  1  0  0  0  0
 13 16  1  0  0  0  0
 15 16  1  0  0  0  0
 16 14  1  1  0  0  0
 17 18  1  0  0  0  0
 18 19  1  0  0  0  0
 19 26  1  0  0  0  0
 20 21  1  0  0  0  0
 20 26  2  0  0  0  0
 21 22  2  0  0  0  0
 22 24  1  0  0  0  0
 22 29  1  0  0  0  0
 23 20  1  0  0  0  0
 24 25  1  0  0  0  0
 26 24  1  0  0  0  0
 27 21  1  0  0  0  0
 28 27  1  0  0  0  0
 30 29  1  0  0  0  0
 31 52  1  6  0  0  0
 31 34  1  0  0  0  0
 31  5  1  0  0  0  0
 33 35  1  0  0  0  0
 34 33  1  0  0  0  0
 34 32  2  0  0  0  0
 36 35  1  0  0  0  0
 36 37  1  0  0  0  0
 38 50  1  6  0  0  0
 38 39  1  0  0  0  0
 39 42  1  0  0  0  0
 40 37  1  6  0  0  0
 40 43  1  0  0  0  0
 40 45  1  0  0  0  0
 41 42  1  0  0  0  0
 42 47  1  0  0  0  0
 43 44  1  6  0  0  0
 43 38  1  0  0  0  0
 45 41  1  0  0  0  0
 47 46  1  0  0  0  0
 47 48  1  0  0  0  0
 49 47  2  0  0  0  0
 51 50  1  0  0  0  0
 53 52  1  0  0  0  0
M  END
>  <MODEL>
8

>  <REMARK>
 VINA RESULT:      -6.2      3.102      6.986
  Name = 
  19 active torsions:
  status: ('A' for Active; 'I' for Inactive)
    1  A    between atoms: C_2  and  C_3
    2  A    between atoms: C_4  and  N_35
    3  A    between atoms: C_4  and  N_45
    4  A    between atoms: C_5  and  C_19
    5  A    between atoms: N_6  and  C_12
    6  A    between atoms: N_6  and  C_25
    7  A    between atoms: C_10  and  P_15
    8  A    between atoms: C_12  and  C_21
    9  A    between atoms: C_13  and  C_18
   10  A    between atoms: C_13  and  C_48
   11  A    between atoms: C_18  and  C_33
   12  A    between atoms: C_21  and  N_30
   13  A    between atoms: C_22  and  C_34
   14  A    between atoms: P_23  and  N_29
   15  A    between atoms: C_24  and  C_51
   16  A    between atoms: C_34  and  C_42
   17  A    between atoms: C_34  and  C_50
   18  A    between atoms: C_41  and  C_48
   19  A    between atoms: N_45  and  C_52
                            x       y       z     vdW  Elec       q    Type
                         _______ _______ _______ _____ _____    ______ ____

>  <TORSDO>
F 19

$$$$
=
 OpenBabel11042418133D

 53 56  0  0  1  0  0  0  0  0999 V2000
  188.0370  174.6240  140.3620 C   0  0  0  0  0  3  0  0  0  0  0  0
  188.5660  175.2350  141.5090 C   0  0  0  0  0  0  0  0  0  0  0  0
  189.6980  174.6450  142.1320 C   0  0  0  0  0  0  0  0  0  0  0  0
  190.2660  173.4870  141.5880 C   0  0  0  0  0  3  0  0  0  0  0  0
  189.7310  172.8960  140.4430 C   0  0  0  0  0  0  0  0  0  0  0  0
  188.6080  173.4660  139.8330 C   0  0  0  0  0  3  0  0  0  0  0  0
  188.0730  177.7670  141.5150 C   0  0  0  0  0  3  0  0  0  0  0  0
  186.6280  177.7630  143.0960 N   0  0  0  0  0  0  0  0  0  0  0  0
  186.9980  176.5000  142.9840 N   0  0  0  0  0  0  0  0  0  0  0  0
  187.2480  178.5510  142.2350 N   0  0  0  0  0  0  0  0  0  0  0  0
  187.9110  176.4760  141.9930 C   0  0  0  0  0  0  0  0  0  0  0  0
  185.6340  178.2270  144.0470 C   0  0  0  0  0  2  0  0  0  0  0  0
  186.2010  178.2370  145.3860 N   0  0  0  0  0  2  0  0  0  0  0  0
  183.9270  178.6700  146.0960 C   0  0  0  0  0  1  0  0  0  0  0  0
  185.7790  179.0470  147.5320 O   0  0  0  0  0  1  0  0  0  0  0  0
  185.3710  179.1100  146.1980 C   0  0  1  0  0  3  0  0  0  0  0  0
  190.3410  175.2050  143.3580 C   0  0  0  0  0  2  0  0  0  0  0  0
  189.4610  174.9630  144.5690 C   0  0  0  0  0  2  0  0  0  0  0  0
  190.1350  173.9510  145.4730 C   0  0  0  0  0  2  0  0  0  0  0  0
  192.5720  173.4360  144.8970 C   0  0  0  0  0  0  0  0  0  0  0  0
  193.7910  174.0220  145.1790 C   0  0  0  0  0  0  0  0  0  0  0  0
  193.5210  175.1300  145.9630 C   0  0  0  0  0  0  0  0  0  0  0  0
  192.3610  172.3510  144.1120 F   0  0  0  0  0  0  0  0  0  0  0  0
  192.1890  175.2350  146.1620 N   0  0  0  0  0  0  0  0  0  0  0  0
  191.5050  176.2850  146.9040 C   0  0  0  0  0  1  0  0  0  0  0  0
  191.6060  174.2010  145.5220 C   0  0  0  0  0  0  0  0  0  0  0  0
  195.1160  173.6060  144.6390 C   0  0  0  0  0  2  0  0  0  0  0  0
  195.8140  172.8900  145.6100 O   0  0  0  0  0  1  0  0  0  0  0  0
  194.5290  176.1240  146.4450 C   0  0  0  0  0  2  0  0  0  0  0  0
  194.8380  177.0160  145.4170 O   0  0  0  0  0  1  0  0  0  0  0  0
  190.3790  171.6630  139.8930 C   0  0  2  0  0  3  0  0  0  0  0  0
  190.9560  170.4070  141.8340 O   0  0  0  0  0  0  0  0  0  0  0  0
  192.7680  171.3240  140.6840 N   0  0  0  0  0  2  0  0  0  0  0  0
  191.3690  171.0880  140.8590 C   0  0  0  0  0  0  0  0  0  0  0  0
  193.7570  170.7940  141.6110 C   0  0  0  0  0  2  0  0  0  0  0  0
  195.1330  170.8010  140.9620 C   0  0  0  0  0  2  0  0  0  0  0  0
  195.9530  171.8660  141.5290 N   0  0  0  0  0  2  0  0  0  0  0  0
  196.2090  174.9000  140.2870 C   0  0  1  0  0  3  0  0  0  0  0  0
  196.5530  175.2600  138.9670 O   0  0  0  0  0  0  0  0  0  0  0  0
  196.7840  172.4230  140.4660 C   0  0  2  0  0  3  0  0  0  0  0  0
  196.6300  173.1190  138.1420 O   0  0  0  0  0  0  0  0  0  0  0  0
  196.0300  174.3560  138.0770 N   0  0  0  0  0  0  0  0  0  0  0  0
  197.2140  173.8610  140.8130 C   0  0  2  0  0  3  0  0  0  0  0  0
  197.4490  173.9870  142.1860 O   0  0  0  0  0  1  0  0  0  0  0  0
  196.0180  172.3450  139.1440 C   0  0  0  0  0  2  0  0  0  0  0  0
  193.7510  173.1130  136.9460 O   0  0  0  0  0  0  0  0  0  0  0  0
  194.2570  174.3940  137.9270 P   0  0  0  0  0  0  0  0  0  0  0  0
  193.5180  174.2550  139.4460 O   0  0  0  0  0  1  0  0  0  0  0  0
  193.8390  175.7000  137.2900 O   0  0  0  0  0  1  0  0  0  0  0  0
  196.1250  176.4520  141.3290 P   0  0  0  0  0  2  0  0  0  0  0  0
  194.5840  176.0710  142.0350 O   0  0  0  0  0  1  0  0  0  0  0  0
  190.9890  171.9220  138.5210 C   0  0  0  0  0  2  0  0  0  0  0  0
  190.9460  170.7570  137.7540 O   0  0  0  0  0  1  0  0  0  0  0  0
  1  2  1  0  0  0  0
  2 11  1  0  0  0  0
  2  3  2  0  0  0  0
  3 17  1  0  0  0  0
  4  3  1  0  0  0  0
  5  4  2  0  0  0  0
  6  1  2  0  0  0  0
  6  5  1  0  0  0  0
  7 11  1  0  0  0  0
  7 10  2  0  0  0  0
  8 12  1  0  0  0  0
  9  8  1  0  0  0  0
 10  8  1  0  0  0  0
 11  9  2  0  0  0  0
 12 13  1  0  0  0  0
 13 16  1  0  0  0  0
 16 14  1  1  0  0  0
 16 15  1  0  0  0  0
 17 18  1  0  0  0  0
 18 19  1  0  0  0  0
 19 26  1  0  0  0  0
 20 21  1  0  0  0  0
 20 26  2  0  0  0  0
 21 22  2  0  0  0  0
 22 24  1  0  0  0  0
 22 29  1  0  0  0  0
 23 20  1  0  0  0  0
 24 25  1  0  0  0  0
 26 24  1  0  0  0  0
 27 21  1  0  0  0  0
 27 28  1  0  0  0  0
 30 29  1  0  0  0  0
 31 52  1  6  0  0  0
 31  5  1  0  0  0  0
 31 34  1  0  0  0  0
 33 34  1  0  0  0  0
 33 35  1  0  0  0  0
 34 32  2  0  0  0  0
 36 37  1  0  0  0  0
 36 35  1  0  0  0  0
 38 43  1  0  0  0  0
 38 50  1  1  0  0  0
 39 38  1  0  0  0  0
 40 43  1  0  0  0  0
 40 37  1  1  0  0  0
 41 45  1  0  0  0  0
 42 41  1  0  0  0  0
 42 39  1  0  0  0  0
 43 44  1  1  0  0  0
 45 40  1  0  0  0  0
 46 47  2  0  0  0  0
 47 42  1  0  0  0  0
 47 48  1  0  0  0  0
 49 47  1  0  0  0  0
 50 51  1  0  0  0  0
 53 52  1  0  0  0  0
M  END
>  <MODEL>
9

>  <REMARK>
 VINA RESULT:      -6.1      3.573      7.252
  Name = 
  19 active torsions:
  status: ('A' for Active; 'I' for Inactive)
    1  A    between atoms: C_2  and  C_3
    2  A    between atoms: C_4  and  N_35
    3  A    between atoms: C_4  and  N_45
    4  A    between atoms: C_5  and  C_19
    5  A    between atoms: N_6  and  C_12
    6  A    between atoms: N_6  and  C_25
    7  A    between atoms: C_10  and  P_15
    8  A    between atoms: C_12  and  C_21
    9  A    between atoms: C_13  and  C_18
   10  A    between atoms: C_13  and  C_48
   11  A    between atoms: C_18  and  C_33
   12  A    between atoms: C_21  and  N_30
   13  A    between atoms: C_22  and  C_34
   14  A    between atoms: P_23  and  N_29
   15  A    between atoms: C_24  and  C_51
   16  A    between atoms: C_34  and  C_42
   17  A    between atoms: C_34  and  C_50
   18  A    between atoms: C_41  and  C_48
   19  A    between atoms: N_45  and  C_52
                            x       y       z     vdW  Elec       q    Type
                         _______ _______ _______ _____ _____    ______ ____

>  <TORSDO>
F 19

$$$$
