=
 OpenBabel11042416433D

 48 52  0  0  1  0  0  0  0  0999 V2000
  194.1570  173.7500  141.8130 C   0  0  1  0  0  0  0  0  0  0  0  0
  192.9020  173.4910  140.9290 C   0  0  0  0  0  2  0  0  0  0  0  0
  191.5260  173.6090  141.6510 C   0  0  1  0  0  3  0  0  0  0  0  0
  195.6240  175.6070  142.2250 N   0  0  0  0  0  0  0  0  0  0  0  0
  194.1990  172.7830  143.0180 C   0  0  0  0  0  2  0  0  0  0  0  0
  189.1190  174.8840  143.2750 C   0  0  2  0  0  3  0  0  0  0  0  0
  191.1790  172.5910  142.7780 C   0  0  1  0  0  3  0  0  0  0  0  0
  190.3840  175.5700  142.8550 C   0  0  0  0  0  3  0  0  0  0  0  0
  195.7130  176.3030  144.6780 C   0  0  0  0  0  1  0  0  0  0  0  0
  195.4440  173.5830  141.0000 C   0  0  0  0  0  2  0  0  0  0  0  0
  189.3370  173.6710  143.9730 O   0  0  0  0  0  0  0  0  0  0  0  0
  189.6760  172.6780  143.0420 C   0  0  0  0  0  2  0  0  0  0  0  0
  194.2290  175.1920  142.2990 C   0  0  0  0  0  2  0  0  0  0  0  0
  193.9820  171.2590  142.7360 C   0  0  1  0  0  3  0  0  0  0  0  0
  196.4380  174.6150  141.5540 C   0  0  1  0  0  3  0  0  0  0  0  0
  197.2020  177.1350  143.0210 O   0  0  0  0  0  0  0  0  0  0  0  0
  191.5470  171.0680  142.6300 C   0  0  2  0  0  3  0  0  0  0  0  0
  192.8120  170.8490  141.9360 N   0  0  0  0  0  2  0  0  0  0  0  0
  191.3830  175.0250  142.1480 C   0  0  0  0  0  3  0  0  0  0  0  0
  196.2010  176.4230  143.2630 C   0  0  0  0  0  0  0  0  0  0  0  0
  196.0990  169.8370  143.7580 C   0  0  2  0  0  3  0  0  0  0  0  0
  195.2700  170.3820  142.6050 C   0  0  1  0  0  3  0  0  0  0  0  0
  195.0440  169.1010  143.2000 O   0  0  0  0  0  0  0  0  0  0  0  0
  195.7040  170.2750  145.4970 P   0  0  0  0  0  0  0  0  0  0  0  0
  196.6170  169.6250  146.5070 O   0  0  0  0  0  1  0  0  0  0  0  0
  194.1280  169.7470  145.7630 O   0  0  0  0  0  1  0  0  0  0  0  0
  195.8270  171.9630  145.7560 O   0  0  0  0  0  0  0  0  0  0  0  0
  197.0230  175.0170  139.1930 C   0  0  0  0  0  3  0  0  0  0  0  0
  197.3060  175.2240  140.4830 C   0  0  0  0  0  3  0  0  0  0  0  0
  197.8490  175.6350  138.1190 C   0  0  0  0  0  2  0  0  0  0  0  0
  196.9900  176.7700  135.7300 O   0  0  0  0  0  1  0  0  0  0  0  0
  195.4230  174.9020  136.7050 O   0  0  0  0  0  1  0  0  0  0  0  0
  197.0180  175.4460  136.4740 P   0  0  0  0  0  0  0  0  0  0  0  0
  197.8730  174.3030  135.5470 O   0  0  0  0  0  0  0  0  0  0  0  0
  188.0560  174.8760  142.1720 C   0  0  0  0  0  2  0  0  0  0  0  0
  186.8210  175.5960  142.6630 C   0  0  0  0  0  2  0  0  0  0  0  0
  187.0060  177.0950  142.5680 C   0  0  0  0  0  2  0  0  0  0  0  0
  185.9010  179.0370  143.6290 C   0  0  0  0  0  3  0  0  0  0  0  0
  184.6950  177.9800  146.1860 C   0  0  0  0  0  2  0  0  0  0  0  0
  185.6460  176.7990  145.9370 C   0  0  0  0  0  2  0  0  0  0  0  0
  186.4940  177.7290  143.7760 N   0  0  0  0  0  0  0  0  0  0  0  0
  186.8740  177.1290  145.0630 C   0  0  0  0  0  2  0  0  0  0  0  0
  185.3800  179.3320  146.0820 C   0  0  0  0  0  2  0  0  0  0  0  0
  185.3870  179.7650  144.6400 C   0  0  0  0  0  3  0  0  0  0  0  0
  190.5290  170.2960  142.0010 O   0  0  0  0  0  0  0  0  0  0  0  0
  190.2030  170.8110  139.6170 C   0  0  0  0  0  1  0  0  0  0  0  0
  190.7780  168.6160  140.4190 O   0  0  0  0  0  1  0  0  0  0  0  0
  190.9120  169.9810  140.6750 C   0  0  2  0  0  3  0  0  0  0  0  0
  1  2  1  6  0  0  0
  1 13  1  0  0  0  0
  1  5  1  0  0  0  0
  3  2  1  1  0  0  0
  3 19  1  0  0  0  0
  3  7  1  0  0  0  0
  4 13  1  0  0  0  0
  4 20  1  0  0  0  0
  6 35  1  6  0  0  0
  6 11  1  0  0  0  0
  7 12  1  6  0  0  0
  8  6  1  0  0  0  0
 10 15  1  0  0  0  0
 10  1  1  0  0  0  0
 12 11  1  0  0  0  0
 14  5  1  6  0  0  0
 15 29  1  6  0  0  0
 15  4  1  0  0  0  0
 16 20  2  0  0  0  0
 17 45  1  6  0  0  0
 17  7  1  0  0  0  0
 18 17  1  0  0  0  0
 18 14  1  0  0  0  0
 19  8  2  0  0  0  0
 20  9  1  0  0  0  0
 21 24  1  1  0  0  0
 22 14  1  0  0  0  0
 22 23  1  1  0  0  0
 22 21  1  0  0  0  0
 23 21  1  0  0  0  0
 24 27  2  0  0  0  0
 24 26  1  0  0  0  0
 24 25  1  0  0  0  0
 28 29  2  0  0  0  0
 30 28  1  0  0  0  0
 31 33  1  0  0  0  0
 33 32  1  0  0  0  0
 33 30  1  0  0  0  0
 34 33  2  0  0  0  0
 35 36  1  0  0  0  0
 37 36  1  0  0  0  0
 37 41  1  0  0  0  0
 38 41  1  0  0  0  0
 38 44  2  0  0  0  0
 40 39  1  0  0  0  0
 41 42  1  0  0  0  0
 42 40  1  0  0  0  0
 43 39  1  0  0  0  0
 44 43  1  0  0  0  0
 47 48  1  0  0  0  0
 48 46  1  6  0  0  0
 48 45  1  0  0  0  0
M  END
>  <MODEL>
1

>  <REMARK>
 VINA RESULT:      -6.9      0.000      0.000
  Name = 
  11 active torsions:
  status: ('A' for Active; 'I' for Inactive)
    1  A    between atoms: C_1  and  C_21
    2  A    between atoms: C_7  and  C_15
    3  A    between atoms: C_7  and  C_30
    4  A    between atoms: P_12  and  C_14
    5  A    between atoms: C_21  and  P_22
    6  A    between atoms: N_25  and  C_40
    7  A    between atoms: C_30  and  C_40
    8  A    between atoms: C_32  and  C_37
    9  A    between atoms: C_33  and  C_45
   10  A    between atoms: O_34  and  C_36
   11  A    between atoms: O_34  and  C_39
                            x       y       z     vdW  Elec       q    Type
                         _______ _______ _______ _____ _____    ______ ____

>  <TORSDO>
F 11

$$$$
=
 OpenBabel11042416433D

 48 52  0  0  1  0  0  0  0  0999 V2000
  193.4560  174.6160  142.4730 C   0  0  1  0  0  0  0  0  0  0  0  0
  192.0750  175.2700  142.1820 C   0  0  0  0  0  2  0  0  0  0  0  0
  191.1250  175.4280  143.4070 C   0  0  1  0  0  3  0  0  0  0  0  0
  195.6890  175.4060  142.8750 N   0  0  0  0  0  0  0  0  0  0  0  0
  193.2880  173.2100  143.0930 C   0  0  0  0  0  2  0  0  0  0  0  0
  190.0610  176.3640  146.2450 C   0  0  2  0  0  3  0  0  0  0  0  0
  190.5860  174.1460  144.1100 C   0  0  1  0  0  3  0  0  0  0  0  0
  191.3730  176.7210  145.6130 C   0  0  0  0  0  3  0  0  0  0  0  0
  196.6400  174.6550  145.1210 C   0  0  0  0  0  1  0  0  0  0  0  0
  194.2870  174.4950  141.1930 C   0  0  0  0  0  2  0  0  0  0  0  0
  189.8120  174.9690  146.2800 O   0  0  0  0  0  0  0  0  0  0  0  0
  189.4130  174.5570  145.0000 C   0  0  0  0  0  2  0  0  0  0  0  0
  194.3230  175.4830  143.3770 C   0  0  0  0  0  2  0  0  0  0  0  0
  192.3040  172.2170  142.3890 C   0  0  1  0  0  3  0  0  0  0  0  0
  195.7510  174.7080  141.6080 C   0  0  1  0  0  3  0  0  0  0  0  0
  197.9410  175.7010  143.4260 O   0  0  0  0  0  0  0  0  0  0  0  0
  190.1260  172.8980  143.2680 C   0  0  2  0  0  3  0  0  0  0  0  0
  190.9390  172.6820  142.0750 N   0  0  0  0  0  2  0  0  0  0  0  0
  191.7990  176.3380  144.4020 C   0  0  0  0  0  3  0  0  0  0  0  0
  196.8010  175.3300  143.7890 C   0  0  0  0  0  0  0  0  0  0  0  0
  193.6230  169.8790  141.8060 C   0  0  2  0  0  3  0  0  0  0  0  0
  192.9410  171.1800  141.4080 C   0  0  1  0  0  3  0  0  0  0  0  0
  192.2520  169.9300  141.5140 O   0  0  0  0  0  0  0  0  0  0  0  0
  193.8710  169.4420  143.5720 P   0  0  0  0  0  0  0  0  0  0  0  0
  194.7800  168.2560  143.7800 O   0  0  0  0  0  0  0  0  0  0  0  0
  192.3440  169.0740  144.1790 O   0  0  0  0  0  1  0  0  0  0  0  0
  194.5690  170.7410  144.4410 O   0  0  0  0  0  1  0  0  0  0  0  0
  197.0510  174.8370  139.5170 C   0  0  0  0  0  3  0  0  0  0  0  0
  196.5450  175.4710  140.5790 C   0  0  0  0  0  3  0  0  0  0  0  0
  197.8120  175.5780  138.4740 C   0  0  0  0  0  2  0  0  0  0  0  0
  197.5580  176.2230  135.7810 O   0  0  0  0  0  0  0  0  0  0  0  0
  195.4890  174.9960  136.8350 O   0  0  0  0  0  1  0  0  0  0  0  0
  197.1830  175.1470  136.7860 P   0  0  0  0  0  0  0  0  0  0  0  0
  197.8650  173.6670  136.2980 O   0  0  0  0  0  1  0  0  0  0  0  0
  188.9150  177.2690  145.7840 C   0  0  0  0  0  2  0  0  0  0  0  0
  188.1830  177.8030  146.9930 C   0  0  0  0  0  2  0  0  0  0  0  0
  186.7260  177.3960  146.9560 C   0  0  0  0  0  2  0  0  0  0  0  0
  185.8710  179.1900  145.4840 C   0  0  0  0  0  3  0  0  0  0  0  0
  186.0720  178.0950  142.6780 C   0  0  0  0  0  2  0  0  0  0  0  0
  186.2160  176.7490  143.4050 C   0  0  0  0  0  2  0  0  0  0  0  0
  186.1410  177.7860  145.6790 N   0  0  0  0  0  0  0  0  0  0  0  0
  185.6140  176.7120  144.8250 C   0  0  0  0  0  2  0  0  0  0  0  0
  184.8940  178.9190  143.1720 C   0  0  0  0  0  2  0  0  0  0  0  0
  185.3270  179.7200  144.3710 C   0  0  0  0  0  3  0  0  0  0  0  0
  188.7530  172.9370  142.8960 O   0  0  0  0  0  0  0  0  0  0  0  0
  188.2490  174.7450  141.3040 C   0  0  0  0  0  1  0  0  0  0  0  0
  187.7630  172.4310  140.8590 O   0  0  0  0  0  1  0  0  0  0  0  0
  188.6310  173.2920  141.5310 C   0  0  2  0  0  3  0  0  0  0  0  0
  1 10  1  6  0  0  0
  1  5  1  0  0  0  0
  1 13  1  0  0  0  0
  2  1  1  0  0  0  0
  3  2  1  6  0  0  0
  3  7  1  0  0  0  0
  3 19  1  0  0  0  0
  4 13  1  0  0  0  0
  4 20  1  0  0  0  0
  6 35  1  6  0  0  0
  6 11  1  0  0  0  0
  7 12  1  6  0  0  0
  8  6  1  0  0  0  0
 10 15  1  0  0  0  0
 12 11  1  0  0  0  0
 14  5  1  6  0  0  0
 15 29  1  6  0  0  0
 15  4  1  0  0  0  0
 16 20  2  0  0  0  0
 17 45  1  6  0  0  0
 17  7  1  0  0  0  0
 18 14  1  0  0  0  0
 18 17  1  0  0  0  0
 19  8  2  0  0  0  0
 20  9  1  0  0  0  0
 21 24  1  1  0  0  0
 22 23  1  6  0  0  0
 22 21  1  0  0  0  0
 22 14  1  0  0  0  0
 23 21  1  0  0  0  0
 24 25  2  0  0  0  0
 24 26  1  0  0  0  0
 24 27  1  0  0  0  0
 28 29  2  0  0  0  0
 30 28  1  0  0  0  0
 31 33  2  0  0  0  0
 33 32  1  0  0  0  0
 33 30  1  0  0  0  0
 34 33  1  0  0  0  0
 35 36  1  0  0  0  0
 37 36  1  0  0  0  0
 38 41  1  0  0  0  0
 39 43  1  0  0  0  0
 39 40  1  0  0  0  0
 40 42  1  0  0  0  0
 41 37  1  0  0  0  0
 42 41  1  0  0  0  0
 43 44  1  0  0  0  0
 44 38  2  0  0  0  0
 47 48  1  0  0  0  0
 48 46  1  1  0  0  0
 48 45  1  0  0  0  0
M  END
>  <MODEL>
2

>  <REMARK>
 VINA RESULT:      -6.8      1.690      2.630
  Name = 
  11 active torsions:
  status: ('A' for Active; 'I' for Inactive)
    1  A    between atoms: C_1  and  C_21
    2  A    between atoms: C_7  and  C_15
    3  A    between atoms: C_7  and  C_30
    4  A    between atoms: P_12  and  C_14
    5  A    between atoms: C_21  and  P_22
    6  A    between atoms: N_25  and  C_40
    7  A    between atoms: C_30  and  C_40
    8  A    between atoms: C_32  and  C_37
    9  A    between atoms: C_33  and  C_45
   10  A    between atoms: O_34  and  C_36
   11  A    between atoms: O_34  and  C_39
                            x       y       z     vdW  Elec       q    Type
                         _______ _______ _______ _____ _____    ______ ____

>  <TORSDO>
F 11

$$$$
=
 OpenBabel11042416433D

 48 52  0  0  1  0  0  0  0  0999 V2000
  189.2500  173.6990  142.1050 C   0  0  1  0  0  0  0  0  0  0  0  0
  189.1370  172.1740  142.3940 C   0  0  0  0  0  2  0  0  0  0  0  0
  190.4850  171.4190  142.5940 C   0  0  1  0  0  3  0  0  0  0  0  0
  189.0740  175.7170  143.3970 N   0  0  0  0  0  0  0  0  0  0  0  0
  190.1030  173.9670  140.8450 C   0  0  0  0  0  2  0  0  0  0  0  0
  193.2940  170.6240  143.8350 C   0  0  2  0  0  3  0  0  0  0  0  0
  191.4730  171.3140  141.3930 C   0  0  1  0  0  3  0  0  0  0  0  0
  192.3680  171.6980  144.3200 C   0  0  0  0  0  3  0  0  0  0  0  0
  191.1770  177.1590  143.3130 C   0  0  0  0  0  1  0  0  0  0  0  0
  187.8660  174.3230  141.9060 C   0  0  0  0  0  2  0  0  0  0  0  0
  193.5970  170.7190  142.4540 O   0  0  0  0  0  0  0  0  0  0  0  0
  192.5010  170.2330  141.7240 C   0  0  0  0  0  2  0  0  0  0  0  0
  189.8170  174.4680  143.2920 C   0  0  0  0  0  2  0  0  0  0  0  0
  189.7720  173.1460  139.5540 C   0  0  1  0  0  3  0  0  0  0  0  0
  187.9450  175.7420  142.4900 C   0  0  1  0  0  3  0  0  0  0  0  0
  189.1160  177.8940  144.2460 O   0  0  0  0  0  0  0  0  0  0  0  0
  190.9450  171.0350  139.9370 C   0  0  2  0  0  3  0  0  0  0  0  0
  189.6640  171.6790  139.6600 N   0  0  0  0  0  2  0  0  0  0  0  0
  191.1720  172.0070  143.8000 C   0  0  0  0  0  3  0  0  0  0  0  0
  189.7510  176.9450  143.7310 C   0  0  0  0  0  0  0  0  0  0  0  0
  189.2570  174.1980  137.0690 C   0  0  2  0  0  3  0  0  0  0  0  0
  188.8610  173.8480  138.4950 C   0  0  1  0  0  3  0  0  0  0  0  0
  188.6520  172.9730  137.3830 O   0  0  0  0  0  0  0  0  0  0  0  0
  190.9680  173.9150  136.4660 P   0  0  0  0  0  0  0  0  0  0  0  0
  192.0320  174.4800  137.3740 O   0  0  0  0  0  1  0  0  0  0  0  0
  191.0650  174.6780  134.9680 O   0  0  0  0  0  0  0  0  0  0  0  0
  191.3050  172.2430  136.3140 O   0  0  0  0  0  1  0  0  0  0  0  0
  186.0180  177.2540  142.7730 C   0  0  0  0  0  3  0  0  0  0  0  0
  186.6730  176.1620  143.1810 C   0  0  0  0  0  3  0  0  0  0  0  0
  184.7440  177.6680  143.4220 C   0  0  0  0  0  2  0  0  0  0  0  0
  186.3000  178.9380  145.3450 O   0  0  0  0  0  0  0  0  0  0  0  0
  185.1900  176.6860  146.1160 O   0  0  0  0  0  1  0  0  0  0  0  0
  185.0350  178.1100  145.1970 P   0  0  0  0  0  0  0  0  0  0  0  0
  183.7090  179.0080  145.7720 O   0  0  0  0  0  1  0  0  0  0  0  0
  192.9310  169.2390  144.3780 C   0  0  0  0  0  2  0  0  0  0  0  0
  193.8270  168.9120  145.5520 C   0  0  0  0  0  2  0  0  0  0  0  0
  195.1950  168.4790  145.0720 C   0  0  0  0  0  2  0  0  0  0  0  0
  196.7980  169.7430  143.6750 C   0  0  0  0  0  3  0  0  0  0  0  0
  196.6340  172.5980  144.6430 C   0  0  0  0  0  2  0  0  0  0  0  0
  195.9470  171.9570  145.8590 C   0  0  0  0  0  2  0  0  0  0  0  0
  196.0490  169.6490  144.9050 N   0  0  0  0  0  0  0  0  0  0  0  0
  196.2980  170.4740  146.0960 C   0  0  0  0  0  2  0  0  0  0  0  0
  197.9390  171.9170  144.2660 C   0  0  0  0  0  2  0  0  0  0  0  0
  197.6370  170.7500  143.3630 C   0  0  0  0  0  3  0  0  0  0  0  0
  190.8500  169.6510  139.6220 O   0  0  0  0  0  0  0  0  0  0  0  0
  190.5230  168.9190  137.2950 C   0  0  0  0  0  1  0  0  0  0  0  0
  192.5520  168.5170  138.5240 O   0  0  0  0  0  1  0  0  0  0  0  0
  191.4770  169.3940  138.3780 C   0  0  2  0  0  3  0  0  0  0  0  0
  1  5  1  6  0  0  0
  1  2  1  0  0  0  0
  1 13  1  0  0  0  0
  3  2  1  6  0  0  0
  3 19  1  0  0  0  0
  4 20  1  0  0  0  0
  6  8  1  0  0  0  0
  6 35  1  6  0  0  0
  7 12  1  1  0  0  0
  7  3  1  0  0  0  0
  9 20  1  0  0  0  0
 10  1  1  0  0  0  0
 10 15  1  0  0  0  0
 11  6  1  0  0  0  0
 12 11  1  0  0  0  0
 13  4  1  0  0  0  0
 14 18  1  0  0  0  0
 14  5  1  1  0  0  0
 15 29  1  1  0  0  0
 15  4  1  0  0  0  0
 17 45  1  1  0  0  0
 17  7  1  0  0  0  0
 18 17  1  0  0  0  0
 19  8  2  0  0  0  0
 20 16  2  0  0  0  0
 21 24  1  1  0  0  0
 21 23  1  0  0  0  0
 21 22  1  0  0  0  0
 22 23  1  6  0  0  0
 22 14  1  0  0  0  0
 24 25  1  0  0  0  0
 26 24  2  0  0  0  0
 27 24  1  0  0  0  0
 28 29  2  0  0  0  0
 28 30  1  0  0  0  0
 30 33  1  0  0  0  0
 33 31  2  0  0  0  0
 33 34  1  0  0  0  0
 33 32  1  0  0  0  0
 35 36  1  0  0  0  0
 37 36  1  0  0  0  0
 38 41  1  0  0  0  0
 39 40  1  0  0  0  0
 40 42  1  0  0  0  0
 41 37  1  0  0  0  0
 41 42  1  0  0  0  0
 43 39  1  0  0  0  0
 44 38  2  0  0  0  0
 44 43  1  0  0  0  0
 48 46  1  6  0  0  0
 48 47  1  0  0  0  0
 48 45  1  0  0  0  0
M  END
>  <MODEL>
3

>  <REMARK>
 VINA RESULT:      -6.7      3.891      9.535
  Name = 
  11 active torsions:
  status: ('A' for Active; 'I' for Inactive)
    1  A    between atoms: C_1  and  C_21
    2  A    between atoms: C_7  and  C_15
    3  A    between atoms: C_7  and  C_30
    4  A    between atoms: P_12  and  C_14
    5  A    between atoms: C_21  and  P_22
    6  A    between atoms: N_25  and  C_40
    7  A    between atoms: C_30  and  C_40
    8  A    between atoms: C_32  and  C_37
    9  A    between atoms: C_33  and  C_45
   10  A    between atoms: O_34  and  C_36
   11  A    between atoms: O_34  and  C_39
                            x       y       z     vdW  Elec       q    Type
                         _______ _______ _______ _____ _____    ______ ____

>  <TORSDO>
F 11

$$$$
=
 OpenBabel11042416433D

 48 52  0  0  1  0  0  0  0  0999 V2000
  192.0840  174.2740  142.1700 C   0  0  1  0  0  0  0  0  0  0  0  0
  192.3330  173.9060  140.6780 C   0  0  0  0  0  2  0  0  0  0  0  0
  192.4490  172.3840  140.3640 C   0  0  1  0  0  3  0  0  0  0  0  0
  190.1740  174.8370  143.5130 N   0  0  0  0  0  0  0  0  0  0  0  0
  193.2040  173.7140  143.0760 C   0  0  0  0  0  2  0  0  0  0  0  0
  191.6510  169.3220  140.1440 C   0  0  2  0  0  3  0  0  0  0  0  0
  193.6450  171.5830  140.9600 C   0  0  1  0  0  3  0  0  0  0  0  0
  190.7960  170.4400  140.6610 C   0  0  0  0  0  3  0  0  0  0  0  0
  189.8280  173.2650  145.4920 C   0  0  0  0  0  1  0  0  0  0  0  0
  192.0110  175.7920  142.3550 C   0  0  0  0  0  2  0  0  0  0  0  0
  192.9250  169.2530  140.7610 O   0  0  0  0  0  0  0  0  0  0  0  0
  193.7400  170.2540  140.2110 C   0  0  0  0  0  2  0  0  0  0  0  0
  190.7260  173.7910  142.6620 C   0  0  0  0  0  2  0  0  0  0  0  0
  194.6870  173.9720  142.6450 C   0  0  1  0  0  3  0  0  0  0  0  0
  190.9790  176.0400  143.4660 C   0  0  1  0  0  3  0  0  0  0  0  0
  188.6320  175.3000  145.2060 O   0  0  0  0  0  0  0  0  0  0  0  0
  195.0900  172.2050  141.0040 C   0  0  2  0  0  3  0  0  0  0  0  0
  195.0870  173.6420  141.2640 N   0  0  0  0  0  2  0  0  0  0  0  0
  191.1380  171.7340  140.7250 C   0  0  0  0  0  3  0  0  0  0  0  0
  189.4620  174.4990  144.7200 C   0  0  0  0  0  0  0  0  0  0  0  0
  196.3310  175.1100  144.5290 C   0  0  2  0  0  3  0  0  0  0  0  0
  195.4090  175.1830  143.3210 C   0  0  1  0  0  3  0  0  0  0  0  0
  196.8270  175.0150  143.2200 O   0  0  0  0  0  0  0  0  0  0  0  0
  196.6030  173.5270  145.4170 P   0  0  0  0  0  0  0  0  0  0  0  0
  197.3150  173.6880  146.7370 O   0  0  0  0  0  1  0  0  0  0  0  0
  197.5490  172.5780  144.3970 O   0  0  0  0  0  0  0  0  0  0  0  0
  195.1200  172.7450  145.7640 O   0  0  0  0  0  1  0  0  0  0  0  0
  189.1790  177.2560  142.2990 C   0  0  0  0  0  3  0  0  0  0  0  0
  190.1440  177.2710  143.2230 C   0  0  0  0  0  3  0  0  0  0  0  0
  188.3230  178.4510  142.0650 C   0  0  0  0  0  2  0  0  0  0  0  0
  185.6000  178.5880  141.5170 O   0  0  0  0  0  0  0  0  0  0  0  0
  186.2470  178.9030  144.0430 O   0  0  0  0  0  1  0  0  0  0  0  0
  186.5760  178.1050  142.5760 P   0  0  0  0  0  0  0  0  0  0  0  0
  186.3800  176.4290  142.7920 O   0  0  0  0  0  1  0  0  0  0  0  0
  191.6030  169.1970  138.6190 C   0  0  0  0  0  2  0  0  0  0  0  0
  190.1860  169.4210  138.1430 C   0  0  0  0  0  2  0  0  0  0  0  0
  190.1750  169.8860  136.7030 C   0  0  0  0  0  2  0  0  0  0  0  0
  189.6070  172.1740  137.4510 C   0  0  0  0  0  3  0  0  0  0  0  0
  192.1120  173.8050  137.0290 C   0  0  0  0  0  2  0  0  0  0  0  0
  192.5200  172.6200  136.1410 C   0  0  0  0  0  2  0  0  0  0  0  0
  190.4480  171.3170  136.6490 N   0  0  0  0  0  0  0  0  0  0  0  0
  191.3430  171.7920  135.5850 C   0  0  0  0  0  2  0  0  0  0  0  0
  190.7160  174.3250  136.7300 C   0  0  0  0  0  2  0  0  0  0  0  0
  189.7160  173.5160  137.5130 C   0  0  0  0  0  3  0  0  0  0  0  0
  195.8580  171.9440  139.8340 O   0  0  0  0  0  0  0  0  0  0  0  0
  195.7450  173.4230  137.8710 C   0  0  0  0  0  1  0  0  0  0  0  0
  197.6890  173.2570  139.2790 O   0  0  0  0  0  1  0  0  0  0  0  0
  196.2970  173.1620  139.2620 C   0  0  2  0  0  3  0  0  0  0  0  0
  1  2  1  6  0  0  0
  1 10  1  0  0  0  0
  1 13  1  0  0  0  0
  1  5  1  0  0  0  0
  3  2  1  1  0  0  0
  3 19  1  0  0  0  0
  3  7  1  0  0  0  0
  4 20  1  0  0  0  0
  6 35  1  6  0  0  0
  6  8  1  0  0  0  0
  6 11  1  0  0  0  0
  7 12  1  6  0  0  0
  7 17  1  0  0  0  0
  8 19  2  0  0  0  0
 10 15  1  0  0  0  0
 12 11  1  0  0  0  0
 13  4  1  0  0  0  0
 14  5  1  6  0  0  0
 14 22  1  0  0  0  0
 15 29  1  6  0  0  0
 15  4  1  0  0  0  0
 17 45  1  6  0  0  0
 17 18  1  0  0  0  0
 18 14  1  0  0  0  0
 20 16  2  0  0  0  0
 20  9  1  0  0  0  0
 21 24  1  1  0  0  0
 22 23  1  6  0  0  0
 22 21  1  0  0  0  0
 23 21  1  0  0  0  0
 24 27  1  0  0  0  0
 24 25  1  0  0  0  0
 26 24  2  0  0  0  0
 28 29  2  0  0  0  0
 30 28  1  0  0  0  0
 30 33  1  0  0  0  0
 31 33  2  0  0  0  0
 33 34  1  0  0  0  0
 33 32  1  0  0  0  0
 36 35  1  0  0  0  0
 37 36  1  0  0  0  0
 38 44  2  0  0  0  0
 40 39  1  0  0  0  0
 41 37  1  0  0  0  0
 41 38  1  0  0  0  0
 42 40  1  0  0  0  0
 42 41  1  0  0  0  0
 43 39  1  0  0  0  0
 43 44  1  0  0  0  0
 48 46  1  6  0  0  0
 48 47  1  0  0  0  0
 48 45  1  0  0  0  0
M  END
>  <MODEL>
4

>  <REMARK>
 VINA RESULT:      -6.4      3.414      7.749
  Name = 
  11 active torsions:
  status: ('A' for Active; 'I' for Inactive)
    1  A    between atoms: C_1  and  C_21
    2  A    between atoms: C_7  and  C_15
    3  A    between atoms: C_7  and  C_30
    4  A    between atoms: P_12  and  C_14
    5  A    between atoms: C_21  and  P_22
    6  A    between atoms: N_25  and  C_40
    7  A    between atoms: C_30  and  C_40
    8  A    between atoms: C_32  and  C_37
    9  A    between atoms: C_33  and  C_45
   10  A    between atoms: O_34  and  C_36
   11  A    between atoms: O_34  and  C_39
                            x       y       z     vdW  Elec       q    Type
                         _______ _______ _______ _____ _____    ______ ____

>  <TORSDO>
F 11

$$$$
=
 OpenBabel11042416433D

 48 52  0  0  1  0  0  0  0  0999 V2000
  190.4270  173.9900  142.2580 C   0  0  1  0  0  0  0  0  0  0  0  0
  190.8100  172.5060  142.5260 C   0  0  0  0  0  2  0  0  0  0  0  0
  192.2900  172.1220  142.2290 C   0  0  1  0  0  3  0  0  0  0  0  0
  190.1940  175.9790  143.5860 N   0  0  0  0  0  0  0  0  0  0  0  0
  190.7040  174.3810  140.7890 C   0  0  0  0  0  2  0  0  0  0  0  0
  195.4570  172.1240  142.4050 C   0  0  2  0  0  3  0  0  0  0  0  0
  192.8040  172.1890  140.7590 C   0  0  1  0  0  3  0  0  0  0  0  0
  194.5100  172.9650  143.2090 C   0  0  0  0  0  3  0  0  0  0  0  0
  191.7050  177.8880  142.8230 C   0  0  0  0  0  1  0  0  0  0  0  0
  188.9470  174.2390  142.5640 C   0  0  0  0  0  2  0  0  0  0  0  0
  195.2380  172.2050  141.0080 O   0  0  0  0  0  0  0  0  0  0  0  0
  194.1210  171.4180  140.6870 C   0  0  0  0  0  2  0  0  0  0  0  0
  191.1480  174.9480  143.1980 C   0  0  0  0  0  2  0  0  0  0  0  0
  190.1740  173.4250  139.6680 C   0  0  1  0  0  3  0  0  0  0  0  0
  188.8580  175.6670  143.1240 C   0  0  1  0  0  3  0  0  0  0  0  0
  189.9690  178.1470  144.4280 O   0  0  0  0  0  0  0  0  0  0  0  0
  191.9020  171.6980  139.5670 C   0  0  2  0  0  3  0  0  0  0  0  0
  190.4840  171.9860  139.7640 N   0  0  0  0  0  2  0  0  0  0  0  0
  193.1720  172.9350  143.1400 C   0  0  0  0  0  3  0  0  0  0  0  0
  190.6090  177.3540  143.7000 C   0  0  0  0  0  0  0  0  0  0  0  0
  188.5520  173.9560  137.5150 C   0  0  2  0  0  3  0  0  0  0  0  0
  188.8110  173.8130  139.0080 C   0  0  1  0  0  3  0  0  0  0  0  0
  188.3540  172.7380  138.1810 O   0  0  0  0  0  0  0  0  0  0  0  0
  189.9170  173.7880  136.2980 P   0  0  0  0  0  0  0  0  0  0  0  0
  191.0050  174.8190  136.4630 O   0  0  0  0  0  1  0  0  0  0  0  0
  189.2110  173.9750  134.7810 O   0  0  0  0  0  0  0  0  0  0  0  0
  190.6790  172.2610  136.4240 O   0  0  0  0  0  1  0  0  0  0  0  0
  186.8380  176.6860  144.1040 C   0  0  0  0  0  3  0  0  0  0  0  0
  187.8330  175.8020  144.2210 C   0  0  0  0  0  3  0  0  0  0  0  0
  185.7980  176.8130  145.1620 C   0  0  0  0  0  2  0  0  0  0  0  0
  183.8400  178.5660  146.0700 O   0  0  0  0  0  1  0  0  0  0  0  0
  183.9840  178.3080  143.4610 O   0  0  0  0  0  0  0  0  0  0  0  0
  184.8310  178.3760  144.9350 P   0  0  0  0  0  0  0  0  0  0  0  0
  185.9040  179.6960  144.9050 O   0  0  0  0  0  1  0  0  0  0  0  0
  195.6640  170.7290  143.0030 C   0  0  0  0  0  2  0  0  0  0  0  0
  197.0790  170.6140  143.5220 C   0  0  0  0  0  2  0  0  0  0  0  0
  197.3990  169.1780  143.8770 C   0  0  0  0  0  2  0  0  0  0  0  0
  197.6110  168.9310  146.3290 C   0  0  0  0  0  3  0  0  0  0  0  0
  194.8010  169.1610  147.4080 C   0  0  0  0  0  2  0  0  0  0  0  0
  194.4090  168.9060  145.9440 C   0  0  0  0  0  2  0  0  0  0  0  0
  196.7800  168.8390  145.1520 N   0  0  0  0  0  0  0  0  0  0  0  0
  195.4740  168.1660  145.1070 C   0  0  0  0  0  2  0  0  0  0  0  0
  195.8200  168.1660  147.9360 C   0  0  0  0  0  2  0  0  0  0  0  0
  197.2020  168.6480  147.5810 C   0  0  0  0  0  3  0  0  0  0  0  0
  192.0600  170.3160  139.2660 O   0  0  0  0  0  0  0  0  0  0  0  0
  191.3910  168.6660  140.9640 C   0  0  0  0  0  1  0  0  0  0  0  0
  190.3000  168.8680  138.8290 O   0  0  0  0  0  1  0  0  0  0  0  0
  190.9860  169.5750  139.8160 C   0  0  2  0  0  3  0  0  0  0  0  0
  1  5  1  6  0  0  0
  1  2  1  0  0  0  0
  1 10  1  0  0  0  0
  1 13  1  0  0  0  0
  3  2  1  6  0  0  0
  3 19  1  0  0  0  0
  4 20  1  0  0  0  0
  6 35  1  1  0  0  0
  6  8  1  0  0  0  0
  7 12  1  1  0  0  0
  7  3  1  0  0  0  0
  9 20  1  0  0  0  0
 10 15  1  0  0  0  0
 11  6  1  0  0  0  0
 12 11  1  0  0  0  0
 13  4  1  0  0  0  0
 14 18  1  0  0  0  0
 14  5  1  1  0  0  0
 15  4  1  0  0  0  0
 15 29  1  1  0  0  0
 17 45  1  1  0  0  0
 17 18  1  0  0  0  0
 17  7  1  0  0  0  0
 19  8  2  0  0  0  0
 20 16  2  0  0  0  0
 21 24  1  6  0  0  0
 21 23  1  0  0  0  0
 21 22  1  0  0  0  0
 22 23  1  6  0  0  0
 22 14  1  0  0  0  0
 24 27  1  0  0  0  0
 24 25  1  0  0  0  0
 26 24  2  0  0  0  0
 28 29  2  0  0  0  0
 28 30  1  0  0  0  0
 32 33  2  0  0  0  0
 33 30  1  0  0  0  0
 33 31  1  0  0  0  0
 34 33  1  0  0  0  0
 35 36  1  0  0  0  0
 36 37  1  0  0  0  0
 37 41  1  0  0  0  0
 38 44  2  0  0  0  0
 39 43  1  0  0  0  0
 40 39  1  0  0  0  0
 41 38  1  0  0  0  0
 42 41  1  0  0  0  0
 42 40  1  0  0  0  0
 44 43  1  0  0  0  0
 45 48  1  0  0  0  0
 47 48  1  0  0  0  0
 48 46  1  1  0  0  0
M  END
>  <MODEL>
5

>  <REMARK>
 VINA RESULT:      -6.3      4.006      9.736
  Name = 
  11 active torsions:
  status: ('A' for Active; 'I' for Inactive)
    1  A    between atoms: C_1  and  C_21
    2  A    between atoms: C_7  and  C_15
    3  A    between atoms: C_7  and  C_30
    4  A    between atoms: P_12  and  C_14
    5  A    between atoms: C_21  and  P_22
    6  A    between atoms: N_25  and  C_40
    7  A    between atoms: C_30  and  C_40
    8  A    between atoms: C_32  and  C_37
    9  A    between atoms: C_33  and  C_45
   10  A    between atoms: O_34  and  C_36
   11  A    between atoms: O_34  and  C_39
                            x       y       z     vdW  Elec       q    Type
                         _______ _______ _______ _____ _____    ______ ____

>  <TORSDO>
F 11

$$$$
=
 OpenBabel11042416433D

 48 52  0  0  1  0  0  0  0  0999 V2000
  189.9170  173.5680  141.9070 C   0  0  1  0  0  0  0  0  0  0  0  0
  189.8080  172.0220  142.0470 C   0  0  0  0  0  2  0  0  0  0  0  0
  191.0980  171.2150  141.7110 C   0  0  1  0  0  3  0  0  0  0  0  0
  190.2940  175.4130  143.3990 N   0  0  0  0  0  0  0  0  0  0  0  0
  190.3350  173.9690  140.4750 C   0  0  0  0  0  2  0  0  0  0  0  0
  194.1000  170.2050  141.8700 C   0  0  2  0  0  3  0  0  0  0  0  0
  191.6380  171.2370  140.2500 C   0  0  1  0  0  3  0  0  0  0  0  0
  193.4490  171.2320  142.7460 C   0  0  0  0  0  3  0  0  0  0  0  0
  192.3460  176.8030  142.7910 C   0  0  0  0  0  1  0  0  0  0  0  0
  188.5850  174.2440  142.2410 C   0  0  0  0  0  2  0  0  0  0  0  0
  193.9480  170.4640  140.4850 O   0  0  0  0  0  0  0  0  0  0  0  0
  192.6470  170.0990  140.1050 C   0  0  0  0  0  2  0  0  0  0  0  0
  190.8840  174.1690  142.9200 C   0  0  0  0  0  2  0  0  0  0  0  0
  189.5550  173.3240  139.2810 C   0  0  1  0  0  3  0  0  0  0  0  0
  188.9380  175.5770  142.9190 C   0  0  1  0  0  3  0  0  0  0  0  0
  190.7450  177.4650  144.4210 O   0  0  0  0  0  0  0  0  0  0  0  0
  190.6530  171.1540  139.0250 C   0  0  2  0  0  3  0  0  0  0  0  0
  189.3950  171.8580  139.2540 N   0  0  0  0  0  2  0  0  0  0  0  0
  192.1710  171.6320  142.6830 C   0  0  0  0  0  3  0  0  0  0  0  0
  191.1180  176.5730  143.6260 C   0  0  0  0  0  0  0  0  0  0  0  0
  188.3250  174.6690  137.2260 C   0  0  2  0  0  3  0  0  0  0  0  0
  188.3980  174.1740  138.6620 C   0  0  1  0  0  3  0  0  0  0  0  0
  187.7710  173.4390  137.6070 O   0  0  0  0  0  0  0  0  0  0  0  0
  189.7150  174.3950  136.0580 P   0  0  0  0  0  0  0  0  0  0  0  0
  189.8020  175.4320  134.9670 O   0  0  0  0  0  0  0  0  0  0  0  0
  189.4440  172.8870  135.3590 O   0  0  0  0  0  1  0  0  0  0  0  0
  191.2220  174.4210  136.8680 O   0  0  0  0  0  1  0  0  0  0  0  0
  187.2320  177.0390  143.9360 C   0  0  0  0  0  3  0  0  0  0  0  0
  187.9850  175.9380  144.0300 C   0  0  0  0  0  3  0  0  0  0  0  0
  186.2620  177.3960  145.0070 C   0  0  0  0  0  2  0  0  0  0  0  0
  184.1950  177.9500  143.2310 O   0  0  0  0  0  0  0  0  0  0  0  0
  185.7650  179.9810  143.7840 O   0  0  0  0  0  1  0  0  0  0  0  0
  184.9910  178.5790  144.3610 P   0  0  0  0  0  0  0  0  0  0  0  0
  183.9310  179.0020  145.6230 O   0  0  0  0  0  1  0  0  0  0  0  0
  193.8450  168.7720  142.3470 C   0  0  0  0  0  2  0  0  0  0  0  0
  195.1230  168.1990  142.9150 C   0  0  0  0  0  2  0  0  0  0  0  0
  195.0820  168.2020  144.4270 C   0  0  0  0  0  2  0  0  0  0  0  0
  196.9500  169.8220  144.4630 C   0  0  0  0  0  3  0  0  0  0  0  0
  195.7280  172.4440  145.3270 C   0  0  0  0  0  2  0  0  0  0  0  0
  194.5650  171.5470  145.7810 C   0  0  0  0  0  2  0  0  0  0  0  0
  195.6350  169.4540  144.9300 N   0  0  0  0  0  0  0  0  0  0  0  0
  194.9520  170.0810  146.0690 C   0  0  0  0  0  2  0  0  0  0  0  0
  197.0840  171.9540  145.8090 C   0  0  0  0  0  2  0  0  0  0  0  0
  197.6110  170.9380  144.8310 C   0  0  0  0  0  3  0  0  0  0  0  0
  190.3750  169.8220  138.6080 O   0  0  0  0  0  0  0  0  0  0  0  0
  191.3540  168.3320  136.9120 C   0  0  0  0  0  1  0  0  0  0  0  0
  191.4770  170.7310  136.7790 O   0  0  0  0  0  1  0  0  0  0  0  0
  190.7030  169.6660  137.2390 C   0  0  2  0  0  3  0  0  0  0  0  0
  1  5  1  6  0  0  0
  1  2  1  0  0  0  0
  1 10  1  0  0  0  0
  1 13  1  0  0  0  0
  3  2  1  6  0  0  0
  3 19  1  0  0  0  0
  4 20  1  0  0  0  0
  6 35  1  6  0  0  0
  6  8  1  0  0  0  0
  7 12  1  1  0  0  0
  7  3  1  0  0  0  0
  9 20  1  0  0  0  0
 10 15  1  0  0  0  0
 11  6  1  0  0  0  0
 12 11  1  0  0  0  0
 13  4  1  0  0  0  0
 14  5  1  1  0  0  0
 15  4  1  0  0  0  0
 15 29  1  1  0  0  0
 17 45  1  1  0  0  0
 17 18  1  0  0  0  0
 17  7  1  0  0  0  0
 18 14  1  0  0  0  0
 19  8  2  0  0  0  0
 20 16  2  0  0  0  0
 21 24  1  6  0  0  0
 21 23  1  0  0  0  0
 21 22  1  0  0  0  0
 22 23  1  6  0  0  0
 22 14  1  0  0  0  0
 24 27  1  0  0  0  0
 25 24  2  0  0  0  0
 26 24  1  0  0  0  0
 28 29  2  0  0  0  0
 28 30  1  0  0  0  0
 31 33  2  0  0  0  0
 32 33  1  0  0  0  0
 33 30  1  0  0  0  0
 33 34  1  0  0  0  0
 35 36  1  0  0  0  0
 36 37  1  0  0  0  0
 37 41  1  0  0  0  0
 38 44  2  0  0  0  0
 38 41  1  0  0  0  0
 39 40  1  0  0  0  0
 39 43  1  0  0  0  0
 40 42  1  0  0  0  0
 41 42  1  0  0  0  0
 44 43  1  0  0  0  0
 47 48  1  0  0  0  0
 48 46  1  1  0  0  0
 48 45  1  0  0  0  0
M  END
>  <MODEL>
6

>  <REMARK>
 VINA RESULT:      -6.2      4.132      9.493
  Name = 
  11 active torsions:
  status: ('A' for Active; 'I' for Inactive)
    1  A    between atoms: C_1  and  C_21
    2  A    between atoms: C_7  and  C_15
    3  A    between atoms: C_7  and  C_30
    4  A    between atoms: P_12  and  C_14
    5  A    between atoms: C_21  and  P_22
    6  A    between atoms: N_25  and  C_40
    7  A    between atoms: C_30  and  C_40
    8  A    between atoms: C_32  and  C_37
    9  A    between atoms: C_33  and  C_45
   10  A    between atoms: O_34  and  C_36
   11  A    between atoms: O_34  and  C_39
                            x       y       z     vdW  Elec       q    Type
                         _______ _______ _______ _____ _____    ______ ____

>  <TORSDO>
F 11

$$$$
=
 OpenBabel11042416433D

 48 52  0  0  1  0  0  0  0  0999 V2000
  190.9500  173.7420  141.5560 C   0  0  1  0  0  0  0  0  0  0  0  0
  191.8190  174.9470  142.0200 C   0  0  0  0  0  2  0  0  0  0  0  0
  192.6420  174.7290  143.3250 C   0  0  1  0  0  3  0  0  0  0  0  0
  191.1810  171.9590  139.9630 N   0  0  0  0  0  0  0  0  0  0  0  0
  189.9450  173.3250  142.6540 C   0  0  0  0  0  2  0  0  0  0  0  0
  194.7460  173.4780  145.3410 C   0  0  2  0  0  3  0  0  0  0  0  0
  191.8790  174.5170  144.6670 C   0  0  1  0  0  3  0  0  0  0  0  0
  194.4900  173.0490  143.9280 C   0  0  0  0  0  3  0  0  0  0  0  0
  191.0120  169.6380  141.0080 C   0  0  0  0  0  1  0  0  0  0  0  0
  190.1740  174.0830  140.2810 C   0  0  0  0  0  2  0  0  0  0  0  0
  193.5750  173.5380  146.1360 O   0  0  0  0  0  0  0  0  0  0  0  0
  192.8760  174.7110  145.8090 C   0  0  0  0  0  2  0  0  0  0  0  0
  191.7990  172.5460  141.1450 C   0  0  0  0  0  2  0  0  0  0  0  0
  189.0840  174.4500  143.3190 C   0  0  1  0  0  3  0  0  0  0  0  0
  190.1040  172.7860  139.4610 C   0  0  1  0  0  3  0  0  0  0  0  0
  191.0120  170.0260  138.6620 O   0  0  0  0  0  0  0  0  0  0  0  0
  190.5970  175.3630  145.0090 C   0  0  2  0  0  3  0  0  0  0  0  0
  189.7710  175.6480  143.8400 N   0  0  0  0  0  2  0  0  0  0  0  0
  193.6130  173.6040  143.0780 C   0  0  0  0  0  3  0  0  0  0  0  0
  191.1180  170.5280  139.8030 C   0  0  0  0  0  0  0  0  0  0  0  0
  186.9710  175.9890  142.4760 C   0  0  2  0  0  3  0  0  0  0  0  0
  187.6410  174.6520  142.7530 C   0  0  1  0  0  3  0  0  0  0  0  0
  187.7080  175.3190  141.4890 O   0  0  0  0  0  0  0  0  0  0  0  0
  187.7970  177.5700  142.9110 P   0  0  0  0  0  0  0  0  0  0  0  0
  188.0450  177.7360  144.3890 O   0  0  0  0  0  1  0  0  0  0  0  0
  186.7650  178.7930  142.3880 O   0  0  0  0  0  1  0  0  0  0  0  0
  189.3240  177.7030  142.1490 O   0  0  0  0  0  0  0  0  0  0  0  0
  191.1900  173.8080  137.4970 C   0  0  0  0  0  3  0  0  0  0  0  0
  190.2180  173.0260  137.9770 C   0  0  0  0  0  3  0  0  0  0  0  0
  191.3390  174.0330  136.0330 C   0  0  0  0  0  2  0  0  0  0  0  0
  193.2520  175.8190  136.9740 O   0  0  0  0  0  1  0  0  0  0  0  0
  191.6160  176.7870  135.1620 O   0  0  0  0  0  1  0  0  0  0  0  0
  192.4990  175.4410  135.7090 P   0  0  0  0  0  0  0  0  0  0  0  0
  193.6170  174.9780  134.5130 O   0  0  0  0  0  0  0  0  0  0  0  0
  195.7180  174.6580  145.4350 C   0  0  0  0  0  2  0  0  0  0  0  0
  196.8720  174.4330  144.4840 C   0  0  0  0  0  2  0  0  0  0  0  0
  197.1720  175.6930  143.7030 C   0  0  0  0  0  2  0  0  0  0  0  0
  197.2260  174.2590  141.6900 C   0  0  0  0  0  3  0  0  0  0  0  0
  194.9180  175.1830  139.9790 C   0  0  0  0  0  2  0  0  0  0  0  0
  194.9680  176.4180  140.8920 C   0  0  0  0  0  2  0  0  0  0  0  0
  196.8150  175.4990  142.3030 N   0  0  0  0  0  0  0  0  0  0  0  0
  196.3340  176.6730  141.5630 C   0  0  0  0  0  2  0  0  0  0  0  0
  196.2760  174.8020  139.4140 C   0  0  0  0  0  2  0  0  0  0  0  0
  196.9860  173.9210  140.4070 C   0  0  0  0  0  3  0  0  0  0  0  0
  190.8840  176.5820  145.6860 O   0  0  0  0  0  0  0  0  0  0  0  0
  191.1870  176.9380  148.1020 C   0  0  0  0  0  1  0  0  0  0  0  0
  189.5810  175.3930  147.1930 O   0  0  0  0  0  1  0  0  0  0  0  0
  190.2540  176.5910  146.9540 C   0  0  2  0  0  3  0  0  0  0  0  0
  1 10  1  6  0  0  0
  1  2  1  0  0  0  0
  1  5  1  0  0  0  0
  3  2  1  6  0  0  0
  3  7  1  0  0  0  0
  4 13  1  0  0  0  0
  6 35  1  6  0  0  0
  6 11  1  0  0  0  0
  7 17  1  0  0  0  0
  7 12  1  1  0  0  0
  8  6  1  0  0  0  0
 12 11  1  0  0  0  0
 13  1  1  0  0  0  0
 14  5  1  6  0  0  0
 14 18  1  0  0  0  0
 15 29  1  6  0  0  0
 15  4  1  0  0  0  0
 15 10  1  0  0  0  0
 16 20  2  0  0  0  0
 17 45  1  6  0  0  0
 18 17  1  0  0  0  0
 19  3  1  0  0  0  0
 19  8  2  0  0  0  0
 20  4  1  0  0  0  0
 20  9  1  0  0  0  0
 21 22  1  0  0  0  0
 21 24  1  1  0  0  0
 22 23  1  6  0  0  0
 22 14  1  0  0  0  0
 23 21  1  0  0  0  0
 24 25  1  0  0  0  0
 26 24  1  0  0  0  0
 27 24  2  0  0  0  0
 28 29  2  0  0  0  0
 30 28  1  0  0  0  0
 32 33  1  0  0  0  0
 33 30  1  0  0  0  0
 33 31  1  0  0  0  0
 34 33  2  0  0  0  0
 36 35  1  0  0  0  0
 37 36  1  0  0  0  0
 38 41  1  0  0  0  0
 39 40  1  0  0  0  0
 40 42  1  0  0  0  0
 41 37  1  0  0  0  0
 42 41  1  0  0  0  0
 43 39  1  0  0  0  0
 43 44  1  0  0  0  0
 44 38  2  0  0  0  0
 45 48  1  0  0  0  0
 48 47  1  0  0  0  0
 48 46  1  1  0  0  0
M  END
>  <MODEL>
7

>  <REMARK>
 VINA RESULT:      -5.9      3.297      8.285
  Name = 
  11 active torsions:
  status: ('A' for Active; 'I' for Inactive)
    1  A    between atoms: C_1  and  C_21
    2  A    between atoms: C_7  and  C_15
    3  A    between atoms: C_7  and  C_30
    4  A    between atoms: P_12  and  C_14
    5  A    between atoms: C_21  and  P_22
    6  A    between atoms: N_25  and  C_40
    7  A    between atoms: C_30  and  C_40
    8  A    between atoms: C_32  and  C_37
    9  A    between atoms: C_33  and  C_45
   10  A    between atoms: O_34  and  C_36
   11  A    between atoms: O_34  and  C_39
                            x       y       z     vdW  Elec       q    Type
                         _______ _______ _______ _____ _____    ______ ____

>  <TORSDO>
F 11

$$$$
=
 OpenBabel11042416433D

 48 52  0  0  1  0  0  0  0  0999 V2000
  193.0460  173.0560  141.9510 C   0  0  1  0  0  0  0  0  0  0  0  0
  193.4320  172.2650  140.6680 C   0  0  0  0  0  2  0  0  0  0  0  0
  193.7350  173.1250  139.4040 C   0  0  1  0  0  3  0  0  0  0  0  0
  194.1910  173.8060  143.9250 N   0  0  0  0  0  0  0  0  0  0  0  0
  191.8050  173.9440  141.7060 C   0  0  0  0  0  2  0  0  0  0  0  0
  195.1350  175.2640  137.5280 C   0  0  2  0  0  3  0  0  0  0  0  0
  192.5830  173.9630  138.7730 C   0  0  1  0  0  3  0  0  0  0  0  0
  195.5100  174.9220  138.9380 C   0  0  0  0  0  3  0  0  0  0  0  0
  194.0920  176.3350  144.2530 C   0  0  0  0  0  1  0  0  0  0  0  0
  192.7510  172.1040  143.1140 C   0  0  0  0  0  2  0  0  0  0  0  0
  193.7630  175.5830  137.3690 O   0  0  0  0  0  0  0  0  0  0  0  0
  193.0260  174.3890  137.3730 C   0  0  0  0  0  2  0  0  0  0  0  0
  194.1990  173.9040  142.4710 C   0  0  0  0  0  2  0  0  0  0  0  0
  190.5600  173.2830  141.0260 C   0  0  1  0  0  3  0  0  0  0  0  0
  193.2410  172.8150  144.3850 C   0  0  1  0  0  3  0  0  0  0  0  0
  194.8920  174.8250  145.9080 O   0  0  0  0  0  0  0  0  0  0  0  0
  191.1300  173.3720  138.6490 C   0  0  2  0  0  3  0  0  0  0  0  0
  190.7600  172.5220  139.7770 N   0  0  0  0  0  2  0  0  0  0  0  0
  194.9240  173.9970  139.7120 C   0  0  0  0  0  3  0  0  0  0  0  0
  194.4670  174.9640  144.7380 C   0  0  0  0  0  0  0  0  0  0  0  0
  188.2160  173.6070  142.4220 C   0  0  2  0  0  3  0  0  0  0  0  0
  189.4220  172.7920  141.9780 C   0  0  1  0  0  3  0  0  0  0  0  0
  188.1730  172.7950  141.2790 O   0  0  0  0  0  0  0  0  0  0  0  0
  188.0390  175.3710  141.9430 P   0  0  0  0  0  0  0  0  0  0  0  0
  188.0340  175.5960  140.4520 O   0  0  0  0  0  0  0  0  0  0  0  0
  189.3620  176.1690  142.6130 O   0  0  0  0  0  1  0  0  0  0  0  0
  186.5740  176.0310  142.5340 O   0  0  0  0  0  1  0  0  0  0  0  0
  194.1860  170.6270  145.0170 C   0  0  0  0  0  3  0  0  0  0  0  0
  193.8510  171.8670  145.3860 C   0  0  0  0  0  3  0  0  0  0  0  0
  194.8190  169.6860  145.9820 C   0  0  0  0  0  2  0  0  0  0  0  0
  197.3290  168.9900  146.9550 O   0  0  0  0  0  1  0  0  0  0  0  0
  197.2040  171.3240  145.7600 O   0  0  0  0  0  1  0  0  0  0  0  0
  196.6620  169.7120  145.7970 P   0  0  0  0  0  0  0  0  0  0  0  0
  197.0870  168.9430  144.3400 O   0  0  0  0  0  0  0  0  0  0  0  0
  195.7560  174.3120  136.5020 C   0  0  0  0  0  2  0  0  0  0  0  0
  197.2590  174.4770  136.5130 C   0  0  0  0  0  2  0  0  0  0  0  0
  197.9380  173.1960  136.0780 C   0  0  0  0  0  2  0  0  0  0  0  0
  197.9320  172.3160  138.3890 C   0  0  0  0  0  3  0  0  0  0  0  0
  195.7180  170.2660  138.4660 C   0  0  0  0  0  2  0  0  0  0  0  0
  195.8320  170.3470  136.9360 C   0  0  0  0  0  2  0  0  0  0  0  0
  197.5920  172.1210  137.0000 N   0  0  0  0  0  0  0  0  0  0  0  0
  197.2010  170.8320  136.4130 C   0  0  0  0  0  2  0  0  0  0  0  0
  197.0570  170.0760  139.1570 C   0  0  0  0  0  2  0  0  0  0  0  0
  197.6930  171.4240  139.3700 C   0  0  0  0  0  3  0  0  0  0  0  0
  190.9050  172.6630  137.4360 O   0  0  0  0  0  0  0  0  0  0  0  0
  192.2060  170.5990  137.1150 C   0  0  0  0  0  1  0  0  0  0  0  0
  189.8030  170.6310  137.2300 O   0  0  0  0  0  1  0  0  0  0  0  0
  190.9620  171.2680  137.6740 C   0  0  2  0  0  3  0  0  0  0  0  0
  1  2  1  6  0  0  0
  1 13  1  0  0  0  0
  1 10  1  0  0  0  0
  3 19  1  1  0  0  0
  3  2  1  0  0  0  0
  4 15  1  0  0  0  0
  4 20  1  0  0  0  0
  5  1  1  0  0  0  0
  6 35  1  6  0  0  0
  6  8  1  0  0  0  0
  7 12  1  6  0  0  0
  7  3  1  0  0  0  0
  8 19  2  0  0  0  0
  9 20  1  0  0  0  0
 10 15  1  0  0  0  0
 11 12  1  0  0  0  0
 11  6  1  0  0  0  0
 13  4  1  0  0  0  0
 14  5  1  1  0  0  0
 14 22  1  0  0  0  0
 15 29  1  1  0  0  0
 17 45  1  6  0  0  0
 17  7  1  0  0  0  0
 17 18  1  0  0  0  0
 18 14  1  0  0  0  0
 20 16  2  0  0  0  0
 21 24  1  6  0  0  0
 22 23  1  6  0  0  0
 22 21  1  0  0  0  0
 23 21  1  0  0  0  0
 24 27  1  0  0  0  0
 24 26  1  0  0  0  0
 25 24  2  0  0  0  0
 28 29  2  0  0  0  0
 28 30  1  0  0  0  0
 32 33  1  0  0  0  0
 33 30  1  0  0  0  0
 33 31  1  0  0  0  0
 34 33  2  0  0  0  0
 35 36  1  0  0  0  0
 37 36  1  0  0  0  0
 37 41  1  0  0  0  0
 38 44  2  0  0  0  0
 39 43  1  0  0  0  0
 40 39  1  0  0  0  0
 41 38  1  0  0  0  0
 42 40  1  0  0  0  0
 42 41  1  0  0  0  0
 43 44  1  0  0  0  0
 45 48  1  0  0  0  0
 47 48  1  0  0  0  0
 48 46  1  6  0  0  0
M  END
>  <MODEL>
8

>  <REMARK>
 VINA RESULT:      -5.9      3.676      8.963
  Name = 
  11 active torsions:
  status: ('A' for Active; 'I' for Inactive)
    1  A    between atoms: C_1  and  C_21
    2  A    between atoms: C_7  and  C_15
    3  A    between atoms: C_7  and  C_30
    4  A    between atoms: P_12  and  C_14
    5  A    between atoms: C_21  and  P_22
    6  A    between atoms: N_25  and  C_40
    7  A    between atoms: C_30  and  C_40
    8  A    between atoms: C_32  and  C_37
    9  A    between atoms: C_33  and  C_45
   10  A    between atoms: O_34  and  C_36
   11  A    between atoms: O_34  and  C_39
                            x       y       z     vdW  Elec       q    Type
                         _______ _______ _______ _____ _____    ______ ____

>  <TORSDO>
F 11

$$$$
=
 OpenBabel11042416433D

 48 52  0  0  1  0  0  0  0  0999 V2000
  193.4020  174.5610  142.4240 C   0  0  1  0  0  0  0  0  0  0  0  0
  192.0220  175.2470  142.2120 C   0  0  0  0  0  2  0  0  0  0  0  0
  191.1270  175.3800  143.4810 C   0  0  1  0  0  3  0  0  0  0  0  0
  195.6630  175.3010  142.7580 N   0  0  0  0  0  0  0  0  0  0  0  0
  193.2340  173.1390  143.0040 C   0  0  0  0  0  2  0  0  0  0  0  0
  190.1980  176.2390  146.3890 C   0  0  2  0  0  3  0  0  0  0  0  0
  190.5940  174.0850  144.1630 C   0  0  1  0  0  3  0  0  0  0  0  0
  191.4880  176.5960  145.7150 C   0  0  0  0  0  3  0  0  0  0  0  0
  196.6930  174.4600  144.9360 C   0  0  0  0  0  1  0  0  0  0  0  0
  194.1770  174.4700  141.1070 C   0  0  0  0  0  2  0  0  0  0  0  0
  189.9250  174.8490  146.3900 O   0  0  0  0  0  0  0  0  0  0  0  0
  189.4660  174.4860  145.1140 C   0  0  0  0  0  2  0  0  0  0  0  0
  194.3210  175.3840  143.3190 C   0  0  0  0  0  2  0  0  0  0  0  0
  192.2040  172.1860  142.3100 C   0  0  1  0  0  3  0  0  0  0  0  0
  195.6600  174.6440  141.4670 C   0  0  1  0  0  3  0  0  0  0  0  0
  197.9410  175.5390  143.2230 O   0  0  0  0  0  0  0  0  0  0  0  0
  190.0770  172.8740  143.3010 C   0  0  2  0  0  3  0  0  0  0  0  0
  190.8360  172.6830  142.0690 N   0  0  0  0  0  2  0  0  0  0  0  0
  191.8570  176.2450  144.4750 C   0  0  0  0  0  3  0  0  0  0  0  0
  196.8110  175.1760  143.6210 C   0  0  0  0  0  0  0  0  0  0  0  0
  192.5210  171.1840  139.7720 C   0  0  2  0  0  3  0  0  0  0  0  0
  192.7820  171.1710  141.2710 C   0  0  1  0  0  3  0  0  0  0  0  0
  193.6130  171.8620  140.3330 O   0  0  0  0  0  0  0  0  0  0  0  0
  191.3530  172.3880  139.0250 P   0  0  0  0  0  0  0  0  0  0  0  0
  191.3790  173.7450  139.6830 O   0  0  0  0  0  1  0  0  0  0  0  0
  189.8180  171.7200  139.2070 O   0  0  0  0  0  1  0  0  0  0  0  0
  191.7040  172.6500  137.3700 O   0  0  0  0  0  0  0  0  0  0  0  0
  197.1460  174.7890  139.5040 C   0  0  0  0  0  3  0  0  0  0  0  0
  196.4250  175.4280  140.4310 C   0  0  0  0  0  3  0  0  0  0  0  0
  197.8830  175.5430  138.4540 C   0  0  0  0  0  2  0  0  0  0  0  0
  197.2310  176.4890  135.9210 O   0  0  0  0  0  0  0  0  0  0  0  0
  195.4810  174.8440  136.9830 O   0  0  0  0  0  1  0  0  0  0  0  0
  197.1230  175.2480  136.7910 P   0  0  0  0  0  0  0  0  0  0  0  0
  197.9330  173.9600  136.0290 O   0  0  0  0  0  1  0  0  0  0  0  0
  189.0500  177.1780  146.0060 C   0  0  0  0  0  2  0  0  0  0  0  0
  187.8560  176.8950  146.8890 C   0  0  0  0  0  2  0  0  0  0  0  0
  186.9310  178.0920  146.9340 C   0  0  0  0  0  2  0  0  0  0  0  0
  185.6210  179.3930  145.2880 C   0  0  0  0  0  3  0  0  0  0  0  0
  185.4700  177.6570  142.8230 C   0  0  0  0  0  2  0  0  0  0  0  0
  185.9020  176.5480  143.7960 C   0  0  0  0  0  2  0  0  0  0  0  0
  186.0920  178.1060  145.7420 N   0  0  0  0  0  0  0  0  0  0  0  0
  185.5630  176.8160  145.2770 C   0  0  0  0  0  2  0  0  0  0  0  0
  184.3020  178.4820  143.3370 C   0  0  0  0  0  2  0  0  0  0  0  0
  184.8330  179.5860  144.2120 C   0  0  0  0  0  3  0  0  0  0  0  0
  188.6910  172.9480  142.9890 O   0  0  0  0  0  0  0  0  0  0  0  0
  188.2540  174.8930  141.5460 C   0  0  0  0  0  1  0  0  0  0  0  0
  187.5380  172.6630  140.9950 O   0  0  0  0  0  1  0  0  0  0  0  0
  188.5180  173.4010  141.6580 C   0  0  2  0  0  3  0  0  0  0  0  0
  1 10  1  6  0  0  0
  1  5  1  0  0  0  0
  1 13  1  0  0  0  0
  2  1  1  0  0  0  0
  3  2  1  6  0  0  0
  3  7  1  0  0  0  0
  3 19  1  0  0  0  0
  4 13  1  0  0  0  0
  4 20  1  0  0  0  0
  6 35  1  6  0  0  0
  6 11  1  0  0  0  0
  7 12  1  1  0  0  0
  8  6  1  0  0  0  0
 10 15  1  0  0  0  0
 12 11  1  0  0  0  0
 14  5  1  6  0  0  0
 15 29  1  6  0  0  0
 15  4  1  0  0  0  0
 16 20  2  0  0  0  0
 17 45  1  6  0  0  0
 17  7  1  0  0  0  0
 18 14  1  0  0  0  0
 18 17  1  0  0  0  0
 19  8  2  0  0  0  0
 20  9  1  0  0  0  0
 21 24  1  1  0  0  0
 21 23  1  0  0  0  0
 21 22  1  0  0  0  0
 22 23  1  6  0  0  0
 22 14  1  0  0  0  0
 24 26  1  0  0  0  0
 24 25  1  0  0  0  0
 27 24  2  0  0  0  0
 28 29  2  0  0  0  0
 30 28  1  0  0  0  0
 31 33  2  0  0  0  0
 33 32  1  0  0  0  0
 33 30  1  0  0  0  0
 34 33  1  0  0  0  0
 35 36  1  0  0  0  0
 36 37  1  0  0  0  0
 38 41  1  0  0  0  0
 39 43  1  0  0  0  0
 39 40  1  0  0  0  0
 40 42  1  0  0  0  0
 41 37  1  0  0  0  0
 42 41  1  0  0  0  0
 43 44  1  0  0  0  0
 44 38  2  0  0  0  0
 47 48  1  0  0  0  0
 48 46  1  1  0  0  0
 48 45  1  0  0  0  0
M  END
>  <MODEL>
9

>  <REMARK>
 VINA RESULT:      -5.8      2.544      3.660
  Name = 
  11 active torsions:
  status: ('A' for Active; 'I' for Inactive)
    1  A    between atoms: C_1  and  C_21
    2  A    between atoms: C_7  and  C_15
    3  A    between atoms: C_7  and  C_30
    4  A    between atoms: P_12  and  C_14
    5  A    between atoms: C_21  and  P_22
    6  A    between atoms: N_25  and  C_40
    7  A    between atoms: C_30  and  C_40
    8  A    between atoms: C_32  and  C_37
    9  A    between atoms: C_33  and  C_45
   10  A    between atoms: O_34  and  C_36
   11  A    between atoms: O_34  and  C_39
                            x       y       z     vdW  Elec       q    Type
                         _______ _______ _______ _____ _____    ______ ____

>  <TORSDO>
F 11

$$$$
