=
 OpenBabel11042417033D

 44 47  0  0  1  0  0  0  0  0999 V2000
  190.0140  177.7810  147.3540 O   0  0  0  0  0  1  0  0  0  0  0  0
  190.3230  177.0270  146.2700 N   0  0  0  0  0  0  0  0  0  0  0  0
  187.4220  176.6410  145.1730 C   0  0  1  0  0  3  0  0  0  0  0  0
  192.6910  176.7360  147.0710 C   0  0  0  0  0  1  0  0  0  0  0  0
  190.8100  171.4160  142.6810 C   0  0  0  0  0  0  0  0  0  0  0  0
  186.2350  176.8080  144.2320 C   0  0  0  0  0  2  0  0  0  0  0  0
  191.5440  174.9950  145.7540 C   0  0  0  0  0  0  0  0  0  0  0  0
  190.3400  174.3770  145.1000 C   0  0  0  0  0  2  0  0  0  0  0  0
  191.5030  176.2130  146.3230 C   0  0  0  0  0  0  0  0  0  0  0  0
  188.8640  174.4190  142.0630 C   0  0  0  0  0  0  0  0  0  0  0  0
  190.1290  172.6350  143.2270 C   0  0  2  0  0  3  0  0  0  0  0  0
  190.1970  173.7650  142.1980 C   0  0  0  0  0  2  0  0  0  0  0  0
  187.5560  176.5610  142.1030 C   0  0  2  0  0  3  0  0  0  0  0  0
  187.8450  173.7120  141.8260 O   0  0  0  0  0  0  0  0  0  0  0  0
  188.3450  177.8470  145.0480 C   0  0  0  0  0  2  0  0  0  0  0  0
  190.1550  170.5700  142.0940 O   0  0  0  0  0  0  0  0  0  0  0  0
  192.2250  172.9270  144.5870 C   0  0  0  0  0  0  0  0  0  0  0  0
  189.8030  177.4270  144.9650 C   0  0  0  0  0  2  0  0  0  0  0  0
  190.7330  172.9930  144.5920 C   0  0  1  0  0  3  0  0  0  0  0  0
  193.0400  173.9960  145.7520 S   0  0  0  0  0  0  0  0  0  0  0  0
  192.3060  171.2420  142.8350 C   0  0  2  0  0  3  0  0  0  0  0  0
  188.7680  175.8060  142.2230 O   0  0  0  0  0  0  0  0  0  0  0  0
  186.4170  176.0030  142.9550 C   0  0  0  0  0  2  0  0  0  0  0  0
  192.8970  172.1630  143.7960 N   0  0  0  0  0  0  0  0  0  0  0  0
  186.9360  176.4440  146.6120 C   0  0  0  0  0  2  0  0  0  0  0  0
  185.4810  176.8720  146.7990 C   0  0  0  0  0  2  0  0  0  0  0  0
  185.4040  178.1260  147.6070 C   0  0  0  0  0  3  0  0  0  0  0  0
  185.9240  179.1600  147.2110 O   0  0  0  0  0  0  0  0  0  0  0  0
  193.0050  171.3990  141.4950 C   0  0  0  0  0  2  0  0  0  0  0  0
  194.5020  171.5360  141.6890 C   0  0  0  0  0  2  0  0  0  0  0  0
  195.5700  172.7970  139.3350 S   0  0  0  0  0  0  0  0  0  0  0  0
  194.9960  172.7790  141.0210 C   0  0  1  0  0  3  0  0  0  0  0  0
  195.4270  174.6270  139.3260 C   0  0  1  0  0  3  0  0  0  0  0  0
  194.5520  176.1610  140.9480 O   0  0  0  0  0  1  0  0  0  0  0  0
  195.4320  175.0920  140.7900 C   0  0  1  0  0  3  0  0  0  0  0  0
  194.9650  173.9540  141.6240 C   0  0  0  0  0  2  0  0  0  0  0  0
  196.4780  175.2410  138.4840 N   0  0  0  0  0  0  0  0  0  0  0  0
  197.7970  175.4180  139.0860 C   0  0  0  0  0  1  0  0  0  0  0  0
  196.3870  175.3860  137.0440 C   0  0  0  0  0  0  0  0  0  0  0  0
  195.2820  175.3170  136.4470 O   0  0  0  0  0  0  0  0  0  0  0  0
  197.6050  175.6500  136.2210 C   0  0  0  0  0  1  0  0  0  0  0  0
  187.1600  176.8370  140.6530 C   0  0  0  0  0  2  0  0  0  0  0  0
  184.9520  177.9080  140.3060 C   0  0  0  0  0  1  0  0  0  0  0  0
  186.4400  178.1630  140.4720 C   0  0  0  0  0  2  0  0  0  0  0  0
  2  9  1  0  0  0  0
  2  1  1  0  0  0  0
  3 25  1  1  0  0  0
  5 21  1  0  0  0  0
  5 11  1  0  0  0  0
  6  3  1  0  0  0  0
  7  9  2  0  0  0  0
  8  7  1  0  0  0  0
  9  4  1  0  0  0  0
 10 12  1  0  0  0  0
 10 22  1  0  0  0  0
 11 12  1  6  0  0  0
 11 19  1  0  0  0  0
 13 42  1  6  0  0  0
 13 22  1  0  0  0  0
 13 23  1  0  0  0  0
 14 10  2  0  0  0  0
 15  3  1  0  0  0  0
 16  5  2  0  0  0  0
 17 19  1  0  0  0  0
 17 20  1  0  0  0  0
 18 15  1  0  0  0  0
 18  2  1  0  0  0  0
 19  8  1  6  0  0  0
 20  7  1  0  0  0  0
 21 29  1  6  0  0  0
 21 24  1  0  0  0  0
 23  6  1  0  0  0  0
 24 17  2  0  0  0  0
 25 26  1  0  0  0  0
 26 27  1  0  0  0  0
 28 27  2  0  0  0  0
 29 30  1  0  0  0  0
 31 32  1  0  0  0  0
 32 36  1  0  0  0  0
 32 30  1  6  0  0  0
 33 37  1  6  0  0  0
 33 31  1  0  0  0  0
 33 35  1  0  0  0  0
 35 34  1  6  0  0  0
 35 36  1  0  0  0  0
 37 38  1  0  0  0  0
 39 37  1  0  0  0  0
 40 39  2  0  0  0  0
 41 39  1  0  0  0  0
 43 44  1  0  0  0  0
 44 42  1  0  0  0  0
M  END
>  <MODEL>
1

>  <REMARK>
 VINA RESULT:      -7.6      0.000      0.000
  Name = 
  9 active torsions:
  status: ('A' for Active; 'I' for Inactive)
    1  A    between atoms: N_2  and  C_27
    2  A    between atoms: C_5  and  C_11
    3  A    between atoms: C_10  and  C_17
    4  A    between atoms: C_10  and  C_24
    5  A    between atoms: C_11  and  C_13
    6  A    between atoms: C_13  and  C_14
    7  A    between atoms: C_23  and  C_38
    8  A    between atoms: C_24  and  C_39
    9  A    between atoms: C_34  and  C_38
                            x       y       z     vdW  Elec       q    Type
                         _______ _______ _______ _____ _____    ______ ____

>  <TORSDO>
F 9

$$$$
=
 OpenBabel11042417033D

 44 47  0  0  1  0  0  0  0  0999 V2000
  196.6940  175.3360  138.9890 O   0  0  0  0  0  1  0  0  0  0  0  0
  195.4710  175.3120  139.5750 N   0  0  0  0  0  0  0  0  0  0  0  0
  196.4130  174.8040  142.5120 C   0  0  1  0  0  3  0  0  0  0  0  0
  194.3290  175.2660  137.3330 C   0  0  0  0  0  1  0  0  0  0  0  0
  190.1160  172.4950  142.4010 C   0  0  0  0  0  0  0  0  0  0  0  0
  196.6800  175.1080  143.9800 C   0  0  0  0  0  2  0  0  0  0  0  0
  193.3480  174.1690  139.3120 C   0  0  0  0  0  0  0  0  0  0  0  0
  193.3810  173.6710  140.7300 C   0  0  0  0  0  2  0  0  0  0  0  0
  194.3470  174.8990  138.7850 C   0  0  0  0  0  0  0  0  0  0  0  0
  192.5320  174.8240  143.7890 C   0  0  0  0  0  0  0  0  0  0  0  0
  191.4970  173.0780  142.3680 C   0  0  2  0  0  3  0  0  0  0  0  0
  191.4460  174.5420  142.8060 C   0  0  0  0  0  2  0  0  0  0  0  0
  194.4890  176.2700  144.4080 C   0  0  2  0  0  3  0  0  0  0  0  0
  192.6490  174.0950  144.8130 O   0  0  0  0  0  0  0  0  0  0  0  0
  196.4040  176.1030  141.7160 C   0  0  0  0  0  2  0  0  0  0  0  0
  189.7310  171.9110  143.4010 O   0  0  0  0  0  0  0  0  0  0  0  0
  191.1560  173.1790  139.8780 C   0  0  0  0  0  0  0  0  0  0  0  0
  195.2370  176.1550  140.7440 C   0  0  0  0  0  2  0  0  0  0  0  0
  192.1140  172.8600  140.9790 C   0  0  1  0  0  3  0  0  0  0  0  0
  191.9000  173.7060  138.3500 S   0  0  0  0  0  0  0  0  0  0  0  0
  189.1930  172.6460  141.2110 C   0  0  2  0  0  3  0  0  0  0  0  0
  193.4150  175.8810  143.5420 O   0  0  0  0  0  0  0  0  0  0  0  0
  195.3950  175.1040  144.7950 C   0  0  0  0  0  2  0  0  0  0  0  0
  189.8770  173.0940  140.0050 N   0  0  0  0  0  0  0  0  0  0  0  0
  197.4530  173.8150  141.9760 C   0  0  0  0  0  2  0  0  0  0  0  0
  196.8430  172.4560  141.6370 C   0  0  0  0  0  2  0  0  0  0  0  0
  196.2970  171.8070  142.8660 C   0  0  0  0  0  3  0  0  0  0  0  0
  195.0920  171.6530  143.0120 O   0  0  0  0  0  0  0  0  0  0  0  0
  188.0600  173.6060  141.5300 C   0  0  0  0  0  2  0  0  0  0  0  0
  188.3770  174.9950  141.0110 C   0  0  0  0  0  2  0  0  0  0  0  0
  186.4540  176.0500  142.8720 S   0  0  0  0  0  0  0  0  0  0  0  0
  188.0300  176.0210  142.0410 C   0  0  1  0  0  3  0  0  0  0  0  0
  187.1650  177.1700  144.1400 C   0  0  1  0  0  3  0  0  0  0  0  0
  189.4040  177.9520  144.4960 O   0  0  0  0  0  1  0  0  0  0  0  0
  188.4120  177.8230  143.5250 C   0  0  1  0  0  3  0  0  0  0  0  0
  188.9040  176.9240  142.4480 C   0  0  0  0  0  2  0  0  0  0  0  0
  186.1510  178.1300  144.6340 N   0  0  0  0  0  0  0  0  0  0  0  0
  185.8520  179.2800  143.7840 C   0  0  0  0  0  1  0  0  0  0  0  0
  185.2300  177.8560  145.7190 C   0  0  0  0  0  0  0  0  0  0  0  0
  185.4430  176.9260  146.5410 O   0  0  0  0  0  0  0  0  0  0  0  0
  184.0050  178.6860  145.9140 C   0  0  0  0  0  1  0  0  0  0  0  0
  194.0270  177.1120  145.5980 C   0  0  0  0  0  2  0  0  0  0  0  0
  192.3570  176.3400  147.2580 C   0  0  0  0  0  1  0  0  0  0  0  0
  193.8220  176.2950  146.8620 C   0  0  0  0  0  2  0  0  0  0  0  0
  1  2  1  0  0  0  0
  2 18  1  0  0  0  0
  3 25  1  6  0  0  0
  3  6  1  0  0  0  0
  4  9  1  0  0  0  0
  5 16  2  0  0  0  0
  6 23  1  0  0  0  0
  7  8  1  0  0  0  0
  9  7  2  0  0  0  0
  9  2  1  0  0  0  0
 10 14  2  0  0  0  0
 11  5  1  0  0  0  0
 11 12  1  6  0  0  0
 12 10  1  0  0  0  0
 13 23  1  0  0  0  0
 13 42  1  1  0  0  0
 15  3  1  0  0  0  0
 17 24  2  0  0  0  0
 17 19  1  0  0  0  0
 18 15  1  0  0  0  0
 19  8  1  6  0  0  0
 19 11  1  0  0  0  0
 20  7  1  0  0  0  0
 20 17  1  0  0  0  0
 21 29  1  1  0  0  0
 21  5  1  0  0  0  0
 22 10  1  0  0  0  0
 22 13  1  0  0  0  0
 24 21  1  0  0  0  0
 26 25  1  0  0  0  0
 26 27  1  0  0  0  0
 27 28  2  0  0  0  0
 30 29  1  0  0  0  0
 31 33  1  0  0  0  0
 32 30  1  1  0  0  0
 32 36  1  0  0  0  0
 32 31  1  0  0  0  0
 33 37  1  6  0  0  0
 35 33  1  0  0  0  0
 35 34  1  1  0  0  0
 36 35  1  0  0  0  0
 37 39  1  0  0  0  0
 38 37  1  0  0  0  0
 39 41  1  0  0  0  0
 39 40  2  0  0  0  0
 42 44  1  0  0  0  0
 44 43  1  0  0  0  0
M  END
>  <MODEL>
2

>  <REMARK>
 VINA RESULT:      -7.6      2.702      9.013
  Name = 
  9 active torsions:
  status: ('A' for Active; 'I' for Inactive)
    1  A    between atoms: N_2  and  C_27
    2  A    between atoms: C_5  and  C_11
    3  A    between atoms: C_10  and  C_17
    4  A    between atoms: C_10  and  C_24
    5  A    between atoms: C_11  and  C_13
    6  A    between atoms: C_13  and  C_14
    7  A    between atoms: C_23  and  C_38
    8  A    between atoms: C_24  and  C_39
    9  A    between atoms: C_34  and  C_38
                            x       y       z     vdW  Elec       q    Type
                         _______ _______ _______ _____ _____    ______ ____

>  <TORSDO>
F 9

$$$$
=
 OpenBabel11042417033D

 44 47  0  0  1  0  0  0  0  0999 V2000
  190.1100  177.7220  147.3070 O   0  0  0  0  0  1  0  0  0  0  0  0
  190.4010  176.9560  146.2260 N   0  0  0  0  0  0  0  0  0  0  0  0
  187.4840  176.5800  145.1680 C   0  0  1  0  0  3  0  0  0  0  0  0
  192.7760  176.6570  147.0010 C   0  0  0  0  0  1  0  0  0  0  0  0
  190.8070  171.3090  142.6840 C   0  0  0  0  0  0  0  0  0  0  0  0
  186.2870  176.7470  144.2390 C   0  0  0  0  0  2  0  0  0  0  0  0
  191.6020  174.9120  145.7140 C   0  0  0  0  0  0  0  0  0  0  0  0
  190.3850  174.2950  145.0810 C   0  0  0  0  0  2  0  0  0  0  0  0
  191.5760  176.1350  146.2720 C   0  0  0  0  0  0  0  0  0  0  0  0
  188.8730  174.3190  142.0610 C   0  0  0  0  0  0  0  0  0  0  0  0
  190.1410  172.5380  143.2270 C   0  0  2  0  0  3  0  0  0  0  0  0
  190.2040  173.6570  142.1870 C   0  0  0  0  0  2  0  0  0  0  0  0
  187.5800  176.4710  142.0970 C   0  0  2  0  0  3  0  0  0  0  0  0
  187.8470  173.6170  141.8430 O   0  0  0  0  0  0  0  0  0  0  0  0
  188.4140  177.7780  145.0200 C   0  0  0  0  0  2  0  0  0  0  0  0
  190.1390  170.4630  142.1130 O   0  0  0  0  0  0  0  0  0  0  0  0
  192.2550  172.8280  144.5580 C   0  0  0  0  0  0  0  0  0  0  0  0
  189.8680  177.3480  144.9240 C   0  0  0  0  0  2  0  0  0  0  0  0
  190.7630  172.9040  144.5810 C   0  0  1  0  0  3  0  0  0  0  0  0
  193.0910  173.9030  145.7040 S   0  0  0  0  0  0  0  0  0  0  0  0
  192.3040  171.1270  142.8220 C   0  0  2  0  0  3  0  0  0  0  0  0
  188.7880  175.7080  142.2100 O   0  0  0  0  0  0  0  0  0  0  0  0
  186.4480  175.9280  142.9670 C   0  0  0  0  0  2  0  0  0  0  0  0
  192.9130  172.0530  143.7670 N   0  0  0  0  0  0  0  0  0  0  0  0
  187.0140  176.4000  146.6140 C   0  0  0  0  0  2  0  0  0  0  0  0
  185.6260  176.9910  146.8530 C   0  0  0  0  0  2  0  0  0  0  0  0
  185.7060  178.1530  147.7880 C   0  0  0  0  0  3  0  0  0  0  0  0
  186.7800  178.6850  148.0370 O   0  0  0  0  0  0  0  0  0  0  0  0
  192.9870  171.2670  141.4720 C   0  0  0  0  0  2  0  0  0  0  0  0
  193.3110  172.7210  141.1880 C   0  0  0  0  0  2  0  0  0  0  0  0
  191.5210  172.4640  138.9520 S   0  0  0  0  0  0  0  0  0  0  0  0
  192.9930  173.0500  139.7650 C   0  0  1  0  0  3  0  0  0  0  0  0
  191.7760  173.7130  137.6310 C   0  0  1  0  0  3  0  0  0  0  0  0
  193.3680  175.4930  137.4130 O   0  0  0  0  0  1  0  0  0  0  0  0
  193.2540  174.1290  137.6760 C   0  0  1  0  0  3  0  0  0  0  0  0
  193.7540  173.8590  139.0500 C   0  0  0  0  0  2  0  0  0  0  0  0
  191.3220  173.2020  136.3180 N   0  0  0  0  0  0  0  0  0  0  0  0
  192.3160  172.5300  135.4840 C   0  0  0  0  0  1  0  0  0  0  0  0
  189.9320  173.0440  135.9410 C   0  0  0  0  0  0  0  0  0  0  0  0
  189.0130  173.6400  136.5600 O   0  0  0  0  0  0  0  0  0  0  0  0
  189.5430  172.1830  134.7840 C   0  0  0  0  0  1  0  0  0  0  0  0
  187.1690  176.7360  140.6490 C   0  0  0  0  0  2  0  0  0  0  0  0
  185.0290  177.9490  140.3480 C   0  0  0  0  0  1  0  0  0  0  0  0
  186.5360  178.1030  140.4490 C   0  0  0  0  0  2  0  0  0  0  0  0
  2  9  1  0  0  0  0
  2  1  1  0  0  0  0
  3 25  1  1  0  0  0
  5 21  1  0  0  0  0
  5 11  1  0  0  0  0
  6  3  1  0  0  0  0
  7  9  2  0  0  0  0
  8  7  1  0  0  0  0
  9  4  1  0  0  0  0
 10 12  1  0  0  0  0
 10 22  1  0  0  0  0
 11 12  1  6  0  0  0
 11 19  1  0  0  0  0
 13 42  1  6  0  0  0
 13 22  1  0  0  0  0
 13 23  1  0  0  0  0
 14 10  2  0  0  0  0
 15  3  1  0  0  0  0
 16  5  2  0  0  0  0
 17 19  1  0  0  0  0
 17 20  1  0  0  0  0
 18 15  1  0  0  0  0
 18  2  1  0  0  0  0
 19  8  1  6  0  0  0
 20  7  1  0  0  0  0
 21 29  1  6  0  0  0
 21 24  1  0  0  0  0
 23  6  1  0  0  0  0
 24 17  2  0  0  0  0
 25 26  1  0  0  0  0
 26 27  1  0  0  0  0
 27 28  2  0  0  0  0
 30 29  1  0  0  0  0
 31 32  1  0  0  0  0
 32 30  1  1  0  0  0
 33 37  1  6  0  0  0
 33 35  1  0  0  0  0
 33 31  1  0  0  0  0
 35 34  1  1  0  0  0
 35 36  1  0  0  0  0
 36 32  1  0  0  0  0
 38 37  1  0  0  0  0
 39 37  1  0  0  0  0
 39 40  2  0  0  0  0
 41 39  1  0  0  0  0
 43 44  1  0  0  0  0
 44 42  1  0  0  0  0
M  END
>  <MODEL>
3

>  <REMARK>
 VINA RESULT:      -7.6      2.375      2.775
  Name = 
  9 active torsions:
  status: ('A' for Active; 'I' for Inactive)
    1  A    between atoms: N_2  and  C_27
    2  A    between atoms: C_5  and  C_11
    3  A    between atoms: C_10  and  C_17
    4  A    between atoms: C_10  and  C_24
    5  A    between atoms: C_11  and  C_13
    6  A    between atoms: C_13  and  C_14
    7  A    between atoms: C_23  and  C_38
    8  A    between atoms: C_24  and  C_39
    9  A    between atoms: C_34  and  C_38
                            x       y       z     vdW  Elec       q    Type
                         _______ _______ _______ _____ _____    ______ ____

>  <TORSDO>
F 9

$$$$
=
 OpenBabel11042417033D

 44 47  0  0  1  0  0  0  0  0999 V2000
  196.8530  175.2590  140.7730 O   0  0  0  0  0  1  0  0  0  0  0  0
  195.5330  175.2400  141.0820 N   0  0  0  0  0  0  0  0  0  0  0  0
  195.8160  174.6210  144.1330 C   0  0  1  0  0  3  0  0  0  0  0  0
  194.8980  175.2870  138.6480 C   0  0  0  0  0  1  0  0  0  0  0  0
  189.6620  172.4380  142.5950 C   0  0  0  0  0  0  0  0  0  0  0  0
  195.7650  174.8740  145.6350 C   0  0  0  0  0  2  0  0  0  0  0  0
  193.5020  174.1460  140.3300 C   0  0  0  0  0  0  0  0  0  0  0  0
  193.2240  173.6040  141.7050 C   0  0  0  0  0  2  0  0  0  0  0  0
  194.5990  174.8740  140.0560 C   0  0  0  0  0  0  0  0  0  0  0  0
  191.7520  174.6750  144.5490 C   0  0  0  0  0  0  0  0  0  0  0  0
  191.0260  172.9950  142.8790 C   0  0  2  0  0  3  0  0  0  0  0  0
  190.8990  174.4460  143.3470 C   0  0  0  0  0  2  0  0  0  0  0  0
  193.5470  176.0640  145.6230 C   0  0  2  0  0  3  0  0  0  0  0  0
  191.6380  173.9120  145.5490 O   0  0  0  0  0  0  0  0  0  0  0  0
  195.9940  175.9450  143.3990 C   0  0  0  0  0  2  0  0  0  0  0  0
  189.0650  171.8300  143.4690 O   0  0  0  0  0  0  0  0  0  0  0  0
  191.2280  173.1810  140.3790 C   0  0  0  0  0  0  0  0  0  0  0  0
  195.0630  176.0500  142.2030 C   0  0  0  0  0  2  0  0  0  0  0  0
  191.9230  172.8100  141.6480 C   0  0  1  0  0  3  0  0  0  0  0  0
  192.2890  173.7420  139.0650 S   0  0  0  0  0  0  0  0  0  0  0  0
  189.0190  172.6440  141.2410 C   0  0  2  0  0  3  0  0  0  0  0  0
  192.6800  175.7230  144.5340 O   0  0  0  0  0  0  0  0  0  0  0  0
  194.3360  174.8690  146.1540 C   0  0  0  0  0  2  0  0  0  0  0  0
  189.9510  173.1170  140.2260 N   0  0  0  0  0  0  0  0  0  0  0  0
  196.9350  173.6300  143.7980 C   0  0  0  0  0  2  0  0  0  0  0  0
  196.4730  172.1780  143.8940 C   0  0  0  0  0  2  0  0  0  0  0  0
  197.2430  171.4530  144.9490 C   0  0  0  0  0  3  0  0  0  0  0  0
  196.9380  171.5560  146.1300 O   0  0  0  0  0  0  0  0  0  0  0  0
  187.8550  173.6150  141.3430 C   0  0  0  0  0  2  0  0  0  0  0  0
  188.2720  174.9970  140.8800 C   0  0  0  0  0  2  0  0  0  0  0  0
  186.4540  176.0220  142.8590 S   0  0  0  0  0  0  0  0  0  0  0  0
  187.9820  176.0060  141.9440 C   0  0  1  0  0  3  0  0  0  0  0  0
  187.2340  177.1210  144.1050 C   0  0  1  0  0  3  0  0  0  0  0  0
  189.4900  177.8970  144.3510 O   0  0  0  0  0  1  0  0  0  0  0  0
  188.4470  177.7840  143.4340 C   0  0  1  0  0  3  0  0  0  0  0  0
  188.8780  176.9020  142.3170 C   0  0  0  0  0  2  0  0  0  0  0  0
  186.2490  178.0730  144.6680 N   0  0  0  0  0  0  0  0  0  0  0  0
  185.8930  179.2280  143.8480 C   0  0  0  0  0  1  0  0  0  0  0  0
  185.3990  177.7860  145.8070 C   0  0  0  0  0  0  0  0  0  0  0  0
  185.6660  176.8520  146.6060 O   0  0  0  0  0  0  0  0  0  0  0  0
  184.1850  178.6100  146.0840 C   0  0  0  0  0  1  0  0  0  0  0  0
  192.8510  176.8760  146.7150 C   0  0  0  0  0  2  0  0  0  0  0  0
  190.5890  176.4670  147.6420 C   0  0  0  0  0  1  0  0  0  0  0  0
  192.0390  176.0180  147.6710 C   0  0  0  0  0  2  0  0  0  0  0  0
  1  2  1  0  0  0  0
  2 18  1  0  0  0  0
  3 25  1  1  0  0  0
  3  6  1  0  0  0  0
  4  9  1  0  0  0  0
  5 11  1  0  0  0  0
  5 16  2  0  0  0  0
  6 23  1  0  0  0  0
  7  8  1  0  0  0  0
  9  7  2  0  0  0  0
  9  2  1  0  0  0  0
 10 14  2  0  0  0  0
 11 12  1  6  0  0  0
 12 10  1  0  0  0  0
 13 23  1  0  0  0  0
 13 42  1  1  0  0  0
 15  3  1  0  0  0  0
 17 19  1  0  0  0  0
 18 15  1  0  0  0  0
 19  8  1  1  0  0  0
 19 11  1  0  0  0  0
 20  7  1  0  0  0  0
 20 17  1  0  0  0  0
 21 29  1  1  0  0  0
 21  5  1  0  0  0  0
 22 10  1  0  0  0  0
 22 13  1  0  0  0  0
 24 17  2  0  0  0  0
 24 21  1  0  0  0  0
 25 26  1  0  0  0  0
 26 27  1  0  0  0  0
 27 28  2  0  0  0  0
 30 29  1  0  0  0  0
 31 33  1  0  0  0  0
 32 30  1  1  0  0  0
 32 36  1  0  0  0  0
 32 31  1  0  0  0  0
 33 37  1  6  0  0  0
 35 33  1  0  0  0  0
 35 34  1  1  0  0  0
 36 35  1  0  0  0  0
 37 39  1  0  0  0  0
 38 37  1  0  0  0  0
 39 41  1  0  0  0  0
 39 40  2  0  0  0  0
 42 44  1  0  0  0  0
 43 44  1  0  0  0  0
M  END
>  <MODEL>
4

>  <REMARK>
 VINA RESULT:      -7.4      2.890      8.680
  Name = 
  9 active torsions:
  status: ('A' for Active; 'I' for Inactive)
    1  A    between atoms: N_2  and  C_27
    2  A    between atoms: C_5  and  C_11
    3  A    between atoms: C_10  and  C_17
    4  A    between atoms: C_10  and  C_24
    5  A    between atoms: C_11  and  C_13
    6  A    between atoms: C_13  and  C_14
    7  A    between atoms: C_23  and  C_38
    8  A    between atoms: C_24  and  C_39
    9  A    between atoms: C_34  and  C_38
                            x       y       z     vdW  Elec       q    Type
                         _______ _______ _______ _____ _____    ______ ____

>  <TORSDO>
F 9

$$$$
=
 OpenBabel11042417033D

 44 47  0  0  1  0  0  0  0  0999 V2000
  190.0860  177.5110  147.5110 O   0  0  0  0  0  1  0  0  0  0  0  0
  190.3870  176.9220  146.3270 N   0  0  0  0  0  0  0  0  0  0  0  0
  187.4920  176.8140  145.1530 C   0  0  1  0  0  3  0  0  0  0  0  0
  192.7310  176.4280  147.0980 C   0  0  0  0  0  1  0  0  0  0  0  0
  190.7430  171.9160  141.9200 C   0  0  0  0  0  0  0  0  0  0  0  0
  186.3270  177.1660  144.2370 C   0  0  0  0  0  2  0  0  0  0  0  0
  191.5470  174.9520  145.5160 C   0  0  0  0  0  0  0  0  0  0  0  0
  190.3330  174.4850  144.7620 C   0  0  0  0  0  2  0  0  0  0  0  0
  191.5390  176.0680  146.2660 C   0  0  0  0  0  0  0  0  0  0  0  0
  188.9080  175.0460  141.7520 C   0  0  0  0  0  0  0  0  0  0  0  0
  190.0940  173.0610  142.6410 C   0  0  2  0  0  3  0  0  0  0  0  0
  190.2170  174.3320  141.7990 C   0  0  0  0  0  2  0  0  0  0  0  0
  187.6720  177.2020  142.1090 C   0  0  2  0  0  3  0  0  0  0  0  0
  187.8700  174.4210  141.3990 O   0  0  0  0  0  0  0  0  0  0  0  0
  188.4580  177.9910  145.2250 C   0  0  0  0  0  2  0  0  0  0  0  0
  190.0690  171.1950  141.2030 O   0  0  0  0  0  0  0  0  0  0  0  0
  192.1770  173.0650  144.0510 C   0  0  0  0  0  0  0  0  0  0  0  0
  189.9020  177.5370  145.0940 C   0  0  0  0  0  2  0  0  0  0  0  0
  190.6880  173.1820  144.0510 C   0  0  1  0  0  3  0  0  0  0  0  0
  193.0080  173.9130  145.3760 S   0  0  0  0  0  0  0  0  0  0  0  0
  192.2290  171.6680  142.0620 C   0  0  2  0  0  3  0  0  0  0  0  0
  188.8560  176.3940  142.1240 O   0  0  0  0  0  0  0  0  0  0  0  0
  186.5020  176.5600  142.8520 C   0  0  0  0  0  2  0  0  0  0  0  0
  192.8360  172.4090  143.1600 N   0  0  0  0  0  0  0  0  0  0  0  0
  186.9770  176.4150  146.5390 C   0  0  0  0  0  2  0  0  0  0  0  0
  185.5640  176.9310  146.8050 C   0  0  0  0  0  2  0  0  0  0  0  0
  185.6070  178.1700  147.6360 C   0  0  0  0  0  3  0  0  0  0  0  0
  185.6650  179.2750  147.1130 O   0  0  0  0  0  0  0  0  0  0  0  0
  192.9540  172.0040  140.7690 C   0  0  0  0  0  2  0  0  0  0  0  0
  193.3380  173.4710  140.7410 C   0  0  0  0  0  2  0  0  0  0  0  0
  194.6190  174.8740  138.5820 S   0  0  0  0  0  0  0  0  0  0  0  0
  193.2710  173.9940  139.3420 C   0  0  1  0  0  3  0  0  0  0  0  0
  193.8440  174.6070  136.9400 C   0  0  1  0  0  3  0  0  0  0  0  0
  191.9210  173.3340  136.2780 O   0  0  0  0  0  1  0  0  0  0  0  0
  192.3570  174.3020  137.1820 C   0  0  1  0  0  3  0  0  0  0  0  0
  192.2280  173.7660  138.5630 C   0  0  0  0  0  2  0  0  0  0  0  0
  194.0950  175.7530  136.0370 N   0  0  0  0  0  0  0  0  0  0  0  0
  193.0680  176.7890  135.9730 C   0  0  0  0  0  1  0  0  0  0  0  0
  195.3890  176.0720  135.4670 C   0  0  0  0  0  0  0  0  0  0  0  0
  196.3130  175.2180  135.4180 O   0  0  0  0  0  0  0  0  0  0  0  0
  195.6630  177.4230  134.8930 C   0  0  0  0  0  1  0  0  0  0  0  0
  187.3090  177.7120  140.7140 C   0  0  0  0  0  2  0  0  0  0  0  0
  184.9570  178.4560  140.4850 C   0  0  0  0  0  1  0  0  0  0  0  0
  185.9160  177.2990  140.2720 C   0  0  0  0  0  2  0  0  0  0  0  0
  2  1  1  0  0  0  0
  3 15  1  0  0  0  0
  3 25  1  1  0  0  0
  5 21  1  0  0  0  0
  5 11  1  0  0  0  0
  6  3  1  0  0  0  0
  7  9  2  0  0  0  0
  8  7  1  0  0  0  0
  9  2  1  0  0  0  0
  9  4  1  0  0  0  0
 10 12  1  0  0  0  0
 10 22  1  0  0  0  0
 11 12  1  6  0  0  0
 11 19  1  0  0  0  0
 13 42  1  6  0  0  0
 13 22  1  0  0  0  0
 13 23  1  0  0  0  0
 14 10  2  0  0  0  0
 16  5  2  0  0  0  0
 17 20  1  0  0  0  0
 18 15  1  0  0  0  0
 18  2  1  0  0  0  0
 19 17  1  0  0  0  0
 19  8  1  6  0  0  0
 20  7  1  0  0  0  0
 21 29  1  6  0  0  0
 21 24  1  0  0  0  0
 23  6  1  0  0  0  0
 24 17  2  0  0  0  0
 25 26  1  0  0  0  0
 26 27  1  0  0  0  0
 28 27  2  0  0  0  0
 30 29  1  0  0  0  0
 31 32  1  0  0  0  0
 32 30  1  6  0  0  0
 33 37  1  6  0  0  0
 33 35  1  0  0  0  0
 33 31  1  0  0  0  0
 35 34  1  6  0  0  0
 35 36  1  0  0  0  0
 36 32  1  0  0  0  0
 38 37  1  0  0  0  0
 39 37  1  0  0  0  0
 40 39  2  0  0  0  0
 41 39  1  0  0  0  0
 44 43  1  0  0  0  0
 44 42  1  0  0  0  0
M  END
>  <MODEL>
5

>  <REMARK>
 VINA RESULT:      -7.4      1.627      1.999
  Name = 
  9 active torsions:
  status: ('A' for Active; 'I' for Inactive)
    1  A    between atoms: N_2  and  C_27
    2  A    between atoms: C_5  and  C_11
    3  A    between atoms: C_10  and  C_17
    4  A    between atoms: C_10  and  C_24
    5  A    between atoms: C_11  and  C_13
    6  A    between atoms: C_13  and  C_14
    7  A    between atoms: C_23  and  C_38
    8  A    between atoms: C_24  and  C_39
    9  A    between atoms: C_34  and  C_38
                            x       y       z     vdW  Elec       q    Type
                         _______ _______ _______ _____ _____    ______ ____

>  <TORSDO>
F 9

$$$$
=
 OpenBabel11042417033D

 44 47  0  0  1  0  0  0  0  0999 V2000
  190.4880  177.5620  147.2110 O   0  0  0  0  0  1  0  0  0  0  0  0
  190.7130  176.7870  146.1220 N   0  0  0  0  0  0  0  0  0  0  0  0
  187.7500  176.5200  145.1640 C   0  0  1  0  0  3  0  0  0  0  0  0
  193.1010  176.3990  146.8160 C   0  0  0  0  0  1  0  0  0  0  0  0
  190.7900  171.1310  142.5720 C   0  0  0  0  0  0  0  0  0  0  0  0
  186.5300  176.7310  144.2760 C   0  0  0  0  0  2  0  0  0  0  0  0
  191.8200  174.7000  145.5710 C   0  0  0  0  0  0  0  0  0  0  0  0
  190.5610  174.1290  144.9790 C   0  0  0  0  0  2  0  0  0  0  0  0
  191.8580  175.9220  146.1280 C   0  0  0  0  0  0  0  0  0  0  0  0
  188.9490  174.2110  142.0130 C   0  0  0  0  0  0  0  0  0  0  0  0
  190.1880  172.3830  143.1360 C   0  0  2  0  0  3  0  0  0  0  0  0
  190.2580  173.5000  142.0940 C   0  0  0  0  0  2  0  0  0  0  0  0
  187.7380  176.4090  142.0920 C   0  0  2  0  0  3  0  0  0  0  0  0
  187.8900  173.5470  141.8300 O   0  0  0  0  0  0  0  0  0  0  0  0
  188.7180  177.6830  144.9830 C   0  0  0  0  0  2  0  0  0  0  0  0
  190.0720  170.3100  142.0240 O   0  0  0  0  0  0  0  0  0  0  0  0
  192.3560  172.5940  144.3950 C   0  0  0  0  0  0  0  0  0  0  0  0
  190.1510  177.1990  144.8380 C   0  0  0  0  0  2  0  0  0  0  0  0
  190.8690  172.7250  144.4680 C   0  0  1  0  0  3  0  0  0  0  0  0
  193.2690  173.6360  145.5110 S   0  0  0  0  0  0  0  0  0  0  0  0
  192.2820  170.8930  142.6590 C   0  0  2  0  0  3  0  0  0  0  0  0
  188.9200  175.6020  142.1630 O   0  0  0  0  0  0  0  0  0  0  0  0
  186.6170  175.9080  143.0000 C   0  0  0  0  0  2  0  0  0  0  0  0
  192.9570  171.7950  143.5820 N   0  0  0  0  0  0  0  0  0  0  0  0
  187.3230  176.3560  146.6250 C   0  0  0  0  0  2  0  0  0  0  0  0
  185.9270  176.9170  146.8900 C   0  0  0  0  0  2  0  0  0  0  0  0
  186.0140  178.2060  147.6380 C   0  0  0  0  0  3  0  0  0  0  0  0
  186.0760  179.2730  147.0440 O   0  0  0  0  0  0  0  0  0  0  0  0
  192.9240  171.0080  141.2860 C   0  0  0  0  0  2  0  0  0  0  0  0
  194.3940  170.6400  141.3540 C   0  0  0  0  0  2  0  0  0  0  0  0
  195.6830  172.9800  142.4180 S   0  0  0  0  0  0  0  0  0  0  0  0
  195.2380  171.8490  141.1150 C   0  0  1  0  0  3  0  0  0  0  0  0
  196.9940  173.6780  141.3390 C   0  0  1  0  0  3  0  0  0  0  0  0
  197.7920  173.0170  139.1760 O   0  0  0  0  0  1  0  0  0  0  0  0
  196.6330  173.3160  139.8900 C   0  0  1  0  0  3  0  0  0  0  0  0
  195.7660  172.1080  139.9320 C   0  0  0  0  0  2  0  0  0  0  0  0
  197.1700  175.1280  141.5830 N   0  0  0  0  0  0  0  0  0  0  0  0
  196.7100  176.0400  140.5390 C   0  0  0  0  0  1  0  0  0  0  0  0
  197.4690  175.7060  142.8780 C   0  0  0  0  0  0  0  0  0  0  0  0
  197.9340  175.0070  143.8160 O   0  0  0  0  0  0  0  0  0  0  0  0
  197.2580  177.1610  143.1360 C   0  0  0  0  0  1  0  0  0  0  0  0
  187.2880  176.6900  140.6580 C   0  0  0  0  0  2  0  0  0  0  0  0
  185.1700  177.9500  140.3930 C   0  0  0  0  0  1  0  0  0  0  0  0
  186.6810  178.0720  140.4830 C   0  0  0  0  0  2  0  0  0  0  0  0
  2  9  1  0  0  0  0
  2  1  1  0  0  0  0
  3 25  1  1  0  0  0
  5 21  1  0  0  0  0
  5 11  1  0  0  0  0
  6  3  1  0  0  0  0
  7  9  2  0  0  0  0
  8  7  1  0  0  0  0
  9  4  1  0  0  0  0
 10 12  1  0  0  0  0
 10 22  1  0  0  0  0
 11 12  1  6  0  0  0
 11 19  1  0  0  0  0
 13 42  1  6  0  0  0
 13 22  1  0  0  0  0
 13 23  1  0  0  0  0
 14 10  2  0  0  0  0
 15  3  1  0  0  0  0
 16  5  2  0  0  0  0
 17 19  1  0  0  0  0
 17 20  1  0  0  0  0
 18 15  1  0  0  0  0
 18  2  1  0  0  0  0
 19  8  1  6  0  0  0
 20  7  1  0  0  0  0
 21 29  1  6  0  0  0
 21 24  1  0  0  0  0
 23  6  1  0  0  0  0
 24 17  2  0  0  0  0
 25 26  1  0  0  0  0
 26 27  1  0  0  0  0
 28 27  2  0  0  0  0
 29 30  1  0  0  0  0
 32 30  1  1  0  0  0
 32 31  1  0  0  0  0
 33 37  1  6  0  0  0
 33 31  1  0  0  0  0
 35 34  1  6  0  0  0
 35 36  1  0  0  0  0
 35 33  1  0  0  0  0
 36 32  1  0  0  0  0
 37 39  1  0  0  0  0
 38 37  1  0  0  0  0
 39 41  1  0  0  0  0
 39 40  2  0  0  0  0
 43 44  1  0  0  0  0
 44 42  1  0  0  0  0
M  END
>  <MODEL>
6

>  <REMARK>
 VINA RESULT:      -7.2      1.597      2.236
  Name = 
  9 active torsions:
  status: ('A' for Active; 'I' for Inactive)
    1  A    between atoms: N_2  and  C_27
    2  A    between atoms: C_5  and  C_11
    3  A    between atoms: C_10  and  C_17
    4  A    between atoms: C_10  and  C_24
    5  A    between atoms: C_11  and  C_13
    6  A    between atoms: C_13  and  C_14
    7  A    between atoms: C_23  and  C_38
    8  A    between atoms: C_24  and  C_39
    9  A    between atoms: C_34  and  C_38
                            x       y       z     vdW  Elec       q    Type
                         _______ _______ _______ _____ _____    ______ ____

>  <TORSDO>
F 9

$$$$
=
 OpenBabel11042417033D

 44 47  0  0  1  0  0  0  0  0999 V2000
  188.3650  173.1080  141.0920 O   0  0  0  0  0  1  0  0  0  0  0  0
  189.6420  173.2380  141.5290 N   0  0  0  0  0  0  0  0  0  0  0  0
  189.3160  175.9780  142.9970 C   0  0  1  0  0  3  0  0  0  0  0  0
  190.3920  171.3030  140.1070 C   0  0  0  0  0  1  0  0  0  0  0  0
  195.8610  175.6720  141.5600 C   0  0  0  0  0  0  0  0  0  0  0  0
  189.2290  176.9510  144.1670 C   0  0  0  0  0  2  0  0  0  0  0  0
  191.8910  173.1920  140.6220 C   0  0  0  0  0  0  0  0  0  0  0  0
  192.1940  174.5600  141.1660 C   0  0  0  0  0  2  0  0  0  0  0  0
  190.6880  172.6120  140.7720 C   0  0  0  0  0  0  0  0  0  0  0  0
  193.2550  175.8990  144.0800 C   0  0  0  0  0  0  0  0  0  0  0  0
  194.4000  175.6490  141.8960 C   0  0  2  0  0  3  0  0  0  0  0  0
  194.2040  175.0580  143.2930 C   0  0  0  0  0  2  0  0  0  0  0  0
  191.1580  175.9780  145.4580 C   0  0  2  0  0  3  0  0  0  0  0  0
  193.4630  177.1400  144.1870 O   0  0  0  0  0  0  0  0  0  0  0  0
  188.9170  174.5830  143.4640 C   0  0  0  0  0  2  0  0  0  0  0  0
  196.5180  176.6740  141.7930 O   0  0  0  0  0  0  0  0  0  0  0  0
  194.3070  173.6490  140.3740 C   0  0  0  0  0  0  0  0  0  0  0  0
  189.8740  173.5250  142.9430 C   0  0  0  0  0  2  0  0  0  0  0  0
  193.6300  174.9140  140.7910 C   0  0  1  0  0  3  0  0  0  0  0  0
  193.2310  172.3840  139.7350 S   0  0  0  0  0  0  0  0  0  0  0  0
  196.5260  174.4530  140.9570 C   0  0  2  0  0  3  0  0  0  0  0  0
  192.1370  175.2940  144.6660 O   0  0  0  0  0  0  0  0  0  0  0  0
  190.5980  177.2220  144.7720 C   0  0  0  0  0  2  0  0  0  0  0  0
  195.5780  173.4610  140.4710 N   0  0  0  0  0  0  0  0  0  0  0  0
  188.4410  176.4620  141.8370 C   0  0  0  0  0  2  0  0  0  0  0  0
  188.0410  177.9290  141.9820 C   0  0  0  0  0  2  0  0  0  0  0  0
  186.5680  178.0900  141.7980 C   0  0  0  0  0  3  0  0  0  0  0  0
  185.7880  177.2460  142.2170 O   0  0  0  0  0  0  0  0  0  0  0  0
  197.4630  173.8020  141.9610 C   0  0  0  0  0  2  0  0  0  0  0  0
  197.3000  172.2950  141.9390 C   0  0  0  0  0  2  0  0  0  0  0  0
  197.2720  170.0880  143.7830 S   0  0  0  0  0  0  0  0  0  0  0  0
  197.0180  171.7880  143.3170 C   0  0  1  0  0  3  0  0  0  0  0  0
  197.1830  170.5790  145.5500 C   0  0  1  0  0  3  0  0  0  0  0  0
  197.0370  172.7320  146.5960 O   0  0  0  0  0  1  0  0  0  0  0  0
  196.4600  171.9330  145.6110 C   0  0  1  0  0  3  0  0  0  0  0  0
  196.6310  172.5930  144.2900 C   0  0  0  0  0  2  0  0  0  0  0  0
  196.5620  169.5140  146.3700 N   0  0  0  0  0  0  0  0  0  0  0  0
  197.4350  168.7810  147.2830 C   0  0  0  0  0  1  0  0  0  0  0  0
  195.1340  169.3600  146.5580 C   0  0  0  0  0  0  0  0  0  0  0  0
  194.3070  169.9000  145.7780 O   0  0  0  0  0  0  0  0  0  0  0  0
  194.5920  168.5310  147.6760 C   0  0  0  0  0  1  0  0  0  0  0  0
  191.6130  176.2220  146.8970 C   0  0  0  0  0  2  0  0  0  0  0  0
  189.5850  174.8570  147.3030 C   0  0  0  0  0  1  0  0  0  0  0  0
  190.8860  175.3510  147.9080 C   0  0  0  0  0  2  0  0  0  0  0  0
  1  2  1  0  0  0  0
  2 18  1  0  0  0  0
  3 25  1  6  0  0  0
  3 15  1  0  0  0  0
  3  6  1  0  0  0  0
  4  9  1  0  0  0  0
  5 16  2  0  0  0  0
  5 11  1  0  0  0  0
  6 23  1  0  0  0  0
  7  9  2  0  0  0  0
  7  8  1  0  0  0  0
  9  2  1  0  0  0  0
 10 14  2  0  0  0  0
 10 22  1  0  0  0  0
 11 12  1  1  0  0  0
 12 10  1  0  0  0  0
 13 42  1  1  0  0  0
 17 24  2  0  0  0  0
 17 19  1  0  0  0  0
 18 15  1  0  0  0  0
 19  8  1  1  0  0  0
 19 11  1  0  0  0  0
 20 17  1  0  0  0  0
 20  7  1  0  0  0  0
 21  5  1  0  0  0  0
 21 29  1  1  0  0  0
 22 13  1  0  0  0  0
 23 13  1  0  0  0  0
 24 21  1  0  0  0  0
 25 26  1  0  0  0  0
 27 26  1  0  0  0  0
 27 28  2  0  0  0  0
 30 29  1  0  0  0  0
 31 33  1  0  0  0  0
 32 30  1  1  0  0  0
 32 31  1  0  0  0  0
 32 36  1  0  0  0  0
 33 35  1  0  0  0  0
 33 37  1  1  0  0  0
 35 34  1  1  0  0  0
 36 35  1  0  0  0  0
 37 39  1  0  0  0  0
 37 38  1  0  0  0  0
 39 41  1  0  0  0  0
 40 39  2  0  0  0  0
 42 44  1  0  0  0  0
 43 44  1  0  0  0  0
M  END
>  <MODEL>
7

>  <REMARK>
 VINA RESULT:      -7.2      3.251      6.726
  Name = 
  9 active torsions:
  status: ('A' for Active; 'I' for Inactive)
    1  A    between atoms: N_2  and  C_27
    2  A    between atoms: C_5  and  C_11
    3  A    between atoms: C_10  and  C_17
    4  A    between atoms: C_10  and  C_24
    5  A    between atoms: C_11  and  C_13
    6  A    between atoms: C_13  and  C_14
    7  A    between atoms: C_23  and  C_38
    8  A    between atoms: C_24  and  C_39
    9  A    between atoms: C_34  and  C_38
                            x       y       z     vdW  Elec       q    Type
                         _______ _______ _______ _____ _____    ______ ____

>  <TORSDO>
F 9

$$$$
=
 OpenBabel11042417033D

 44 47  0  0  1  0  0  0  0  0999 V2000
  196.8580  169.2300  142.1280 O   0  0  0  0  0  1  0  0  0  0  0  0
  195.8440  170.1300  142.1660 N   0  0  0  0  0  0  0  0  0  0  0  0
  196.7750  171.7190  144.6910 C   0  0  1  0  0  3  0  0  0  0  0  0
  194.5600  168.8490  140.4220 C   0  0  0  0  0  1  0  0  0  0  0  0
  190.1650  172.8280  144.4190 C   0  0  0  0  0  0  0  0  0  0  0  0
  197.3240  172.8890  145.5000 C   0  0  0  0  0  2  0  0  0  0  0  0
  193.4190  170.1390  142.1870 C   0  0  0  0  0  0  0  0  0  0  0  0
  193.3810  170.9350  143.4620 C   0  0  0  0  0  2  0  0  0  0  0  0
  194.5730  169.7460  141.6220 C   0  0  0  0  0  0  0  0  0  0  0  0
  193.5330  174.1850  144.3690 C   0  0  0  0  0  0  0  0  0  0  0  0
  191.6440  172.5820  144.3870 C   0  0  2  0  0  3  0  0  0  0  0  0
  192.3350  173.7100  143.6190 C   0  0  0  0  0  2  0  0  0  0  0  0
  195.9960  174.6690  144.3140 C   0  0  2  0  0  3  0  0  0  0  0  0
  193.4150  174.5280  145.5790 O   0  0  0  0  0  0  0  0  0  0  0  0
  197.2820  171.8100  143.2570 C   0  0  0  0  0  2  0  0  0  0  0  0
  189.6720  173.4220  145.3630 O   0  0  0  0  0  0  0  0  0  0  0  0
  191.1010  170.8840  142.6130 C   0  0  0  0  0  0  0  0  0  0  0  0
  196.1700  171.5510  142.2550 C   0  0  0  0  0  2  0  0  0  0  0  0
  191.9200  171.1800  143.8270 C   0  0  1  0  0  3  0  0  0  0  0  0
  191.8210  169.7230  141.4730 S   0  0  0  0  0  0  0  0  0  0  0  0
  189.2880  172.3620  143.2760 C   0  0  2  0  0  3  0  0  0  0  0  0
  194.7720  174.2200  143.7190 O   0  0  0  0  0  0  0  0  0  0  0  0
  196.2910  173.9960  145.6530 C   0  0  0  0  0  2  0  0  0  0  0  0
  189.9560  171.4260  142.3820 N   0  0  0  0  0  0  0  0  0  0  0  0
  197.1620  170.3910  145.3490 C   0  0  0  0  0  2  0  0  0  0  0  0
  196.1990  169.9930  146.4660 C   0  0  0  0  0  2  0  0  0  0  0  0
  196.8750  169.0840  147.4390 C   0  0  0  0  0  3  0  0  0  0  0  0
  197.6530  168.2210  147.0550 O   0  0  0  0  0  0  0  0  0  0  0  0
  188.7810  173.5480  142.4730 C   0  0  0  0  0  2  0  0  0  0  0  0
  189.2840  174.8480  143.0680 C   0  0  0  0  0  2  0  0  0  0  0  0
  188.2130  177.1430  144.4320 S   0  0  0  0  0  0  0  0  0  0  0  0
  188.1460  175.7970  143.2680 C   0  0  1  0  0  3  0  0  0  0  0  0
  186.7630  177.9050  143.6060 C   0  0  1  0  0  3  0  0  0  0  0  0
  185.5670  177.3010  141.6160 O   0  0  0  0  0  1  0  0  0  0  0  0
  186.0480  176.7940  142.8220 C   0  0  1  0  0  3  0  0  0  0  0  0
  187.0490  175.7330  142.5350 C   0  0  0  0  0  2  0  0  0  0  0  0
  185.9050  178.6160  144.5810 N   0  0  0  0  0  0  0  0  0  0  0  0
  185.5360  179.9940  144.2640 C   0  0  0  0  0  1  0  0  0  0  0  0
  185.1660  177.9640  145.6430 C   0  0  0  0  0  0  0  0  0  0  0  0
  185.4590  176.8020  146.0290 O   0  0  0  0  0  0  0  0  0  0  0  0
  184.0420  178.6610  146.3370 C   0  0  0  0  0  1  0  0  0  0  0  0
  196.1240  176.1920  144.3510 C   0  0  0  0  0  2  0  0  0  0  0  0
  197.7470  175.6950  142.5450 C   0  0  0  0  0  1  0  0  0  0  0  0
  196.8420  176.7600  143.1380 C   0  0  0  0  0  2  0  0  0  0  0  0
  1  2  1  0  0  0  0
  2 18  1  0  0  0  0
  3 25  1  1  0  0  0
  3  6  1  0  0  0  0
  4  9  1  0  0  0  0
  5 16  2  0  0  0  0
  6 23  1  0  0  0  0
  7  8  1  0  0  0  0
  9  2  1  0  0  0  0
  9  7  2  0  0  0  0
 10 14  2  0  0  0  0
 11 12  1  6  0  0  0
 11  5  1  0  0  0  0
 12 10  1  0  0  0  0
 13 42  1  1  0  0  0
 13 23  1  0  0  0  0
 15  3  1  0  0  0  0
 17 19  1  0  0  0  0
 18 15  1  0  0  0  0
 19  8  1  6  0  0  0
 19 11  1  0  0  0  0
 20  7  1  0  0  0  0
 20 17  1  0  0  0  0
 21 29  1  6  0  0  0
 21  5  1  0  0  0  0
 22 13  1  0  0  0  0
 22 10  1  0  0  0  0
 24 17  2  0  0  0  0
 24 21  1  0  0  0  0
 25 26  1  0  0  0  0
 26 27  1  0  0  0  0
 28 27  2  0  0  0  0
 29 30  1  0  0  0  0
 32 30  1  6  0  0  0
 32 31  1  0  0  0  0
 33 31  1  0  0  0  0
 33 37  1  1  0  0  0
 35 34  1  6  0  0  0
 35 33  1  0  0  0  0
 36 35  1  0  0  0  0
 36 32  1  0  0  0  0
 37 39  1  0  0  0  0
 38 37  1  0  0  0  0
 39 40  2  0  0  0  0
 39 41  1  0  0  0  0
 43 44  1  0  0  0  0
 44 42  1  0  0  0  0
M  END
>  <MODEL>
8

>  <REMARK>
 VINA RESULT:      -6.9      3.607      9.698
  Name = 
  9 active torsions:
  status: ('A' for Active; 'I' for Inactive)
    1  A    between atoms: N_2  and  C_27
    2  A    between atoms: C_5  and  C_11
    3  A    between atoms: C_10  and  C_17
    4  A    between atoms: C_10  and  C_24
    5  A    between atoms: C_11  and  C_13
    6  A    between atoms: C_13  and  C_14
    7  A    between atoms: C_23  and  C_38
    8  A    between atoms: C_24  and  C_39
    9  A    between atoms: C_34  and  C_38
                            x       y       z     vdW  Elec       q    Type
                         _______ _______ _______ _____ _____    ______ ____

>  <TORSDO>
F 9

$$$$
=
 OpenBabel11042417033D

 44 47  0  0  1  0  0  0  0  0999 V2000
  197.7010  173.0310  140.7190 O   0  0  0  0  0  1  0  0  0  0  0  0
  196.4010  173.3160  140.9760 N   0  0  0  0  0  0  0  0  0  0  0  0
  196.6550  173.7310  144.0640 C   0  0  1  0  0  3  0  0  0  0  0  0
  195.7270  172.6310  138.6510 C   0  0  0  0  0  1  0  0  0  0  0  0
  190.2090  172.1050  143.1660 C   0  0  0  0  0  0  0  0  0  0  0  0
  196.6760  174.4810  145.3900 C   0  0  0  0  0  2  0  0  0  0  0  0
  194.2120  172.3500  140.5760 C   0  0  0  0  0  0  0  0  0  0  0  0
  193.8860  172.3530  142.0440 C   0  0  0  0  0  2  0  0  0  0  0  0
  195.4000  172.7690  140.1060 C   0  0  0  0  0  0  0  0  0  0  0  0
  192.6560  174.5310  144.3130 C   0  0  0  0  0  0  0  0  0  0  0  0
  191.6470  172.5140  143.2870 C   0  0  2  0  0  3  0  0  0  0  0  0
  191.7510  174.0390  143.2340 C   0  0  0  0  0  2  0  0  0  0  0  0
  194.6640  175.9150  144.9090 C   0  0  2  0  0  3  0  0  0  0  0  0
  192.4500  174.1770  145.5080 O   0  0  0  0  0  0  0  0  0  0  0  0
  197.0150  174.6860  142.9320 C   0  0  0  0  0  2  0  0  0  0  0  0
  189.5460  171.9260  144.1750 O   0  0  0  0  0  0  0  0  0  0  0  0
  191.8200  171.8110  140.8780 C   0  0  0  0  0  0  0  0  0  0  0  0
  196.0840  174.5180  141.7430 C   0  0  0  0  0  2  0  0  0  0  0  0
  192.4780  171.7910  142.2190 C   0  0  1  0  0  3  0  0  0  0  0  0
  192.9240  171.7290  139.4850 S   0  0  0  0  0  0  0  0  0  0  0  0
  189.5740  171.9350  141.8030 C   0  0  2  0  0  3  0  0  0  0  0  0
  193.7310  175.3600  143.9730 O   0  0  0  0  0  0  0  0  0  0  0  0
  195.2740  174.8670  145.8370 C   0  0  0  0  0  2  0  0  0  0  0  0
  190.5440  171.8910  140.7170 N   0  0  0  0  0  0  0  0  0  0  0  0
  197.6030  172.5290  144.1180 C   0  0  0  0  0  2  0  0  0  0  0  0
  197.1680  171.4910  145.1500 C   0  0  0  0  0  2  0  0  0  0  0  0
  195.7700  171.0400  144.8820 C   0  0  0  0  0  3  0  0  0  0  0  0
  194.8700  171.2840  145.6740 O   0  0  0  0  0  0  0  0  0  0  0  0
  188.5730  173.0460  141.5360 C   0  0  0  0  0  2  0  0  0  0  0  0
  189.1950  174.4010  141.8140 C   0  0  0  0  0  2  0  0  0  0  0  0
  188.7630  175.9850  144.1740 S   0  0  0  0  0  0  0  0  0  0  0  0
  188.2670  175.2340  142.6380 C   0  0  1  0  0  3  0  0  0  0  0  0
  187.2910  177.0790  144.0920 C   0  0  1  0  0  3  0  0  0  0  0  0
  185.6340  177.3890  142.3860 O   0  0  0  0  0  1  0  0  0  0  0  0
  186.2810  176.4150  143.1440 C   0  0  1  0  0  3  0  0  0  0  0  0
  187.0430  175.5200  142.2330 C   0  0  0  0  0  2  0  0  0  0  0  0
  186.7640  177.3680  145.4450 N   0  0  0  0  0  0  0  0  0  0  0  0
  187.2120  176.5030  146.5340 C   0  0  0  0  0  1  0  0  0  0  0  0
  186.1010  178.6030  145.8150 C   0  0  0  0  0  0  0  0  0  0  0  0
  185.6230  179.3770  144.9450 O   0  0  0  0  0  0  0  0  0  0  0  0
  185.9410  178.9880  147.2490 C   0  0  0  0  0  1  0  0  0  0  0  0
  194.1230  177.1430  145.6410 C   0  0  0  0  0  2  0  0  0  0  0  0
  192.3200  176.7830  147.3030 C   0  0  0  0  0  1  0  0  0  0  0  0
  193.8230  176.8800  147.1070 C   0  0  0  0  0  2  0  0  0  0  0  0
  1  2  1  0  0  0  0
  2 18  1  0  0  0  0
  3 25  1  1  0  0  0
  3  6  1  0  0  0  0
  4  9  1  0  0  0  0
  5 11  1  0  0  0  0
  5 16  2  0  0  0  0
  6 23  1  0  0  0  0
  7  8  1  0  0  0  0
  9  7  2  0  0  0  0
  9  2  1  0  0  0  0
 10 14  2  0  0  0  0
 11 12  1  6  0  0  0
 12 10  1  0  0  0  0
 13 42  1  1  0  0  0
 13 23  1  0  0  0  0
 15  3  1  0  0  0  0
 17 19  1  0  0  0  0
 18 15  1  0  0  0  0
 19  8  1  6  0  0  0
 19 11  1  0  0  0  0
 20  7  1  0  0  0  0
 20 17  1  0  0  0  0
 21 29  1  6  0  0  0
 21  5  1  0  0  0  0
 22 10  1  0  0  0  0
 22 13  1  0  0  0  0
 24 17  2  0  0  0  0
 24 21  1  0  0  0  0
 25 26  1  0  0  0  0
 27 26  1  0  0  0  0
 27 28  2  0  0  0  0
 29 30  1  0  0  0  0
 32 30  1  6  0  0  0
 32 31  1  0  0  0  0
 33 31  1  0  0  0  0
 33 37  1  1  0  0  0
 35 34  1  6  0  0  0
 35 33  1  0  0  0  0
 36 32  1  0  0  0  0
 36 35  1  0  0  0  0
 37 39  1  0  0  0  0
 37 38  1  0  0  0  0
 39 41  1  0  0  0  0
 40 39  2  0  0  0  0
 42 44  1  0  0  0  0
 44 43  1  0  0  0  0
M  END
>  <MODEL>
9

>  <REMARK>
 VINA RESULT:      -6.7      2.714      8.928
  Name = 
  9 active torsions:
  status: ('A' for Active; 'I' for Inactive)
    1  A    between atoms: N_2  and  C_27
    2  A    between atoms: C_5  and  C_11
    3  A    between atoms: C_10  and  C_17
    4  A    between atoms: C_10  and  C_24
    5  A    between atoms: C_11  and  C_13
    6  A    between atoms: C_13  and  C_14
    7  A    between atoms: C_23  and  C_38
    8  A    between atoms: C_24  and  C_39
    9  A    between atoms: C_34  and  C_38
                            x       y       z     vdW  Elec       q    Type
                         _______ _______ _______ _____ _____    ______ ____

>  <TORSDO>
F 9

$$$$
