=
 OpenBabel11042413523D

 70 72  0  0  1  0  0  0  0  0999 V2000
  195.5900  173.2120  140.1770 C   0  0  0  0  0  0  0  0  0  0  0  0
  193.0190  169.9770  144.2720 C   0  0  0  0  0  2  0  0  0  0  0  0
  190.8530  176.4980  145.8870 C   0  0  0  0  0  2  0  0  0  0  0  0
  192.0240  171.8360  141.3190 O   0  0  0  0  0  1  0  0  0  0  0  0
  191.2740  177.6070  143.6770 C   0  0  0  0  0  2  0  0  0  0  0  0
  196.7500  173.3910  139.5040 C   0  0  0  0  0  0  0  0  0  0  0  0
  191.5910  171.9370  144.0170 C   0  0  0  0  0  2  0  0  0  0  0  0
  189.9560  173.4980  146.0170 C   0  0  0  0  0  2  0  0  0  0  0  0
  190.3240  171.4120  144.6810 C   0  0  0  0  0  2  0  0  0  0  0  0
  190.2150  177.0810  144.6330 C   0  0  0  0  0  2  0  0  0  0  0  0
  191.1300  175.7540  142.0170 C   0  0  0  0  0  1  0  0  0  0  0  0
  192.0310  176.4700  143.0070 C   0  0  1  0  0  3  0  0  0  0  0  0
  194.3040  175.0560  141.2320 C   0  0  0  0  0  2  0  0  0  0  0  0
  194.5620  170.9370  140.2160 C   0  0  0  0  0  2  0  0  0  0  0  0
  189.8210  175.8570  146.8160 C   0  0  2  0  0  3  0  0  0  0  0  0
  194.1850  170.8870  141.6940 C   0  0  0  0  0  2  0  0  0  0  0  0
  194.4780  172.3480  139.6560 C   0  0  0  0  0  2  0  0  0  0  0  0
  192.6700  170.7600  141.9400 C   0  0  1  0  0  0  0  0  0  0  0  0
  194.4190  176.1210  142.3200 C   0  0  2  0  0  3  0  0  0  0  0  0
  197.7680  174.3640  140.0260 C   0  0  0  0  0  1  0  0  0  0  0  0
  195.3270  173.9630  141.4490 C   0  0  0  0  0  2  0  0  0  0  0  0
  189.0720  174.7200  146.1340 C   0  0  0  0  0  2  0  0  0  0  0  0
  189.3790  172.5640  144.9710 C   0  0  0  0  0  2  0  0  0  0  0  0
  192.4020  170.8170  143.4330 C   0  0  0  0  0  0  0  0  0  0  0  0
  193.2250  177.0540  142.2690 C   0  0  0  0  0  2  0  0  0  0  0  0
  197.7120  170.6570  137.0700 C   0  0  0  0  0  3  0  0  0  0  0  0
  197.4430  171.3450  138.2530 C   0  0  0  0  0  3  0  0  0  0  0  0
  196.9570  173.3430  136.9900 C   0  0  0  0  0  3  0  0  0  0  0  0
  197.0780  172.7010  138.2280 C   0  0  0  0  0  0  0  0  0  0  0  0
  197.6240  171.3150  135.8400 C   0  0  0  0  0  0  0  0  0  0  0  0
  197.2330  172.6570  135.8020 C   0  0  0  0  0  3  0  0  0  0  0  0
  197.8770  170.5500  134.5810 C   0  0  0  0  0  2  0  0  0  0  0  0
  197.2260  169.2060  134.6180 C   0  0  0  0  0  0  0  0  0  0  0  0
  195.8100  169.0890  134.6690 N   0  0  0  0  0  1  0  0  0  0  0  0
  197.9400  168.1670  134.5710 O   0  0  0  0  0  0  0  0  0  0  0  0
  188.6370  177.0890  147.4370 S   0  0  0  0  0  0  0  0  0  0  0  0
  187.5090  176.8210  146.0380 C   0  0  0  0  0  2  0  0  0  0  0  0
  186.6420  178.0560  145.7910 C   0  0  2  0  0  3  0  0  0  0  0  0
  185.6340  179.0070  148.0040 C   0  0  1  0  0  3  0  0  0  0  0  0
  184.0910  177.7240  146.4410 C   0  0  0  0  0  1  0  0  0  0  0  0
  185.5020  178.1370  146.8130 C   0  0  1  0  0  0  0  0  0  0  0  0
  185.8740  177.6170  148.0650 O   0  0  0  0  0  0  0  0  0  0  0  0
  186.8590  179.6850  148.0170 O   0  0  0  0  0  1  0  0  0  0  0  0
  185.6120  176.8820  143.9410 O   0  0  0  0  0  1  0  0  0  0  0  0
  187.0860  178.5610  143.4790 O   0  0  0  0  0  1  0  0  0  0  0  0
  186.0960  178.1220  144.3610 C   0  0  0  0  0  3  0  0  0  0  0  0
  192.0890  169.4700  141.3310 C   0  0  0  0  0  2  0  0  0  0  0  0
  192.6320  169.1270  139.9450 C   0  0  0  0  0  2  0  0  0  0  0  0
  190.7080  169.4240  138.3120 C   0  0  0  0  0  0  0  0  0  0  0  0
  191.9260  169.8760  138.9130 N   0  0  0  0  0  2  0  0  0  0  0  0
  190.2840  168.2570  138.5190 O   0  0  0  0  0  0  0  0  0  0  0  0
  189.7320  170.5610  137.3260 S   0  0  0  0  0  0  0  0  0  0  0  0
  191.0280  170.9810  136.0980 C   0  0  1  0  0  3  0  0  0  0  0  0
  191.0170  169.9700  134.9590 C   0  0  0  0  0  1  0  0  0  0  0  0
  190.9730  172.4350  135.5910 C   0  0  2  0  0  3  0  0  0  0  0  0
  192.5530  173.2900  135.9970 P   0  0  2  0  0  0  0  0  0  0  0  0
  192.4780  174.8910  135.4460 O   0  0  0  0  0  0  0  0  0  0  0  0
  193.9600  172.4760  135.1840 C   0  0  0  0  0  1  0  0  0  0  0  0
  192.7980  173.3100  137.4870 O   0  0  0  0  0  1  0  0  0  0  0  0
  189.4580  173.3500  136.2530 P   0  0  1  0  0  0  0  0  0  0  0  0
  190.1860  174.1440  137.6150 O   0  0  0  0  0  1  0  0  0  0  0  0
  189.3650  174.8220  135.1170 C   0  0  0  0  0  1  0  0  0  0  0  0
  195.6310  176.9030  142.1230 N   0  0  0  0  0  2  0  0  0  0  0  0
  196.3250  176.9460  143.3990 C   0  0  0  0  0  2  0  0  0  0  0  0
  197.7830  174.5930  144.0280 O   0  0  0  0  0  0  0  0  0  0  0  0
  195.8410  175.8650  144.2420 N   0  0  0  0  0  2  0  0  0  0  0  0
  196.6240  174.7010  144.5120 C   0  0  0  0  0  0  0  0  0  0  0  0
  196.0800  173.6330  145.3620 C   0  0  0  0  0  0  0  0  0  0  0  0
  195.7100  172.3070  144.7950 C   0  0  0  0  0  1  0  0  0  0  0  0
  195.9050  173.8480  146.5910 O   0  0  0  0  0  0  0  0  0  0  0  0
  1 21  1  0  0  0  0
  3 15  1  0  0  0  0
  5 10  1  0  0  0  0
  6 20  1  0  0  0  0
  6  1  2  0  0  0  0
  7  9  1  0  0  0  0
  8 22  1  0  0  0  0
  9 23  1  0  0  0  0
 10  3  1  0  0  0  0
 12 11  1  6  0  0  0
 12  5  1  0  0  0  0
 13 21  1  0  0  0  0
 13 19  1  0  0  0  0
 14 16  1  0  0  0  0
 15 36  1  6  0  0  0
 16 18  1  0  0  0  0
 17  1  1  0  0  0  0
 17 14  1  0  0  0  0
 18  4  1  6  0  0  0
 18 24  1  0  0  0  0
 19 63  1  6  0  0  0
 22 15  1  0  0  0  0
 23  8  1  0  0  0  0
 24  7  1  0  0  0  0
 24  2  2  0  0  0  0
 25 19  1  0  0  0  0
 25 12  1  0  0  0  0
 26 27  1  0  0  0  0
 28 29  1  0  0  0  0
 29 27  2  0  0  0  0
 29  6  1  0  0  0  0
 30 26  2  0  0  0  0
 31 30  1  0  0  0  0
 31 28  2  0  0  0  0
 32 33  1  0  0  0  0
 32 30  1  0  0  0  0
 33 34  1  0  0  0  0
 35 33  2  0  0  0  0
 37 36  1  0  0  0  0
 38 37  1  6  0  0  0
 38 41  1  0  0  0  0
 39 43  1  6  0  0  0
 39 42  1  0  0  0  0
 41 40  1  6  0  0  0
 41 39  1  0  0  0  0
 41 42  1  0  0  0  0
 44 46  1  0  0  0  0
 45 46  1  0  0  0  0
 46 38  1  0  0  0  0
 47 18  1  0  0  0  0
 48 47  1  0  0  0  0
 49 51  2  0  0  0  0
 49 50  1  0  0  0  0
 50 48  1  0  0  0  0
 52 49  1  0  0  0  0
 53 54  1  6  0  0  0
 53 52  1  0  0  0  0
 55 56  1  0  0  0  0
 55 53  1  1  0  0  0
 55 60  1  0  0  0  0
 56 58  1  6  0  0  0
 56 59  1  0  0  0  0
 57 56  2  0  0  0  0
 60 62  1  6  0  0  0
 60 61  1  0  0  0  0
 63 64  1  0  0  0  0
 64 66  1  0  0  0  0
 65 67  2  0  0  0  0
 66 67  1  0  0  0  0
 67 68  1  0  0  0  0
 68 70  2  0  0  0  0
 69 68  1  0  0  0  0
M  END
>  <MODEL>
1

>  <REMARK>
 VINA RESULT:      -4.8      0.000      0.000
  Name = 
  20 active torsions:
  status: ('A' for Active; 'I' for Inactive)
    1  A    between atoms: C_3  and  C_15
    2  A    between atoms: C_3  and  P_16
    3  A    between atoms: C_3  and  P_28
    4  A    between atoms: C_5  and  C_51
    5  A    between atoms: C_7  and  C_21
    6  A    between atoms: S_12  and  C_41
    7  A    between atoms: S_12  and  C_46
    8  A    between atoms: C_13  and  C_26
    9  A    between atoms: C_14  and  S_54
   10  A    between atoms: C_15  and  S_54
   11  A    between atoms: C_17  and  C_25
   12  A    between atoms: C_19  and  C_45
   13  A    between atoms: C_19  and  C_55
   14  A    between atoms: C_21  and  C_47
   15  A    between atoms: N_24  and  C_56
   16  A    between atoms: C_25  and  C_41
   17  A    between atoms: C_25  and  C_66
   18  A    between atoms: N_32  and  C_45
   19  A    between atoms: N_40  and  C_56
   20  A    between atoms: N_40  and  C_57
                            x       y       z     vdW  Elec       q    Type
                         _______ _______ _______ _____ _____    ______ ____

>  <TORSDO>
F 20

$$$$
=
 OpenBabel11042413523D

 70 72  0  0  1  0  0  0  0  0999 V2000
  187.4650  176.9120  142.3440 C   0  0  0  0  0  0  0  0  0  0  0  0
  191.1140  174.1420  138.7590 C   0  0  0  0  0  2  0  0  0  0  0  0
  194.5350  173.8820  144.9270 C   0  0  0  0  0  2  0  0  0  0  0  0
  188.8930  173.2840  141.4960 O   0  0  0  0  0  1  0  0  0  0  0  0
  192.5970  174.2900  146.4650 C   0  0  0  0  0  2  0  0  0  0  0  0
  186.6510  177.9880  142.4470 C   0  0  0  0  0  0  0  0  0  0  0  0
  191.5750  173.2250  140.9700 C   0  0  0  0  0  2  0  0  0  0  0  0
  194.1400  172.2890  142.2560 C   0  0  0  0  0  2  0  0  0  0  0  0
  192.3210  171.9600  140.5670 C   0  0  0  0  0  2  0  0  0  0  0  0
  193.5840  173.2590  145.9400 C   0  0  0  0  0  2  0  0  0  0  0  0
  190.6140  173.4860  145.1880 C   0  0  0  0  0  1  0  0  0  0  0  0
  191.5600  174.6510  145.4130 C   0  0  1  0  0  3  0  0  0  0  0  0
  189.1270  176.2640  144.0720 C   0  0  0  0  0  2  0  0  0  0  0  0
  187.1720  175.3630  140.4080 C   0  0  0  0  0  2  0  0  0  0  0  0
  195.4660  172.8450  144.2950 C   0  0  2  0  0  3  0  0  0  0  0  0
  188.6430  175.1700  140.0500 C   0  0  0  0  0  2  0  0  0  0  0  0
  186.9720  175.5640  141.9010 C   0  0  0  0  0  2  0  0  0  0  0  0
  189.1250  173.7130  140.1840 C   0  0  1  0  0  0  0  0  0  0  0  0
  190.3890  176.7740  144.7640 C   0  0  2  0  0  3  0  0  0  0  0  0
  187.1870  179.2720  143.0120 C   0  0  0  0  0  1  0  0  0  0  0  0
  188.9010  177.0020  142.7710 C   0  0  0  0  0  2  0  0  0  0  0  0
  194.6910  171.7580  143.5610 C   0  0  0  0  0  2  0  0  0  0  0  0
  193.0320  171.3740  141.7740 C   0  0  0  0  0  2  0  0  0  0  0  0
  190.6140  173.6540  139.9000 C   0  0  0  0  0  0  0  0  0  0  0  0
  190.7700  175.8530  145.9060 C   0  0  0  0  0  2  0  0  0  0  0  0
  182.8800  178.1520  142.7280 C   0  0  0  0  0  3  0  0  0  0  0  0
  184.2350  178.1140  143.0590 C   0  0  0  0  0  3  0  0  0  0  0  0
  184.8090  177.9070  140.7240 C   0  0  0  0  0  3  0  0  0  0  0  0
  185.2140  177.9740  142.0640 C   0  0  0  0  0  0  0  0  0  0  0  0
  182.4820  178.0490  141.3920 C   0  0  0  0  0  0  0  0  0  0  0  0
  183.4520  177.9390  140.3890 C   0  0  0  0  0  3  0  0  0  0  0  0
  181.0290  178.1320  141.0520 C   0  0  0  0  0  2  0  0  0  0  0  0
  180.4960  179.5110  141.2680 C   0  0  0  0  0  0  0  0  0  0  0  0
  180.3460  180.4080  140.1740 N   0  0  0  0  0  1  0  0  0  0  0  0
  180.1460  179.8700  142.4260 O   0  0  0  0  0  0  0  0  0  0  0  0
  196.5550  172.0910  145.5390 S   0  0  0  0  0  0  0  0  0  0  0  0
  196.8730  170.6410  144.4910 C   0  0  0  0  0  2  0  0  0  0  0  0
  195.9790  169.4680  144.8950 C   0  0  2  0  0  3  0  0  0  0  0  0
  195.5510  168.1970  147.1360 C   0  0  1  0  0  3  0  0  0  0  0  0
  197.9390  168.3270  146.2720 C   0  0  0  0  0  1  0  0  0  0  0  0
  196.5000  168.7960  146.1710 C   0  0  1  0  0  0  0  0  0  0  0  0
  196.1030  169.4820  147.3330 O   0  0  0  0  0  0  0  0  0  0  0  0
  194.2240  168.3300  146.7070 O   0  0  0  0  0  1  0  0  0  0  0  0
  196.3920  168.8760  142.5840 O   0  0  0  0  0  1  0  0  0  0  0  0
  194.4480  168.1800  143.5550 O   0  0  0  0  0  1  0  0  0  0  0  0
  195.8030  168.4410  143.7730 C   0  0  0  0  0  3  0  0  0  0  0  0
  188.3540  172.7600  139.2520 C   0  0  0  0  0  2  0  0  0  0  0  0
  188.9000  172.6910  137.8260 C   0  0  0  0  0  2  0  0  0  0  0  0
  190.2220  171.0910  136.3610 C   0  0  0  0  0  0  0  0  0  0  0  0
  189.6730  171.4720  137.6270 N   0  0  0  0  0  2  0  0  0  0  0  0
  189.9020  171.7060  135.3110 O   0  0  0  0  0  0  0  0  0  0  0  0
  191.4460  169.7820  136.2840 S   0  0  0  0  0  0  0  0  0  0  0  0
  192.9330  170.8530  136.2200 C   0  0  1  0  0  3  0  0  0  0  0  0
  192.5250  172.3050  136.0070 C   0  0  0  0  0  1  0  0  0  0  0  0
  193.8880  170.6840  137.4180 C   0  0  2  0  0  3  0  0  0  0  0  0
  195.2850  171.8730  137.2660 P   0  0  2  0  0  0  0  0  0  0  0  0
  194.6730  173.4540  137.2440 O   0  0  0  0  0  0  0  0  0  0  0  0
  196.2070  171.6000  135.7240 C   0  0  0  0  0  1  0  0  0  0  0  0
  196.2390  171.7500  138.4310 O   0  0  0  0  0  1  0  0  0  0  0  0
  194.4690  168.8950  137.6020 P   0  0  1  0  0  0  0  0  0  0  0  0
  193.1330  168.2610  138.5130 O   0  0  0  0  0  1  0  0  0  0  0  0
  194.0200  168.1680  135.9480 C   0  0  0  0  0  1  0  0  0  0  0  0
  190.1590  178.1090  145.2970 N   0  0  0  0  0  2  0  0  0  0  0  0
  189.4810  177.9500  146.5720 C   0  0  0  0  0  2  0  0  0  0  0  0
  187.3500  178.6760  148.3020 O   0  0  0  0  0  0  0  0  0  0  0  0
  188.0770  177.6600  146.3320 N   0  0  0  0  0  2  0  0  0  0  0  0
  187.0520  178.0470  147.2510 C   0  0  0  0  0  0  0  0  0  0  0  0
  185.6490  177.7160  146.9640 C   0  0  0  0  0  0  0  0  0  0  0  0
  185.2900  176.6340  146.0060 C   0  0  0  0  0  1  0  0  0  0  0  0
  184.7310  178.3720  147.5240 O   0  0  0  0  0  0  0  0  0  0  0  0
  1  6  2  0  0  0  0
  1 21  1  0  0  0  0
  2 24  2  0  0  0  0
  3 10  1  0  0  0  0
  6 20  1  0  0  0  0
  8 22  1  0  0  0  0
  9  7  1  0  0  0  0
  9 23  1  0  0  0  0
 10  5  1  0  0  0  0
 12 11  1  1  0  0  0
 12 25  1  0  0  0  0
 12  5  1  0  0  0  0
 13 19  1  0  0  0  0
 14 17  1  0  0  0  0
 15  3  1  0  0  0  0
 15 36  1  1  0  0  0
 16 18  1  0  0  0  0
 16 14  1  0  0  0  0
 17  1  1  0  0  0  0
 18  4  1  1  0  0  0
 19 63  1  1  0  0  0
 19 25  1  0  0  0  0
 21 13  1  0  0  0  0
 22 15  1  0  0  0  0
 23  8  1  0  0  0  0
 24 18  1  0  0  0  0
 24  7  1  0  0  0  0
 26 27  1  0  0  0  0
 28 29  1  0  0  0  0
 29  6  1  0  0  0  0
 29 27  2  0  0  0  0
 30 26  2  0  0  0  0
 31 28  2  0  0  0  0
 31 30  1  0  0  0  0
 32 33  1  0  0  0  0
 32 30  1  0  0  0  0
 33 35  2  0  0  0  0
 34 33  1  0  0  0  0
 37 36  1  0  0  0  0
 38 37  1  6  0  0  0
 38 41  1  0  0  0  0
 39 43  1  6  0  0  0
 39 42  1  0  0  0  0
 41 40  1  6  0  0  0
 41 39  1  0  0  0  0
 41 42  1  0  0  0  0
 44 46  1  0  0  0  0
 45 46  1  0  0  0  0
 46 38  1  0  0  0  0
 47 18  1  0  0  0  0
 48 47  1  0  0  0  0
 49 50  1  0  0  0  0
 50 48  1  0  0  0  0
 51 49  2  0  0  0  0
 52 49  1  0  0  0  0
 53 54  1  1  0  0  0
 53 52  1  0  0  0  0
 55 53  1  6  0  0  0
 55 60  1  0  0  0  0
 56 58  1  6  0  0  0
 56 55  1  0  0  0  0
 56 59  1  0  0  0  0
 57 56  2  0  0  0  0
 60 62  1  6  0  0  0
 60 61  1  0  0  0  0
 63 64  1  0  0  0  0
 66 64  1  0  0  0  0
 66 67  1  0  0  0  0
 67 65  2  0  0  0  0
 68 67  1  0  0  0  0
 68 70  2  0  0  0  0
 69 68  1  0  0  0  0
M  END
>  <MODEL>
2

>  <REMARK>
 VINA RESULT:      -4.5      4.043     10.281
  Name = 
  20 active torsions:
  status: ('A' for Active; 'I' for Inactive)
    1  A    between atoms: C_3  and  C_15
    2  A    between atoms: C_3  and  P_16
    3  A    between atoms: C_3  and  P_28
    4  A    between atoms: C_5  and  C_51
    5  A    between atoms: C_7  and  C_21
    6  A    between atoms: S_12  and  C_41
    7  A    between atoms: S_12  and  C_46
    8  A    between atoms: C_13  and  C_26
    9  A    between atoms: C_14  and  S_54
   10  A    between atoms: C_15  and  S_54
   11  A    between atoms: C_17  and  C_25
   12  A    between atoms: C_19  and  C_45
   13  A    between atoms: C_19  and  C_55
   14  A    between atoms: C_21  and  C_47
   15  A    between atoms: N_24  and  C_56
   16  A    between atoms: C_25  and  C_41
   17  A    between atoms: C_25  and  C_66
   18  A    between atoms: N_32  and  C_45
   19  A    between atoms: N_40  and  C_56
   20  A    between atoms: N_40  and  C_57
                            x       y       z     vdW  Elec       q    Type
                         _______ _______ _______ _____ _____    ______ ____

>  <TORSDO>
F 20

$$$$
=
 OpenBabel11042413523D

 70 72  0  0  1  0  0  0  0  0999 V2000
  187.6980  176.6790  142.0870 C   0  0  0  0  0  0  0  0  0  0  0  0
  191.4770  173.8120  138.7180 C   0  0  0  0  0  2  0  0  0  0  0  0
  194.4610  173.3570  145.0990 C   0  0  0  0  0  2  0  0  0  0  0  0
  189.0450  173.0100  141.2880 O   0  0  0  0  0  1  0  0  0  0  0  0
  192.4390  173.8220  146.5080 C   0  0  0  0  0  2  0  0  0  0  0  0
  186.9190  177.7830  142.1490 C   0  0  0  0  0  0  0  0  0  0  0  0
  191.7530  172.8550  140.9440 C   0  0  0  0  0  2  0  0  0  0  0  0
  194.1890  171.8090  142.3870 C   0  0  0  0  0  2  0  0  0  0  0  0
  192.4770  171.5670  140.5750 C   0  0  0  0  0  2  0  0  0  0  0  0
  193.4210  172.7600  146.0380 C   0  0  0  0  0  2  0  0  0  0  0  0
  190.5190  173.1060  145.0900 C   0  0  0  0  0  1  0  0  0  0  0  0
  191.4900  174.2330  145.3930 C   0  0  1  0  0  3  0  0  0  0  0  0
  189.2150  175.9510  143.9130 C   0  0  0  0  0  2  0  0  0  0  0  0
  187.4800  175.1630  140.1140 C   0  0  0  0  0  2  0  0  0  0  0  0
  195.3930  172.2930  144.5170 C   0  0  2  0  0  3  0  0  0  0  0  0
  188.9640  174.9190  139.8540 C   0  0  0  0  0  2  0  0  0  0  0  0
  187.1870  175.3560  141.5940 C   0  0  0  0  0  2  0  0  0  0  0  0
  189.3810  173.4440  140.0000 C   0  0  1  0  0  0  0  0  0  0  0  0
  190.4450  176.4050  144.6950 C   0  0  2  0  0  3  0  0  0  0  0  0
  187.4630  179.0410  142.7650 C   0  0  0  0  0  1  0  0  0  0  0  0
  189.1040  176.7110  142.6100 C   0  0  0  0  0  2  0  0  0  0  0  0
  194.6300  171.2440  143.7190 C   0  0  0  0  0  2  0  0  0  0  0  0
  193.0830  170.9420  141.8190 C   0  0  0  0  0  2  0  0  0  0  0  0
  190.8840  173.3310  139.8170 C   0  0  0  0  0  0  0  0  0  0  0  0
  190.7130  175.4580  145.8480 C   0  0  0  0  0  2  0  0  0  0  0  0
  183.1420  178.0130  142.1860 C   0  0  0  0  0  3  0  0  0  0  0  0
  184.4690  177.9220  142.6040 C   0  0  0  0  0  3  0  0  0  0  0  0
  185.1990  177.8620  140.3040 C   0  0  0  0  0  3  0  0  0  0  0  0
  185.5130  177.8290  141.6700 C   0  0  0  0  0  0  0  0  0  0  0  0
  182.8350  178.0100  140.8220 C   0  0  0  0  0  0  0  0  0  0  0  0
  183.8690  177.9470  139.8820 C   0  0  0  0  0  3  0  0  0  0  0  0
  181.4100  178.1490  140.3920 C   0  0  0  0  0  2  0  0  0  0  0  0
  180.7020  179.2030  141.1780 C   0  0  0  0  0  0  0  0  0  0  0  0
  180.1030  178.8920  142.4300 N   0  0  0  0  0  1  0  0  0  0  0  0
  180.6650  180.3860  140.7420 O   0  0  0  0  0  0  0  0  0  0  0  0
  196.3670  171.4840  145.8220 S   0  0  0  0  0  0  0  0  0  0  0  0
  197.7200  171.0930  144.6740 C   0  0  0  0  0  2  0  0  0  0  0  0
  197.1880  170.8730  143.2580 C   0  0  2  0  0  3  0  0  0  0  0  0
  196.5880  168.3440  143.5040 C   0  0  1  0  0  3  0  0  0  0  0  0
  197.9400  169.0590  141.4720 C   0  0  0  0  0  1  0  0  0  0  0  0
  197.3610  169.4110  142.8290 C   0  0  1  0  0  0  0  0  0  0  0  0
  197.9290  168.6230  143.8470 O   0  0  0  0  0  0  0  0  0  0  0  0
  195.7440  168.8620  144.4930 O   0  0  0  0  0  1  0  0  0  0  0  0
  197.5730  173.1560  142.5470 O   0  0  0  0  0  1  0  0  0  0  0  0
  197.3410  171.5420  140.9500 O   0  0  0  0  0  1  0  0  0  0  0  0
  197.8220  171.8180  142.2320 C   0  0  0  0  0  3  0  0  0  0  0  0
  188.6410  172.5300  139.0070 C   0  0  0  0  0  2  0  0  0  0  0  0
  188.7530  172.9630  137.5450 C   0  0  0  0  0  2  0  0  0  0  0  0
  189.8930  172.1060  135.4430 C   0  0  0  0  0  0  0  0  0  0  0  0
  189.3000  171.8880  136.7280 N   0  0  0  0  0  2  0  0  0  0  0  0
  189.8030  173.2250  134.8760 O   0  0  0  0  0  0  0  0  0  0  0  0
  190.8500  170.7960  134.6770 S   0  0  0  0  0  0  0  0  0  0  0  0
  192.5140  171.4760  135.0430 C   0  0  1  0  0  3  0  0  0  0  0  0
  192.6280  172.8990  134.5140 C   0  0  0  0  0  1  0  0  0  0  0  0
  192.9310  171.3680  136.5230 C   0  0  2  0  0  3  0  0  0  0  0  0
  194.4420  172.3780  136.8140 P   0  0  2  0  0  0  0  0  0  0  0  0
  195.6710  171.8580  135.7690 O   0  0  0  0  0  0  0  0  0  0  0  0
  195.0330  172.1870  138.5230 C   0  0  0  0  0  1  0  0  0  0  0  0
  194.1820  173.8420  136.5510 O   0  0  0  0  0  1  0  0  0  0  0  0
  193.1410  169.5680  137.0610 P   0  0  1  0  0  0  0  0  0  0  0  0
  191.4740  169.1630  137.3310 O   0  0  0  0  0  1  0  0  0  0  0  0
  193.3560  168.6970  135.4300 C   0  0  0  0  0  1  0  0  0  0  0  0
  190.2290  177.7420  145.2300 N   0  0  0  0  0  2  0  0  0  0  0  0
  189.4990  177.5930  146.4770 C   0  0  0  0  0  2  0  0  0  0  0  0
  186.9210  176.4060  146.3990 O   0  0  0  0  0  0  0  0  0  0  0  0
  188.2470  178.3250  146.3890 N   0  0  0  0  0  2  0  0  0  0  0  0
  186.9800  177.6650  146.3440 C   0  0  0  0  0  0  0  0  0  0  0  0
  185.7450  178.4550  146.2420 C   0  0  0  0  0  0  0  0  0  0  0  0
  184.5240  178.0820  147.0080 C   0  0  0  0  0  1  0  0  0  0  0  0
  185.7120  179.4560  145.4790 O   0  0  0  0  0  0  0  0  0  0  0  0
  1  6  2  0  0  0  0
  1 21  1  0  0  0  0
  2 24  2  0  0  0  0
  3 10  1  0  0  0  0
  6 20  1  0  0  0  0
  8 22  1  0  0  0  0
  9  7  1  0  0  0  0
  9 23  1  0  0  0  0
 10  5  1  0  0  0  0
 12 11  1  1  0  0  0
 12 25  1  0  0  0  0
 12  5  1  0  0  0  0
 13 19  1  0  0  0  0
 14 17  1  0  0  0  0
 15  3  1  0  0  0  0
 15 36  1  1  0  0  0
 16 18  1  0  0  0  0
 16 14  1  0  0  0  0
 17  1  1  0  0  0  0
 18  4  1  1  0  0  0
 19 63  1  1  0  0  0
 19 25  1  0  0  0  0
 21 13  1  0  0  0  0
 22 15  1  0  0  0  0
 23  8  1  0  0  0  0
 24 18  1  0  0  0  0
 24  7  1  0  0  0  0
 26 27  1  0  0  0  0
 28 29  1  0  0  0  0
 29  6  1  0  0  0  0
 29 27  2  0  0  0  0
 30 26  2  0  0  0  0
 31 28  2  0  0  0  0
 31 30  1  0  0  0  0
 32 30  1  0  0  0  0
 32 33  1  0  0  0  0
 33 34  1  0  0  0  0
 35 33  2  0  0  0  0
 37 36  1  0  0  0  0
 38 37  1  1  0  0  0
 39 42  1  0  0  0  0
 39 43  1  1  0  0  0
 41 40  1  6  0  0  0
 41 38  1  0  0  0  0
 41 39  1  0  0  0  0
 41 42  1  0  0  0  0
 45 46  1  0  0  0  0
 46 44  1  0  0  0  0
 46 38  1  0  0  0  0
 47 18  1  0  0  0  0
 48 47  1  0  0  0  0
 49 50  1  0  0  0  0
 50 48  1  0  0  0  0
 51 49  2  0  0  0  0
 52 53  1  0  0  0  0
 52 49  1  0  0  0  0
 53 54  1  1  0  0  0
 55 53  1  6  0  0  0
 55 56  1  0  0  0  0
 55 60  1  0  0  0  0
 56 58  1  1  0  0  0
 57 56  2  0  0  0  0
 59 56  1  0  0  0  0
 60 62  1  6  0  0  0
 60 61  1  0  0  0  0
 63 64  1  0  0  0  0
 66 64  1  0  0  0  0
 67 66  1  0  0  0  0
 67 65  2  0  0  0  0
 68 67  1  0  0  0  0
 68 69  1  0  0  0  0
 70 68  2  0  0  0  0
M  END
>  <MODEL>
3

>  <REMARK>
 VINA RESULT:      -3.5      3.951     10.250
  Name = 
  20 active torsions:
  status: ('A' for Active; 'I' for Inactive)
    1  A    between atoms: C_3  and  C_15
    2  A    between atoms: C_3  and  P_16
    3  A    between atoms: C_3  and  P_28
    4  A    between atoms: C_5  and  C_51
    5  A    between atoms: C_7  and  C_21
    6  A    between atoms: S_12  and  C_41
    7  A    between atoms: S_12  and  C_46
    8  A    between atoms: C_13  and  C_26
    9  A    between atoms: C_14  and  S_54
   10  A    between atoms: C_15  and  S_54
   11  A    between atoms: C_17  and  C_25
   12  A    between atoms: C_19  and  C_45
   13  A    between atoms: C_19  and  C_55
   14  A    between atoms: C_21  and  C_47
   15  A    between atoms: N_24  and  C_56
   16  A    between atoms: C_25  and  C_41
   17  A    between atoms: C_25  and  C_66
   18  A    between atoms: N_32  and  C_45
   19  A    between atoms: N_40  and  C_56
   20  A    between atoms: N_40  and  C_57
                            x       y       z     vdW  Elec       q    Type
                         _______ _______ _______ _____ _____    ______ ____

>  <TORSDO>
F 20

$$$$
=
 OpenBabel11042413523D

 70 72  0  0  1  0  0  0  0  0999 V2000
  195.2380  173.4470  140.2950 C   0  0  0  0  0  0  0  0  0  0  0  0
  192.9810  170.4320  144.7290 C   0  0  0  0  0  2  0  0  0  0  0  0
  190.5580  176.9540  145.9210 C   0  0  0  0  0  2  0  0  0  0  0  0
  191.7880  172.0030  141.6850 O   0  0  0  0  0  1  0  0  0  0  0  0
  190.8430  177.9030  143.6160 C   0  0  0  0  0  2  0  0  0  0  0  0
  196.3620  173.6250  139.5640 C   0  0  0  0  0  0  0  0  0  0  0  0
  191.4490  172.2980  144.3820 C   0  0  0  0  0  2  0  0  0  0  0  0
  189.8140  173.9360  146.3190 C   0  0  0  0  0  2  0  0  0  0  0  0
  190.2350  171.7700  145.1350 C   0  0  0  0  0  2  0  0  0  0  0  0
  189.8470  177.4060  144.6520 C   0  0  0  0  0  2  0  0  0  0  0  0
  190.7290  175.9190  142.1120 C   0  0  0  0  0  1  0  0  0  0  0  0
  191.6290  176.7520  143.0060 C   0  0  1  0  0  3  0  0  0  0  0  0
  193.9020  175.3070  141.2560 C   0  0  0  0  0  2  0  0  0  0  0  0
  194.3240  171.1370  140.5520 C   0  0  0  0  0  2  0  0  0  0  0  0
  189.5940  176.3420  146.9380 C   0  0  2  0  0  3  0  0  0  0  0  0
  194.0050  171.1870  142.0440 C   0  0  0  0  0  2  0  0  0  0  0  0
  194.1510  172.4940  139.8890 C   0  0  0  0  0  2  0  0  0  0  0  0
  192.5080  171.0110  142.3600 C   0  0  1  0  0  0  0  0  0  0  0  0
  194.0050  176.4600  142.2520 C   0  0  2  0  0  3  0  0  0  0  0  0
  197.3490  174.6820  139.9680 C   0  0  0  0  0  1  0  0  0  0  0  0
  194.9850  174.2830  141.5150 C   0  0  0  0  0  2  0  0  0  0  0  0
  188.8760  175.1210  146.3760 C   0  0  0  0  0  2  0  0  0  0  0  0
  189.2460  172.8970  145.3720 C   0  0  0  0  0  2  0  0  0  0  0  0
  192.2920  171.1740  143.8540 C   0  0  0  0  0  0  0  0  0  0  0  0
  192.7650  177.3300  142.1780 C   0  0  0  0  0  2  0  0  0  0  0  0
  197.2430  170.7230  137.3010 C   0  0  0  0  0  3  0  0  0  0  0  0
  196.9880  171.4870  138.4390 C   0  0  0  0  0  3  0  0  0  0  0  0
  196.5940  173.4270  137.0600 C   0  0  0  0  0  3  0  0  0  0  0  0
  196.6770  172.8510  138.3340 C   0  0  0  0  0  0  0  0  0  0  0  0
  197.1940  171.3130  136.0350 C   0  0  0  0  0  0  0  0  0  0  0  0
  196.8550  172.6650  135.9160 C   0  0  0  0  0  3  0  0  0  0  0  0
  197.4300  170.4690  134.8240 C   0  0  0  0  0  2  0  0  0  0  0  0
  196.9290  169.0760  135.0220 C   0  0  0  0  0  0  0  0  0  0  0  0
  195.6000  168.7260  134.6550 N   0  0  0  0  0  1  0  0  0  0  0  0
  197.7040  168.1960  135.4900 O   0  0  0  0  0  0  0  0  0  0  0  0
  188.3740  177.5630  147.5090 S   0  0  0  0  0  0  0  0  0  0  0  0
  187.8440  177.9390  145.8120 C   0  0  0  0  0  2  0  0  0  0  0  0
  186.3430  177.7040  145.6440 C   0  0  2  0  0  3  0  0  0  0  0  0
  185.3990  176.8870  143.3500 C   0  0  1  0  0  3  0  0  0  0  0  0
  185.5420  179.3930  143.7600 C   0  0  0  0  0  1  0  0  0  0  0  0
  185.9030  177.9880  144.2030 C   0  0  1  0  0  0  0  0  0  0  0  0
  186.7300  177.3520  143.2600 O   0  0  0  0  0  0  0  0  0  0  0  0
  185.3860  175.6660  144.0350 O   0  0  0  0  0  1  0  0  0  0  0  0
  185.9630  178.3530  147.9460 O   0  0  0  0  0  1  0  0  0  0  0  0
  184.1590  178.1260  146.5670 O   0  0  0  0  0  1  0  0  0  0  0  0
  185.5000  178.5100  146.6380 C   0  0  0  0  0  3  0  0  0  0  0  0
  191.9690  169.6510  141.8770 C   0  0  0  0  0  2  0  0  0  0  0  0
  192.0470  169.4430  140.3650 C   0  0  0  0  0  2  0  0  0  0  0  0
  190.3620  169.8520  138.5080 C   0  0  0  0  0  0  0  0  0  0  0  0
  191.0710  170.2770  139.6770 N   0  0  0  0  0  2  0  0  0  0  0  0
  190.6890  168.7950  137.9090 O   0  0  0  0  0  0  0  0  0  0  0  0
  188.9390  170.7880  137.9460 S   0  0  0  0  0  0  0  0  0  0  0  0
  189.6330  171.3250  136.3340 C   0  0  1  0  0  3  0  0  0  0  0  0
  188.6170  172.1760  135.5840 C   0  0  0  0  0  1  0  0  0  0  0  0
  191.0100  172.0090  136.4340 C   0  0  2  0  0  3  0  0  0  0  0  0
  190.7880  173.7770  136.9010 P   0  0  2  0  0  0  0  0  0  0  0  0
  189.3570  173.9420  137.7940 O   0  0  0  0  0  1  0  0  0  0  0  0
  190.6590  174.8280  135.4240 C   0  0  0  0  0  1  0  0  0  0  0  0
  191.9370  174.2680  137.7480 O   0  0  0  0  0  0  0  0  0  0  0  0
  192.0140  171.7950  134.8480 P   0  0  1  0  0  0  0  0  0  0  0  0
  193.3890  172.7750  135.2550 O   0  0  0  0  0  1  0  0  0  0  0  0
  192.8020  170.1280  135.1080 C   0  0  0  0  0  1  0  0  0  0  0  0
  195.1700  177.2790  141.9470 N   0  0  0  0  0  2  0  0  0  0  0  0
  196.2330  176.8630  142.8450 C   0  0  0  0  0  2  0  0  0  0  0  0
  197.7170  175.2010  144.6050 O   0  0  0  0  0  0  0  0  0  0  0  0
  195.6640  176.0780  143.9280 N   0  0  0  0  0  2  0  0  0  0  0  0
  196.4680  175.2530  144.7740 C   0  0  0  0  0  0  0  0  0  0  0  0
  195.8380  174.4700  145.8460 C   0  0  0  0  0  0  0  0  0  0  0  0
  194.4110  174.6780  146.2180 C   0  0  0  0  0  1  0  0  0  0  0  0
  196.5220  173.6200  146.4760 O   0  0  0  0  0  0  0  0  0  0  0  0
  1 21  1  0  0  0  0
  3 15  1  0  0  0  0
  5 10  1  0  0  0  0
  6 20  1  0  0  0  0
  6  1  2  0  0  0  0
  7  9  1  0  0  0  0
  8 22  1  0  0  0  0
  9 23  1  0  0  0  0
 10  3  1  0  0  0  0
 12 11  1  6  0  0  0
 12  5  1  0  0  0  0
 13 21  1  0  0  0  0
 13 19  1  0  0  0  0
 14 16  1  0  0  0  0
 15 36  1  6  0  0  0
 16 18  1  0  0  0  0
 17  1  1  0  0  0  0
 17 14  1  0  0  0  0
 18  4  1  6  0  0  0
 18 24  1  0  0  0  0
 19 63  1  6  0  0  0
 22 15  1  0  0  0  0
 23  8  1  0  0  0  0
 24  7  1  0  0  0  0
 24  2  2  0  0  0  0
 25 19  1  0  0  0  0
 25 12  1  0  0  0  0
 26 27  1  0  0  0  0
 28 29  1  0  0  0  0
 29 27  2  0  0  0  0
 29  6  1  0  0  0  0
 30 26  2  0  0  0  0
 31 30  1  0  0  0  0
 31 28  2  0  0  0  0
 32 33  1  0  0  0  0
 32 30  1  0  0  0  0
 33 35  2  0  0  0  0
 34 33  1  0  0  0  0
 37 36  1  0  0  0  0
 38 37  1  6  0  0  0
 38 46  1  0  0  0  0
 39 43  1  1  0  0  0
 39 41  1  0  0  0  0
 41 40  1  6  0  0  0
 41 38  1  0  0  0  0
 42 39  1  0  0  0  0
 42 41  1  0  0  0  0
 45 46  1  0  0  0  0
 46 44  1  0  0  0  0
 47 18  1  0  0  0  0
 48 47  1  0  0  0  0
 49 50  1  0  0  0  0
 50 48  1  0  0  0  0
 51 49  2  0  0  0  0
 52 49  1  0  0  0  0
 53 54  1  1  0  0  0
 53 52  1  0  0  0  0
 55 53  1  6  0  0  0
 55 56  1  0  0  0  0
 56 58  1  6  0  0  0
 56 59  2  0  0  0  0
 56 57  1  0  0  0  0
 60 62  1  1  0  0  0
 60 61  1  0  0  0  0
 60 55  1  0  0  0  0
 63 64  1  0  0  0  0
 64 66  1  0  0  0  0
 65 67  2  0  0  0  0
 66 67  1  0  0  0  0
 67 68  1  0  0  0  0
 68 69  1  0  0  0  0
 68 70  2  0  0  0  0
M  END
>  <MODEL>
4

>  <REMARK>
 VINA RESULT:      -2.6      0.975      2.034
  Name = 
  20 active torsions:
  status: ('A' for Active; 'I' for Inactive)
    1  A    between atoms: C_3  and  C_15
    2  A    between atoms: C_3  and  P_16
    3  A    between atoms: C_3  and  P_28
    4  A    between atoms: C_5  and  C_51
    5  A    between atoms: C_7  and  C_21
    6  A    between atoms: S_12  and  C_41
    7  A    between atoms: S_12  and  C_46
    8  A    between atoms: C_13  and  C_26
    9  A    between atoms: C_14  and  S_54
   10  A    between atoms: C_15  and  S_54
   11  A    between atoms: C_17  and  C_25
   12  A    between atoms: C_19  and  C_45
   13  A    between atoms: C_19  and  C_55
   14  A    between atoms: C_21  and  C_47
   15  A    between atoms: N_24  and  C_56
   16  A    between atoms: C_25  and  C_41
   17  A    between atoms: C_25  and  C_66
   18  A    between atoms: N_32  and  C_45
   19  A    between atoms: N_40  and  C_56
   20  A    between atoms: N_40  and  C_57
                            x       y       z     vdW  Elec       q    Type
                         _______ _______ _______ _____ _____    ______ ____

>  <TORSDO>
F 20

$$$$
