=
 OpenBabel11042418373D

 37 39  0  0  1  0  0  0  0  0999 V2000
  193.1250  175.1350  146.4950 C   0  0  0  0  0  1  0  0  0  0  0  0
  193.8150  175.1960  145.1240 C   0  0  1  0  0  0  0  0  0  0  0  0
  193.2020  176.3190  144.2500 C   0  0  1  0  0  3  0  0  0  0  0  0
  192.9810  175.8430  142.4990 S   0  0  0  0  0  1  0  0  0  0  0  0
  191.8750  176.8350  144.7990 C   0  0  0  0  0  2  0  0  0  0  0  0
  191.3150  177.9160  143.8930 C   0  0  0  0  0  2  0  0  0  0  0  0
  184.3560  179.1630  144.1580 N   0  0  0  0  0  0  0  0  0  0  0  0
  185.8100  177.6470  144.8240 C   0  0  0  0  0  0  0  0  0  0  0  0
  189.8860  177.6360  143.5880 C   0  0  0  0  0  0  0  0  0  0  0  0
  186.7360  176.8640  145.3500 C   0  0  0  0  0  2  0  0  0  0  0  0
  184.0580  178.3870  146.5440 C   0  0  0  0  0  1  0  0  0  0  0  0
  189.1260  177.0070  144.5030 C   0  0  0  0  0  3  0  0  0  0  0  0
  187.1490  177.4860  143.1000 C   0  0  2  0  0  3  0  0  0  0  0  0
  187.7030  176.6110  144.2000 C   0  0  2  0  0  3  0  0  0  0  0  0
  184.7100  178.3720  145.2070 C   0  0  0  0  0  0  0  0  0  0  0  0
  188.0000  178.0570  142.0550 C   0  0  0  0  0  3  0  0  0  0  0  0
  185.2060  178.9300  143.1840 O   0  0  0  0  0  0  0  0  0  0  0  0
  186.0550  178.0180  143.5800 C   0  0  0  0  0  0  0  0  0  0  0  0
  189.3170  178.0970  142.2920 C   0  0  0  0  0  3  0  0  0  0  0  0
  195.3010  175.5280  145.3440 C   0  0  0  0  0  2  0  0  0  0  0  0
  196.7750  175.9390  143.3770 C   0  0  0  0  0  1  0  0  0  0  0  0
  196.2340  174.8820  144.3240 C   0  0  1  0  0  3  0  0  0  0  0  0
  197.3830  174.2120  145.0590 C   0  0  0  0  0  2  0  0  0  0  0  0
  196.7300  172.1180  146.0160 O   0  0  0  0  0  1  0  0  0  0  0  0
  196.8900  173.4760  146.2940 C   0  0  0  0  0  2  0  0  0  0  0  0
  193.7480  173.9110  144.4090 N   0  0  0  0  0  2  0  0  0  0  0  0
  193.0280  172.9580  145.1520 N   0  0  0  0  0  2  0  0  0  0  0  0
  191.9790  172.4500  144.2840 C   0  0  0  0  0  2  0  0  0  0  0  0
  189.7830  173.4840  143.7290 C   0  0  0  0  0  3  0  0  0  0  0  0
  190.6710  173.0810  144.6440 C   0  0  0  0  0  3  0  0  0  0  0  0
  190.0100  173.3620  142.2480 C   0  0  2  0  0  3  0  0  0  0  0  0
  189.1150  174.1500  140.1660 O   0  0  0  0  0  1  0  0  0  0  0  0
  189.3810  174.5230  141.4840 C   0  0  0  0  0  2  0  0  0  0  0  0
  189.5280  172.1090  141.7590 O   0  0  0  0  0  0  0  0  0  0  0  0
  190.5980  170.0680  142.0060 O   0  0  0  0  0  0  0  0  0  0  0  0
  190.9070  171.1620  139.9870 N   0  0  0  0  0  1  0  0  0  0  0  0
  190.3490  171.0740  141.2910 C   0  0  0  0  0  0  0  0  0  0  0  0
  2 20  1  0  0  0  0
  2  1  1  1  0  0  0
  3  4  1  6  0  0  0
  3  5  1  0  0  0  0
  3  2  1  0  0  0  0
  6  5  1  0  0  0  0
  7 15  2  0  0  0  0
  8 15  1  0  0  0  0
  8 10  1  0  0  0  0
  9  6  1  0  0  0  0
  9 12  2  0  0  0  0
 13 16  1  1  0  0  0
 13 18  1  0  0  0  0
 13 14  1  0  0  0  0
 14 12  1  1  0  0  0
 14 10  1  0  0  0  0
 15 11  1  0  0  0  0
 16 19  2  0  0  0  0
 17 18  1  0  0  0  0
 17  7  1  0  0  0  0
 18  8  2  0  0  0  0
 19  9  1  0  0  0  0
 22 21  1  6  0  0  0
 22 23  1  0  0  0  0
 22 20  1  0  0  0  0
 23 25  1  0  0  0  0
 24 25  1  0  0  0  0
 26  2  1  0  0  0  0
 26 27  1  0  0  0  0
 28 30  1  0  0  0  0
 28 27  1  0  0  0  0
 29 30  2  0  0  0  0
 31 33  1  6  0  0  0
 31 29  1  0  0  0  0
 32 33  1  0  0  0  0
 34 31  1  0  0  0  0
 36 37  1  0  0  0  0
 37 34  1  0  0  0  0
 37 35  2  0  0  0  0
M  END
>  <MODEL>
1

>  <REMARK>
 VINA RESULT:      -6.3      0.000      0.000
  Name = 
  16 active torsions:
  status: ('A' for Active; 'I' for Inactive)
    1  A    between atoms: C_2  and  N_6
    2  A    between atoms: C_2  and  C_20
    3  A    between atoms: C_3  and  C_4
    4  A    between atoms: C_4  and  O_10
    5  A    between atoms: C_4  and  C_27
    6  A    between atoms: N_6  and  N_14
    7  A    between atoms: C_8  and  C_15
    8  A    between atoms: C_8  and  C_17
    9  A    between atoms: O_10  and  C_33
   10  A    between atoms: C_11  and  C_29
   11  A    between atoms: C_11  and  C_36
   12  A    between atoms: C_13  and  C_15
   13  A    between atoms: C_13  and  C_16
   14  A    between atoms: N_14  and  C_17
   15  A    between atoms: C_17  and  C_19
   16  A    between atoms: C_19  and  C_29
                            x       y       z     vdW  Elec       q    Type
                         _______ _______ _______ _____ _____    ______ ____

>  <TORSDO>
F 16

$$$$
=
 OpenBabel11042418373D

 37 39  0  0  1  0  0  0  0  0999 V2000
  193.1870  174.0830  145.7250 C   0  0  0  0  0  1  0  0  0  0  0  0
  191.8350  174.6850  145.3130 C   0  0  1  0  0  0  0  0  0  0  0  0
  190.8190  174.6040  146.4790 C   0  0  1  0  0  3  0  0  0  0  0  0
  191.0830  175.8740  147.7670 S   0  0  0  0  0  1  0  0  0  0  0  0
  189.3700  174.6670  146.0030 C   0  0  0  0  0  2  0  0  0  0  0  0
  188.5090  175.3770  147.0310 C   0  0  0  0  0  2  0  0  0  0  0  0
  183.9270  178.1120  142.3850 N   0  0  0  0  0  0  0  0  0  0  0  0
  186.0780  178.1940  142.8590 C   0  0  0  0  0  0  0  0  0  0  0  0
  187.7460  176.4790  146.3840 C   0  0  0  0  0  0  0  0  0  0  0  0
  187.3760  178.0710  143.0740 C   0  0  0  0  0  2  0  0  0  0  0  0
  185.4600  177.9190  140.3860 C   0  0  0  0  0  1  0  0  0  0  0  0
  188.1950  177.0020  145.2280 C   0  0  0  0  0  3  0  0  0  0  0  0
  186.0770  178.2620  145.0480 C   0  0  2  0  0  3  0  0  0  0  0  0
  187.5130  178.1850  144.5870 C   0  0  2  0  0  3  0  0  0  0  0  0
  185.1720  178.1000  141.8340 C   0  0  0  0  0  0  0  0  0  0  0  0
  185.6540  177.7840  146.3640 C   0  0  0  0  0  3  0  0  0  0  0  0
  184.0730  178.2060  143.6870 O   0  0  0  0  0  0  0  0  0  0  0  0
  185.3500  178.2710  143.9590 C   0  0  0  0  0  0  0  0  0  0  0  0
  186.4800  176.9490  147.0080 C   0  0  0  0  0  3  0  0  0  0  0  0
  192.0500  176.1710  144.9780 C   0  0  0  0  0  2  0  0  0  0  0  0
  191.3670  177.8920  143.3100 C   0  0  0  0  0  1  0  0  0  0  0  0
  191.9260  176.4910  143.4910 C   0  0  1  0  0  3  0  0  0  0  0  0
  193.3000  176.3990  142.8480 C   0  0  0  0  0  2  0  0  0  0  0  0
  194.1840  174.2990  142.1120 O   0  0  0  0  0  1  0  0  0  0  0  0
  193.3240  175.3390  141.7580 C   0  0  0  0  0  2  0  0  0  0  0  0
  191.2780  174.0350  144.1150 N   0  0  0  0  0  2  0  0  0  0  0  0
  191.5970  172.6660  144.0910 N   0  0  0  0  0  2  0  0  0  0  0  0
  190.8850  172.0870  142.9640 C   0  0  0  0  0  2  0  0  0  0  0  0
  188.4420  172.4160  142.6100 C   0  0  0  0  0  3  0  0  0  0  0  0
  189.4450  171.8890  143.3210 C   0  0  0  0  0  3  0  0  0  0  0  0
  188.6540  173.2730  141.3920 C   0  0  2  0  0  3  0  0  0  0  0  0
  189.1740  175.5820  141.7910 O   0  0  0  0  0  1  0  0  0  0  0  0
  188.1200  174.6870  141.5980 C   0  0  0  0  0  2  0  0  0  0  0  0
  188.0690  172.6700  140.2360 O   0  0  0  0  0  0  0  0  0  0  0  0
  188.1440  173.3780  138.0300 O   0  0  0  0  0  0  0  0  0  0  0  0
  189.8120  171.9180  138.7080 N   0  0  0  0  0  1  0  0  0  0  0  0
  188.6440  172.6880  138.9580 C   0  0  0  0  0  0  0  0  0  0  0  0
  2  1  1  1  0  0  0
  2  3  1  0  0  0  0
  3  4  1  1  0  0  0
  5  3  1  0  0  0  0
  5  6  1  0  0  0  0
  7 17  1  0  0  0  0
  8 10  1  0  0  0  0
  8 18  2  0  0  0  0
  9 19  1  0  0  0  0
  9  6  1  0  0  0  0
 11 15  1  0  0  0  0
 12  9  2  0  0  0  0
 13 16  1  1  0  0  0
 14 10  1  6  0  0  0
 14 13  1  0  0  0  0
 14 12  1  0  0  0  0
 15  7  2  0  0  0  0
 15  8  1  0  0  0  0
 16 19  2  0  0  0  0
 17 18  1  0  0  0  0
 18 13  1  0  0  0  0
 20  2  1  0  0  0  0
 22 21  1  1  0  0  0
 22 20  1  0  0  0  0
 23 22  1  0  0  0  0
 25 24  1  0  0  0  0
 25 23  1  0  0  0  0
 26  2  1  0  0  0  0
 27 26  1  0  0  0  0
 28 30  1  0  0  0  0
 28 27  1  0  0  0  0
 29 30  2  0  0  0  0
 31 33  1  1  0  0  0
 31 29  1  0  0  0  0
 33 32  1  0  0  0  0
 34 31  1  0  0  0  0
 35 37  2  0  0  0  0
 36 37  1  0  0  0  0
 37 34  1  0  0  0  0
M  END
>  <MODEL>
2

>  <REMARK>
 VINA RESULT:      -6.3      2.377      3.582
  Name = 
  16 active torsions:
  status: ('A' for Active; 'I' for Inactive)
    1  A    between atoms: C_2  and  N_6
    2  A    between atoms: C_2  and  C_20
    3  A    between atoms: C_3  and  C_4
    4  A    between atoms: C_4  and  O_10
    5  A    between atoms: C_4  and  C_27
    6  A    between atoms: N_6  and  N_14
    7  A    between atoms: C_8  and  C_15
    8  A    between atoms: C_8  and  C_17
    9  A    between atoms: O_10  and  C_33
   10  A    between atoms: C_11  and  C_29
   11  A    between atoms: C_11  and  C_36
   12  A    between atoms: C_13  and  C_15
   13  A    between atoms: C_13  and  C_16
   14  A    between atoms: N_14  and  C_17
   15  A    between atoms: C_17  and  C_19
   16  A    between atoms: C_19  and  C_29
                            x       y       z     vdW  Elec       q    Type
                         _______ _______ _______ _____ _____    ______ ____

>  <TORSDO>
F 16

$$$$
=
 OpenBabel11042418373D

 37 39  0  0  1  0  0  0  0  0999 V2000
  189.9520  177.8950  144.8420 C   0  0  0  0  0  1  0  0  0  0  0  0
  188.9200  176.9450  145.4700 C   0  0  1  0  0  0  0  0  0  0  0  0
  189.3750  176.4960  146.8810 C   0  0  1  0  0  3  0  0  0  0  0  0
  188.9560  174.7590  147.2640 S   0  0  0  0  0  1  0  0  0  0  0  0
  190.8660  176.7160  147.1170 C   0  0  0  0  0  2  0  0  0  0  0  0
  191.5710  175.3840  147.3010 C   0  0  0  0  0  2  0  0  0  0  0  0
  195.8720  175.9210  141.7090 N   0  0  0  0  0  0  0  0  0  0  0  0
  195.2770  174.4360  143.2260 C   0  0  0  0  0  0  0  0  0  0  0  0
  192.8930  175.4080  146.6190 C   0  0  0  0  0  0  0  0  0  0  0  0
  194.7590  173.5360  144.0430 C   0  0  0  0  0  2  0  0  0  0  0  0
  195.3790  173.6160  140.7980 C   0  0  0  0  0  1  0  0  0  0  0  0
  193.3420  174.2960  146.0090 C   0  0  0  0  0  3  0  0  0  0  0  0
  195.1840  175.6380  145.0530 C   0  0  2  0  0  3  0  0  0  0  0  0
  194.7170  174.2420  145.3920 C   0  0  2  0  0  3  0  0  0  0  0  0
  195.5320  174.6150  141.8900 C   0  0  0  0  0  0  0  0  0  0  0  0
  194.7590  176.8090  145.8210 C   0  0  0  0  0  3  0  0  0  0  0  0
  195.8240  176.5070  142.8840 O   0  0  0  0  0  0  0  0  0  0  0  0
  195.4870  175.6160  143.7810 C   0  0  0  0  0  0  0  0  0  0  0  0
  193.6720  176.6760  146.5910 C   0  0  0  0  0  3  0  0  0  0  0  0
  187.5930  177.7070  145.6230 C   0  0  0  0  0  2  0  0  0  0  0  0
  185.4740  176.7610  146.5340 C   0  0  0  0  0  1  0  0  0  0  0  0
  186.3600  176.8660  145.3040 C   0  0  1  0  0  3  0  0  0  0  0  0
  185.5900  177.5250  144.1700 C   0  0  0  0  0  2  0  0  0  0  0  0
  185.3440  179.9000  144.0160 O   0  0  0  0  0  1  0  0  0  0  0  0
  186.2260  178.8470  143.7720 C   0  0  0  0  0  2  0  0  0  0  0  0
  188.6620  175.7670  144.6270 N   0  0  0  0  0  2  0  0  0  0  0  0
  189.4370  175.8070  143.4540 N   0  0  0  0  0  2  0  0  0  0  0  0
  190.4430  174.7650  143.5770 C   0  0  0  0  0  2  0  0  0  0  0  0
  191.8630  174.3880  141.5670 C   0  0  0  0  0  3  0  0  0  0  0  0
  191.6050  175.0730  142.6860 C   0  0  0  0  0  3  0  0  0  0  0  0
  191.0270  173.2300  141.0960 C   0  0  2  0  0  3  0  0  0  0  0  0
  191.6410  171.1330  142.0870 O   0  0  0  0  0  1  0  0  0  0  0  0
  191.8500  171.9520  140.9760 C   0  0  0  0  0  2  0  0  0  0  0  0
  190.3800  173.5380  139.8590 O   0  0  0  0  0  0  0  0  0  0  0  0
  188.4800  174.7620  140.3700 O   0  0  0  0  0  0  0  0  0  0  0  0
  188.2180  173.0240  138.8590 N   0  0  0  0  0  1  0  0  0  0  0  0
  189.0140  173.8180  139.7290 C   0  0  0  0  0  0  0  0  0  0  0  0
  2  1  1  6  0  0  0
  2 20  1  0  0  0  0
  2  3  1  0  0  0  0
  3  5  1  0  0  0  0
  3  4  1  6  0  0  0
  5  6  1  0  0  0  0
  7 15  2  0  0  0  0
  7 17  1  0  0  0  0
  8 18  2  0  0  0  0
  8 10  1  0  0  0  0
  9  6  1  0  0  0  0
 11 15  1  0  0  0  0
 12  9  2  0  0  0  0
 13 14  1  0  0  0  0
 13 16  1  6  0  0  0
 14 10  1  6  0  0  0
 14 12  1  0  0  0  0
 15  8  1  0  0  0  0
 16 19  2  0  0  0  0
 17 18  1  0  0  0  0
 18 13  1  0  0  0  0
 19  9  1  0  0  0  0
 22 20  1  0  0  0  0
 22 21  1  1  0  0  0
 23 22  1  0  0  0  0
 25 24  1  0  0  0  0
 25 23  1  0  0  0  0
 26  2  1  0  0  0  0
 27 28  1  0  0  0  0
 27 26  1  0  0  0  0
 29 30  2  0  0  0  0
 30 28  1  0  0  0  0
 31 33  1  6  0  0  0
 31 29  1  0  0  0  0
 33 32  1  0  0  0  0
 34 31  1  0  0  0  0
 36 37  1  0  0  0  0
 37 34  1  0  0  0  0
 37 35  2  0  0  0  0
M  END
>  <MODEL>
3

>  <REMARK>
 VINA RESULT:      -6.2      2.588      7.806
  Name = 
  16 active torsions:
  status: ('A' for Active; 'I' for Inactive)
    1  A    between atoms: C_2  and  N_6
    2  A    between atoms: C_2  and  C_20
    3  A    between atoms: C_3  and  C_4
    4  A    between atoms: C_4  and  O_10
    5  A    between atoms: C_4  and  C_27
    6  A    between atoms: N_6  and  N_14
    7  A    between atoms: C_8  and  C_15
    8  A    between atoms: C_8  and  C_17
    9  A    between atoms: O_10  and  C_33
   10  A    between atoms: C_11  and  C_29
   11  A    between atoms: C_11  and  C_36
   12  A    between atoms: C_13  and  C_15
   13  A    between atoms: C_13  and  C_16
   14  A    between atoms: N_14  and  C_17
   15  A    between atoms: C_17  and  C_19
   16  A    between atoms: C_19  and  C_29
                            x       y       z     vdW  Elec       q    Type
                         _______ _______ _______ _____ _____    ______ ____

>  <TORSDO>
F 16

$$$$
=
 OpenBabel11042418373D

 37 39  0  0  1  0  0  0  0  0999 V2000
  189.6910  173.9360  145.3910 C   0  0  0  0  0  1  0  0  0  0  0  0
  190.9600  174.4840  144.7220 C   0  0  1  0  0  0  0  0  0  0  0  0
  190.9050  174.2790  143.1870 C   0  0  1  0  0  3  0  0  0  0  0  0
  192.0440  172.9830  142.5830 S   0  0  0  0  0  1  0  0  0  0  0  0
  189.4950  173.9810  142.6830 C   0  0  0  0  0  2  0  0  0  0  0  0
  189.1540  174.8830  141.5120 C   0  0  0  0  0  2  0  0  0  0  0  0
  185.5960  180.1670  144.5930 N   0  0  0  0  0  0  0  0  0  0  0  0
  185.6790  177.9640  144.6230 C   0  0  0  0  0  0  0  0  0  0  0  0
  187.9400  175.6850  141.8230 C   0  0  0  0  0  0  0  0  0  0  0  0
  185.8900  176.6640  144.7330 C   0  0  0  0  0  2  0  0  0  0  0  0
  185.5810  179.1380  146.9010 C   0  0  0  0  0  1  0  0  0  0  0  0
  187.2830  175.4680  142.9770 C   0  0  0  0  0  3  0  0  0  0  0  0
  185.9140  177.4700  142.5030 C   0  0  2  0  0  3  0  0  0  0  0  0
  185.9930  176.1830  143.2910 C   0  0  2  0  0  3  0  0  0  0  0  0
  185.5890  179.0810  145.4140 C   0  0  0  0  0  0  0  0  0  0  0  0
  186.5490  177.6230  141.1940 C   0  0  0  0  0  3  0  0  0  0  0  0
  185.6900  179.7260  143.3590 O   0  0  0  0  0  0  0  0  0  0  0  0
  185.7220  178.4190  143.3840 C   0  0  0  0  0  0  0  0  0  0  0  0
  187.5020  176.7410  140.8690 C   0  0  0  0  0  3  0  0  0  0  0  0
  191.0350  175.9960  144.9920 C   0  0  0  0  0  2  0  0  0  0  0  0
  189.7680  177.0310  146.8730 C   0  0  0  0  0  1  0  0  0  0  0  0
  189.7040  176.6130  145.4130 C   0  0  1  0  0  3  0  0  0  0  0  0
  189.4210  177.8250  144.5420 C   0  0  0  0  0  2  0  0  0  0  0  0
  190.6370  177.8620  142.4800 O   0  0  0  0  0  1  0  0  0  0  0  0
  190.6750  178.2790  143.8110 C   0  0  0  0  0  2  0  0  0  0  0  0
  192.1840  173.8730  145.2660 N   0  0  0  0  0  2  0  0  0  0  0  0
  192.6720  174.6120  146.3590 N   0  0  0  0  0  2  0  0  0  0  0  0
  194.1170  174.6720  146.2160 C   0  0  0  0  0  2  0  0  0  0  0  0
  195.1720  176.4630  144.8440 C   0  0  0  0  0  3  0  0  0  0  0  0
  194.5440  176.0840  145.9630 C   0  0  0  0  0  3  0  0  0  0  0  0
  195.5270  175.5130  143.7340 C   0  0  2  0  0  3  0  0  0  0  0  0
  197.2200  177.1740  143.3690 O   0  0  0  0  0  1  0  0  0  0  0  0
  196.8880  175.8400  143.1270 C   0  0  0  0  0  2  0  0  0  0  0  0
  194.5110  175.4990  142.7300 O   0  0  0  0  0  0  0  0  0  0  0  0
  194.7840  176.5590  140.6870 O   0  0  0  0  0  0  0  0  0  0  0  0
  194.9980  174.2510  140.6940 N   0  0  0  0  0  1  0  0  0  0  0  0
  194.7620  175.4890  141.3510 C   0  0  0  0  0  0  0  0  0  0  0  0
  2 20  1  0  0  0  0
  2 26  1  0  0  0  0
  2  1  1  1  0  0  0
  3  4  1  1  0  0  0
  3  2  1  0  0  0  0
  5  3  1  0  0  0  0
  6  9  1  0  0  0  0
  6  5  1  0  0  0  0
  7 15  2  0  0  0  0
  8 10  1  0  0  0  0
  8 15  1  0  0  0  0
  9 12  2  0  0  0  0
 13 16  1  1  0  0  0
 13 14  1  0  0  0  0
 13 18  1  0  0  0  0
 14 12  1  1  0  0  0
 14 10  1  0  0  0  0
 15 11  1  0  0  0  0
 17 18  1  0  0  0  0
 17  7  1  0  0  0  0
 18  8  2  0  0  0  0
 19 16  2  0  0  0  0
 19  9  1  0  0  0  0
 20 22  1  0  0  0  0
 22 21  1  1  0  0  0
 23 22  1  0  0  0  0
 24 25  1  0  0  0  0
 25 23  1  0  0  0  0
 26 27  1  0  0  0  0
 28 27  1  0  0  0  0
 29 30  2  0  0  0  0
 30 28  1  0  0  0  0
 31 33  1  6  0  0  0
 31 29  1  0  0  0  0
 33 32  1  0  0  0  0
 34 31  1  0  0  0  0
 35 37  2  0  0  0  0
 36 37  1  0  0  0  0
 37 34  1  0  0  0  0
M  END
>  <MODEL>
4

>  <REMARK>
 VINA RESULT:      -6.2      2.553      4.969
  Name = 
  16 active torsions:
  status: ('A' for Active; 'I' for Inactive)
    1  A    between atoms: C_2  and  N_6
    2  A    between atoms: C_2  and  C_20
    3  A    between atoms: C_3  and  C_4
    4  A    between atoms: C_4  and  O_10
    5  A    between atoms: C_4  and  C_27
    6  A    between atoms: N_6  and  N_14
    7  A    between atoms: C_8  and  C_15
    8  A    between atoms: C_8  and  C_17
    9  A    between atoms: O_10  and  C_33
   10  A    between atoms: C_11  and  C_29
   11  A    between atoms: C_11  and  C_36
   12  A    between atoms: C_13  and  C_15
   13  A    between atoms: C_13  and  C_16
   14  A    between atoms: N_14  and  C_17
   15  A    between atoms: C_17  and  C_19
   16  A    between atoms: C_19  and  C_29
                            x       y       z     vdW  Elec       q    Type
                         _______ _______ _______ _____ _____    ______ ____

>  <TORSDO>
F 16

$$$$
=
 OpenBabel11042418373D

 37 39  0  0  1  0  0  0  0  0999 V2000
  191.8060  173.3170  144.9710 C   0  0  0  0  0  1  0  0  0  0  0  0
  191.7810  174.7450  145.5340 C   0  0  1  0  0  0  0  0  0  0  0  0
  190.7200  174.8750  146.6570 C   0  0  1  0  0  3  0  0  0  0  0  0
  190.9260  176.3710  147.6860 S   0  0  0  0  0  1  0  0  0  0  0  0
  189.2910  174.8260  146.1240 C   0  0  0  0  0  2  0  0  0  0  0  0
  188.3480  175.5310  147.0830 C   0  0  0  0  0  2  0  0  0  0  0  0
  184.0390  177.9540  142.0210 N   0  0  0  0  0  0  0  0  0  0  0  0
  186.1280  178.1770  142.6880 C   0  0  0  0  0  0  0  0  0  0  0  0
  187.5780  176.5790  146.3610 C   0  0  0  0  0  0  0  0  0  0  0  0
  187.4070  178.1390  143.0200 C   0  0  0  0  0  2  0  0  0  0  0  0
  185.7570  177.8600  140.1710 C   0  0  0  0  0  1  0  0  0  0  0  0
  188.0940  177.1290  145.2470 C   0  0  0  0  0  3  0  0  0  0  0  0
  185.9240  178.2480  144.8670 C   0  0  2  0  0  3  0  0  0  0  0  0
  187.3980  178.2640  144.5390 C   0  0  2  0  0  3  0  0  0  0  0  0
  185.3270  178.0230  141.5860 C   0  0  0  0  0  0  0  0  0  0  0  0
  185.4160  177.7450  146.1430 C   0  0  0  0  0  3  0  0  0  0  0  0
  184.0600  178.0590  143.3310 O   0  0  0  0  0  0  0  0  0  0  0  0
  185.3000  178.2080  143.7170 C   0  0  0  0  0  0  0  0  0  0  0  0
  186.2320  176.9660  146.8650 C   0  0  0  0  0  3  0  0  0  0  0  0
  193.1580  175.0470  146.1510 C   0  0  0  0  0  2  0  0  0  0  0  0
  194.4700  177.1610  146.2960 C   0  0  0  0  0  1  0  0  0  0  0  0
  193.9740  176.0680  145.3640 C   0  0  1  0  0  3  0  0  0  0  0  0
  195.1570  175.3660  144.7180 C   0  0  0  0  0  2  0  0  0  0  0  0
  195.4210  176.3550  142.5540 O   0  0  0  0  0  1  0  0  0  0  0  0
  195.9520  176.3230  143.8440 C   0  0  0  0  0  2  0  0  0  0  0  0
  191.5310  175.7520  144.4900 N   0  0  0  0  0  2  0  0  0  0  0  0
  191.4360  175.1490  143.2220 N   0  0  0  0  0  2  0  0  0  0  0  0
  190.2610  175.7080  142.5760 C   0  0  0  0  0  2  0  0  0  0  0  0
  188.8900  173.8840  141.5790 C   0  0  0  0  0  3  0  0  0  0  0  0
  189.1450  174.7100  142.5990 C   0  0  0  0  0  3  0  0  0  0  0  0
  189.6810  173.8810  140.3010 C   0  0  2  0  0  3  0  0  0  0  0  0
  187.8870  172.5870  139.3710 O   0  0  0  0  0  1  0  0  0  0  0  0
  188.7940  173.6100  139.0900 C   0  0  0  0  0  2  0  0  0  0  0  0
  190.7540  172.9390  140.3670 O   0  0  0  0  0  0  0  0  0  0  0  0
  192.6320  174.2790  140.1430 O   0  0  0  0  0  0  0  0  0  0  0  0
  192.7260  172.1870  139.1490 N   0  0  0  0  0  1  0  0  0  0  0  0
  192.0530  173.1860  139.9020 C   0  0  0  0  0  0  0  0  0  0  0  0
  2  1  1  6  0  0  0
  2 20  1  0  0  0  0
  2  3  1  0  0  0  0
  3  4  1  6  0  0  0
  5  3  1  0  0  0  0
  5  6  1  0  0  0  0
  7 17  1  0  0  0  0
  8 10  1  0  0  0  0
  8 18  2  0  0  0  0
  9 19  1  0  0  0  0
  9  6  1  0  0  0  0
 11 15  1  0  0  0  0
 12  9  2  0  0  0  0
 13 16  1  1  0  0  0
 14 10  1  6  0  0  0
 14 13  1  0  0  0  0
 14 12  1  0  0  0  0
 15  7  2  0  0  0  0
 15  8  1  0  0  0  0
 16 19  2  0  0  0  0
 17 18  1  0  0  0  0
 18 13  1  0  0  0  0
 22 20  1  0  0  0  0
 22 21  1  1  0  0  0
 23 22  1  0  0  0  0
 24 25  1  0  0  0  0
 25 23  1  0  0  0  0
 26  2  1  0  0  0  0
 27 26  1  0  0  0  0
 28 30  1  0  0  0  0
 28 27  1  0  0  0  0
 29 30  2  0  0  0  0
 31 33  1  6  0  0  0
 31 34  1  0  0  0  0
 31 29  1  0  0  0  0
 33 32  1  0  0  0  0
 36 37  1  0  0  0  0
 37 35  2  0  0  0  0
 37 34  1  0  0  0  0
M  END
>  <MODEL>
5

>  <REMARK>
 VINA RESULT:      -6.2      2.293      3.463
  Name = 
  16 active torsions:
  status: ('A' for Active; 'I' for Inactive)
    1  A    between atoms: C_2  and  N_6
    2  A    between atoms: C_2  and  C_20
    3  A    between atoms: C_3  and  C_4
    4  A    between atoms: C_4  and  O_10
    5  A    between atoms: C_4  and  C_27
    6  A    between atoms: N_6  and  N_14
    7  A    between atoms: C_8  and  C_15
    8  A    between atoms: C_8  and  C_17
    9  A    between atoms: O_10  and  C_33
   10  A    between atoms: C_11  and  C_29
   11  A    between atoms: C_11  and  C_36
   12  A    between atoms: C_13  and  C_15
   13  A    between atoms: C_13  and  C_16
   14  A    between atoms: N_14  and  C_17
   15  A    between atoms: C_17  and  C_19
   16  A    between atoms: C_19  and  C_29
                            x       y       z     vdW  Elec       q    Type
                         _______ _______ _______ _____ _____    ______ ____

>  <TORSDO>
F 16

$$$$
=
 OpenBabel11042418373D

 37 39  0  0  1  0  0  0  0  0999 V2000
  190.3160  177.8570  144.7570 C   0  0  0  0  0  1  0  0  0  0  0  0
  189.1820  176.9360  145.2320 C   0  0  1  0  0  0  0  0  0  0  0  0
  189.3040  176.6510  146.7490 C   0  0  1  0  0  3  0  0  0  0  0  0
  188.9420  174.9160  147.1980 S   0  0  0  0  0  1  0  0  0  0  0  0
  190.6680  177.0390  147.3130 C   0  0  0  0  0  2  0  0  0  0  0  0
  191.4410  175.7990  147.7230 C   0  0  0  0  0  2  0  0  0  0  0  0
  195.1150  176.0260  141.6800 N   0  0  0  0  0  0  0  0  0  0  0  0
  194.4600  174.5550  143.1860 C   0  0  0  0  0  0  0  0  0  0  0  0
  192.6640  175.6610  146.8870 C   0  0  0  0  0  0  0  0  0  0  0  0
  193.8980  173.6950  144.0160 C   0  0  0  0  0  2  0  0  0  0  0  0
  194.1530  173.8920  140.7280 C   0  0  0  0  0  1  0  0  0  0  0  0
  192.8540  174.5350  146.1740 C   0  0  0  0  0  3  0  0  0  0  0  0
  194.7710  175.6330  145.0660 C   0  0  2  0  0  3  0  0  0  0  0  0
  194.1240  174.3080  145.3930 C   0  0  2  0  0  3  0  0  0  0  0  0
  194.5880  174.7800  141.8390 C   0  0  0  0  0  0  0  0  0  0  0  0
  194.6310  176.8030  145.9340 C   0  0  0  0  0  3  0  0  0  0  0  0
  195.2950  176.5330  142.8790 O   0  0  0  0  0  0  0  0  0  0  0  0
  194.9210  175.6490  143.7660 C   0  0  0  0  0  0  0  0  0  0  0  0
  193.6310  176.7910  146.8230 C   0  0  0  0  0  3  0  0  0  0  0  0
  187.8430  177.6550  144.9940 C   0  0  0  0  0  2  0  0  0  0  0  0
  185.6940  176.7900  145.9140 C   0  0  0  0  0  1  0  0  0  0  0  0
  186.6700  176.7090  144.7520 C   0  0  1  0  0  3  0  0  0  0  0  0
  185.9700  177.1060  143.4630 C   0  0  0  0  0  2  0  0  0  0  0  0
  185.2350  179.3820  143.5400 O   0  0  0  0  0  1  0  0  0  0  0  0
  184.8220  178.0640  143.7350 C   0  0  0  0  0  2  0  0  0  0  0  0
  189.1440  175.6680  144.4840 N   0  0  0  0  0  2  0  0  0  0  0  0
  190.3570  175.4470  143.8070 N   0  0  0  0  0  2  0  0  0  0  0  0
  190.1310  174.3450  142.8870 C   0  0  0  0  0  2  0  0  0  0  0  0
  188.1160  173.8160  141.5230 C   0  0  0  0  0  3  0  0  0  0  0  0
  188.6620  174.1310  142.7030 C   0  0  0  0  0  3  0  0  0  0  0  0
  188.9160  173.6620  140.2580 C   0  0  2  0  0  3  0  0  0  0  0  0
  188.7740  173.8330  137.8690 O   0  0  0  0  0  1  0  0  0  0  0  0
  188.2010  174.2790  139.0610 C   0  0  0  0  0  2  0  0  0  0  0  0
  189.2250  172.2880  140.0150 O   0  0  0  0  0  0  0  0  0  0  0  0
  191.4300  172.0850  139.3290 O   0  0  0  0  0  0  0  0  0  0  0  0
  190.7780  170.7710  141.1240 N   0  0  0  0  0  1  0  0  0  0  0  0
  190.5090  171.7370  140.1160 C   0  0  0  0  0  0  0  0  0  0  0  0
  2  1  1  6  0  0  0
  2  3  1  0  0  0  0
  3  4  1  6  0  0  0
  3  5  1  0  0  0  0
  5  6  1  0  0  0  0
  7 15  2  0  0  0  0
  7 17  1  0  0  0  0
  8 18  2  0  0  0  0
  8 10  1  0  0  0  0
  9  6  1  0  0  0  0
 11 15  1  0  0  0  0
 12  9  2  0  0  0  0
 13 14  1  0  0  0  0
 13 16  1  6  0  0  0
 14 10  1  6  0  0  0
 14 12  1  0  0  0  0
 15  8  1  0  0  0  0
 16 19  2  0  0  0  0
 17 18  1  0  0  0  0
 18 13  1  0  0  0  0
 19  9  1  0  0  0  0
 20  2  1  0  0  0  0
 22 20  1  0  0  0  0
 22 21  1  1  0  0  0
 23 25  1  0  0  0  0
 23 22  1  0  0  0  0
 24 25  1  0  0  0  0
 26  2  1  0  0  0  0
 27 26  1  0  0  0  0
 28 27  1  0  0  0  0
 29 30  2  0  0  0  0
 30 28  1  0  0  0  0
 31 33  1  6  0  0  0
 31 29  1  0  0  0  0
 32 33  1  0  0  0  0
 34 37  1  0  0  0  0
 34 31  1  0  0  0  0
 35 37  2  0  0  0  0
 37 36  1  0  0  0  0
M  END
>  <MODEL>
6

>  <REMARK>
 VINA RESULT:      -5.9      2.527      7.415
  Name = 
  16 active torsions:
  status: ('A' for Active; 'I' for Inactive)
    1  A    between atoms: C_2  and  N_6
    2  A    between atoms: C_2  and  C_20
    3  A    between atoms: C_3  and  C_4
    4  A    between atoms: C_4  and  O_10
    5  A    between atoms: C_4  and  C_27
    6  A    between atoms: N_6  and  N_14
    7  A    between atoms: C_8  and  C_15
    8  A    between atoms: C_8  and  C_17
    9  A    between atoms: O_10  and  C_33
   10  A    between atoms: C_11  and  C_29
   11  A    between atoms: C_11  and  C_36
   12  A    between atoms: C_13  and  C_15
   13  A    between atoms: C_13  and  C_16
   14  A    between atoms: N_14  and  C_17
   15  A    between atoms: C_17  and  C_19
   16  A    between atoms: C_19  and  C_29
                            x       y       z     vdW  Elec       q    Type
                         _______ _______ _______ _____ _____    ______ ____

>  <TORSDO>
F 16

$$$$
=
 OpenBabel11042418373D

 37 39  0  0  1  0  0  0  0  0999 V2000
  189.3210  177.9270  142.9890 C   0  0  0  0  0  1  0  0  0  0  0  0
  188.7490  176.9900  144.0640 C   0  0  1  0  0  0  0  0  0  0  0  0
  189.8030  176.7060  145.1630 C   0  0  1  0  0  3  0  0  0  0  0  0
  189.3280  177.3380  146.8110 S   0  0  0  0  0  1  0  0  0  0  0  0
  190.1510  175.2240  145.2760 C   0  0  0  0  0  2  0  0  0  0  0  0
  190.9110  174.9580  146.5630 C   0  0  0  0  0  2  0  0  0  0  0  0
  196.6520  176.4580  142.7100 N   0  0  0  0  0  0  0  0  0  0  0  0
  195.7310  174.7420  143.7400 C   0  0  0  0  0  0  0  0  0  0  0  0
  192.3720  175.1180  146.3340 C   0  0  0  0  0  0  0  0  0  0  0  0
  195.0540  173.7130  144.2210 C   0  0  0  0  0  2  0  0  0  0  0  0
  196.6170  174.3140  141.3720 C   0  0  0  0  0  1  0  0  0  0  0  0
  193.0600  174.1250  145.7400 C   0  0  0  0  0  3  0  0  0  0  0  0
  195.0070  175.6400  145.6010 C   0  0  2  0  0  3  0  0  0  0  0  0
  194.5580  174.1980  145.5770 C   0  0  2  0  0  3  0  0  0  0  0  0
  196.3640  175.1330  142.5880 C   0  0  0  0  0  0  0  0  0  0  0  0
  194.2910  176.6670  146.3580 C   0  0  0  0  0  3  0  0  0  0  0  0
  196.2110  176.8510  143.8830 O   0  0  0  0  0  0  0  0  0  0  0  0
  195.6810  175.8250  144.4950 C   0  0  0  0  0  0  0  0  0  0  0  0
  193.0340  176.3920  146.7280 C   0  0  0  0  0  3  0  0  0  0  0  0
  187.5530  177.6920  144.7310 C   0  0  0  0  0  2  0  0  0  0  0  0
  185.6380  176.7610  146.0270 C   0  0  0  0  0  1  0  0  0  0  0  0
  186.2490  176.9030  144.6430 C   0  0  1  0  0  3  0  0  0  0  0  0
  185.2850  177.6380  143.7270 C   0  0  0  0  0  2  0  0  0  0  0  0
  184.9900  179.9700  144.1810 O   0  0  0  0  0  1  0  0  0  0  0  0
  184.5050  178.6980  144.4890 C   0  0  0  0  0  2  0  0  0  0  0  0
  188.2610  175.7230  143.4960 N   0  0  0  0  0  2  0  0  0  0  0  0
  188.0530  175.8390  142.1100 N   0  0  0  0  0  2  0  0  0  0  0  0
  188.7140  174.7050  141.4880 C   0  0  0  0  0  2  0  0  0  0  0  0
  189.7350  172.7120  142.5790 C   0  0  0  0  0  3  0  0  0  0  0  0
  188.6890  173.5310  142.4160 C   0  0  0  0  0  3  0  0  0  0  0  0
  191.0330  172.8730  141.8380 C   0  0  2  0  0  3  0  0  0  0  0  0
  192.7050  171.2990  142.5320 O   0  0  0  0  0  1  0  0  0  0  0  0
  191.7080  171.5290  141.5840 C   0  0  0  0  0  2  0  0  0  0  0  0
  191.9110  173.7610  142.5350 O   0  0  0  0  0  0  0  0  0  0  0  0
  193.0710  174.8300  140.8370 O   0  0  0  0  0  0  0  0  0  0  0  0
  192.4790  176.1270  142.6650 N   0  0  0  0  0  1  0  0  0  0  0  0
  192.5090  174.8910  141.9630 C   0  0  0  0  0  0  0  0  0  0  0  0
  2  1  1  6  0  0  0
  2 20  1  0  0  0  0
  2  3  1  0  0  0  0
  3  5  1  0  0  0  0
  3  4  1  1  0  0  0
  5  6  1  0  0  0  0
  7 17  1  0  0  0  0
  8 10  1  0  0  0  0
  8 18  2  0  0  0  0
  9  6  1  0  0  0  0
  9 19  1  0  0  0  0
 11 15  1  0  0  0  0
 12  9  2  0  0  0  0
 13 16  1  6  0  0  0
 14 10  1  6  0  0  0
 14 13  1  0  0  0  0
 14 12  1  0  0  0  0
 15  7  2  0  0  0  0
 15  8  1  0  0  0  0
 16 19  2  0  0  0  0
 17 18  1  0  0  0  0
 18 13  1  0  0  0  0
 22 20  1  0  0  0  0
 22 21  1  1  0  0  0
 23 25  1  0  0  0  0
 23 22  1  0  0  0  0
 24 25  1  0  0  0  0
 26  2  1  0  0  0  0
 27 26  1  0  0  0  0
 28 27  1  0  0  0  0
 28 30  1  0  0  0  0
 30 29  2  0  0  0  0
 31 33  1  1  0  0  0
 31 34  1  0  0  0  0
 31 29  1  0  0  0  0
 33 32  1  0  0  0  0
 35 37  2  0  0  0  0
 37 34  1  0  0  0  0
 37 36  1  0  0  0  0
M  END
>  <MODEL>
7

>  <REMARK>
 VINA RESULT:      -5.9      2.564      8.092
  Name = 
  16 active torsions:
  status: ('A' for Active; 'I' for Inactive)
    1  A    between atoms: C_2  and  N_6
    2  A    between atoms: C_2  and  C_20
    3  A    between atoms: C_3  and  C_4
    4  A    between atoms: C_4  and  O_10
    5  A    between atoms: C_4  and  C_27
    6  A    between atoms: N_6  and  N_14
    7  A    between atoms: C_8  and  C_15
    8  A    between atoms: C_8  and  C_17
    9  A    between atoms: O_10  and  C_33
   10  A    between atoms: C_11  and  C_29
   11  A    between atoms: C_11  and  C_36
   12  A    between atoms: C_13  and  C_15
   13  A    between atoms: C_13  and  C_16
   14  A    between atoms: N_14  and  C_17
   15  A    between atoms: C_17  and  C_19
   16  A    between atoms: C_19  and  C_29
                            x       y       z     vdW  Elec       q    Type
                         _______ _______ _______ _____ _____    ______ ____

>  <TORSDO>
F 16

$$$$
=
 OpenBabel11042418373D

 37 39  0  0  1  0  0  0  0  0999 V2000
  190.6560  177.5060  145.0040 C   0  0  0  0  0  1  0  0  0  0  0  0
  190.4780  176.1510  145.7070 C   0  0  1  0  0  0  0  0  0  0  0  0
  189.4820  176.2710  146.8880 C   0  0  1  0  0  3  0  0  0  0  0  0
  189.5910  177.8670  147.7740 S   0  0  0  0  0  1  0  0  0  0  0  0
  188.0360  176.0310  146.4650 C   0  0  0  0  0  2  0  0  0  0  0  0
  187.1070  176.9730  147.2090 C   0  0  0  0  0  2  0  0  0  0  0  0
  183.2430  177.9990  141.3710 N   0  0  0  0  0  0  0  0  0  0  0  0
  185.1910  178.5930  142.2140 C   0  0  0  0  0  0  0  0  0  0  0  0
  186.3240  177.7870  146.2410 C   0  0  0  0  0  0  0  0  0  0  0  0
  186.4130  178.7750  142.6850 C   0  0  0  0  0  2  0  0  0  0  0  0
  185.1850  177.8440  139.7620 C   0  0  0  0  0  1  0  0  0  0  0  0
  186.9160  178.2200  145.1120 C   0  0  0  0  0  3  0  0  0  0  0  0
  184.7020  178.9740  144.3140 C   0  0  2  0  0  3  0  0  0  0  0  0
  186.1950  179.1310  144.1500 C   0  0  2  0  0  3  0  0  0  0  0  0
  184.5610  178.1670  141.0730 C   0  0  0  0  0  0  0  0  0  0  0  0
  184.0920  178.6140  145.5940 C   0  0  0  0  0  3  0  0  0  0  0  0
  183.0840  178.3080  142.6380 O   0  0  0  0  0  0  0  0  0  0  0  0
  184.2400  178.6750  143.1270 C   0  0  0  0  0  0  0  0  0  0  0  0
  184.8900  178.0690  146.5220 C   0  0  0  0  0  3  0  0  0  0  0  0
  189.8890  175.1540  144.6940 C   0  0  0  0  0  2  0  0  0  0  0  0
  190.6530  174.9860  142.3280 C   0  0  0  0  0  1  0  0  0  0  0  0
  189.7360  175.7250  143.2870 C   0  0  1  0  0  3  0  0  0  0  0  0
  188.2910  175.5670  142.8420 C   0  0  0  0  0  2  0  0  0  0  0  0
  188.0280  173.3090  142.0920 O   0  0  0  0  0  1  0  0  0  0  0  0
  188.1830  174.6240  141.6540 C   0  0  0  0  0  2  0  0  0  0  0  0
  191.7570  175.5990  146.1830 N   0  0  0  0  0  2  0  0  0  0  0  0
  192.6740  176.6260  146.4660 N   0  0  0  0  0  2  0  0  0  0  0  0
  193.9490  176.2230  145.8960 C   0  0  0  0  0  2  0  0  0  0  0  0
  194.9360  176.0450  143.6170 C   0  0  0  0  0  3  0  0  0  0  0  0
  193.9100  176.3760  144.4070 C   0  0  0  0  0  3  0  0  0  0  0  0
  196.2390  175.5020  144.1380 C   0  0  2  0  0  3  0  0  0  0  0  0
  197.2180  175.2370  141.9630 O   0  0  0  0  0  1  0  0  0  0  0  0
  197.4010  175.8390  143.2090 C   0  0  0  0  0  2  0  0  0  0  0  0
  196.1520  174.0930  144.3570 O   0  0  0  0  0  0  0  0  0  0  0  0
  197.1350  173.4950  146.3690 O   0  0  0  0  0  0  0  0  0  0  0  0
  197.9300  172.4290  144.4700 N   0  0  0  0  0  1  0  0  0  0  0  0
  197.0670  173.3540  145.1190 C   0  0  0  0  0  0  0  0  0  0  0  0
  2  1  1  6  0  0  0
  2 26  1  0  0  0  0
  2  3  1  0  0  0  0
  3  4  1  6  0  0  0
  5  3  1  0  0  0  0
  5  6  1  0  0  0  0
  7 17  1  0  0  0  0
  8 10  1  0  0  0  0
  8 18  2  0  0  0  0
  9 19  1  0  0  0  0
  9  6  1  0  0  0  0
 11 15  1  0  0  0  0
 12  9  2  0  0  0  0
 13 16  1  1  0  0  0
 14 10  1  6  0  0  0
 14 13  1  0  0  0  0
 14 12  1  0  0  0  0
 15  7  2  0  0  0  0
 15  8  1  0  0  0  0
 16 19  2  0  0  0  0
 17 18  1  0  0  0  0
 18 13  1  0  0  0  0
 20  2  1  0  0  0  0
 22 21  1  6  0  0  0
 22 20  1  0  0  0  0
 23 22  1  0  0  0  0
 25 24  1  0  0  0  0
 25 23  1  0  0  0  0
 26 27  1  0  0  0  0
 28 27  1  0  0  0  0
 29 31  1  0  0  0  0
 29 30  2  0  0  0  0
 30 28  1  0  0  0  0
 31 33  1  6  0  0  0
 31 34  1  0  0  0  0
 32 33  1  0  0  0  0
 34 37  1  0  0  0  0
 36 37  1  0  0  0  0
 37 35  2  0  0  0  0
M  END
>  <MODEL>
8

>  <REMARK>
 VINA RESULT:      -5.9      2.594      5.919
  Name = 
  16 active torsions:
  status: ('A' for Active; 'I' for Inactive)
    1  A    between atoms: C_2  and  N_6
    2  A    between atoms: C_2  and  C_20
    3  A    between atoms: C_3  and  C_4
    4  A    between atoms: C_4  and  O_10
    5  A    between atoms: C_4  and  C_27
    6  A    between atoms: N_6  and  N_14
    7  A    between atoms: C_8  and  C_15
    8  A    between atoms: C_8  and  C_17
    9  A    between atoms: O_10  and  C_33
   10  A    between atoms: C_11  and  C_29
   11  A    between atoms: C_11  and  C_36
   12  A    between atoms: C_13  and  C_15
   13  A    between atoms: C_13  and  C_16
   14  A    between atoms: N_14  and  C_17
   15  A    between atoms: C_17  and  C_19
   16  A    between atoms: C_19  and  C_29
                            x       y       z     vdW  Elec       q    Type
                         _______ _______ _______ _____ _____    ______ ____

>  <TORSDO>
F 16

$$$$
=
 OpenBabel11042418373D

 37 39  0  0  1  0  0  0  0  0999 V2000
  188.4890  173.2080  142.0650 C   0  0  0  0  0  1  0  0  0  0  0  0
  189.5140  174.1620  142.6980 C   0  0  1  0  0  0  0  0  0  0  0  0
  189.3820  174.1640  144.2420 C   0  0  1  0  0  3  0  0  0  0  0  0
  189.6930  172.5310  145.0030 S   0  0  0  0  0  1  0  0  0  0  0  0
  190.2780  175.2050  144.9070 C   0  0  0  0  0  2  0  0  0  0  0  0
  191.0260  174.5860  146.0740 C   0  0  0  0  0  2  0  0  0  0  0  0
  196.8860  176.7650  142.7600 N   0  0  0  0  0  0  0  0  0  0  0  0
  196.0700  174.9410  143.6900 C   0  0  0  0  0  0  0  0  0  0  0  0
  192.4760  174.9060  145.9770 C   0  0  0  0  0  0  0  0  0  0  0  0
  195.4690  173.8370  144.0990 C   0  0  0  0  0  2  0  0  0  0  0  0
  197.2010  174.6550  141.4070 C   0  0  0  0  0  1  0  0  0  0  0  0
  193.3170  174.0040  145.4380 C   0  0  0  0  0  3  0  0  0  0  0  0
  195.0930  175.7220  145.4870 C   0  0  2  0  0  3  0  0  0  0  0  0
  194.8060  174.2410  145.4100 C   0  0  2  0  0  3  0  0  0  0  0  0
  196.7550  175.4190  142.6030 C   0  0  0  0  0  0  0  0  0  0  0  0
  194.2060  176.6520  146.1860 C   0  0  0  0  0  3  0  0  0  0  0  0
  196.3030  177.0870  143.8930 O   0  0  0  0  0  0  0  0  0  0  0  0
  195.8370  175.9980  144.4470 C   0  0  0  0  0  0  0  0  0  0  0  0
  192.9590  176.2360  146.4400 C   0  0  0  0  0  3  0  0  0  0  0  0
  190.9240  173.6570  142.3470 C   0  0  0  0  0  2  0  0  0  0  0  0
  192.7940  175.2810  142.0630 C   0  0  0  0  0  1  0  0  0  0  0  0
  191.6670  174.5490  141.3550 C   0  0  1  0  0  3  0  0  0  0  0  0
  192.2340  173.6850  140.2400 C   0  0  0  0  0  2  0  0  0  0  0  0
  190.2400  173.7900  138.9210 O   0  0  0  0  0  1  0  0  0  0  0  0
  191.1340  172.9110  139.5330 C   0  0  0  0  0  2  0  0  0  0  0  0
  189.3910  175.5350  142.1820 N   0  0  0  0  0  2  0  0  0  0  0  0
  188.1340  175.7360  141.5820 N   0  0  0  0  0  2  0  0  0  0  0  0
  187.5080  176.8460  142.2790 C   0  0  0  0  0  2  0  0  0  0  0  0
  186.2440  176.7930  144.4240 C   0  0  0  0  0  3  0  0  0  0  0  0
  186.4280  176.3350  143.1810 C   0  0  0  0  0  3  0  0  0  0  0  0
  187.1080  177.8520  145.0510 C   0  0  2  0  0  3  0  0  0  0  0  0
  187.3590  176.2090  146.7820 O   0  0  0  0  0  1  0  0  0  0  0  0
  187.9970  177.2770  146.1490 C   0  0  0  0  0  2  0  0  0  0  0  0
  186.3120  178.9290  145.5500 O   0  0  0  0  0  0  0  0  0  0  0  0
  184.6130  179.7060  144.1780 O   0  0  0  0  0  0  0  0  0  0  0  0
  183.9630  178.6500  146.1370 N   0  0  0  0  0  1  0  0  0  0  0  0
  184.9600  179.1230  145.2400 C   0  0  0  0  0  0  0  0  0  0  0  0
  2  1  1  6  0  0  0
  2  3  1  0  0  0  0
  3  5  1  0  0  0  0
  3  4  1  1  0  0  0
  5  6  1  0  0  0  0
  7 17  1  0  0  0  0
  8 10  1  0  0  0  0
  8 18  2  0  0  0  0
  9  6  1  0  0  0  0
  9 19  1  0  0  0  0
 11 15  1  0  0  0  0
 12  9  2  0  0  0  0
 13 16  1  6  0  0  0
 14 10  1  6  0  0  0
 14 12  1  0  0  0  0
 14 13  1  0  0  0  0
 15  7  2  0  0  0  0
 15  8  1  0  0  0  0
 16 19  2  0  0  0  0
 17 18  1  0  0  0  0
 18 13  1  0  0  0  0
 20  2  1  0  0  0  0
 22 21  1  1  0  0  0
 22 20  1  0  0  0  0
 23 22  1  0  0  0  0
 24 25  1  0  0  0  0
 25 23  1  0  0  0  0
 26  2  1  0  0  0  0
 27 26  1  0  0  0  0
 27 28  1  0  0  0  0
 28 30  1  0  0  0  0
 30 29  2  0  0  0  0
 31 29  1  1  0  0  0
 31 34  1  0  0  0  0
 31 33  1  0  0  0  0
 33 32  1  0  0  0  0
 35 37  2  0  0  0  0
 37 34  1  0  0  0  0
 37 36  1  0  0  0  0
M  END
>  <MODEL>
9

>  <REMARK>
 VINA RESULT:      -5.8      2.643      8.090
  Name = 
  16 active torsions:
  status: ('A' for Active; 'I' for Inactive)
    1  A    between atoms: C_2  and  N_6
    2  A    between atoms: C_2  and  C_20
    3  A    between atoms: C_3  and  C_4
    4  A    between atoms: C_4  and  O_10
    5  A    between atoms: C_4  and  C_27
    6  A    between atoms: N_6  and  N_14
    7  A    between atoms: C_8  and  C_15
    8  A    between atoms: C_8  and  C_17
    9  A    between atoms: O_10  and  C_33
   10  A    between atoms: C_11  and  C_29
   11  A    between atoms: C_11  and  C_36
   12  A    between atoms: C_13  and  C_15
   13  A    between atoms: C_13  and  C_16
   14  A    between atoms: N_14  and  C_17
   15  A    between atoms: C_17  and  C_19
   16  A    between atoms: C_19  and  C_29
                            x       y       z     vdW  Elec       q    Type
                         _______ _______ _______ _____ _____    ______ ____

>  <TORSDO>
F 16

$$$$
