=
 OpenBabel11042416473D

 37 40  0  0  1  0  0  0  0  0999 V2000
  188.3190  173.1130  138.9660 O   0  0  0  0  0  0  0  0  0  0  0  0
  189.2350  173.3520  141.2250 C   0  0  0  0  0  0  0  0  0  0  0  0
  186.9840  177.1720  140.1490 C   0  0  0  0  0  3  0  0  0  0  0  0
  188.1810  176.5960  142.2010 C   0  0  0  0  0  0  0  0  0  0  0  0
  187.4150  177.5190  141.4540 C   0  0  0  0  0  0  0  0  0  0  0  0
  187.2960  175.9590  139.6050 N   0  0  0  0  0  0  0  0  0  0  0  0
  188.0290  175.0890  140.3380 C   0  0  0  0  0  0  0  0  0  0  0  0
  188.5000  173.7650  140.0270 C   0  0  0  0  0  0  0  0  0  0  0  0
  189.9220  172.0440  141.4010 C   0  0  0  0  0  1  0  0  0  0  0  0
  189.2240  174.2750  142.1420 N   0  0  0  0  0  0  0  0  0  0  0  0
  188.4730  175.3670  141.6000 C   0  0  0  0  0  0  0  0  0  0  0  0
  188.6570  176.9410  143.5820 C   0  0  1  0  0  3  0  0  0  0  0  0
  188.2330  175.9170  144.5360 N   0  0  0  0  0  2  0  0  0  0  0  0
  188.5500  176.3730  145.8900 C   0  0  0  0  0  2  0  0  0  0  0  0
  190.1760  177.0970  143.6070 C   0  0  0  0  0  2  0  0  0  0  0  0
  190.0610  176.5580  146.0710 C   0  0  2  0  0  3  0  0  0  0  0  0
  190.6300  177.4980  145.0070 C   0  0  0  0  0  2  0  0  0  0  0  0
  190.2090  174.1730  145.8520 O   0  0  0  0  0  0  0  0  0  0  0  0
  190.8020  175.2500  146.1280 C   0  0  0  0  0  0  0  0  0  0  0  0
  192.1870  175.2120  146.4690 N   0  0  0  0  0  2  0  0  0  0  0  0
  192.9480  176.4130  146.7890 C   0  0  0  0  0  2  0  0  0  0  0  0
  193.7770  176.5770  144.5060 N   0  0  0  0  0  2  0  0  0  0  0  0
  194.4120  175.4500  143.8310 C   0  0  1  0  0  3  0  0  0  0  0  0
  195.0890  175.3230  146.0980 C   0  0  0  0  0  2  0  0  0  0  0  0
  194.1850  176.5270  145.9070 C   0  0  2  0  0  0  0  0  0  0  0  0
  194.9660  175.8940  142.4940 C   0  0  0  0  0  1  0  0  0  0  0  0
  195.5290  174.9510  144.7120 C   0  0  0  0  0  2  0  0  0  0  0  0
  194.8870  177.6940  146.2200 O   0  0  0  0  0  1  0  0  0  0  0  0
  187.0930  178.7640  142.0090 O   0  0  0  0  0  0  0  0  0  0  0  0
  185.7950  179.1080  142.3250 N   0  0  0  0  0  2  0  0  0  0  0  0
  185.7380  179.3130  143.7670 C   0  0  0  0  0  2  0  0  0  0  0  0
  184.8330  178.2780  144.4220 C   0  0  2  0  0  3  0  0  0  0  0  0
  183.9240  177.7890  143.5010 F   0  0  0  0  0  0  0  0  0  0  0  0
  184.0900  178.8650  145.6150 C   0  0  0  0  0  2  0  0  0  0  0  0
  185.0060  176.8850  146.4330 C   0  0  0  0  0  1  0  0  0  0  0  0
  185.5610  178.9120  147.4310 C   0  0  0  0  0  1  0  0  0  0  0  0
  184.4630  178.1690  146.8360 N   0  0  0  0  0  0  0  0  0  0  0  0
  1  8  2  0  0  0  0
  2  9  1  0  0  0  0
  2 10  2  0  0  0  0
  3  5  1  0  0  0  0
  5 29  1  0  0  0  0
  5  4  2  0  0  0  0
  6  3  2  0  0  0  0
  6  7  1  0  0  0  0
  7 11  2  0  0  0  0
  8  7  1  0  0  0  0
  8  2  1  0  0  0  0
 11 10  1  0  0  0  0
 11  4  1  0  0  0  0
 12  4  1  6  0  0  0
 12 15  1  0  0  0  0
 12 13  1  0  0  0  0
 13 14  1  0  0  0  0
 14 16  1  0  0  0  0
 15 17  1  0  0  0  0
 16 19  1  6  0  0  0
 17 16  1  0  0  0  0
 18 19  2  0  0  0  0
 19 20  1  0  0  0  0
 20 21  1  0  0  0  0
 22 25  1  0  0  0  0
 23 26  1  6  0  0  0
 23 22  1  0  0  0  0
 23 27  1  0  0  0  0
 25 24  1  0  0  0  0
 25 28  1  1  0  0  0
 25 21  1  0  0  0  0
 27 24  1  0  0  0  0
 29 30  1  0  0  0  0
 30 31  1  0  0  0  0
 31 32  1  0  0  0  0
 32 33  1  6  0  0  0
 32 34  1  0  0  0  0
 34 37  1  0  0  0  0
 35 37  1  0  0  0  0
 37 36  1  0  0  0  0
M  END
>  <MODEL>
1

>  <REMARK>
 VINA RESULT:      -7.4      0.000      0.000
  Name = 
  10 active torsions:
  status: ('A' for Active; 'I' for Inactive)
    1  A    between atoms: C_2  and  C_3
    2  A    between atoms: C_2  and  C_15
    3  A    between atoms: C_3  and  N_30
    4  A    between atoms: C_6  and  C_16
    5  A    between atoms: O_9  and  C_17
    6  A    between atoms: O_9  and  N_30
    7  A    between atoms: C_14  and  C_24
    8  A    between atoms: C_15  and  N_31
    9  A    between atoms: N_19  and  C_25
   10  A    between atoms: C_21  and  C_25
                            x       y       z     vdW  Elec       q    Type
                         _______ _______ _______ _____ _____    ______ ____

>  <TORSDO>
F 10

$$$$
=
 OpenBabel11042416473D

 37 40  0  0  1  0  0  0  0  0999 V2000
  190.1520  172.1110  139.9540 O   0  0  0  0  0  0  0  0  0  0  0  0
  189.1450  173.2980  141.8460 C   0  0  0  0  0  0  0  0  0  0  0  0
  193.4780  174.6560  141.4090 C   0  0  0  0  0  3  0  0  0  0  0  0
  191.7870  175.3470  143.0330 C   0  0  0  0  0  0  0  0  0  0  0  0
  193.1010  175.4450  142.5250 C   0  0  0  0  0  0  0  0  0  0  0  0
  192.5890  173.8060  140.8170 N   0  0  0  0  0  0  0  0  0  0  0  0
  191.3340  173.7280  141.3180 C   0  0  0  0  0  0  0  0  0  0  0  0
  190.2080  172.9320  140.9060 C   0  0  0  0  0  0  0  0  0  0  0  0
  187.7660  172.7400  141.8390 C   0  0  0  0  0  1  0  0  0  0  0  0
  189.5450  174.1850  142.7100 N   0  0  0  0  0  0  0  0  0  0  0  0
  190.9130  174.4620  142.3910 C   0  0  0  0  0  0  0  0  0  0  0  0
  191.3640  176.1640  144.2180 C   0  0  1  0  0  3  0  0  0  0  0  0
  189.9700  176.5810  144.0760 N   0  0  0  0  0  2  0  0  0  0  0  0
  189.6470  177.5230  145.1490 C   0  0  0  0  0  2  0  0  0  0  0  0
  191.5570  175.3780  145.5140 C   0  0  0  0  0  2  0  0  0  0  0  0
  189.7800  176.8610  146.5250 C   0  0  2  0  0  3  0  0  0  0  0  0
  191.1700  176.2470  146.7060 C   0  0  0  0  0  2  0  0  0  0  0  0
  188.9500  174.6440  146.9180 O   0  0  0  0  0  0  0  0  0  0  0  0
  188.6820  175.8690  146.8000 C   0  0  0  0  0  0  0  0  0  0  0  0
  187.3310  176.3030  146.9540 N   0  0  0  0  0  2  0  0  0  0  0  0
  186.9410  177.7020  146.8440 C   0  0  0  0  0  2  0  0  0  0  0  0
  186.0980  177.1610  144.6250 N   0  0  0  0  0  2  0  0  0  0  0  0
  186.0770  178.1410  143.5460 C   0  0  1  0  0  3  0  0  0  0  0  0
  185.5850  179.3400  145.5280 C   0  0  0  0  0  2  0  0  0  0  0  0
  185.7890  177.8730  145.8620 C   0  0  2  0  0  0  0  0  0  0  0  0
  185.3550  177.5700  142.3430 C   0  0  0  0  0  1  0  0  0  0  0  0
  185.3570  179.3680  144.0450 C   0  0  0  0  0  2  0  0  0  0  0  0
  184.6150  177.3500  146.4090 O   0  0  0  0  0  1  0  0  0  0  0  0
  194.0160  176.3160  143.1300 O   0  0  0  0  0  0  0  0  0  0  0  0
  195.3730  176.0630  143.1300 N   0  0  0  0  0  2  0  0  0  0  0  0
  195.8560  176.2770  144.4880 C   0  0  0  0  0  2  0  0  0  0  0  0
  195.2500  175.2550  145.4410 C   0  0  2  0  0  3  0  0  0  0  0  0
  194.7900  175.8840  146.5830 F   0  0  0  0  0  0  0  0  0  0  0  0
  196.2600  174.1780  145.8170 C   0  0  0  0  0  2  0  0  0  0  0  0
  194.3460  172.9710  145.2640 C   0  0  0  0  0  1  0  0  0  0  0  0
  196.3060  172.6440  144.0540 C   0  0  0  0  0  1  0  0  0  0  0  0
  195.7870  172.8700  145.3930 N   0  0  0  0  0  0  0  0  0  0  0  0
  1  8  2  0  0  0  0
  2 10  2  0  0  0  0
  3  5  1  0  0  0  0
  5  4  2  0  0  0  0
  5 29  1  0  0  0  0
  6  7  1  0  0  0  0
  6  3  2  0  0  0  0
  7 11  2  0  0  0  0
  8  7  1  0  0  0  0
  8  2  1  0  0  0  0
  9  2  1  0  0  0  0
 11 10  1  0  0  0  0
 11  4  1  0  0  0  0
 12  4  1  6  0  0  0
 12 15  1  0  0  0  0
 13 12  1  0  0  0  0
 13 14  1  0  0  0  0
 14 16  1  0  0  0  0
 15 17  1  0  0  0  0
 16 17  1  0  0  0  0
 16 19  1  6  0  0  0
 19 18  2  0  0  0  0
 19 20  1  0  0  0  0
 21 20  1  0  0  0  0
 22 25  1  0  0  0  0
 23 26  1  6  0  0  0
 23 27  1  0  0  0  0
 23 22  1  0  0  0  0
 24 25  1  0  0  0  0
 25 28  1  1  0  0  0
 25 21  1  0  0  0  0
 27 24  1  0  0  0  0
 30 29  1  0  0  0  0
 30 31  1  0  0  0  0
 31 32  1  0  0  0  0
 32 34  1  0  0  0  0
 32 33  1  1  0  0  0
 35 37  1  0  0  0  0
 36 37  1  0  0  0  0
 37 34  1  0  0  0  0
M  END
>  <MODEL>
2

>  <REMARK>
 VINA RESULT:      -7.2      2.886      7.409
  Name = 
  10 active torsions:
  status: ('A' for Active; 'I' for Inactive)
    1  A    between atoms: C_2  and  C_3
    2  A    between atoms: C_2  and  C_15
    3  A    between atoms: C_3  and  N_30
    4  A    between atoms: C_6  and  C_16
    5  A    between atoms: O_9  and  C_17
    6  A    between atoms: O_9  and  N_30
    7  A    between atoms: C_14  and  C_24
    8  A    between atoms: C_15  and  N_31
    9  A    between atoms: N_19  and  C_25
   10  A    between atoms: C_21  and  C_25
                            x       y       z     vdW  Elec       q    Type
                         _______ _______ _______ _____ _____    ______ ____

>  <TORSDO>
F 10

$$$$
=
 OpenBabel11042416473D

 37 40  0  0  1  0  0  0  0  0999 V2000
  183.6910  178.8590  145.8230 O   0  0  0  0  0  0  0  0  0  0  0  0
  186.0000  178.1080  146.1450 C   0  0  0  0  0  0  0  0  0  0  0  0
  185.1320  178.2890  141.6690 C   0  0  0  0  0  3  0  0  0  0  0  0
  187.1830  177.6430  142.8310 C   0  0  0  0  0  0  0  0  0  0  0  0
  186.4780  177.8470  141.6250 C   0  0  0  0  0  0  0  0  0  0  0  0
  184.5080  178.5220  142.8610 N   0  0  0  0  0  0  0  0  0  0  0  0
  185.2010  178.3220  144.0060 C   0  0  0  0  0  0  0  0  0  0  0  0
  184.8070  178.4820  145.3810 C   0  0  0  0  0  0  0  0  0  0  0  0
  186.1020  178.1060  147.6280 C   0  0  0  0  0  1  0  0  0  0  0  0
  186.9860  177.7680  145.3670 N   0  0  0  0  0  0  0  0  0  0  0  0
  186.5000  177.8970  144.0260 C   0  0  0  0  0  0  0  0  0  0  0  0
  188.6060  177.1680  142.8130 C   0  0  1  0  0  3  0  0  0  0  0  0
  189.4750  178.1440  143.4700 N   0  0  0  0  0  2  0  0  0  0  0  0
  190.8690  177.7420  143.2730 C   0  0  0  0  0  2  0  0  0  0  0  0
  188.7300  175.8040  143.4880 C   0  0  0  0  0  2  0  0  0  0  0  0
  191.1500  176.3820  143.9220 C   0  0  2  0  0  3  0  0  0  0  0  0
  190.1750  175.3200  143.4110 C   0  0  0  0  0  2  0  0  0  0  0  0
  190.3310  177.1490  146.0420 O   0  0  0  0  0  0  0  0  0  0  0  0
  191.1780  176.4510  145.4240 C   0  0  0  0  0  0  0  0  0  0  0  0
  192.1440  175.7110  146.1690 N   0  0  0  0  0  2  0  0  0  0  0  0
  193.1490  174.8710  145.5310 C   0  0  0  0  0  2  0  0  0  0  0  0
  194.7410  176.2120  144.2690 N   0  0  0  0  0  2  0  0  0  0  0  0
  195.9480  175.6360  143.6880 C   0  0  1  0  0  3  0  0  0  0  0  0
  195.6140  174.5170  145.7490 C   0  0  0  0  0  2  0  0  0  0  0  0
  194.5160  175.5450  145.5480 C   0  0  2  0  0  0  0  0  0  0  0  0
  196.8170  176.7320  143.1070 C   0  0  0  0  0  1  0  0  0  0  0  0
  196.6920  174.9140  144.7820 C   0  0  0  0  0  2  0  0  0  0  0  0
  194.5670  176.4920  146.5730 O   0  0  0  0  0  1  0  0  0  0  0  0
  187.1150  177.6090  140.4000 O   0  0  0  0  0  0  0  0  0  0  0  0
  187.0690  176.3760  139.7820 N   0  0  0  0  0  2  0  0  0  0  0  0
  186.5170  176.5770  138.4490 C   0  0  0  0  0  2  0  0  0  0  0  0
  187.3470  175.8390  137.4060 C   0  0  2  0  0  3  0  0  0  0  0  0
  186.6120  175.6650  136.2490 F   0  0  0  0  0  0  0  0  0  0  0  0
  187.8170  174.4860  137.9260 C   0  0  0  0  0  2  0  0  0  0  0  0
  189.7310  173.3540  138.6180 C   0  0  0  0  0  1  0  0  0  0  0  0
  189.3050  173.6200  136.3460 C   0  0  0  0  0  1  0  0  0  0  0  0
  189.2280  174.2920  137.6320 N   0  0  0  0  0  0  0  0  0  0  0  0
  2  9  1  0  0  0  0
  3  6  1  0  0  0  0
  4 11  2  0  0  0  0
  5  3  2  0  0  0  0
  5  4  1  0  0  0  0
  6  7  2  0  0  0  0
  7 11  1  0  0  0  0
  7  8  1  0  0  0  0
  8  1  2  0  0  0  0
  8  2  1  0  0  0  0
 10  2  2  0  0  0  0
 11 10  1  0  0  0  0
 12  4  1  1  0  0  0
 12 13  1  0  0  0  0
 12 15  1  0  0  0  0
 14 13  1  0  0  0  0
 14 16  1  0  0  0  0
 16 19  1  1  0  0  0
 17 15  1  0  0  0  0
 17 16  1  0  0  0  0
 19 18  2  0  0  0  0
 19 20  1  0  0  0  0
 21 25  1  0  0  0  0
 21 20  1  0  0  0  0
 22 25  1  0  0  0  0
 23 26  1  1  0  0  0
 23 22  1  0  0  0  0
 23 27  1  0  0  0  0
 25 24  1  0  0  0  0
 25 28  1  1  0  0  0
 27 24  1  0  0  0  0
 29  5  1  0  0  0  0
 30 29  1  0  0  0  0
 31 30  1  0  0  0  0
 32 33  1  6  0  0  0
 32 34  1  0  0  0  0
 32 31  1  0  0  0  0
 36 37  1  0  0  0  0
 37 34  1  0  0  0  0
 37 35  1  0  0  0  0
M  END
>  <MODEL>
3

>  <REMARK>
 VINA RESULT:      -6.8      2.367      5.574
  Name = 
  10 active torsions:
  status: ('A' for Active; 'I' for Inactive)
    1  A    between atoms: C_2  and  C_3
    2  A    between atoms: C_2  and  C_15
    3  A    between atoms: C_3  and  N_30
    4  A    between atoms: C_6  and  C_16
    5  A    between atoms: O_9  and  C_17
    6  A    between atoms: O_9  and  N_30
    7  A    between atoms: C_14  and  C_24
    8  A    between atoms: C_15  and  N_31
    9  A    between atoms: N_19  and  C_25
   10  A    between atoms: C_21  and  C_25
                            x       y       z     vdW  Elec       q    Type
                         _______ _______ _______ _____ _____    ______ ____

>  <TORSDO>
F 10

$$$$
=
 OpenBabel11042416473D

 37 40  0  0  1  0  0  0  0  0999 V2000
  190.8860  171.2690  139.3510 O   0  0  0  0  0  0  0  0  0  0  0  0
  189.3240  173.0560  139.9550 C   0  0  0  0  0  0  0  0  0  0  0  0
  193.0350  173.4090  142.5860 C   0  0  0  0  0  3  0  0  0  0  0  0
  191.0190  174.7900  142.5460 C   0  0  0  0  0  0  0  0  0  0  0  0
  192.2910  174.5060  143.0890 C   0  0  0  0  0  0  0  0  0  0  0  0
  192.5400  172.6250  141.5840 N   0  0  0  0  0  0  0  0  0  0  0  0
  191.3190  172.9160  141.0760 C   0  0  0  0  0  0  0  0  0  0  0  0
  190.5600  172.2740  140.0360 C   0  0  0  0  0  0  0  0  0  0  0  0
  188.1990  172.7890  139.0200 C   0  0  0  0  0  1  0  0  0  0  0  0
  189.3140  174.0360  140.8130 N   0  0  0  0  0  0  0  0  0  0  0  0
  190.5560  173.9590  141.5200 C   0  0  0  0  0  0  0  0  0  0  0  0
  190.2070  175.9400  143.0660 C   0  0  1  0  0  3  0  0  0  0  0  0
  189.3870  176.5080  141.9960 N   0  0  0  0  0  2  0  0  0  0  0  0
  188.7530  177.7330  142.4860 C   0  0  0  0  0  2  0  0  0  0  0  0
  189.3280  175.4980  144.2340 C   0  0  0  0  0  2  0  0  0  0  0  0
  187.8160  177.4380  143.6620 C   0  0  2  0  0  3  0  0  0  0  0  0
  188.5520  176.6940  144.7780 C   0  0  0  0  0  2  0  0  0  0  0  0
  186.6280  175.5920  142.6940 O   0  0  0  0  0  0  0  0  0  0  0  0
  186.5600  176.7260  143.2390 C   0  0  0  0  0  0  0  0  0  0  0  0
  185.2780  177.3100  143.4680 N   0  0  0  0  0  2  0  0  0  0  0  0
  185.1130  178.6110  144.1040 C   0  0  0  0  0  2  0  0  0  0  0  0
  185.8460  179.2830  146.3260 N   0  0  0  0  0  2  0  0  0  0  0  0
  186.6080  178.3910  147.1910 C   0  0  1  0  0  3  0  0  0  0  0  0
  185.0670  177.0170  146.0290 C   0  0  0  0  0  2  0  0  0  0  0  0
  184.8800  178.4620  145.6020 C   0  0  2  0  0  0  0  0  0  0  0  0
  186.7790  179.0180  148.5590 C   0  0  0  0  0  1  0  0  0  0  0  0
  185.8470  177.0950  147.3100 C   0  0  0  0  0  2  0  0  0  0  0  0
  183.5880  178.8820  145.9260 O   0  0  0  0  0  1  0  0  0  0  0  0
  192.8020  175.3070  144.1180 O   0  0  0  0  0  0  0  0  0  0  0  0
  193.5950  176.4070  143.8610 N   0  0  0  0  0  2  0  0  0  0  0  0
  194.8930  176.1610  144.4760 C   0  0  0  0  0  2  0  0  0  0  0  0
  194.7450  175.2810  145.7100 C   0  0  2  0  0  3  0  0  0  0  0  0
  194.5580  176.0640  146.8340 F   0  0  0  0  0  0  0  0  0  0  0  0
  195.9630  174.3870  145.9030 C   0  0  0  0  0  2  0  0  0  0  0  0
  197.2530  172.6840  144.9740 C   0  0  0  0  0  1  0  0  0  0  0  0
  195.0340  172.2740  145.5350 C   0  0  0  0  0  1  0  0  0  0  0  0
  195.9270  173.2720  144.9700 N   0  0  0  0  0  0  0  0  0  0  0  0
  1  8  2  0  0  0  0
  2  8  1  0  0  0  0
  2 10  2  0  0  0  0
  3  5  1  0  0  0  0
  4  5  2  0  0  0  0
  5 29  1  0  0  0  0
  6  3  2  0  0  0  0
  7 11  2  0  0  0  0
  7  6  1  0  0  0  0
  8  7  1  0  0  0  0
  9  2  1  0  0  0  0
 10 11  1  0  0  0  0
 11  4  1  0  0  0  0
 12  4  1  6  0  0  0
 12 15  1  0  0  0  0
 13 14  1  0  0  0  0
 13 12  1  0  0  0  0
 14 16  1  0  0  0  0
 15 17  1  0  0  0  0
 16 19  1  6  0  0  0
 16 17  1  0  0  0  0
 18 19  2  0  0  0  0
 19 20  1  0  0  0  0
 20 21  1  0  0  0  0
 21 25  1  0  0  0  0
 22 23  1  0  0  0  0
 23 27  1  0  0  0  0
 23 26  1  1  0  0  0
 24 27  1  0  0  0  0
 25 28  1  1  0  0  0
 25 24  1  0  0  0  0
 25 22  1  0  0  0  0
 30 29  1  0  0  0  0
 30 31  1  0  0  0  0
 31 32  1  0  0  0  0
 32 34  1  0  0  0  0
 32 33  1  1  0  0  0
 37 35  1  0  0  0  0
 37 36  1  0  0  0  0
 37 34  1  0  0  0  0
M  END
>  <MODEL>
4

>  <REMARK>
 VINA RESULT:      -6.8      2.856      7.719
  Name = 
  10 active torsions:
  status: ('A' for Active; 'I' for Inactive)
    1  A    between atoms: C_2  and  C_3
    2  A    between atoms: C_2  and  C_15
    3  A    between atoms: C_3  and  N_30
    4  A    between atoms: C_6  and  C_16
    5  A    between atoms: O_9  and  C_17
    6  A    between atoms: O_9  and  N_30
    7  A    between atoms: C_14  and  C_24
    8  A    between atoms: C_15  and  N_31
    9  A    between atoms: N_19  and  C_25
   10  A    between atoms: C_21  and  C_25
                            x       y       z     vdW  Elec       q    Type
                         _______ _______ _______ _____ _____    ______ ____

>  <TORSDO>
F 10

$$$$
=
 OpenBabel11042416473D

 37 40  0  0  1  0  0  0  0  0999 V2000
  196.4450  176.4160  143.9000 O   0  0  0  0  0  0  0  0  0  0  0  0
  194.2260  176.6200  144.9170 C   0  0  0  0  0  0  0  0  0  0  0  0
  193.7980  174.5290  140.8840 C   0  0  0  0  0  3  0  0  0  0  0  0
  192.0820  175.1160  142.5230 C   0  0  0  0  0  0  0  0  0  0  0  0
  192.4380  174.5400  141.2830 C   0  0  0  0  0  0  0  0  0  0  0  0
  194.7690  175.0660  141.6810 N   0  0  0  0  0  0  0  0  0  0  0  0
  194.4060  175.6110  142.8660 C   0  0  0  0  0  0  0  0  0  0  0  0
  195.1990  176.2390  143.8900 C   0  0  0  0  0  0  0  0  0  0  0  0
  194.5520  177.3120  146.1930 C   0  0  0  0  0  1  0  0  0  0  0  0
  193.0130  176.2830  144.5850 N   0  0  0  0  0  0  0  0  0  0  0  0
  193.1130  175.6510  143.3040 C   0  0  0  0  0  0  0  0  0  0  0  0
  190.6490  175.1470  142.9660 C   0  0  1  0  0  3  0  0  0  0  0  0
  190.5590  174.9340  144.4100 N   0  0  0  0  0  2  0  0  0  0  0  0
  189.1500  174.7870  144.7790 C   0  0  0  0  0  2  0  0  0  0  0  0
  189.9920  176.4710  142.5800 C   0  0  0  0  0  2  0  0  0  0  0  0
  188.3590  176.0610  144.4630 C   0  0  2  0  0  3  0  0  0  0  0  0
  188.5240  176.4590  142.9950 C   0  0  0  0  0  2  0  0  0  0  0  0
  189.7950  177.7870  145.3090 O   0  0  0  0  0  0  0  0  0  0  0  0
  188.6870  177.1930  145.3970 C   0  0  0  0  0  0  0  0  0  0  0  0
  187.7430  177.6270  146.3760 N   0  0  0  0  0  2  0  0  0  0  0  0
  186.4360  177.0020  146.5340 C   0  0  0  0  0  2  0  0  0  0  0  0
  185.1190  177.2740  144.5050 N   0  0  0  0  0  2  0  0  0  0  0  0
  185.3820  178.3450  143.5500 C   0  0  1  0  0  3  0  0  0  0  0  0
  185.7870  179.2660  145.6950 C   0  0  0  0  0  2  0  0  0  0  0  0
  185.3530  177.8180  145.8400 C   0  0  2  0  0  0  0  0  0  0  0  0
  184.3090  178.3590  142.4810 C   0  0  0  0  0  1  0  0  0  0  0  0
  185.3770  179.6510  144.3030 C   0  0  0  0  0  2  0  0  0  0  0  0
  184.1660  177.7560  146.5740 O   0  0  0  0  0  1  0  0  0  0  0  0
  191.4450  173.9900  140.4630 O   0  0  0  0  0  0  0  0  0  0  0  0
  191.1100  172.6520  140.5210 N   0  0  0  0  0  2  0  0  0  0  0  0
  190.4390  172.3170  139.2720 C   0  0  0  0  0  2  0  0  0  0  0  0
  189.2050  173.1880  139.0730 C   0  0  2  0  0  3  0  0  0  0  0  0
  188.0590  172.4220  139.1760 F   0  0  0  0  0  0  0  0  0  0  0  0
  189.2340  173.8920  137.7230 C   0  0  0  0  0  2  0  0  0  0  0  0
  189.6380  172.7310  135.7440 C   0  0  0  0  0  1  0  0  0  0  0  0
  191.0530  174.4670  136.3720 C   0  0  0  0  0  1  0  0  0  0  0  0
  190.2890  173.3420  136.8870 N   0  0  0  0  0  0  0  0  0  0  0  0
  2  9  1  0  0  0  0
  3  5  2  0  0  0  0
  3  6  1  0  0  0  0
  4 11  2  0  0  0  0
  5  4  1  0  0  0  0
  6  7  2  0  0  0  0
  7 11  1  0  0  0  0
  7  8  1  0  0  0  0
  8  1  2  0  0  0  0
  8  2  1  0  0  0  0
 10  2  2  0  0  0  0
 11 10  1  0  0  0  0
 12  4  1  1  0  0  0
 12 13  1  0  0  0  0
 13 14  1  0  0  0  0
 15 12  1  0  0  0  0
 15 17  1  0  0  0  0
 16 14  1  0  0  0  0
 16 19  1  1  0  0  0
 17 16  1  0  0  0  0
 18 19  2  0  0  0  0
 19 20  1  0  0  0  0
 20 21  1  0  0  0  0
 22 25  1  0  0  0  0
 23 26  1  6  0  0  0
 23 27  1  0  0  0  0
 23 22  1  0  0  0  0
 24 25  1  0  0  0  0
 25 21  1  0  0  0  0
 25 28  1  1  0  0  0
 27 24  1  0  0  0  0
 29 30  1  0  0  0  0
 29  5  1  0  0  0  0
 31 30  1  0  0  0  0
 32 33  1  6  0  0  0
 32 31  1  0  0  0  0
 34 32  1  0  0  0  0
 35 37  1  0  0  0  0
 36 37  1  0  0  0  0
 37 34  1  0  0  0  0
M  END
>  <MODEL>
5

>  <REMARK>
 VINA RESULT:      -6.6      2.855      7.929
  Name = 
  10 active torsions:
  status: ('A' for Active; 'I' for Inactive)
    1  A    between atoms: C_2  and  C_3
    2  A    between atoms: C_2  and  C_15
    3  A    between atoms: C_3  and  N_30
    4  A    between atoms: C_6  and  C_16
    5  A    between atoms: O_9  and  C_17
    6  A    between atoms: O_9  and  N_30
    7  A    between atoms: C_14  and  C_24
    8  A    between atoms: C_15  and  N_31
    9  A    between atoms: N_19  and  C_25
   10  A    between atoms: C_21  and  C_25
                            x       y       z     vdW  Elec       q    Type
                         _______ _______ _______ _____ _____    ______ ____

>  <TORSDO>
F 10

$$$$
=
 OpenBabel11042416473D

 37 40  0  0  1  0  0  0  0  0999 V2000
  184.1010  178.1780  146.2120 O   0  0  0  0  0  0  0  0  0  0  0  0
  186.5290  178.0030  146.4840 C   0  0  0  0  0  0  0  0  0  0  0  0
  185.4910  177.2550  142.1040 C   0  0  0  0  0  3  0  0  0  0  0  0
  187.6730  177.2650  143.2070 C   0  0  0  0  0  0  0  0  0  0  0  0
  186.9000  177.1110  142.0350 C   0  0  0  0  0  0  0  0  0  0  0  0
  184.8720  177.5410  143.2870 N   0  0  0  0  0  0  0  0  0  0  0  0
  185.6310  177.6860  144.3980 C   0  0  0  0  0  0  0  0  0  0  0  0
  185.2570  177.9820  145.7560 C   0  0  0  0  0  0  0  0  0  0  0  0
  186.6790  178.2670  147.9390 C   0  0  0  0  0  1  0  0  0  0  0  0
  187.5400  177.7590  145.7010 N   0  0  0  0  0  0  0  0  0  0  0  0
  186.9910  177.5590  144.3930 C   0  0  0  0  0  0  0  0  0  0  0  0
  189.1640  177.1100  143.1630 C   0  0  1  0  0  3  0  0  0  0  0  0
  189.8050  178.1200  144.0040 N   0  0  0  0  0  2  0  0  0  0  0  0
  191.2520  178.0600  143.7960 C   0  0  0  0  0  2  0  0  0  0  0  0
  189.5760  175.7070  143.6050 C   0  0  0  0  0  2  0  0  0  0  0  0
  191.8160  176.6990  144.2190 C   0  0  2  0  0  3  0  0  0  0  0  0
  191.0910  175.5580  143.5030 C   0  0  0  0  0  2  0  0  0  0  0  0
  190.7480  176.5280  146.3600 O   0  0  0  0  0  0  0  0  0  0  0  0
  191.8270  176.5150  145.7120 C   0  0  0  0  0  0  0  0  0  0  0  0
  193.0540  176.3000  146.4100 N   0  0  0  0  0  2  0  0  0  0  0  0
  194.3430  176.2590  145.7330 C   0  0  0  0  0  2  0  0  0  0  0  0
  194.9050  174.6610  143.9850 N   0  0  0  0  0  2  0  0  0  0  0  0
  193.9820  173.6120  143.5710 C   0  0  1  0  0  3  0  0  0  0  0  0
  193.6940  173.8520  145.9100 C   0  0  0  0  0  2  0  0  0  0  0  0
  194.7550  174.8240  145.4280 C   0  0  2  0  0  0  0  0  0  0  0  0
  194.6630  172.6800  142.5900 C   0  0  0  0  0  1  0  0  0  0  0  0
  193.5630  172.8480  144.8010 C   0  0  0  0  0  2  0  0  0  0  0  0
  195.9720  174.5360  146.0500 O   0  0  0  0  0  1  0  0  0  0  0  0
  187.5320  176.8170  140.8200 O   0  0  0  0  0  0  0  0  0  0  0  0
  187.3520  175.6090  140.1790 N   0  0  0  0  0  2  0  0  0  0  0  0
  188.5630  174.8230  140.3830 C   0  0  0  0  0  2  0  0  0  0  0  0
  188.2240  173.3470  140.5500 C   0  0  2  0  0  3  0  0  0  0  0  0
  188.0750  173.0420  141.8910 F   0  0  0  0  0  0  0  0  0  0  0  0
  189.2980  172.4580  139.9360 C   0  0  0  0  0  2  0  0  0  0  0  0
  190.6100  170.7650  140.8510 C   0  0  0  0  0  1  0  0  0  0  0  0
  191.5510  172.8470  140.4170 C   0  0  0  0  0  1  0  0  0  0  0  0
  190.3500  172.1910  140.9040 N   0  0  0  0  0  0  0  0  0  0  0  0
  2  9  1  0  0  0  0
  3  6  1  0  0  0  0
  4 11  2  0  0  0  0
  5  3  2  0  0  0  0
  5  4  1  0  0  0  0
  6  7  2  0  0  0  0
  7  8  1  0  0  0  0
  8  1  2  0  0  0  0
  8  2  1  0  0  0  0
 10  2  2  0  0  0  0
 11  7  1  0  0  0  0
 11 10  1  0  0  0  0
 12  4  1  1  0  0  0
 12 15  1  0  0  0  0
 12 13  1  0  0  0  0
 14 13  1  0  0  0  0
 14 16  1  0  0  0  0
 16 19  1  1  0  0  0
 17 15  1  0  0  0  0
 17 16  1  0  0  0  0
 19 18  2  0  0  0  0
 19 20  1  0  0  0  0
 21 20  1  0  0  0  0
 22 25  1  0  0  0  0
 23 26  1  6  0  0  0
 23 22  1  0  0  0  0
 23 27  1  0  0  0  0
 25 21  1  0  0  0  0
 25 24  1  0  0  0  0
 25 28  1  1  0  0  0
 27 24  1  0  0  0  0
 29  5  1  0  0  0  0
 30 31  1  0  0  0  0
 30 29  1  0  0  0  0
 31 32  1  0  0  0  0
 32 33  1  1  0  0  0
 34 32  1  0  0  0  0
 34 37  1  0  0  0  0
 35 37  1  0  0  0  0
 36 37  1  0  0  0  0
M  END
>  <MODEL>
6

>  <REMARK>
 VINA RESULT:      -6.6      2.269      5.430
  Name = 
  10 active torsions:
  status: ('A' for Active; 'I' for Inactive)
    1  A    between atoms: C_2  and  C_3
    2  A    between atoms: C_2  and  C_15
    3  A    between atoms: C_3  and  N_30
    4  A    between atoms: C_6  and  C_16
    5  A    between atoms: O_9  and  C_17
    6  A    between atoms: O_9  and  N_30
    7  A    between atoms: C_14  and  C_24
    8  A    between atoms: C_15  and  N_31
    9  A    between atoms: N_19  and  C_25
   10  A    between atoms: C_21  and  C_25
                            x       y       z     vdW  Elec       q    Type
                         _______ _______ _______ _____ _____    ______ ____

>  <TORSDO>
F 10

$$$$
=
 OpenBabel11042416473D

 37 40  0  0  1  0  0  0  0  0999 V2000
  194.6370  177.0330  146.1570 O   0  0  0  0  0  0  0  0  0  0  0  0
  193.6540  176.0440  144.1430 C   0  0  0  0  0  0  0  0  0  0  0  0
  190.4190  176.3530  147.3450 C   0  0  0  0  0  3  0  0  0  0  0  0
  190.2730  175.4890  145.0640 C   0  0  0  0  0  0  0  0  0  0  0  0
  189.6540  175.7750  146.3010 C   0  0  0  0  0  0  0  0  0  0  0  0
  191.7430  176.6390  147.1720 N   0  0  0  0  0  0  0  0  0  0  0  0
  192.3160  176.3590  145.9780 C   0  0  0  0  0  0  0  0  0  0  0  0
  193.6670  176.5460  145.5190 C   0  0  0  0  0  0  0  0  0  0  0  0
  194.8270  176.0190  143.2290 C   0  0  0  0  0  1  0  0  0  0  0  0
  192.4770  175.6100  143.7960 N   0  0  0  0  0  0  0  0  0  0  0  0
  191.6310  175.8010  144.9350 C   0  0  0  0  0  0  0  0  0  0  0  0
  189.4880  174.8690  143.9450 C   0  0  1  0  0  3  0  0  0  0  0  0
  189.7200  175.5980  142.6980 N   0  0  0  0  0  2  0  0  0  0  0  0
  188.8060  175.0880  141.6750 C   0  0  0  0  0  2  0  0  0  0  0  0
  189.8560  173.3960  143.7770 C   0  0  0  0  0  2  0  0  0  0  0  0
  189.0720  173.6060  141.3850 C   0  0  2  0  0  3  0  0  0  0  0  0
  189.0100  172.7760  142.6690 C   0  0  0  0  0  2  0  0  0  0  0  0
  191.4090  173.0830  141.2450 O   0  0  0  0  0  0  0  0  0  0  0  0
  190.3530  173.3860  140.6290 C   0  0  0  0  0  0  0  0  0  0  0  0
  190.3860  173.4910  139.2050 N   0  0  0  0  0  2  0  0  0  0  0  0
  189.2060  173.8250  138.4180 C   0  0  0  0  0  2  0  0  0  0  0  0
  189.3230  172.4580  136.4070 N   0  0  0  0  0  2  0  0  0  0  0  0
  190.5950  172.0220  135.8420 C   0  0  1  0  0  3  0  0  0  0  0  0
  190.9660  174.2040  136.6830 C   0  0  0  0  0  2  0  0  0  0  0  0
  189.5220  173.8070  136.9270 C   0  0  2  0  0  0  0  0  0  0  0  0
  190.3600  171.3300  134.5150 C   0  0  0  0  0  1  0  0  0  0  0  0
  191.4580  173.2410  135.6410 C   0  0  0  0  0  2  0  0  0  0  0  0
  188.6730  174.6870  136.2510 O   0  0  0  0  0  1  0  0  0  0  0  0
  188.2970  175.4830  146.4830 O   0  0  0  0  0  0  0  0  0  0  0  0
  187.3930  176.4410  146.8940 N   0  0  0  0  0  2  0  0  0  0  0  0
  187.2070  177.3690  145.7860 C   0  0  0  0  0  2  0  0  0  0  0  0
  185.8720  178.0920  145.9080 C   0  0  2  0  0  3  0  0  0  0  0  0
  184.8520  177.1790  146.0990 F   0  0  0  0  0  0  0  0  0  0  0  0
  185.5830  178.9370  144.6740 C   0  0  0  0  0  2  0  0  0  0  0  0
  184.1900  178.2340  142.9440 C   0  0  0  0  0  1  0  0  0  0  0  0
  186.4310  178.6850  142.5110 C   0  0  0  0  0  1  0  0  0  0  0  0
  185.5290  178.0980  143.4870 N   0  0  0  0  0  0  0  0  0  0  0  0
  2  8  1  0  0  0  0
  4  5  1  0  0  0  0
  5 29  1  0  0  0  0
  5  3  2  0  0  0  0
  6  3  1  0  0  0  0
  7  6  2  0  0  0  0
  8  7  1  0  0  0  0
  8  1  2  0  0  0  0
  9  2  1  0  0  0  0
 10  2  2  0  0  0  0
 10 11  1  0  0  0  0
 11  4  2  0  0  0  0
 11  7  1  0  0  0  0
 12  4  1  1  0  0  0
 13 12  1  0  0  0  0
 14 13  1  0  0  0  0
 15 12  1  0  0  0  0
 16 19  1  1  0  0  0
 16 14  1  0  0  0  0
 16 17  1  0  0  0  0
 17 15  1  0  0  0  0
 19 18  2  0  0  0  0
 20 19  1  0  0  0  0
 21 20  1  0  0  0  0
 22 25  1  0  0  0  0
 23 26  1  6  0  0  0
 23 22  1  0  0  0  0
 24 25  1  0  0  0  0
 25 28  1  6  0  0  0
 25 21  1  0  0  0  0
 27 23  1  0  0  0  0
 27 24  1  0  0  0  0
 29 30  1  0  0  0  0
 31 32  1  0  0  0  0
 31 30  1  0  0  0  0
 32 33  1  6  0  0  0
 34 32  1  0  0  0  0
 35 37  1  0  0  0  0
 36 37  1  0  0  0  0
 37 34  1  0  0  0  0
M  END
>  <MODEL>
7

>  <REMARK>
 VINA RESULT:      -6.5      2.624      6.862
  Name = 
  10 active torsions:
  status: ('A' for Active; 'I' for Inactive)
    1  A    between atoms: C_2  and  C_3
    2  A    between atoms: C_2  and  C_15
    3  A    between atoms: C_3  and  N_30
    4  A    between atoms: C_6  and  C_16
    5  A    between atoms: O_9  and  C_17
    6  A    between atoms: O_9  and  N_30
    7  A    between atoms: C_14  and  C_24
    8  A    between atoms: C_15  and  N_31
    9  A    between atoms: N_19  and  C_25
   10  A    between atoms: C_21  and  C_25
                            x       y       z     vdW  Elec       q    Type
                         _______ _______ _______ _____ _____    ______ ____

>  <TORSDO>
F 10

$$$$
=
 OpenBabel11042416473D

 37 40  0  0  1  0  0  0  0  0999 V2000
  183.4210  178.9630  143.4530 O   0  0  0  0  0  0  0  0  0  0  0  0
  184.8850  177.9490  141.7720 C   0  0  0  0  0  0  0  0  0  0  0  0
  186.5630  177.0320  145.9150 C   0  0  0  0  0  3  0  0  0  0  0  0
  187.4140  176.3920  143.7150 C   0  0  0  0  0  0  0  0  0  0  0  0
  187.5340  176.3710  145.1220 C   0  0  0  0  0  0  0  0  0  0  0  0
  185.5130  177.6880  145.3380 N   0  0  0  0  0  0  0  0  0  0  0  0
  185.4150  177.6940  143.9880 C   0  0  0  0  0  0  0  0  0  0  0  0
  184.4350  178.2950  143.1220 C   0  0  0  0  0  0  0  0  0  0  0  0
  184.2010  178.3440  140.5130 C   0  0  0  0  0  1  0  0  0  0  0  0
  185.9780  177.2420  141.7920 N   0  0  0  0  0  0  0  0  0  0  0  0
  186.3200  177.0760  143.1720 C   0  0  0  0  0  0  0  0  0  0  0  0
  188.4330  175.7070  142.8520 C   0  0  1  0  0  3  0  0  0  0  0  0
  189.7520  175.7630  143.4810 N   0  0  0  0  0  2  0  0  0  0  0  0
  190.7480  175.2550  142.5370 C   0  0  0  0  0  2  0  0  0  0  0  0
  188.0300  174.2580  142.5860 C   0  0  0  0  0  2  0  0  0  0  0  0
  190.4790  173.7860  142.1870 C   0  0  2  0  0  3  0  0  0  0  0  0
  189.0530  173.5990  141.6660 C   0  0  0  0  0  2  0  0  0  0  0  0
  189.8780  172.4620  144.0950 O   0  0  0  0  0  0  0  0  0  0  0  0
  190.7940  172.8530  143.3240 C   0  0  0  0  0  0  0  0  0  0  0  0
  192.1250  172.3800  143.5300 N   0  0  0  0  0  2  0  0  0  0  0  0
  193.2370  172.7750  142.6760 C   0  0  0  0  0  2  0  0  0  0  0  0
  195.5970  172.2700  143.0010 N   0  0  0  0  0  2  0  0  0  0  0  0
  196.0650  171.4420  144.1060 C   0  0  1  0  0  3  0  0  0  0  0  0
  194.2540  172.7080  144.9590 C   0  0  0  0  0  2  0  0  0  0  0  0
  194.4830  173.0700  143.5030 C   0  0  2  0  0  0  0  0  0  0  0  0
  197.5790  171.4380  144.1440 C   0  0  0  0  0  1  0  0  0  0  0  0
  195.5190  172.0210  145.3860 C   0  0  0  0  0  2  0  0  0  0  0  0
  194.8110  174.4250  143.4020 O   0  0  0  0  0  1  0  0  0  0  0  0
  188.6110  175.7000  145.7160 O   0  0  0  0  0  0  0  0  0  0  0  0
  189.0570  176.0170  146.9830 N   0  0  0  0  0  2  0  0  0  0  0  0
  189.8970  174.9160  147.4370 C   0  0  0  0  0  2  0  0  0  0  0  0
  191.3200  175.3950  147.6920 C   0  0  2  0  0  3  0  0  0  0  0  0
  191.3070  176.6940  148.1660 F   0  0  0  0  0  0  0  0  0  0  0  0
  192.1670  175.3170  146.4280 C   0  0  0  0  0  2  0  0  0  0  0  0
  194.3810  176.0360  146.5130 C   0  0  0  0  0  1  0  0  0  0  0  0
  192.9330  176.9460  144.9370 C   0  0  0  0  0  1  0  0  0  0  0  0
  193.0180  176.4910  146.3150 N   0  0  0  0  0  0  0  0  0  0  0  0
  2 10  2  0  0  0  0
  2  8  1  0  0  0  0
  4  5  1  0  0  0  0
  5 29  1  0  0  0  0
  5  3  2  0  0  0  0
  6  3  1  0  0  0  0
  7  6  2  0  0  0  0
  8  1  2  0  0  0  0
  8  7  1  0  0  0  0
  9  2  1  0  0  0  0
 10 11  1  0  0  0  0
 11  4  2  0  0  0  0
 11  7  1  0  0  0  0
 12 13  1  0  0  0  0
 12  4  1  1  0  0  0
 14 13  1  0  0  0  0
 15 12  1  0  0  0  0
 16 14  1  0  0  0  0
 16 19  1  1  0  0  0
 17 16  1  0  0  0  0
 17 15  1  0  0  0  0
 19 20  1  0  0  0  0
 19 18  2  0  0  0  0
 21 25  1  0  0  0  0
 21 20  1  0  0  0  0
 22 25  1  0  0  0  0
 22 23  1  0  0  0  0
 23 26  1  1  0  0  0
 23 27  1  0  0  0  0
 24 27  1  0  0  0  0
 25 28  1  6  0  0  0
 25 24  1  0  0  0  0
 29 30  1  0  0  0  0
 30 31  1  0  0  0  0
 31 32  1  0  0  0  0
 32 33  1  6  0  0  0
 34 32  1  0  0  0  0
 36 37  1  0  0  0  0
 37 34  1  0  0  0  0
 37 35  1  0  0  0  0
M  END
>  <MODEL>
8

>  <REMARK>
 VINA RESULT:      -6.4      2.839      5.767
  Name = 
  10 active torsions:
  status: ('A' for Active; 'I' for Inactive)
    1  A    between atoms: C_2  and  C_3
    2  A    between atoms: C_2  and  C_15
    3  A    between atoms: C_3  and  N_30
    4  A    between atoms: C_6  and  C_16
    5  A    between atoms: O_9  and  C_17
    6  A    between atoms: O_9  and  N_30
    7  A    between atoms: C_14  and  C_24
    8  A    between atoms: C_15  and  N_31
    9  A    between atoms: N_19  and  C_25
   10  A    between atoms: C_21  and  C_25
                            x       y       z     vdW  Elec       q    Type
                         _______ _______ _______ _____ _____    ______ ____

>  <TORSDO>
F 10

$$$$
=
 OpenBabel11042416473D

 37 40  0  0  1  0  0  0  0  0999 V2000
  183.6740  178.8150  145.1900 O   0  0  0  0  0  0  0  0  0  0  0  0
  185.6100  178.1440  146.5330 C   0  0  0  0  0  0  0  0  0  0  0  0
  186.3570  176.9460  142.1940 C   0  0  0  0  0  3  0  0  0  0  0  0
  187.7790  176.6440  144.1590 C   0  0  0  0  0  0  0  0  0  0  0  0
  187.5640  176.4790  142.7730 C   0  0  0  0  0  0  0  0  0  0  0  0
  185.4010  177.5530  142.9570 N   0  0  0  0  0  0  0  0  0  0  0  0
  185.6270  177.7020  144.2830 C   0  0  0  0  0  0  0  0  0  0  0  0
  184.8120  178.2910  145.3130 C   0  0  0  0  0  0  0  0  0  0  0  0
  185.1980  178.6010  147.8870 C   0  0  0  0  0  1  0  0  0  0  0  0
  186.7470  177.5550  146.3010 N   0  0  0  0  0  0  0  0  0  0  0  0
  186.7700  177.2730  144.8970 C   0  0  0  0  0  0  0  0  0  0  0  0
  189.0440  176.1510  144.7980 C   0  0  1  0  0  3  0  0  0  0  0  0
  189.6570  175.1090  143.9750 N   0  0  0  0  0  2  0  0  0  0  0  0
  190.7790  174.5250  144.7110 C   0  0  0  0  0  2  0  0  0  0  0  0
  190.0230  177.3030  145.0170 C   0  0  0  0  0  2  0  0  0  0  0  0
  191.8630  175.5730  144.9890 C   0  0  2  0  0  3  0  0  0  0  0  0
  191.2790  176.7870  145.7130 C   0  0  0  0  0  2  0  0  0  0  0  0
  192.0050  176.3100  142.7110 O   0  0  0  0  0  0  0  0  0  0  0  0
  192.6230  175.9620  143.7510 C   0  0  0  0  0  0  0  0  0  0  0  0
  194.0510  175.9680  143.7450 N   0  0  0  0  0  2  0  0  0  0  0  0
  194.8400  175.5920  144.9100 C   0  0  0  0  0  2  0  0  0  0  0  0
  195.0710  173.2690  144.2190 N   0  0  0  0  0  2  0  0  0  0  0  0
  195.4770  172.2220  145.1500 C   0  0  1  0  0  3  0  0  0  0  0  0
  196.7000  174.1550  145.7640 C   0  0  0  0  0  2  0  0  0  0  0  0
  195.8180  174.4730  144.5710 C   0  0  2  0  0  0  0  0  0  0  0  0
  195.6900  170.9210  144.4040 C   0  0  0  0  0  1  0  0  0  0  0  0
  196.7630  172.6560  145.8060 C   0  0  0  0  0  2  0  0  0  0  0  0
  196.6140  174.8500  143.4870 O   0  0  0  0  0  1  0  0  0  0  0  0
  188.5420  175.8560  141.9880 O   0  0  0  0  0  0  0  0  0  0  0  0
  188.2330  175.2340  140.7960 N   0  0  0  0  0  2  0  0  0  0  0  0
  188.2180  173.7990  141.0440 C   0  0  0  0  0  2  0  0  0  0  0  0
  188.7950  173.0410  139.8560 C   0  0  2  0  0  3  0  0  0  0  0  0
  187.8030  172.3070  139.2320 F   0  0  0  0  0  0  0  0  0  0  0  0
  189.9280  172.1160  140.2830 C   0  0  0  0  0  2  0  0  0  0  0  0
  190.4040  171.1690  142.3570 C   0  0  0  0  0  1  0  0  0  0  0  0
  191.7210  172.9100  141.5550 C   0  0  0  0  0  1  0  0  0  0  0  0
  190.3530  172.4280  141.6390 N   0  0  0  0  0  0  0  0  0  0  0  0
  1  8  2  0  0  0  0
  2  9  1  0  0  0  0
  3  5  2  0  0  0  0
  3  6  1  0  0  0  0
  4 11  2  0  0  0  0
  5  4  1  0  0  0  0
  6  7  2  0  0  0  0
  7 11  1  0  0  0  0
  7  8  1  0  0  0  0
  8  2  1  0  0  0  0
 10  2  2  0  0  0  0
 11 10  1  0  0  0  0
 12  4  1  6  0  0  0
 12 15  1  0  0  0  0
 13 14  1  0  0  0  0
 13 12  1  0  0  0  0
 14 16  1  0  0  0  0
 15 17  1  0  0  0  0
 16 19  1  6  0  0  0
 16 17  1  0  0  0  0
 18 19  2  0  0  0  0
 20 19  1  0  0  0  0
 20 21  1  0  0  0  0
 22 25  1  0  0  0  0
 22 23  1  0  0  0  0
 23 26  1  6  0  0  0
 23 27  1  0  0  0  0
 24 27  1  0  0  0  0
 25 28  1  6  0  0  0
 25 21  1  0  0  0  0
 25 24  1  0  0  0  0
 29  5  1  0  0  0  0
 30 31  1  0  0  0  0
 30 29  1  0  0  0  0
 32 33  1  1  0  0  0
 32 34  1  0  0  0  0
 32 31  1  0  0  0  0
 34 37  1  0  0  0  0
 36 37  1  0  0  0  0
 37 35  1  0  0  0  0
M  END
>  <MODEL>
9

>  <REMARK>
 VINA RESULT:      -6.4      2.519      5.681
  Name = 
  10 active torsions:
  status: ('A' for Active; 'I' for Inactive)
    1  A    between atoms: C_2  and  C_3
    2  A    between atoms: C_2  and  C_15
    3  A    between atoms: C_3  and  N_30
    4  A    between atoms: C_6  and  C_16
    5  A    between atoms: O_9  and  C_17
    6  A    between atoms: O_9  and  N_30
    7  A    between atoms: C_14  and  C_24
    8  A    between atoms: C_15  and  N_31
    9  A    between atoms: N_19  and  C_25
   10  A    between atoms: C_21  and  C_25
                            x       y       z     vdW  Elec       q    Type
                         _______ _______ _______ _____ _____    ______ ____

>  <TORSDO>
F 10

$$$$
