=
 OpenBabel11042419013D

 41 44  0  0  1  0  0  0  0  0999 V2000
  190.2740  174.0260  144.9750 C   0  0  0  0  0  0  0  0  0  0  0  0
  191.4170  176.1260  148.3980 O   0  0  0  0  0  1  0  0  0  0  0  0
  189.7190  174.9440  147.1210 C   0  0  0  0  0  3  0  0  0  0  0  0
  193.4330  175.6480  146.2430 C   0  0  0  0  0  3  0  0  0  0  0  0
  192.2720  174.1650  144.0490 C   0  0  0  0  0  0  0  0  0  0  0  0
  191.5340  174.5060  145.1250 C   0  0  2  0  0  3  0  0  0  0  0  0
  193.6940  174.5190  143.9820 C   0  0  0  0  0  3  0  0  0  0  0  0
  191.0480  175.4300  147.2540 C   0  0  0  0  0  0  0  0  0  0  0  0
  191.5050  173.4670  143.1780 N   0  0  0  0  0  0  0  0  0  0  0  0
  191.9840  175.1970  146.2250 C   0  0  0  0  0  0  0  0  0  0  0  0
  189.3140  174.2260  145.9690 C   0  0  0  0  0  3  0  0  0  0  0  0
  190.2700  173.3660  143.7530 C   0  0  0  0  0  0  0  0  0  0  0  0
  194.2420  175.2000  145.0150 C   0  0  0  0  0  0  0  0  0  0  0  0
  192.9740  173.5670  141.3000 O   0  0  0  0  0  0  0  0  0  0  0  0
  191.9400  172.8520  141.9260 C   0  0  2  0  0  0  0  0  0  0  0  0
  191.7000  173.6190  140.6910 C   0  0  0  0  0  2  0  0  0  0  0  0
  192.1090  171.3440  141.8490 C   0  0  0  0  0  2  0  0  0  0  0  0
  193.1050  170.9310  142.7340 O   0  0  0  0  0  1  0  0  0  0  0  0
  189.1000  172.6640  143.1460 C   0  0  0  0  0  2  0  0  0  0  0  0
  187.8510  174.6050  142.4300 C   0  0  0  0  0  0  0  0  0  0  0  0
  187.2170  175.6980  142.7660 C   0  0  0  0  0  3  0  0  0  0  0  0
  188.4850  173.5180  142.0960 C   0  0  0  0  0  3  0  0  0  0  0  0
  187.7860  176.6740  143.6520 N   0  0  0  0  0  0  0  0  0  0  0  0
  186.7350  177.5280  144.7300 S   0  0  0  0  0  0  0  0  0  0  0  0
  185.5780  176.6430  145.1020 O   0  0  0  0  0  0  0  0  0  0  0  0
  187.4900  177.9110  145.9740 O   0  0  0  0  0  0  0  0  0  0  0  0
  185.3140  178.6520  142.7160 C   0  0  0  0  0  1  0  0  0  0  0  0
  185.3400  179.7290  144.8330 O   0  0  0  0  0  1  0  0  0  0  0  0
  186.1330  179.0090  143.9400 C   0  0  1  0  0  3  0  0  0  0  0  0
  189.1880  177.0710  143.5780 C   0  0  0  0  0  2  0  0  0  0  0  0
  189.4150  177.9760  142.3800 C   0  0  0  0  0  1  0  0  0  0  0  0
  195.6810  175.5810  144.9500 C   0  0  0  0  0  2  0  0  0  0  0  0
  195.8850  176.7400  143.9860 C   0  0  0  0  0  2  0  0  0  0  0  0
  197.9300  175.8600  142.8580 C   0  0  0  0  0  1  0  0  0  0  0  0
  195.8740  176.3180  141.5010 C   0  0  0  0  0  0  0  0  0  0  0  0
  196.5400  176.2730  142.7720 N   0  0  0  0  0  0  0  0  0  0  0  0
  194.6970  176.7700  141.4210 O   0  0  0  0  0  0  0  0  0  0  0  0
  196.5470  175.8520  140.3250 N   0  0  0  0  0  0  0  0  0  0  0  0
  195.9470  175.1580  139.4140 C   0  0  0  0  0  3  0  0  0  0  0  0
  196.6970  174.7010  138.2150 C   0  0  0  0  0  2  0  0  0  0  0  0
  197.9410  173.9560  138.6510 C   0  0  0  0  0  1  0  0  0  0  0  0
  1  6  1  0  0  0  0
  1 11  1  0  0  0  0
  3  8  1  0  0  0  0
  6  5  1  1  0  0  0
  6 10  1  0  0  0  0
  7  5  2  0  0  0  0
  7 13  1  0  0  0  0
  8  2  1  0  0  0  0
  9 12  1  0  0  0  0
  9  5  1  0  0  0  0
 10  4  1  0  0  0  0
 10  8  2  0  0  0  0
 11  3  2  0  0  0  0
 12  1  2  0  0  0  0
 13  4  2  0  0  0  0
 14 15  1  0  0  0  0
 15 17  1  6  0  0  0
 15  9  1  0  0  0  0
 16 14  1  0  0  0  0
 16 15  1  0  0  0  0
 17 18  1  0  0  0  0
 19 12  1  0  0  0  0
 20 21  2  0  0  0  0
 21 23  1  0  0  0  0
 22 20  2  0  0  0  0
 22 19  1  0  0  0  0
 23 24  1  0  0  0  0
 24 25  2  0  0  0  0
 24 26  2  0  0  0  0
 29 27  1  6  0  0  0
 29 24  1  0  0  0  0
 29 28  1  0  0  0  0
 30 23  1  0  0  0  0
 31 30  1  0  0  0  0
 32 13  1  0  0  0  0
 33 32  1  0  0  0  0
 35 36  1  0  0  0  0
 36 34  1  0  0  0  0
 36 33  1  0  0  0  0
 37 35  2  0  0  0  0
 38 35  1  0  0  0  0
 39 38  2  0  0  0  0
 40 41  1  0  0  0  0
 40 39  1  0  0  0  0
M  END
>  <MODEL>
1

>  <REMARK>
 VINA RESULT:      -6.5      0.000      0.000
  Name = 
  13 active torsions:
  status: ('A' for Active; 'I' for Inactive)
    1  A    between atoms: C_6  and  C_31
    2  A    between atoms: S_8  and  C_23
    3  A    between atoms: S_8  and  N_24
    4  A    between atoms: C_9  and  C_29
    5  A    between atoms: C_9  and  N_34
    6  A    between atoms: C_13  and  C_36
    7  A    between atoms: C_13  and  C_41
    8  A    between atoms: N_14  and  C_16
    9  A    between atoms: C_18  and  N_24
   10  A    between atoms: C_21  and  C_25
   11  A    between atoms: N_24  and  C_38
   12  A    between atoms: C_25  and  N_27
   13  A    between atoms: C_29  and  C_40
                            x       y       z     vdW  Elec       q    Type
                         _______ _______ _______ _____ _____    ______ ____

>  <TORSDO>
F 13

$$$$
=
 OpenBabel11042419013D

 41 44  0  0  1  0  0  0  0  0999 V2000
  191.7560  175.3820  145.6180 C   0  0  0  0  0  0  0  0  0  0  0  0
  195.2440  177.6510  145.9720 O   0  0  0  0  0  1  0  0  0  0  0  0
  193.2350  176.7070  146.9650 C   0  0  0  0  0  3  0  0  0  0  0  0
  194.5700  176.4200  143.3330 C   0  0  0  0  0  2  0  0  0  0  0  0
  192.0960  174.9310  143.4850 C   0  0  0  0  0  0  0  0  0  0  0  0
  192.5820  175.5830  144.5610 C   0  0  0  0  0  0  0  0  0  0  0  0
  192.8310  174.9420  142.2160 C   0  0  0  0  0  3  0  0  0  0  0  0
  194.0860  176.8950  145.8420 C   0  0  0  0  0  0  0  0  0  0  0  0
  190.9440  174.3030  143.8200 N   0  0  0  0  0  0  0  0  0  0  0  0
  193.7490  176.3090  144.6040 C   0  0  0  0  0  0  0  0  0  0  0  0
  192.0500  175.9370  146.8650 C   0  0  0  0  0  3  0  0  0  0  0  0
  190.7360  174.5680  145.1430 C   0  0  0  0  0  0  0  0  0  0  0  0
  193.9970  175.6270  142.1480 C   0  0  0  0  0  0  0  0  0  0  0  0
  189.7210  174.0610  141.7860 O   0  0  0  0  0  0  0  0  0  0  0  0
  190.1420  173.4290  142.9660 C   0  0  2  0  0  0  0  0  0  0  0  0
  188.7330  173.8090  142.7650 C   0  0  0  0  0  2  0  0  0  0  0  0
  190.5640  171.9840  142.7650 C   0  0  0  0  0  2  0  0  0  0  0  0
  191.0900  171.4710  143.9510 O   0  0  0  0  0  1  0  0  0  0  0  0
  189.5790  174.0660  145.9440 C   0  0  0  0  0  2  0  0  0  0  0  0
  188.7620  176.3400  145.8680 C   0  0  0  0  0  0  0  0  0  0  0  0
  188.6970  177.4700  145.2150 C   0  0  0  0  0  3  0  0  0  0  0  0
  188.8230  175.2120  146.5160 C   0  0  0  0  0  3  0  0  0  0  0  0
  188.3380  177.5360  143.8270 N   0  0  0  0  0  0  0  0  0  0  0  0
  186.6600  177.6330  143.4080 S   0  0  0  0  0  0  0  0  0  0  0  0
  186.5200  178.3200  142.0780 O   0  0  0  0  0  0  0  0  0  0  0  0
  186.0820  176.2480  143.3170 O   0  0  0  0  0  0  0  0  0  0  0  0
  185.4730  179.9480  144.1630 C   0  0  0  0  0  1  0  0  0  0  0  0
  184.5830  177.8950  144.9620 O   0  0  0  0  0  1  0  0  0  0  0  0
  185.7770  178.5480  144.6580 C   0  0  1  0  0  3  0  0  0  0  0  0
  189.3200  177.3830  142.7590 C   0  0  0  0  0  2  0  0  0  0  0  0
  190.6130  178.0880  143.1310 C   0  0  0  0  0  1  0  0  0  0  0  0
  194.7440  175.6600  140.8580 C   0  0  0  0  0  2  0  0  0  0  0  0
  196.2430  175.5860  141.1070 C   0  0  0  0  0  2  0  0  0  0  0  0
  196.0990  173.1170  140.7660 C   0  0  0  0  0  1  0  0  0  0  0  0
  197.3820  174.0210  142.7210 C   0  0  0  0  0  0  0  0  0  0  0  0
  196.6150  174.2420  141.5270 N   0  0  0  0  0  0  0  0  0  0  0  0
  197.7450  175.0010  143.4290 O   0  0  0  0  0  0  0  0  0  0  0  0
  197.7310  172.6850  143.1070 N   0  0  0  0  0  0  0  0  0  0  0  0
  197.5600  172.2480  144.3120 C   0  0  0  0  0  3  0  0  0  0  0  0
  197.9410  170.8530  144.6550 C   0  0  0  0  0  2  0  0  0  0  0  0
  197.1200  170.3800  145.8370 C   0  0  0  0  0  1  0  0  0  0  0  0
  1 11  1  0  0  0  0
  4 10  1  0  0  0  0
  5  9  1  0  0  0  0
  5  6  2  0  0  0  0
  6 10  1  0  0  0  0
  6  1  1  0  0  0  0
  7  5  1  0  0  0  0
  8  2  1  0  0  0  0
  8  3  1  0  0  0  0
  9 12  1  0  0  0  0
 10  8  2  0  0  0  0
 11  3  2  0  0  0  0
 12  1  2  0  0  0  0
 12 19  1  0  0  0  0
 13  7  2  0  0  0  0
 13  4  1  0  0  0  0
 14 16  1  0  0  0  0
 14 15  1  0  0  0  0
 15 17  1  6  0  0  0
 15  9  1  0  0  0  0
 16 15  1  0  0  0  0
 17 18  1  0  0  0  0
 19 22  1  0  0  0  0
 20 22  2  0  0  0  0
 21 20  2  0  0  0  0
 23 21  1  0  0  0  0
 24 23  1  0  0  0  0
 24 29  1  0  0  0  0
 25 24  2  0  0  0  0
 26 24  2  0  0  0  0
 29 27  1  6  0  0  0
 29 28  1  0  0  0  0
 30 31  1  0  0  0  0
 30 23  1  0  0  0  0
 32 33  1  0  0  0  0
 32 13  1  0  0  0  0
 33 36  1  0  0  0  0
 34 36  1  0  0  0  0
 35 38  1  0  0  0  0
 35 37  2  0  0  0  0
 36 35  1  0  0  0  0
 38 39  2  0  0  0  0
 39 40  1  0  0  0  0
 40 41  1  0  0  0  0
M  END
>  <MODEL>
2

>  <REMARK>
 VINA RESULT:      -6.5      2.312      3.469
  Name = 
  13 active torsions:
  status: ('A' for Active; 'I' for Inactive)
    1  A    between atoms: C_6  and  C_31
    2  A    between atoms: S_8  and  C_23
    3  A    between atoms: S_8  and  N_24
    4  A    between atoms: C_9  and  C_29
    5  A    between atoms: C_9  and  N_34
    6  A    between atoms: C_13  and  C_36
    7  A    between atoms: C_13  and  C_41
    8  A    between atoms: N_14  and  C_16
    9  A    between atoms: C_18  and  N_24
   10  A    between atoms: C_21  and  C_25
   11  A    between atoms: N_24  and  C_38
   12  A    between atoms: C_25  and  N_27
   13  A    between atoms: C_29  and  C_40
                            x       y       z     vdW  Elec       q    Type
                         _______ _______ _______ _____ _____    ______ ____

>  <TORSDO>
F 13

$$$$
=
 OpenBabel11042419013D

 41 44  0  0  1  0  0  0  0  0999 V2000
  187.6090  176.4420  145.8630 C   0  0  0  0  0  0  0  0  0  0  0  0
  184.0540  178.2160  147.1500 O   0  0  0  0  0  1  0  0  0  0  0  0
  186.1930  177.1760  147.6560 C   0  0  0  0  0  3  0  0  0  0  0  0
  184.5550  177.9200  144.2180 C   0  0  0  0  0  2  0  0  0  0  0  0
  187.1090  176.6570  143.7250 C   0  0  0  0  0  0  0  0  0  0  0  0
  186.6720  176.8750  144.9820 C   0  0  0  0  0  0  0  0  0  0  0  0
  186.3030  177.0830  142.5750 C   0  0  0  0  0  3  0  0  0  0  0  0
  185.2330  177.6270  146.7090 C   0  0  0  0  0  0  0  0  0  0  0  0
  188.3300  176.0720  143.7650 N   0  0  0  0  0  0  0  0  0  0  0  0
  185.4860  177.4750  145.3310 C   0  0  0  0  0  0  0  0  0  0  0  0
  187.4060  176.5760  147.2370 C   0  0  0  0  0  3  0  0  0  0  0  0
  188.6510  175.9500  145.0870 C   0  0  0  0  0  0  0  0  0  0  0  0
  185.1140  177.6880  142.8050 C   0  0  0  0  0  0  0  0  0  0  0  0
  188.4550  175.5960  141.4300 O   0  0  0  0  0  0  0  0  0  0  0  0
  189.1800  175.7390  142.6240 C   0  0  2  0  0  0  0  0  0  0  0  0
  188.9760  174.4160  142.0080 C   0  0  0  0  0  2  0  0  0  0  0  0
  190.5110  176.4500  142.4460 C   0  0  0  0  0  2  0  0  0  0  0  0
  190.3610  177.8130  142.7040 O   0  0  0  0  0  1  0  0  0  0  0  0
  189.9210  175.3620  145.6070 C   0  0  0  0  0  2  0  0  0  0  0  0
  190.7370  173.1840  144.9470 C   0  0  0  0  0  0  0  0  0  0  0  0
  191.6410  172.4890  144.3080 C   0  0  0  0  0  3  0  0  0  0  0  0
  189.8380  173.8770  145.5870 C   0  0  0  0  0  3  0  0  0  0  0  0
  193.0470  172.7100  144.4880 N   0  0  0  0  0  0  0  0  0  0  0  0
  193.8500  173.8370  143.4470 S   0  0  0  0  0  0  0  0  0  0  0  0
  195.1320  173.2280  142.9500 O   0  0  0  0  0  0  0  0  0  0  0  0
  192.9660  174.1620  142.2750 O   0  0  0  0  0  0  0  0  0  0  0  0
  193.5800  175.2820  145.7230 C   0  0  0  0  0  1  0  0  0  0  0  0
  195.5810  175.5030  144.4610 O   0  0  0  0  0  1  0  0  0  0  0  0
  194.2020  175.3390  144.3420 C   0  0  1  0  0  3  0  0  0  0  0  0
  193.8480  171.9190  145.4160 C   0  0  0  0  0  2  0  0  0  0  0  0
  193.9890  170.4950  144.9060 C   0  0  0  0  0  1  0  0  0  0  0  0
  184.2790  178.1090  141.6450 C   0  0  0  0  0  2  0  0  0  0  0  0
  182.8950  178.5380  142.1100 C   0  0  0  0  0  2  0  0  0  0  0  0
  182.3450  177.5390  139.8900 C   0  0  0  0  0  1  0  0  0  0  0  0
  180.5000  178.4290  141.3340 C   0  0  0  0  0  0  0  0  0  0  0  0
  181.8920  178.1410  141.1320 N   0  0  0  0  0  0  0  0  0  0  0  0
  180.1260  179.0400  142.3740 O   0  0  0  0  0  0  0  0  0  0  0  0
  179.5380  178.0260  140.3510 N   0  0  0  0  0  0  0  0  0  0  0  0
  178.7980  178.8780  139.7190 C   0  0  0  0  0  3  0  0  0  0  0  0
  177.8160  178.4010  138.7100 C   0  0  0  0  0  2  0  0  0  0  0  0
  178.2480  177.0490  138.1830 C   0  0  0  0  0  1  0  0  0  0  0  0
  1 11  1  0  0  0  0
  4 10  1  0  0  0  0
  5  9  1  0  0  0  0
  5  6  2  0  0  0  0
  6 10  1  0  0  0  0
  6  1  1  0  0  0  0
  7 13  2  0  0  0  0
  7  5  1  0  0  0  0
  8  2  1  0  0  0  0
  8  3  1  0  0  0  0
  9 12  1  0  0  0  0
 10  8  2  0  0  0  0
 11  3  2  0  0  0  0
 12 19  1  0  0  0  0
 12  1  2  0  0  0  0
 13  4  1  0  0  0  0
 14 16  1  0  0  0  0
 14 15  1  0  0  0  0
 15 17  1  6  0  0  0
 15  9  1  0  0  0  0
 16 15  1  0  0  0  0
 17 18  1  0  0  0  0
 20 22  2  0  0  0  0
 21 23  1  0  0  0  0
 21 20  2  0  0  0  0
 22 19  1  0  0  0  0
 23 30  1  0  0  0  0
 24 29  1  0  0  0  0
 24 23  1  0  0  0  0
 25 24  2  0  0  0  0
 26 24  2  0  0  0  0
 29 28  1  0  0  0  0
 29 27  1  1  0  0  0
 31 30  1  0  0  0  0
 32 33  1  0  0  0  0
 32 13  1  0  0  0  0
 34 36  1  0  0  0  0
 35 37  2  0  0  0  0
 36 35  1  0  0  0  0
 36 33  1  0  0  0  0
 38 35  1  0  0  0  0
 39 38  2  0  0  0  0
 40 39  1  0  0  0  0
 41 40  1  0  0  0  0
M  END
>  <MODEL>
3

>  <REMARK>
 VINA RESULT:      -6.4      3.989      9.958
  Name = 
  13 active torsions:
  status: ('A' for Active; 'I' for Inactive)
    1  A    between atoms: C_6  and  C_31
    2  A    between atoms: S_8  and  C_23
    3  A    between atoms: S_8  and  N_24
    4  A    between atoms: C_9  and  C_29
    5  A    between atoms: C_9  and  N_34
    6  A    between atoms: C_13  and  C_36
    7  A    between atoms: C_13  and  C_41
    8  A    between atoms: N_14  and  C_16
    9  A    between atoms: C_18  and  N_24
   10  A    between atoms: C_21  and  C_25
   11  A    between atoms: N_24  and  C_38
   12  A    between atoms: C_25  and  N_27
   13  A    between atoms: C_29  and  C_40
                            x       y       z     vdW  Elec       q    Type
                         _______ _______ _______ _____ _____    ______ ____

>  <TORSDO>
F 13

$$$$
=
 OpenBabel11042419013D

 41 44  0  0  1  0  0  0  0  0999 V2000
  190.8160  174.4940  145.2210 C   0  0  0  0  0  0  0  0  0  0  0  0
  190.7770  177.3570  148.2600 O   0  0  0  0  0  1  0  0  0  0  0  0
  191.7910  175.4110  147.2120 C   0  0  0  0  0  3  0  0  0  0  0  0
  188.6600  177.4430  146.1520 C   0  0  0  0  0  3  0  0  0  0  0  0
  189.0230  175.3130  144.2300 C   0  0  0  0  0  0  0  0  0  0  0  0
  189.8580  175.4530  145.2790 C   0  0  2  0  0  3  0  0  0  0  0  0
  187.9220  176.2610  144.0270 C   0  0  0  0  0  3  0  0  0  0  0  0
  190.7790  176.4090  147.2440 C   0  0  0  0  0  0  0  0  0  0  0  0
  189.4150  174.2580  143.4770 N   0  0  0  0  0  0  0  0  0  0  0  0
  189.7870  176.4310  146.2430 C   0  0  0  0  0  0  0  0  0  0  0  0
  191.8220  174.4340  146.1860 C   0  0  0  0  0  3  0  0  0  0  0  0
  190.5330  173.7550  144.0780 C   0  0  0  0  0  0  0  0  0  0  0  0
  187.7600  177.2670  144.9180 C   0  0  0  0  0  0  0  0  0  0  0  0
  187.4630  173.4930  142.3370 O   0  0  0  0  0  0  0  0  0  0  0  0
  188.8250  173.8140  142.2160 C   0  0  2  0  0  0  0  0  0  0  0  0
  188.3620  172.4160  142.1560 C   0  0  0  0  0  2  0  0  0  0  0  0
  189.1660  174.5460  140.9290 C   0  0  0  0  0  2  0  0  0  0  0  0
  188.1110  175.3820  140.5620 O   0  0  0  0  0  1  0  0  0  0  0  0
  191.3160  172.5840  143.5840 C   0  0  0  0  0  2  0  0  0  0  0  0
  192.4650  174.2160  142.2200 C   0  0  0  0  0  0  0  0  0  0  0  0
  192.8220  175.4620  142.0530 C   0  0  0  0  0  3  0  0  0  0  0  0
  192.1130  172.9730  142.3900 C   0  0  0  0  0  3  0  0  0  0  0  0
  193.4450  176.2290  143.0930 N   0  0  0  0  0  0  0  0  0  0  0  0
  195.1260  175.9730  143.4210 S   0  0  0  0  0  0  0  0  0  0  0  0
  195.9410  176.4770  142.2640 O   0  0  0  0  0  0  0  0  0  0  0  0
  195.5160  176.7170  144.6680 O   0  0  0  0  0  0  0  0  0  0  0  0
  196.9180  173.9450  143.5480 C   0  0  0  0  0  1  0  0  0  0  0  0
  194.9870  173.8500  144.9290 O   0  0  0  0  0  1  0  0  0  0  0  0
  195.4350  174.2330  143.6660 C   0  0  1  0  0  3  0  0  0  0  0  0
  192.6850  177.1100  143.9730 C   0  0  0  0  0  2  0  0  0  0  0  0
  191.5500  177.7660  143.2060 C   0  0  0  0  0  1  0  0  0  0  0  0
  186.6350  178.2260  144.7320 C   0  0  0  0  0  2  0  0  0  0  0  0
  186.1230  178.1790  143.2990 C   0  0  0  0  0  2  0  0  0  0  0  0
  184.0420  178.8410  144.5080 C   0  0  0  0  0  1  0  0  0  0  0  0
  183.9210  178.2540  142.0750 C   0  0  0  0  0  0  0  0  0  0  0  0
  184.6940  178.4570  143.2680 N   0  0  0  0  0  0  0  0  0  0  0  0
  184.4800  177.8260  141.0260 O   0  0  0  0  0  0  0  0  0  0  0  0
  182.5160  178.5360  142.0780 N   0  0  0  0  0  0  0  0  0  0  0  0
  181.7930  178.4540  141.0080 C   0  0  0  0  0  3  0  0  0  0  0  0
  180.3390  178.7580  141.0720 C   0  0  0  0  0  2  0  0  0  0  0  0
  179.6090  177.9610  140.0110 C   0  0  0  0  0  1  0  0  0  0  0  0
  1  6  1  0  0  0  0
  1 11  1  0  0  0  0
  3  8  1  0  0  0  0
  4 10  1  0  0  0  0
  6  5  1  6  0  0  0
  6 10  1  0  0  0  0
  7  5  2  0  0  0  0
  7 13  1  0  0  0  0
  8  2  1  0  0  0  0
  9 12  1  0  0  0  0
  9  5  1  0  0  0  0
 10  8  2  0  0  0  0
 11  3  2  0  0  0  0
 12  1  2  0  0  0  0
 13  4  2  0  0  0  0
 15 17  1  6  0  0  0
 15 14  1  0  0  0  0
 15  9  1  0  0  0  0
 16 15  1  0  0  0  0
 16 14  1  0  0  0  0
 18 17  1  0  0  0  0
 19 12  1  0  0  0  0
 20 22  2  0  0  0  0
 21 20  2  0  0  0  0
 21 23  1  0  0  0  0
 22 19  1  0  0  0  0
 23 24  1  0  0  0  0
 23 30  1  0  0  0  0
 24 29  1  0  0  0  0
 24 26  2  0  0  0  0
 25 24  2  0  0  0  0
 29 27  1  1  0  0  0
 29 28  1  0  0  0  0
 31 30  1  0  0  0  0
 32 13  1  0  0  0  0
 33 32  1  0  0  0  0
 35 38  1  0  0  0  0
 35 36  1  0  0  0  0
 36 33  1  0  0  0  0
 36 34  1  0  0  0  0
 37 35  2  0  0  0  0
 39 40  1  0  0  0  0
 39 38  2  0  0  0  0
 41 40  1  0  0  0  0
M  END
>  <MODEL>
4

>  <REMARK>
 VINA RESULT:      -6.4      3.079      8.421
  Name = 
  13 active torsions:
  status: ('A' for Active; 'I' for Inactive)
    1  A    between atoms: C_6  and  C_31
    2  A    between atoms: S_8  and  C_23
    3  A    between atoms: S_8  and  N_24
    4  A    between atoms: C_9  and  C_29
    5  A    between atoms: C_9  and  N_34
    6  A    between atoms: C_13  and  C_36
    7  A    between atoms: C_13  and  C_41
    8  A    between atoms: N_14  and  C_16
    9  A    between atoms: C_18  and  N_24
   10  A    between atoms: C_21  and  C_25
   11  A    between atoms: N_24  and  C_38
   12  A    between atoms: C_25  and  N_27
   13  A    between atoms: C_29  and  C_40
                            x       y       z     vdW  Elec       q    Type
                         _______ _______ _______ _____ _____    ______ ____

>  <TORSDO>
F 13

$$$$
=
 OpenBabel11042419013D

 41 44  0  0  1  0  0  0  0  0999 V2000
  188.3800  176.1330  144.8680 C   0  0  0  0  0  0  0  0  0  0  0  0
  186.3620  178.8210  142.3910 O   0  0  0  0  0  1  0  0  0  0  0  0
  187.1660  178.1850  144.5950 C   0  0  0  0  0  3  0  0  0  0  0  0
  187.5350  176.3430  141.2000 C   0  0  0  0  0  2  0  0  0  0  0  0
  188.8490  174.7440  143.2190 C   0  0  0  0  0  0  0  0  0  0  0  0
  188.2340  175.9010  143.5400 C   0  0  0  0  0  0  0  0  0  0  0  0
  188.8860  174.2840  141.8270 C   0  0  0  0  0  3  0  0  0  0  0  0
  187.0350  177.9190  143.2050 C   0  0  0  0  0  0  0  0  0  0  0  0
  189.3950  174.1990  144.3320 N   0  0  0  0  0  0  0  0  0  0  0  0
  187.5920  176.7430  142.6630 C   0  0  0  0  0  0  0  0  0  0  0  0
  187.8510  177.2860  145.4500 C   0  0  0  0  0  3  0  0  0  0  0  0
  189.1200  175.0630  145.3540 C   0  0  0  0  0  0  0  0  0  0  0  0
  188.2840  175.0390  140.8790 C   0  0  0  0  0  0  0  0  0  0  0  0
  189.7310  171.9620  143.5750 O   0  0  0  0  0  0  0  0  0  0  0  0
  190.2090  172.9880  144.4060 C   0  0  2  0  0  0  0  0  0  0  0  0
  189.5640  171.7880  144.9680 C   0  0  0  0  0  2  0  0  0  0  0  0
  191.7240  173.1010  144.4240 C   0  0  0  0  0  2  0  0  0  0  0  0
  192.2080  173.2330  143.1230 O   0  0  0  0  0  1  0  0  0  0  0  0
  189.5420  174.8690  146.7730 C   0  0  0  0  0  2  0  0  0  0  0  0
  191.5690  176.1830  146.6830 C   0  0  0  0  0  0  0  0  0  0  0  0
  192.7500  176.3590  146.1510 C   0  0  0  0  0  3  0  0  0  0  0  0
  190.3900  176.0090  147.2100 C   0  0  0  0  0  3  0  0  0  0  0  0
  192.9610  176.3550  144.7320 N   0  0  0  0  0  0  0  0  0  0  0  0
  194.5620  176.0840  144.1320 S   0  0  0  0  0  0  0  0  0  0  0  0
  194.5400  176.1050  142.6290 O   0  0  0  0  0  0  0  0  0  0  0  0
  195.4790  177.1660  144.6320 O   0  0  0  0  0  0  0  0  0  0  0  0
  195.9660  173.8250  143.6140 C   0  0  0  0  0  1  0  0  0  0  0  0
  195.9690  174.6890  145.8280 O   0  0  0  0  0  1  0  0  0  0  0  0
  195.1630  174.5050  144.7050 C   0  0  1  0  0  3  0  0  0  0  0  0
  191.9070  176.7080  143.7860 C   0  0  0  0  0  2  0  0  0  0  0  0
  191.5370  178.1730  143.9360 C   0  0  0  0  0  1  0  0  0  0  0  0
  188.3000  174.5740  139.4630 C   0  0  0  0  0  2  0  0  0  0  0  0
  189.1270  173.3040  139.3270 C   0  0  0  0  0  2  0  0  0  0  0  0
  189.6600  173.7010  136.9220 C   0  0  0  0  0  1  0  0  0  0  0  0
  191.5230  173.2880  138.5470 C   0  0  0  0  0  0  0  0  0  0  0  0
  190.1230  173.4640  138.2780 N   0  0  0  0  0  0  0  0  0  0  0  0
  191.9090  172.9870  139.7110 O   0  0  0  0  0  0  0  0  0  0  0  0
  192.4780  173.4520  137.4910 N   0  0  0  0  0  0  0  0  0  0  0  0
  193.5970  174.0780  137.6630 C   0  0  0  0  0  3  0  0  0  0  0  0
  194.5500  174.2170  136.5310 C   0  0  0  0  0  2  0  0  0  0  0  0
  195.5140  175.3500  136.8170 C   0  0  0  0  0  1  0  0  0  0  0  0
  1 12  2  0  0  0  0
  1 11  1  0  0  0  0
  2  8  1  0  0  0  0
  3 11  2  0  0  0  0
  4 10  1  0  0  0  0
  5  6  2  0  0  0  0
  5  9  1  0  0  0  0
  6  1  1  0  0  0  0
  7  5  1  0  0  0  0
  8  3  1  0  0  0  0
  9 15  1  0  0  0  0
  9 12  1  0  0  0  0
 10  8  2  0  0  0  0
 10  6  1  0  0  0  0
 12 19  1  0  0  0  0
 13  4  1  0  0  0  0
 13  7  2  0  0  0  0
 14 15  1  0  0  0  0
 14 16  1  0  0  0  0
 15 17  1  1  0  0  0
 15 16  1  0  0  0  0
 18 17  1  0  0  0  0
 19 22  1  0  0  0  0
 20 22  2  0  0  0  0
 21 20  2  0  0  0  0
 23 21  1  0  0  0  0
 24 26  2  0  0  0  0
 24 29  1  0  0  0  0
 24 23  1  0  0  0  0
 25 24  2  0  0  0  0
 29 27  1  6  0  0  0
 29 28  1  0  0  0  0
 30 31  1  0  0  0  0
 30 23  1  0  0  0  0
 32 13  1  0  0  0  0
 33 32  1  0  0  0  0
 34 36  1  0  0  0  0
 35 37  2  0  0  0  0
 36 35  1  0  0  0  0
 36 33  1  0  0  0  0
 38 39  2  0  0  0  0
 38 35  1  0  0  0  0
 40 41  1  0  0  0  0
 40 39  1  0  0  0  0
M  END
>  <MODEL>
5

>  <REMARK>
 VINA RESULT:      -6.3      2.802      6.382
  Name = 
  13 active torsions:
  status: ('A' for Active; 'I' for Inactive)
    1  A    between atoms: C_6  and  C_31
    2  A    between atoms: S_8  and  C_23
    3  A    between atoms: S_8  and  N_24
    4  A    between atoms: C_9  and  C_29
    5  A    between atoms: C_9  and  N_34
    6  A    between atoms: C_13  and  C_36
    7  A    between atoms: C_13  and  C_41
    8  A    between atoms: N_14  and  C_16
    9  A    between atoms: C_18  and  N_24
   10  A    between atoms: C_21  and  C_25
   11  A    between atoms: N_24  and  C_38
   12  A    between atoms: C_25  and  N_27
   13  A    between atoms: C_29  and  C_40
                            x       y       z     vdW  Elec       q    Type
                         _______ _______ _______ _____ _____    ______ ____

>  <TORSDO>
F 13

$$$$
=
 OpenBabel11042419013D

 41 44  0  0  1  0  0  0  0  0999 V2000
  191.7830  175.2120  145.3590 C   0  0  0  0  0  0  0  0  0  0  0  0
  195.4990  177.0850  145.0160 O   0  0  0  0  0  1  0  0  0  0  0  0
  193.5900  176.4250  146.3690 C   0  0  0  0  0  3  0  0  0  0  0  0
  194.2830  175.8110  142.6010 C   0  0  0  0  0  2  0  0  0  0  0  0
  191.7250  174.6210  143.2340 C   0  0  0  0  0  0  0  0  0  0  0  0
  192.4430  175.2660  144.1750 C   0  0  0  0  0  0  0  0  0  0  0  0
  192.2420  174.4870  141.8680 C   0  0  0  0  0  3  0  0  0  0  0  0
  194.2630  176.4600  145.1170 C   0  0  0  0  0  0  0  0  0  0  0  0
  190.5820  174.1450  143.7850 N   0  0  0  0  0  0  0  0  0  0  0  0
  193.6710  175.8560  143.9890 C   0  0  0  0  0  0  0  0  0  0  0  0
  192.3310  175.7900  146.5050 C   0  0  0  0  0  3  0  0  0  0  0  0
  190.6200  174.4960  145.1040 C   0  0  0  0  0  0  0  0  0  0  0  0
  193.4460  175.0310  141.5740 C   0  0  0  0  0  0  0  0  0  0  0  0
  189.2560  172.1630  143.8480 O   0  0  0  0  0  0  0  0  0  0  0  0
  189.5670  173.3270  143.1260 C   0  0  2  0  0  0  0  0  0  0  0  0
  189.9910  171.9970  142.6520 C   0  0  0  0  0  2  0  0  0  0  0  0
  188.3560  173.9940  142.4980 C   0  0  0  0  0  2  0  0  0  0  0  0
  188.7660  174.9050  141.5240 O   0  0  0  0  0  1  0  0  0  0  0  0
  189.5630  174.1680  146.1060 C   0  0  0  0  0  2  0  0  0  0  0  0
  188.5950  176.3560  146.4530 C   0  0  0  0  0  0  0  0  0  0  0  0
  187.9100  177.3530  145.9580 C   0  0  0  0  0  3  0  0  0  0  0  0
  189.2740  175.3600  146.9470 C   0  0  0  0  0  3  0  0  0  0  0  0
  186.6660  177.1630  145.2700 N   0  0  0  0  0  0  0  0  0  0  0  0
  186.5820  177.5510  143.5840 S   0  0  0  0  0  0  0  0  0  0  0  0
  187.9720  177.7740  143.0560 O   0  0  0  0  0  0  0  0  0  0  0  0
  185.9410  176.4160  142.8350 O   0  0  0  0  0  0  0  0  0  0  0  0
  184.1320  178.6680  143.2860 C   0  0  0  0  0  1  0  0  0  0  0  0
  185.8210  179.9050  144.4100 O   0  0  0  0  0  1  0  0  0  0  0  0
  185.6040  179.0240  143.3510 C   0  0  1  0  0  3  0  0  0  0  0  0
  185.4380  176.7920  145.9650 C   0  0  0  0  0  2  0  0  0  0  0  0
  185.1030  177.8250  147.0260 C   0  0  0  0  0  1  0  0  0  0  0  0
  193.9730  174.9160  140.1850 C   0  0  0  0  0  2  0  0  0  0  0  0
  194.4290  173.4920  139.9020 C   0  0  0  0  0  2  0  0  0  0  0  0
  193.2250  173.4370  137.7170 C   0  0  0  0  0  1  0  0  0  0  0  0
  192.7480  171.6740  139.4330 C   0  0  0  0  0  0  0  0  0  0  0  0
  193.4860  172.8310  139.0110 N   0  0  0  0  0  0  0  0  0  0  0  0
  192.9110  171.2110  140.5970 O   0  0  0  0  0  0  0  0  0  0  0  0
  191.8260  171.0480  138.5320 N   0  0  0  0  0  0  0  0  0  0  0  0
  190.6040  170.7850  138.8660 C   0  0  0  0  0  3  0  0  0  0  0  0
  189.6930  170.1340  137.8890 C   0  0  0  0  0  2  0  0  0  0  0  0
  190.1750  170.4160  136.4820 C   0  0  0  0  0  1  0  0  0  0  0  0
  1 11  1  0  0  0  0
  2  8  1  0  0  0  0
  3 11  2  0  0  0  0
  4 10  1  0  0  0  0
  5  9  1  0  0  0  0
  5  6  2  0  0  0  0
  6  1  1  0  0  0  0
  7  5  1  0  0  0  0
  8  3  1  0  0  0  0
  9 12  1  0  0  0  0
 10  6  1  0  0  0  0
 10  8  2  0  0  0  0
 12  1  2  0  0  0  0
 12 19  1  0  0  0  0
 13  7  2  0  0  0  0
 13  4  1  0  0  0  0
 15 17  1  6  0  0  0
 15  9  1  0  0  0  0
 15 14  1  0  0  0  0
 16 15  1  0  0  0  0
 16 14  1  0  0  0  0
 18 17  1  0  0  0  0
 19 22  1  0  0  0  0
 20 22  2  0  0  0  0
 21 20  2  0  0  0  0
 23 21  1  0  0  0  0
 23 30  1  0  0  0  0
 24 23  1  0  0  0  0
 25 24  2  0  0  0  0
 26 24  2  0  0  0  0
 29 27  1  1  0  0  0
 29 24  1  0  0  0  0
 29 28  1  0  0  0  0
 30 31  1  0  0  0  0
 32 13  1  0  0  0  0
 33 32  1  0  0  0  0
 34 36  1  0  0  0  0
 35 37  2  0  0  0  0
 36 35  1  0  0  0  0
 36 33  1  0  0  0  0
 38 39  2  0  0  0  0
 38 35  1  0  0  0  0
 40 39  1  0  0  0  0
 41 40  1  0  0  0  0
M  END
>  <MODEL>
6

>  <REMARK>
 VINA RESULT:      -6.2      2.591      4.554
  Name = 
  13 active torsions:
  status: ('A' for Active; 'I' for Inactive)
    1  A    between atoms: C_6  and  C_31
    2  A    between atoms: S_8  and  C_23
    3  A    between atoms: S_8  and  N_24
    4  A    between atoms: C_9  and  C_29
    5  A    between atoms: C_9  and  N_34
    6  A    between atoms: C_13  and  C_36
    7  A    between atoms: C_13  and  C_41
    8  A    between atoms: N_14  and  C_16
    9  A    between atoms: C_18  and  N_24
   10  A    between atoms: C_21  and  C_25
   11  A    between atoms: N_24  and  C_38
   12  A    between atoms: C_25  and  N_27
   13  A    between atoms: C_29  and  C_40
                            x       y       z     vdW  Elec       q    Type
                         _______ _______ _______ _____ _____    ______ ____

>  <TORSDO>
F 13

$$$$
=
 OpenBabel11042419013D

 41 44  0  0  1  0  0  0  0  0999 V2000
  188.0030  176.4080  144.9520 C   0  0  0  0  0  0  0  0  0  0  0  0
  185.4870  179.6710  144.2750 O   0  0  0  0  0  1  0  0  0  0  0  0
  186.6810  178.2160  145.8140 C   0  0  0  0  0  3  0  0  0  0  0  0
  186.5340  178.1310  141.9370 C   0  0  0  0  0  2  0  0  0  0  0  0
  188.2360  175.9600  142.8040 C   0  0  0  0  0  0  0  0  0  0  0  0
  187.6410  176.7760  143.6980 C   0  0  0  0  0  0  0  0  0  0  0  0
  188.0510  176.1740  141.3650 C   0  0  0  0  0  3  0  0  0  0  0  0
  186.3240  178.5830  144.4880 C   0  0  0  0  0  0  0  0  0  0  0  0
  188.9860  175.0420  143.4600 N   0  0  0  0  0  0  0  0  0  0  0  0
  186.8250  177.8420  143.3980 C   0  0  0  0  0  0  0  0  0  0  0  0
  187.5370  177.1140  146.0620 C   0  0  0  0  0  3  0  0  0  0  0  0
  188.8570  175.3240  144.7900 C   0  0  0  0  0  0  0  0  0  0  0  0
  187.2660  177.1990  140.9580 C   0  0  0  0  0  0  0  0  0  0  0  0
  191.1590  174.0630  143.3590 O   0  0  0  0  0  0  0  0  0  0  0  0
  189.8460  174.0250  142.8610 C   0  0  2  0  0  0  0  0  0  0  0  0
  190.9650  174.5060  142.0310 C   0  0  0  0  0  2  0  0  0  0  0  0
  189.3140  172.6170  142.6560 C   0  0  0  0  0  2  0  0  0  0  0  0
  188.0400  172.6670  142.0880 O   0  0  0  0  0  1  0  0  0  0  0  0
  189.5230  174.5690  145.8920 C   0  0  0  0  0  2  0  0  0  0  0  0
  191.6390  175.4040  146.7090 C   0  0  0  0  0  0  0  0  0  0  0  0
  192.9430  175.3150  146.6950 C   0  0  0  0  0  3  0  0  0  0  0  0
  190.3400  175.4950  146.7200 C   0  0  0  0  0  3  0  0  0  0  0  0
  193.6950  175.2610  145.4740 N   0  0  0  0  0  0  0  0  0  0  0  0
  194.4540  173.7690  145.0320 S   0  0  0  0  0  0  0  0  0  0  0  0
  193.6330  172.6210  145.5490 O   0  0  0  0  0  0  0  0  0  0  0  0
  194.5540  173.6760  143.5340 O   0  0  0  0  0  0  0  0  0  0  0  0
  196.5820  172.2630  145.7700 C   0  0  0  0  0  1  0  0  0  0  0  0
  196.9670  174.4590  144.9490 O   0  0  0  0  0  1  0  0  0  0  0  0
  196.0960  173.6980  145.7260 C   0  0  1  0  0  3  0  0  0  0  0  0
  193.9600  176.4480  144.6680 C   0  0  0  0  0  2  0  0  0  0  0  0
  194.5630  177.5430  145.5300 C   0  0  0  0  0  1  0  0  0  0  0  0
  187.0570  177.4160  139.4980 C   0  0  0  0  0  2  0  0  0  0  0  0
  186.4250  176.1880  138.8600 C   0  0  0  0  0  2  0  0  0  0  0  0
  187.0630  176.3720  136.4540 C   0  0  0  0  0  1  0  0  0  0  0  0
  188.1150  174.5980  137.8780 C   0  0  0  0  0  0  0  0  0  0  0  0
  187.2390  175.7270  137.7450 N   0  0  0  0  0  0  0  0  0  0  0  0
  188.1890  173.9830  138.9790 O   0  0  0  0  0  0  0  0  0  0  0  0
  188.9020  174.1690  136.7600 N   0  0  0  0  0  0  0  0  0  0  0  0
  189.3070  172.9470  136.6280 C   0  0  0  0  0  3  0  0  0  0  0  0
  190.1210  172.5600  135.4460 C   0  0  0  0  0  2  0  0  0  0  0  0
  190.3630  171.0650  135.4670 C   0  0  0  0  0  1  0  0  0  0  0  0
  1 11  1  0  0  0  0
  2  8  1  0  0  0  0
  3 11  2  0  0  0  0
  4 10  1  0  0  0  0
  5  9  1  0  0  0  0
  5  6  2  0  0  0  0
  6  1  1  0  0  0  0
  7  5  1  0  0  0  0
  8  3  1  0  0  0  0
  9 12  1  0  0  0  0
 10  6  1  0  0  0  0
 10  8  2  0  0  0  0
 12  1  2  0  0  0  0
 12 19  1  0  0  0  0
 13  7  2  0  0  0  0
 13  4  1  0  0  0  0
 15 17  1  6  0  0  0
 15 14  1  0  0  0  0
 15  9  1  0  0  0  0
 16 15  1  0  0  0  0
 16 14  1  0  0  0  0
 18 17  1  0  0  0  0
 19 22  1  0  0  0  0
 20 22  2  0  0  0  0
 21 20  2  0  0  0  0
 23 21  1  0  0  0  0
 24 23  1  0  0  0  0
 24 25  2  0  0  0  0
 24 29  1  0  0  0  0
 26 24  2  0  0  0  0
 28 29  1  0  0  0  0
 29 27  1  6  0  0  0
 30 23  1  0  0  0  0
 30 31  1  0  0  0  0
 32 13  1  0  0  0  0
 33 32  1  0  0  0  0
 34 36  1  0  0  0  0
 35 37  2  0  0  0  0
 36 35  1  0  0  0  0
 36 33  1  0  0  0  0
 38 35  1  0  0  0  0
 39 38  2  0  0  0  0
 40 41  1  0  0  0  0
 40 39  1  0  0  0  0
M  END
>  <MODEL>
7

>  <REMARK>
 VINA RESULT:      -6.2      3.575      7.491
  Name = 
  13 active torsions:
  status: ('A' for Active; 'I' for Inactive)
    1  A    between atoms: C_6  and  C_31
    2  A    between atoms: S_8  and  C_23
    3  A    between atoms: S_8  and  N_24
    4  A    between atoms: C_9  and  C_29
    5  A    between atoms: C_9  and  N_34
    6  A    between atoms: C_13  and  C_36
    7  A    between atoms: C_13  and  C_41
    8  A    between atoms: N_14  and  C_16
    9  A    between atoms: C_18  and  N_24
   10  A    between atoms: C_21  and  C_25
   11  A    between atoms: N_24  and  C_38
   12  A    between atoms: C_25  and  N_27
   13  A    between atoms: C_29  and  C_40
                            x       y       z     vdW  Elec       q    Type
                         _______ _______ _______ _____ _____    ______ ____

>  <TORSDO>
F 13

$$$$
=
 OpenBabel11042419013D

 41 44  0  0  1  0  0  0  0  0999 V2000
  191.1680  173.9930  141.8250 C   0  0  0  0  0  0  0  0  0  0  0  0
  193.6930  172.5640  138.8210 O   0  0  0  0  0  1  0  0  0  0  0  0
  191.5700  172.4830  140.0040 C   0  0  0  0  0  3  0  0  0  0  0  0
  194.6340  174.7940  140.5750 C   0  0  0  0  0  2  0  0  0  0  0  0
  192.6170  175.5050  142.5210 C   0  0  0  0  0  0  0  0  0  0  0  0
  192.4090  174.5090  141.6360 C   0  0  0  0  0  0  0  0  0  0  0  0
  193.8680  176.2690  142.4970 C   0  0  0  0  0  3  0  0  0  0  0  0
  192.8620  173.0470  139.8250 C   0  0  0  0  0  0  0  0  0  0  0  0
  191.5220  175.6480  143.3060 N   0  0  0  0  0  0  0  0  0  0  0  0
  193.2900  174.0960  140.6640 C   0  0  0  0  0  0  0  0  0  0  0  0
  190.6990  172.9580  141.0160 C   0  0  0  0  0  3  0  0  0  0  0  0
  190.6170  174.7240  142.8700 C   0  0  0  0  0  0  0  0  0  0  0  0
  194.8070  175.9470  141.5770 C   0  0  0  0  0  0  0  0  0  0  0  0
  192.4440  176.8590  145.1440 O   0  0  0  0  0  0  0  0  0  0  0  0
  191.3110  176.6600  144.3380 C   0  0  2  0  0  0  0  0  0  0  0  0
  191.3440  176.1980  145.7380 C   0  0  0  0  0  2  0  0  0  0  0  0
  190.5790  177.9450  143.9920 C   0  0  0  0  0  2  0  0  0  0  0  0
  190.1890  177.9250  142.6520 O   0  0  0  0  0  1  0  0  0  0  0  0
  189.2520  174.5270  143.4440 C   0  0  0  0  0  2  0  0  0  0  0  0
  187.1940  175.5700  142.7240 C   0  0  0  0  0  0  0  0  0  0  0  0
  186.1650  176.3150  143.0310 C   0  0  0  0  0  3  0  0  0  0  0  0
  188.2210  174.8310  142.4160 C   0  0  0  0  0  3  0  0  0  0  0  0
  186.3030  177.5760  143.7000 N   0  0  0  0  0  0  0  0  0  0  0  0
  186.4060  177.5940  145.4280 S   0  0  0  0  0  0  0  0  0  0  0  0
  185.7780  176.3430  145.9760 O   0  0  0  0  0  0  0  0  0  0  0  0
  187.8490  177.6520  145.8480 O   0  0  0  0  0  0  0  0  0  0  0  0
  184.0650  178.8910  145.8500 C   0  0  0  0  0  1  0  0  0  0  0  0
  185.8170  179.1530  147.4340 O   0  0  0  0  0  1  0  0  0  0  0  0
  185.5590  179.0260  146.0690 C   0  0  1  0  0  3  0  0  0  0  0  0
  186.2180  178.8480  142.9890 C   0  0  0  0  0  2  0  0  0  0  0  0
  185.3570  178.6990  141.7480 C   0  0  0  0  0  1  0  0  0  0  0  0
  196.0900  176.7050  141.5540 C   0  0  0  0  0  2  0  0  0  0  0  0
  196.7870  176.6190  142.9040 C   0  0  0  0  0  2  0  0  0  0  0  0
  197.9400  174.4970  142.2750 C   0  0  0  0  0  1  0  0  0  0  0  0
  196.5440  174.5720  144.3550 C   0  0  0  0  0  0  0  0  0  0  0  0
  197.1110  175.2330  143.2130 N   0  0  0  0  0  0  0  0  0  0  0  0
  195.7470  175.1930  145.1130 O   0  0  0  0  0  0  0  0  0  0  0  0
  196.8830  173.2070  144.6310 N   0  0  0  0  0  0  0  0  0  0  0  0
  196.5610  172.6260  145.7400 C   0  0  0  0  0  3  0  0  0  0  0  0
  196.9400  171.2070  145.9710 C   0  0  0  0  0  2  0  0  0  0  0  0
  196.1280  170.3120  145.0580 C   0  0  0  0  0  1  0  0  0  0  0  0
  1 12  2  0  0  0  0
  2  8  1  0  0  0  0
  3 11  2  0  0  0  0
  4 10  1  0  0  0  0
  4 13  1  0  0  0  0
  5  9  1  0  0  0  0
  6  1  1  0  0  0  0
  6  5  2  0  0  0  0
  7  5  1  0  0  0  0
  8  3  1  0  0  0  0
  8 10  2  0  0  0  0
  9 15  1  0  0  0  0
 10  6  1  0  0  0  0
 11  1  1  0  0  0  0
 12  9  1  0  0  0  0
 12 19  1  0  0  0  0
 13  7  2  0  0  0  0
 14 16  1  0  0  0  0
 15 17  1  6  0  0  0
 15 14  1  0  0  0  0
 15 16  1  0  0  0  0
 18 17  1  0  0  0  0
 20 21  2  0  0  0  0
 21 23  1  0  0  0  0
 22 20  2  0  0  0  0
 22 19  1  0  0  0  0
 23 24  1  0  0  0  0
 24 26  2  0  0  0  0
 24 25  2  0  0  0  0
 24 29  1  0  0  0  0
 29 27  1  1  0  0  0
 29 28  1  0  0  0  0
 30 23  1  0  0  0  0
 31 30  1  0  0  0  0
 32 13  1  0  0  0  0
 32 33  1  0  0  0  0
 33 36  1  0  0  0  0
 34 36  1  0  0  0  0
 35 38  1  0  0  0  0
 35 37  2  0  0  0  0
 36 35  1  0  0  0  0
 38 39  2  0  0  0  0
 39 40  1  0  0  0  0
 41 40  1  0  0  0  0
M  END
>  <MODEL>
8

>  <REMARK>
 VINA RESULT:      -6.2      2.245      4.651
  Name = 
  13 active torsions:
  status: ('A' for Active; 'I' for Inactive)
    1  A    between atoms: C_6  and  C_31
    2  A    between atoms: S_8  and  C_23
    3  A    between atoms: S_8  and  N_24
    4  A    between atoms: C_9  and  C_29
    5  A    between atoms: C_9  and  N_34
    6  A    between atoms: C_13  and  C_36
    7  A    between atoms: C_13  and  C_41
    8  A    between atoms: N_14  and  C_16
    9  A    between atoms: C_18  and  N_24
   10  A    between atoms: C_21  and  C_25
   11  A    between atoms: N_24  and  C_38
   12  A    between atoms: C_25  and  N_27
   13  A    between atoms: C_29  and  C_40
                            x       y       z     vdW  Elec       q    Type
                         _______ _______ _______ _____ _____    ______ ____

>  <TORSDO>
F 13

$$$$
=
 OpenBabel11042419013D

 41 44  0  0  1  0  0  0  0  0999 V2000
  190.0910  175.0260  145.7250 C   0  0  0  0  0  0  0  0  0  0  0  0
  186.5800  176.8540  147.0580 O   0  0  0  0  0  1  0  0  0  0  0  0
  188.5670  175.5270  147.5100 C   0  0  0  0  0  3  0  0  0  0  0  0
  187.3450  177.0970  144.1790 C   0  0  0  0  0  2  0  0  0  0  0  0
  189.8250  175.7100  143.6450 C   0  0  0  0  0  0  0  0  0  0  0  0
  189.2840  175.7160  144.8800 C   0  0  0  0  0  0  0  0  0  0  0  0
  189.1760  176.4330  142.5460 C   0  0  0  0  0  3  0  0  0  0  0  0
  187.7460  176.2490  146.6030 C   0  0  0  0  0  0  0  0  0  0  0  0
  190.9850  175.0100  143.6620 N   0  0  0  0  0  0  0  0  0  0  0  0
  188.1210  176.3500  145.2480 C   0  0  0  0  0  0  0  0  0  0  0  0
  189.7630  174.9040  147.0770 C   0  0  0  0  0  3  0  0  0  0  0  0
  191.1610  174.5960  144.9520 C   0  0  0  0  0  0  0  0  0  0  0  0
  188.0220  177.0950  142.7980 C   0  0  0  0  0  0  0  0  0  0  0  0
  191.2640  174.5450  141.3380 O   0  0  0  0  0  0  0  0  0  0  0  0
  191.9150  174.8270  142.5500 C   0  0  2  0  0  0  0  0  0  0  0  0
  191.9720  173.4830  141.9470 C   0  0  0  0  0  2  0  0  0  0  0  0
  193.0990  175.7660  142.4000 C   0  0  0  0  0  2  0  0  0  0  0  0
  192.6680  177.0910  142.4640 O   0  0  0  0  0  1  0  0  0  0  0  0
  192.3210  173.7940  145.4410 C   0  0  0  0  0  2  0  0  0  0  0  0
  194.6760  174.2770  145.6990 C   0  0  0  0  0  0  0  0  0  0  0  0
  195.9090  173.8560  145.5940 C   0  0  0  0  0  3  0  0  0  0  0  0
  193.4470  174.6970  145.7990 C   0  0  0  0  0  3  0  0  0  0  0  0
  196.4040  173.2140  144.4100 N   0  0  0  0  0  0  0  0  0  0  0  0
  196.6980  171.5080  144.4500 S   0  0  0  0  0  0  0  0  0  0  0  0
  197.7380  171.1590  143.4220 O   0  0  0  0  0  0  0  0  0  0  0  0
  197.1930  171.1130  145.8140 O   0  0  0  0  0  0  0  0  0  0  0  0
  194.3830  170.4520  145.3780 C   0  0  0  0  0  1  0  0  0  0  0  0
  194.4310  171.3360  143.1730 O   0  0  0  0  0  1  0  0  0  0  0  0
  195.1870  170.6260  144.1060 C   0  0  1  0  0  3  0  0  0  0  0  0
  196.7990  173.9660  143.2230 C   0  0  0  0  0  2  0  0  0  0  0  0
  197.3760  175.3120  143.6230 C   0  0  0  0  0  1  0  0  0  0  0  0
  187.3430  177.8190  141.6870 C   0  0  0  0  0  2  0  0  0  0  0  0
  186.1980  178.6660  142.2210 C   0  0  0  0  0  2  0  0  0  0  0  0
  184.9690  177.9770  140.1610 C   0  0  0  0  0  1  0  0  0  0  0  0
  183.7060  178.3020  142.3010 C   0  0  0  0  0  0  0  0  0  0  0  0
  184.9480  178.2800  141.5810 N   0  0  0  0  0  0  0  0  0  0  0  0
  183.6830  178.6600  143.5110 O   0  0  0  0  0  0  0  0  0  0  0  0
  182.4930  177.9180  141.6410 N   0  0  0  0  0  0  0  0  0  0  0  0
  181.6550  178.7860  141.1750 C   0  0  0  0  0  3  0  0  0  0  0  0
  180.4120  178.3280  140.5010 C   0  0  0  0  0  2  0  0  0  0  0  0
  179.3900  177.9250  141.5430 C   0  0  0  0  0  1  0  0  0  0  0  0
  1 11  1  0  0  0  0
  4 10  1  0  0  0  0
  5  9  1  0  0  0  0
  5  6  2  0  0  0  0
  6 10  1  0  0  0  0
  6  1  1  0  0  0  0
  7 13  2  0  0  0  0
  7  5  1  0  0  0  0
  8  2  1  0  0  0  0
  8  3  1  0  0  0  0
  9 12  1  0  0  0  0
 10  8  2  0  0  0  0
 11  3  2  0  0  0  0
 12 19  1  0  0  0  0
 12  1  2  0  0  0  0
 13  4  1  0  0  0  0
 14 16  1  0  0  0  0
 14 15  1  0  0  0  0
 15 17  1  6  0  0  0
 15  9  1  0  0  0  0
 16 15  1  0  0  0  0
 17 18  1  0  0  0  0
 19 22  1  0  0  0  0
 20 22  2  0  0  0  0
 21 20  2  0  0  0  0
 23 24  1  0  0  0  0
 23 21  1  0  0  0  0
 24 26  2  0  0  0  0
 25 24  2  0  0  0  0
 28 29  1  0  0  0  0
 29 24  1  0  0  0  0
 29 27  1  1  0  0  0
 30 31  1  0  0  0  0
 30 23  1  0  0  0  0
 32 33  1  0  0  0  0
 32 13  1  0  0  0  0
 34 36  1  0  0  0  0
 35 37  2  0  0  0  0
 36 33  1  0  0  0  0
 36 35  1  0  0  0  0
 38 35  1  0  0  0  0
 39 38  2  0  0  0  0
 40 39  1  0  0  0  0
 40 41  1  0  0  0  0
M  END
>  <MODEL>
9

>  <REMARK>
 VINA RESULT:      -6.1      3.298      9.213
  Name = 
  13 active torsions:
  status: ('A' for Active; 'I' for Inactive)
    1  A    between atoms: C_6  and  C_31
    2  A    between atoms: S_8  and  C_23
    3  A    between atoms: S_8  and  N_24
    4  A    between atoms: C_9  and  C_29
    5  A    between atoms: C_9  and  N_34
    6  A    between atoms: C_13  and  C_36
    7  A    between atoms: C_13  and  C_41
    8  A    between atoms: N_14  and  C_16
    9  A    between atoms: C_18  and  N_24
   10  A    between atoms: C_21  and  C_25
   11  A    between atoms: N_24  and  C_38
   12  A    between atoms: C_25  and  N_27
   13  A    between atoms: C_29  and  C_40
                            x       y       z     vdW  Elec       q    Type
                         _______ _______ _______ _____ _____    ______ ____

>  <TORSDO>
F 13

$$$$
