=
 OpenBabel11042414073D

 49 52  0  0  1  0  0  0  0  0999 V2000
  189.5890  172.4140  140.6120 C   0  0  1  0  0  3  0  0  0  0  0  0
  191.6290  171.6510  141.7900 O   0  0  0  0  0  0  0  0  0  0  0  0
  190.6250  171.4020  140.9920 C   0  0  0  0  0  0  0  0  0  0  0  0
  190.6940  170.0780  140.5900 C   0  0  0  0  0  3  0  0  0  0  0  0
  191.7670  169.5720  141.1630 O   0  0  0  0  0  0  0  0  0  0  0  0
  192.3060  170.5300  141.8730 C   0  0  0  0  0  0  0  0  0  0  0  0
  193.3940  170.3700  142.5690 N   0  0  0  0  0  0  0  0  0  0  0  0
  193.6020  171.6150  144.7180 C   0  0  0  0  0  3  0  0  0  0  0  0
  195.1050  172.0760  142.8790 C   0  0  0  0  0  3  0  0  0  0  0  0
  195.3230  173.3000  144.9690 C   0  0  0  0  0  0  0  0  0  0  0  0
  194.0210  171.3600  143.4000 C   0  0  0  0  0  0  0  0  0  0  0  0
  194.2470  172.5810  145.4960 C   0  0  0  0  0  3  0  0  0  0  0  0
  195.7600  173.0550  143.6490 C   0  0  0  0  0  0  0  0  0  0  0  0
  195.6290  175.2790  141.5540 N   0  0  0  0  0  1  0  0  0  0  0  0
  197.9410  175.3080  141.7170 O   0  0  0  0  0  0  0  0  0  0  0  0
  196.8770  173.7920  143.1250 N   0  0  0  0  0  2  0  0  0  0  0  0
  196.8580  174.8200  142.1230 C   0  0  0  0  0  0  0  0  0  0  0  0
  195.9730  174.3510  145.8130 C   0  0  0  0  0  2  0  0  0  0  0  0
  194.9580  176.6940  144.8620 S   0  0  0  0  0  1  0  0  0  0  0  0
  194.9770  175.4380  146.1670 C   0  0  0  0  0  2  0  0  0  0  0  0
  189.1120  173.0770  141.8200 N   0  0  0  0  0  2  0  0  0  0  0  0
  188.9000  174.4950  141.5200 C   0  0  0  0  0  2  0  0  0  0  0  0
  189.8260  175.3760  142.2550 N   0  0  0  0  0  0  0  0  0  0  0  0
  192.1250  174.8550  142.9460 C   0  0  0  0  0  2  0  0  0  0  0  0
  191.4380  175.6420  144.0460 C   0  0  1  0  0  3  0  0  0  0  0  0
  190.6440  174.6440  143.2200 C   0  0  1  0  0  3  0  0  0  0  0  0
  191.7050  175.0620  145.3160 O   0  0  0  0  0  0  0  0  0  0  0  0
  191.8210  176.7860  146.8510 O   0  0  0  0  0  0  0  0  0  0  0  0
  191.3260  175.6710  146.5130 C   0  0  0  0  0  0  0  0  0  0  0  0
  190.4440  174.9340  147.4210 C   0  0  0  0  0  3  0  0  0  0  0  0
  189.1030  174.9260  147.4240 C   0  0  0  0  0  3  0  0  0  0  0  0
  188.2400  175.5190  146.4440 N   0  0  0  0  0  2  0  0  0  0  0  0
  187.6880  176.8580  146.5120 C   0  0  0  0  0  2  0  0  0  0  0  0
  186.3270  176.8250  146.1790 O   0  0  0  0  0  0  0  0  0  0  0  0
  186.0000  178.1120  145.9440 N   0  0  0  0  0  2  0  0  0  0  0  0
  184.5790  178.1450  145.6530 C   0  0  0  0  0  2  0  0  0  0  0  0
  184.2880  179.2220  144.6640 C   0  0  0  0  0  3  0  0  0  0  0  0
  185.2470  180.0660  144.2790 C   0  0  0  0  0  2  0  0  0  0  0  0
  189.0250  176.3320  142.9990 C   0  0  0  0  0  2  0  0  0  0  0  0
  188.5350  177.4170  142.0620 C   0  0  0  0  0  2  0  0  0  0  0  0
  187.0870  177.7310  142.3740 C   0  0  0  0  0  2  0  0  0  0  0  0
  185.1710  178.3910  141.0550 N   0  0  0  0  0  1  0  0  0  0  0  0
  186.8320  177.1450  139.9460 N   0  0  0  0  0  2  0  0  0  0  0  0
  186.2770  177.7140  141.1210 C   0  0  0  0  0  0  0  0  0  0  0  0
  190.1190  173.3640  139.7350 O   0  0  0  0  0  0  0  0  0  0  0  0
  189.9240  172.2590  137.6510 C   0  0  0  0  0  2  0  0  0  0  0  0
  189.3230  173.2840  138.5850 C   0  0  2  0  0  3  0  0  0  0  0  0
  189.1760  174.1680  136.2900 C   0  0  0  0  0  1  0  0  0  0  0  0
  190.1290  173.7320  137.3810 C   0  0  2  0  0  3  0  0  0  0  0  0
  1 45  1  6  0  0  0
  1  3  1  0  0  0  0
  1 21  1  0  0  0  0
  2  6  1  0  0  0  0
  3  2  1  0  0  0  0
  4  3  2  0  0  0  0
  4  5  1  0  0  0  0
  5  6  1  0  0  0  0
  6  7  2  0  0  0  0
  7 11  1  0  0  0  0
  8 12  1  0  0  0  0
  9 11  1  0  0  0  0
  9 13  2  0  0  0  0
 10 12  2  0  0  0  0
 10 18  1  0  0  0  0
 11  8  2  0  0  0  0
 13 10  1  0  0  0  0
 14 17  1  0  0  0  0
 15 17  2  0  0  0  0
 16 13  1  0  0  0  0
 17 16  1  0  0  0  0
 18 20  1  0  0  0  0
 19 20  1  0  0  0  0
 22 21  1  0  0  0  0
 22 23  1  0  0  0  0
 23 39  1  0  0  0  0
 24 26  1  0  0  0  0
 24 25  1  0  0  0  0
 25 27  1  1  0  0  0
 26 23  1  6  0  0  0
 26 25  1  0  0  0  0
 27 29  1  0  0  0  0
 29 28  2  0  0  0  0
 29 30  1  0  0  0  0
 30 31  2  0  0  0  0
 32 33  1  0  0  0  0
 32 31  1  0  0  0  0
 34 33  1  0  0  0  0
 35 34  1  0  0  0  0
 36 35  1  0  0  0  0
 37 36  1  0  0  0  0
 38 37  2  0  0  0  0
 40 41  1  0  0  0  0
 40 39  1  0  0  0  0
 42 44  1  0  0  0  0
 43 44  2  0  0  0  0
 44 41  1  0  0  0  0
 46 47  1  0  0  0  0
 47 45  1  1  0  0  0
 49 48  1  6  0  0  0
 49 46  1  0  0  0  0
 49 47  1  0  0  0  0
M  END
>  <MODEL>
1

>  <REMARK>
 VINA RESULT:      -5.4      0.000      0.000
  Name = 
  24 active torsions:
  status: ('A' for Active; 'I' for Inactive)
    1  A    between atoms: O_1  and  C_22
    2  A    between atoms: O_1  and  C_24
    3  A    between atoms: C_5  and  N_17
    4  A    between atoms: C_5  and  N_42
    5  A    between atoms: N_6  and  C_33
    6  A    between atoms: N_6  and  C_43
    7  A    between atoms: O_10  and  C_12
    8  A    between atoms: O_10  and  C_34
    9  A    between atoms: C_12  and  C_37
   10  A    between atoms: C_13  and  C_19
   11  A    between atoms: C_13  and  C_25
   12  A    between atoms: C_15  and  C_22
   13  A    between atoms: C_16  and  C_35
   14  A    between atoms: N_17  and  C_29
   15  A    between atoms: N_17  and  C_44
   16  A    between atoms: C_19  and  C_29
   17  A    between atoms: C_22  and  N_42
   18  A    between atoms: C_23  and  C_39
   19  A    between atoms: C_23  and  N_49
   20  A    between atoms: C_27  and  N_45
   21  A    between atoms: N_31  and  C_32
   22  A    between atoms: C_33  and  O_46
   23  A    between atoms: C_35  and  C_38
   24  A    between atoms: O_46  and  N_49
                            x       y       z     vdW  Elec       q    Type
                         _______ _______ _______ _____ _____    ______ ____

>  <TORSDO>
F 24

$$$$
=
 OpenBabel11042414073D

 49 52  0  0  1  0  0  0  0  0999 V2000
  188.0850  176.3720  141.6840 C   0  0  1  0  0  3  0  0  0  0  0  0
  189.3290  174.2910  141.1780 O   0  0  0  0  0  0  0  0  0  0  0  0
  188.4190  175.1710  140.8540 C   0  0  0  0  0  0  0  0  0  0  0  0
  187.8400  174.7910  139.6540 C   0  0  0  0  0  3  0  0  0  0  0  0
  188.4450  173.6800  139.2860 O   0  0  0  0  0  0  0  0  0  0  0  0
  189.3280  173.4030  140.2120 C   0  0  0  0  0  0  0  0  0  0  0  0
  190.1110  172.3650  140.1570 N   0  0  0  0  0  0  0  0  0  0  0  0
  190.7360  171.1780  142.2580 C   0  0  0  0  0  3  0  0  0  0  0  0
  192.4000  172.3930  140.9900 C   0  0  0  0  0  3  0  0  0  0  0  0
  193.0290  171.2400  143.0370 C   0  0  0  0  0  0  0  0  0  0  0  0
  191.0740  171.9770  141.1510 C   0  0  0  0  0  0  0  0  0  0  0  0
  191.7070  170.8150  143.1960 C   0  0  0  0  0  3  0  0  0  0  0  0
  193.3860  172.0400  141.9290 C   0  0  0  0  0  0  0  0  0  0  0  0
  194.4520  174.8850  142.2800 N   0  0  0  0  0  1  0  0  0  0  0  0
  196.4950  173.9940  141.6450 O   0  0  0  0  0  0  0  0  0  0  0  0
  194.7520  172.4580  141.7710 N   0  0  0  0  0  2  0  0  0  0  0  0
  195.2840  173.7860  141.8990 C   0  0  0  0  0  0  0  0  0  0  0  0
  194.0400  170.8640  144.0740 C   0  0  0  0  0  2  0  0  0  0  0  0
  195.5970  172.6480  145.4220 S   0  0  0  0  0  1  0  0  0  0  0  0
  193.9890  171.8340  145.2390 C   0  0  0  0  0  2  0  0  0  0  0  0
  186.6570  176.3600  141.9790 N   0  0  0  0  0  2  0  0  0  0  0  0
  186.0520  177.5640  141.4050 C   0  0  0  0  0  2  0  0  0  0  0  0
  185.2280  178.3060  142.3770 N   0  0  0  0  0  0  0  0  0  0  0  0
  186.3830  178.9380  144.4510 C   0  0  0  0  0  2  0  0  0  0  0  0
  184.8850  178.9350  144.6930 C   0  0  1  0  0  3  0  0  0  0  0  0
  185.5030  177.9100  143.7570 C   0  0  1  0  0  3  0  0  0  0  0  0
  184.5800  178.2930  145.9240 O   0  0  0  0  0  0  0  0  0  0  0  0
  185.7960  179.6340  147.3600 O   0  0  0  0  0  0  0  0  0  0  0  0
  185.3390  178.4880  147.0780 C   0  0  0  0  0  0  0  0  0  0  0  0
  185.6970  177.3170  147.8820 C   0  0  0  0  0  3  0  0  0  0  0  0
  186.7000  176.4540  147.6590 C   0  0  0  0  0  3  0  0  0  0  0  0
  187.7310  176.5760  146.6710 N   0  0  0  0  0  2  0  0  0  0  0  0
  188.6550  175.5260  146.2880 C   0  0  0  0  0  2  0  0  0  0  0  0
  189.6890  175.4390  147.2320 O   0  0  0  0  0  0  0  0  0  0  0  0
  190.7540  174.9970  146.5340 N   0  0  0  0  0  2  0  0  0  0  0  0
  191.9360  175.3090  147.3150 C   0  0  0  0  0  2  0  0  0  0  0  0
  193.1200  175.4290  146.4180 C   0  0  0  0  0  3  0  0  0  0  0  0
  193.6780  176.6180  146.1860 C   0  0  0  0  0  2  0  0  0  0  0  0
  183.8370  177.9920  142.1030 C   0  0  0  0  0  2  0  0  0  0  0  0
  183.4570  178.5360  140.7400 C   0  0  0  0  0  2  0  0  0  0  0  0
  182.1540  177.9060  140.2960 C   0  0  0  0  0  2  0  0  0  0  0  0
  180.7150  179.8330  140.5520 N   0  0  0  0  0  2  0  0  0  0  0  0
  180.0930  177.8930  141.7320 N   0  0  0  0  0  1  0  0  0  0  0  0
  181.0010  178.6200  140.9180 C   0  0  0  0  0  0  0  0  0  0  0  0
  188.8100  176.3690  142.8790 O   0  0  0  0  0  0  0  0  0  0  0  0
  191.1650  176.5730  142.9960 C   0  0  0  0  0  2  0  0  0  0  0  0
  189.8630  177.2680  142.6690 C   0  0  2  0  0  3  0  0  0  0  0  0
  191.2920  178.8650  143.8860 C   0  0  0  0  0  1  0  0  0  0  0  0
  190.5620  177.5430  143.9860 C   0  0  2  0  0  3  0  0  0  0  0  0
  1 21  1  1  0  0  0
  1 45  1  0  0  0  0
  3  2  1  0  0  0  0
  3  1  1  0  0  0  0
  4  3  2  0  0  0  0
  5  4  1  0  0  0  0
  5  6  1  0  0  0  0
  6  2  1  0  0  0  0
  7  6  2  0  0  0  0
  7 11  1  0  0  0  0
  8 12  1  0  0  0  0
  9 11  1  0  0  0  0
  9 13  2  0  0  0  0
 10 12  2  0  0  0  0
 10 18  1  0  0  0  0
 11  8  2  0  0  0  0
 13 10  1  0  0  0  0
 15 17  2  0  0  0  0
 16 17  1  0  0  0  0
 16 13  1  0  0  0  0
 17 14  1  0  0  0  0
 18 20  1  0  0  0  0
 20 19  1  0  0  0  0
 22 21  1  0  0  0  0
 22 23  1  0  0  0  0
 24 25  1  0  0  0  0
 25 27  1  1  0  0  0
 26 23  1  6  0  0  0
 26 24  1  0  0  0  0
 26 25  1  0  0  0  0
 27 29  1  0  0  0  0
 29 28  2  0  0  0  0
 29 30  1  0  0  0  0
 31 30  2  0  0  0  0
 32 31  1  0  0  0  0
 33 32  1  0  0  0  0
 33 34  1  0  0  0  0
 35 34  1  0  0  0  0
 35 36  1  0  0  0  0
 37 36  1  0  0  0  0
 38 37  2  0  0  0  0
 39 23  1  0  0  0  0
 40 39  1  0  0  0  0
 41 40  1  0  0  0  0
 41 44  1  0  0  0  0
 42 44  2  0  0  0  0
 44 43  1  0  0  0  0
 46 49  1  0  0  0  0
 47 45  1  1  0  0  0
 47 46  1  0  0  0  0
 47 49  1  0  0  0  0
 49 48  1  6  0  0  0
M  END
>  <MODEL>
2

>  <REMARK>
 VINA RESULT:      -5.4      2.358      5.393
  Name = 
  24 active torsions:
  status: ('A' for Active; 'I' for Inactive)
    1  A    between atoms: O_1  and  C_22
    2  A    between atoms: O_1  and  C_24
    3  A    between atoms: C_5  and  N_17
    4  A    between atoms: C_5  and  N_42
    5  A    between atoms: N_6  and  C_33
    6  A    between atoms: N_6  and  C_43
    7  A    between atoms: O_10  and  C_12
    8  A    between atoms: O_10  and  C_34
    9  A    between atoms: C_12  and  C_37
   10  A    between atoms: C_13  and  C_19
   11  A    between atoms: C_13  and  C_25
   12  A    between atoms: C_15  and  C_22
   13  A    between atoms: C_16  and  C_35
   14  A    between atoms: N_17  and  C_29
   15  A    between atoms: N_17  and  C_44
   16  A    between atoms: C_19  and  C_29
   17  A    between atoms: C_22  and  N_42
   18  A    between atoms: C_23  and  C_39
   19  A    between atoms: C_23  and  N_49
   20  A    between atoms: C_27  and  N_45
   21  A    between atoms: N_31  and  C_32
   22  A    between atoms: C_33  and  O_46
   23  A    between atoms: C_35  and  C_38
   24  A    between atoms: O_46  and  N_49
                            x       y       z     vdW  Elec       q    Type
                         _______ _______ _______ _____ _____    ______ ____

>  <TORSDO>
F 24

$$$$
=
 OpenBabel11042414073D

 49 52  0  0  1  0  0  0  0  0999 V2000
  186.9530  177.5910  142.0620 C   0  0  1  0  0  3  0  0  0  0  0  0
  187.3680  176.2930  139.9940 O   0  0  0  0  0  0  0  0  0  0  0  0
  186.6820  177.1960  140.6430 C   0  0  0  0  0  0  0  0  0  0  0  0
  185.6940  177.6900  139.8060 C   0  0  0  0  0  3  0  0  0  0  0  0
  185.8330  177.0620  138.6570 O   0  0  0  0  0  0  0  0  0  0  0  0
  186.8370  176.2340  138.7950 C   0  0  0  0  0  0  0  0  0  0  0  0
  187.2510  175.4560  137.8380 N   0  0  0  0  0  0  0  0  0  0  0  0
  189.3400  174.4140  136.9640 C   0  0  0  0  0  3  0  0  0  0  0  0
  188.3470  173.6340  139.0290 C   0  0  0  0  0  3  0  0  0  0  0  0
  190.3860  172.6060  138.1910 C   0  0  0  0  0  0  0  0  0  0  0  0
  188.3180  174.4970  137.9270 C   0  0  0  0  0  0  0  0  0  0  0  0
  190.3650  173.4720  137.0940 C   0  0  0  0  0  3  0  0  0  0  0  0
  189.3690  172.6780  139.1690 C   0  0  0  0  0  0  0  0  0  0  0  0
  190.0960  173.4470  142.0380 N   0  0  0  0  0  1  0  0  0  0  0  0
  189.8400  171.1920  142.5060 O   0  0  0  0  0  0  0  0  0  0  0  0
  189.4110  171.7910  140.2990 N   0  0  0  0  0  2  0  0  0  0  0  0
  189.7750  172.1090  141.6510 C   0  0  0  0  0  0  0  0  0  0  0  0
  191.4760  171.5860  138.2870 C   0  0  0  0  0  2  0  0  0  0  0  0
  193.1210  170.0680  136.7330 S   0  0  0  0  0  1  0  0  0  0  0  0
  192.4080  171.6940  137.0960 C   0  0  0  0  0  2  0  0  0  0  0  0
  188.3600  177.9530  142.1900 N   0  0  0  0  0  2  0  0  0  0  0  0
  189.0600  176.8630  142.8740 C   0  0  0  0  0  2  0  0  0  0  0  0
  190.1870  177.3390  143.6970 N   0  0  0  0  0  0  0  0  0  0  0  0
  192.4960  176.8060  143.0530 C   0  0  0  0  0  2  0  0  0  0  0  0
  192.4210  176.9650  144.5600 C   0  0  1  0  0  3  0  0  0  0  0  0
  191.2560  176.3480  143.8040 C   0  0  1  0  0  3  0  0  0  0  0  0
  193.1380  175.9220  145.2090 O   0  0  0  0  0  0  0  0  0  0  0  0
  194.6250  177.3330  146.2760 O   0  0  0  0  0  0  0  0  0  0  0  0
  194.3060  176.1570  145.9360 C   0  0  0  0  0  0  0  0  0  0  0  0
  195.2100  175.0310  146.1840 C   0  0  0  0  0  3  0  0  0  0  0  0
  196.2150  174.6070  145.4020 C   0  0  0  0  0  3  0  0  0  0  0  0
  196.7180  175.2570  144.2280 N   0  0  0  0  0  2  0  0  0  0  0  0
  196.5690  174.7710  142.8700 C   0  0  0  0  0  2  0  0  0  0  0  0
  195.2290  174.8870  142.4710 O   0  0  0  0  0  0  0  0  0  0  0  0
  194.9190  173.6810  141.9550 N   0  0  0  0  0  2  0  0  0  0  0  0
  193.7510  173.8650  141.1150 C   0  0  0  0  0  2  0  0  0  0  0  0
  194.1410  173.7820  139.6780 C   0  0  0  0  0  3  0  0  0  0  0  0
  193.7220  174.7010  138.8070 C   0  0  0  0  0  2  0  0  0  0  0  0
  189.6800  177.5800  145.0370 C   0  0  0  0  0  2  0  0  0  0  0  0
  188.5630  176.6010  145.3370 C   0  0  0  0  0  2  0  0  0  0  0  0
  188.6620  176.1560  146.7800 C   0  0  0  0  0  2  0  0  0  0  0  0
  189.6420  174.0410  146.1350 N   0  0  0  0  0  2  0  0  0  0  0  0
  190.8210  175.3010  147.7370 N   0  0  0  0  0  1  0  0  0  0  0  0
  189.6850  175.0780  146.9160 C   0  0  0  0  0  0  0  0  0  0  0  0
  186.1550  178.6750  142.4380 O   0  0  0  0  0  0  0  0  0  0  0  0
  184.4020  179.1310  143.9620 C   0  0  0  0  0  2  0  0  0  0  0  0
  185.6700  178.3470  143.7100 C   0  0  2  0  0  3  0  0  0  0  0  0
  185.7160  179.1400  146.0430 C   0  0  0  0  0  1  0  0  0  0  0  0
  185.7000  179.5790  144.5950 C   0  0  2  0  0  3  0  0  0  0  0  0
  1 21  1  6  0  0  0
  1 45  1  0  0  0  0
  2  3  1  0  0  0  0
  3  1  1  0  0  0  0
  4  3  2  0  0  0  0
  5  6  1  0  0  0  0
  5  4  1  0  0  0  0
  6  2  1  0  0  0  0
  7 11  1  0  0  0  0
  7  6  2  0  0  0  0
  8 12  2  0  0  0  0
  8 11  1  0  0  0  0
  9 13  1  0  0  0  0
 10 18  1  0  0  0  0
 10 13  2  0  0  0  0
 11  9  2  0  0  0  0
 12 10  1  0  0  0  0
 13 16  1  0  0  0  0
 16 17  1  0  0  0  0
 17 14  1  0  0  0  0
 17 15  2  0  0  0  0
 19 20  1  0  0  0  0
 20 18  1  0  0  0  0
 21 22  1  0  0  0  0
 22 23  1  0  0  0  0
 23 39  1  0  0  0  0
 24 26  1  0  0  0  0
 24 25  1  0  0  0  0
 25 27  1  1  0  0  0
 26 23  1  6  0  0  0
 26 25  1  0  0  0  0
 27 29  1  0  0  0  0
 29 30  1  0  0  0  0
 29 28  2  0  0  0  0
 31 30  2  0  0  0  0
 32 31  1  0  0  0  0
 33 32  1  0  0  0  0
 34 33  1  0  0  0  0
 35 34  1  0  0  0  0
 36 35  1  0  0  0  0
 37 36  1  0  0  0  0
 38 37  2  0  0  0  0
 39 40  1  0  0  0  0
 40 41  1  0  0  0  0
 41 44  1  0  0  0  0
 42 44  2  0  0  0  0
 44 43  1  0  0  0  0
 46 49  1  0  0  0  0
 47 45  1  6  0  0  0
 47 46  1  0  0  0  0
 47 49  1  0  0  0  0
 49 48  1  1  0  0  0
M  END
>  <MODEL>
3

>  <REMARK>
 VINA RESULT:      -5.4      2.641      7.953
  Name = 
  24 active torsions:
  status: ('A' for Active; 'I' for Inactive)
    1  A    between atoms: O_1  and  C_22
    2  A    between atoms: O_1  and  C_24
    3  A    between atoms: C_5  and  N_17
    4  A    between atoms: C_5  and  N_42
    5  A    between atoms: N_6  and  C_33
    6  A    between atoms: N_6  and  C_43
    7  A    between atoms: O_10  and  C_12
    8  A    between atoms: O_10  and  C_34
    9  A    between atoms: C_12  and  C_37
   10  A    between atoms: C_13  and  C_19
   11  A    between atoms: C_13  and  C_25
   12  A    between atoms: C_15  and  C_22
   13  A    between atoms: C_16  and  C_35
   14  A    between atoms: N_17  and  C_29
   15  A    between atoms: N_17  and  C_44
   16  A    between atoms: C_19  and  C_29
   17  A    between atoms: C_22  and  N_42
   18  A    between atoms: C_23  and  C_39
   19  A    between atoms: C_23  and  N_49
   20  A    between atoms: C_27  and  N_45
   21  A    between atoms: N_31  and  C_32
   22  A    between atoms: C_33  and  O_46
   23  A    between atoms: C_35  and  C_38
   24  A    between atoms: O_46  and  N_49
                            x       y       z     vdW  Elec       q    Type
                         _______ _______ _______ _____ _____    ______ ____

>  <TORSDO>
F 24

$$$$
=
 OpenBabel11042414073D

 49 52  0  0  1  0  0  0  0  0999 V2000
  187.3510  177.6520  142.0830 C   0  0  1  0  0  3  0  0  0  0  0  0
  187.2720  176.6060  139.8390 O   0  0  0  0  0  0  0  0  0  0  0  0
  186.7380  177.3860  140.7430 C   0  0  0  0  0  0  0  0  0  0  0  0
  185.5460  177.8880  140.2490 C   0  0  0  0  0  3  0  0  0  0  0  0
  185.4090  177.3930  139.0360 O   0  0  0  0  0  0  0  0  0  0  0  0
  186.4510  176.6310  138.8160 C   0  0  0  0  0  0  0  0  0  0  0  0
  186.6360  175.9880  137.7010 N   0  0  0  0  0  0  0  0  0  0  0  0
  188.5470  175.2750  136.2690 C   0  0  0  0  0  3  0  0  0  0  0  0
  188.0040  174.0610  138.2900 C   0  0  0  0  0  3  0  0  0  0  0  0
  189.8730  173.3500  136.9050 C   0  0  0  0  0  0  0  0  0  0  0  0
  187.7310  175.1070  137.4020 C   0  0  0  0  0  0  0  0  0  0  0  0
  189.6080  174.4000  136.0210 C   0  0  0  0  0  3  0  0  0  0  0  0
  189.0660  173.1690  138.0500 C   0  0  0  0  0  0  0  0  0  0  0  0
  190.6400  173.3960  140.6620 N   0  0  0  0  0  1  0  0  0  0  0  0
  190.3500  171.1010  140.8140 O   0  0  0  0  0  0  0  0  0  0  0  0
  189.3580  172.0950  138.9580 N   0  0  0  0  0  2  0  0  0  0  0  0
  190.1170  172.1570  140.1760 C   0  0  0  0  0  0  0  0  0  0  0  0
  190.9950  172.4100  136.5980 C   0  0  0  0  0  2  0  0  0  0  0  0
  193.6470  172.4320  135.9720 S   0  0  0  0  0  1  0  0  0  0  0  0
  192.3150  172.9890  137.0660 C   0  0  0  0  0  2  0  0  0  0  0  0
  188.7840  177.8670  141.9120 N   0  0  0  0  0  2  0  0  0  0  0  0
  189.5000  176.7610  142.5520 C   0  0  0  0  0  2  0  0  0  0  0  0
  190.7190  177.2030  143.2540 N   0  0  0  0  0  0  0  0  0  0  0  0
  192.9450  176.3330  142.6890 C   0  0  0  0  0  2  0  0  0  0  0  0
  192.8960  176.6590  144.1710 C   0  0  1  0  0  3  0  0  0  0  0  0
  191.6620  176.1090  143.4750 C   0  0  1  0  0  3  0  0  0  0  0  0
  193.4870  175.6130  144.9320 O   0  0  0  0  0  0  0  0  0  0  0  0
  194.4690  176.9600  146.5330 O   0  0  0  0  0  0  0  0  0  0  0  0
  194.4440  175.8540  145.9180 C   0  0  0  0  0  0  0  0  0  0  0  0
  195.4900  174.8510  146.1320 C   0  0  0  0  0  3  0  0  0  0  0  0
  195.9390  173.9430  145.2530 C   0  0  0  0  0  3  0  0  0  0  0  0
  195.5970  173.8550  143.8630 N   0  0  0  0  0  2  0  0  0  0  0  0
  195.0140  172.6970  143.2130 C   0  0  0  0  0  2  0  0  0  0  0  0
  193.6210  172.8430  143.1470 O   0  0  0  0  0  0  0  0  0  0  0  0
  193.1530  172.1520  144.2060 N   0  0  0  0  0  2  0  0  0  0  0  0
  191.8150  171.7060  143.8660 C   0  0  0  0  0  2  0  0  0  0  0  0
  190.8120  172.7020  144.3420 C   0  0  0  0  0  3  0  0  0  0  0  0
  189.6680  172.2990  144.8980 C   0  0  0  0  0  2  0  0  0  0  0  0
  190.3170  177.7010  144.5580 C   0  0  0  0  0  2  0  0  0  0  0  0
  189.5090  176.6400  145.2770 C   0  0  0  0  0  2  0  0  0  0  0  0
  189.4850  176.9470  146.7590 C   0  0  0  0  0  2  0  0  0  0  0  0
  191.0220  175.1090  147.0840 N   0  0  0  0  0  2  0  0  0  0  0  0
  191.4690  177.0790  148.2930 N   0  0  0  0  0  1  0  0  0  0  0  0
  190.6470  176.3020  147.4360 C   0  0  0  0  0  0  0  0  0  0  0  0
  186.7770  178.7790  142.6780 O   0  0  0  0  0  0  0  0  0  0  0  0
  185.4820  177.5570  144.2380 C   0  0  0  0  0  2  0  0  0  0  0  0
  186.6770  178.4610  144.0380 C   0  0  2  0  0  3  0  0  0  0  0  0
  185.5190  179.1740  146.0940 C   0  0  0  0  0  1  0  0  0  0  0  0
  185.3820  179.0230  144.5940 C   0  0  2  0  0  3  0  0  0  0  0  0
  1 21  1  6  0  0  0
  1 45  1  0  0  0  0
  2  3  1  0  0  0  0
  3  1  1  0  0  0  0
  4  3  2  0  0  0  0
  5  4  1  0  0  0  0
  6  5  1  0  0  0  0
  6  2  1  0  0  0  0
  7  6  2  0  0  0  0
  8 11  1  0  0  0  0
 10 13  2  0  0  0  0
 11  7  1  0  0  0  0
 11  9  2  0  0  0  0
 12  8  2  0  0  0  0
 12 10  1  0  0  0  0
 13  9  1  0  0  0  0
 13 16  1  0  0  0  0
 16 17  1  0  0  0  0
 17 14  1  0  0  0  0
 17 15  2  0  0  0  0
 18 10  1  0  0  0  0
 18 20  1  0  0  0  0
 19 20  1  0  0  0  0
 21 22  1  0  0  0  0
 22 23  1  0  0  0  0
 23 39  1  0  0  0  0
 24 26  1  0  0  0  0
 24 25  1  0  0  0  0
 25 27  1  1  0  0  0
 26 23  1  6  0  0  0
 26 25  1  0  0  0  0
 27 29  1  0  0  0  0
 29 30  1  0  0  0  0
 29 28  2  0  0  0  0
 31 30  2  0  0  0  0
 32 31  1  0  0  0  0
 33 32  1  0  0  0  0
 34 33  1  0  0  0  0
 34 35  1  0  0  0  0
 36 35  1  0  0  0  0
 36 37  1  0  0  0  0
 37 38  2  0  0  0  0
 39 40  1  0  0  0  0
 40 41  1  0  0  0  0
 41 44  1  0  0  0  0
 42 44  2  0  0  0  0
 44 43  1  0  0  0  0
 46 49  1  0  0  0  0
 47 45  1  6  0  0  0
 47 46  1  0  0  0  0
 47 49  1  0  0  0  0
 49 48  1  1  0  0  0
M  END
>  <MODEL>
4

>  <REMARK>
 VINA RESULT:      -5.4      2.625      7.895
  Name = 
  24 active torsions:
  status: ('A' for Active; 'I' for Inactive)
    1  A    between atoms: O_1  and  C_22
    2  A    between atoms: O_1  and  C_24
    3  A    between atoms: C_5  and  N_17
    4  A    between atoms: C_5  and  N_42
    5  A    between atoms: N_6  and  C_33
    6  A    between atoms: N_6  and  C_43
    7  A    between atoms: O_10  and  C_12
    8  A    between atoms: O_10  and  C_34
    9  A    between atoms: C_12  and  C_37
   10  A    between atoms: C_13  and  C_19
   11  A    between atoms: C_13  and  C_25
   12  A    between atoms: C_15  and  C_22
   13  A    between atoms: C_16  and  C_35
   14  A    between atoms: N_17  and  C_29
   15  A    between atoms: N_17  and  C_44
   16  A    between atoms: C_19  and  C_29
   17  A    between atoms: C_22  and  N_42
   18  A    between atoms: C_23  and  C_39
   19  A    between atoms: C_23  and  N_49
   20  A    between atoms: C_27  and  N_45
   21  A    between atoms: N_31  and  C_32
   22  A    between atoms: C_33  and  O_46
   23  A    between atoms: C_35  and  C_38
   24  A    between atoms: O_46  and  N_49
                            x       y       z     vdW  Elec       q    Type
                         _______ _______ _______ _____ _____    ______ ____

>  <TORSDO>
F 24

$$$$
=
 OpenBabel11042414073D

 49 52  0  0  1  0  0  0  0  0999 V2000
  186.9700  177.7070  140.5520 C   0  0  1  0  0  3  0  0  0  0  0  0
  187.9060  175.6580  139.5220 O   0  0  0  0  0  0  0  0  0  0  0  0
  187.0970  176.6840  139.4660 C   0  0  0  0  0  0  0  0  0  0  0  0
  186.4040  176.6390  138.2680 C   0  0  0  0  0  3  0  0  0  0  0  0
  186.8390  175.5740  137.6270 O   0  0  0  0  0  0  0  0  0  0  0  0
  187.7330  175.0060  138.3970 C   0  0  0  0  0  0  0  0  0  0  0  0
  188.3720  173.9240  138.0610 N   0  0  0  0  0  0  0  0  0  0  0  0
  188.9800  172.5340  140.0380 C   0  0  0  0  0  3  0  0  0  0  0  0
  190.6710  173.2150  138.4470 C   0  0  0  0  0  3  0  0  0  0  0  0
  191.2830  171.8580  140.3710 C   0  0  0  0  0  0  0  0  0  0  0  0
  189.3360  173.2240  138.8660 C   0  0  0  0  0  0  0  0  0  0  0  0
  189.9480  171.8580  140.7870 C   0  0  0  0  0  3  0  0  0  0  0  0
  191.6570  172.5440  139.1940 C   0  0  0  0  0  0  0  0  0  0  0  0
  193.7460  174.7050  139.7510 N   0  0  0  0  0  1  0  0  0  0  0  0
  195.1680  173.3930  138.4750 O   0  0  0  0  0  0  0  0  0  0  0  0
  193.0290  172.5240  138.7700 N   0  0  0  0  0  2  0  0  0  0  0  0
  194.0300  173.5310  138.9870 C   0  0  0  0  0  0  0  0  0  0  0  0
  192.3020  171.1540  141.2090 C   0  0  0  0  0  2  0  0  0  0  0  0
  194.5530  172.0200  142.4790 S   0  0  0  0  0  1  0  0  0  0  0  0
  192.7450  172.0390  142.3580 C   0  0  0  0  0  2  0  0  0  0  0  0
  186.0180  177.2260  141.5460 N   0  0  0  0  0  2  0  0  0  0  0  0
  184.7370  177.9030  141.3300 C   0  0  0  0  0  2  0  0  0  0  0  0
  184.2880  178.6600  142.5130 N   0  0  0  0  0  0  0  0  0  0  0  0
  185.7210  179.1160  144.4550 C   0  0  0  0  0  2  0  0  0  0  0  0
  184.2890  178.9360  144.9210 C   0  0  1  0  0  3  0  0  0  0  0  0
  184.8160  178.1110  143.7600 C   0  0  1  0  0  3  0  0  0  0  0  0
  184.2400  178.1080  146.0760 O   0  0  0  0  0  0  0  0  0  0  0  0
  185.6700  179.0980  147.5980 O   0  0  0  0  0  0  0  0  0  0  0  0
  185.2830  178.0510  147.0010 C   0  0  0  0  0  0  0  0  0  0  0  0
  185.9970  176.7830  147.1680 C   0  0  0  0  0  3  0  0  0  0  0  0
  187.2980  176.5460  146.9420 C   0  0  0  0  0  3  0  0  0  0  0  0
  188.3040  177.5190  146.6310 N   0  0  0  0  0  2  0  0  0  0  0  0
  189.6540  177.5290  147.1620 C   0  0  0  0  0  2  0  0  0  0  0  0
  190.1030  176.2120  147.3380 O   0  0  0  0  0  0  0  0  0  0  0  0
  190.9750  176.0100  146.3300 N   0  0  0  0  0  2  0  0  0  0  0  0
  192.1630  175.4110  146.9080 C   0  0  0  0  0  2  0  0  0  0  0  0
  193.2820  176.3960  146.9030 C   0  0  0  0  0  3  0  0  0  0  0  0
  194.4350  176.1100  146.2970 C   0  0  0  0  0  2  0  0  0  0  0  0
  182.8400  178.5620  142.5730 C   0  0  0  0  0  2  0  0  0  0  0  0
  182.2860  178.4160  141.1690 C   0  0  0  0  0  2  0  0  0  0  0  0
  180.8340  177.9960  141.2460 C   0  0  0  0  0  2  0  0  0  0  0  0
  179.9910  180.2220  140.8170 N   0  0  0  0  0  2  0  0  0  0  0  0
  178.9920  179.0440  142.5940 N   0  0  0  0  0  1  0  0  0  0  0  0
  179.9770  179.1710  141.5800 C   0  0  0  0  0  0  0  0  0  0  0  0
  188.2050  177.9410  141.1640 O   0  0  0  0  0  0  0  0  0  0  0  0
  189.2820  177.7300  143.2610 C   0  0  0  0  0  2  0  0  0  0  0  0
  188.1410  177.2630  142.3870 C   0  0  2  0  0  3  0  0  0  0  0  0
  189.0730  175.2940  143.5400 C   0  0  0  0  0  1  0  0  0  0  0  0
  189.3760  176.3980  142.5510 C   0  0  2  0  0  3  0  0  0  0  0  0
  1 45  1  1  0  0  0
  1 21  1  0  0  0  0
  3  2  1  0  0  0  0
  3  1  1  0  0  0  0
  4  3  2  0  0  0  0
  5  4  1  0  0  0  0
  5  6  1  0  0  0  0
  6  2  1  0  0  0  0
  7  6  2  0  0  0  0
  7 11  1  0  0  0  0
  8 12  1  0  0  0  0
  9 11  1  0  0  0  0
  9 13  2  0  0  0  0
 10 12  2  0  0  0  0
 10 18  1  0  0  0  0
 11  8  2  0  0  0  0
 13 10  1  0  0  0  0
 15 17  2  0  0  0  0
 16 17  1  0  0  0  0
 16 13  1  0  0  0  0
 17 14  1  0  0  0  0
 18 20  1  0  0  0  0
 20 19  1  0  0  0  0
 22 21  1  0  0  0  0
 22 23  1  0  0  0  0
 23 39  1  0  0  0  0
 24 25  1  0  0  0  0
 25 27  1  1  0  0  0
 26 23  1  6  0  0  0
 26 24  1  0  0  0  0
 26 25  1  0  0  0  0
 27 29  1  0  0  0  0
 29 30  1  0  0  0  0
 29 28  2  0  0  0  0
 31 30  2  0  0  0  0
 32 31  1  0  0  0  0
 32 33  1  0  0  0  0
 33 34  1  0  0  0  0
 35 36  1  0  0  0  0
 35 34  1  0  0  0  0
 37 36  1  0  0  0  0
 38 37  2  0  0  0  0
 40 41  1  0  0  0  0
 40 39  1  0  0  0  0
 41 44  1  0  0  0  0
 42 44  2  0  0  0  0
 44 43  1  0  0  0  0
 47 45  1  6  0  0  0
 47 49  1  0  0  0  0
 47 46  1  0  0  0  0
 49 46  1  0  0  0  0
 49 48  1  1  0  0  0
M  END
>  <MODEL>
5

>  <REMARK>
 VINA RESULT:      -5.2      2.886      6.459
  Name = 
  24 active torsions:
  status: ('A' for Active; 'I' for Inactive)
    1  A    between atoms: O_1  and  C_22
    2  A    between atoms: O_1  and  C_24
    3  A    between atoms: C_5  and  N_17
    4  A    between atoms: C_5  and  N_42
    5  A    between atoms: N_6  and  C_33
    6  A    between atoms: N_6  and  C_43
    7  A    between atoms: O_10  and  C_12
    8  A    between atoms: O_10  and  C_34
    9  A    between atoms: C_12  and  C_37
   10  A    between atoms: C_13  and  C_19
   11  A    between atoms: C_13  and  C_25
   12  A    between atoms: C_15  and  C_22
   13  A    between atoms: C_16  and  C_35
   14  A    between atoms: N_17  and  C_29
   15  A    between atoms: N_17  and  C_44
   16  A    between atoms: C_19  and  C_29
   17  A    between atoms: C_22  and  N_42
   18  A    between atoms: C_23  and  C_39
   19  A    between atoms: C_23  and  N_49
   20  A    between atoms: C_27  and  N_45
   21  A    between atoms: N_31  and  C_32
   22  A    between atoms: C_33  and  O_46
   23  A    between atoms: C_35  and  C_38
   24  A    between atoms: O_46  and  N_49
                            x       y       z     vdW  Elec       q    Type
                         _______ _______ _______ _____ _____    ______ ____

>  <TORSDO>
F 24

$$$$
=
 OpenBabel11042414073D

 49 52  0  0  1  0  0  0  0  0999 V2000
  190.1480  171.6670  140.2970 C   0  0  1  0  0  3  0  0  0  0  0  0
  192.0080  171.0760  141.8230 O   0  0  0  0  0  0  0  0  0  0  0  0
  191.0700  170.7110  140.9880 C   0  0  0  0  0  0  0  0  0  0  0  0
  191.0870  169.3300  140.8780 C   0  0  0  0  0  3  0  0  0  0  0  0
  192.0620  168.9070  141.6560 O   0  0  0  0  0  0  0  0  0  0  0  0
  192.5950  169.9680  142.2080 C   0  0  0  0  0  0  0  0  0  0  0  0
  193.5960  169.9090  143.0360 N   0  0  0  0  0  0  0  0  0  0  0  0
  193.9590  171.3140  145.0620 C   0  0  0  0  0  3  0  0  0  0  0  0
  195.1000  171.8250  142.9900 C   0  0  0  0  0  3  0  0  0  0  0  0
  195.4660  173.2080  144.9570 C   0  0  0  0  0  0  0  0  0  0  0  0
  194.2070  171.0220  143.7090 C   0  0  0  0  0  0  0  0  0  0  0  0
  194.5820  172.4020  145.6810 C   0  0  0  0  0  3  0  0  0  0  0  0
  195.7290  172.9260  143.5980 C   0  0  0  0  0  0  0  0  0  0  0  0
  194.9920  175.0750  141.5510 N   0  0  0  0  0  1  0  0  0  0  0  0
  197.2790  175.3310  141.2780 O   0  0  0  0  0  0  0  0  0  0  0  0
  196.6510  173.7540  142.8700 N   0  0  0  0  0  2  0  0  0  0  0  0
  196.3440  174.7510  141.8830 C   0  0  0  0  0  0  0  0  0  0  0  0
  196.0930  174.3840  145.6350 C   0  0  0  0  0  2  0  0  0  0  0  0
  194.5530  176.4960  144.8640 S   0  0  0  0  0  1  0  0  0  0  0  0
  195.0250  175.3230  146.1620 C   0  0  0  0  0  2  0  0  0  0  0  0
  190.2660  172.9760  140.9280 N   0  0  0  0  0  2  0  0  0  0  0  0
  189.3060  173.0500  142.0320 C   0  0  0  0  0  2  0  0  0  0  0  0
  189.5550  174.1920  142.9290 N   0  0  0  0  0  0  0  0  0  0  0  0
  187.3980  175.2680  142.4560 C   0  0  0  0  0  2  0  0  0  0  0  0
  188.0830  176.0000  143.5950 C   0  0  1  0  0  3  0  0  0  0  0  0
  188.9110  175.4180  142.4610 C   0  0  1  0  0  3  0  0  0  0  0  0
  187.9930  177.4070  143.4110 O   0  0  0  0  0  0  0  0  0  0  0  0
  188.7230  178.4700  141.4930 O   0  0  0  0  0  0  0  0  0  0  0  0
  187.7640  177.9850  142.1610 C   0  0  0  0  0  0  0  0  0  0  0  0
  186.3810  178.1290  141.7040 C   0  0  0  0  0  3  0  0  0  0  0  0
  185.3710  178.7380  142.3440 C   0  0  0  0  0  3  0  0  0  0  0  0
  185.4640  179.5110  143.5480 N   0  0  0  0  0  2  0  0  0  0  0  0
  184.6310  179.3380  144.7230 C   0  0  0  0  0  2  0  0  0  0  0  0
  184.5890  177.9820  145.0770 O   0  0  0  0  0  0  0  0  0  0  0  0
  184.2190  177.9770  146.3730 N   0  0  0  0  0  2  0  0  0  0  0  0
  185.3140  178.5500  147.1310 C   0  0  0  0  0  2  0  0  0  0  0  0
  186.1330  177.4630  147.7400 C   0  0  0  0  0  3  0  0  0  0  0  0
  187.0360  176.8050  147.0120 C   0  0  0  0  0  2  0  0  0  0  0  0
  190.9870  174.4320  142.9460 C   0  0  0  0  0  2  0  0  0  0  0  0
  191.5600  173.9710  144.2710 C   0  0  0  0  0  2  0  0  0  0  0  0
  190.5470  174.2210  145.3680 C   0  0  0  0  0  2  0  0  0  0  0  0
  191.6320  175.1770  147.3060 N   0  0  0  0  0  1  0  0  0  0  0  0
  190.8580  176.6940  145.6800 N   0  0  0  0  0  2  0  0  0  0  0  0
  190.9740  175.3800  146.2050 C   0  0  0  0  0  0  0  0  0  0  0  0
  190.4660  171.7720  138.9400 O   0  0  0  0  0  0  0  0  0  0  0  0
  188.5690  172.8210  137.9890 C   0  0  0  0  0  2  0  0  0  0  0  0
  189.9620  173.0170  138.5430 C   0  0  2  0  0  3  0  0  0  0  0  0
  189.7290  174.4430  136.5460 C   0  0  0  0  0  1  0  0  0  0  0  0
  189.7330  173.0140  137.0430 C   0  0  2  0  0  3  0  0  0  0  0  0
  1 45  1  6  0  0  0
  1 21  1  0  0  0  0
  1  3  1  0  0  0  0
  2  6  1  0  0  0  0
  3  2  1  0  0  0  0
  4  3  2  0  0  0  0
  4  5  1  0  0  0  0
  5  6  1  0  0  0  0
  6  7  2  0  0  0  0
  7 11  1  0  0  0  0
  8 12  1  0  0  0  0
  9 13  2  0  0  0  0
  9 11  1  0  0  0  0
 10 18  1  0  0  0  0
 10 12  2  0  0  0  0
 11  8  2  0  0  0  0
 13 10  1  0  0  0  0
 14 17  1  0  0  0  0
 15 17  2  0  0  0  0
 16 13  1  0  0  0  0
 17 16  1  0  0  0  0
 18 20  1  0  0  0  0
 19 20  1  0  0  0  0
 21 22  1  0  0  0  0
 22 23  1  0  0  0  0
 23 39  1  0  0  0  0
 24 26  1  0  0  0  0
 24 25  1  0  0  0  0
 25 27  1  6  0  0  0
 26 23  1  1  0  0  0
 26 25  1  0  0  0  0
 28 29  2  0  0  0  0
 29 27  1  0  0  0  0
 30 29  1  0  0  0  0
 30 31  2  0  0  0  0
 31 32  1  0  0  0  0
 32 33  1  0  0  0  0
 33 34  1  0  0  0  0
 34 35  1  0  0  0  0
 35 36  1  0  0  0  0
 36 37  1  0  0  0  0
 38 37  2  0  0  0  0
 39 40  1  0  0  0  0
 40 41  1  0  0  0  0
 41 44  1  0  0  0  0
 43 44  2  0  0  0  0
 44 42  1  0  0  0  0
 46 47  1  0  0  0  0
 47 45  1  6  0  0  0
 49 48  1  1  0  0  0
 49 46  1  0  0  0  0
 49 47  1  0  0  0  0
M  END
>  <MODEL>
6

>  <REMARK>
 VINA RESULT:      -4.9      1.654      3.599
  Name = 
  24 active torsions:
  status: ('A' for Active; 'I' for Inactive)
    1  A    between atoms: O_1  and  C_22
    2  A    between atoms: O_1  and  C_24
    3  A    between atoms: C_5  and  N_17
    4  A    between atoms: C_5  and  N_42
    5  A    between atoms: N_6  and  C_33
    6  A    between atoms: N_6  and  C_43
    7  A    between atoms: O_10  and  C_12
    8  A    between atoms: O_10  and  C_34
    9  A    between atoms: C_12  and  C_37
   10  A    between atoms: C_13  and  C_19
   11  A    between atoms: C_13  and  C_25
   12  A    between atoms: C_15  and  C_22
   13  A    between atoms: C_16  and  C_35
   14  A    between atoms: N_17  and  C_29
   15  A    between atoms: N_17  and  C_44
   16  A    between atoms: C_19  and  C_29
   17  A    between atoms: C_22  and  N_42
   18  A    between atoms: C_23  and  C_39
   19  A    between atoms: C_23  and  N_49
   20  A    between atoms: C_27  and  N_45
   21  A    between atoms: N_31  and  C_32
   22  A    between atoms: C_33  and  O_46
   23  A    between atoms: C_35  and  C_38
   24  A    between atoms: O_46  and  N_49
                            x       y       z     vdW  Elec       q    Type
                         _______ _______ _______ _____ _____    ______ ____

>  <TORSDO>
F 24

$$$$
=
 OpenBabel11042414073D

 49 52  0  0  1  0  0  0  0  0999 V2000
  186.9670  177.6790  140.6540 C   0  0  1  0  0  3  0  0  0  0  0  0
  187.7430  175.6340  139.4910 O   0  0  0  0  0  0  0  0  0  0  0  0
  187.0100  176.7160  139.5080 C   0  0  0  0  0  0  0  0  0  0  0  0
  186.3060  176.7940  138.3170 C   0  0  0  0  0  3  0  0  0  0  0  0
  186.6580  175.7410  137.6090 O   0  0  0  0  0  0  0  0  0  0  0  0
  187.5150  175.0650  138.3320 C   0  0  0  0  0  0  0  0  0  0  0  0
  188.0720  173.9630  137.9240 N   0  0  0  0  0  0  0  0  0  0  0  0
  190.1320  172.5710  138.0930 C   0  0  0  0  0  3  0  0  0  0  0  0
  188.7420  172.9500  140.0360 C   0  0  0  0  0  3  0  0  0  0  0  0
  190.7490  171.5890  140.2200 C   0  0  0  0  0  0  0  0  0  0  0  0
  188.9890  173.1490  138.6730 C   0  0  0  0  0  0  0  0  0  0  0  0
  191.0040  171.7930  138.8610 C   0  0  0  0  0  3  0  0  0  0  0  0
  189.6070  172.1660  140.8200 C   0  0  0  0  0  0  0  0  0  0  0  0
  191.1440  173.4630  143.1230 N   0  0  0  0  0  1  0  0  0  0  0  0
  189.7920  172.1760  144.4980 O   0  0  0  0  0  0  0  0  0  0  0  0
  189.3650  171.9600  142.2210 N   0  0  0  0  0  2  0  0  0  0  0  0
  190.0820  172.5270  143.3290 C   0  0  0  0  0  0  0  0  0  0  0  0
  191.6810  170.7260  141.0100 C   0  0  0  0  0  2  0  0  0  0  0  0
  193.5870  169.4190  139.5660 S   0  0  0  0  0  1  0  0  0  0  0  0
  193.1040  170.8870  140.5110 C   0  0  0  0  0  2  0  0  0  0  0  0
  185.9710  177.2210  141.6170 N   0  0  0  0  0  2  0  0  0  0  0  0
  184.7100  177.9140  141.3480 C   0  0  0  0  0  2  0  0  0  0  0  0
  184.2640  178.7440  142.4830 N   0  0  0  0  0  0  0  0  0  0  0  0
  185.5090  179.3830  144.5020 C   0  0  0  0  0  2  0  0  0  0  0  0
  184.0890  179.0120  144.8860 C   0  0  1  0  0  3  0  0  0  0  0  0
  184.7890  178.2670  143.7610 C   0  0  1  0  0  3  0  0  0  0  0  0
  184.0860  178.1820  146.0410 O   0  0  0  0  0  0  0  0  0  0  0  0
  185.5390  178.9520  147.6640 O   0  0  0  0  0  0  0  0  0  0  0  0
  185.2060  178.0340  146.8590 C   0  0  0  0  0  0  0  0  0  0  0  0
  186.0520  176.8530  146.6740 C   0  0  0  0  0  3  0  0  0  0  0  0
  187.3850  176.7780  146.8070 C   0  0  0  0  0  3  0  0  0  0  0  0
  188.2550  177.8030  147.3060 N   0  0  0  0  0  2  0  0  0  0  0  0
  189.6940  177.8380  147.1370 C   0  0  0  0  0  2  0  0  0  0  0  0
  190.2460  176.6090  147.5270 O   0  0  0  0  0  0  0  0  0  0  0  0
  191.1150  176.2960  146.5460 N   0  0  0  0  0  2  0  0  0  0  0  0
  191.5420  174.9290  146.7750 C   0  0  0  0  0  2  0  0  0  0  0  0
  192.8820  174.7060  146.1590 C   0  0  0  0  0  3  0  0  0  0  0  0
  193.4260  175.6300  145.3650 C   0  0  0  0  0  2  0  0  0  0  0  0
  182.8150  178.6560  142.5470 C   0  0  0  0  0  2  0  0  0  0  0  0
  182.2760  178.2280  141.1980 C   0  0  0  0  0  2  0  0  0  0  0  0
  181.0980  179.1050  140.8280 C   0  0  0  0  0  2  0  0  0  0  0  0
  179.4990  177.7440  139.6300 N   0  0  0  0  0  2  0  0  0  0  0  0
  179.1910  177.9250  141.9570 N   0  0  0  0  0  1  0  0  0  0  0  0
  179.8530  178.2880  140.7550 C   0  0  0  0  0  0  0  0  0  0  0  0
  188.2140  177.7680  141.2780 O   0  0  0  0  0  0  0  0  0  0  0  0
  189.0510  177.9530  143.4840 C   0  0  0  0  0  2  0  0  0  0  0  0
  187.9960  177.3380  142.5930 C   0  0  2  0  0  3  0  0  0  0  0  0
  188.7350  175.6180  144.1960 C   0  0  0  0  0  1  0  0  0  0  0  0
  189.1790  176.5090  143.0560 C   0  0  2  0  0  3  0  0  0  0  0  0
  1 45  1  1  0  0  0
  1 21  1  0  0  0  0
  2  3  1  0  0  0  0
  3  1  1  0  0  0  0
  4  3  2  0  0  0  0
  5  4  1  0  0  0  0
  5  6  1  0  0  0  0
  6  2  1  0  0  0  0
  7  6  2  0  0  0  0
  7 11  1  0  0  0  0
  8 11  2  0  0  0  0
  8 12  1  0  0  0  0
  9 13  2  0  0  0  0
 10 13  1  0  0  0  0
 10 18  1  0  0  0  0
 11  9  1  0  0  0  0
 12 10  2  0  0  0  0
 13 16  1  0  0  0  0
 14 17  1  0  0  0  0
 16 17  1  0  0  0  0
 17 15  2  0  0  0  0
 19 20  1  0  0  0  0
 20 18  1  0  0  0  0
 22 21  1  0  0  0  0
 22 23  1  0  0  0  0
 23 39  1  0  0  0  0
 24 25  1  0  0  0  0
 25 27  1  1  0  0  0
 26 23  1  6  0  0  0
 26 24  1  0  0  0  0
 26 25  1  0  0  0  0
 27 29  1  0  0  0  0
 29 28  2  0  0  0  0
 30 31  2  0  0  0  0
 30 29  1  0  0  0  0
 31 32  1  0  0  0  0
 33 32  1  0  0  0  0
 33 34  1  0  0  0  0
 35 36  1  0  0  0  0
 35 34  1  0  0  0  0
 37 36  1  0  0  0  0
 38 37  2  0  0  0  0
 40 39  1  0  0  0  0
 41 40  1  0  0  0  0
 42 44  2  0  0  0  0
 44 41  1  0  0  0  0
 44 43  1  0  0  0  0
 47 45  1  6  0  0  0
 47 49  1  0  0  0  0
 47 46  1  0  0  0  0
 49 46  1  0  0  0  0
 49 48  1  1  0  0  0
M  END
>  <MODEL>
7

>  <REMARK>
 VINA RESULT:      -4.7      3.121      6.950
  Name = 
  24 active torsions:
  status: ('A' for Active; 'I' for Inactive)
    1  A    between atoms: O_1  and  C_22
    2  A    between atoms: O_1  and  C_24
    3  A    between atoms: C_5  and  N_17
    4  A    between atoms: C_5  and  N_42
    5  A    between atoms: N_6  and  C_33
    6  A    between atoms: N_6  and  C_43
    7  A    between atoms: O_10  and  C_12
    8  A    between atoms: O_10  and  C_34
    9  A    between atoms: C_12  and  C_37
   10  A    between atoms: C_13  and  C_19
   11  A    between atoms: C_13  and  C_25
   12  A    between atoms: C_15  and  C_22
   13  A    between atoms: C_16  and  C_35
   14  A    between atoms: N_17  and  C_29
   15  A    between atoms: N_17  and  C_44
   16  A    between atoms: C_19  and  C_29
   17  A    between atoms: C_22  and  N_42
   18  A    between atoms: C_23  and  C_39
   19  A    between atoms: C_23  and  N_49
   20  A    between atoms: C_27  and  N_45
   21  A    between atoms: N_31  and  C_32
   22  A    between atoms: C_33  and  O_46
   23  A    between atoms: C_35  and  C_38
   24  A    between atoms: O_46  and  N_49
                            x       y       z     vdW  Elec       q    Type
                         _______ _______ _______ _____ _____    ______ ____

>  <TORSDO>
F 24

$$$$
=
 OpenBabel11042414073D

 49 52  0  0  1  0  0  0  0  0999 V2000
  189.5170  173.7710  140.8170 C   0  0  1  0  0  3  0  0  0  0  0  0
  189.8530  174.1440  138.3910 O   0  0  0  0  0  0  0  0  0  0  0  0
  189.2020  173.5680  139.3670 C   0  0  0  0  0  0  0  0  0  0  0  0
  188.2130  172.7610  138.8270 C   0  0  0  0  0  3  0  0  0  0  0  0
  188.3000  172.8940  137.5190 O   0  0  0  0  0  0  0  0  0  0  0  0
  189.2860  173.7230  137.2850 C   0  0  0  0  0  0  0  0  0  0  0  0
  189.6400  174.0830  136.0870 N   0  0  0  0  0  0  0  0  0  0  0  0
  190.5380  176.2040  135.1340 C   0  0  0  0  0  3  0  0  0  0  0  0
  192.0310  174.5500  136.0770 C   0  0  0  0  0  3  0  0  0  0  0  0
  192.9250  176.6140  135.1530 C   0  0  0  0  0  0  0  0  0  0  0  0
  190.7320  174.9550  135.7510 C   0  0  0  0  0  0  0  0  0  0  0  0
  191.6280  177.0260  134.8340 C   0  0  0  0  0  3  0  0  0  0  0  0
  193.1380  175.3640  135.7760 C   0  0  0  0  0  0  0  0  0  0  0  0
  194.3460  175.2840  138.5840 N   0  0  0  0  0  1  0  0  0  0  0  0
  196.2990  174.6330  137.5180 O   0  0  0  0  0  0  0  0  0  0  0  0
  194.4760  174.9600  136.1100 N   0  0  0  0  0  2  0  0  0  0  0  0
  195.0860  174.9370  137.4100 C   0  0  0  0  0  0  0  0  0  0  0  0
  194.0750  177.4990  134.7900 C   0  0  0  0  0  2  0  0  0  0  0  0
  195.0010  180.0470  134.5140 S   0  0  0  0  0  1  0  0  0  0  0  0
  193.5910  178.9090  134.5130 C   0  0  0  0  0  2  0  0  0  0  0  0
  188.3330  174.2930  141.4880 N   0  0  0  0  0  2  0  0  0  0  0  0
  188.1600  175.6960  141.1050 C   0  0  0  0  0  2  0  0  0  0  0  0
  188.1580  176.6070  142.2640 N   0  0  0  0  0  0  0  0  0  0  0  0
  189.9390  177.9240  143.3250 C   0  0  0  0  0  2  0  0  0  0  0  0
  189.1720  177.1680  144.3940 C   0  0  1  0  0  3  0  0  0  0  0  0
  189.4000  176.5330  143.0320 C   0  0  1  0  0  3  0  0  0  0  0  0
  190.0670  176.5720  145.3230 O   0  0  0  0  0  0  0  0  0  0  0  0
  188.4610  176.2390  146.9520 O   0  0  0  0  0  0  0  0  0  0  0  0
  189.6370  176.0270  146.5340 C   0  0  0  0  0  0  0  0  0  0  0  0
  190.6120  175.3150  147.3620 C   0  0  0  0  0  3  0  0  0  0  0  0
  191.9350  175.5290  147.4280 C   0  0  0  0  0  3  0  0  0  0  0  0
  192.6600  176.6020  146.8120 N   0  0  0  0  0  2  0  0  0  0  0  0
  194.1010  176.7650  146.8390 C   0  0  0  0  0  2  0  0  0  0  0  0
  194.6060  176.7100  145.5320 O   0  0  0  0  0  0  0  0  0  0  0  0
  194.9880  175.4280  145.3660 N   0  0  0  0  0  2  0  0  0  0  0  0
  196.1990  175.4430  144.5680 C   0  0  0  0  0  2  0  0  0  0  0  0
  196.0140  176.3280  143.3820 C   0  0  0  0  0  3  0  0  0  0  0  0
  195.3560  175.8920  142.3060 C   0  0  0  0  0  2  0  0  0  0  0  0
  187.0770  176.1960  143.1430 C   0  0  0  0  0  2  0  0  0  0  0  0
  185.8380  177.0120  142.8350 C   0  0  0  0  0  2  0  0  0  0  0  0
  185.9430  178.3590  143.5180 C   0  0  0  0  0  2  0  0  0  0  0  0
  183.8830  179.2910  144.3740 N   0  0  0  0  0  2  0  0  0  0  0  0
  184.8640  177.5680  145.6440 N   0  0  0  0  0  1  0  0  0  0  0  0
  184.8850  178.4870  144.5620 C   0  0  0  0  0  0  0  0  0  0  0  0
  189.9030  172.5690  141.4160 O   0  0  0  0  0  0  0  0  0  0  0  0
  191.2340  171.8670  143.2430 C   0  0  0  0  0  2  0  0  0  0  0  0
  190.2790  172.9150  142.7190 C   0  0  2  0  0  3  0  0  0  0  0  0
  189.6930  172.4580  145.0690 C   0  0  0  0  0  1  0  0  0  0  0  0
  189.7880  171.8540  143.6850 C   0  0  2  0  0  3  0  0  0  0  0  0
  1 45  1  1  0  0  0
  1 21  1  0  0  0  0
  2  3  1  0  0  0  0
  3  1  1  0  0  0  0
  4  3  2  0  0  0  0
  5  4  1  0  0  0  0
  6  5  1  0  0  0  0
  6  2  1  0  0  0  0
  7  6  2  0  0  0  0
  8 11  1  0  0  0  0
 10 13  2  0  0  0  0
 11  9  2  0  0  0  0
 11  7  1  0  0  0  0
 12  8  2  0  0  0  0
 12 10  1  0  0  0  0
 13  9  1  0  0  0  0
 13 16  1  0  0  0  0
 16 17  1  0  0  0  0
 17 15  2  0  0  0  0
 17 14  1  0  0  0  0
 18 10  1  0  0  0  0
 20 19  1  0  0  0  0
 20 18  1  0  0  0  0
 22 21  1  0  0  0  0
 22 23  1  0  0  0  0
 23 39  1  0  0  0  0
 24 25  1  0  0  0  0
 25 27  1  1  0  0  0
 26 23  1  6  0  0  0
 26 24  1  0  0  0  0
 26 25  1  0  0  0  0
 27 29  1  0  0  0  0
 29 28  2  0  0  0  0
 29 30  1  0  0  0  0
 30 31  2  0  0  0  0
 32 33  1  0  0  0  0
 32 31  1  0  0  0  0
 34 33  1  0  0  0  0
 35 34  1  0  0  0  0
 36 35  1  0  0  0  0
 37 36  1  0  0  0  0
 38 37  2  0  0  0  0
 40 39  1  0  0  0  0
 40 41  1  0  0  0  0
 41 44  1  0  0  0  0
 42 44  2  0  0  0  0
 44 43  1  0  0  0  0
 46 49  1  0  0  0  0
 47 45  1  6  0  0  0
 47 46  1  0  0  0  0
 47 49  1  0  0  0  0
 49 48  1  1  0  0  0
M  END
>  <MODEL>
8

>  <REMARK>
 VINA RESULT:      -4.7      3.307      6.792
  Name = 
  24 active torsions:
  status: ('A' for Active; 'I' for Inactive)
    1  A    between atoms: O_1  and  C_22
    2  A    between atoms: O_1  and  C_24
    3  A    between atoms: C_5  and  N_17
    4  A    between atoms: C_5  and  N_42
    5  A    between atoms: N_6  and  C_33
    6  A    between atoms: N_6  and  C_43
    7  A    between atoms: O_10  and  C_12
    8  A    between atoms: O_10  and  C_34
    9  A    between atoms: C_12  and  C_37
   10  A    between atoms: C_13  and  C_19
   11  A    between atoms: C_13  and  C_25
   12  A    between atoms: C_15  and  C_22
   13  A    between atoms: C_16  and  C_35
   14  A    between atoms: N_17  and  C_29
   15  A    between atoms: N_17  and  C_44
   16  A    between atoms: C_19  and  C_29
   17  A    between atoms: C_22  and  N_42
   18  A    between atoms: C_23  and  C_39
   19  A    between atoms: C_23  and  N_49
   20  A    between atoms: C_27  and  N_45
   21  A    between atoms: N_31  and  C_32
   22  A    between atoms: C_33  and  O_46
   23  A    between atoms: C_35  and  C_38
   24  A    between atoms: O_46  and  N_49
                            x       y       z     vdW  Elec       q    Type
                         _______ _______ _______ _____ _____    ______ ____

>  <TORSDO>
F 24

$$$$
=
 OpenBabel11042414073D

 49 52  0  0  1  0  0  0  0  0999 V2000
  187.5740  176.3740  143.1630 C   0  0  1  0  0  3  0  0  0  0  0  0
  189.7230  176.1450  144.3730 O   0  0  0  0  0  0  0  0  0  0  0  0
  188.5330  176.6770  144.2720 C   0  0  0  0  0  0  0  0  0  0  0  0
  188.3410  177.5420  145.3360 C   0  0  0  0  0  3  0  0  0  0  0  0
  189.4410  177.4900  146.0600 O   0  0  0  0  0  0  0  0  0  0  0  0
  190.2490  176.6500  145.4630 C   0  0  0  0  0  0  0  0  0  0  0  0
  191.4310  176.3570  145.9210 N   0  0  0  0  0  0  0  0  0  0  0  0
  192.6140  174.1690  145.7660 C   0  0  0  0  0  3  0  0  0  0  0  0
  193.0900  175.9400  144.1860 C   0  0  0  0  0  3  0  0  0  0  0  0
  194.2550  173.8120  144.0190 C   0  0  0  0  0  0  0  0  0  0  0  0
  192.3850  175.4780  145.3030 C   0  0  0  0  0  0  0  0  0  0  0  0
  193.5460  173.3430  145.1290 C   0  0  0  0  0  3  0  0  0  0  0  0
  194.0340  175.1220  143.5400 C   0  0  0  0  0  0  0  0  0  0  0  0
  196.5830  176.8110  143.5770 N   0  0  0  0  0  1  0  0  0  0  0  0
  196.4040  176.7890  141.2660 O   0  0  0  0  0  0  0  0  0  0  0  0
  194.7590  175.5850  142.3890 N   0  0  0  0  0  2  0  0  0  0  0  0
  195.9400  176.4020  142.3670 C   0  0  0  0  0  0  0  0  0  0  0  0
  195.2680  172.9180  143.3780 C   0  0  0  0  0  2  0  0  0  0  0  0
  197.5690  173.4940  144.7200 S   0  0  0  0  0  1  0  0  0  0  0  0
  196.2030  172.3410  144.4240 C   0  0  0  0  0  2  0  0  0  0  0  0
  187.7060  174.9680  142.7960 N   0  0  0  0  0  2  0  0  0  0  0  0
  188.5630  174.8750  141.6120 C   0  0  0  0  0  2  0  0  0  0  0  0
  188.9530  173.4880  141.3000 N   0  0  0  0  0  0  0  0  0  0  0  0
  189.3120  171.9820  143.2070 C   0  0  0  0  0  2  0  0  0  0  0  0
  190.0930  171.4690  142.0110 C   0  0  1  0  0  3  0  0  0  0  0  0
  189.9460  172.9650  142.2370 C   0  0  1  0  0  3  0  0  0  0  0  0
  191.4040  171.0820  142.4010 O   0  0  0  0  0  0  0  0  0  0  0  0
  193.0980  169.5130  142.4860 O   0  0  0  0  0  0  0  0  0  0  0  0
  191.9350  169.8280  142.0990 C   0  0  0  0  0  0  0  0  0  0  0  0
  191.1680  168.9400  141.2220 C   0  0  0  0  0  3  0  0  0  0  0  0
  191.1860  168.9070  139.8810 C   0  0  0  0  0  3  0  0  0  0  0  0
  192.0730  169.6320  139.0180 N   0  0  0  0  0  2  0  0  0  0  0  0
  191.8910  171.0050  138.5890 C   0  0  0  0  0  2  0  0  0  0  0  0
  193.0520  171.4570  137.9480 O   0  0  0  0  0  0  0  0  0  0  0  0
  193.3080  172.6570  138.5070 N   0  0  0  0  0  2  0  0  0  0  0  0
  193.8200  172.4050  139.8400 C   0  0  0  0  0  2  0  0  0  0  0  0
  195.2290  171.9220  139.7600 C   0  0  0  0  0  3  0  0  0  0  0  0
  195.5790  170.7590  140.3130 C   0  0  0  0  0  2  0  0  0  0  0  0
  189.5580  173.4880  139.9800 C   0  0  0  0  0  2  0  0  0  0  0  0
  188.5060  173.8290  138.9440 C   0  0  0  0  0  2  0  0  0  0  0  0
  188.8420  173.1330  137.6420 C   0  0  0  0  0  2  0  0  0  0  0  0
  188.7210  174.9160  136.0130 N   0  0  0  0  0  2  0  0  0  0  0  0
  190.8760  174.2660  136.7030 N   0  0  0  0  0  1  0  0  0  0  0  0
  189.4670  174.0970  136.6910 C   0  0  0  0  0  0  0  0  0  0  0  0
  186.2580  176.6320  143.5570 O   0  0  0  0  0  0  0  0  0  0  0  0
  185.7290  178.7950  142.7540 C   0  0  0  0  0  2  0  0  0  0  0  0
  185.6800  177.3100  142.4770 C   0  0  2  0  0  3  0  0  0  0  0  0
  183.5380  178.2900  141.7530 C   0  0  0  0  0  1  0  0  0  0  0  0
  184.4340  178.0380  142.9450 C   0  0  2  0  0  3  0  0  0  0  0  0
  1 21  1  1  0  0  0
  1 45  1  0  0  0  0
  1  3  1  0  0  0  0
  2  6  1  0  0  0  0
  3  2  1  0  0  0  0
  3  4  2  0  0  0  0
  4  5  1  0  0  0  0
  6  7  2  0  0  0  0
  6  5  1  0  0  0  0
  9 11  2  0  0  0  0
 10 12  1  0  0  0  0
 11  8  1  0  0  0  0
 11  7  1  0  0  0  0
 12  8  2  0  0  0  0
 13 10  2  0  0  0  0
 13  9  1  0  0  0  0
 15 17  2  0  0  0  0
 16 13  1  0  0  0  0
 17 16  1  0  0  0  0
 17 14  1  0  0  0  0
 18 10  1  0  0  0  0
 18 20  1  0  0  0  0
 20 19  1  0  0  0  0
 22 21  1  0  0  0  0
 23 22  1  0  0  0  0
 25 26  1  0  0  0  0
 25 27  1  1  0  0  0
 25 24  1  0  0  0  0
 26 23  1  6  0  0  0
 26 24  1  0  0  0  0
 29 27  1  0  0  0  0
 29 28  2  0  0  0  0
 30 29  1  0  0  0  0
 31 30  2  0  0  0  0
 32 31  1  0  0  0  0
 33 32  1  0  0  0  0
 34 35  1  0  0  0  0
 34 33  1  0  0  0  0
 35 36  1  0  0  0  0
 37 36  1  0  0  0  0
 37 38  2  0  0  0  0
 39 23  1  0  0  0  0
 40 39  1  0  0  0  0
 41 40  1  0  0  0  0
 42 44  2  0  0  0  0
 44 43  1  0  0  0  0
 44 41  1  0  0  0  0
 46 49  1  0  0  0  0
 47 46  1  0  0  0  0
 47 49  1  0  0  0  0
 47 45  1  1  0  0  0
 49 48  1  6  0  0  0
M  END
>  <MODEL>
9

>  <REMARK>
 VINA RESULT:      -4.7      2.402      7.132
  Name = 
  24 active torsions:
  status: ('A' for Active; 'I' for Inactive)
    1  A    between atoms: O_1  and  C_22
    2  A    between atoms: O_1  and  C_24
    3  A    between atoms: C_5  and  N_17
    4  A    between atoms: C_5  and  N_42
    5  A    between atoms: N_6  and  C_33
    6  A    between atoms: N_6  and  C_43
    7  A    between atoms: O_10  and  C_12
    8  A    between atoms: O_10  and  C_34
    9  A    between atoms: C_12  and  C_37
   10  A    between atoms: C_13  and  C_19
   11  A    between atoms: C_13  and  C_25
   12  A    between atoms: C_15  and  C_22
   13  A    between atoms: C_16  and  C_35
   14  A    between atoms: N_17  and  C_29
   15  A    between atoms: N_17  and  C_44
   16  A    between atoms: C_19  and  C_29
   17  A    between atoms: C_22  and  N_42
   18  A    between atoms: C_23  and  C_39
   19  A    between atoms: C_23  and  N_49
   20  A    between atoms: C_27  and  N_45
   21  A    between atoms: N_31  and  C_32
   22  A    between atoms: C_33  and  O_46
   23  A    between atoms: C_35  and  C_38
   24  A    between atoms: O_46  and  N_49
                            x       y       z     vdW  Elec       q    Type
                         _______ _______ _______ _____ _____    ______ ____

>  <TORSDO>
F 24

$$$$
