=
 OpenBabel11042419123D

 58 62  0  0  1  0  0  0  0  0999 V2000
  189.1360  175.7580  144.3780 C   0  0  2  0  0  3  0  0  0  0  0  0
  191.4080  174.8020  148.3580 C   0  0  0  0  0  1  0  0  0  0  0  0
  193.2500  177.3480  145.0740 O   0  0  0  0  0  1  0  0  0  0  0  0
  189.8650  175.8770  146.7330 C   0  0  2  0  0  3  0  0  0  0  0  0
  187.5720  177.5340  144.0700 O   0  0  0  0  0  0  0  0  0  0  0  0
  190.9920  176.1180  147.7470 C   0  0  2  0  0  3  0  0  0  0  0  0
  187.9230  176.5740  144.7400 C   0  0  0  0  0  0  0  0  0  0  0  0
  190.2660  176.2220  145.2910 C   0  0  1  0  0  3  0  0  0  0  0  0
  192.7390  176.2830  145.8240 C   0  0  1  0  0  0  0  0  0  0  0  0
  187.4460  176.3930  146.1590 C   0  0  1  0  0  3  0  0  0  0  0  0
  188.6000  176.6520  147.1310 C   0  0  0  0  0  2  0  0  0  0  0  0
  192.1890  176.8680  147.1630 C   0  0  0  0  0  2  0  0  0  0  0  0
  191.6260  175.6010  144.9930 C   0  0  0  0  0  2  0  0  0  0  0  0
  186.4490  178.5730  147.0540 C   0  0  0  0  0  1  0  0  0  0  0  0
  186.1790  177.1580  146.5660 C   0  0  1  0  0  3  0  0  0  0  0  0
  185.1010  177.1510  145.5060 C   0  0  0  0  0  2  0  0  0  0  0  0
  184.2910  178.4410  145.5820 C   0  0  0  0  0  2  0  0  0  0  0  0
  185.3820  180.1470  144.1070 C   0  0  0  0  0  1  0  0  0  0  0  0
  184.2270  179.1740  144.2450 C   0  0  0  0  0  3  0  0  0  0  0  0
  184.2220  178.2110  143.0690 C   0  0  0  0  0  1  0  0  0  0  0  0
  193.7560  175.3110  146.0560 O   0  0  0  0  0  0  0  0  0  0  0  0
  195.0000  175.8350  145.6500 C   0  0  0  0  0  2  0  0  0  0  0  0
  197.0350  173.9310  145.3800 S   0  0  0  0  0  1  0  0  0  0  0  0
  195.7010  174.9280  144.6370 C   0  0  2  0  0  3  0  0  0  0  0  0
  196.2560  175.7590  143.5870 N   0  0  0  0  0  2  0  0  0  0  0  0
  194.7010  174.4830  142.1980 C   0  0  0  0  0  2  0  0  0  0  0  0
  195.8560  176.5780  141.3170 C   0  0  0  0  0  2  0  0  0  0  0  0
  195.6370  175.7790  140.0350 C   0  0  0  0  0  2  0  0  0  0  0  0
  195.6980  173.6960  141.3260 C   0  0  0  0  0  2  0  0  0  0  0  0
  196.2420  174.4500  140.1750 N   0  0  1  0  0  0  0  0  0  0  0  0
  195.2540  175.8720  142.5350 C   0  0  2  0  0  3  0  0  0  0  0  0
  197.0730  172.7050  138.7160 C   0  0  0  0  0  2  0  0  0  0  0  0
  197.8110  174.9860  138.1290 F   0  0  0  0  0  0  0  0  0  0  0  0
  195.9330  173.6840  138.9730 C   0  0  2  0  0  3  0  0  0  0  0  0
  196.9500  173.9460  137.8670 C   0  0  2  0  0  0  0  0  0  0  0  0
  196.3720  173.7850  136.4720 C   0  0  0  0  0  2  0  0  0  0  0  0
  196.8340  174.9180  135.5780 C   0  0  0  0  0  2  0  0  0  0  0  0
  196.0080  176.0900  135.8160 N   0  0  0  0  0  2  0  0  0  0  0  0
  195.3130  178.1840  134.7830 C   0  0  0  0  0  1  0  0  0  0  0  0
  196.3370  177.0670  134.7910 C   0  0  0  0  0  2  0  0  0  0  0  0
  189.4860  175.6550  142.8810 C   0  0  0  0  0  2  0  0  0  0  0  0
  189.2350  174.3050  142.2320 C   0  0  0  0  0  2  0  0  0  0  0  0
  190.5220  173.5240  142.2550 C   0  0  0  0  0  2  0  0  0  0  0  0
  190.3840  172.1620  141.6490 C   0  0  0  0  0  0  0  0  0  0  0  0
  190.0420  171.1900  142.3730 O   0  0  0  0  0  0  0  0  0  0  0  0
  190.5810  171.9800  140.2460 N   0  0  0  0  0  2  0  0  0  0  0  0
  190.3800  170.6970  139.5980 C   0  0  0  0  0  2  0  0  0  0  0  0
  189.6020  170.8650  138.3050 C   0  0  0  0  0  2  0  0  0  0  0  0
  190.9700  171.8490  136.3790 N   0  0  0  0  0  0  0  0  0  0  0  0
  192.3630  174.1470  138.0160 C   0  0  0  0  0  1  0  0  0  0  0  0
  190.4650  173.1820  136.7130 C   0  0  0  0  0  2  0  0  0  0  0  0
  192.5880  174.0170  135.5440 C   0  0  1  0  0  3  0  0  0  0  0  0
  190.9200  169.5410  136.8410 O   0  0  0  0  0  0  0  0  0  0  0  0
  192.1220  172.9830  134.5170 C   0  0  0  0  0  2  0  0  0  0  0  0
  192.8150  175.2430  134.9280 O   0  0  0  0  0  1  0  0  0  0  0  0
  191.8550  171.6590  135.2240 C   0  0  0  0  0  2  0  0  0  0  0  0
  191.6030  174.2020  136.7120 C   0  0  2  0  0  3  0  0  0  0  0  0
  190.5120  170.7010  137.1300 C   0  0  0  0  0  0  0  0  0  0  0  0
  1 41  1  6  0  0  0
  1  7  1  0  0  0  0
  1  8  1  0  0  0  0
  4 11  1  1  0  0  0
  4  6  1  0  0  0  0
  5  7  2  0  0  0  0
  6  2  1  6  0  0  0
  7 10  1  0  0  0  0
  8 13  1  6  0  0  0
  8  4  1  0  0  0  0
  9  3  1  6  0  0  0
  9 21  1  0  0  0  0
  9 12  1  0  0  0  0
 10 15  1  1  0  0  0
 10 11  1  0  0  0  0
 12  6  1  0  0  0  0
 13  9  1  0  0  0  0
 15 14  1  6  0  0  0
 16 17  1  0  0  0  0
 16 15  1  0  0  0  0
 18 19  1  0  0  0  0
 19 17  1  0  0  0  0
 20 19  1  0  0  0  0
 22 21  1  0  0  0  0
 24 23  1  1  0  0  0
 24 22  1  0  0  0  0
 25 24  1  0  0  0  0
 26 31  1  0  0  0  0
 27 31  1  0  0  0  0
 28 27  1  0  0  0  0
 29 26  1  0  0  0  0
 30 28  1  6  0  0  0
 30 29  1  0  0  0  0
 31 25  1  1  0  0  0
 34 32  1  1  0  0  0
 34 30  1  0  0  0  0
 35 33  1  1  0  0  0
 35 32  1  0  0  0  0
 35 34  1  0  0  0  0
 36 35  1  0  0  0  0
 37 38  1  0  0  0  0
 37 36  1  0  0  0  0
 39 40  1  0  0  0  0
 40 38  1  0  0  0  0
 42 43  1  0  0  0  0
 42 41  1  0  0  0  0
 44 43  1  0  0  0  0
 44 45  2  0  0  0  0
 46 44  1  0  0  0  0
 47 46  1  0  0  0  0
 48 47  1  0  0  0  0
 49 51  1  0  0  0  0
 49 58  1  0  0  0  0
 52 55  1  6  0  0  0
 52 57  1  0  0  0  0
 53 58  2  0  0  0  0
 54 56  1  0  0  0  0
 54 52  1  0  0  0  0
 56 49  1  0  0  0  0
 57 51  1  0  0  0  0
 57 50  1  1  0  0  0
 58 48  1  0  0  0  0
M  END
>  <MODEL>
1

>  <REMARK>
 VINA RESULT:      -6.4      0.000      0.000
  Name = 
  21 active torsions:
  status: ('A' for Active; 'I' for Inactive)
    1  A    between atoms: C_2  and  C_39
    2  A    between atoms: C_2  and  C_56
    3  A    between atoms: C_3  and  C_23
    4  A    between atoms: C_5  and  C_15
    5  A    between atoms: C_8  and  C_18
    6  A    between atoms: C_15  and  C_45
    7  A    between atoms: C_16  and  C_17
    8  A    between atoms: C_16  and  N_27
    9  A    between atoms: C_17  and  C_51
   10  A    between atoms: C_18  and  C_36
   11  A    between atoms: C_23  and  C_45
   12  A    between atoms: C_24  and  N_32
   13  A    between atoms: O_29  and  C_42
   14  A    between atoms: O_29  and  C_46
   15  A    between atoms: N_32  and  C_39
   16  A    between atoms: C_35  and  N_49
   17  A    between atoms: C_36  and  C_58
   18  A    between atoms: C_44  and  C_58
   19  A    between atoms: C_46  and  C_50
   20  A    between atoms: C_50  and  N_57
   21  A    between atoms: C_54  and  N_57
                            x       y       z     vdW  Elec       q    Type
                         _______ _______ _______ _____ _____    ______ ____

>  <TORSDO>
F 21

$$$$
=
 OpenBabel11042419123D

 58 62  0  0  1  0  0  0  0  0999 V2000
  195.0870  173.8600  142.0820 C   0  0  2  0  0  3  0  0  0  0  0  0
  193.1710  169.9470  140.3710 C   0  0  0  0  0  1  0  0  0  0  0  0
  195.5650  172.8040  137.7700 O   0  0  0  0  0  1  0  0  0  0  0  0
  194.7600  171.4830  141.5090 C   0  0  2  0  0  3  0  0  0  0  0  0
  197.2070  174.0020  143.1700 O   0  0  0  0  0  0  0  0  0  0  0  0
  194.6090  170.4020  140.4300 C   0  0  2  0  0  3  0  0  0  0  0  0
  196.1220  173.4470  143.0960 C   0  0  0  0  0  0  0  0  0  0  0  0
  195.1630  172.8520  140.9420 C   0  0  1  0  0  3  0  0  0  0  0  0
  194.5730  172.2170  138.5640 C   0  0  1  0  0  0  0  0  0  0  0  0
  195.8980  172.0830  143.6990 C   0  0  1  0  0  3  0  0  0  0  0  0
  195.7630  171.0400  142.5860 C   0  0  0  0  0  2  0  0  0  0  0  0
  195.1150  170.8370  139.0550 C   0  0  0  0  0  2  0  0  0  0  0  0
  194.2740  173.1710  139.7440 C   0  0  0  0  0  2  0  0  0  0  0  0
  196.7140  172.3520  146.1090 C   0  0  0  0  0  1  0  0  0  0  0  0
  196.8900  171.6330  144.7800 C   0  0  1  0  0  3  0  0  0  0  0  0
  196.9300  170.1360  144.9790 C   0  0  0  0  0  2  0  0  0  0  0  0
  196.4020  169.7820  146.3660 C   0  0  0  0  0  2  0  0  0  0  0  0
  194.6560  168.5760  147.6980 C   0  0  0  0  0  1  0  0  0  0  0  0
  195.2540  168.7790  146.3180 C   0  0  0  0  0  3  0  0  0  0  0  0
  194.1670  169.2040  145.3450 C   0  0  0  0  0  1  0  0  0  0  0  0
  193.3680  172.0700  137.8170 O   0  0  0  0  0  0  0  0  0  0  0  0
  193.6780  171.6200  136.5180 C   0  0  0  0  0  2  0  0  0  0  0  0
  193.8620  169.1280  135.2550 S   0  0  0  0  0  1  0  0  0  0  0  0
  192.8680  170.3810  136.1310 C   0  0  2  0  0  3  0  0  0  0  0  0
  191.7710  170.7990  135.2810 N   0  0  0  0  0  2  0  0  0  0  0  0
  189.4180  171.3000  135.7160 C   0  0  0  0  0  2  0  0  0  0  0  0
  190.7810  169.8420  137.3030 C   0  0  0  0  0  2  0  0  0  0  0  0
  189.7520  170.4550  138.2480 C   0  0  0  0  0  2  0  0  0  0  0  0
  189.5680  172.4070  136.7760 C   0  0  0  0  0  2  0  0  0  0  0  0
  189.8070  171.9180  138.1530 N   0  0  1  0  0  0  0  0  0  0  0  0
  190.5400  170.2640  135.8510 C   0  0  2  0  0  3  0  0  0  0  0  0
  188.4980  173.9110  138.5760 C   0  0  0  0  0  2  0  0  0  0  0  0
  190.6260  173.7830  139.8210 F   0  0  0  0  0  0  0  0  0  0  0  0
  188.7500  172.4660  138.9950 C   0  0  2  0  0  3  0  0  0  0  0  0
  189.2600  173.6230  139.8470 C   0  0  2  0  0  0  0  0  0  0  0  0
  188.5120  173.7740  141.1600 C   0  0  0  0  0  2  0  0  0  0  0  0
  189.0850  172.8350  142.2020 C   0  0  0  0  0  2  0  0  0  0  0  0
  190.3510  173.3620  142.6840 N   0  0  0  0  0  2  0  0  0  0  0  0
  191.3910  171.6650  144.0880 C   0  0  0  0  0  1  0  0  0  0  0  0
  191.3010  172.2610  142.6980 C   0  0  0  0  0  2  0  0  0  0  0  0
  195.0760  175.3430  141.6640 C   0  0  0  0  0  2  0  0  0  0  0  0
  194.5890  176.3260  142.7140 C   0  0  0  0  0  2  0  0  0  0  0  0
  193.0900  176.4300  142.6040 C   0  0  0  0  0  2  0  0  0  0  0  0
  192.3870  176.0220  143.8610 C   0  0  0  0  0  0  0  0  0  0  0  0
  192.7940  175.0190  144.5040 O   0  0  0  0  0  0  0  0  0  0  0  0
  191.2980  176.8030  144.3580 N   0  0  0  0  0  2  0  0  0  0  0  0
  190.6380  176.4950  145.6130 C   0  0  0  0  0  2  0  0  0  0  0  0
  189.4220  175.6150  145.3760 C   0  0  0  0  0  2  0  0  0  0  0  0
  187.3480  177.0130  145.9180 N   0  0  0  0  0  0  0  0  0  0  0  0
  185.8440  176.5640  143.1920 C   0  0  0  0  0  1  0  0  0  0  0  0
  187.5060  177.7240  144.6480 C   0  0  0  0  0  2  0  0  0  0  0  0
  184.9960  178.1890  144.8710 C   0  0  1  0  0  3  0  0  0  0  0  0
  188.2060  175.4010  147.4040 O   0  0  0  0  0  0  0  0  0  0  0  0
  185.4450  178.5380  146.2910 C   0  0  0  0  0  2  0  0  0  0  0  0
  184.2550  179.2340  144.3270 O   0  0  0  0  0  1  0  0  0  0  0  0
  186.2780  177.3880  146.8490 C   0  0  0  0  0  2  0  0  0  0  0  0
  186.1630  177.8430  143.9290 C   0  0  2  0  0  3  0  0  0  0  0  0
  188.3140  176.0080  146.3010 C   0  0  0  0  0  0  0  0  0  0  0  0
  1 41  1  6  0  0  0
  1  7  1  0  0  0  0
  4 11  1  1  0  0  0
  6  2  1  6  0  0  0
  6  4  1  0  0  0  0
  7  5  2  0  0  0  0
  7 10  1  0  0  0  0
  8 13  1  6  0  0  0
  8  4  1  0  0  0  0
  8  1  1  0  0  0  0
  9  3  1  6  0  0  0
  9 12  1  0  0  0  0
  9 13  1  0  0  0  0
 10 15  1  1  0  0  0
 11 10  1  0  0  0  0
 12  6  1  0  0  0  0
 15 16  1  0  0  0  0
 15 14  1  1  0  0  0
 16 17  1  0  0  0  0
 19 17  1  0  0  0  0
 19 18  1  0  0  0  0
 20 19  1  0  0  0  0
 21  9  1  0  0  0  0
 22 21  1  0  0  0  0
 24 23  1  6  0  0  0
 24 22  1  0  0  0  0
 25 24  1  0  0  0  0
 26 31  1  0  0  0  0
 26 29  1  0  0  0  0
 27 28  1  0  0  0  0
 30 29  1  6  0  0  0
 30 28  1  0  0  0  0
 30 34  1  0  0  0  0
 31 25  1  1  0  0  0
 31 27  1  0  0  0  0
 32 35  1  0  0  0  0
 34 32  1  6  0  0  0
 34 35  1  0  0  0  0
 35 33  1  1  0  0  0
 35 36  1  0  0  0  0
 36 37  1  0  0  0  0
 37 38  1  0  0  0  0
 38 40  1  0  0  0  0
 40 39  1  0  0  0  0
 41 42  1  0  0  0  0
 43 42  1  0  0  0  0
 43 44  1  0  0  0  0
 44 46  1  0  0  0  0
 44 45  2  0  0  0  0
 46 47  1  0  0  0  0
 48 47  1  0  0  0  0
 48 58  1  0  0  0  0
 49 58  1  0  0  0  0
 49 56  1  0  0  0  0
 51 49  1  0  0  0  0
 52 55  1  6  0  0  0
 52 54  1  0  0  0  0
 54 56  1  0  0  0  0
 57 50  1  1  0  0  0
 57 51  1  0  0  0  0
 57 52  1  0  0  0  0
 58 53  2  0  0  0  0
M  END
>  <MODEL>
2

>  <REMARK>
 VINA RESULT:      -6.1      3.551     10.079
  Name = 
  21 active torsions:
  status: ('A' for Active; 'I' for Inactive)
    1  A    between atoms: C_2  and  C_39
    2  A    between atoms: C_2  and  C_56
    3  A    between atoms: C_3  and  C_23
    4  A    between atoms: C_5  and  C_15
    5  A    between atoms: C_8  and  C_18
    6  A    between atoms: C_15  and  C_45
    7  A    between atoms: C_16  and  C_17
    8  A    between atoms: C_16  and  N_27
    9  A    between atoms: C_17  and  C_51
   10  A    between atoms: C_18  and  C_36
   11  A    between atoms: C_23  and  C_45
   12  A    between atoms: C_24  and  N_32
   13  A    between atoms: O_29  and  C_42
   14  A    between atoms: O_29  and  C_46
   15  A    between atoms: N_32  and  C_39
   16  A    between atoms: C_35  and  N_49
   17  A    between atoms: C_36  and  C_58
   18  A    between atoms: C_44  and  C_58
   19  A    between atoms: C_46  and  C_50
   20  A    between atoms: C_50  and  N_57
   21  A    between atoms: C_54  and  N_57
                            x       y       z     vdW  Elec       q    Type
                         _______ _______ _______ _____ _____    ______ ____

>  <TORSDO>
F 21

$$$$
=
 OpenBabel11042419123D

 58 62  0  0  1  0  0  0  0  0999 V2000
  192.6820  174.8000  145.2190 C   0  0  2  0  0  3  0  0  0  0  0  0
  191.9350  170.8620  142.8000 C   0  0  0  0  0  1  0  0  0  0  0  0
  191.0270  174.9680  141.0750 O   0  0  0  0  0  1  0  0  0  0  0  0
  193.0930  172.8160  143.8090 C   0  0  2  0  0  3  0  0  0  0  0  0
  194.7610  175.9640  145.3590 O   0  0  0  0  0  0  0  0  0  0  0  0
  192.8170  172.0520  142.5070 C   0  0  2  0  0  3  0  0  0  0  0  0
  194.1650  174.9030  145.4610 C   0  0  0  0  0  0  0  0  0  0  0  0
  192.5050  174.2350  143.8140 C   0  0  1  0  0  3  0  0  0  0  0  0
  191.0000  173.7890  141.8290 C   0  0  1  0  0  0  0  0  0  0  0  0
  194.8990  173.5860  145.4190 C   0  0  1  0  0  3  0  0  0  0  0  0
  194.6000  172.8670  144.1010 C   0  0  0  0  0  2  0  0  0  0  0  0
  192.2280  172.9260  141.3990 C   0  0  0  0  0  2  0  0  0  0  0  0
  191.0610  174.1740  143.3250 C   0  0  0  0  0  2  0  0  0  0  0  0
  196.9860  172.2740  146.1060 C   0  0  0  0  0  1  0  0  0  0  0  0
  196.4050  173.6240  145.7150 C   0  0  1  0  0  3  0  0  0  0  0  0
  197.2220  174.2640  144.6160 C   0  0  0  0  0  2  0  0  0  0  0  0
  197.8520  173.1840  143.7420 C   0  0  0  0  0  2  0  0  0  0  0  0
  197.2680  172.3660  141.4470 C   0  0  0  0  0  1  0  0  0  0  0  0
  197.8080  173.5300  142.2580 C   0  0  0  0  0  3  0  0  0  0  0  0
  196.9750  174.7720  141.9880 C   0  0  0  0  0  1  0  0  0  0  0  0
  189.7720  173.0960  141.6150 O   0  0  0  0  0  0  0  0  0  0  0  0
  189.0170  173.7790  140.6410 C   0  0  0  0  0  2  0  0  0  0  0  0
  188.2700  174.0670  137.9580 S   0  0  0  0  0  1  0  0  0  0  0  0
  189.3090  173.2710  139.2280 C   0  0  2  0  0  3  0  0  0  0  0  0
  189.0820  171.8400  139.2000 N   0  0  0  0  0  2  0  0  0  0  0  0
  190.0270  169.7730  138.3000 C   0  0  0  0  0  2  0  0  0  0  0  0
  191.2230  172.0080  138.0290 C   0  0  0  0  0  2  0  0  0  0  0  0
  192.3910  171.0260  138.0220 C   0  0  0  0  0  2  0  0  0  0  0  0
  191.0800  169.4630  139.3800 C   0  0  0  0  0  2  0  0  0  0  0  0
  192.3510  170.2070  139.2380 N   0  0  1  0  0  0  0  0  0  0  0  0
  189.8750  171.2860  138.1100 C   0  0  2  0  0  3  0  0  0  0  0  0
  194.0060  169.0190  140.5470 C   0  0  0  0  0  2  0  0  0  0  0  0
  194.7550  171.1960  139.6580 F   0  0  0  0  0  0  0  0  0  0  0  0
  193.4220  169.2210  139.1530 C   0  0  2  0  0  3  0  0  0  0  0  0
  194.7700  169.8270  139.5270 C   0  0  2  0  0  0  0  0  0  0  0  0
  195.9420  169.1530  138.8360 C   0  0  0  0  0  2  0  0  0  0  0  0
  195.8360  169.3240  137.3340 C   0  0  0  0  0  2  0  0  0  0  0  0
  197.1360  169.6860  136.7950 N   0  0  0  0  0  2  0  0  0  0  0  0
  197.9410  171.7630  137.7820 C   0  0  0  0  0  1  0  0  0  0  0  0
  197.9140  170.2510  137.8860 C   0  0  0  0  0  2  0  0  0  0  0  0
  191.8340  176.0420  145.5520 C   0  0  0  0  0  2  0  0  0  0  0  0
  191.6590  176.3500  147.0280 C   0  0  0  0  0  2  0  0  0  0  0  0
  190.7110  175.3340  147.6120 C   0  0  0  0  0  2  0  0  0  0  0  0
  189.3370  175.4190  147.0230 C   0  0  0  0  0  0  0  0  0  0  0  0
  188.9810  174.5810  146.1530 O   0  0  0  0  0  0  0  0  0  0  0  0
  188.4180  176.4080  147.4900 N   0  0  0  0  0  2  0  0  0  0  0  0
  187.0510  176.4790  147.0090 C   0  0  0  0  0  2  0  0  0  0  0  0
  186.6980  177.9000  146.6040 C   0  0  0  0  0  2  0  0  0  0  0  0
  185.7820  178.0560  144.2200 N   0  0  0  0  0  0  0  0  0  0  0  0
  187.8330  176.0850  142.8760 C   0  0  0  0  0  1  0  0  0  0  0  0
  187.1340  178.3250  143.7270 C   0  0  0  0  0  2  0  0  0  0  0  0
  186.2460  177.4150  141.5020 C   0  0  1  0  0  3  0  0  0  0  0  0
  184.3920  177.6830  146.0830 O   0  0  0  0  0  0  0  0  0  0  0  0
  185.0950  178.3530  141.8700 C   0  0  0  0  0  2  0  0  0  0  0  0
  186.6960  177.6830  140.2130 O   0  0  0  0  0  1  0  0  0  0  0  0
  184.6430  178.0560  143.2950 C   0  0  0  0  0  2  0  0  0  0  0  0
  187.4290  177.4870  142.4840 C   0  0  2  0  0  3  0  0  0  0  0  0
  185.5560  177.8920  145.6390 C   0  0  0  0  0  0  0  0  0  0  0  0
  1  7  1  0  0  0  0
  1 41  1  6  0  0  0
  4  8  1  0  0  0  0
  4 11  1  6  0  0  0
  5  7  2  0  0  0  0
  6  2  1  1  0  0  0
  6  4  1  0  0  0  0
  8 13  1  1  0  0  0
  8  1  1  0  0  0  0
  9  3  1  6  0  0  0
  9 13  1  0  0  0  0
 10  7  1  0  0  0  0
 10 15  1  6  0  0  0
 11 10  1  0  0  0  0
 12  9  1  0  0  0  0
 12  6  1  0  0  0  0
 15 14  1  6  0  0  0
 16 15  1  0  0  0  0
 17 16  1  0  0  0  0
 18 19  1  0  0  0  0
 19 17  1  0  0  0  0
 20 19  1  0  0  0  0
 21  9  1  0  0  0  0
 22 21  1  0  0  0  0
 24 23  1  6  0  0  0
 24 22  1  0  0  0  0
 25 24  1  0  0  0  0
 26 29  1  0  0  0  0
 27 31  1  0  0  0  0
 28 27  1  0  0  0  0
 30 28  1  6  0  0  0
 30 29  1  0  0  0  0
 31 26  1  0  0  0  0
 31 25  1  1  0  0  0
 34 30  1  0  0  0  0
 34 35  1  0  0  0  0
 34 32  1  1  0  0  0
 35 33  1  1  0  0  0
 35 32  1  0  0  0  0
 36 35  1  0  0  0  0
 37 36  1  0  0  0  0
 38 37  1  0  0  0  0
 38 40  1  0  0  0  0
 39 40  1  0  0  0  0
 41 42  1  0  0  0  0
 42 43  1  0  0  0  0
 44 46  1  0  0  0  0
 44 43  1  0  0  0  0
 45 44  2  0  0  0  0
 47 46  1  0  0  0  0
 48 47  1  0  0  0  0
 49 58  1  0  0  0  0
 51 49  1  0  0  0  0
 52 55  1  6  0  0  0
 52 54  1  0  0  0  0
 52 57  1  0  0  0  0
 54 56  1  0  0  0  0
 56 49  1  0  0  0  0
 57 50  1  1  0  0  0
 57 51  1  0  0  0  0
 58 53  2  0  0  0  0
 58 48  1  0  0  0  0
M  END
>  <MODEL>
3

>  <REMARK>
 VINA RESULT:      -6.0      3.423      8.611
  Name = 
  21 active torsions:
  status: ('A' for Active; 'I' for Inactive)
    1  A    between atoms: C_2  and  C_39
    2  A    between atoms: C_2  and  C_56
    3  A    between atoms: C_3  and  C_23
    4  A    between atoms: C_5  and  C_15
    5  A    between atoms: C_8  and  C_18
    6  A    between atoms: C_15  and  C_45
    7  A    between atoms: C_16  and  C_17
    8  A    between atoms: C_16  and  N_27
    9  A    between atoms: C_17  and  C_51
   10  A    between atoms: C_18  and  C_36
   11  A    between atoms: C_23  and  C_45
   12  A    between atoms: C_24  and  N_32
   13  A    between atoms: O_29  and  C_42
   14  A    between atoms: O_29  and  C_46
   15  A    between atoms: N_32  and  C_39
   16  A    between atoms: C_35  and  N_49
   17  A    between atoms: C_36  and  C_58
   18  A    between atoms: C_44  and  C_58
   19  A    between atoms: C_46  and  C_50
   20  A    between atoms: C_50  and  N_57
   21  A    between atoms: C_54  and  N_57
                            x       y       z     vdW  Elec       q    Type
                         _______ _______ _______ _____ _____    ______ ____

>  <TORSDO>
F 21

$$$$
=
 OpenBabel11042419123D

 58 62  0  0  1  0  0  0  0  0999 V2000
  196.0750  173.4260  141.0600 C   0  0  2  0  0  3  0  0  0  0  0  0
  191.5050  173.9740  141.9120 C   0  0  0  0  0  1  0  0  0  0  0  0
  194.6990  175.8210  144.5680 O   0  0  0  0  0  1  0  0  0  0  0  0
  193.7690  174.2950  140.9370 C   0  0  2  0  0  3  0  0  0  0  0  0
  197.3750  174.7620  139.5670 O   0  0  0  0  0  0  0  0  0  0  0  0
  192.5890  174.9870  141.6330 C   0  0  2  0  0  3  0  0  0  0  0  0
  196.3680  174.0910  139.7400 C   0  0  0  0  0  0  0  0  0  0  0  0
  195.0550  174.3030  141.7760 C   0  0  1  0  0  3  0  0  0  0  0  0
  193.8470  174.9240  143.9110 C   0  0  1  0  0  0  0  0  0  0  0  0
  195.1760  174.2180  138.8250 C   0  0  1  0  0  3  0  0  0  0  0  0
  194.0320  174.9210  139.5590 C   0  0  0  0  0  2  0  0  0  0  0  0
  192.9870  175.7450  142.8990 C   0  0  0  0  0  2  0  0  0  0  0  0
  194.7210  173.8660  143.1980 C   0  0  0  0  0  2  0  0  0  0  0  0
  196.6000  174.2150  136.6980 C   0  0  0  0  0  1  0  0  0  0  0  0
  195.4280  174.8370  137.4420 C   0  0  1  0  0  3  0  0  0  0  0  0
  194.1980  174.8840  136.5670 C   0  0  0  0  0  2  0  0  0  0  0  0
  193.6950  176.3190  136.4530 C   0  0  0  0  0  2  0  0  0  0  0  0
  192.4490  177.5960  134.6950 C   0  0  0  0  0  1  0  0  0  0  0  0
  193.7230  176.8390  135.0200 C   0  0  0  0  0  3  0  0  0  0  0  0
  194.9280  177.7290  134.7610 C   0  0  0  0  0  1  0  0  0  0  0  0
  193.0310  174.2380  144.8580 O   0  0  0  0  0  0  0  0  0  0  0  0
  193.1370  174.8740  146.1110 C   0  0  0  0  0  2  0  0  0  0  0  0
  191.4890  175.4710  148.2940 S   0  0  0  0  0  1  0  0  0  0  0  0
  191.8390  175.5800  146.5080 C   0  0  2  0  0  3  0  0  0  0  0  0
  190.7470  174.9770  145.7710 N   0  0  0  0  0  2  0  0  0  0  0  0
  190.2090  177.3420  145.4720 C   0  0  0  0  0  2  0  0  0  0  0  0
  188.9060  175.5210  144.2540 C   0  0  0  0  0  2  0  0  0  0  0  0
  187.8600  176.6260  144.3740 C   0  0  0  0  0  2  0  0  0  0  0  0
  188.9780  177.4600  146.3900 C   0  0  0  0  0  2  0  0  0  0  0  0
  187.7070  177.0060  145.7830 N   0  0  1  0  0  0  0  0  0  0  0  0
  190.2630  175.9610  144.8100 C   0  0  2  0  0  3  0  0  0  0  0  0
  185.9410  177.9850  147.1200 C   0  0  0  0  0  2  0  0  0  0  0  0
  185.1860  176.3170  145.4640 F   0  0  0  0  0  0  0  0  0  0  0  0
  186.7740  178.1240  145.8500 C   0  0  2  0  0  3  0  0  0  0  0  0
  185.3260  177.6480  145.7840 C   0  0  2  0  0  0  0  0  0  0  0  0
  184.3870  178.6700  145.1690 C   0  0  0  0  0  2  0  0  0  0  0  0
  184.1150  178.3270  143.7180 C   0  0  0  0  0  2  0  0  0  0  0  0
  185.1720  178.8730  142.8840 N   0  0  0  0  0  2  0  0  0  0  0  0
  184.8660  178.3220  140.5310 C   0  0  0  0  0  1  0  0  0  0  0  0
  185.4640  177.8890  141.8550 C   0  0  0  0  0  2  0  0  0  0  0  0
  197.2880  172.9860  141.9020 C   0  0  0  0  0  2  0  0  0  0  0  0
  197.6140  171.5030  141.8730 C   0  0  0  0  0  2  0  0  0  0  0  0
  196.4160  170.7480  142.3860 C   0  0  0  0  0  2  0  0  0  0  0  0
  195.5340  170.2440  141.2860 C   0  0  0  0  0  0  0  0  0  0  0  0
  196.0160  169.4950  140.3960 O   0  0  0  0  0  0  0  0  0  0  0  0
  194.1420  170.5660  141.2810 N   0  0  0  0  0  2  0  0  0  0  0  0
  193.2320  170.0360  140.2830 C   0  0  0  0  0  2  0  0  0  0  0  0
  192.6940  171.1520  139.4020 C   0  0  0  0  0  2  0  0  0  0  0  0
  190.4570  172.2830  138.8910 N   0  0  0  0  0  0  0  0  0  0  0  0
  191.0290  172.9450  135.8690 C   0  0  0  0  0  1  0  0  0  0  0  0
  191.1740  173.4220  138.3150 C   0  0  0  0  0  2  0  0  0  0  0  0
  189.0040  173.8240  137.0120 C   0  0  1  0  0  3  0  0  0  0  0  0
  190.5970  170.2070  139.9900 O   0  0  0  0  0  0  0  0  0  0  0  0
  188.4230  173.5920  138.4080 C   0  0  0  0  0  2  0  0  0  0  0  0
  188.5200  175.0140  136.4780 O   0  0  0  0  0  1  0  0  0  0  0  0
  188.9920  172.2980  138.9790 C   0  0  0  0  0  2  0  0  0  0  0  0
  190.5430  173.8380  136.9870 C   0  0  2  0  0  3  0  0  0  0  0  0
  191.2010  171.1860  139.4690 C   0  0  0  0  0  0  0  0  0  0  0  0
  1  8  1  0  0  0  0
  1 41  1  1  0  0  0
  4 11  1  6  0  0  0
  4  6  1  0  0  0  0
  4  8  1  0  0  0  0
  5  7  2  0  0  0  0
  6  2  1  1  0  0  0
  6 12  1  0  0  0  0
  7  1  1  0  0  0  0
  8 13  1  1  0  0  0
  9  3  1  1  0  0  0
  9 21  1  0  0  0  0
 10 15  1  6  0  0  0
 10 11  1  0  0  0  0
 10  7  1  0  0  0  0
 12  9  1  0  0  0  0
 13  9  1  0  0  0  0
 15 14  1  6  0  0  0
 16 15  1  0  0  0  0
 17 16  1  0  0  0  0
 18 19  1  0  0  0  0
 19 17  1  0  0  0  0
 20 19  1  0  0  0  0
 21 22  1  0  0  0  0
 22 24  1  0  0  0  0
 24 23  1  1  0  0  0
 25 24  1  0  0  0  0
 26 29  1  0  0  0  0
 27 28  1  0  0  0  0
 27 31  1  0  0  0  0
 30 28  1  6  0  0  0
 30 34  1  0  0  0  0
 30 29  1  0  0  0  0
 31 26  1  0  0  0  0
 31 25  1  1  0  0  0
 34 32  1  1  0  0  0
 35 33  1  6  0  0  0
 35 34  1  0  0  0  0
 35 32  1  0  0  0  0
 36 35  1  0  0  0  0
 37 36  1  0  0  0  0
 38 37  1  0  0  0  0
 39 40  1  0  0  0  0
 40 38  1  0  0  0  0
 42 41  1  0  0  0  0
 42 43  1  0  0  0  0
 44 43  1  0  0  0  0
 45 44  2  0  0  0  0
 46 44  1  0  0  0  0
 47 46  1  0  0  0  0
 48 58  1  0  0  0  0
 48 47  1  0  0  0  0
 49 56  1  0  0  0  0
 49 58  1  0  0  0  0
 51 49  1  0  0  0  0
 52 55  1  1  0  0  0
 52 54  1  0  0  0  0
 54 56  1  0  0  0  0
 57 50  1  6  0  0  0
 57 52  1  0  0  0  0
 57 51  1  0  0  0  0
 58 53  2  0  0  0  0
M  END
>  <MODEL>
4

>  <REMARK>
 VINA RESULT:      -5.9      3.508      8.978
  Name = 
  21 active torsions:
  status: ('A' for Active; 'I' for Inactive)
    1  A    between atoms: C_2  and  C_39
    2  A    between atoms: C_2  and  C_56
    3  A    between atoms: C_3  and  C_23
    4  A    between atoms: C_5  and  C_15
    5  A    between atoms: C_8  and  C_18
    6  A    between atoms: C_15  and  C_45
    7  A    between atoms: C_16  and  C_17
    8  A    between atoms: C_16  and  N_27
    9  A    between atoms: C_17  and  C_51
   10  A    between atoms: C_18  and  C_36
   11  A    between atoms: C_23  and  C_45
   12  A    between atoms: C_24  and  N_32
   13  A    between atoms: O_29  and  C_42
   14  A    between atoms: O_29  and  C_46
   15  A    between atoms: N_32  and  C_39
   16  A    between atoms: C_35  and  N_49
   17  A    between atoms: C_36  and  C_58
   18  A    between atoms: C_44  and  C_58
   19  A    between atoms: C_46  and  C_50
   20  A    between atoms: C_50  and  N_57
   21  A    between atoms: C_54  and  N_57
                            x       y       z     vdW  Elec       q    Type
                         _______ _______ _______ _____ _____    ______ ____

>  <TORSDO>
F 21

$$$$
=
 OpenBabel11042419123D

 58 62  0  0  1  0  0  0  0  0999 V2000
  195.8220  173.8210  141.8140 C   0  0  2  0  0  3  0  0  0  0  0  0
  195.3430  169.5290  140.0090 C   0  0  0  0  0  1  0  0  0  0  0  0
  197.5960  172.8270  137.8400 O   0  0  0  0  0  1  0  0  0  0  0  0
  196.2010  171.4240  141.3700 C   0  0  2  0  0  3  0  0  0  0  0  0
  197.5100  174.4910  143.3630 O   0  0  0  0  0  0  0  0  0  0  0  0
  196.5770  170.3180  140.3740 C   0  0  2  0  0  3  0  0  0  0  0  0
  196.6340  173.6890  143.0760 C   0  0  0  0  0  0  0  0  0  0  0  0
  196.4100  172.8380  140.8090 C   0  0  1  0  0  3  0  0  0  0  0  0
  196.5980  172.0340  138.4170 C   0  0  1  0  0  0  0  0  0  0  0  0
  196.5830  172.3240  143.7130 C   0  0  1  0  0  3  0  0  0  0  0  0
  196.9740  171.2570  142.6860 C   0  0  0  0  0  2  0  0  0  0  0  0
  197.2990  170.8350  139.1300 C   0  0  0  0  0  2  0  0  0  0  0  0
  195.8020  172.9110  139.4120 C   0  0  0  0  0  2  0  0  0  0  0  0
  196.7840  172.9710  146.1810 C   0  0  0  0  0  1  0  0  0  0  0  0
  197.3480  172.1470  145.0330 C   0  0  1  0  0  3  0  0  0  0  0  0
  197.5230  170.7030  145.4420 C   0  0  0  0  0  2  0  0  0  0  0  0
  196.1750  170.1060  145.8300 C   0  0  0  0  0  2  0  0  0  0  0  0
  197.7130  168.4540  146.9180 C   0  0  0  0  0  1  0  0  0  0  0  0
  196.3010  168.7060  146.4220 C   0  0  0  0  0  3  0  0  0  0  0  0
  195.3120  168.4750  147.5520 C   0  0  0  0  0  1  0  0  0  0  0  0
  195.6850  171.5860  137.4160 O   0  0  0  0  0  0  0  0  0  0  0  0
  196.3290  170.6460  136.5880 C   0  0  0  0  0  2  0  0  0  0  0  0
  196.2400  168.1660  135.2900 S   0  0  0  0  0  1  0  0  0  0  0  0
  195.3810  169.5310  136.1410 C   0  0  2  0  0  3  0  0  0  0  0  0
  194.3920  170.1020  135.2480 N   0  0  0  0  0  2  0  0  0  0  0  0
  192.0750  170.8250  135.5350 C   0  0  0  0  0  2  0  0  0  0  0  0
  193.1710  169.2020  137.1680 C   0  0  0  0  0  2  0  0  0  0  0  0
  192.1420  169.8930  138.0580 C   0  0  0  0  0  2  0  0  0  0  0  0
  192.2560  171.8860  136.6360 C   0  0  0  0  0  2  0  0  0  0  0  0
  192.3470  171.3440  138.0110 N   0  0  1  0  0  0  0  0  0  0  0  0
  193.0770  169.6800  135.7160 C   0  0  2  0  0  3  0  0  0  0  0  0
  191.8600  173.2270  139.4540 C   0  0  0  0  0  2  0  0  0  0  0  0
  192.7290  171.2280  140.6130 F   0  0  0  0  0  0  0  0  0  0  0  0
  191.2910  171.9750  138.7940 C   0  0  2  0  0  3  0  0  0  0  0  0
  191.6300  171.9850  140.2810 C   0  0  2  0  0  0  0  0  0  0  0  0
  190.4030  171.9590  141.1740 C   0  0  0  0  0  2  0  0  0  0  0  0
  190.8140  171.9980  142.6330 C   0  0  0  0  0  2  0  0  0  0  0  0
  190.0230  172.9960  143.3320 N   0  0  0  0  0  2  0  0  0  0  0  0
  189.7800  173.7670  145.6300 C   0  0  0  0  0  1  0  0  0  0  0  0
  189.9070  172.5650  144.7160 C   0  0  0  0  0  2  0  0  0  0  0  0
  195.5780  175.2490  141.2890 C   0  0  0  0  0  2  0  0  0  0  0  0
  194.4270  176.0050  141.9310 C   0  0  0  0  0  2  0  0  0  0  0  0
  193.4810  175.0000  142.5340 C   0  0  0  0  0  2  0  0  0  0  0  0
  192.3700  175.6410  143.3070 C   0  0  0  0  0  0  0  0  0  0  0  0
  192.4820  175.7870  144.5520 O   0  0  0  0  0  0  0  0  0  0  0  0
  191.2170  176.1370  142.6240 N   0  0  0  0  0  2  0  0  0  0  0  0
  190.1520  176.8370  143.3170 C   0  0  0  0  0  2  0  0  0  0  0  0
  188.7930  176.3460  142.8470 C   0  0  0  0  0  2  0  0  0  0  0  0
  186.6860  177.7300  143.2860 N   0  0  0  0  0  0  0  0  0  0  0  0
  186.9530  177.8770  146.4180 C   0  0  0  0  0  1  0  0  0  0  0  0
  186.2670  176.7550  144.2950 C   0  0  0  0  0  2  0  0  0  0  0  0
  184.9100  178.7010  145.2660 C   0  0  1  0  0  3  0  0  0  0  0  0
  188.2680  178.3270  141.6490 O   0  0  0  0  0  0  0  0  0  0  0  0
  184.5470  178.8510  143.7880 C   0  0  0  0  0  2  0  0  0  0  0  0
  183.7590  178.6540  146.0450 O   0  0  0  0  0  1  0  0  0  0  0  0
  185.8250  178.8710  142.9560 C   0  0  0  0  0  2  0  0  0  0  0  0
  185.7810  177.4660  145.5580 C   0  0  2  0  0  3  0  0  0  0  0  0
  187.9040  177.5080  142.5390 C   0  0  0  0  0  0  0  0  0  0  0  0
  1 41  1  6  0  0  0
  1  7  1  0  0  0  0
  4 11  1  1  0  0  0
  6  2  1  6  0  0  0
  6  4  1  0  0  0  0
  7  5  2  0  0  0  0
  7 10  1  0  0  0  0
  8 13  1  6  0  0  0
  8  4  1  0  0  0  0
  8  1  1  0  0  0  0
  9  3  1  6  0  0  0
  9 12  1  0  0  0  0
  9 13  1  0  0  0  0
 10 15  1  1  0  0  0
 11 10  1  0  0  0  0
 12  6  1  0  0  0  0
 15 16  1  0  0  0  0
 15 14  1  1  0  0  0
 16 17  1  0  0  0  0
 17 19  1  0  0  0  0
 19 18  1  0  0  0  0
 19 20  1  0  0  0  0
 21  9  1  0  0  0  0
 22 21  1  0  0  0  0
 24 23  1  6  0  0  0
 24 22  1  0  0  0  0
 25 24  1  0  0  0  0
 26 31  1  0  0  0  0
 26 29  1  0  0  0  0
 27 28  1  0  0  0  0
 30 29  1  6  0  0  0
 30 28  1  0  0  0  0
 30 34  1  0  0  0  0
 31 25  1  1  0  0  0
 31 27  1  0  0  0  0
 32 35  1  0  0  0  0
 34 32  1  6  0  0  0
 34 35  1  0  0  0  0
 35 33  1  1  0  0  0
 35 36  1  0  0  0  0
 36 37  1  0  0  0  0
 37 38  1  0  0  0  0
 38 40  1  0  0  0  0
 40 39  1  0  0  0  0
 41 42  1  0  0  0  0
 42 43  1  0  0  0  0
 43 44  1  0  0  0  0
 44 45  2  0  0  0  0
 46 44  1  0  0  0  0
 46 47  1  0  0  0  0
 48 47  1  0  0  0  0
 49 51  1  0  0  0  0
 51 57  1  0  0  0  0
 52 57  1  0  0  0  0
 52 55  1  1  0  0  0
 53 58  2  0  0  0  0
 54 52  1  0  0  0  0
 56 49  1  0  0  0  0
 56 54  1  0  0  0  0
 57 50  1  6  0  0  0
 58 48  1  0  0  0  0
 58 49  1  0  0  0  0
M  END
>  <MODEL>
5

>  <REMARK>
 VINA RESULT:      -5.9      3.657     10.111
  Name = 
  21 active torsions:
  status: ('A' for Active; 'I' for Inactive)
    1  A    between atoms: C_2  and  C_39
    2  A    between atoms: C_2  and  C_56
    3  A    between atoms: C_3  and  C_23
    4  A    between atoms: C_5  and  C_15
    5  A    between atoms: C_8  and  C_18
    6  A    between atoms: C_15  and  C_45
    7  A    between atoms: C_16  and  C_17
    8  A    between atoms: C_16  and  N_27
    9  A    between atoms: C_17  and  C_51
   10  A    between atoms: C_18  and  C_36
   11  A    between atoms: C_23  and  C_45
   12  A    between atoms: C_24  and  N_32
   13  A    between atoms: O_29  and  C_42
   14  A    between atoms: O_29  and  C_46
   15  A    between atoms: N_32  and  C_39
   16  A    between atoms: C_35  and  N_49
   17  A    between atoms: C_36  and  C_58
   18  A    between atoms: C_44  and  C_58
   19  A    between atoms: C_46  and  C_50
   20  A    between atoms: C_50  and  N_57
   21  A    between atoms: C_54  and  N_57
                            x       y       z     vdW  Elec       q    Type
                         _______ _______ _______ _____ _____    ______ ____

>  <TORSDO>
F 21

$$$$
=
 OpenBabel11042419123D

 58 62  0  0  1  0  0  0  0  0999 V2000
  192.6870  174.9830  145.6670 C   0  0  2  0  0  3  0  0  0  0  0  0
  191.3940  171.8440  142.4440 C   0  0  0  0  0  1  0  0  0  0  0  0
  194.5680  170.9350  145.5690 O   0  0  0  0  0  1  0  0  0  0  0  0
  191.4010  173.2210  144.5130 C   0  0  2  0  0  3  0  0  0  0  0  0
  191.5820  175.3640  147.7490 O   0  0  0  0  0  0  0  0  0  0  0  0
  191.3420  171.7940  143.9520 C   0  0  2  0  0  3  0  0  0  0  0  0
  191.4860  175.2550  146.5360 C   0  0  0  0  0  0  0  0  0  0  0  0
  192.6650  173.4940  145.3410 C   0  0  1  0  0  3  0  0  0  0  0  0
  193.8700  171.4470  144.4690 C   0  0  1  0  0  0  0  0  0  0  0  0
  190.1600  174.9660  145.8780 C   0  0  1  0  0  3  0  0  0  0  0  0
  190.1470  173.5310  145.3440 C   0  0  0  0  0  2  0  0  0  0  0  0
  192.4200  170.8700  144.5200 C   0  0  0  0  0  2  0  0  0  0  0  0
  193.8800  172.9900  144.5690 C   0  0  0  0  0  2  0  0  0  0  0  0
  188.5740  174.2220  147.7440 C   0  0  0  0  0  1  0  0  0  0  0  0
  188.8990  175.2780  146.6980 C   0  0  1  0  0  3  0  0  0  0  0  0
  188.9020  176.6590  147.3100 C   0  0  0  0  0  2  0  0  0  0  0  0
  187.8340  177.5230  146.6460 C   0  0  0  0  0  2  0  0  0  0  0  0
  186.0160  179.0190  147.5040 C   0  0  0  0  0  1  0  0  0  0  0  0
  186.5480  177.5980  147.4630 C   0  0  0  0  0  3  0  0  0  0  0  0
  185.4770  176.6650  146.9240 C   0  0  0  0  0  1  0  0  0  0  0  0
  194.5330  171.0920  143.2570 O   0  0  0  0  0  0  0  0  0  0  0  0
  195.4120  170.0190  143.5050 C   0  0  0  0  0  2  0  0  0  0  0  0
  197.9090  168.8300  143.0680 S   0  0  0  0  0  1  0  0  0  0  0  0
  196.6700  170.0970  142.6370 C   0  0  2  0  0  3  0  0  0  0  0  0
  197.2570  171.4120  142.7990 N   0  0  0  0  0  2  0  0  0  0  0  0
  197.2670  173.4670  141.4750 C   0  0  0  0  0  2  0  0  0  0  0  0
  196.6380  171.2230  140.4400 C   0  0  0  0  0  2  0  0  0  0  0  0
  195.8430  172.1990  139.5770 C   0  0  0  0  0  2  0  0  0  0  0  0
  195.7590  173.7800  141.4490 C   0  0  0  0  0  2  0  0  0  0  0  0
  194.9880  173.0280  140.4340 N   0  0  1  0  0  0  0  0  0  0  0  0
  197.5060  171.9530  141.4690 C   0  0  2  0  0  3  0  0  0  0  0  0
  193.0280  174.4410  140.2790 C   0  0  0  0  0  2  0  0  0  0  0  0
  192.7400  172.1650  139.3700 F   0  0  0  0  0  0  0  0  0  0  0  0
  194.3170  174.0090  139.5880 C   0  0  2  0  0  3  0  0  0  0  0  0
  192.9650  173.4950  139.1040 C   0  0  2  0  0  0  0  0  0  0  0  0
  192.5510  174.0730  137.7630 C   0  0  0  0  0  2  0  0  0  0  0  0
  191.1280  173.6680  137.4330 C   0  0  0  0  0  2  0  0  0  0  0  0
  190.4300  173.3130  138.6570 N   0  0  0  0  0  2  0  0  0  0  0  0
  188.1550  172.7200  139.2950 C   0  0  0  0  0  1  0  0  0  0  0  0
  189.2630  172.5320  138.2790 C   0  0  0  0  0  2  0  0  0  0  0  0
  194.0380  175.5420  146.1530 C   0  0  0  0  0  2  0  0  0  0  0  0
  194.7010  176.5600  145.2420 C   0  0  0  0  0  2  0  0  0  0  0  0
  193.6850  177.6180  144.8980 C   0  0  0  0  0  2  0  0  0  0  0  0
  192.7530  177.1920  143.8060 C   0  0  0  0  0  0  0  0  0  0  0  0
  193.1830  176.4740  142.8660 O   0  0  0  0  0  0  0  0  0  0  0  0
  191.3710  177.5510  143.8660 N   0  0  0  0  0  2  0  0  0  0  0  0
  190.4130  177.0950  142.8750 C   0  0  0  0  0  2  0  0  0  0  0  0
  189.0120  177.5640  143.2310 C   0  0  0  0  0  2  0  0  0  0  0  0
  186.8460  177.8430  141.8960 N   0  0  0  0  0  0  0  0  0  0  0  0
  185.1320  179.1440  144.1910 C   0  0  0  0  0  1  0  0  0  0  0  0
  186.1060  177.1920  142.9780 C   0  0  0  0  0  2  0  0  0  0  0  0
  184.0880  178.4630  142.0410 C   0  0  1  0  0  3  0  0  0  0  0  0
  188.9390  178.5250  141.0610 O   0  0  0  0  0  0  0  0  0  0  0  0
  184.6700  177.9140  140.7370 C   0  0  0  0  0  2  0  0  0  0  0  0
  182.7380  178.1430  142.1400 O   0  0  0  0  0  1  0  0  0  0  0  0
  186.1550  178.2550  140.6690 C   0  0  0  0  0  2  0  0  0  0  0  0
  184.8270  177.9660  143.2960 C   0  0  2  0  0  3  0  0  0  0  0  0
  188.2820  177.9860  141.9960 C   0  0  0  0  0  0  0  0  0  0  0  0
  1 41  1  1  0  0  0
  1  7  1  0  0  0  0
  4  8  1  0  0  0  0
  4 11  1  1  0  0  0
  6  2  1  6  0  0  0
  6  4  1  0  0  0  0
  6 12  1  0  0  0  0
  7  5  2  0  0  0  0
  8 13  1  6  0  0  0
  8  1  1  0  0  0  0
  9 12  1  0  0  0  0
  9 13  1  0  0  0  0
  9  3  1  1  0  0  0
 10  7  1  0  0  0  0
 10 15  1  1  0  0  0
 11 10  1  0  0  0  0
 15 16  1  0  0  0  0
 15 14  1  1  0  0  0
 17 16  1  0  0  0  0
 17 19  1  0  0  0  0
 19 18  1  0  0  0  0
 20 19  1  0  0  0  0
 21 22  1  0  0  0  0
 21  9  1  0  0  0  0
 24 25  1  0  0  0  0
 24 23  1  1  0  0  0
 24 22  1  0  0  0  0
 27 31  1  0  0  0  0
 28 27  1  0  0  0  0
 29 26  1  0  0  0  0
 30 28  1  6  0  0  0
 30 29  1  0  0  0  0
 31 26  1  0  0  0  0
 31 25  1  1  0  0  0
 34 32  1  1  0  0  0
 34 30  1  0  0  0  0
 35 33  1  1  0  0  0
 35 34  1  0  0  0  0
 35 32  1  0  0  0  0
 36 35  1  0  0  0  0
 37 36  1  0  0  0  0
 37 38  1  0  0  0  0
 40 38  1  0  0  0  0
 40 39  1  0  0  0  0
 42 41  1  0  0  0  0
 43 42  1  0  0  0  0
 44 46  1  0  0  0  0
 44 43  1  0  0  0  0
 45 44  2  0  0  0  0
 47 48  1  0  0  0  0
 47 46  1  0  0  0  0
 49 58  1  0  0  0  0
 49 51  1  0  0  0  0
 51 57  1  0  0  0  0
 52 55  1  1  0  0  0
 52 57  1  0  0  0  0
 53 58  2  0  0  0  0
 54 52  1  0  0  0  0
 56 54  1  0  0  0  0
 56 49  1  0  0  0  0
 57 50  1  1  0  0  0
 58 48  1  0  0  0  0
M  END
>  <MODEL>
6

>  <REMARK>
 VINA RESULT:      -5.8      3.037      6.504
  Name = 
  21 active torsions:
  status: ('A' for Active; 'I' for Inactive)
    1  A    between atoms: C_2  and  C_39
    2  A    between atoms: C_2  and  C_56
    3  A    between atoms: C_3  and  C_23
    4  A    between atoms: C_5  and  C_15
    5  A    between atoms: C_8  and  C_18
    6  A    between atoms: C_15  and  C_45
    7  A    between atoms: C_16  and  C_17
    8  A    between atoms: C_16  and  N_27
    9  A    between atoms: C_17  and  C_51
   10  A    between atoms: C_18  and  C_36
   11  A    between atoms: C_23  and  C_45
   12  A    between atoms: C_24  and  N_32
   13  A    between atoms: O_29  and  C_42
   14  A    between atoms: O_29  and  C_46
   15  A    between atoms: N_32  and  C_39
   16  A    between atoms: C_35  and  N_49
   17  A    between atoms: C_36  and  C_58
   18  A    between atoms: C_44  and  C_58
   19  A    between atoms: C_46  and  C_50
   20  A    between atoms: C_50  and  N_57
   21  A    between atoms: C_54  and  N_57
                            x       y       z     vdW  Elec       q    Type
                         _______ _______ _______ _____ _____    ______ ____

>  <TORSDO>
F 21

$$$$
=
 OpenBabel11042419123D

 58 62  0  0  1  0  0  0  0  0999 V2000
  196.5340  174.2710  143.1920 C   0  0  2  0  0  3  0  0  0  0  0  0
  191.8620  174.5540  143.3230 C   0  0  0  0  0  1  0  0  0  0  0  0
  194.5210  177.2610  145.8280 O   0  0  0  0  0  1  0  0  0  0  0  0
  194.2160  174.8610  142.5830 C   0  0  2  0  0  3  0  0  0  0  0  0
  197.9410  175.3480  141.5930 O   0  0  0  0  0  0  0  0  0  0  0  0
  192.9070  175.5770  142.9430 C   0  0  2  0  0  3  0  0  0  0  0  0
  196.9670  174.6400  141.7970 C   0  0  0  0  0  0  0  0  0  0  0  0
  195.3670  175.1860  143.5470 C   0  0  1  0  0  3  0  0  0  0  0  0
  193.8310  176.1600  145.3060 C   0  0  1  0  0  0  0  0  0  0  0  0
  195.9110  174.4390  140.7400 C   0  0  1  0  0  3  0  0  0  0  0  0
  194.6300  175.1770  141.1380 C   0  0  0  0  0  2  0  0  0  0  0  0
  193.0710  176.6400  144.0300 C   0  0  0  0  0  2  0  0  0  0  0  0
  194.8640  175.0560  144.9810 C   0  0  0  0  0  2  0  0  0  0  0  0
  197.7820  174.4760  138.9950 C   0  0  0  0  0  1  0  0  0  0  0  0
  196.3150  174.7460  139.2910 C   0  0  1  0  0  3  0  0  0  0  0  0
  195.4280  174.0850  138.2620 C   0  0  0  0  0  2  0  0  0  0  0  0
  194.6880  175.1460  137.4550 C   0  0  0  0  0  2  0  0  0  0  0  0
  192.5350  175.7170  136.3090 C   0  0  0  0  0  1  0  0  0  0  0  0
  193.4540  174.5940  136.7490 C   0  0  0  0  0  3  0  0  0  0  0  0
  193.8210  173.7320  135.5520 C   0  0  0  0  0  1  0  0  0  0  0  0
  192.9350  175.6330  146.2820 O   0  0  0  0  0  0  0  0  0  0  0  0
  192.9750  176.4420  147.4350 C   0  0  0  0  0  2  0  0  0  0  0  0
  191.5560  177.8350  149.4070 S   0  0  0  0  0  1  0  0  0  0  0  0
  191.6040  177.0330  147.7700 C   0  0  2  0  0  3  0  0  0  0  0  0
  190.6250  175.9640  147.7340 N   0  0  0  0  0  2  0  0  0  0  0  0
  189.8180  177.5480  146.0550 C   0  0  0  0  0  2  0  0  0  0  0  0
  188.5100  175.4350  146.6240 C   0  0  0  0  0  2  0  0  0  0  0  0
  187.3980  176.3810  146.1810 C   0  0  0  0  0  2  0  0  0  0  0  0
  188.7550  178.2990  146.8790 C   0  0  0  0  0  2  0  0  0  0  0  0
  187.4490  177.6090  146.9810 N   0  0  1  0  0  0  0  0  0  0  0  0
  189.8920  176.0770  146.4780 C   0  0  2  0  0  3  0  0  0  0  0  0
  185.5510  178.9660  147.6280 C   0  0  0  0  0  2  0  0  0  0  0  0
  185.0030  176.6360  147.0270 F   0  0  0  0  0  0  0  0  0  0  0  0
  186.4370  178.5250  146.4680 C   0  0  2  0  0  3  0  0  0  0  0  0
  185.0320  177.9540  146.6360 C   0  0  2  0  0  0  0  0  0  0  0  0
  184.0570  178.4460  145.5820 C   0  0  0  0  0  2  0  0  0  0  0  0
  184.7970  179.1840  144.4840 C   0  0  0  0  0  2  0  0  0  0  0  0
  184.3970  178.6550  143.1910 N   0  0  0  0  0  2  0  0  0  0  0  0
  185.9330  176.7870  142.8950 C   0  0  0  0  0  1  0  0  0  0  0  0
  185.6050  178.2160  142.5110 C   0  0  0  0  0  2  0  0  0  0  0  0
  197.6410  174.1550  144.2570 C   0  0  0  0  0  2  0  0  0  0  0  0
  197.9220  172.7550  144.7730 C   0  0  0  0  0  2  0  0  0  0  0  0
  196.8390  172.3860  145.7530 C   0  0  0  0  0  2  0  0  0  0  0  0
  196.0150  171.2220  145.2950 C   0  0  0  0  0  0  0  0  0  0  0  0
  196.5610  170.0990  145.1370 O   0  0  0  0  0  0  0  0  0  0  0  0
  194.6090  171.3750  145.0970 N   0  0  0  0  0  2  0  0  0  0  0  0
  193.7560  170.2590  144.7320 C   0  0  0  0  0  2  0  0  0  0  0  0
  192.6140  170.7250  143.8450 C   0  0  0  0  0  2  0  0  0  0  0  0
  191.5720  170.0850  141.5970 N   0  0  0  0  0  0  0  0  0  0  0  0
  192.3720  172.6930  140.0310 C   0  0  0  0  0  1  0  0  0  0  0  0
  190.8920  171.3810  141.5530 C   0  0  0  0  0  2  0  0  0  0  0  0
  190.8550  171.0060  139.0180 C   0  0  1  0  0  3  0  0  0  0  0  0
  192.9570  168.6170  142.8080 O   0  0  0  0  0  0  0  0  0  0  0  0
  190.3820  169.6280  139.4850 C   0  0  0  0  0  2  0  0  0  0  0  0
  189.9730  171.5270  138.0760 O   0  0  0  0  0  1  0  0  0  0  0  0
  191.3510  169.0960  140.5360 C   0  0  0  0  0  2  0  0  0  0  0  0
  191.0310  172.0130  140.1690 C   0  0  2  0  0  3  0  0  0  0  0  0
  192.3820  169.7400  142.7440 C   0  0  0  0  0  0  0  0  0  0  0  0
  1  8  1  0  0  0  0
  1 41  1  1  0  0  0
  4 11  1  6  0  0  0
  4  6  1  0  0  0  0
  4  8  1  0  0  0  0
  5  7  2  0  0  0  0
  6  2  1  1  0  0  0
  6 12  1  0  0  0  0
  7  1  1  0  0  0  0
  8 13  1  1  0  0  0
  9  3  1  1  0  0  0
  9 21  1  0  0  0  0
 10 15  1  6  0  0  0
 10 11  1  0  0  0  0
 10  7  1  0  0  0  0
 12  9  1  0  0  0  0
 13  9  1  0  0  0  0
 15 14  1  6  0  0  0
 16 15  1  0  0  0  0
 17 16  1  0  0  0  0
 18 19  1  0  0  0  0
 19 17  1  0  0  0  0
 20 19  1  0  0  0  0
 21 22  1  0  0  0  0
 22 24  1  0  0  0  0
 24 23  1  1  0  0  0
 25 24  1  0  0  0  0
 26 31  1  0  0  0  0
 26 29  1  0  0  0  0
 28 27  1  0  0  0  0
 29 30  1  0  0  0  0
 30 28  1  6  0  0  0
 31 27  1  0  0  0  0
 31 25  1  1  0  0  0
 34 35  1  0  0  0  0
 34 30  1  0  0  0  0
 34 32  1  1  0  0  0
 35 33  1  1  0  0  0
 35 32  1  0  0  0  0
 36 35  1  0  0  0  0
 37 36  1  0  0  0  0
 38 37  1  0  0  0  0
 40 39  1  0  0  0  0
 40 38  1  0  0  0  0
 41 42  1  0  0  0  0
 42 43  1  0  0  0  0
 44 43  1  0  0  0  0
 45 44  2  0  0  0  0
 46 44  1  0  0  0  0
 47 46  1  0  0  0  0
 48 47  1  0  0  0  0
 49 58  1  0  0  0  0
 51 49  1  0  0  0  0
 52 55  1  6  0  0  0
 52 54  1  0  0  0  0
 52 57  1  0  0  0  0
 54 56  1  0  0  0  0
 56 49  1  0  0  0  0
 57 50  1  1  0  0  0
 57 51  1  0  0  0  0
 58 53  2  0  0  0  0
 58 48  1  0  0  0  0
M  END
>  <MODEL>
7

>  <REMARK>
 VINA RESULT:      -5.7      3.775      9.366
  Name = 
  21 active torsions:
  status: ('A' for Active; 'I' for Inactive)
    1  A    between atoms: C_2  and  C_39
    2  A    between atoms: C_2  and  C_56
    3  A    between atoms: C_3  and  C_23
    4  A    between atoms: C_5  and  C_15
    5  A    between atoms: C_8  and  C_18
    6  A    between atoms: C_15  and  C_45
    7  A    between atoms: C_16  and  C_17
    8  A    between atoms: C_16  and  N_27
    9  A    between atoms: C_17  and  C_51
   10  A    between atoms: C_18  and  C_36
   11  A    between atoms: C_23  and  C_45
   12  A    between atoms: C_24  and  N_32
   13  A    between atoms: O_29  and  C_42
   14  A    between atoms: O_29  and  C_46
   15  A    between atoms: N_32  and  C_39
   16  A    between atoms: C_35  and  N_49
   17  A    between atoms: C_36  and  C_58
   18  A    between atoms: C_44  and  C_58
   19  A    between atoms: C_46  and  C_50
   20  A    between atoms: C_50  and  N_57
   21  A    between atoms: C_54  and  N_57
                            x       y       z     vdW  Elec       q    Type
                         _______ _______ _______ _____ _____    ______ ____

>  <TORSDO>
F 21

$$$$
=
 OpenBabel11042419123D

 58 62  0  0  1  0  0  0  0  0999 V2000
  188.6430  173.4940  141.4310 C   0  0  2  0  0  3  0  0  0  0  0  0
  186.0040  177.3530  141.1940 C   0  0  0  0  0  1  0  0  0  0  0  0
  189.9650  177.2660  143.4220 O   0  0  0  0  0  1  0  0  0  0  0  0
  187.6310  175.5770  140.5800 C   0  0  2  0  0  3  0  0  0  0  0  0
  190.2240  172.7950  139.7850 O   0  0  0  0  0  0  0  0  0  0  0  0
  187.4170  177.0890  140.7320 C   0  0  2  0  0  3  0  0  0  0  0  0
  189.0860  173.1660  140.0290 C   0  0  0  0  0  0  0  0  0  0  0  0
  188.6720  175.0130  141.5580 C   0  0  1  0  0  3  0  0  0  0  0  0
  188.6350  177.0680  143.0330 C   0  0  1  0  0  0  0  0  0  0  0  0
  188.1920  173.7160  138.9460 C   0  0  1  0  0  3  0  0  0  0  0  0
  188.0160  175.2250  139.1350 C   0  0  0  0  0  2  0  0  0  0  0  0
  188.4400  177.7620  141.6480 C   0  0  0  0  0  2  0  0  0  0  0  0
  188.3780  175.5450  142.9560 C   0  0  0  0  0  2  0  0  0  0  0  0
  189.6090  174.2920  136.8940 C   0  0  0  0  0  1  0  0  0  0  0  0
  188.5640  173.3650  137.4980 C   0  0  1  0  0  3  0  0  0  0  0  0
  188.9540  171.9180  137.3070 C   0  0  0  0  0  2  0  0  0  0  0  0
  189.8700  171.7820  136.0950 C   0  0  0  0  0  2  0  0  0  0  0  0
  192.2090  170.8860  136.0990 C   0  0  0  0  0  1  0  0  0  0  0  0
  190.7360  170.5280  136.1510 C   0  0  0  0  0  3  0  0  0  0  0  0
  190.4530  169.6970  137.3920 C   0  0  0  0  0  1  0  0  0  0  0  0
  187.7500  177.6030  144.0150 O   0  0  0  0  0  0  0  0  0  0  0  0
  188.4680  177.8490  145.2030 C   0  0  0  0  0  2  0  0  0  0  0  0
  186.6400  176.8000  147.0470 S   0  0  0  0  0  1  0  0  0  0  0  0
  188.2710  176.7350  146.2330 C   0  0  2  0  0  3  0  0  0  0  0  0
  189.3090  176.8530  147.2380 N   0  0  0  0  0  2  0  0  0  0  0  0
  191.4360  175.7670  147.7590 C   0  0  0  0  0  2  0  0  0  0  0  0
  189.8470  174.8050  146.0130 C   0  0  0  0  0  2  0  0  0  0  0  0
  191.2020  174.3220  145.5020 C   0  0  0  0  0  2  0  0  0  0  0  0
  192.2860  176.2450  146.5670 C   0  0  0  0  0  2  0  0  0  0  0  0
  192.0970  175.4700  145.3200 N   0  0  1  0  0  0  0  0  0  0  0  0
  189.9770  175.5610  147.3380 C   0  0  2  0  0  3  0  0  0  0  0  0
  194.2040  176.1120  144.3150 C   0  0  0  0  0  2  0  0  0  0  0  0
  192.4690  175.3860  142.7150 F   0  0  0  0  0  0  0  0  0  0  0  0
  193.4060  174.9640  144.9250 C   0  0  2  0  0  3  0  0  0  0  0  0
  193.6060  175.0570  143.4160 C   0  0  2  0  0  0  0  0  0  0  0  0
  194.5420  173.9920  142.8700 C   0  0  0  0  0  2  0  0  0  0  0  0
  194.5880  172.8030  143.8080 C   0  0  0  0  0  2  0  0  0  0  0  0
  195.9630  172.5510  144.2040 N   0  0  0  0  0  2  0  0  0  0  0  0
  197.1900  173.3930  146.1320 C   0  0  0  0  0  1  0  0  0  0  0  0
  196.0070  172.5750  145.6570 C   0  0  0  0  0  2  0  0  0  0  0  0
  189.3200  172.7150  142.5750 C   0  0  0  0  0  2  0  0  0  0  0  0
  190.8380  172.6740  142.5440 C   0  0  0  0  0  2  0  0  0  0  0  0
  191.2870  171.3690  143.1470 C   0  0  0  0  0  2  0  0  0  0  0  0
  191.6510  170.3480  142.1140 C   0  0  0  0  0  0  0  0  0  0  0  0
  190.7950  169.4990  141.7510 O   0  0  0  0  0  0  0  0  0  0  0  0
  192.9420  170.3770  141.5030 N   0  0  0  0  0  2  0  0  0  0  0  0
  193.3130  169.4600  140.4410 C   0  0  0  0  0  2  0  0  0  0  0  0
  194.3890  170.0690  139.5590 C   0  0  0  0  0  2  0  0  0  0  0  0
  196.1860  171.8350  140.0060 N   0  0  0  0  0  0  0  0  0  0  0  0
  194.4170  174.3650  139.4000 C   0  0  0  0  0  1  0  0  0  0  0  0
  195.8800  172.4600  138.7180 C   0  0  0  0  0  2  0  0  0  0  0  0
  196.8640  174.5750  139.7810 C   0  0  1  0  0  3  0  0  0  0  0  0
  195.7570  170.0670  141.5000 O   0  0  0  0  0  0  0  0  0  0  0  0
  197.9370  173.5640  140.1880 C   0  0  0  0  0  2  0  0  0  0  0  0
  197.4450  175.6720  139.1540 O   0  0  0  0  0  1  0  0  0  0  0  0
  197.2690  172.3610  140.8460 C   0  0  0  0  0  2  0  0  0  0  0  0
  195.7770  173.9780  138.8690 C   0  0  2  0  0  3  0  0  0  0  0  0
  195.4880  170.6330  140.4020 C   0  0  0  0  0  0  0  0  0  0  0  0
  1  8  1  0  0  0  0
  1 41  1  1  0  0  0
  4 11  1  6  0  0  0
  4  6  1  0  0  0  0
  4  8  1  0  0  0  0
  5  7  2  0  0  0  0
  6  2  1  1  0  0  0
  6 12  1  0  0  0  0
  7  1  1  0  0  0  0
  8 13  1  1  0  0  0
  9  3  1  1  0  0  0
  9 21  1  0  0  0  0
 10 15  1  6  0  0  0
 10 11  1  0  0  0  0
 10  7  1  0  0  0  0
 12  9  1  0  0  0  0
 13  9  1  0  0  0  0
 15 14  1  1  0  0  0
 16 15  1  0  0  0  0
 17 19  1  0  0  0  0
 17 16  1  0  0  0  0
 18 19  1  0  0  0  0
 19 20  1  0  0  0  0
 21 22  1  0  0  0  0
 22 24  1  0  0  0  0
 24 23  1  1  0  0  0
 24 25  1  0  0  0  0
 27 31  1  0  0  0  0
 28 27  1  0  0  0  0
 29 26  1  0  0  0  0
 30 28  1  1  0  0  0
 30 29  1  0  0  0  0
 31 25  1  6  0  0  0
 31 26  1  0  0  0  0
 34 32  1  1  0  0  0
 34 30  1  0  0  0  0
 35 33  1  6  0  0  0
 35 32  1  0  0  0  0
 35 34  1  0  0  0  0
 36 35  1  0  0  0  0
 36 37  1  0  0  0  0
 37 38  1  0  0  0  0
 38 40  1  0  0  0  0
 40 39  1  0  0  0  0
 42 41  1  0  0  0  0
 42 43  1  0  0  0  0
 44 43  1  0  0  0  0
 45 44  2  0  0  0  0
 46 44  1  0  0  0  0
 47 46  1  0  0  0  0
 48 58  1  0  0  0  0
 48 47  1  0  0  0  0
 49 58  1  0  0  0  0
 49 56  1  0  0  0  0
 51 57  1  0  0  0  0
 51 49  1  0  0  0  0
 52 55  1  6  0  0  0
 52 54  1  0  0  0  0
 54 56  1  0  0  0  0
 57 50  1  1  0  0  0
 57 52  1  0  0  0  0
 58 53  2  0  0  0  0
M  END
>  <MODEL>
8

>  <REMARK>
 VINA RESULT:      -5.6      3.248      7.594
  Name = 
  21 active torsions:
  status: ('A' for Active; 'I' for Inactive)
    1  A    between atoms: C_2  and  C_39
    2  A    between atoms: C_2  and  C_56
    3  A    between atoms: C_3  and  C_23
    4  A    between atoms: C_5  and  C_15
    5  A    between atoms: C_8  and  C_18
    6  A    between atoms: C_15  and  C_45
    7  A    between atoms: C_16  and  C_17
    8  A    between atoms: C_16  and  N_27
    9  A    between atoms: C_17  and  C_51
   10  A    between atoms: C_18  and  C_36
   11  A    between atoms: C_23  and  C_45
   12  A    between atoms: C_24  and  N_32
   13  A    between atoms: O_29  and  C_42
   14  A    between atoms: O_29  and  C_46
   15  A    between atoms: N_32  and  C_39
   16  A    between atoms: C_35  and  N_49
   17  A    between atoms: C_36  and  C_58
   18  A    between atoms: C_44  and  C_58
   19  A    between atoms: C_46  and  C_50
   20  A    between atoms: C_50  and  N_57
   21  A    between atoms: C_54  and  N_57
                            x       y       z     vdW  Elec       q    Type
                         _______ _______ _______ _____ _____    ______ ____

>  <TORSDO>
F 21

$$$$
=
 OpenBabel11042419123D

 58 62  0  0  1  0  0  0  0  0999 V2000
  193.4300  170.8120  139.0010 C   0  0  2  0  0  3  0  0  0  0  0  0
  196.0190  174.6850  138.5410 C   0  0  0  0  0  1  0  0  0  0  0  0
  197.5560  170.9910  140.6990 O   0  0  0  0  0  1  0  0  0  0  0  0
  194.9280  172.5120  138.0240 C   0  0  2  0  0  3  0  0  0  0  0  0
  193.2460  169.0700  137.3790 O   0  0  0  0  0  0  0  0  0  0  0  0
  196.2620  173.2700  138.0740 C   0  0  2  0  0  3  0  0  0  0  0  0
  193.1890  170.2660  137.6170 C   0  0  0  0  0  0  0  0  0  0  0  0
  194.8580  171.3450  139.0200 C   0  0  1  0  0  3  0  0  0  0  0  0
  196.8560  172.1510  140.3490 C   0  0  1  0  0  0  0  0  0  0  0  0
  193.2920  171.2900  136.5150 C   0  0  1  0  0  3  0  0  0  0  0  0
  194.6400  172.0110  136.6010 C   0  0  0  0  0  2  0  0  0  0  0  0
  197.3280  172.5750  138.9220 C   0  0  0  0  0  2  0  0  0  0  0  0
  195.3440  171.8280  140.3830 C   0  0  0  0  0  2  0  0  0  0  0  0
  194.0900  169.9100  134.5130 C   0  0  0  0  0  1  0  0  0  0  0  0
  193.0000  170.8010  135.0890 C   0  0  1  0  0  3  0  0  0  0  0  0
  191.6410  170.1590  134.9350 C   0  0  0  0  0  2  0  0  0  0  0  0
  190.5990  171.2210  134.6000 C   0  0  0  0  0  2  0  0  0  0  0  0
  189.6990  170.3470  136.7690 C   0  0  0  0  0  1  0  0  0  0  0  0
  189.6180  171.4620  135.7420 C   0  0  0  0  0  3  0  0  0  0  0  0
  189.8520  172.8020  136.4190 C   0  0  0  0  0  1  0  0  0  0  0  0
  197.0960  173.1790  141.3070 O   0  0  0  0  0  0  0  0  0  0  0  0
  196.5440  172.7980  142.5460 C   0  0  0  0  0  2  0  0  0  0  0  0
  197.2890  174.4720  144.6640 S   0  0  0  0  0  1  0  0  0  0  0  0
  196.0930  174.0070  143.3690 C   0  0  2  0  0  3  0  0  0  0  0  0
  194.8210  173.6890  143.9870 N   0  0  0  0  0  2  0  0  0  0  0  0
  193.9460  175.9710  143.9770 C   0  0  0  0  0  2  0  0  0  0  0  0
  192.4180  173.9630  143.6160 C   0  0  0  0  0  2  0  0  0  0  0  0
  191.4620  174.9740  144.2410 C   0  0  0  0  0  2  0  0  0  0  0  0
  193.3450  176.0380  145.3940 C   0  0  0  0  0  2  0  0  0  0  0  0
  192.0010  175.4330  145.5260 N   0  0  1  0  0  0  0  0  0  0  0  0
  193.8110  174.5600  143.3970 C   0  0  2  0  0  3  0  0  0  0  0  0
  191.4260  176.6720  147.5250 C   0  0  0  0  0  2  0  0  0  0  0  0
  190.2150  174.5400  147.2420 F   0  0  0  0  0  0  0  0  0  0  0  0
  191.1120  176.4640  146.0470 C   0  0  2  0  0  3  0  0  0  0  0  0
  190.1860  175.9100  147.1250 C   0  0  2  0  0  0  0  0  0  0  0  0
  188.8590  176.6430  147.2070 C   0  0  0  0  0  2  0  0  0  0  0  0
  187.8850  176.0810  146.1910 C   0  0  0  0  0  2  0  0  0  0  0  0
  186.5360  176.5000  146.5300 N   0  0  0  0  0  2  0  0  0  0  0  0
  185.1700  178.4870  146.8830 C   0  0  0  0  0  1  0  0  0  0  0  0
  186.5770  177.9330  146.7740 C   0  0  0  0  0  2  0  0  0  0  0  0
  193.0390  169.9060  140.1840 C   0  0  0  0  0  2  0  0  0  0  0  0
  191.5750  169.9310  140.5840 C   0  0  0  0  0  2  0  0  0  0  0  0
  191.3990  170.9650  141.6650 C   0  0  0  0  0  2  0  0  0  0  0  0
  190.1410  171.7620  141.5060 C   0  0  0  0  0  0  0  0  0  0  0  0
  189.5490  172.2010  142.5270 O   0  0  0  0  0  0  0  0  0  0  0  0
  189.6500  172.0690  140.1990 N   0  0  0  0  0  2  0  0  0  0  0  0
  188.4820  172.9050  139.9920 C   0  0  0  0  0  2  0  0  0  0  0  0
  188.5730  174.1700  140.8280 C   0  0  0  0  0  2  0  0  0  0  0  0
  187.1210  176.2730  140.9640 N   0  0  0  0  0  0  0  0  0  0  0  0
  188.8320  177.7990  143.1180 C   0  0  0  0  0  1  0  0  0  0  0  0
  187.0930  176.1490  142.4220 C   0  0  0  0  0  2  0  0  0  0  0  0
  186.6210  178.6680  142.3890 C   0  0  1  0  0  3  0  0  0  0  0  0
  187.8220  175.3560  138.9130 O   0  0  0  0  0  0  0  0  0  0  0  0
  185.6340  178.2100  141.3130 C   0  0  0  0  0  2  0  0  0  0  0  0
  185.9710  179.4420  143.3440 O   0  0  0  0  0  1  0  0  0  0  0  0
  186.3680  177.3410  140.2970 C   0  0  0  0  0  2  0  0  0  0  0  0
  187.3520  177.5030  143.0810 C   0  0  2  0  0  3  0  0  0  0  0  0
  187.8080  175.2760  140.1730 C   0  0  0  0  0  0  0  0  0  0  0  0
  1  8  1  0  0  0  0
  1 41  1  1  0  0  0
  4 11  1  6  0  0  0
  4  6  1  0  0  0  0
  4  8  1  0  0  0  0
  5  7  2  0  0  0  0
  6  2  1  1  0  0  0
  6 12  1  0  0  0  0
  7  1  1  0  0  0  0
  8 13  1  1  0  0  0
  9 13  1  0  0  0  0
  9  3  1  1  0  0  0
  9 21  1  0  0  0  0
 10 15  1  6  0  0  0
 10 11  1  0  0  0  0
 10  7  1  0  0  0  0
 12  9  1  0  0  0  0
 15 14  1  1  0  0  0
 16 15  1  0  0  0  0
 17 16  1  0  0  0  0
 17 19  1  0  0  0  0
 19 20  1  0  0  0  0
 19 18  1  0  0  0  0
 21 22  1  0  0  0  0
 22 24  1  0  0  0  0
 24 25  1  0  0  0  0
 24 23  1  1  0  0  0
 26 29  1  0  0  0  0
 27 28  1  0  0  0  0
 29 30  1  0  0  0  0
 30 28  1  6  0  0  0
 30 34  1  0  0  0  0
 31 27  1  0  0  0  0
 31 26  1  0  0  0  0
 31 25  1  1  0  0  0
 34 35  1  0  0  0  0
 34 32  1  1  0  0  0
 35 36  1  0  0  0  0
 35 33  1  1  0  0  0
 35 32  1  0  0  0  0
 37 38  1  0  0  0  0
 37 36  1  0  0  0  0
 38 40  1  0  0  0  0
 40 39  1  0  0  0  0
 41 42  1  0  0  0  0
 42 43  1  0  0  0  0
 44 43  1  0  0  0  0
 44 45  2  0  0  0  0
 46 44  1  0  0  0  0
 47 46  1  0  0  0  0
 47 48  1  0  0  0  0
 49 51  1  0  0  0  0
 51 57  1  0  0  0  0
 52 57  1  0  0  0  0
 52 55  1  1  0  0  0
 53 58  2  0  0  0  0
 54 52  1  0  0  0  0
 56 49  1  0  0  0  0
 56 54  1  0  0  0  0
 57 50  1  6  0  0  0
 58 48  1  0  0  0  0
 58 49  1  0  0  0  0
M  END
>  <MODEL>
9

>  <REMARK>
 VINA RESULT:      -5.5      3.166      9.657
  Name = 
  21 active torsions:
  status: ('A' for Active; 'I' for Inactive)
    1  A    between atoms: C_2  and  C_39
    2  A    between atoms: C_2  and  C_56
    3  A    between atoms: C_3  and  C_23
    4  A    between atoms: C_5  and  C_15
    5  A    between atoms: C_8  and  C_18
    6  A    between atoms: C_15  and  C_45
    7  A    between atoms: C_16  and  C_17
    8  A    between atoms: C_16  and  N_27
    9  A    between atoms: C_17  and  C_51
   10  A    between atoms: C_18  and  C_36
   11  A    between atoms: C_23  and  C_45
   12  A    between atoms: C_24  and  N_32
   13  A    between atoms: O_29  and  C_42
   14  A    between atoms: O_29  and  C_46
   15  A    between atoms: N_32  and  C_39
   16  A    between atoms: C_35  and  N_49
   17  A    between atoms: C_36  and  C_58
   18  A    between atoms: C_44  and  C_58
   19  A    between atoms: C_46  and  C_50
   20  A    between atoms: C_50  and  N_57
   21  A    between atoms: C_54  and  N_57
                            x       y       z     vdW  Elec       q    Type
                         _______ _______ _______ _____ _____    ______ ____

>  <TORSDO>
F 21

$$$$
