=
 OpenBabel11042414203D

 27 28  0  0  1  0  0  0  0  0999 V2000
  187.8560  176.1680  145.9550 N   0  0  0  0  0  2  0  0  0  0  0  0
  184.7870  178.1810  145.1630 C   0  0  0  0  0  0  0  0  0  0  0  0
  184.3990  178.5710  146.4470 C   0  0  0  0  0  3  0  0  0  0  0  0
  184.0430  178.6060  144.1100 F   0  0  0  0  0  0  0  0  0  0  0  0
  186.2880  177.4020  147.3850 C   0  0  0  0  0  3  0  0  0  0  0  0
  186.7000  177.0040  146.1040 C   0  0  0  0  0  0  0  0  0  0  0  0
  185.9450  177.3970  144.9700 C   0  0  0  0  0  0  0  0  0  0  0  0
  185.1470  178.1830  147.5560 C   0  0  0  0  0  3  0  0  0  0  0  0
  186.1360  175.7820  143.1990 N   0  0  0  0  0  2  0  0  0  0  0  0
  186.3490  176.9950  143.5990 C   0  0  0  0  0  0  0  0  0  0  0  0
  186.6390  178.5100  141.7100 N   0  0  0  0  0  0  0  0  0  0  0  0
  187.0650  177.9330  142.7700 N   0  0  0  0  0  0  0  0  0  0  0  0
  185.3550  178.3480  141.1650 C   0  0  0  0  0  0  0  0  0  0  0  0
  184.2490  178.2160  140.7000 C   0  0  0  0  0  3  0  0  0  0  0  0
  189.2280  176.6580  146.0150 C   0  0  2  0  0  3  0  0  0  0  0  0
  190.2760  177.9610  144.3000 O   0  0  0  0  0  0  0  0  0  0  0  0
  190.2640  175.8840  142.3630 C   0  0  0  0  0  1  0  0  0  0  0  0
  189.7880  176.8490  144.6400 C   0  0  0  0  0  0  0  0  0  0  0  0
  189.7430  175.7640  143.7140 N   0  0  0  0  0  2  0  0  0  0  0  0
  190.0820  175.7220  146.8120 C   0  0  0  0  0  0  0  0  0  0  0  0
  189.5430  174.8590  147.5570 O   0  0  0  0  0  0  0  0  0  0  0  0
  195.3070  175.0810  145.9320 C   0  0  0  0  0  1  0  0  0  0  0  0
  192.5340  174.6640  145.9410 S   0  0  0  0  0  0  0  0  0  0  0  0
  193.6770  176.6300  147.0190 N   0  0  0  0  0  0  0  0  0  0  0  0
  191.5470  175.7900  146.7120 C   0  0  0  0  0  0  0  0  0  0  0  0
  192.3460  176.7970  147.2440 C   0  0  0  0  0  3  0  0  0  0  0  0
  193.9370  175.5070  146.3170 C   0  0  0  0  0  0  0  0  0  0  0  0
  1 15  1  0  0  0  0
  1  6  1  0  0  0  0
  2  3  1  0  0  0  0
  3  8  2  0  0  0  0
  4  2  1  0  0  0  0
  5  8  1  0  0  0  0
  6  5  2  0  0  0  0
  7  2  2  0  0  0  0
  7  6  1  0  0  0  0
  9 10  2  0  0  0  0
 10  7  1  0  0  0  0
 11 12  2  0  0  0  0
 12 10  1  0  0  0  0
 13 11  1  0  0  0  0
 14 13  3  0  0  0  0
 15 18  1  6  0  0  0
 15 20  1  0  0  0  0
 16 18  2  0  0  0  0
 17 19  1  0  0  0  0
 19 18  1  0  0  0  0
 20 21  2  0  0  0  0
 22 27  1  0  0  0  0
 23 27  1  0  0  0  0
 23 25  1  0  0  0  0
 24 26  1  0  0  0  0
 25 20  1  0  0  0  0
 25 26  2  0  0  0  0
 27 24  2  0  0  0  0
M  END
>  <MODEL>
1

>  <REMARK>
 VINA RESULT:      -6.5      0.000      0.000
  Name = 
  8 active torsions:
  status: ('A' for Active; 'I' for Inactive)
    1  A    between atoms: C_2  and  N_6
    2  A    between atoms: C_2  and  C_8
    3  A    between atoms: C_2  and  C_22
    4  A    between atoms: N_6  and  C_19
    5  A    between atoms: C_8  and  C_13
    6  A    between atoms: C_10  and  N_16
    7  A    between atoms: C_20  and  C_27
    8  A    between atoms: N_24  and  C_27
                            x       y       z     vdW  Elec       q    Type
                         _______ _______ _______ _____ _____    ______ ____

>  <TORSDO>
F 8

$$$$
=
 OpenBabel11042414203D

 27 28  0  0  1  0  0  0  0  0999 V2000
  186.3680  177.0880  143.5640 N   0  0  0  0  0  2  0  0  0  0  0  0
  186.4110  178.1280  147.1720 C   0  0  0  0  0  0  0  0  0  0  0  0
  185.1190  178.6420  147.3040 C   0  0  0  0  0  3  0  0  0  0  0  0
  187.2190  178.1310  148.2630 F   0  0  0  0  0  0  0  0  0  0  0  0
  184.6580  178.1110  144.9980 C   0  0  0  0  0  3  0  0  0  0  0  0
  185.9490  177.5840  144.8430 C   0  0  0  0  0  0  0  0  0  0  0  0
  186.8450  177.5870  145.9420 C   0  0  0  0  0  0  0  0  0  0  0  0
  184.2440  178.6340  146.2220 C   0  0  0  0  0  3  0  0  0  0  0  0
  189.1980  177.8290  145.5110 N   0  0  0  0  0  2  0  0  0  0  0  0
  188.2200  177.0380  145.8170 C   0  0  0  0  0  0  0  0  0  0  0  0
  189.3500  175.0230  146.5950 N   0  0  0  0  0  0  0  0  0  0  0  0
  188.4260  175.6160  145.9380 N   0  0  0  0  0  0  0  0  0  0  0  0
  190.3400  175.6670  147.3560 C   0  0  0  0  0  0  0  0  0  0  0  0
  191.1840  176.2210  148.0160 C   0  0  0  0  0  3  0  0  0  0  0  0
  186.8340  177.9380  142.4740 C   0  0  2  0  0  3  0  0  0  0  0  0
  186.3080  177.5240  140.1750 O   0  0  0  0  0  0  0  0  0  0  0  0
  183.5660  178.2220  140.4130 C   0  0  0  0  0  1  0  0  0  0  0  0
  185.8930  177.8800  141.3120 C   0  0  0  0  0  0  0  0  0  0  0  0
  184.5280  178.2520  141.5010 N   0  0  0  0  0  2  0  0  0  0  0  0
  188.2170  177.5440  142.0600 C   0  0  0  0  0  0  0  0  0  0  0  0
  188.9860  178.4000  141.5430 O   0  0  0  0  0  0  0  0  0  0  0  0
  188.9890  172.2840  142.5300 C   0  0  0  0  0  1  0  0  0  0  0  0
  187.7890  174.7680  142.0240 S   0  0  0  0  0  0  0  0  0  0  0  0
  190.1530  174.4730  142.8370 N   0  0  0  0  0  0  0  0  0  0  0  0
  188.6900  176.1690  142.2730 C   0  0  0  0  0  0  0  0  0  0  0  0
  189.9600  175.8140  142.7180 C   0  0  0  0  0  3  0  0  0  0  0  0
  189.0550  173.7680  142.4920 C   0  0  0  0  0  0  0  0  0  0  0  0
  1  6  1  0  0  0  0
  2  3  1  0  0  0  0
  2  4  1  0  0  0  0
  5  8  1  0  0  0  0
  6  5  2  0  0  0  0
  6  7  1  0  0  0  0
  7  2  2  0  0  0  0
  8  3  2  0  0  0  0
  9 10  2  0  0  0  0
 10 12  1  0  0  0  0
 10  7  1  0  0  0  0
 11 13  1  0  0  0  0
 12 11  2  0  0  0  0
 13 14  3  0  0  0  0
 15 18  1  6  0  0  0
 15  1  1  0  0  0  0
 16 18  2  0  0  0  0
 17 19  1  0  0  0  0
 18 19  1  0  0  0  0
 20 25  1  0  0  0  0
 20 15  1  0  0  0  0
 21 20  2  0  0  0  0
 23 25  1  0  0  0  0
 23 27  1  0  0  0  0
 25 26  2  0  0  0  0
 26 24  1  0  0  0  0
 27 22  1  0  0  0  0
 27 24  2  0  0  0  0
M  END
>  <MODEL>
2

>  <REMARK>
 VINA RESULT:      -6.3      2.755      5.455
  Name = 
  8 active torsions:
  status: ('A' for Active; 'I' for Inactive)
    1  A    between atoms: C_2  and  N_6
    2  A    between atoms: C_2  and  C_8
    3  A    between atoms: C_2  and  C_22
    4  A    between atoms: N_6  and  C_19
    5  A    between atoms: C_8  and  C_13
    6  A    between atoms: C_10  and  N_16
    7  A    between atoms: C_20  and  C_27
    8  A    between atoms: N_24  and  C_27
                            x       y       z     vdW  Elec       q    Type
                         _______ _______ _______ _____ _____    ______ ____

>  <TORSDO>
F 8

$$$$
=
 OpenBabel11042414203D

 27 28  0  0  1  0  0  0  0  0999 V2000
  188.0160  175.2730  143.0670 N   0  0  0  0  0  2  0  0  0  0  0  0
  186.4090  178.6080  143.6960 C   0  0  0  0  0  0  0  0  0  0  0  0
  185.8350  178.8540  142.4460 C   0  0  0  0  0  3  0  0  0  0  0  0
  186.2290  179.5280  144.6780 F   0  0  0  0  0  0  0  0  0  0  0  0
  186.6770  176.7470  141.6310 C   0  0  0  0  0  3  0  0  0  0  0  0
  187.2570  176.4760  142.8800 C   0  0  0  0  0  0  0  0  0  0  0  0
  187.1240  177.4140  143.9340 C   0  0  0  0  0  0  0  0  0  0  0  0
  185.9680  177.9270  141.4160 C   0  0  0  0  0  3  0  0  0  0  0  0
  188.9270  177.5720  145.5180 N   0  0  0  0  0  2  0  0  0  0  0  0
  187.7240  177.1630  145.2700 C   0  0  0  0  0  0  0  0  0  0  0  0
  186.3470  176.8080  147.2510 N   0  0  0  0  0  0  0  0  0  0  0  0
  186.9950  176.3770  146.2340 N   0  0  0  0  0  0  0  0  0  0  0  0
  186.2050  178.1600  147.6020 C   0  0  0  0  0  0  0  0  0  0  0  0
  186.0820  179.3240  147.8960 C   0  0  0  0  0  3  0  0  0  0  0  0
  189.4030  175.1130  142.6460 C   0  0  2  0  0  3  0  0  0  0  0  0
  190.6090  174.0480  140.8720 O   0  0  0  0  0  0  0  0  0  0  0  0
  188.3280  172.8000  139.7300 C   0  0  0  0  0  1  0  0  0  0  0  0
  189.4960  174.2420  141.4330 C   0  0  0  0  0  0  0  0  0  0  0  0
  188.3080  173.6510  140.9070 N   0  0  0  0  0  2  0  0  0  0  0  0
  190.2270  174.5570  143.7640 C   0  0  0  0  0  0  0  0  0  0  0  0
  189.9830  173.4030  144.2120 O   0  0  0  0  0  0  0  0  0  0  0  0
  194.1750  176.7480  146.6100 C   0  0  0  0  0  1  0  0  0  0  0  0
  192.0810  175.0610  145.8130 S   0  0  0  0  0  0  0  0  0  0  0  0
  192.9430  176.9950  144.4510 N   0  0  0  0  0  0  0  0  0  0  0  0
  191.3350  175.3400  144.3290 C   0  0  0  0  0  0  0  0  0  0  0  0
  191.9370  176.4380  143.7230 C   0  0  0  0  0  3  0  0  0  0  0  0
  193.1400  176.3500  145.6210 C   0  0  0  0  0  0  0  0  0  0  0  0
  2  7  1  0  0  0  0
  2  4  1  0  0  0  0
  3  2  2  0  0  0  0
  5  6  1  0  0  0  0
  6  1  1  0  0  0  0
  6  7  2  0  0  0  0
  7 10  1  0  0  0  0
  8  5  2  0  0  0  0
  8  3  1  0  0  0  0
 10  9  2  0  0  0  0
 10 12  1  0  0  0  0
 11 13  1  0  0  0  0
 12 11  2  0  0  0  0
 13 14  3  0  0  0  0
 15 18  1  6  0  0  0
 15  1  1  0  0  0  0
 15 20  1  0  0  0  0
 16 18  2  0  0  0  0
 17 19  1  0  0  0  0
 19 18  1  0  0  0  0
 20 21  2  0  0  0  0
 20 25  1  0  0  0  0
 24 27  2  0  0  0  0
 25 23  1  0  0  0  0
 26 25  2  0  0  0  0
 26 24  1  0  0  0  0
 27 23  1  0  0  0  0
 27 22  1  0  0  0  0
M  END
>  <MODEL>
3

>  <REMARK>
 VINA RESULT:      -6.2      2.278      4.042
  Name = 
  8 active torsions:
  status: ('A' for Active; 'I' for Inactive)
    1  A    between atoms: C_2  and  N_6
    2  A    between atoms: C_2  and  C_8
    3  A    between atoms: C_2  and  C_22
    4  A    between atoms: N_6  and  C_19
    5  A    between atoms: C_8  and  C_13
    6  A    between atoms: C_10  and  N_16
    7  A    between atoms: C_20  and  C_27
    8  A    between atoms: N_24  and  C_27
                            x       y       z     vdW  Elec       q    Type
                         _______ _______ _______ _____ _____    ______ ____

>  <TORSDO>
F 8

$$$$
=
 OpenBabel11042414203D

 27 28  0  0  1  0  0  0  0  0999 V2000
  189.6790  175.1780  143.5370 N   0  0  0  0  0  2  0  0  0  0  0  0
  191.5720  175.8070  146.7180 C   0  0  0  0  0  0  0  0  0  0  0  0
  190.6470  175.3510  147.6590 C   0  0  0  0  0  3  0  0  0  0  0  0
  192.7650  176.2760  147.1640 F   0  0  0  0  0  0  0  0  0  0  0  0
  189.1150  174.7710  145.8910 C   0  0  0  0  0  3  0  0  0  0  0  0
  190.0310  175.2170  144.9260 C   0  0  0  0  0  0  0  0  0  0  0  0
  191.2820  175.7430  145.3370 C   0  0  0  0  0  0  0  0  0  0  0  0
  189.4210  174.8350  147.2490 C   0  0  0  0  0  3  0  0  0  0  0  0
  192.4590  177.4970  144.1880 N   0  0  0  0  0  2  0  0  0  0  0  0
  192.2780  176.2250  144.3470 C   0  0  0  0  0  0  0  0  0  0  0  0
  194.0570  174.6670  143.7510 N   0  0  0  0  0  0  0  0  0  0  0  0
  192.9550  175.2700  143.5040 N   0  0  0  0  0  0  0  0  0  0  0  0
  194.8100  174.8120  144.9270 C   0  0  0  0  0  0  0  0  0  0  0  0
  195.4540  174.9440  145.9390 C   0  0  0  0  0  3  0  0  0  0  0  0
  188.4230  175.6930  143.0020 C   0  0  2  0  0  3  0  0  0  0  0  0
  187.6320  176.0940  140.7780 O   0  0  0  0  0  0  0  0  0  0  0  0
  188.7290  173.7130  139.6860 C   0  0  0  0  0  1  0  0  0  0  0  0
  188.2720  175.3370  141.5560 C   0  0  0  0  0  0  0  0  0  0  0  0
  188.8440  174.1200  141.0760 N   0  0  0  0  0  2  0  0  0  0  0  0
  188.3420  177.1750  143.1950 C   0  0  0  0  0  0  0  0  0  0  0  0
  189.3260  177.9030  142.8900 O   0  0  0  0  0  0  0  0  0  0  0  0
  184.0110  178.7520  145.8850 C   0  0  0  0  0  1  0  0  0  0  0  0
  186.3580  177.3940  145.1710 S   0  0  0  0  0  0  0  0  0  0  0  0
  185.2770  179.1890  143.7770 N   0  0  0  0  0  0  0  0  0  0  0  0
  187.1130  177.7880  143.7180 C   0  0  0  0  0  0  0  0  0  0  0  0
  186.3810  178.7890  143.0890 C   0  0  0  0  0  3  0  0  0  0  0  0
  185.1310  178.5160  144.9380 C   0  0  0  0  0  0  0  0  0  0  0  0
  1  6  1  0  0  0  0
  2  4  1  0  0  0  0
  2  3  1  0  0  0  0
  5  8  1  0  0  0  0
  6  7  1  0  0  0  0
  6  5  2  0  0  0  0
  7  2  2  0  0  0  0
  8  3  2  0  0  0  0
  9 10  2  0  0  0  0
 10  7  1  0  0  0  0
 11 13  1  0  0  0  0
 12 11  2  0  0  0  0
 12 10  1  0  0  0  0
 13 14  3  0  0  0  0
 15 18  1  6  0  0  0
 15 20  1  0  0  0  0
 15  1  1  0  0  0  0
 16 18  2  0  0  0  0
 17 19  1  0  0  0  0
 19 18  1  0  0  0  0
 20 25  1  0  0  0  0
 21 20  2  0  0  0  0
 24 27  2  0  0  0  0
 25 23  1  0  0  0  0
 26 25  2  0  0  0  0
 26 24  1  0  0  0  0
 27 23  1  0  0  0  0
 27 22  1  0  0  0  0
M  END
>  <MODEL>
4

>  <REMARK>
 VINA RESULT:      -6.2      3.171      7.072
  Name = 
  8 active torsions:
  status: ('A' for Active; 'I' for Inactive)
    1  A    between atoms: C_2  and  N_6
    2  A    between atoms: C_2  and  C_8
    3  A    between atoms: C_2  and  C_22
    4  A    between atoms: N_6  and  C_19
    5  A    between atoms: C_8  and  C_13
    6  A    between atoms: C_10  and  N_16
    7  A    between atoms: C_20  and  C_27
    8  A    between atoms: N_24  and  C_27
                            x       y       z     vdW  Elec       q    Type
                         _______ _______ _______ _____ _____    ______ ____

>  <TORSDO>
F 8

$$$$
=
 OpenBabel11042414203D

 27 28  0  0  1  0  0  0  0  0999 V2000
  188.4930  177.7730  144.9180 N   0  0  0  0  0  2  0  0  0  0  0  0
  184.8300  178.0080  145.7090 C   0  0  0  0  0  0  0  0  0  0  0  0
  184.7720  177.2430  146.8760 C   0  0  0  0  0  3  0  0  0  0  0  0
  183.6830  178.5720  145.2520 F   0  0  0  0  0  0  0  0  0  0  0  0
  187.1490  176.8560  146.7560 C   0  0  0  0  0  3  0  0  0  0  0  0
  187.2320  177.6260  145.5860 C   0  0  0  0  0  0  0  0  0  0  0  0
  186.0600  178.2160  145.0480 C   0  0  0  0  0  0  0  0  0  0  0  0
  185.9260  176.6680  147.3990 C   0  0  0  0  0  3  0  0  0  0  0  0
  185.8360  180.3020  143.8740 N   0  0  0  0  0  2  0  0  0  0  0  0
  186.1090  179.0380  143.8120 C   0  0  0  0  0  0  0  0  0  0  0  0
  185.4880  178.0020  141.6930 N   0  0  0  0  0  0  0  0  0  0  0  0
  186.3590  178.3950  142.5460 N   0  0  0  0  0  0  0  0  0  0  0  0
  184.0990  178.1560  141.8310 C   0  0  0  0  0  0  0  0  0  0  0  0
  182.9070  178.2960  141.9510 C   0  0  0  0  0  3  0  0  0  0  0  0
  189.2640  176.6570  144.3800 C   0  0  2  0  0  3  0  0  0  0  0  0
  191.6530  176.4990  144.3640 O   0  0  0  0  0  0  0  0  0  0  0  0
  191.9180  176.4000  147.1900 C   0  0  0  0  0  1  0  0  0  0  0  0
  190.5970  176.5560  145.0520 C   0  0  0  0  0  0  0  0  0  0  0  0
  190.6570  176.5040  146.4770 N   0  0  0  0  0  2  0  0  0  0  0  0
  189.4240  176.8010  142.8990 C   0  0  0  0  0  0  0  0  0  0  0  0
  189.7490  177.9160  142.4070 O   0  0  0  0  0  0  0  0  0  0  0  0
  189.5770  172.2410  140.1280 C   0  0  0  0  0  1  0  0  0  0  0  0
  190.2310  174.2920  141.9270 S   0  0  0  0  0  0  0  0  0  0  0  0
  188.2210  174.3200  140.4120 N   0  0  0  0  0  0  0  0  0  0  0  0
  189.2270  175.6420  142.0170 C   0  0  0  0  0  0  0  0  0  0  0  0
  188.1790  175.4830  141.1170 C   0  0  0  0  0  3  0  0  0  0  0  0
  189.2870  173.5620  140.7450 C   0  0  0  0  0  0  0  0  0  0  0  0
  1  6  1  0  0  0  0
  2  3  1  0  0  0  0
  3  8  2  0  0  0  0
  4  2  1  0  0  0  0
  5  8  1  0  0  0  0
  6  5  2  0  0  0  0
  7  6  1  0  0  0  0
  7  2  2  0  0  0  0
 10  9  2  0  0  0  0
 10  7  1  0  0  0  0
 11 13  1  0  0  0  0
 11 12  2  0  0  0  0
 12 10  1  0  0  0  0
 13 14  3  0  0  0  0
 15 20  1  6  0  0  0
 15  1  1  0  0  0  0
 15 18  1  0  0  0  0
 16 18  2  0  0  0  0
 18 19  1  0  0  0  0
 19 17  1  0  0  0  0
 21 20  2  0  0  0  0
 22 27  1  0  0  0  0
 23 25  1  0  0  0  0
 24 27  2  0  0  0  0
 24 26  1  0  0  0  0
 25 20  1  0  0  0  0
 26 25  2  0  0  0  0
 27 23  1  0  0  0  0
M  END
>  <MODEL>
5

>  <REMARK>
 VINA RESULT:      -6.2      2.109      4.119
  Name = 
  8 active torsions:
  status: ('A' for Active; 'I' for Inactive)
    1  A    between atoms: C_2  and  N_6
    2  A    between atoms: C_2  and  C_8
    3  A    between atoms: C_2  and  C_22
    4  A    between atoms: N_6  and  C_19
    5  A    between atoms: C_8  and  C_13
    6  A    between atoms: C_10  and  N_16
    7  A    between atoms: C_20  and  C_27
    8  A    between atoms: N_24  and  C_27
                            x       y       z     vdW  Elec       q    Type
                         _______ _______ _______ _____ _____    ______ ____

>  <TORSDO>
F 8

$$$$
=
 OpenBabel11042414203D

 27 28  0  0  1  0  0  0  0  0999 V2000
  188.5460  177.0380  145.2600 N   0  0  0  0  0  2  0  0  0  0  0  0
  184.9520  178.0030  144.7600 C   0  0  0  0  0  0  0  0  0  0  0  0
  184.6420  178.4980  146.0290 C   0  0  0  0  0  3  0  0  0  0  0  0
  183.9860  178.0250  143.8070 F   0  0  0  0  0  0  0  0  0  0  0  0
  186.8940  178.0510  146.7670 C   0  0  0  0  0  3  0  0  0  0  0  0
  187.2300  177.5550  145.4980 C   0  0  0  0  0  0  0  0  0  0  0  0
  186.2510  177.5280  144.4730 C   0  0  0  0  0  0  0  0  0  0  0  0
  185.6090  178.5220  147.0300 C   0  0  0  0  0  3  0  0  0  0  0  0
  186.3800  175.7590  142.8500 N   0  0  0  0  0  2  0  0  0  0  0  0
  186.5680  177.0110  143.1170 C   0  0  0  0  0  0  0  0  0  0  0  0
  186.6170  178.4300  141.1340 N   0  0  0  0  0  0  0  0  0  0  0  0
  187.1780  177.8910  142.1500 N   0  0  0  0  0  0  0  0  0  0  0  0
  185.2660  178.2770  140.7840 C   0  0  0  0  0  0  0  0  0  0  0  0
  184.1060  178.1520  140.4770 C   0  0  0  0  0  3  0  0  0  0  0  0
  188.9830  175.7070  145.6680 C   0  0  2  0  0  3  0  0  0  0  0  0
  189.8240  174.7800  147.7100 O   0  0  0  0  0  0  0  0  0  0  0  0
  191.2760  177.1030  148.4620 C   0  0  0  0  0  1  0  0  0  0  0  0
  189.7840  175.7710  146.9300 C   0  0  0  0  0  0  0  0  0  0  0  0
  190.4850  176.9730  147.2500 N   0  0  0  0  0  2  0  0  0  0  0  0
  189.7690  175.0580  144.5720 C   0  0  0  0  0  0  0  0  0  0  0  0
  189.1900  174.2990  143.7470 O   0  0  0  0  0  0  0  0  0  0  0  0
  195.1060  175.0890  144.5520 C   0  0  0  0  0  1  0  0  0  0  0  0
  192.4460  174.2950  144.9500 S   0  0  0  0  0  0  0  0  0  0  0  0
  193.1340  176.4610  143.8670 N   0  0  0  0  0  0  0  0  0  0  0  0
  191.2090  175.3180  144.4390 C   0  0  0  0  0  0  0  0  0  0  0  0
  191.7740  176.4560  143.8700 C   0  0  0  0  0  3  0  0  0  0  0  0
  193.6480  175.3440  144.4250 C   0  0  0  0  0  0  0  0  0  0  0  0
  1  6  1  0  0  0  0
  1 15  1  0  0  0  0
  2  3  1  0  0  0  0
  3  8  2  0  0  0  0
  4  2  1  0  0  0  0
  5  8  1  0  0  0  0
  6  5  2  0  0  0  0
  7  2  2  0  0  0  0
  7  6  1  0  0  0  0
  9 10  2  0  0  0  0
 10  7  1  0  0  0  0
 11 12  2  0  0  0  0
 12 10  1  0  0  0  0
 13 11  1  0  0  0  0
 14 13  3  0  0  0  0
 15 20  1  6  0  0  0
 15 18  1  0  0  0  0
 18 19  1  0  0  0  0
 18 16  2  0  0  0  0
 19 17  1  0  0  0  0
 21 20  2  0  0  0  0
 24 26  1  0  0  0  0
 24 27  2  0  0  0  0
 25 20  1  0  0  0  0
 25 23  1  0  0  0  0
 26 25  2  0  0  0  0
 27 22  1  0  0  0  0
 27 23  1  0  0  0  0
M  END
>  <MODEL>
6

>  <REMARK>
 VINA RESULT:      -6.1      1.547      2.322
  Name = 
  8 active torsions:
  status: ('A' for Active; 'I' for Inactive)
    1  A    between atoms: C_2  and  N_6
    2  A    between atoms: C_2  and  C_8
    3  A    between atoms: C_2  and  C_22
    4  A    between atoms: N_6  and  C_19
    5  A    between atoms: C_8  and  C_13
    6  A    between atoms: C_10  and  N_16
    7  A    between atoms: C_20  and  C_27
    8  A    between atoms: N_24  and  C_27
                            x       y       z     vdW  Elec       q    Type
                         _______ _______ _______ _____ _____    ______ ____

>  <TORSDO>
F 8

$$$$
=
 OpenBabel11042414203D

 27 28  0  0  1  0  0  0  0  0999 V2000
  186.6140  176.4510  144.2000 N   0  0  0  0  0  2  0  0  0  0  0  0
  186.2810  178.3180  147.4410 C   0  0  0  0  0  0  0  0  0  0  0  0
  185.0350  178.9210  147.2610 C   0  0  0  0  0  3  0  0  0  0  0  0
  186.9380  178.5350  148.6090 F   0  0  0  0  0  0  0  0  0  0  0  0
  184.8320  177.8830  145.0940 C   0  0  0  0  0  3  0  0  0  0  0  0
  186.0790  177.2620  145.2560 C   0  0  0  0  0  0  0  0  0  0  0  0
  186.8210  177.4760  146.4450 C   0  0  0  0  0  0  0  0  0  0  0  0
  184.3110  178.7050  146.0920 C   0  0  0  0  0  3  0  0  0  0  0  0
  189.2230  177.5400  146.5260 N   0  0  0  0  0  2  0  0  0  0  0  0
  188.1450  176.8350  146.6530 C   0  0  0  0  0  0  0  0  0  0  0  0
  189.2260  174.7470  147.2990 N   0  0  0  0  0  0  0  0  0  0  0  0
  188.2130  175.4140  146.8910 N   0  0  0  0  0  0  0  0  0  0  0  0
  190.4770  175.2970  147.6210 C   0  0  0  0  0  0  0  0  0  0  0  0
  191.5510  175.7770  147.8940 C   0  0  0  0  0  3  0  0  0  0  0  0
  187.7500  176.8410  143.3720 C   0  0  2  0  0  3  0  0  0  0  0  0
  188.0850  178.2410  141.4590 O   0  0  0  0  0  0  0  0  0  0  0  0
  185.4270  177.9860  140.4900 C   0  0  0  0  0  1  0  0  0  0  0  0
  187.2910  177.5180  142.1190 C   0  0  0  0  0  0  0  0  0  0  0  0
  185.9380  177.3520  141.6930 N   0  0  0  0  0  2  0  0  0  0  0  0
  188.5950  175.6480  143.0520 C   0  0  0  0  0  0  0  0  0  0  0  0
  188.1150  174.7020  142.3680 O   0  0  0  0  0  0  0  0  0  0  0  0
  193.6830  176.4120  144.4720 C   0  0  0  0  0  1  0  0  0  0  0  0
  191.0790  176.8670  143.5340 S   0  0  0  0  0  0  0  0  0  0  0  0
  191.9220  174.6430  144.3590 N   0  0  0  0  0  0  0  0  0  0  0  0
  189.9890  175.5830  143.5110 C   0  0  0  0  0  0  0  0  0  0  0  0
  190.6250  174.4450  143.9980 C   0  0  0  0  0  3  0  0  0  0  0  0
  192.3150  175.9200  144.1630 C   0  0  0  0  0  0  0  0  0  0  0  0
  1  6  1  0  0  0  0
  2  4  1  0  0  0  0
  3  2  1  0  0  0  0
  5  6  2  0  0  0  0
  5  8  1  0  0  0  0
  6  7  1  0  0  0  0
  7 10  1  0  0  0  0
  7  2  2  0  0  0  0
  8  3  2  0  0  0  0
  9 10  2  0  0  0  0
 10 12  1  0  0  0  0
 11 13  1  0  0  0  0
 12 11  2  0  0  0  0
 13 14  3  0  0  0  0
 15 18  1  6  0  0  0
 15  1  1  0  0  0  0
 16 18  2  0  0  0  0
 17 19  1  0  0  0  0
 19 18  1  0  0  0  0
 20 15  1  0  0  0  0
 20 25  1  0  0  0  0
 21 20  2  0  0  0  0
 23 27  1  0  0  0  0
 25 23  1  0  0  0  0
 25 26  2  0  0  0  0
 26 24  1  0  0  0  0
 27 24  2  0  0  0  0
 27 22  1  0  0  0  0
M  END
>  <MODEL>
7

>  <REMARK>
 VINA RESULT:      -6.1      2.272      4.569
  Name = 
  8 active torsions:
  status: ('A' for Active; 'I' for Inactive)
    1  A    between atoms: C_2  and  N_6
    2  A    between atoms: C_2  and  C_8
    3  A    between atoms: C_2  and  C_22
    4  A    between atoms: N_6  and  C_19
    5  A    between atoms: C_8  and  C_13
    6  A    between atoms: C_10  and  N_16
    7  A    between atoms: C_20  and  C_27
    8  A    between atoms: N_24  and  C_27
                            x       y       z     vdW  Elec       q    Type
                         _______ _______ _______ _____ _____    ______ ____

>  <TORSDO>
F 8

$$$$
=
 OpenBabel11042414203D

 27 28  0  0  1  0  0  0  0  0999 V2000
  187.5390  176.4740  143.9830 N   0  0  0  0  0  2  0  0  0  0  0  0
  185.9460  177.9750  147.0340 C   0  0  0  0  0  0  0  0  0  0  0  0
  184.7580  178.4640  146.4860 C   0  0  0  0  0  3  0  0  0  0  0  0
  186.1580  178.1420  148.3640 F   0  0  0  0  0  0  0  0  0  0  0  0
  185.3970  177.6260  144.3180 C   0  0  0  0  0  3  0  0  0  0  0  0
  186.5950  177.1200  144.8470 C   0  0  0  0  0  0  0  0  0  0  0  0
  186.8800  177.2920  146.2250 C   0  0  0  0  0  0  0  0  0  0  0  0
  184.4830  178.2910  145.1330 C   0  0  0  0  0  3  0  0  0  0  0  0
  189.1440  177.5660  146.9870 N   0  0  0  0  0  2  0  0  0  0  0  0
  188.1370  176.7700  146.8220 C   0  0  0  0  0  0  0  0  0  0  0  0
  189.3150  174.7170  147.4040 N   0  0  0  0  0  0  0  0  0  0  0  0
  188.2490  175.3630  147.1140 N   0  0  0  0  0  0  0  0  0  0  0  0
  190.5950  175.2830  147.5190 C   0  0  0  0  0  0  0  0  0  0  0  0
  191.6980  175.7650  147.6110 C   0  0  0  0  0  3  0  0  0  0  0  0
  187.7050  176.8010  142.5700 C   0  0  2  0  0  3  0  0  0  0  0  0
  187.8170  175.6360  140.4810 O   0  0  0  0  0  0  0  0  0  0  0  0
  187.8160  173.0420  141.6380 C   0  0  0  0  0  1  0  0  0  0  0  0
  187.7710  175.5580  141.7390 C   0  0  0  0  0  0  0  0  0  0  0  0
  187.7600  174.2860  142.3860 N   0  0  0  0  0  2  0  0  0  0  0  0
  188.9280  177.6400  142.3690 C   0  0  0  0  0  0  0  0  0  0  0  0
  188.8730  178.6660  141.6370 O   0  0  0  0  0  0  0  0  0  0  0  0
  193.4130  175.4720  144.2840 C   0  0  0  0  0  1  0  0  0  0  0  0
  191.0300  175.8410  142.8520 S   0  0  0  0  0  0  0  0  0  0  0  0
  192.0200  177.5410  144.4220 N   0  0  0  0  0  0  0  0  0  0  0  0
  190.1870  177.2870  143.0390 C   0  0  0  0  0  0  0  0  0  0  0  0
  190.8770  178.0970  143.9360 C   0  0  0  0  0  3  0  0  0  0  0  0
  192.2380  176.3070  143.9210 C   0  0  0  0  0  0  0  0  0  0  0  0
  1  6  1  0  0  0  0
  2  4  1  0  0  0  0
  3  2  1  0  0  0  0
  5  6  2  0  0  0  0
  5  8  1  0  0  0  0
  6  7  1  0  0  0  0
  7 10  1  0  0  0  0
  7  2  2  0  0  0  0
  8  3  2  0  0  0  0
 10  9  2  0  0  0  0
 10 12  1  0  0  0  0
 11 13  1  0  0  0  0
 12 11  2  0  0  0  0
 13 14  3  0  0  0  0
 15 18  1  6  0  0  0
 15  1  1  0  0  0  0
 16 18  2  0  0  0  0
 17 19  1  0  0  0  0
 18 19  1  0  0  0  0
 20 15  1  0  0  0  0
 20 25  1  0  0  0  0
 21 20  2  0  0  0  0
 23 25  1  0  0  0  0
 23 27  1  0  0  0  0
 25 26  2  0  0  0  0
 26 24  1  0  0  0  0
 27 22  1  0  0  0  0
 27 24  2  0  0  0  0
M  END
>  <MODEL>
8

>  <REMARK>
 VINA RESULT:      -5.9      2.586      4.648
  Name = 
  8 active torsions:
  status: ('A' for Active; 'I' for Inactive)
    1  A    between atoms: C_2  and  N_6
    2  A    between atoms: C_2  and  C_8
    3  A    between atoms: C_2  and  C_22
    4  A    between atoms: N_6  and  C_19
    5  A    between atoms: C_8  and  C_13
    6  A    between atoms: C_10  and  N_16
    7  A    between atoms: C_20  and  C_27
    8  A    between atoms: N_24  and  C_27
                            x       y       z     vdW  Elec       q    Type
                         _______ _______ _______ _____ _____    ______ ____

>  <TORSDO>
F 8

$$$$
=
 OpenBabel11042414203D

 27 28  0  0  1  0  0  0  0  0999 V2000
  190.1710  176.8230  143.4230 N   0  0  0  0  0  2  0  0  0  0  0  0
  191.8340  176.0480  146.7000 C   0  0  0  0  0  0  0  0  0  0  0  0
  190.9470  176.6620  147.5870 C   0  0  0  0  0  3  0  0  0  0  0  0
  192.9120  175.4020  147.2130 F   0  0  0  0  0  0  0  0  0  0  0  0
  189.5580  177.3510  145.7410 C   0  0  0  0  0  3  0  0  0  0  0  0
  190.4310  176.7360  144.8310 C   0  0  0  0  0  0  0  0  0  0  0  0
  191.5890  176.0710  145.3100 C   0  0  0  0  0  0  0  0  0  0  0  0
  189.8120  177.3120  147.1100 C   0  0  0  0  0  3  0  0  0  0  0  0
  192.4510  174.1310  144.1810 N   0  0  0  0  0  2  0  0  0  0  0  0
  192.5370  175.4080  144.3780 C   0  0  0  0  0  0  0  0  0  0  0  0
  194.8460  176.1340  144.0850 N   0  0  0  0  0  0  0  0  0  0  0  0
  193.6020  176.1790  143.7870 N   0  0  0  0  0  0  0  0  0  0  0  0
  195.4140  175.2840  145.0490 C   0  0  0  0  0  0  0  0  0  0  0  0
  195.8960  174.5560  145.8820 C   0  0  0  0  0  3  0  0  0  0  0  0
  188.9160  176.4150  142.8010 C   0  0  2  0  0  3  0  0  0  0  0  0
  190.1790  174.6420  141.8040 O   0  0  0  0  0  0  0  0  0  0  0  0
  188.3910  174.2520  139.6310 C   0  0  0  0  0  1  0  0  0  0  0  0
  189.1540  175.3750  141.7520 C   0  0  0  0  0  0  0  0  0  0  0  0
  188.2170  175.2370  140.6840 N   0  0  0  0  0  2  0  0  0  0  0  0
  188.2110  177.6020  142.2230 C   0  0  0  0  0  0  0  0  0  0  0  0
  188.8650  178.4740  141.5890 O   0  0  0  0  0  0  0  0  0  0  0  0
  182.9350  178.2450  141.7400 C   0  0  0  0  0  1  0  0  0  0  0  0
  185.6610  178.0160  141.1210 S   0  0  0  0  0  0  0  0  0  0  0  0
  184.7140  177.8420  143.4470 N   0  0  0  0  0  0  0  0  0  0  0  0
  186.7560  177.7440  142.3720 C   0  0  0  0  0  0  0  0  0  0  0  0
  186.0580  177.6770  143.5740 C   0  0  0  0  0  3  0  0  0  0  0  0
  184.3440  178.0370  142.1640 C   0  0  0  0  0  0  0  0  0  0  0  0
  1  6  1  0  0  0  0
  2  4  1  0  0  0  0
  2  3  1  0  0  0  0
  5  8  1  0  0  0  0
  6  7  1  0  0  0  0
  6  5  2  0  0  0  0
  7  2  2  0  0  0  0
  8  3  2  0  0  0  0
  9 10  2  0  0  0  0
 10  7  1  0  0  0  0
 11 13  1  0  0  0  0
 12 11  2  0  0  0  0
 12 10  1  0  0  0  0
 13 14  3  0  0  0  0
 15 18  1  6  0  0  0
 15  1  1  0  0  0  0
 17 19  1  0  0  0  0
 18 16  2  0  0  0  0
 19 18  1  0  0  0  0
 20 25  1  0  0  0  0
 20 15  1  0  0  0  0
 21 20  2  0  0  0  0
 22 27  1  0  0  0  0
 23 27  1  0  0  0  0
 23 25  1  0  0  0  0
 24 26  1  0  0  0  0
 25 26  2  0  0  0  0
 27 24  2  0  0  0  0
M  END
>  <MODEL>
9

>  <REMARK>
 VINA RESULT:      -5.9      3.535      7.518
  Name = 
  8 active torsions:
  status: ('A' for Active; 'I' for Inactive)
    1  A    between atoms: C_2  and  N_6
    2  A    between atoms: C_2  and  C_8
    3  A    between atoms: C_2  and  C_22
    4  A    between atoms: N_6  and  C_19
    5  A    between atoms: C_8  and  C_13
    6  A    between atoms: C_10  and  N_16
    7  A    between atoms: C_20  and  C_27
    8  A    between atoms: N_24  and  C_27
                            x       y       z     vdW  Elec       q    Type
                         _______ _______ _______ _____ _____    ______ ____

>  <TORSDO>
F 8

$$$$
