=
 OpenBabel11042418513D

 26 29  0  0  1  0  0  0  0  0999 V2000
  186.2990  175.9030  143.2610 O   0  0  0  0  0  1  0  0  0  0  0  0
  187.1530  176.5520  146.6310 C   0  0  0  0  0  0  0  0  0  0  0  0
  185.4080  179.5270  144.0110 C   0  0  0  0  0  2  0  0  0  0  0  0
  186.4650  177.1650  147.7220 C   0  0  0  0  0  3  0  0  0  0  0  0
  185.9810  177.5290  144.8890 C   0  0  2  0  0  3  0  0  0  0  0  0
  186.3580  177.3330  143.5070 C   0  0  2  0  0  3  0  0  0  0  0  0
  185.9040  178.9130  145.2750 C   0  0  2  0  0  3  0  0  0  0  0  0
  185.5690  178.2030  147.7020 C   0  0  0  0  0  2  0  0  0  0  0  0
  185.2980  178.3080  142.8660 C   0  0  2  0  0  3  0  0  0  0  0  0
  187.0230  176.8380  145.4280 C   0  0  0  0  0  2  0  0  0  0  0  0
  184.9980  178.9660  146.5340 C   0  0  0  0  0  2  0  0  0  0  0  0
  185.8000  178.7060  141.5250 N   0  0  0  0  0  2  0  0  0  0  0  0
  185.9080  177.7720  139.4330 O   0  0  0  0  0  1  0  0  0  0  0  0
  183.7200  178.2020  140.2680 C   0  0  0  0  0  1  0  0  0  0  0  0
  185.1460  177.7850  140.6300 C   0  0  2  0  0  3  0  0  0  0  0  0
  188.2930  175.6310  147.0160 C   0  0  0  0  0  2  0  0  0  0  0  0
  190.1840  174.3470  146.0360 N   0  0  0  0  0  2  0  0  0  0  0  0
  190.7820  175.0850  147.1730 C   0  0  2  0  0  3  0  0  0  0  0  0
  189.7180  175.7560  146.3180 C   0  0  2  0  0  3  0  0  0  0  0  0
  192.9370  174.3410  146.1030 N   0  0  0  0  0  0  0  0  0  0  0  0
  192.8960  176.5740  147.0270 C   0  0  0  0  0  3  0  0  0  0  0  0
  194.8650  175.7040  145.8240 C   0  0  0  0  0  3  0  0  0  0  0  0
  194.8210  173.4430  144.8910 N   0  0  0  0  0  1  0  0  0  0  0  0
  194.1750  174.5330  145.6430 C   0  0  0  0  0  0  0  0  0  0  0  0
  194.1920  176.7510  146.5590 C   0  0  0  0  0  3  0  0  0  0  0  0
  192.2320  175.3570  146.7880 C   0  0  0  0  0  0  0  0  0  0  0  0
  2 16  1  0  0  0  0
  2  4  2  0  0  0  0
  5  7  1  0  0  0  0
  5 10  1  1  0  0  0
  6  1  1  6  0  0  0
  6  5  1  0  0  0  0
  7  3  1  6  0  0  0
  7 11  1  0  0  0  0
  8  4  1  0  0  0  0
  9 12  1  6  0  0  0
  9  6  1  0  0  0  0
  9  3  1  0  0  0  0
 10  2  1  0  0  0  0
 11  8  1  0  0  0  0
 13 15  1  0  0  0  0
 15 14  1  6  0  0  0
 15 12  1  0  0  0  0
 17 19  1  0  0  0  0
 17 18  1  0  0  0  0
 18 26  1  6  0  0  0
 19 16  1  1  0  0  0
 19 18  1  0  0  0  0
 20 26  1  0  0  0  0
 22 25  2  0  0  0  0
 23 24  1  0  0  0  0
 24 22  1  0  0  0  0
 24 20  2  0  0  0  0
 25 21  1  0  0  0  0
 26 21  2  0  0  0  0
M  END
>  <MODEL>
1

>  <REMARK>
 VINA RESULT:      -7.9      0.000      0.000
  Name = 
  5 active torsions:
  status: ('A' for Active; 'I' for Inactive)
    1  A    between atoms: C_2  and  C_26
    2  A    between atoms: C_3  and  C_18
    3  A    between atoms: C_5  and  C_18
    4  A    between atoms: N_7  and  C_13
    5  A    between atoms: N_7  and  C_21
                            x       y       z     vdW  Elec       q    Type
                         _______ _______ _______ _____ _____    ______ ____

>  <TORSDO>
F 5

$$$$
=
 OpenBabel11042418513D

 26 29  0  0  1  0  0  0  0  0999 V2000
  186.8540  177.2200  142.1580 O   0  0  0  0  0  1  0  0  0  0  0  0
  188.8210  177.1750  145.0960 C   0  0  0  0  0  0  0  0  0  0  0  0
  184.6160  178.2160  145.0720 C   0  0  0  0  0  2  0  0  0  0  0  0
  188.6360  176.6160  146.3970 C   0  0  0  0  0  3  0  0  0  0  0  0
  186.5980  177.3240  144.4630 C   0  0  2  0  0  3  0  0  0  0  0  0
  186.1950  177.9520  143.2250 C   0  0  2  0  0  3  0  0  0  0  0  0
  185.9580  177.8790  145.6270 C   0  0  2  0  0  3  0  0  0  0  0  0
  187.4770  176.4720  147.1170 C   0  0  0  0  0  2  0  0  0  0  0  0
  184.6370  177.8410  143.4380 C   0  0  2  0  0  3  0  0  0  0  0  0
  187.9250  177.6040  144.3480 C   0  0  0  0  0  2  0  0  0  0  0  0
  186.0550  176.7980  146.7360 C   0  0  0  0  0  2  0  0  0  0  0  0
  183.9870  178.8700  142.5850 N   0  0  0  0  0  2  0  0  0  0  0  0
  184.1480  178.6080  140.3120 O   0  0  0  0  0  1  0  0  0  0  0  0
  181.9810  178.2880  141.2440 C   0  0  0  0  0  1  0  0  0  0  0  0
  183.4850  178.1150  141.4640 C   0  0  2  0  0  3  0  0  0  0  0  0
  190.2580  177.4570  144.7080 C   0  0  0  0  0  2  0  0  0  0  0  0
  192.0130  176.5810  146.2360 N   0  0  0  0  0  2  0  0  0  0  0  0
  192.7510  177.0030  145.0230 C   0  0  2  0  0  3  0  0  0  0  0  0
  191.3860  176.3480  144.8830 C   0  0  2  0  0  3  0  0  0  0  0  0
  194.5600  175.9170  143.6480 N   0  0  0  0  0  0  0  0  0  0  0  0
  194.5480  175.4250  146.0140 C   0  0  0  0  0  3  0  0  0  0  0  0
  196.3110  174.5650  144.5190 C   0  0  0  0  0  3  0  0  0  0  0  0
  196.2710  175.1310  142.1380 N   0  0  0  0  0  1  0  0  0  0  0  0
  195.6790  175.2090  143.4860 C   0  0  0  0  0  0  0  0  0  0  0  0
  195.7020  174.6750  145.8250 C   0  0  0  0  0  3  0  0  0  0  0  0
  193.9600  176.0810  144.9170 C   0  0  0  0  0  0  0  0  0  0  0  0
  2  4  2  0  0  0  0
  4  8  1  0  0  0  0
  5 10  1  1  0  0  0
  5  7  1  0  0  0  0
  6  1  1  6  0  0  0
  6  9  1  0  0  0  0
  6  5  1  0  0  0  0
  7  3  1  6  0  0  0
  7 11  1  0  0  0  0
  9 12  1  6  0  0  0
  9  3  1  0  0  0  0
 10  2  1  0  0  0  0
 11  8  1  0  0  0  0
 13 15  1  0  0  0  0
 15 14  1  6  0  0  0
 15 12  1  0  0  0  0
 16  2  1  0  0  0  0
 18 26  1  6  0  0  0
 18 17  1  0  0  0  0
 19 16  1  1  0  0  0
 19 18  1  0  0  0  0
 19 17  1  0  0  0  0
 20 26  1  0  0  0  0
 22 25  2  0  0  0  0
 23 24  1  0  0  0  0
 24 20  2  0  0  0  0
 24 22  1  0  0  0  0
 25 21  1  0  0  0  0
 26 21  2  0  0  0  0
M  END
>  <MODEL>
2

>  <REMARK>
 VINA RESULT:      -7.3      1.843      2.385
  Name = 
  5 active torsions:
  status: ('A' for Active; 'I' for Inactive)
    1  A    between atoms: C_2  and  C_26
    2  A    between atoms: C_3  and  C_18
    3  A    between atoms: C_5  and  C_18
    4  A    between atoms: N_7  and  C_13
    5  A    between atoms: N_7  and  C_21
                            x       y       z     vdW  Elec       q    Type
                         _______ _______ _______ _____ _____    ______ ____

>  <TORSDO>
F 5

$$$$
=
 OpenBabel11042418513D

 26 29  0  0  1  0  0  0  0  0999 V2000
  189.9760  177.2900  144.6740 O   0  0  0  0  0  1  0  0  0  0  0  0
  186.7930  178.4370  143.6460 C   0  0  0  0  0  0  0  0  0  0  0  0
  187.4710  176.3540  147.3820 C   0  0  0  0  0  2  0  0  0  0  0  0
  185.7570  179.1780  144.2910 C   0  0  0  0  0  3  0  0  0  0  0  0
  187.8390  177.5900  145.5300 C   0  0  2  0  0  3  0  0  0  0  0  0
  188.9270  176.6430  145.4410 C   0  0  2  0  0  3  0  0  0  0  0  0
  186.7410  177.1330  146.3420 C   0  0  2  0  0  3  0  0  0  0  0  0
  185.3740  179.1580  145.6080 C   0  0  0  0  0  2  0  0  0  0  0  0
  189.0990  176.3840  146.9870 C   0  0  2  0  0  3  0  0  0  0  0  0
  187.5810  177.6470  144.1940 C   0  0  0  0  0  2  0  0  0  0  0  0
  185.9590  178.4020  146.7730 C   0  0  0  0  0  2  0  0  0  0  0  0
  189.7750  175.0720  147.1550 N   0  0  0  0  0  2  0  0  0  0  0  0
  190.9610  176.7860  148.1140 O   0  0  0  0  0  1  0  0  0  0  0  0
  192.2270  175.2480  146.8110 C   0  0  0  0  0  1  0  0  0  0  0  0
  191.0390  175.4150  147.7590 C   0  0  2  0  0  3  0  0  0  0  0  0
  186.7670  178.4670  142.1310 C   0  0  0  0  0  2  0  0  0  0  0  0
  186.9730  177.0200  140.1190 N   0  0  0  0  0  2  0  0  0  0  0  0
  187.2960  176.1270  141.2560 C   0  0  2  0  0  3  0  0  0  0  0  0
  187.7690  177.5720  141.2770 C   0  0  2  0  0  3  0  0  0  0  0  0
  188.1430  174.6780  139.3780 N   0  0  0  0  0  0  0  0  0  0  0  0
  189.3580  174.5760  141.4640 C   0  0  0  0  0  3  0  0  0  0  0  0
  190.1020  173.3340  139.4680 C   0  0  0  0  0  3  0  0  0  0  0  0
  188.8350  173.5110  137.3820 N   0  0  0  0  0  1  0  0  0  0  0  0
  189.0230  173.8570  138.8020 C   0  0  0  0  0  0  0  0  0  0  0  0
  190.2540  173.7060  140.8560 C   0  0  0  0  0  3  0  0  0  0  0  0
  188.2840  175.0970  140.7210 C   0  0  0  0  0  0  0  0  0  0  0  0
  2 10  1  0  0  0  0
  2  4  2  0  0  0  0
  4  8  1  0  0  0  0
  5 10  1  6  0  0  0
  5  7  1  0  0  0  0
  6  1  1  1  0  0  0
  6  5  1  0  0  0  0
  6  9  1  0  0  0  0
  7 11  1  1  0  0  0
  7  3  1  0  0  0  0
  8 11  1  0  0  0  0
  9 12  1  6  0  0  0
  9  3  1  0  0  0  0
 12 15  1  0  0  0  0
 15 14  1  6  0  0  0
 15 13  1  0  0  0  0
 16  2  1  0  0  0  0
 17 18  1  0  0  0  0
 17 19  1  0  0  0  0
 18 26  1  6  0  0  0
 18 19  1  0  0  0  0
 19 16  1  1  0  0  0
 20 26  1  0  0  0  0
 22 25  2  0  0  0  0
 23 24  1  0  0  0  0
 24 20  2  0  0  0  0
 24 22  1  0  0  0  0
 25 21  1  0  0  0  0
 26 21  2  0  0  0  0
M  END
>  <MODEL>
3

>  <REMARK>
 VINA RESULT:      -7.3      3.570      6.626
  Name = 
  5 active torsions:
  status: ('A' for Active; 'I' for Inactive)
    1  A    between atoms: C_2  and  C_26
    2  A    between atoms: C_3  and  C_18
    3  A    between atoms: C_5  and  C_18
    4  A    between atoms: N_7  and  C_13
    5  A    between atoms: N_7  and  C_21
                            x       y       z     vdW  Elec       q    Type
                         _______ _______ _______ _____ _____    ______ ____

>  <TORSDO>
F 5

$$$$
=
 OpenBabel11042418513D

 26 29  0  0  1  0  0  0  0  0999 V2000
  188.5270  177.7400  143.0210 O   0  0  0  0  0  1  0  0  0  0  0  0
  190.6980  176.3560  145.4450 C   0  0  0  0  0  0  0  0  0  0  0  0
  186.6820  177.7020  146.3510 C   0  0  0  0  0  2  0  0  0  0  0  0
  190.5450  175.3480  146.4450 C   0  0  0  0  0  3  0  0  0  0  0  0
  188.4720  176.9460  145.2020 C   0  0  2  0  0  3  0  0  0  0  0  0
  188.0590  178.0460  144.3620 C   0  0  2  0  0  3  0  0  0  0  0  0
  188.0070  177.0520  146.5610 C   0  0  2  0  0  3  0  0  0  0  0  0
  189.4380  175.0370  147.1940 C   0  0  0  0  0  2  0  0  0  0  0  0
  186.5220  178.0030  144.7100 C   0  0  2  0  0  3  0  0  0  0  0  0
  189.8120  177.1260  145.0380 C   0  0  0  0  0  2  0  0  0  0  0  0
  188.0470  175.6170  147.1490 C   0  0  0  0  0  2  0  0  0  0  0  0
  185.9500  179.3410  144.4060 N   0  0  0  0  0  2  0  0  0  0  0  0
  183.6990  178.9650  144.6480 O   0  0  0  0  0  1  0  0  0  0  0  0
  184.7890  177.6930  142.9560 C   0  0  0  0  0  1  0  0  0  0  0  0
  184.7390  179.0370  143.6840 C   0  0  2  0  0  3  0  0  0  0  0  0
  192.1250  176.6360  145.0180 C   0  0  0  0  0  2  0  0  0  0  0  0
  194.5850  176.2840  144.9330 N   0  0  0  0  0  2  0  0  0  0  0  0
  194.0070  174.9450  144.6720 C   0  0  2  0  0  3  0  0  0  0  0  0
  193.3460  175.8650  145.6870 C   0  0  2  0  0  3  0  0  0  0  0  0
  194.6200  172.5770  145.2690 N   0  0  0  0  0  0  0  0  0  0  0  0
  196.3100  174.2640  145.6370 C   0  0  0  0  0  3  0  0  0  0  0  0
  196.7570  171.8710  146.0350 C   0  0  0  0  0  3  0  0  0  0  0  0
  195.0030  170.2180  145.6110 N   0  0  0  0  0  1  0  0  0  0  0  0
  195.4680  171.6170  145.6410 C   0  0  0  0  0  0  0  0  0  0  0  0
  197.1760  173.2540  146.0410 C   0  0  0  0  0  3  0  0  0  0  0  0
  195.0070  173.9350  145.2220 C   0  0  0  0  0  0  0  0  0  0  0  0
  2  4  2  0  0  0  0
  4  8  1  0  0  0  0
  5 10  1  1  0  0  0
  5  7  1  0  0  0  0
  6  1  1  6  0  0  0
  6  9  1  0  0  0  0
  6  5  1  0  0  0  0
  7  3  1  6  0  0  0
  7 11  1  0  0  0  0
  9 12  1  1  0  0  0
  9  3  1  0  0  0  0
 10  2  1  0  0  0  0
 11  8  1  0  0  0  0
 15 14  1  1  0  0  0
 15 12  1  0  0  0  0
 15 13  1  0  0  0  0
 16  2  1  0  0  0  0
 17 19  1  0  0  0  0
 18 17  1  0  0  0  0
 18 26  1  1  0  0  0
 18 19  1  0  0  0  0
 19 16  1  6  0  0  0
 20 24  1  0  0  0  0
 21 25  2  0  0  0  0
 22 25  1  0  0  0  0
 23 24  1  0  0  0  0
 24 22  2  0  0  0  0
 26 20  2  0  0  0  0
 26 21  1  0  0  0  0
M  END
>  <MODEL>
4

>  <REMARK>
 VINA RESULT:      -7.2      2.161      3.765
  Name = 
  5 active torsions:
  status: ('A' for Active; 'I' for Inactive)
    1  A    between atoms: C_2  and  C_26
    2  A    between atoms: C_3  and  C_18
    3  A    between atoms: C_5  and  C_18
    4  A    between atoms: N_7  and  C_13
    5  A    between atoms: N_7  and  C_21
                            x       y       z     vdW  Elec       q    Type
                         _______ _______ _______ _____ _____    ______ ____

>  <TORSDO>
F 5

$$$$
=
 OpenBabel11042418513D

 26 29  0  0  1  0  0  0  0  0999 V2000
  188.5910  178.2230  142.4490 O   0  0  0  0  0  1  0  0  0  0  0  0
  185.1180  178.5350  143.0380 C   0  0  0  0  0  0  0  0  0  0  0  0
  187.9040  177.0590  146.0080 C   0  0  0  0  0  2  0  0  0  0  0  0
  184.3450  179.0980  144.0990 C   0  0  0  0  0  3  0  0  0  0  0  0
  187.0780  178.1410  144.2080 C   0  0  2  0  0  3  0  0  0  0  0  0
  188.1980  177.4490  143.6140 C   0  0  2  0  0  3  0  0  0  0  0  0
  186.6170  177.5450  145.4360 C   0  0  2  0  0  3  0  0  0  0  0  0
  184.6220  179.1350  145.4420 C   0  0  0  0  0  2  0  0  0  0  0  0
  189.1120  177.4000  144.8970 C   0  0  2  0  0  3  0  0  0  0  0  0
  186.2340  177.9980  143.1490 C   0  0  0  0  0  2  0  0  0  0  0  0
  185.8370  178.6530  146.1930 C   0  0  0  0  0  2  0  0  0  0  0  0
  190.0850  176.2910  144.7200 N   0  0  0  0  0  2  0  0  0  0  0  0
  192.3300  176.7640  144.6860 O   0  0  0  0  0  1  0  0  0  0  0  0
  191.5280  175.6710  146.6430 C   0  0  0  0  0  1  0  0  0  0  0  0
  191.2020  176.6830  145.5430 C   0  0  2  0  0  3  0  0  0  0  0  0
  184.3990  178.3970  141.7120 C   0  0  0  0  0  2  0  0  0  0  0  0
  182.5360  177.7900  140.1810 N   0  0  0  0  0  2  0  0  0  0  0  0
  181.9960  178.8950  141.0060 C   0  0  2  0  0  3  0  0  0  0  0  0
  182.9030  177.8550  141.6440 C   0  0  2  0  0  3  0  0  0  0  0  0
  179.8630  178.9640  142.3440 N   0  0  0  0  0  0  0  0  0  0  0  0
  179.6940  178.1750  140.0670 C   0  0  0  0  0  3  0  0  0  0  0  0
  177.7040  178.4390  141.4990 C   0  0  0  0  0  3  0  0  0  0  0  0
  177.9530  179.2730  143.7870 N   0  0  0  0  0  1  0  0  0  0  0  0
  178.5410  178.8730  142.4950 C   0  0  0  0  0  0  0  0  0  0  0  0
  178.3200  178.0660  140.2470 C   0  0  0  0  0  3  0  0  0  0  0  0
  180.4960  178.6480  141.1200 C   0  0  0  0  0  0  0  0  0  0  0  0
  2 10  1  0  0  0  0
  2  4  2  0  0  0  0
  4  8  1  0  0  0  0
  5 10  1  6  0  0  0
  5  7  1  0  0  0  0
  6  1  1  6  0  0  0
  6  5  1  0  0  0  0
  6  9  1  0  0  0  0
  7  3  1  1  0  0  0
  7 11  1  0  0  0  0
  8 11  1  0  0  0  0
  9 12  1  6  0  0  0
  9  3  1  0  0  0  0
 12 15  1  0  0  0  0
 13 15  1  0  0  0  0
 15 14  1  1  0  0  0
 16  2  1  0  0  0  0
 17 18  1  0  0  0  0
 17 19  1  0  0  0  0
 18 26  1  1  0  0  0
 18 19  1  0  0  0  0
 19 16  1  6  0  0  0
 20 24  1  0  0  0  0
 21 25  2  0  0  0  0
 21 26  1  0  0  0  0
 22 24  2  0  0  0  0
 24 23  1  0  0  0  0
 25 22  1  0  0  0  0
 26 20  2  0  0  0  0
M  END
>  <MODEL>
5

>  <REMARK>
 VINA RESULT:      -7.1      3.553      9.931
  Name = 
  5 active torsions:
  status: ('A' for Active; 'I' for Inactive)
    1  A    between atoms: C_2  and  C_26
    2  A    between atoms: C_3  and  C_18
    3  A    between atoms: C_5  and  C_18
    4  A    between atoms: N_7  and  C_13
    5  A    between atoms: N_7  and  C_21
                            x       y       z     vdW  Elec       q    Type
                         _______ _______ _______ _____ _____    ______ ____

>  <TORSDO>
F 5

$$$$
=
 OpenBabel11042418513D

 26 29  0  0  1  0  0  0  0  0999 V2000
  187.2520  176.9590  142.0920 O   0  0  0  0  0  1  0  0  0  0  0  0
  189.2510  176.9670  145.0090 C   0  0  0  0  0  0  0  0  0  0  0  0
  185.0960  178.1910  144.9770 C   0  0  0  0  0  2  0  0  0  0  0  0
  189.0580  176.4810  146.3370 C   0  0  0  0  0  3  0  0  0  0  0  0
  187.0290  177.1840  144.3920 C   0  0  2  0  0  3  0  0  0  0  0  0
  186.6390  177.7690  143.1290 C   0  0  2  0  0  3  0  0  0  0  0  0
  186.4290  177.8230  145.5340 C   0  0  2  0  0  3  0  0  0  0  0  0
  187.9030  176.4230  147.0750 C   0  0  0  0  0  2  0  0  0  0  0  0
  185.0800  177.7370  143.3630 C   0  0  2  0  0  3  0  0  0  0  0  0
  188.3660  177.4000  144.2500 C   0  0  0  0  0  2  0  0  0  0  0  0
  186.4920  176.7940  146.6940 C   0  0  0  0  0  2  0  0  0  0  0  0
  184.4660  178.7520  142.4680 N   0  0  0  0  0  2  0  0  0  0  0  0
  184.6070  178.2770  140.2280 O   0  0  0  0  0  1  0  0  0  0  0  0
  182.4130  178.2880  141.1520 C   0  0  0  0  0  1  0  0  0  0  0  0
  183.8860  177.9640  141.4090 C   0  0  2  0  0  3  0  0  0  0  0  0
  190.6940  177.1670  144.5930 C   0  0  0  0  0  2  0  0  0  0  0  0
  193.1440  177.1790  145.0210 N   0  0  0  0  0  2  0  0  0  0  0  0
  192.8850  175.8730  144.3720 C   0  0  2  0  0  3  0  0  0  0  0  0
  191.8780  176.4320  145.3640 C   0  0  2  0  0  3  0  0  0  0  0  0
  193.5910  173.5340  144.9800 N   0  0  0  0  0  0  0  0  0  0  0  0
  195.2100  175.2900  145.3500 C   0  0  0  0  0  3  0  0  0  0  0  0
  195.7520  172.9190  145.7590 C   0  0  0  0  0  3  0  0  0  0  0  0
  194.0680  171.1940  145.3330 N   0  0  0  0  0  1  0  0  0  0  0  0
  194.4760  172.6110  145.3600 C   0  0  0  0  0  0  0  0  0  0  0  0
  196.1130  174.3180  145.7620 C   0  0  0  0  0  3  0  0  0  0  0  0
  193.9230  174.9070  144.9300 C   0  0  0  0  0  0  0  0  0  0  0  0
  2  4  2  0  0  0  0
  4  8  1  0  0  0  0
  5 10  1  1  0  0  0
  5  7  1  0  0  0  0
  6  1  1  6  0  0  0
  6  9  1  0  0  0  0
  6  5  1  0  0  0  0
  7  3  1  6  0  0  0
  7 11  1  0  0  0  0
  9 12  1  6  0  0  0
  9  3  1  0  0  0  0
 10  2  1  0  0  0  0
 11  8  1  0  0  0  0
 13 15  1  0  0  0  0
 15 14  1  6  0  0  0
 15 12  1  0  0  0  0
 16  2  1  0  0  0  0
 17 19  1  0  0  0  0
 18 26  1  1  0  0  0
 18 17  1  0  0  0  0
 18 19  1  0  0  0  0
 19 16  1  6  0  0  0
 20 24  1  0  0  0  0
 21 25  2  0  0  0  0
 22 25  1  0  0  0  0
 23 24  1  0  0  0  0
 24 22  2  0  0  0  0
 26 20  2  0  0  0  0
 26 21  1  0  0  0  0
M  END
>  <MODEL>
6

>  <REMARK>
 VINA RESULT:      -7.0      1.646      2.433
  Name = 
  5 active torsions:
  status: ('A' for Active; 'I' for Inactive)
    1  A    between atoms: C_2  and  C_26
    2  A    between atoms: C_3  and  C_18
    3  A    between atoms: C_5  and  C_18
    4  A    between atoms: N_7  and  C_13
    5  A    between atoms: N_7  and  C_21
                            x       y       z     vdW  Elec       q    Type
                         _______ _______ _______ _____ _____    ______ ____

>  <TORSDO>
F 5

$$$$
=
 OpenBabel11042418513D

 26 29  0  0  1  0  0  0  0  0999 V2000
  188.2810  177.7060  147.3270 O   0  0  0  0  0  1  0  0  0  0  0  0
  190.9370  177.0660  145.0810 C   0  0  0  0  0  0  0  0  0  0  0  0
  186.7740  177.1060  143.8830 C   0  0  0  0  0  2  0  0  0  0  0  0
  191.2750  177.5650  143.7870 C   0  0  0  0  0  3  0  0  0  0  0  0
  188.6650  177.5160  145.0450 C   0  0  2  0  0  3  0  0  0  0  0  0
  187.7840  177.0920  146.1080 C   0  0  2  0  0  3  0  0  0  0  0  0
  188.2570  177.0610  143.7410 C   0  0  2  0  0  3  0  0  0  0  0  0
  190.4420  177.9440  142.7640 C   0  0  0  0  0  2  0  0  0  0  0  0
  186.4310  177.5720  145.4550 C   0  0  2  0  0  3  0  0  0  0  0  0
  189.7880  176.9230  145.5360 C   0  0  0  0  0  2  0  0  0  0  0  0
  188.9370  178.0070  142.7160 C   0  0  0  0  0  2  0  0  0  0  0  0
  185.3270  176.7950  146.0760 N   0  0  0  0  0  2  0  0  0  0  0  0
  184.0440  178.5810  145.4220 O   0  0  0  0  0  1  0  0  0  0  0  0
  185.0590  178.7620  147.5680 C   0  0  0  0  0  1  0  0  0  0  0  0
  184.4220  177.8120  146.5530 C   0  0  2  0  0  3  0  0  0  0  0  0
  192.0840  176.4620  145.8650 C   0  0  0  0  0  2  0  0  0  0  0  0
  193.3270  174.3200  146.0940 N   0  0  0  0  0  2  0  0  0  0  0  0
  194.3810  175.3580  146.0230 C   0  0  2  0  0  3  0  0  0  0  0  0
  193.1350  175.4930  145.1630 C   0  0  2  0  0  3  0  0  0  0  0  0
  196.2080  175.3630  144.2900 N   0  0  0  0  0  0  0  0  0  0  0  0
  196.1540  173.4840  145.8070 C   0  0  0  0  0  3  0  0  0  0  0  0
  197.9380  173.7410  144.1240 C   0  0  0  0  0  3  0  0  0  0  0  0
  197.9410  175.6880  142.6420 N   0  0  0  0  0  1  0  0  0  0  0  0
  197.3260  174.9030  143.7270 C   0  0  0  0  0  0  0  0  0  0  0  0
  197.3080  173.0070  145.1980 C   0  0  0  0  0  3  0  0  0  0  0  0
  195.5880  174.6950  145.3700 C   0  0  0  0  0  0  0  0  0  0  0  0
  2 10  1  0  0  0  0
  2 16  1  0  0  0  0
  3  9  1  0  0  0  0
  4  2  2  0  0  0  0
  5 10  1  1  0  0  0
  5  6  1  0  0  0  0
  6  1  1  1  0  0  0
  7 11  1  6  0  0  0
  7  3  1  0  0  0  0
  7  5  1  0  0  0  0
  8  4  1  0  0  0  0
  9 12  1  1  0  0  0
  9  6  1  0  0  0  0
 11  8  1  0  0  0  0
 12 15  1  0  0  0  0
 13 15  1  0  0  0  0
 15 14  1  1  0  0  0
 18 26  1  6  0  0  0
 18 17  1  0  0  0  0
 19 16  1  1  0  0  0
 19 18  1  0  0  0  0
 19 17  1  0  0  0  0
 20 26  1  0  0  0  0
 22 25  2  0  0  0  0
 23 24  1  0  0  0  0
 24 22  1  0  0  0  0
 24 20  2  0  0  0  0
 25 21  1  0  0  0  0
 26 21  2  0  0  0  0
M  END
>  <MODEL>
7

>  <REMARK>
 VINA RESULT:      -7.0      2.756      4.579
  Name = 
  5 active torsions:
  status: ('A' for Active; 'I' for Inactive)
    1  A    between atoms: C_2  and  C_26
    2  A    between atoms: C_3  and  C_18
    3  A    between atoms: C_5  and  C_18
    4  A    between atoms: N_7  and  C_13
    5  A    between atoms: N_7  and  C_21
                            x       y       z     vdW  Elec       q    Type
                         _______ _______ _______ _____ _____    ______ ____

>  <TORSDO>
F 5

$$$$
=
 OpenBabel11042418513D

 26 29  0  0  1  0  0  0  0  0999 V2000
  188.3110  178.1370  144.5290 O   0  0  0  0  0  1  0  0  0  0  0  0
  187.6330  176.3690  141.5420 C   0  0  0  0  0  0  0  0  0  0  0  0
  184.6870  178.8050  143.5780 C   0  0  0  0  0  2  0  0  0  0  0  0
  187.0170  176.7260  140.3040 C   0  0  0  0  0  3  0  0  0  0  0  0
  186.6760  177.9930  142.8870 C   0  0  2  0  0  3  0  0  0  0  0  0
  186.8790  178.0200  144.3170 C   0  0  2  0  0  3  0  0  0  0  0  0
  185.2890  177.9680  142.5020 C   0  0  2  0  0  3  0  0  0  0  0  0
  185.9840  177.5990  140.0750 C   0  0  0  0  0  2  0  0  0  0  0  0
  185.9150  179.2260  144.6380 C   0  0  2  0  0  3  0  0  0  0  0  0
  187.3570  176.8360  142.6610 C   0  0  0  0  0  2  0  0  0  0  0  0
  185.2330  178.4820  141.0390 C   0  0  0  0  0  2  0  0  0  0  0  0
  185.5230  179.1260  146.0680 N   0  0  0  0  0  2  0  0  0  0  0  0
  184.0110  177.4720  146.5590 O   0  0  0  0  0  1  0  0  0  0  0  0
  186.1890  177.1940  147.4780 C   0  0  0  0  0  1  0  0  0  0  0  0
  185.3830  177.7070  146.2840 C   0  0  2  0  0  3  0  0  0  0  0  0
  188.5460  175.1610  141.4900 C   0  0  0  0  0  2  0  0  0  0  0  0
  190.3090  173.6940  142.4510 N   0  0  0  0  0  2  0  0  0  0  0  0
  189.7670  174.4370  143.6120 C   0  0  2  0  0  3  0  0  0  0  0  0
  189.9290  175.1450  142.2760 C   0  0  2  0  0  3  0  0  0  0  0  0
  190.7820  175.5230  145.6450 N   0  0  0  0  0  0  0  0  0  0  0  0
  192.0860  173.7980  144.5680 C   0  0  0  0  0  3  0  0  0  0  0  0
  192.8450  174.8910  146.6450 C   0  0  0  0  0  3  0  0  0  0  0  0
  191.4540  176.6100  147.6930 N   0  0  0  0  0  1  0  0  0  0  0  0
  191.6970  175.6410  146.6090 C   0  0  0  0  0  0  0  0  0  0  0  0
  193.0400  173.9470  145.5680 C   0  0  0  0  0  3  0  0  0  0  0  0
  190.9180  174.5810  144.6010 C   0  0  0  0  0  0  0  0  0  0  0  0
  2 10  1  0  0  0  0
  3  9  1  0  0  0  0
  4  2  2  0  0  0  0
  5 10  1  1  0  0  0
  5  6  1  0  0  0  0
  6  1  1  6  0  0  0
  6  9  1  0  0  0  0
  7 11  1  6  0  0  0
  7  5  1  0  0  0  0
  7  3  1  0  0  0  0
  8  4  1  0  0  0  0
  8 11  1  0  0  0  0
  9 12  1  1  0  0  0
 12 15  1  0  0  0  0
 15 13  1  0  0  0  0
 15 14  1  1  0  0  0
 16  2  1  0  0  0  0
 17 18  1  0  0  0  0
 18 26  1  1  0  0  0
 19 16  1  6  0  0  0
 19 17  1  0  0  0  0
 19 18  1  0  0  0  0
 20 24  1  0  0  0  0
 21 26  1  0  0  0  0
 21 25  2  0  0  0  0
 24 22  2  0  0  0  0
 24 23  1  0  0  0  0
 25 22  1  0  0  0  0
 26 20  2  0  0  0  0
M  END
>  <MODEL>
8

>  <REMARK>
 VINA RESULT:      -6.9      2.398      4.525
  Name = 
  5 active torsions:
  status: ('A' for Active; 'I' for Inactive)
    1  A    between atoms: C_2  and  C_26
    2  A    between atoms: C_3  and  C_18
    3  A    between atoms: C_5  and  C_18
    4  A    between atoms: N_7  and  C_13
    5  A    between atoms: N_7  and  C_21
                            x       y       z     vdW  Elec       q    Type
                         _______ _______ _______ _____ _____    ______ ____

>  <TORSDO>
F 5

$$$$
=
 OpenBabel11042418513D

 26 29  0  0  1  0  0  0  0  0999 V2000
  193.9300  175.8170  146.5160 O   0  0  0  0  0  1  0  0  0  0  0  0
  190.6430  174.6150  146.0070 C   0  0  0  0  0  0  0  0  0  0  0  0
  193.6430  174.7160  142.8830 C   0  0  0  0  0  2  0  0  0  0  0  0
  190.1070  173.4390  145.4010 C   0  0  0  0  0  3  0  0  0  0  0  0
  192.6940  174.6570  144.9300 C   0  0  2  0  0  3  0  0  0  0  0  0
  193.6240  175.7490  145.0980 C   0  0  2  0  0  3  0  0  0  0  0  0
  192.3520  174.3960  143.5560 C   0  0  2  0  0  3  0  0  0  0  0  0
  190.5810  172.7290  144.3270 C   0  0  0  0  0  2  0  0  0  0  0  0
  194.7060  175.2570  144.0610 C   0  0  2  0  0  3  0  0  0  0  0  0
  191.6920  175.1970  145.6790 C   0  0  0  0  0  2  0  0  0  0  0  0
  191.8280  172.9360  143.5060 C   0  0  0  0  0  2  0  0  0  0  0  0
  195.5040  176.4390  143.6420 N   0  0  0  0  0  2  0  0  0  0  0  0
  196.9520  175.6400  142.0530 O   0  0  0  0  0  1  0  0  0  0  0  0
  197.0650  174.5860  144.1840 C   0  0  0  0  0  1  0  0  0  0  0  0
  196.8270  175.9010  143.4410 C   0  0  2  0  0  3  0  0  0  0  0  0
  189.7250  175.3190  146.9850 C   0  0  0  0  0  2  0  0  0  0  0  0
  188.3530  176.4490  145.2470 N   0  0  0  0  0  2  0  0  0  0  0  0
  188.1240  177.2420  146.4770 C   0  0  2  0  0  3  0  0  0  0  0  0
  188.2450  175.7290  146.5690 C   0  0  2  0  0  3  0  0  0  0  0  0
  186.2010  178.0590  145.0700 N   0  0  0  0  0  0  0  0  0  0  0  0
  185.8670  178.0380  147.4640 C   0  0  0  0  0  3  0  0  0  0  0  0
  184.0640  178.6790  145.9070 C   0  0  0  0  0  3  0  0  0  0  0  0
  184.4700  178.6470  143.4940 N   0  0  0  0  0  1  0  0  0  0  0  0
  184.9430  178.4560  144.8780 C   0  0  0  0  0  0  0  0  0  0  0  0
  184.5650  178.4720  147.2470 C   0  0  0  0  0  3  0  0  0  0  0  0
  186.7120  177.8040  146.3640 C   0  0  0  0  0  0  0  0  0  0  0  0
  2 16  1  0  0  0  0
  3  9  1  0  0  0  0
  4  2  2  0  0  0  0
  5  6  1  0  0  0  0
  5 10  1  1  0  0  0
  6  1  1  1  0  0  0
  7  3  1  6  0  0  0
  7  5  1  0  0  0  0
  8  4  1  0  0  0  0
  9 12  1  6  0  0  0
  9  6  1  0  0  0  0
 10  2  1  0  0  0  0
 11  7  1  0  0  0  0
 11  8  1  0  0  0  0
 13 15  1  0  0  0  0
 15 12  1  0  0  0  0
 15 14  1  1  0  0  0
 17 18  1  0  0  0  0
 17 19  1  0  0  0  0
 18 26  1  6  0  0  0
 18 19  1  0  0  0  0
 19 16  1  1  0  0  0
 20 26  1  0  0  0  0
 22 25  2  0  0  0  0
 23 24  1  0  0  0  0
 24 20  2  0  0  0  0
 24 22  1  0  0  0  0
 25 21  1  0  0  0  0
 26 21  2  0  0  0  0
M  END
>  <MODEL>
9

>  <REMARK>
 VINA RESULT:      -6.8      3.441      8.532
  Name = 
  5 active torsions:
  status: ('A' for Active; 'I' for Inactive)
    1  A    between atoms: C_2  and  C_26
    2  A    between atoms: C_3  and  C_18
    3  A    between atoms: C_5  and  C_18
    4  A    between atoms: N_7  and  C_13
    5  A    between atoms: N_7  and  C_21
                            x       y       z     vdW  Elec       q    Type
                         _______ _______ _______ _____ _____    ______ ____

>  <TORSDO>
F 5

$$$$
