=
 OpenBabel11042417273D

 29 33  0  0  1  0  0  0  0  0999 V2000
  183.4110  178.4620  140.5120 N   0  0  0  0  0  1  0  0  0  0  0  0
  184.0030  178.1070  142.8200 N   0  0  0  0  0  0  0  0  0  0  0  0
  186.6990  178.1070  142.1950 C   0  0  0  0  0  0  0  0  0  0  0  0
  188.7280  175.2810  146.9800 C   0  0  0  0  0  1  0  0  0  0  0  0
  188.6310  177.5490  144.1240 C   0  0  2  0  0  3  0  0  0  0  0  0
  190.2240  177.1390  142.4270 N   0  0  0  0  0  0  0  0  0  0  0  0
  185.7470  178.2910  141.1930 C   0  0  0  0  0  3  0  0  0  0  0  0
  187.2960  177.9090  144.6480 C   0  0  1  0  0  3  0  0  0  0  0  0
  184.9080  177.9400  143.8220 C   0  0  0  0  0  3  0  0  0  0  0  0
  191.0090  176.4480  143.3170 C   0  0  1  0  0  3  0  0  0  0  0  0
  189.0100  177.6360  142.7980 C   0  0  0  0  0  0  0  0  0  0  0  0
  190.5180  176.1650  144.6130 C   0  0  0  0  0  3  0  0  0  0  0  0
  186.2750  177.9150  143.5360 C   0  0  0  0  0  0  0  0  0  0  0  0
  188.4580  176.3720  146.0600 N   0  0  0  0  0  0  0  0  0  0  0  0
  188.0680  178.0730  141.8600 O   0  0  0  0  0  0  0  0  0  0  0  0
  189.3010  176.7420  144.9820 C   0  0  0  0  0  0  0  0  0  0  0  0
  187.1090  176.8800  145.7840 C   0  0  0  0  0  2  0  0  0  0  0  0
  184.3910  178.2830  141.5270 C   0  0  0  0  0  0  0  0  0  0  0  0
  192.6920  174.5920  143.2650 N   0  0  0  0  0  2  0  0  0  0  0  0
  193.0810  176.6190  142.1760 O   0  0  0  0  0  0  0  0  0  0  0  0
  192.3070  175.9140  142.8810 C   0  0  0  0  0  0  0  0  0  0  0  0
  195.0030  174.0780  144.0690 C   0  0  1  0  0  3  0  0  0  0  0  0
  194.2310  172.8040  143.7620 C   0  0  0  0  0  2  0  0  0  0  0  0
  193.9890  174.0300  142.9130 C   0  0  1  0  0  3  0  0  0  0  0  0
  193.4920  174.0400  146.0730 C   0  0  0  0  0  1  0  0  0  0  0  0
  194.4810  174.7480  145.2680 N   0  0  0  0  0  0  0  0  0  0  0  0
  194.7010  176.1520  145.4910 C   0  0  0  0  0  0  0  0  0  0  0  0
  194.1970  176.8200  146.7270 C   0  0  0  0  0  1  0  0  0  0  0  0
  195.3250  176.8430  144.6440 O   0  0  0  0  0  0  0  0  0  0  0  0
  1 18  1  0  0  0  0
  2  9  1  0  0  0  0
  3 13  1  0  0  0  0
  5 11  1  6  0  0  0
  5  8  1  0  0  0  0
  5 16  1  0  0  0  0
  6 11  2  0  0  0  0
  6 10  1  0  0  0  0
  7 18  1  0  0  0  0
  7  3  2  0  0  0  0
  8 17  1  1  0  0  0
 10 21  1  6  0  0  0
 10 12  1  0  0  0  0
 12 16  2  0  0  0  0
 13  9  2  0  0  0  0
 13  8  1  0  0  0  0
 14  4  1  0  0  0  0
 15  3  1  0  0  0  0
 15 11  1  0  0  0  0
 16 14  1  0  0  0  0
 17 14  1  0  0  0  0
 18  2  2  0  0  0  0
 20 21  2  0  0  0  0
 21 19  1  0  0  0  0
 22 26  1  1  0  0  0
 23 22  1  0  0  0  0
 24 19  1  1  0  0  0
 24 23  1  0  0  0  0
 24 22  1  0  0  0  0
 26 27  1  0  0  0  0
 26 25  1  0  0  0  0
 27 28  1  0  0  0  0
 29 27  2  0  0  0  0
M  END
>  <MODEL>
1

>  <REMARK>
 VINA RESULT:      -7.8      0.000      0.000
  Name = 
  3 active torsions:
  status: ('A' for Active; 'I' for Inactive)
    1  A    between atoms: N_2  and  C_25
    2  A    between atoms: N_6  and  C_11
    3  A    between atoms: C_14  and  C_18
                            x       y       z     vdW  Elec       q    Type
                         _______ _______ _______ _____ _____    ______ ____

>  <TORSDO>
F 3

$$$$
=
 OpenBabel11042417273D

 29 33  0  0  1  0  0  0  0  0999 V2000
  185.8530  177.6680  139.8780 N   0  0  0  0  0  1  0  0  0  0  0  0
  185.7800  177.1560  142.2310 N   0  0  0  0  0  0  0  0  0  0  0  0
  188.4610  177.7800  142.5160 C   0  0  0  0  0  0  0  0  0  0  0  0
  189.5340  174.8520  147.5420 C   0  0  0  0  0  1  0  0  0  0  0  0
  189.7880  177.3890  144.9340 C   0  0  2  0  0  3  0  0  0  0  0  0
  191.8720  177.5250  143.8260 N   0  0  0  0  0  0  0  0  0  0  0  0
  187.8440  177.8910  141.2700 C   0  0  0  0  0  3  0  0  0  0  0  0
  188.3120  177.4040  145.0150 C   0  0  1  0  0  3  0  0  0  0  0  0
  186.3500  177.0520  143.4620 C   0  0  0  0  0  3  0  0  0  0  0  0
  192.4860  176.9020  144.8850 C   0  0  1  0  0  3  0  0  0  0  0  0
  190.5220  177.7160  143.8090 C   0  0  0  0  0  0  0  0  0  0  0  0
  191.7030  176.3670  145.9350 C   0  0  0  0  0  3  0  0  0  0  0  0
  187.7060  177.3410  143.6340 C   0  0  0  0  0  0  0  0  0  0  0  0
  189.3120  175.9710  146.6440 N   0  0  0  0  0  0  0  0  0  0  0  0
  189.8360  178.0660  142.6410 O   0  0  0  0  0  0  0  0  0  0  0  0
  190.3330  176.6350  145.9190 C   0  0  0  0  0  0  0  0  0  0  0  0
  188.0320  176.2250  145.9730 C   0  0  0  0  0  2  0  0  0  0  0  0
  186.4910  177.5660  141.1450 C   0  0  0  0  0  0  0  0  0  0  0  0
  194.5690  176.1850  143.6890 N   0  0  0  0  0  2  0  0  0  0  0  0
  194.6360  176.9740  145.8830 O   0  0  0  0  0  0  0  0  0  0  0  0
  193.9420  176.7010  144.8660 C   0  0  0  0  0  0  0  0  0  0  0  0
  196.3160  174.4190  143.4180 C   0  0  1  0  0  3  0  0  0  0  0  0
  196.3330  175.3920  142.2500 C   0  0  0  0  0  2  0  0  0  0  0  0
  195.9970  175.9090  143.6290 C   0  0  1  0  0  3  0  0  0  0  0  0
  194.3670  173.4780  142.1480 C   0  0  0  0  0  1  0  0  0  0  0  0
  195.1190  173.5680  143.3940 N   0  0  0  0  0  0  0  0  0  0  0  0
  194.5320  173.0760  144.6110 C   0  0  0  0  0  0  0  0  0  0  0  0
  193.3350  172.1850  144.5790 C   0  0  0  0  0  1  0  0  0  0  0  0
  195.0210  173.3890  145.7290 O   0  0  0  0  0  0  0  0  0  0  0  0
  1 18  1  0  0  0  0
  2  9  1  0  0  0  0
  3 15  1  0  0  0  0
  3 13  1  0  0  0  0
  5 11  1  6  0  0  0
  5  8  1  0  0  0  0
  5 16  1  0  0  0  0
  6 10  1  0  0  0  0
  7  3  2  0  0  0  0
  8 17  1  1  0  0  0
  9 13  2  0  0  0  0
 10 21  1  6  0  0  0
 10 12  1  0  0  0  0
 11  6  2  0  0  0  0
 13  8  1  0  0  0  0
 14  4  1  0  0  0  0
 15 11  1  0  0  0  0
 16 12  2  0  0  0  0
 16 14  1  0  0  0  0
 17 14  1  0  0  0  0
 18  7  1  0  0  0  0
 18  2  2  0  0  0  0
 19 21  1  0  0  0  0
 21 20  2  0  0  0  0
 22 26  1  6  0  0  0
 22 24  1  0  0  0  0
 23 22  1  0  0  0  0
 23 24  1  0  0  0  0
 24 19  1  6  0  0  0
 25 26  1  0  0  0  0
 26 27  1  0  0  0  0
 27 29  2  0  0  0  0
 28 27  1  0  0  0  0
M  END
>  <MODEL>
2

>  <REMARK>
 VINA RESULT:      -7.6      1.725      2.521
  Name = 
  3 active torsions:
  status: ('A' for Active; 'I' for Inactive)
    1  A    between atoms: N_2  and  C_25
    2  A    between atoms: N_6  and  C_11
    3  A    between atoms: C_14  and  C_18
                            x       y       z     vdW  Elec       q    Type
                         _______ _______ _______ _____ _____    ______ ____

>  <TORSDO>
F 3

$$$$
=
 OpenBabel11042417273D

 29 33  0  0  1  0  0  0  0  0999 V2000
  184.3500  178.2840  140.5010 N   0  0  0  0  0  1  0  0  0  0  0  0
  184.6840  177.7040  142.8150 N   0  0  0  0  0  0  0  0  0  0  0  0
  187.4150  178.0870  142.5850 C   0  0  0  0  0  0  0  0  0  0  0  0
  189.1630  174.9150  147.2620 C   0  0  0  0  0  1  0  0  0  0  0  0
  189.1400  177.5060  144.6950 C   0  0  2  0  0  3  0  0  0  0  0  0
  190.9760  177.4990  143.2060 N   0  0  0  0  0  0  0  0  0  0  0  0
  186.5830  178.2910  141.4840 C   0  0  0  0  0  3  0  0  0  0  0  0
  187.7140  177.6440  145.0600 C   0  0  1  0  0  3  0  0  0  0  0  0
  185.4670  177.5120  143.9110 C   0  0  0  0  0  3  0  0  0  0  0  0
  191.7240  176.7930  144.1160 C   0  0  1  0  0  3  0  0  0  0  0  0
  189.6710  177.8050  143.4540 C   0  0  0  0  0  0  0  0  0  0  0  0
  191.1120  176.2920  145.2890 C   0  0  0  0  0  3  0  0  0  0  0  0
  186.8520  177.6780  143.8220 C   0  0  0  0  0  0  0  0  0  0  0  0
  188.8750  176.0780  146.4420 N   0  0  0  0  0  0  0  0  0  0  0  0
  188.8090  178.2510  142.4460 O   0  0  0  0  0  0  0  0  0  0  0  0
  189.7930  176.6760  145.5430 C   0  0  0  0  0  0  0  0  0  0  0  0
  187.5180  176.4620  146.0360 C   0  0  0  0  0  2  0  0  0  0  0  0
  185.2070  178.0870  141.6190 C   0  0  0  0  0  0  0  0  0  0  0  0
  193.5170  176.2300  142.4580 N   0  0  0  0  0  2  0  0  0  0  0  0
  193.9760  176.3940  144.7400 O   0  0  0  0  0  0  0  0  0  0  0  0
  193.1240  176.4680  143.8120 C   0  0  0  0  0  0  0  0  0  0  0  0
  194.9690  174.4320  141.5040 C   0  0  1  0  0  3  0  0  0  0  0  0
  194.9490  175.6590  140.6050 C   0  0  0  0  0  2  0  0  0  0  0  0
  194.8760  175.8470  142.1010 C   0  0  1  0  0  3  0  0  0  0  0  0
  192.7550  174.0230  140.3960 C   0  0  0  0  0  1  0  0  0  0  0  0
  193.6810  173.7280  141.4830 N   0  0  0  0  0  0  0  0  0  0  0  0
  193.2120  172.9990  142.6320 C   0  0  0  0  0  0  0  0  0  0  0  0
  191.9170  172.2580  142.5940 C   0  0  0  0  0  1  0  0  0  0  0  0
  193.8910  172.9740  143.6920 O   0  0  0  0  0  0  0  0  0  0  0  0
  1 18  1  0  0  0  0
  2  9  1  0  0  0  0
  3 13  1  0  0  0  0
  5 11  1  6  0  0  0
  5  8  1  0  0  0  0
  5 16  1  0  0  0  0
  6 11  2  0  0  0  0
  6 10  1  0  0  0  0
  7 18  1  0  0  0  0
  7  3  2  0  0  0  0
  8 17  1  1  0  0  0
 10 21  1  6  0  0  0
 10 12  1  0  0  0  0
 12 16  2  0  0  0  0
 13  9  2  0  0  0  0
 13  8  1  0  0  0  0
 14  4  1  0  0  0  0
 15  3  1  0  0  0  0
 15 11  1  0  0  0  0
 16 14  1  0  0  0  0
 17 14  1  0  0  0  0
 18  2  2  0  0  0  0
 19 21  1  0  0  0  0
 21 20  2  0  0  0  0
 22 26  1  6  0  0  0
 22 24  1  0  0  0  0
 23 22  1  0  0  0  0
 23 24  1  0  0  0  0
 24 19  1  6  0  0  0
 25 26  1  0  0  0  0
 26 27  1  0  0  0  0
 27 29  2  0  0  0  0
 28 27  1  0  0  0  0
M  END
>  <MODEL>
3

>  <REMARK>
 VINA RESULT:      -7.3      1.613      2.534
  Name = 
  3 active torsions:
  status: ('A' for Active; 'I' for Inactive)
    1  A    between atoms: N_2  and  C_25
    2  A    between atoms: N_6  and  C_11
    3  A    between atoms: C_14  and  C_18
                            x       y       z     vdW  Elec       q    Type
                         _______ _______ _______ _____ _____    ______ ____

>  <TORSDO>
F 3

$$$$
=
 OpenBabel11042417273D

 29 33  0  0  1  0  0  0  0  0999 V2000
  182.5770  178.2070  140.1380 N   0  0  0  0  0  1  0  0  0  0  0  0
  183.1350  178.3580  142.4760 N   0  0  0  0  0  0  0  0  0  0  0  0
  185.8400  178.2520  141.9050 C   0  0  0  0  0  0  0  0  0  0  0  0
  187.8110  176.5340  147.2110 C   0  0  0  0  0  1  0  0  0  0  0  0
  187.7440  178.1380  143.9360 C   0  0  2  0  0  3  0  0  0  0  0  0
  189.3670  177.3910  142.3880 N   0  0  0  0  0  0  0  0  0  0  0  0
  184.9030  178.2090  140.8730 C   0  0  0  0  0  3  0  0  0  0  0  0
  186.3990  178.5890  144.3510 C   0  0  1  0  0  3  0  0  0  0  0  0
  184.0250  178.4180  143.5040 C   0  0  0  0  0  3  0  0  0  0  0  0
  190.1430  176.9140  143.4160 C   0  0  1  0  0  3  0  0  0  0  0  0
  188.1450  177.9440  142.6270 C   0  0  0  0  0  0  0  0  0  0  0  0
  189.6330  176.9090  144.7360 C   0  0  0  0  0  3  0  0  0  0  0  0
  185.3960  178.3470  143.2490 C   0  0  0  0  0  0  0  0  0  0  0  0
  187.5490  177.4000  146.0750 N   0  0  0  0  0  0  0  0  0  0  0  0
  187.2150  178.1610  141.6040 O   0  0  0  0  0  0  0  0  0  0  0  0
  188.4060  177.5400  144.9550 C   0  0  0  0  0  0  0  0  0  0  0  0
  186.2010  177.8240  145.6780 C   0  0  0  0  0  2  0  0  0  0  0  0
  183.5420  178.2580  141.1820 C   0  0  0  0  0  0  0  0  0  0  0  0
  191.5520  175.2910  142.1270 N   0  0  0  0  0  2  0  0  0  0  0  0
  192.4800  176.6880  143.7490 O   0  0  0  0  0  0  0  0  0  0  0  0
  191.4510  176.3120  143.1220 C   0  0  0  0  0  0  0  0  0  0  0  0
  192.7570  173.1010  142.0950 C   0  0  1  0  0  3  0  0  0  0  0  0
  192.5870  173.6560  140.6900 C   0  0  0  0  0  2  0  0  0  0  0  0
  192.8090  174.6160  141.8330 C   0  0  1  0  0  3  0  0  0  0  0  0
  190.3790  172.3850  141.7360 C   0  0  0  0  0  1  0  0  0  0  0  0
  191.4760  172.6550  142.6580 N   0  0  0  0  0  0  0  0  0  0  0  0
  191.2050  172.7580  144.0670 C   0  0  0  0  0  0  0  0  0  0  0  0
  189.9140  172.2730  144.6370 C   0  0  0  0  0  1  0  0  0  0  0  0
  192.0580  173.2610  144.8450 O   0  0  0  0  0  0  0  0  0  0  0  0
  1 18  1  0  0  0  0
  2  9  1  0  0  0  0
  3 13  1  0  0  0  0
  5 11  1  6  0  0  0
  5  8  1  0  0  0  0
  5 16  1  0  0  0  0
  6 11  2  0  0  0  0
  6 10  1  0  0  0  0
  7 18  1  0  0  0  0
  7  3  2  0  0  0  0
  8 17  1  1  0  0  0
 10 21  1  6  0  0  0
 10 12  1  0  0  0  0
 12 16  2  0  0  0  0
 13  9  2  0  0  0  0
 13  8  1  0  0  0  0
 14  4  1  0  0  0  0
 15  3  1  0  0  0  0
 15 11  1  0  0  0  0
 16 14  1  0  0  0  0
 17 14  1  0  0  0  0
 18  2  2  0  0  0  0
 19 21  1  0  0  0  0
 21 20  2  0  0  0  0
 22 26  1  1  0  0  0
 23 24  1  0  0  0  0
 23 22  1  0  0  0  0
 24 22  1  0  0  0  0
 24 19  1  1  0  0  0
 25 26  1  0  0  0  0
 26 27  1  0  0  0  0
 27 28  1  0  0  0  0
 27 29  2  0  0  0  0
M  END
>  <MODEL>
4

>  <REMARK>
 VINA RESULT:      -7.3      2.015      2.613
  Name = 
  3 active torsions:
  status: ('A' for Active; 'I' for Inactive)
    1  A    between atoms: N_2  and  C_25
    2  A    between atoms: N_6  and  C_11
    3  A    between atoms: C_14  and  C_18
                            x       y       z     vdW  Elec       q    Type
                         _______ _______ _______ _____ _____    ______ ____

>  <TORSDO>
F 3

$$$$
=
 OpenBabel11042417273D

 29 33  0  0  1  0  0  0  0  0999 V2000
  186.0280  177.1950  138.6430 N   0  0  0  0  0  1  0  0  0  0  0  0
  185.0660  177.8120  140.7640 N   0  0  0  0  0  0  0  0  0  0  0  0
  187.5500  177.7470  141.9820 C   0  0  0  0  0  0  0  0  0  0  0  0
  185.7800  177.1630  147.5960 C   0  0  0  0  0  1  0  0  0  0  0  0
  187.8230  178.1190  144.7300 C   0  0  2  0  0  3  0  0  0  0  0  0
  189.9930  177.1840  144.6520 N   0  0  0  0  0  0  0  0  0  0  0  0
  187.4280  177.4600  140.6230 C   0  0  0  0  0  3  0  0  0  0  0  0
  186.5370  178.5660  144.1540 C   0  0  1  0  0  3  0  0  0  0  0  0
  185.1550  178.1110  142.0880 C   0  0  0  0  0  3  0  0  0  0  0  0
  189.9520  176.9510  146.0050 C   0  0  1  0  0  3  0  0  0  0  0  0
  188.9190  177.7050  143.9950 C   0  0  0  0  0  0  0  0  0  0  0  0
  188.7480  177.1660  146.7180 C   0  0  0  0  0  3  0  0  0  0  0  0
  186.3910  178.0680  142.7370 C   0  0  0  0  0  0  0  0  0  0  0  0
  186.3210  177.7850  146.4010 N   0  0  0  0  0  0  0  0  0  0  0  0
  188.8160  177.6760  142.6000 O   0  0  0  0  0  0  0  0  0  0  0  0
  187.6880  177.7600  146.0290 C   0  0  0  0  0  0  0  0  0  0  0  0
  185.5230  178.0540  145.1990 C   0  0  0  0  0  2  0  0  0  0  0  0
  186.1650  177.4940  140.0270 C   0  0  0  0  0  0  0  0  0  0  0  0
  192.2320  175.9160  145.9050 N   0  0  0  0  0  2  0  0  0  0  0  0
  191.1500  176.2820  147.9390 O   0  0  0  0  0  0  0  0  0  0  0  0
  191.1230  176.3760  146.6810 C   0  0  0  0  0  0  0  0  0  0  0  0
  194.4130  174.7700  145.4800 C   0  0  1  0  0  3  0  0  0  0  0  0
  194.6190  176.1030  146.1810 C   0  0  0  0  0  2  0  0  0  0  0  0
  193.3950  175.2840  146.5130 C   0  0  1  0  0  3  0  0  0  0  0  0
  192.9960  174.0130  143.5520 C   0  0  0  0  0  1  0  0  0  0  0  0
  193.9710  174.9540  144.0910 N   0  0  0  0  0  0  0  0  0  0  0  0
  194.6760  175.8320  143.1960 C   0  0  0  0  0  0  0  0  0  0  0  0
  194.2030  176.0400  141.7960 C   0  0  0  0  0  1  0  0  0  0  0  0
  195.7060  176.4440  143.5820 O   0  0  0  0  0  0  0  0  0  0  0  0
  1 18  1  0  0  0  0
  2  9  1  0  0  0  0
  3 15  1  0  0  0  0
  3 13  1  0  0  0  0
  5 11  1  6  0  0  0
  5 16  1  0  0  0  0
  6 10  1  0  0  0  0
  7  3  2  0  0  0  0
  8  5  1  0  0  0  0
  8 17  1  1  0  0  0
  9 13  2  0  0  0  0
 10 21  1  6  0  0  0
 10 12  1  0  0  0  0
 11  6  2  0  0  0  0
 13  8  1  0  0  0  0
 14  4  1  0  0  0  0
 15 11  1  0  0  0  0
 16 14  1  0  0  0  0
 16 12  2  0  0  0  0
 17 14  1  0  0  0  0
 18  7  1  0  0  0  0
 18  2  2  0  0  0  0
 19 21  1  0  0  0  0
 21 20  2  0  0  0  0
 22 26  1  6  0  0  0
 22 23  1  0  0  0  0
 22 24  1  0  0  0  0
 23 24  1  0  0  0  0
 24 19  1  6  0  0  0
 25 26  1  0  0  0  0
 27 29  2  0  0  0  0
 27 26  1  0  0  0  0
 28 27  1  0  0  0  0
M  END
>  <MODEL>
5

>  <REMARK>
 VINA RESULT:      -7.3      1.930      2.781
  Name = 
  3 active torsions:
  status: ('A' for Active; 'I' for Inactive)
    1  A    between atoms: N_2  and  C_25
    2  A    between atoms: N_6  and  C_11
    3  A    between atoms: C_14  and  C_18
                            x       y       z     vdW  Elec       q    Type
                         _______ _______ _______ _____ _____    ______ ____

>  <TORSDO>
F 3

$$$$
=
 OpenBabel11042417273D

 29 33  0  0  1  0  0  0  0  0999 V2000
  197.4380  173.7490  146.2410 N   0  0  0  0  0  1  0  0  0  0  0  0
  196.2080  173.8930  144.1750 N   0  0  0  0  0  0  0  0  0  0  0  0
  194.1870  175.3310  145.4020 C   0  0  0  0  0  0  0  0  0  0  0  0
  189.8640  174.3180  141.4930 C   0  0  0  0  0  1  0  0  0  0  0  0
  191.8600  176.0150  144.0310 C   0  0  2  0  0  3  0  0  0  0  0  0
  190.7670  176.4530  146.0810 N   0  0  0  0  0  0  0  0  0  0  0  0
  195.2970  174.9150  146.1370 C   0  0  0  0  0  3  0  0  0  0  0  0
  193.0030  175.6170  143.1820 C   0  0  1  0  0  3  0  0  0  0  0  0
  195.1450  174.2980  143.4280 C   0  0  0  0  0  3  0  0  0  0  0  0
  189.5450  176.3490  145.4620 C   0  0  1  0  0  3  0  0  0  0  0  0
  191.9230  176.2270  145.3950 C   0  0  0  0  0  0  0  0  0  0  0  0
  189.4730  175.9110  144.1190 C   0  0  0  0  0  3  0  0  0  0  0  0
  194.0990  175.0080  144.0230 C   0  0  0  0  0  0  0  0  0  0  0  0
  190.8940  175.0360  142.2230 N   0  0  0  0  0  0  0  0  0  0  0  0
  193.1460  176.0310  146.0470 O   0  0  0  0  0  0  0  0  0  0  0  0
  190.6760  175.7500  143.4280 C   0  0  0  0  0  0  0  0  0  0  0  0
  192.3220  174.7120  142.1320 C   0  0  0  0  0  2  0  0  0  0  0  0
  196.3050  174.1860  145.5000 C   0  0  0  0  0  0  0  0  0  0  0  0
  187.4290  177.6370  145.8420 N   0  0  0  0  0  2  0  0  0  0  0  0
  188.0480  175.8730  147.2390 O   0  0  0  0  0  0  0  0  0  0  0  0
  188.3170  176.5870  146.2330 C   0  0  0  0  0  0  0  0  0  0  0  0
  184.9670  178.0530  145.7230 C   0  0  1  0  0  3  0  0  0  0  0  0
  185.2740  176.7910  146.5130 C   0  0  0  0  0  2  0  0  0  0  0  0
  186.2280  177.9580  146.6000 C   0  0  1  0  0  3  0  0  0  0  0  0
  185.5200  176.5250  143.8110 C   0  0  0  0  0  1  0  0  0  0  0  0
  185.2430  177.8730  144.2920 N   0  0  0  0  0  0  0  0  0  0  0  0
  185.5250  178.9990  143.4410 C   0  0  0  0  0  0  0  0  0  0  0  0
  185.7730  178.8130  141.9810 C   0  0  0  0  0  1  0  0  0  0  0  0
  185.5660  180.1640  143.9170 O   0  0  0  0  0  0  0  0  0  0  0  0
  2 18  1  0  0  0  0
  3 15  1  0  0  0  0
  3  7  1  0  0  0  0
  4 14  1  0  0  0  0
  5 16  1  1  0  0  0
  5 11  1  0  0  0  0
  8 17  1  6  0  0  0
  8 13  1  0  0  0  0
  8  5  1  0  0  0  0
  9 13  1  0  0  0  0
  9  2  2  0  0  0  0
 10  6  1  0  0  0  0
 10 21  1  1  0  0  0
 11 15  1  0  0  0  0
 11  6  2  0  0  0  0
 12 10  1  0  0  0  0
 13  3  2  0  0  0  0
 14 16  1  0  0  0  0
 16 12  2  0  0  0  0
 17 14  1  0  0  0  0
 18  7  2  0  0  0  0
 18  1  1  0  0  0  0
 19 21  1  0  0  0  0
 21 20  2  0  0  0  0
 22 26  1  6  0  0  0
 22 23  1  0  0  0  0
 22 24  1  0  0  0  0
 23 24  1  0  0  0  0
 24 19  1  6  0  0  0
 25 26  1  0  0  0  0
 27 29  2  0  0  0  0
 27 26  1  0  0  0  0
 28 27  1  0  0  0  0
M  END
>  <MODEL>
6

>  <REMARK>
 VINA RESULT:      -7.1      2.135      8.582
  Name = 
  3 active torsions:
  status: ('A' for Active; 'I' for Inactive)
    1  A    between atoms: N_2  and  C_25
    2  A    between atoms: N_6  and  C_11
    3  A    between atoms: C_14  and  C_18
                            x       y       z     vdW  Elec       q    Type
                         _______ _______ _______ _____ _____    ______ ____

>  <TORSDO>
F 3

$$$$
=
 OpenBabel11042417273D

 29 33  0  0  1  0  0  0  0  0999 V2000
  196.9620  176.3950  141.9320 N   0  0  0  0  0  1  0  0  0  0  0  0
  196.0120  176.4400  144.1450 N   0  0  0  0  0  0  0  0  0  0  0  0
  193.5540  175.6140  143.1760 C   0  0  0  0  0  0  0  0  0  0  0  0
  190.1640  177.4330  147.6700 C   0  0  0  0  0  1  0  0  0  0  0  0
  191.3260  175.4450  144.8410 C   0  0  2  0  0  3  0  0  0  0  0  0
  189.9040  175.4060  142.9530 N   0  0  0  0  0  0  0  0  0  0  0  0
  194.6290  175.7870  142.3050 C   0  0  0  0  0  3  0  0  0  0  0  0
  192.6320  175.5020  145.5320 C   0  0  1  0  0  3  0  0  0  0  0  0
  194.9860  176.2660  145.0220 C   0  0  0  0  0  3  0  0  0  0  0  0
  188.8380  175.7720  143.7370 C   0  0  1  0  0  3  0  0  0  0  0  0
  191.1590  175.3020  143.4760 C   0  0  0  0  0  0  0  0  0  0  0  0
  189.0510  176.1370  145.0870 C   0  0  0  0  0  3  0  0  0  0  0  0
  193.7280  175.8700  144.5620 C   0  0  0  0  0  0  0  0  0  0  0  0
  190.8780  176.5270  146.7880 N   0  0  0  0  0  0  0  0  0  0  0  0
  192.2970  175.2290  142.6660 O   0  0  0  0  0  0  0  0  0  0  0  0
  190.3350  175.9580  145.6080 C   0  0  0  0  0  0  0  0  0  0  0  0
  192.3410  176.4850  146.6870 C   0  0  0  0  0  2  0  0  0  0  0  0
  195.8610  176.2090  142.8120 C   0  0  0  0  0  0  0  0  0  0  0  0
  186.6980  177.0370  143.4180 N   0  0  0  0  0  2  0  0  0  0  0  0
  187.0580  174.9750  142.3880 O   0  0  0  0  0  0  0  0  0  0  0  0
  187.5000  175.8870  143.1390 C   0  0  0  0  0  0  0  0  0  0  0  0
  184.4600  178.0930  143.7700 C   0  0  1  0  0  3  0  0  0  0  0  0
  185.1250  178.6220  142.5100 C   0  0  0  0  0  2  0  0  0  0  0  0
  185.3430  177.1800  142.9030 C   0  0  1  0  0  3  0  0  0  0  0  0
  185.9360  179.7910  144.8810 C   0  0  0  0  0  1  0  0  0  0  0  0
  185.1380  178.5740  144.9810 N   0  0  0  0  0  0  0  0  0  0  0  0
  185.2650  177.7390  146.1450 C   0  0  0  0  0  0  0  0  0  0  0  0
  185.9270  178.2450  147.3830 C   0  0  0  0  0  1  0  0  0  0  0  0
  184.8160  176.5630  146.1380 O   0  0  0  0  0  0  0  0  0  0  0  0
  1 18  1  0  0  0  0
  2  9  1  0  0  0  0
  3 13  1  0  0  0  0
  5 11  1  6  0  0  0
  5  8  1  0  0  0  0
  5 16  1  0  0  0  0
  6 11  2  0  0  0  0
  6 10  1  0  0  0  0
  7 18  1  0  0  0  0
  7  3  2  0  0  0  0
  8 17  1  1  0  0  0
 10 21  1  6  0  0  0
 10 12  1  0  0  0  0
 12 16  2  0  0  0  0
 13  9  2  0  0  0  0
 13  8  1  0  0  0  0
 14  4  1  0  0  0  0
 15  3  1  0  0  0  0
 15 11  1  0  0  0  0
 16 14  1  0  0  0  0
 17 14  1  0  0  0  0
 18  2  2  0  0  0  0
 20 21  2  0  0  0  0
 21 19  1  0  0  0  0
 22 26  1  1  0  0  0
 23 24  1  0  0  0  0
 23 22  1  0  0  0  0
 24 19  1  1  0  0  0
 24 22  1  0  0  0  0
 25 26  1  0  0  0  0
 26 27  1  0  0  0  0
 27 28  1  0  0  0  0
 29 27  2  0  0  0  0
M  END
>  <MODEL>
7

>  <REMARK>
 VINA RESULT:      -7.1      2.315      7.936
  Name = 
  3 active torsions:
  status: ('A' for Active; 'I' for Inactive)
    1  A    between atoms: N_2  and  C_25
    2  A    between atoms: N_6  and  C_11
    3  A    between atoms: C_14  and  C_18
                            x       y       z     vdW  Elec       q    Type
                         _______ _______ _______ _____ _____    ______ ____

>  <TORSDO>
F 3

$$$$
=
 OpenBabel11042417273D

 29 33  0  0  1  0  0  0  0  0999 V2000
  184.5480  179.4830  144.2730 N   0  0  0  0  0  1  0  0  0  0  0  0
  185.2320  177.4260  143.2240 N   0  0  0  0  0  0  0  0  0  0  0  0
  187.6610  177.4820  144.5490 C   0  0  0  0  0  0  0  0  0  0  0  0
  190.7090  173.8740  140.9880 C   0  0  0  0  0  1  0  0  0  0  0  0
  189.6400  175.5930  144.0220 C   0  0  2  0  0  3  0  0  0  0  0  0
  191.2560  176.9850  145.0430 N   0  0  0  0  0  0  0  0  0  0  0  0
  186.7250  178.4950  144.7570 C   0  0  0  0  0  3  0  0  0  0  0  0
  188.2810  175.2320  143.5670 C   0  0  1  0  0  3  0  0  0  0  0  0
  186.1180  176.4160  143.0120 C   0  0  0  0  0  3  0  0  0  0  0  0
  192.2620  176.3000  144.4060 C   0  0  1  0  0  3  0  0  0  0  0  0
  189.9460  176.6850  144.8130 C   0  0  0  0  0  0  0  0  0  0  0  0
  191.9400  175.3320  143.4260 C   0  0  0  0  0  3  0  0  0  0  0  0
  187.3610  176.4260  143.6500 C   0  0  0  0  0  0  0  0  0  0  0  0
  189.9930  174.3330  142.1650 N   0  0  0  0  0  0  0  0  0  0  0  0
  188.9090  177.5410  145.2020 O   0  0  0  0  0  0  0  0  0  0  0  0
  190.5930  175.0040  143.2600 C   0  0  0  0  0  0  0  0  0  0  0  0
  188.5580  174.6390  142.1680 C   0  0  0  0  0  2  0  0  0  0  0  0
  185.5070  178.4520  144.0750 C   0  0  0  0  0  0  0  0  0  0  0  0
  194.6530  176.4160  143.6640 N   0  0  0  0  0  2  0  0  0  0  0  0
  193.9950  177.1660  145.7730 O   0  0  0  0  0  0  0  0  0  0  0  0
  193.6630  176.6560  144.6680 C   0  0  0  0  0  0  0  0  0  0  0  0
  196.9370  175.4250  143.8880 C   0  0  1  0  0  3  0  0  0  0  0  0
  196.8360  176.3000  142.6490 C   0  0  0  0  0  2  0  0  0  0  0  0
  196.0650  176.6930  143.8870 C   0  0  1  0  0  3  0  0  0  0  0  0
  195.7320  173.8040  142.3990 C   0  0  0  0  0  1  0  0  0  0  0  0
  196.1600  174.1880  143.7390 N   0  0  0  0  0  0  0  0  0  0  0  0
  195.5830  173.5300  144.8810 C   0  0  0  0  0  0  0  0  0  0  0  0
  194.8210  172.2550  144.7270 C   0  0  0  0  0  1  0  0  0  0  0  0
  195.7130  174.0200  146.0330 O   0  0  0  0  0  0  0  0  0  0  0  0
  2 18  1  0  0  0  0
  3  7  1  0  0  0  0
  3 15  1  0  0  0  0
  4 14  1  0  0  0  0
  5 16  1  6  0  0  0
  5 11  1  0  0  0  0
  8 17  1  6  0  0  0
  8 13  1  0  0  0  0
  8  5  1  0  0  0  0
  9  2  2  0  0  0  0
  9 13  1  0  0  0  0
 10 21  1  6  0  0  0
 10  6  1  0  0  0  0
 11  6  2  0  0  0  0
 11 15  1  0  0  0  0
 12 10  1  0  0  0  0
 13  3  2  0  0  0  0
 14 17  1  0  0  0  0
 14 16  1  0  0  0  0
 16 12  2  0  0  0  0
 18  1  1  0  0  0  0
 18  7  2  0  0  0  0
 19 21  1  0  0  0  0
 21 20  2  0  0  0  0
 22 26  1  6  0  0  0
 23 24  1  0  0  0  0
 23 22  1  0  0  0  0
 24 19  1  6  0  0  0
 24 22  1  0  0  0  0
 25 26  1  0  0  0  0
 26 27  1  0  0  0  0
 27 29  2  0  0  0  0
 28 27  1  0  0  0  0
M  END
>  <MODEL>
8

>  <REMARK>
 VINA RESULT:      -7.1      2.143      3.351
  Name = 
  3 active torsions:
  status: ('A' for Active; 'I' for Inactive)
    1  A    between atoms: N_2  and  C_25
    2  A    between atoms: N_6  and  C_11
    3  A    between atoms: C_14  and  C_18
                            x       y       z     vdW  Elec       q    Type
                         _______ _______ _______ _____ _____    ______ ____

>  <TORSDO>
F 3

$$$$
=
 OpenBabel11042417273D

 29 33  0  0  1  0  0  0  0  0999 V2000
  182.9030  178.3640  140.4800 N   0  0  0  0  0  1  0  0  0  0  0  0
  183.5760  178.2400  142.7890 N   0  0  0  0  0  0  0  0  0  0  0  0
  186.2470  178.1220  142.0720 C   0  0  0  0  0  0  0  0  0  0  0  0
  188.4090  175.7710  147.0510 C   0  0  0  0  0  1  0  0  0  0  0  0
  188.2400  177.7290  143.9790 C   0  0  2  0  0  3  0  0  0  0  0  0
  189.7620  177.1120  142.2770 N   0  0  0  0  0  0  0  0  0  0  0  0
  185.2610  178.2190  141.0910 C   0  0  0  0  0  3  0  0  0  0  0  0
  186.9320  178.1690  144.5090 C   0  0  1  0  0  3  0  0  0  0  0  0
  184.5160  178.1600  143.7700 C   0  0  0  0  0  3  0  0  0  0  0  0
  190.5680  176.5030  143.2070 C   0  0  1  0  0  3  0  0  0  0  0  0
  188.5710  177.6700  142.6380 C   0  0  0  0  0  0  0  0  0  0  0  0
  190.1220  176.3670  144.5420 C   0  0  0  0  0  3  0  0  0  0  0  0
  185.8710  178.0790  143.4400 C   0  0  0  0  0  0  0  0  0  0  0  0
  188.1220  176.7640  146.0320 N   0  0  0  0  0  0  0  0  0  0  0  0
  187.6010  178.0250  141.6930 O   0  0  0  0  0  0  0  0  0  0  0  0
  188.9290  177.0040  144.8920 C   0  0  0  0  0  0  0  0  0  0  0  0
  186.7720  177.2670  145.7530 C   0  0  0  0  0  2  0  0  0  0  0  0
  183.9180  178.2730  141.4720 C   0  0  0  0  0  0  0  0  0  0  0  0
  191.8350  174.8350  141.8310 N   0  0  0  0  0  2  0  0  0  0  0  0
  192.9320  176.3160  143.2610 O   0  0  0  0  0  0  0  0  0  0  0  0
  191.8400  175.9010  142.7830 C   0  0  0  0  0  0  0  0  0  0  0  0
  192.8310  173.1420  140.2840 C   0  0  1  0  0  3  0  0  0  0  0  0
  193.3570  174.5370  139.9850 C   0  0  0  0  0  2  0  0  0  0  0  0
  193.0570  174.1590  141.4160 C   0  0  1  0  0  3  0  0  0  0  0  0
  190.5620  172.1680  140.7340 C   0  0  0  0  0  1  0  0  0  0  0  0
  191.4190  173.0050  139.9030 N   0  0  0  0  0  0  0  0  0  0  0  0
  190.9540  173.4260  138.6080 C   0  0  0  0  0  0  0  0  0  0  0  0
  189.5130  173.3150  138.2380 C   0  0  0  0  0  1  0  0  0  0  0  0
  191.7590  173.9000  137.7640 O   0  0  0  0  0  0  0  0  0  0  0  0
  1 18  1  0  0  0  0
  2  9  1  0  0  0  0
  3 13  1  0  0  0  0
  5 11  1  6  0  0  0
  5  8  1  0  0  0  0
  5 16  1  0  0  0  0
  6 11  2  0  0  0  0
  6 10  1  0  0  0  0
  7 18  1  0  0  0  0
  7  3  2  0  0  0  0
  8 17  1  1  0  0  0
 10 21  1  6  0  0  0
 10 12  1  0  0  0  0
 12 16  2  0  0  0  0
 13  9  2  0  0  0  0
 13  8  1  0  0  0  0
 14  4  1  0  0  0  0
 15  3  1  0  0  0  0
 15 11  1  0  0  0  0
 16 14  1  0  0  0  0
 17 14  1  0  0  0  0
 18  2  2  0  0  0  0
 19 21  1  0  0  0  0
 21 20  2  0  0  0  0
 22 26  1  6  0  0  0
 22 24  1  0  0  0  0
 23 22  1  0  0  0  0
 23 24  1  0  0  0  0
 24 19  1  6  0  0  0
 26 25  1  0  0  0  0
 27 26  1  0  0  0  0
 28 27  1  0  0  0  0
 29 27  2  0  0  0  0
M  END
>  <MODEL>
9

>  <REMARK>
 VINA RESULT:      -6.9      2.322      3.597
  Name = 
  3 active torsions:
  status: ('A' for Active; 'I' for Inactive)
    1  A    between atoms: N_2  and  C_25
    2  A    between atoms: N_6  and  C_11
    3  A    between atoms: C_14  and  C_18
                            x       y       z     vdW  Elec       q    Type
                         _______ _______ _______ _____ _____    ______ ____

>  <TORSDO>
F 3

$$$$
