=
 OpenBabel11042418543D

 27 30  0  0  1  0  0  0  0  0999 V2000
  189.4550  173.6790  142.1150 C   0  0  0  0  0  3  0  0  0  0  0  0
  187.9300  177.1960  143.3760 C   0  0  1  0  0  3  0  0  0  0  0  0
  184.1050  178.4940  143.4690 N   0  0  0  0  0  0  0  0  0  0  0  0
  184.7150  178.3430  144.6860 C   0  0  0  0  0  0  0  0  0  0  0  0
  189.2120  174.8900  142.6440 N   0  0  0  0  0  0  0  0  0  0  0  0
  188.6470  176.4490  144.3710 N   0  0  0  0  0  2  0  0  0  0  0  0
  188.1700  177.0130  141.9060 C   0  0  2  0  0  3  0  0  0  0  0  0
  186.7160  177.6760  143.5590 C   0  0  0  0  0  0  0  0  0  0  0  0
  188.9700  173.5940  140.8550 N   0  0  0  0  0  0  0  0  0  0  0  0
  186.8280  177.3930  141.3390 C   0  0  0  0  0  2  0  0  0  0  0  0
  184.7490  178.2200  142.2980 C   0  0  0  0  0  3  0  0  0  0  0  0
  188.5520  175.5800  141.7020 C   0  0  0  0  0  0  0  0  0  0  0  0
  186.0500  177.9110  144.7610 C   0  0  0  0  0  3  0  0  0  0  0  0
  188.4070  174.7940  140.5810 C   0  0  0  0  0  3  0  0  0  0  0  0
  186.0750  177.8010  142.3520 C   0  0  0  0  0  0  0  0  0  0  0  0
  189.6110  175.4210  143.9530 C   0  0  2  0  0  3  0  0  0  0  0  0
  184.8780  178.5000  147.1360 C   0  0  0  0  0  1  0  0  0  0  0  0
  183.9670  178.6560  145.9340 C   0  0  0  0  0  2  0  0  0  0  0  0
  191.0260  176.0250  143.8840 C   0  0  1  0  0  3  0  0  0  0  0  0
  191.0900  177.4820  144.3460 C   0  0  0  0  0  2  0  0  0  0  0  0
  191.3320  178.3440  143.2740 O   0  0  0  0  0  1  0  0  0  0  0  0
  192.1010  175.1530  144.5430 C   0  0  0  0  0  2  0  0  0  0  0  0
  192.7240  175.7900  145.7780 C   0  0  0  0  0  2  0  0  0  0  0  0
  192.5340  174.9650  146.8860 O   0  0  0  0  0  0  0  0  0  0  0  0
  191.3520  176.9060  148.4790 O   0  0  0  0  0  0  0  0  0  0  0  0
  189.8540  174.9440  147.6090 O   0  0  0  0  0  0  0  0  0  0  0  0
  191.1990  175.6290  147.6850 P   0  0  0  0  0  0  0  0  0  0  0  0
  1  5  1  0  0  0  0
  2  8  1  6  0  0  0
  2  6  1  0  0  0  0
  3  4  1  0  0  0  0
  4 13  2  0  0  0  0
  4 18  1  0  0  0  0
  5 16  1  0  0  0  0
  7 10  1  6  0  0  0
  7  2  1  0  0  0  0
  8 13  1  0  0  0  0
  9  1  2  0  0  0  0
 10 15  1  0  0  0  0
 11 15  1  0  0  0  0
 11  3  2  0  0  0  0
 12  7  1  0  0  0  0
 12  5  1  0  0  0  0
 14  9  1  0  0  0  0
 14 12  2  0  0  0  0
 15  8  2  0  0  0  0
 16 19  1  6  0  0  0
 16  6  1  0  0  0  0
 18 17  1  0  0  0  0
 19 20  1  1  0  0  0
 19 22  1  0  0  0  0
 21 20  1  0  0  0  0
 22 23  1  0  0  0  0
 23 24  1  0  0  0  0
 24 27  1  0  0  0  0
 26 27  2  0  0  0  0
 27 25  2  0  0  0  0
M  END
>  <MODEL>
1

>  <REMARK>
 VINA RESULT:      -6.6      0.000      0.000
  Name = 
  7 active torsions:
  status: ('A' for Active; 'I' for Inactive)
    1  A    between atoms: C_1  and  C_26
    2  A    between atoms: C_5  and  C_15
    3  A    between atoms: O_10  and  P_24
    4  A    between atoms: O_10  and  C_27
    5  A    between atoms: C_22  and  C_26
    6  A    between atoms: C_22  and  C_27
    7  A    between atoms: C_25  and  C_26
                            x       y       z     vdW  Elec       q    Type
                         _______ _______ _______ _____ _____    ______ ____

>  <TORSDO>
F 7

$$$$
=
 OpenBabel11042418543D

 27 30  0  0  1  0  0  0  0  0999 V2000
  190.0360  173.3090  143.5400 C   0  0  0  0  0  3  0  0  0  0  0  0
  188.6700  176.9630  144.5700 C   0  0  1  0  0  3  0  0  0  0  0  0
  185.4060  178.9780  143.3010 N   0  0  0  0  0  0  0  0  0  0  0  0
  185.4150  178.6280  144.6250 C   0  0  0  0  0  0  0  0  0  0  0  0
  189.7780  174.5050  144.0940 N   0  0  0  0  0  0  0  0  0  0  0  0
  188.7790  176.0250  145.6510 N   0  0  0  0  0  2  0  0  0  0  0  0
  189.4770  176.8360  143.3120 C   0  0  2  0  0  3  0  0  0  0  0  0
  187.5790  177.6590  144.3160 C   0  0  0  0  0  0  0  0  0  0  0  0
  190.1210  173.4050  142.1930 N   0  0  0  0  0  0  0  0  0  0  0  0
  188.5740  177.5100  142.3140 C   0  0  0  0  0  2  0  0  0  0  0  0
  186.4340  178.6630  142.4620 C   0  0  0  0  0  3  0  0  0  0  0  0
  189.6880  175.3730  143.0760 C   0  0  0  0  0  0  0  0  0  0  0  0
  186.5120  177.9390  145.1680 C   0  0  0  0  0  3  0  0  0  0  0  0
  189.9140  174.7090  141.8910 C   0  0  0  0  0  3  0  0  0  0  0  0
  187.5340  177.9890  142.9840 C   0  0  0  0  0  0  0  0  0  0  0  0
  189.6620  174.8580  145.5150 C   0  0  2  0  0  3  0  0  0  0  0  0
  184.4080  178.3260  146.8500 C   0  0  0  0  0  1  0  0  0  0  0  0
  184.2670  178.9970  145.4970 C   0  0  0  0  0  2  0  0  0  0  0  0
  191.0470  175.1750  146.1070 C   0  0  1  0  0  3  0  0  0  0  0  0
  191.0160  175.4500  147.6130 C   0  0  0  0  0  2  0  0  0  0  0  0
  191.3220  176.7850  147.8900 O   0  0  0  0  0  1  0  0  0  0  0  0
  192.1300  174.1620  145.7190 C   0  0  0  0  0  2  0  0  0  0  0  0
  193.2000  174.7390  144.8010 C   0  0  0  0  0  2  0  0  0  0  0  0
  193.0200  176.1150  144.6670 O   0  0  0  0  0  0  0  0  0  0  0  0
  194.4330  177.2990  146.7420 O   0  0  0  0  0  0  0  0  0  0  0  0
  195.6760  176.8960  144.4730 O   0  0  0  0  0  0  0  0  0  0  0  0
  194.4270  176.7930  145.3170 P   0  0  0  0  0  0  0  0  0  0  0  0
  1  5  1  0  0  0  0
  2  8  1  6  0  0  0
  2  6  1  0  0  0  0
  3  4  1  0  0  0  0
  4 13  2  0  0  0  0
  4 18  1  0  0  0  0
  5 16  1  0  0  0  0
  7 10  1  6  0  0  0
  7  2  1  0  0  0  0
  8 13  1  0  0  0  0
  9  1  2  0  0  0  0
 10 15  1  0  0  0  0
 11 15  1  0  0  0  0
 11  3  2  0  0  0  0
 12  7  1  0  0  0  0
 12  5  1  0  0  0  0
 14  9  1  0  0  0  0
 14 12  2  0  0  0  0
 15  8  2  0  0  0  0
 16  6  1  0  0  0  0
 16 19  1  6  0  0  0
 18 17  1  0  0  0  0
 19 22  1  1  0  0  0
 19 20  1  0  0  0  0
 20 21  1  0  0  0  0
 23 22  1  0  0  0  0
 24 23  1  0  0  0  0
 24 27  1  0  0  0  0
 26 27  2  0  0  0  0
 27 25  2  0  0  0  0
M  END
>  <MODEL>
2

>  <REMARK>
 VINA RESULT:      -6.5      1.855      2.534
  Name = 
  7 active torsions:
  status: ('A' for Active; 'I' for Inactive)
    1  A    between atoms: C_1  and  C_26
    2  A    between atoms: C_5  and  C_15
    3  A    between atoms: O_10  and  P_24
    4  A    between atoms: O_10  and  C_27
    5  A    between atoms: C_22  and  C_26
    6  A    between atoms: C_22  and  C_27
    7  A    between atoms: C_25  and  C_26
                            x       y       z     vdW  Elec       q    Type
                         _______ _______ _______ _____ _____    ______ ____

>  <TORSDO>
F 7

$$$$
=
 OpenBabel11042418543D

 27 30  0  0  1  0  0  0  0  0999 V2000
  189.5140  173.6450  142.3790 C   0  0  0  0  0  3  0  0  0  0  0  0
  187.9110  177.2290  143.3080 C   0  0  1  0  0  3  0  0  0  0  0  0
  184.0710  178.4800  143.1750 N   0  0  0  0  0  0  0  0  0  0  0  0
  184.6420  178.4330  144.4190 C   0  0  0  0  0  0  0  0  0  0  0  0
  189.2410  174.8900  142.8020 N   0  0  0  0  0  0  0  0  0  0  0  0
  188.6020  176.5740  144.3810 N   0  0  0  0  0  2  0  0  0  0  0  0
  188.2010  176.9340  141.8650 C   0  0  2  0  0  3  0  0  0  0  0  0
  186.6860  177.7070  143.4140 C   0  0  0  0  0  0  0  0  0  0  0  0
  189.0720  173.4540  141.1140 N   0  0  0  0  0  0  0  0  0  0  0  0
  186.8740  177.2510  141.2280 C   0  0  0  0  0  2  0  0  0  0  0  0
  184.7550  178.1230  142.0510 C   0  0  0  0  0  3  0  0  0  0  0  0
  188.6040  175.4950  141.7880 C   0  0  0  0  0  0  0  0  0  0  0  0
  185.9780  178.0270  144.5710 C   0  0  0  0  0  3  0  0  0  0  0  0
  188.5060  174.6220  140.7280 C   0  0  0  0  0  3  0  0  0  0  0  0
  186.0840  177.7270  142.1800 C   0  0  0  0  0  0  0  0  0  0  0  0
  189.5910  175.5290  144.0770 C   0  0  2  0  0  3  0  0  0  0  0  0
  184.4660  178.2410  146.8660 C   0  0  0  0  0  1  0  0  0  0  0  0
  183.8490  178.8330  145.6140 C   0  0  0  0  0  2  0  0  0  0  0  0
  191.0000  176.1440  144.0050 C   0  0  1  0  0  3  0  0  0  0  0  0
  191.0680  177.5760  144.5410 C   0  0  0  0  0  2  0  0  0  0  0  0
  191.3220  178.4890  143.5140 O   0  0  0  0  0  1  0  0  0  0  0  0
  192.0950  175.2460  144.5940 C   0  0  0  0  0  2  0  0  0  0  0  0
  193.3770  175.2350  143.7710 C   0  0  0  0  0  2  0  0  0  0  0  0
  194.1610  176.3410  144.0970 O   0  0  0  0  0  0  0  0  0  0  0  0
  194.2170  177.0480  146.7800 O   0  0  0  0  0  0  0  0  0  0  0  0
  195.4600  174.8620  146.0540 O   0  0  0  0  0  0  0  0  0  0  0  0
  194.6280  176.0730  145.7000 P   0  0  0  0  0  0  0  0  0  0  0  0
  1  5  1  0  0  0  0
  2  8  1  1  0  0  0
  2  6  1  0  0  0  0
  3  4  1  0  0  0  0
  4 13  2  0  0  0  0
  4 18  1  0  0  0  0
  5 16  1  0  0  0  0
  7 10  1  6  0  0  0
  7  2  1  0  0  0  0
  8 13  1  0  0  0  0
  9  1  2  0  0  0  0
 10 15  1  0  0  0  0
 11 15  1  0  0  0  0
 11  3  2  0  0  0  0
 12  7  1  0  0  0  0
 12  5  1  0  0  0  0
 14  9  1  0  0  0  0
 14 12  2  0  0  0  0
 15  8  2  0  0  0  0
 16 19  1  6  0  0  0
 16  6  1  0  0  0  0
 18 17  1  0  0  0  0
 19 20  1  1  0  0  0
 19 22  1  0  0  0  0
 21 20  1  0  0  0  0
 23 24  1  0  0  0  0
 23 22  1  0  0  0  0
 24 27  1  0  0  0  0
 27 26  2  0  0  0  0
 27 25  2  0  0  0  0
M  END
>  <MODEL>
3

>  <REMARK>
 VINA RESULT:      -6.5      1.513      1.714
  Name = 
  7 active torsions:
  status: ('A' for Active; 'I' for Inactive)
    1  A    between atoms: C_1  and  C_26
    2  A    between atoms: C_5  and  C_15
    3  A    between atoms: O_10  and  P_24
    4  A    between atoms: O_10  and  C_27
    5  A    between atoms: C_22  and  C_26
    6  A    between atoms: C_22  and  C_27
    7  A    between atoms: C_25  and  C_26
                            x       y       z     vdW  Elec       q    Type
                         _______ _______ _______ _____ _____    ______ ____

>  <TORSDO>
F 7

$$$$
=
 OpenBabel11042418543D

 27 30  0  0  1  0  0  0  0  0999 V2000
  192.6580  176.5290  145.4850 C   0  0  0  0  0  3  0  0  0  0  0  0
  188.7040  175.9780  144.9000 C   0  0  1  0  0  3  0  0  0  0  0  0
  185.5360  177.6380  146.7780 N   0  0  0  0  0  0  0  0  0  0  0  0
  185.6720  177.9440  145.4500 C   0  0  0  0  0  0  0  0  0  0  0  0
  191.4290  176.2080  145.0510 N   0  0  0  0  0  0  0  0  0  0  0  0
  189.4280  176.4670  143.7610 N   0  0  0  0  0  2  0  0  0  0  0  0
  189.3710  175.2160  146.0080 C   0  0  2  0  0  3  0  0  0  0  0  0
  187.6040  176.5390  145.3610 C   0  0  0  0  0  0  0  0  0  0  0  0
  192.7910  176.2660  146.8060 N   0  0  0  0  0  0  0  0  0  0  0  0
  188.4770  175.5500  147.1730 C   0  0  0  0  0  2  0  0  0  0  0  0
  186.4190  176.8250  147.4270 C   0  0  0  0  0  3  0  0  0  0  0  0
  190.7670  175.7440  146.1210 C   0  0  0  0  0  0  0  0  0  0  0  0
  186.7320  177.4040  144.7030 C   0  0  0  0  0  3  0  0  0  0  0  0
  191.6030  175.7590  147.2140 C   0  0  0  0  0  3  0  0  0  0  0  0
  187.4700  176.2730  146.7020 C   0  0  0  0  0  0  0  0  0  0  0  0
  190.8840  176.2790  143.6890 C   0  0  2  0  0  3  0  0  0  0  0  0
  185.3940  179.9720  144.0840 C   0  0  0  0  0  1  0  0  0  0  0  0
  184.6790  178.8360  144.7900 C   0  0  0  0  0  2  0  0  0  0  0  0
  191.2100  174.9930  142.9090 C   0  0  1  0  0  3  0  0  0  0  0  0
  190.1390  174.6150  141.8820 C   0  0  0  0  0  2  0  0  0  0  0  0
  189.5300  173.4010  142.2080 O   0  0  0  0  0  1  0  0  0  0  0  0
  192.6230  174.9730  142.3160 C   0  0  0  0  0  2  0  0  0  0  0  0
  193.5540  173.9800  143.0000 C   0  0  0  0  0  2  0  0  0  0  0  0
  192.8690  173.3000  144.0060 O   0  0  0  0  0  0  0  0  0  0  0  0
  194.1240  171.4830  145.6860 O   0  0  0  0  0  0  0  0  0  0  0  0
  195.0700  173.9220  145.5790 O   0  0  0  0  0  0  0  0  0  0  0  0
  194.0640  172.8870  145.1290 P   0  0  0  0  0  0  0  0  0  0  0  0
  1  9  2  0  0  0  0
  2  6  1  1  0  0  0
  2  8  1  0  0  0  0
  2  7  1  0  0  0  0
  3 11  1  0  0  0  0
  4  3  2  0  0  0  0
  5  1  1  0  0  0  0
  5 12  1  0  0  0  0
  7 12  1  0  0  0  0
  7 10  1  1  0  0  0
  8 15  1  0  0  0  0
  9 14  1  0  0  0  0
 12 14  2  0  0  0  0
 13  8  2  0  0  0  0
 13  4  1  0  0  0  0
 15 10  1  0  0  0  0
 15 11  2  0  0  0  0
 16 19  1  6  0  0  0
 16  6  1  0  0  0  0
 16  5  1  0  0  0  0
 17 18  1  0  0  0  0
 18  4  1  0  0  0  0
 19 20  1  6  0  0  0
 20 21  1  0  0  0  0
 22 19  1  0  0  0  0
 22 23  1  0  0  0  0
 23 24  1  0  0  0  0
 24 27  1  0  0  0  0
 27 26  2  0  0  0  0
 27 25  2  0  0  0  0
M  END
>  <MODEL>
4

>  <REMARK>
 VINA RESULT:      -6.3      2.811      4.352
  Name = 
  7 active torsions:
  status: ('A' for Active; 'I' for Inactive)
    1  A    between atoms: C_1  and  C_26
    2  A    between atoms: C_5  and  C_15
    3  A    between atoms: O_10  and  P_24
    4  A    between atoms: O_10  and  C_27
    5  A    between atoms: C_22  and  C_26
    6  A    between atoms: C_22  and  C_27
    7  A    between atoms: C_25  and  C_26
                            x       y       z     vdW  Elec       q    Type
                         _______ _______ _______ _____ _____    ______ ____

>  <TORSDO>
F 7

$$$$
=
 OpenBabel11042418543D

 27 30  0  0  1  0  0  0  0  0999 V2000
  192.7290  176.3890  145.7700 C   0  0  0  0  0  3  0  0  0  0  0  0
  188.8290  176.3170  144.7360 C   0  0  1  0  0  3  0  0  0  0  0  0
  185.6780  178.2960  146.3100 N   0  0  0  0  0  0  0  0  0  0  0  0
  185.9970  178.6120  145.0170 C   0  0  0  0  0  0  0  0  0  0  0  0
  191.5270  176.2240  145.1930 N   0  0  0  0  0  0  0  0  0  0  0  0
  189.7280  176.7430  143.7000 N   0  0  0  0  0  2  0  0  0  0  0  0
  189.2750  175.4600  145.8840 C   0  0  2  0  0  3  0  0  0  0  0  0
  187.7550  176.9930  145.0920 C   0  0  0  0  0  0  0  0  0  0  0  0
  192.6800  176.0850  147.0880 N   0  0  0  0  0  0  0  0  0  0  0  0
  188.2990  175.8710  146.9540 C   0  0  0  0  0  2  0  0  0  0  0  0
  186.3840  177.3730  147.0240 C   0  0  0  0  0  3  0  0  0  0  0  0
  190.7000  175.8180  146.1670 C   0  0  0  0  0  0  0  0  0  0  0  0
  187.0670  177.9680  144.3720 C   0  0  0  0  0  3  0  0  0  0  0  0
  191.4040  175.7120  147.3450 C   0  0  0  0  0  3  0  0  0  0  0  0
  187.4410  176.7170  146.4000 C   0  0  0  0  0  0  0  0  0  0  0  0
  191.1510  176.3870  143.7820 C   0  0  2  0  0  3  0  0  0  0  0  0
  183.8470  179.0480  143.9020 C   0  0  0  0  0  1  0  0  0  0  0  0
  185.1950  179.6290  144.2820 C   0  0  0  0  0  2  0  0  0  0  0  0
  191.4150  175.0880  142.9990 C   0  0  1  0  0  3  0  0  0  0  0  0
  190.1590  174.5050  142.3470 C   0  0  0  0  0  2  0  0  0  0  0  0
  189.7430  173.3420  143.0000 O   0  0  0  0  0  1  0  0  0  0  0  0
  192.5910  175.1860  142.0210 C   0  0  0  0  0  2  0  0  0  0  0  0
  193.9520  175.1560  142.7040 C   0  0  0  0  0  2  0  0  0  0  0  0
  194.5620  176.4060  142.6060 O   0  0  0  0  0  0  0  0  0  0  0  0
  196.0770  175.2500  144.6240 O   0  0  0  0  0  0  0  0  0  0  0  0
  197.1880  177.1140  143.1590 O   0  0  0  0  0  0  0  0  0  0  0  0
  195.9940  176.2500  143.4930 P   0  0  0  0  0  0  0  0  0  0  0  0
  1  9  2  0  0  0  0
  2  6  1  1  0  0  0
  2  8  1  0  0  0  0
  2  7  1  0  0  0  0
  3 11  1  0  0  0  0
  4  3  2  0  0  0  0
  5  1  1  0  0  0  0
  5 12  1  0  0  0  0
  6 16  1  0  0  0  0
  7 12  1  0  0  0  0
  7 10  1  1  0  0  0
  8 15  1  0  0  0  0
  9 14  1  0  0  0  0
 12 14  2  0  0  0  0
 13  4  1  0  0  0  0
 13  8  2  0  0  0  0
 15 10  1  0  0  0  0
 15 11  2  0  0  0  0
 16 19  1  6  0  0  0
 16  5  1  0  0  0  0
 17 18  1  0  0  0  0
 18  4  1  0  0  0  0
 19 22  1  6  0  0  0
 20 19  1  0  0  0  0
 20 21  1  0  0  0  0
 22 23  1  0  0  0  0
 24 23  1  0  0  0  0
 24 27  1  0  0  0  0
 26 27  2  0  0  0  0
 27 25  2  0  0  0  0
M  END
>  <MODEL>
5

>  <REMARK>
 VINA RESULT:      -6.2      2.971      4.605
  Name = 
  7 active torsions:
  status: ('A' for Active; 'I' for Inactive)
    1  A    between atoms: C_1  and  C_26
    2  A    between atoms: C_5  and  C_15
    3  A    between atoms: O_10  and  P_24
    4  A    between atoms: O_10  and  C_27
    5  A    between atoms: C_22  and  C_26
    6  A    between atoms: C_22  and  C_27
    7  A    between atoms: C_25  and  C_26
                            x       y       z     vdW  Elec       q    Type
                         _______ _______ _______ _____ _____    ______ ____

>  <TORSDO>
F 7

$$$$
=
 OpenBabel11042418543D

 27 30  0  0  1  0  0  0  0  0999 V2000
  192.5470  176.3260  145.6360 C   0  0  0  0  0  3  0  0  0  0  0  0
  188.5660  176.0540  145.0360 C   0  0  1  0  0  3  0  0  0  0  0  0
  185.5080  177.8250  146.9950 N   0  0  0  0  0  0  0  0  0  0  0  0
  185.6640  178.1820  145.6820 C   0  0  0  0  0  0  0  0  0  0  0  0
  191.2990  176.1050  145.1910 N   0  0  0  0  0  0  0  0  0  0  0  0
  189.3200  176.5490  143.9190 N   0  0  0  0  0  2  0  0  0  0  0  0
  189.1820  175.2020  146.1070 C   0  0  2  0  0  3  0  0  0  0  0  0
  187.5030  176.6630  145.5250 C   0  0  0  0  0  0  0  0  0  0  0  0
  192.6610  175.9950  146.9440 N   0  0  0  0  0  0  0  0  0  0  0  0
  188.3100  175.5380  147.2870 C   0  0  0  0  0  2  0  0  0  0  0  0
  186.3370  176.9290  147.6040 C   0  0  0  0  0  3  0  0  0  0  0  0
  190.6080  175.6340  146.2400 C   0  0  0  0  0  0  0  0  0  0  0  0
  186.6880  177.6110  144.9090 C   0  0  0  0  0  3  0  0  0  0  0  0
  191.4430  175.5460  147.3310 C   0  0  0  0  0  3  0  0  0  0  0  0
  187.3510  176.3450  146.8520 C   0  0  0  0  0  0  0  0  0  0  0  0
  190.7610  176.2720  143.8350 C   0  0  2  0  0  3  0  0  0  0  0  0
  185.4480  179.9530  143.9870 C   0  0  0  0  0  1  0  0  0  0  0  0
  184.7310  179.1650  145.0660 C   0  0  0  0  0  2  0  0  0  0  0  0
  191.0050  175.0050  142.9960 C   0  0  1  0  0  3  0  0  0  0  0  0
  189.9610  174.7920  141.8960 C   0  0  0  0  0  2  0  0  0  0  0  0
  189.6100  173.4450  141.7860 O   0  0  0  0  0  1  0  0  0  0  0  0
  192.4400  174.8780  142.4740 C   0  0  0  0  0  2  0  0  0  0  0  0
  193.1840  173.6700  143.0290 C   0  0  0  0  0  2  0  0  0  0  0  0
  192.4870  173.1400  144.1140 O   0  0  0  0  0  0  0  0  0  0  0  0
  191.3270  170.8900  142.9750 O   0  0  0  0  0  0  0  0  0  0  0  0
  193.5050  170.5730  144.3930 O   0  0  0  0  0  0  0  0  0  0  0  0
  192.4390  171.4760  143.8160 P   0  0  0  0  0  0  0  0  0  0  0  0
  1  9  2  0  0  0  0
  2  6  1  1  0  0  0
  2  8  1  0  0  0  0
  2  7  1  0  0  0  0
  3 11  1  0  0  0  0
  4  3  2  0  0  0  0
  5  1  1  0  0  0  0
  5 12  1  0  0  0  0
  7 12  1  0  0  0  0
  7 10  1  1  0  0  0
  8 15  1  0  0  0  0
  9 14  1  0  0  0  0
 12 14  2  0  0  0  0
 13  8  2  0  0  0  0
 13  4  1  0  0  0  0
 15 10  1  0  0  0  0
 15 11  2  0  0  0  0
 16 19  1  6  0  0  0
 16  6  1  0  0  0  0
 16  5  1  0  0  0  0
 17 18  1  0  0  0  0
 18  4  1  0  0  0  0
 19 20  1  6  0  0  0
 21 20  1  0  0  0  0
 22 19  1  0  0  0  0
 22 23  1  0  0  0  0
 23 24  1  0  0  0  0
 25 27  2  0  0  0  0
 27 24  1  0  0  0  0
 27 26  2  0  0  0  0
M  END
>  <MODEL>
6

>  <REMARK>
 VINA RESULT:      -6.0      3.024      4.544
  Name = 
  7 active torsions:
  status: ('A' for Active; 'I' for Inactive)
    1  A    between atoms: C_1  and  C_26
    2  A    between atoms: C_5  and  C_15
    3  A    between atoms: O_10  and  P_24
    4  A    between atoms: O_10  and  C_27
    5  A    between atoms: C_22  and  C_26
    6  A    between atoms: C_22  and  C_27
    7  A    between atoms: C_25  and  C_26
                            x       y       z     vdW  Elec       q    Type
                         _______ _______ _______ _____ _____    ______ ____

>  <TORSDO>
F 7

$$$$
=
 OpenBabel11042418543D

 27 30  0  0  1  0  0  0  0  0999 V2000
  189.2130  174.9450  146.3860 C   0  0  0  0  0  3  0  0  0  0  0  0
  192.2880  176.4000  144.2160 C   0  0  1  0  0  3  0  0  0  0  0  0
  196.1030  175.1060  143.9080 N   0  0  0  0  0  0  0  0  0  0  0  0
  195.3530  175.0340  142.7650 C   0  0  0  0  0  0  0  0  0  0  0  0
  190.0310  175.5880  145.5370 N   0  0  0  0  0  0  0  0  0  0  0  0
  191.1400  175.9950  143.4540 N   0  0  0  0  0  2  0  0  0  0  0  0
  192.1960  176.7850  145.6630 C   0  0  2  0  0  3  0  0  0  0  0  0
  193.5160  176.0010  143.9510 C   0  0  0  0  0  0  0  0  0  0  0  0
  189.7320  174.9210  147.6360 N   0  0  0  0  0  0  0  0  0  0  0  0
  193.5760  176.4290  146.1500 C   0  0  0  0  0  2  0  0  0  0  0  0
  195.5910  175.5810  145.0800 C   0  0  0  0  0  3  0  0  0  0  0  0
  191.0930  175.9690  146.2610 C   0  0  0  0  0  0  0  0  0  0  0  0
  194.0190  175.4740  142.7630 C   0  0  0  0  0  3  0  0  0  0  0  0
  190.9150  175.5760  147.5690 C   0  0  0  0  0  3  0  0  0  0  0  0
  194.2750  176.0310  145.0950 C   0  0  0  0  0  0  0  0  0  0  0  0
  189.8310  175.8880  144.1130 C   0  0  2  0  0  3  0  0  0  0  0  0
  196.4270  175.6540  140.6390 C   0  0  0  0  0  1  0  0  0  0  0  0
  195.9600  174.5060  141.5120 C   0  0  0  0  0  2  0  0  0  0  0  0
  189.0490  177.2030  143.9430 C   0  0  1  0  0  3  0  0  0  0  0  0
  189.4330  177.9820  142.6830 C   0  0  0  0  0  2  0  0  0  0  0  0
  188.3690  178.0390  141.7790 O   0  0  0  0  0  1  0  0  0  0  0  0
  187.5320  177.0420  144.0930 C   0  0  0  0  0  2  0  0  0  0  0  0
  186.9370  177.8990  145.2030 C   0  0  0  0  0  2  0  0  0  0  0  0
  186.3370  179.0340  144.6590 O   0  0  0  0  0  0  0  0  0  0  0  0
  183.8470  178.6920  145.8330 O   0  0  0  0  0  0  0  0  0  0  0  0
  184.0680  178.2600  143.2610 O   0  0  0  0  0  0  0  0  0  0  0  0
  184.6920  178.6500  144.5810 P   0  0  0  0  0  0  0  0  0  0  0  0
  1  9  2  0  0  0  0
  2  6  1  1  0  0  0
  2  7  1  0  0  0  0
  3 11  1  0  0  0  0
  4  3  2  0  0  0  0
  5 12  1  0  0  0  0
  5  1  1  0  0  0  0
  6 16  1  0  0  0  0
  7 10  1  1  0  0  0
  7 12  1  0  0  0  0
  8  2  1  0  0  0  0
  8 15  1  0  0  0  0
 11 15  2  0  0  0  0
 12 14  2  0  0  0  0
 13  4  1  0  0  0  0
 13  8  2  0  0  0  0
 14  9  1  0  0  0  0
 15 10  1  0  0  0  0
 16 19  1  1  0  0  0
 16  5  1  0  0  0  0
 17 18  1  0  0  0  0
 18  4  1  0  0  0  0
 19 20  1  6  0  0  0
 19 22  1  0  0  0  0
 21 20  1  0  0  0  0
 22 23  1  0  0  0  0
 24 23  1  0  0  0  0
 26 27  2  0  0  0  0
 27 24  1  0  0  0  0
 27 25  2  0  0  0  0
M  END
>  <MODEL>
7

>  <REMARK>
 VINA RESULT:      -5.9      3.846      7.711
  Name = 
  7 active torsions:
  status: ('A' for Active; 'I' for Inactive)
    1  A    between atoms: C_1  and  C_26
    2  A    between atoms: C_5  and  C_15
    3  A    between atoms: O_10  and  P_24
    4  A    between atoms: O_10  and  C_27
    5  A    between atoms: C_22  and  C_26
    6  A    between atoms: C_22  and  C_27
    7  A    between atoms: C_25  and  C_26
                            x       y       z     vdW  Elec       q    Type
                         _______ _______ _______ _____ _____    ______ ____

>  <TORSDO>
F 7

$$$$
=
 OpenBabel11042418543D

 27 30  0  0  1  0  0  0  0  0999 V2000
  188.5660  175.3970  141.6550 C   0  0  0  0  0  3  0  0  0  0  0  0
  190.8970  174.5490  144.8380 C   0  0  1  0  0  3  0  0  0  0  0  0
  194.4270  172.5930  145.0350 N   0  0  0  0  0  0  0  0  0  0  0  0
  194.4550  173.9150  145.3890 C   0  0  0  0  0  0  0  0  0  0  0  0
  189.1670  175.2990  142.8520 N   0  0  0  0  0  0  0  0  0  0  0  0
  190.6590  175.9460  144.6100 N   0  0  0  0  0  2  0  0  0  0  0  0
  189.9680  173.4830  144.3340 C   0  0  2  0  0  3  0  0  0  0  0  0
  192.0990  174.0310  145.0050 C   0  0  0  0  0  0  0  0  0  0  0  0
  188.3800  174.1750  141.1040 N   0  0  0  0  0  0  0  0  0  0  0  0
  190.9140  172.3220  144.1720 C   0  0  0  0  0  2  0  0  0  0  0  0
  193.2780  171.9750  144.6370 C   0  0  0  0  0  3  0  0  0  0  0  0
  189.3760  173.9900  143.0570 C   0  0  0  0  0  0  0  0  0  0  0  0
  193.2770  174.6800  145.3700 C   0  0  0  0  0  3  0  0  0  0  0  0
  188.8790  173.2790  141.9880 C   0  0  0  0  0  3  0  0  0  0  0  0
  192.0980  172.7130  144.6200 C   0  0  0  0  0  0  0  0  0  0  0  0
  189.5020  176.3640  143.8060 C   0  0  2  0  0  3  0  0  0  0  0  0
  196.7750  173.4670  146.0800 C   0  0  0  0  0  1  0  0  0  0  0  0
  195.7370  174.5410  145.8160 C   0  0  0  0  0  2  0  0  0  0  0  0
  188.3040  176.6630  144.7250 C   0  0  1  0  0  3  0  0  0  0  0  0
  188.7100  177.1630  146.1130 C   0  0  0  0  0  2  0  0  0  0  0  0
  188.0230  176.4800  147.1190 O   0  0  0  0  0  1  0  0  0  0  0  0
  187.2340  177.5470  144.0740 C   0  0  0  0  0  2  0  0  0  0  0  0
  185.9200  176.8200  143.8180 C   0  0  0  0  0  2  0  0  0  0  0  0
  184.9870  177.7010  143.2710 O   0  0  0  0  0  0  0  0  0  0  0  0
  184.0690  178.4540  145.7800 O   0  0  0  0  0  0  0  0  0  0  0  0
  185.1630  180.2870  144.2640 O   0  0  0  0  0  0  0  0  0  0  0  0
  184.7320  178.8540  144.4820 P   0  0  0  0  0  0  0  0  0  0  0  0
  1  5  1  0  0  0  0
  2  6  1  6  0  0  0
  2  8  1  0  0  0  0
  3  4  1  0  0  0  0
  4 18  1  0  0  0  0
  5 12  1  0  0  0  0
  5 16  1  0  0  0  0
  7 10  1  6  0  0  0
  7  2  1  0  0  0  0
  8 13  1  0  0  0  0
  9  1  2  0  0  0  0
  9 14  1  0  0  0  0
 10 15  1  0  0  0  0
 11  3  2  0  0  0  0
 12  7  1  0  0  0  0
 13  4  2  0  0  0  0
 14 12  2  0  0  0  0
 15 11  1  0  0  0  0
 15  8  2  0  0  0  0
 16  6  1  0  0  0  0
 16 19  1  1  0  0  0
 18 17  1  0  0  0  0
 19 22  1  6  0  0  0
 19 20  1  0  0  0  0
 20 21  1  0  0  0  0
 23 22  1  0  0  0  0
 24 23  1  0  0  0  0
 24 27  1  0  0  0  0
 26 27  2  0  0  0  0
 27 25  2  0  0  0  0
M  END
>  <MODEL>
8

>  <REMARK>
 VINA RESULT:      -5.9      3.513      7.138
  Name = 
  7 active torsions:
  status: ('A' for Active; 'I' for Inactive)
    1  A    between atoms: C_1  and  C_26
    2  A    between atoms: C_5  and  C_15
    3  A    between atoms: O_10  and  P_24
    4  A    between atoms: O_10  and  C_27
    5  A    between atoms: C_22  and  C_26
    6  A    between atoms: C_22  and  C_27
    7  A    between atoms: C_25  and  C_26
                            x       y       z     vdW  Elec       q    Type
                         _______ _______ _______ _____ _____    ______ ____

>  <TORSDO>
F 7

$$$$
=
 OpenBabel11042418543D

 27 30  0  0  1  0  0  0  0  0999 V2000
  187.8280  177.1750  142.2420 C   0  0  0  0  0  3  0  0  0  0  0  0
  191.1490  175.6250  143.9300 C   0  0  1  0  0  3  0  0  0  0  0  0
  194.8250  175.0140  142.3670 N   0  0  0  0  0  0  0  0  0  0  0  0
  194.7520  175.9240  143.3870 C   0  0  0  0  0  0  0  0  0  0  0  0
  188.7840  176.6880  143.0490 N   0  0  0  0  0  0  0  0  0  0  0  0
  190.6320  176.8020  144.5680 N   0  0  0  0  0  2  0  0  0  0  0  0
  190.2910  174.7220  143.0920 C   0  0  2  0  0  3  0  0  0  0  0  0
  192.4080  175.4880  143.5620 C   0  0  0  0  0  0  0  0  0  0  0  0
  187.6750  176.3960  141.1460 N   0  0  0  0  0  0  0  0  0  0  0  0
  191.3090  174.1460  142.1440 C   0  0  0  0  0  2  0  0  0  0  0  0
  193.7220  174.3570  141.9040 C   0  0  0  0  0  3  0  0  0  0  0  0
  189.2520  175.5850  142.4470 C   0  0  0  0  0  0  0  0  0  0  0  0
  193.5220  176.1960  144.0090 C   0  0  0  0  0  3  0  0  0  0  0  0
  188.5630  175.3820  141.2720 C   0  0  0  0  0  3  0  0  0  0  0  0
  192.4960  174.6060  142.5140 C   0  0  0  0  0  0  0  0  0  0  0  0
  189.2290  177.1860  144.3570 C   0  0  2  0  0  3  0  0  0  0  0  0
  197.1250  176.3480  142.8890 C   0  0  0  0  0  1  0  0  0  0  0  0
  195.9860  176.6140  143.8540 C   0  0  0  0  0  2  0  0  0  0  0  0
  188.3510  176.6090  145.4830 C   0  0  1  0  0  3  0  0  0  0  0  0
  189.1360  176.2570  146.7480 C   0  0  0  0  0  2  0  0  0  0  0  0
  189.0170  174.9000  147.0570 O   0  0  0  0  0  1  0  0  0  0  0  0
  187.1030  177.4480  145.7810 C   0  0  0  0  0  2  0  0  0  0  0  0
  185.7990  176.7380  145.4390 C   0  0  0  0  0  2  0  0  0  0  0  0
  185.2230  177.3200  144.3100 O   0  0  0  0  0  0  0  0  0  0  0  0
  185.3190  180.0880  144.1360 O   0  0  0  0  0  0  0  0  0  0  0  0
  183.7770  179.0180  145.9610 O   0  0  0  0  0  0  0  0  0  0  0  0
  184.7550  178.8630  144.8190 P   0  0  0  0  0  0  0  0  0  0  0  0
  1  5  1  0  0  0  0
  2  8  1  6  0  0  0
  2  6  1  0  0  0  0
  3  4  1  0  0  0  0
  4 18  1  0  0  0  0
  4 13  2  0  0  0  0
  5 16  1  0  0  0  0
  7 10  1  6  0  0  0
  7  2  1  0  0  0  0
  8 13  1  0  0  0  0
  9 14  1  0  0  0  0
  9  1  2  0  0  0  0
 10 15  1  0  0  0  0
 11  3  2  0  0  0  0
 11 15  1  0  0  0  0
 12  5  1  0  0  0  0
 12  7  1  0  0  0  0
 14 12  2  0  0  0  0
 15  8  2  0  0  0  0
 16  6  1  0  0  0  0
 16 19  1  1  0  0  0
 17 18  1  0  0  0  0
 19 22  1  1  0  0  0
 19 20  1  0  0  0  0
 20 21  1  0  0  0  0
 23 22  1  0  0  0  0
 24 27  1  0  0  0  0
 24 23  1  0  0  0  0
 25 27  2  0  0  0  0
 27 26  2  0  0  0  0
M  END
>  <MODEL>
9

>  <REMARK>
 VINA RESULT:      -5.9      3.542      6.884
  Name = 
  7 active torsions:
  status: ('A' for Active; 'I' for Inactive)
    1  A    between atoms: C_1  and  C_26
    2  A    between atoms: C_5  and  C_15
    3  A    between atoms: O_10  and  P_24
    4  A    between atoms: O_10  and  C_27
    5  A    between atoms: C_22  and  C_26
    6  A    between atoms: C_22  and  C_27
    7  A    between atoms: C_25  and  C_26
                            x       y       z     vdW  Elec       q    Type
                         _______ _______ _______ _____ _____    ______ ____

>  <TORSDO>
F 7

$$$$
