=
 OpenBabel11042418383D

 67 72  0  0  1  0  0  0  0  0999 V2000
  196.9310  170.6200  144.1710 N   0  0  0  0  0  0  0  0  0  0  0  0
  194.1970  175.8660  141.3290 O   0  0  0  0  0  0  0  0  0  0  0  0
  194.8470  173.6480  141.7200 C   0  0  0  0  0  2  0  0  0  0  0  0
  194.0250  176.6470  144.8410 C   0  0  1  0  0  3  0  0  0  0  0  0
  194.6290  174.6950  140.6650 C   0  0  2  0  0  3  0  0  0  0  0  0
  195.4510  172.4810  144.3550 N   0  0  0  0  0  2  0  0  0  0  0  0
  195.3720  176.0700  145.2800 C   0  0  0  0  0  2  0  0  0  0  0  0
  193.5700  176.0440  143.5040 C   0  0  0  0  0  2  0  0  0  0  0  0
  196.6600  171.8650  143.9090 C   0  0  0  0  0  3  0  0  0  0  0  0
  195.2570  173.8910  144.2120 C   0  0  0  0  0  0  0  0  0  0  0  0
  195.3480  174.5140  142.8180 C   0  0  2  0  0  3  0  0  0  0  0  0
  194.7020  175.8270  142.6070 N   0  0  1  0  0  0  0  0  0  0  0  0
  195.3380  174.6160  145.2880 N   0  0  0  0  0  0  0  0  0  0  0  0
  196.0370  169.7360  144.8470 C   0  0  0  0  0  0  0  0  0  0  0  0
  195.0710  169.1280  144.1510 C   0  0  0  0  0  3  0  0  0  0  0  0
  192.6760  168.6250  144.5060 C   0  0  0  0  0  1  0  0  0  0  0  0
  194.1030  168.1660  144.7570 C   0  0  0  0  0  2  0  0  0  0  0  0
  196.2470  169.4650  146.3090 C   0  0  0  0  0  2  0  0  0  0  0  0
  196.9260  170.5340  146.9040 O   0  0  0  0  0  1  0  0  0  0  0  0
  192.9100  176.4230  145.8740 C   0  0  0  0  0  2  0  0  0  0  0  0
  191.4910  176.4970  145.2940 C   0  0  1  0  0  3  0  0  0  0  0  0
  190.4450  176.4470  146.3650 C   0  0  0  0  0  0  0  0  0  0  0  0
  189.2600  175.6600  146.1850 N   0  0  0  0  0  2  0  0  0  0  0  0
  190.6330  177.0770  147.4400 O   0  0  0  0  0  0  0  0  0  0  0  0
  188.1280  175.7040  147.1090 C   0  0  0  0  0  2  0  0  0  0  0  0
  184.4670  179.3890  145.1230 O   0  0  0  0  0  1  0  0  0  0  0  0
  185.9210  178.7310  146.8920 C   0  0  0  0  0  0  0  0  0  0  0  0
  186.0990  177.7180  144.5440 C   0  0  1  0  0  3  0  0  0  0  0  0
  187.2900  176.9580  145.1220 C   0  0  0  0  0  2  0  0  0  0  0  0
  186.9480  176.4830  146.5280 C   0  0  2  0  0  3  0  0  0  0  0  0
  186.5380  177.6490  147.3940 C   0  0  0  0  0  3  0  0  0  0  0  0
  185.5740  179.7340  147.7380 F   0  0  0  0  0  0  0  0  0  0  0  0
  185.7610  178.9500  145.4040 C   0  0  1  0  0  3  0  0  0  0  0  0
  186.3990  178.1310  143.2380 O   0  0  0  0  0  0  0  0  0  0  0  0
  185.4470  177.5060  142.4250 C   0  0  0  0  0  2  0  0  0  0  0  0
  185.8610  177.5520  141.1010 O   0  0  0  0  0  1  0  0  0  0  0  0
  191.3220  177.6670  144.4330 N   0  0  0  0  0  2  0  0  0  0  0  0
  190.2570  177.4310  143.5430 N   0  0  0  0  0  2  0  0  0  0  0  0
  190.5570  172.1900  140.5360 C   0  0  0  0  0  3  0  0  0  0  0  0
  189.1570  172.3420  140.7890 O   0  0  0  0  0  0  0  0  0  0  0  0
  191.2040  173.5050  141.0220 C   0  0  0  0  0  3  0  0  0  0  0  0
  189.6970  175.4440  142.1940 C   0  0  0  0  0  0  0  0  0  0  0  0
  188.4500  175.4330  142.5430 N   0  0  0  0  0  0  0  0  0  0  0  0
  187.7940  174.2670  141.9330 C   0  0  0  0  0  2  0  0  0  0  0  0
  188.9400  173.6130  141.2530 C   0  0  0  0  0  0  0  0  0  0  0  0
  190.0080  174.3200  141.3300 C   0  0  0  0  0  0  0  0  0  0  0  0
  190.6480  176.3850  142.6920 N   0  0  0  0  0  2  0  0  0  0  0  0
  195.9350  175.0080  139.9330 C   0  0  0  0  0  2  0  0  0  0  0  0
  196.1620  174.0370  137.5640 C   0  0  1  0  0  0  0  0  0  0  0  0
  196.9370  172.9300  138.3070 C   0  0  0  0  0  1  0  0  0  0  0  0
  194.6760  173.6850  137.3800 C   0  0  1  0  0  3  0  0  0  0  0  0
  194.2850  174.9700  138.1010 C   0  0  0  0  0  2  0  0  0  0  0  0
  195.7450  175.2440  138.4340 C   0  0  1  0  0  3  0  0  0  0  0  0
  194.1690  173.5370  135.9350 C   0  0  2  0  0  3  0  0  0  0  0  0
  193.5080  174.6810  135.4830 O   0  0  0  0  0  1  0  0  0  0  0  0
  193.2520  172.3240  135.8400 C   0  0  0  0  0  2  0  0  0  0  0  0
  192.2050  172.4640  136.7600 O   0  0  0  0  0  0  0  0  0  0  0  0
  191.0200  172.1100  136.0860 C   0  0  1  0  0  3  0  0  0  0  0  0
  190.9790  169.7970  136.8830 O   0  0  0  0  0  0  0  0  0  0  0  0
  190.7440  170.2680  134.6840 O   0  0  0  0  0  0  0  0  0  0  0  0
  191.0330  170.6780  135.8230 N   0  0  0  0  0  0  0  0  0  0  0  0
  189.7890  172.4710  136.9390 C   0  0  0  0  0  2  0  0  0  0  0  0
  189.4520  173.9540  136.8740 C   0  0  0  0  0  2  0  0  0  0  0  0
  189.7640  174.5520  135.5340 C   0  0  0  0  0  3  0  0  0  0  0  0
  190.4500  175.5550  135.4450 O   0  0  0  0  0  0  0  0  0  0  0  0
  196.8110  174.5160  136.3930 O   0  0  0  0  0  0  0  0  0  0  0  0
  197.6400  173.5110  135.8740 C   0  0  0  0  0  1  0  0  0  0  0  0
  1 14  1  0  0  0  0
  2 12  1  0  0  0  0
  4  7  1  0  0  0  0
  4 20  1  1  0  0  0
  5 48  1  1  0  0  0
  5  2  1  0  0  0  0
  5  3  1  0  0  0  0
  7 13  1  0  0  0  0
  8  4  1  0  0  0  0
  9  1  2  0  0  0  0
  9  6  1  0  0  0  0
 10  6  1  0  0  0  0
 10 13  2  0  0  0  0
 11  3  1  6  0  0  0
 11 10  1  0  0  0  0
 12 11  1  0  0  0  0
 12  8  1  1  0  0  0
 14 18  1  0  0  0  0
 15 17  1  0  0  0  0
 15 14  2  0  0  0  0
 16 17  1  0  0  0  0
 18 19  1  0  0  0  0
 21 20  1  1  0  0  0
 21 22  1  0  0  0  0
 22 24  2  0  0  0  0
 23 22  1  0  0  0  0
 23 25  1  0  0  0  0
 27 31  2  0  0  0  0
 27 32  1  0  0  0  0
 28 34  1  6  0  0  0
 28 29  1  0  0  0  0
 28 33  1  0  0  0  0
 29 30  1  0  0  0  0
 30 25  1  1  0  0  0
 30 31  1  0  0  0  0
 33 26  1  1  0  0  0
 33 27  1  0  0  0  0
 35 34  1  0  0  0  0
 36 35  1  0  0  0  0
 37 21  1  0  0  0  0
 38 37  1  0  0  0  0
 39 40  1  0  0  0  0
 39 41  2  0  0  0  0
 40 45  1  0  0  0  0
 41 46  1  0  0  0  0
 42 43  2  0  0  0  0
 42 47  1  0  0  0  0
 44 43  1  0  0  0  0
 45 46  2  0  0  0  0
 45 44  1  0  0  0  0
 46 42  1  0  0  0  0
 47 38  1  0  0  0  0
 49 50  1  1  0  0  0
 49 53  1  0  0  0  0
 51 54  1  6  0  0  0
 51 49  1  0  0  0  0
 51 52  1  0  0  0  0
 52 53  1  0  0  0  0
 53 48  1  1  0  0  0
 54 55  1  1  0  0  0
 56 54  1  0  0  0  0
 56 57  1  0  0  0  0
 58 57  1  0  0  0  0
 58 62  1  1  0  0  0
 60 61  2  0  0  0  0
 61 58  1  0  0  0  0
 61 59  2  0  0  0  0
 63 62  1  0  0  0  0
 64 63  1  0  0  0  0
 65 64  2  0  0  0  0
 66 49  1  0  0  0  0
 67 66  1  0  0  0  0
M  END
>  <MODEL>
1

>  <REMARK>
 VINA RESULT:      -6.2      0.000      0.000
  Name = 
  24 active torsions:
  status: ('A' for Active; 'I' for Inactive)
    1  A    between atoms: C_1  and  O_51
    2  A    between atoms: N_4  and  CA_29
    3  A    between atoms: C_7  and  C_32
    4  A    between atoms: C_7  and  N_54
    5  A    between atoms: C_10  and  C_25
    6  A    between atoms: C_10  and  C_38
    7  A    between atoms: C_14  and  O_18
    8  A    between atoms: C_15  and  C_34
    9  A    between atoms: C_16  and  O_18
   10  A    between atoms: C_19  and  C_30
   11  A    between atoms: C_19  and  C_65
   12  A    between atoms: C_21  and  C_48
   13  A    between atoms: C_22  and  N_37
   14  A    between atoms: C_22  and  C_48
   15  A    between atoms: C_22  and  C_52
   16  A    between atoms: C_25  and  O_60
   17  A    between atoms: C_26  and  C_45
   18  A    between atoms: CA_29  and  C_40
   19  A    between atoms: N_37  and  N_39
   20  A    between atoms: N_39  and  N_63
   21  A    between atoms: C_44  and  C_45
   22  A    between atoms: C_44  and  C_50
   23  A    between atoms: C_50  and  O_60
   24  A    between atoms: C_50  and  N_66
                            x       y       z     vdW  Elec       q    Type
                         _______ _______ _______ _____ _____    ______ ____

>  <TORSDO>
F 24

$$$$
=
 OpenBabel11042418383D

 67 72  0  0  1  0  0  0  0  0999 V2000
  197.3540  170.6560  144.5490 N   0  0  0  0  0  0  0  0  0  0  0  0
  194.4080  175.6450  141.4690 O   0  0  0  0  0  0  0  0  0  0  0  0
  195.2040  173.4890  141.9290 C   0  0  0  0  0  2  0  0  0  0  0  0
  193.9420  176.4360  144.9520 C   0  0  1  0  0  3  0  0  0  0  0  0
  194.9740  174.5080  140.8490 C   0  0  2  0  0  3  0  0  0  0  0  0
  195.7230  172.3940  144.6130 N   0  0  0  0  0  2  0  0  0  0  0  0
  195.2990  175.9710  145.4850 C   0  0  0  0  0  2  0  0  0  0  0  0
  193.6260  175.7890  143.5960 C   0  0  0  0  0  2  0  0  0  0  0  0
  197.0040  171.8730  144.2550 C   0  0  0  0  0  3  0  0  0  0  0  0
  195.4270  173.7830  144.4400 C   0  0  0  0  0  0  0  0  0  0  0  0
  195.5610  174.4000  143.0470 C   0  0  2  0  0  3  0  0  0  0  0  0
  194.8290  175.6560  142.7780 N   0  0  1  0  0  0  0  0  0  0  0  0
  195.3790  174.5190  145.5090 N   0  0  0  0  0  0  0  0  0  0  0  0
  196.4900  169.7080  145.1760 C   0  0  0  0  0  0  0  0  0  0  0  0
  195.2930  169.4600  144.6360 C   0  0  0  0  0  3  0  0  0  0  0  0
  193.0580  168.4370  144.3640 C   0  0  0  0  0  1  0  0  0  0  0  0
  194.3270  168.4680  145.1980 C   0  0  0  0  0  2  0  0  0  0  0  0
  196.9770  168.9700  146.3910 C   0  0  0  0  0  2  0  0  0  0  0  0
  196.6580  169.6860  147.5490 O   0  0  0  0  0  1  0  0  0  0  0  0
  192.7830  176.1310  145.9130 C   0  0  0  0  0  2  0  0  0  0  0  0
  191.3920  176.2300  145.2710 C   0  0  1  0  0  3  0  0  0  0  0  0
  190.3150  176.4150  146.2950 C   0  0  0  0  0  0  0  0  0  0  0  0
  189.0340  175.7940  146.1210 N   0  0  0  0  0  2  0  0  0  0  0  0
  190.5570  177.0950  147.3280 O   0  0  0  0  0  0  0  0  0  0  0  0
  187.8900  176.0720  146.9880 C   0  0  0  0  0  2  0  0  0  0  0  0
  183.6940  178.8710  144.6460 O   0  0  0  0  0  1  0  0  0  0  0  0
  184.7800  178.1410  146.6380 C   0  0  0  0  0  0  0  0  0  0  0  0
  185.9550  178.0950  144.3590 C   0  0  1  0  0  3  0  0  0  0  0  0
  187.1580  177.5980  145.1550 C   0  0  0  0  0  2  0  0  0  0  0  0
  186.6890  176.5910  146.1980 C   0  0  2  0  0  3  0  0  0  0  0  0
  185.6310  177.2030  147.0830 C   0  0  0  0  0  3  0  0  0  0  0  0
  183.8490  178.6350  147.4930 F   0  0  0  0  0  0  0  0  0  0  0  0
  184.9340  178.7910  145.2800 C   0  0  1  0  0  3  0  0  0  0  0  0
  186.3860  178.9990  143.3780 O   0  0  0  0  0  0  0  0  0  0  0  0
  186.1570  178.3550  142.1570 C   0  0  0  0  0  2  0  0  0  0  0  0
  185.5070  177.1490  142.3820 O   0  0  0  0  0  1  0  0  0  0  0  0
  191.3450  177.2740  144.2470 N   0  0  0  0  0  2  0  0  0  0  0  0
  190.1600  177.1290  143.5010 N   0  0  0  0  0  2  0  0  0  0  0  0
  190.2910  172.3720  139.7650 C   0  0  0  0  0  3  0  0  0  0  0  0
  188.9930  172.2850  140.3610 O   0  0  0  0  0  0  0  0  0  0  0  0
  190.8840  173.7050  140.2740 C   0  0  0  0  0  3  0  0  0  0  0  0
  189.5100  175.2500  142.0430 C   0  0  0  0  0  0  0  0  0  0  0  0
  188.4020  175.0150  142.6700 N   0  0  0  0  0  0  0  0  0  0  0  0
  187.7520  173.8420  142.0660 C   0  0  0  0  0  2  0  0  0  0  0  0
  188.7560  173.4480  141.0460 C   0  0  0  0  0  0  0  0  0  0  0  0
  189.7190  174.2910  140.9730 C   0  0  0  0  0  0  0  0  0  0  0  0
  190.4410  176.2590  142.4360 N   0  0  0  0  0  2  0  0  0  0  0  0
  196.2980  174.9190  140.2000 C   0  0  0  0  0  2  0  0  0  0  0  0
  197.0720  173.5640  138.1580 C   0  0  1  0  0  0  0  0  0  0  0  0
  197.9410  172.8490  139.2120 C   0  0  0  0  0  1  0  0  0  0  0  0
  195.7370  172.8400  137.9160 C   0  0  1  0  0  3  0  0  0  0  0  0
  194.9830  174.1160  138.2750 C   0  0  0  0  0  2  0  0  0  0  0  0
  196.2880  174.7900  138.6770 C   0  0  1  0  0  3  0  0  0  0  0  0
  195.4920  172.2830  136.5030 C   0  0  2  0  0  3  0  0  0  0  0  0
  194.8860  173.2160  135.6600 O   0  0  0  0  0  1  0  0  0  0  0  0
  194.6420  171.0220  136.5940 C   0  0  0  0  0  2  0  0  0  0  0  0
  194.7350  170.4960  137.8890 O   0  0  0  0  0  0  0  0  0  0  0  0
  193.4310  170.4850  138.4190 C   0  0  1  0  0  3  0  0  0  0  0  0
  193.5240  168.1690  137.6340 O   0  0  0  0  0  0  0  0  0  0  0  0
  191.5770  169.0730  138.3430 O   0  0  0  0  0  0  0  0  0  0  0  0
  192.7640  169.2550  138.0150 N   0  0  0  0  0  0  0  0  0  0  0  0
  193.4750  170.5720  139.9570 C   0  0  0  0  0  2  0  0  0  0  0  0
  194.3920  169.5220  140.5710 C   0  0  0  0  0  2  0  0  0  0  0  0
  195.7000  170.1010  141.0220 C   0  0  0  0  0  3  0  0  0  0  0  0
  196.7540  169.6620  140.5970 O   0  0  0  0  0  0  0  0  0  0  0  0
  197.7730  173.9320  136.9770 O   0  0  0  0  0  0  0  0  0  0  0  0
  197.8700  175.3300  136.9090 C   0  0  0  0  0  1  0  0  0  0  0  0
  1 14  1  0  0  0  0
  2 12  1  0  0  0  0
  4  7  1  0  0  0  0
  4 20  1  1  0  0  0
  5 48  1  1  0  0  0
  5  2  1  0  0  0  0
  5  3  1  0  0  0  0
  7 13  1  0  0  0  0
  8  4  1  0  0  0  0
  9  1  2  0  0  0  0
  9  6  1  0  0  0  0
 10  6  1  0  0  0  0
 10 13  2  0  0  0  0
 11  3  1  6  0  0  0
 11 10  1  0  0  0  0
 12 11  1  0  0  0  0
 12  8  1  1  0  0  0
 14 18  1  0  0  0  0
 15 14  2  0  0  0  0
 15 17  1  0  0  0  0
 16 17  1  0  0  0  0
 18 19  1  0  0  0  0
 21 20  1  1  0  0  0
 21 22  1  0  0  0  0
 22 24  2  0  0  0  0
 23 22  1  0  0  0  0
 23 25  1  0  0  0  0
 27 31  2  0  0  0  0
 27 32  1  0  0  0  0
 28 34  1  6  0  0  0
 28 29  1  0  0  0  0
 28 33  1  0  0  0  0
 29 30  1  0  0  0  0
 30 25  1  1  0  0  0
 30 31  1  0  0  0  0
 33 26  1  6  0  0  0
 33 27  1  0  0  0  0
 35 36  1  0  0  0  0
 35 34  1  0  0  0  0
 37 21  1  0  0  0  0
 38 37  1  0  0  0  0
 39 41  2  0  0  0  0
 39 40  1  0  0  0  0
 40 45  1  0  0  0  0
 41 46  1  0  0  0  0
 42 47  1  0  0  0  0
 42 43  2  0  0  0  0
 44 43  1  0  0  0  0
 45 44  1  0  0  0  0
 46 45  2  0  0  0  0
 46 42  1  0  0  0  0
 47 38  1  0  0  0  0
 49 53  1  0  0  0  0
 49 50  1  1  0  0  0
 51 54  1  6  0  0  0
 51 49  1  0  0  0  0
 51 52  1  0  0  0  0
 52 53  1  0  0  0  0
 53 48  1  1  0  0  0
 54 55  1  6  0  0  0
 54 56  1  0  0  0  0
 56 57  1  0  0  0  0
 57 58  1  0  0  0  0
 58 62  1  1  0  0  0
 59 61  2  0  0  0  0
 61 60  2  0  0  0  0
 61 58  1  0  0  0  0
 62 63  1  0  0  0  0
 63 64  1  0  0  0  0
 65 64  2  0  0  0  0
 66 49  1  0  0  0  0
 67 66  1  0  0  0  0
M  END
>  <MODEL>
2

>  <REMARK>
 VINA RESULT:      -6.0      1.575      2.375
  Name = 
  24 active torsions:
  status: ('A' for Active; 'I' for Inactive)
    1  A    between atoms: C_1  and  O_51
    2  A    between atoms: N_4  and  CA_29
    3  A    between atoms: C_7  and  C_32
    4  A    between atoms: C_7  and  N_54
    5  A    between atoms: C_10  and  C_25
    6  A    between atoms: C_10  and  C_38
    7  A    between atoms: C_14  and  O_18
    8  A    between atoms: C_15  and  C_34
    9  A    between atoms: C_16  and  O_18
   10  A    between atoms: C_19  and  C_30
   11  A    between atoms: C_19  and  C_65
   12  A    between atoms: C_21  and  C_48
   13  A    between atoms: C_22  and  N_37
   14  A    between atoms: C_22  and  C_48
   15  A    between atoms: C_22  and  C_52
   16  A    between atoms: C_25  and  O_60
   17  A    between atoms: C_26  and  C_45
   18  A    between atoms: CA_29  and  C_40
   19  A    between atoms: N_37  and  N_39
   20  A    between atoms: N_39  and  N_63
   21  A    between atoms: C_44  and  C_45
   22  A    between atoms: C_44  and  C_50
   23  A    between atoms: C_50  and  O_60
   24  A    between atoms: C_50  and  N_66
                            x       y       z     vdW  Elec       q    Type
                         _______ _______ _______ _____ _____    ______ ____

>  <TORSDO>
F 24

$$$$
=
 OpenBabel11042418383D

 67 72  0  0  1  0  0  0  0  0999 V2000
  197.9390  170.8220  143.7220 N   0  0  0  0  0  0  0  0  0  0  0  0
  193.3500  175.0200  141.6290 O   0  0  0  0  0  0  0  0  0  0  0  0
  194.7560  173.1470  141.7280 C   0  0  0  0  0  2  0  0  0  0  0  0
  193.1870  175.3400  145.2130 C   0  0  1  0  0  3  0  0  0  0  0  0
  194.1090  174.1490  140.8140 C   0  0  2  0  0  3  0  0  0  0  0  0
  195.9250  172.0140  144.1810 N   0  0  0  0  0  2  0  0  0  0  0  0
  194.6800  175.2340  145.5300 C   0  0  0  0  0  2  0  0  0  0  0  0
  192.8680  174.7510  143.8310 C   0  0  0  0  0  2  0  0  0  0  0  0
  197.2350  171.9110  143.6210 C   0  0  0  0  0  3  0  0  0  0  0  0
  195.2450  173.2710  144.2150 C   0  0  0  0  0  0  0  0  0  0  0  0
  195.0080  174.0210  142.9030 C   0  0  2  0  0  3  0  0  0  0  0  0
  193.9340  175.0360  142.8740 N   0  0  1  0  0  0  0  0  0  0  0  0
  195.1520  173.8680  145.3660 N   0  0  0  0  0  0  0  0  0  0  0  0
  197.4610  169.6170  144.3210 C   0  0  0  0  0  0  0  0  0  0  0  0
  197.4280  169.5200  145.6540 C   0  0  0  0  0  3  0  0  0  0  0  0
  197.1950  168.4400  147.8660 C   0  0  0  0  0  1  0  0  0  0  0  0
  196.9210  168.3150  146.3770 C   0  0  0  0  0  2  0  0  0  0  0  0
  196.9500  168.5170  143.4350 C   0  0  0  0  0  2  0  0  0  0  0  0
  197.2720  168.7850  142.1010 O   0  0  0  0  0  1  0  0  0  0  0  0
  192.3010  174.6360  146.2530 C   0  0  0  0  0  2  0  0  0  0  0  0
  190.8060  174.6360  145.9070 C   0  0  1  0  0  3  0  0  0  0  0  0
  190.2230  176.0160  145.9380 C   0  0  0  0  0  0  0  0  0  0  0  0
  188.8110  176.2120  145.7860 N   0  0  0  0  0  2  0  0  0  0  0  0
  190.9840  177.0010  146.1340 O   0  0  0  0  0  0  0  0  0  0  0  0
  188.2020  177.5320  145.6340 C   0  0  0  0  0  2  0  0  0  0  0  0
  183.8960  178.3240  142.2050 O   0  0  0  0  0  1  0  0  0  0  0  0
  185.2020  179.1170  144.0340 C   0  0  0  0  0  0  0  0  0  0  0  0
  186.0450  177.2720  142.4670 C   0  0  1  0  0  3  0  0  0  0  0  0
  187.3160  177.3400  143.3100 C   0  0  0  0  0  2  0  0  0  0  0  0
  186.9370  177.4810  144.7790 C   0  0  2  0  0  3  0  0  0  0  0  0
  186.0490  178.6860  144.9820 C   0  0  0  0  0  3  0  0  0  0  0  0
  184.4290  180.2020  144.2970 F   0  0  0  0  0  0  0  0  0  0  0  0
  185.2050  178.5530  142.6310 C   0  0  1  0  0  3  0  0  0  0  0  0
  186.3900  177.1110  141.1170 O   0  0  0  0  0  0  0  0  0  0  0  0
  187.7380  176.7380  141.1230 C   0  0  0  0  0  2  0  0  0  0  0  0
  187.8880  175.5240  140.4650 O   0  0  0  0  0  1  0  0  0  0  0  0
  190.5490  173.9740  144.6280 N   0  0  0  0  0  2  0  0  0  0  0  0
  190.6740  172.5820  144.8000 N   0  0  0  0  0  2  0  0  0  0  0  0
  193.2810  169.7780  140.1160 C   0  0  0  0  0  3  0  0  0  0  0  0
  193.8760  169.1410  141.2510 O   0  0  0  0  0  0  0  0  0  0  0  0
  192.1950  170.7120  140.6950 C   0  0  0  0  0  3  0  0  0  0  0  0
  191.8560  170.9450  143.3850 C   0  0  0  0  0  0  0  0  0  0  0  0
  192.5560  170.4570  144.3590 N   0  0  0  0  0  0  0  0  0  0  0  0
  193.4730  169.4390  143.8240 C   0  0  0  0  0  2  0  0  0  0  0  0
  193.1860  169.5260  142.3700 C   0  0  0  0  0  0  0  0  0  0  0  0
  192.2110  170.3220  142.1230 C   0  0  0  0  0  0  0  0  0  0  0  0
  190.9390  172.0280  143.5380 N   0  0  0  0  0  2  0  0  0  0  0  0
  195.1660  174.9730  140.0770 C   0  0  0  0  0  2  0  0  0  0  0  0
  195.4080  174.3690  137.5910 C   0  0  1  0  0  0  0  0  0  0  0  0
  196.5180  173.4440  138.1280 C   0  0  0  0  0  1  0  0  0  0  0  0
  194.0580  173.6430  137.4590 C   0  0  1  0  0  3  0  0  0  0  0  0
  193.4130  174.6820  138.3680 C   0  0  0  0  0  2  0  0  0  0  0  0
  194.7730  175.3110  138.6390 C   0  0  1  0  0  3  0  0  0  0  0  0
  193.4680  173.5200  136.0440 C   0  0  2  0  0  3  0  0  0  0  0  0
  192.5990  174.5690  135.7360 O   0  0  0  0  0  1  0  0  0  0  0  0
  192.7530  172.1830  135.9050 C   0  0  0  0  0  2  0  0  0  0  0  0
  192.3230  171.7560  137.1680 O   0  0  0  0  0  0  0  0  0  0  0  0
  191.0460  171.1900  136.9950 C   0  0  1  0  0  3  0  0  0  0  0  0
  190.0280  169.0740  137.6850 O   0  0  0  0  0  0  0  0  0  0  0  0
  192.0360  169.1080  136.6470 O   0  0  0  0  0  0  0  0  0  0  0  0
  191.1310  169.7520  137.2080 N   0  0  0  0  0  0  0  0  0  0  0  0
  190.0460  171.8040  137.9930 C   0  0  0  0  0  2  0  0  0  0  0  0
  190.1400  173.3240  138.0470 C   0  0  0  0  0  2  0  0  0  0  0  0
  189.3100  173.9840  136.9870 C   0  0  0  0  0  3  0  0  0  0  0  0
  188.2500  174.5170  137.2680 O   0  0  0  0  0  0  0  0  0  0  0  0
  195.7860  175.1340  136.4540 O   0  0  0  0  0  0  0  0  0  0  0  0
  197.1710  175.3560  136.4800 C   0  0  0  0  0  1  0  0  0  0  0  0
  1 14  1  0  0  0  0
  2 12  1  0  0  0  0
  4  7  1  0  0  0  0
  4 20  1  1  0  0  0
  5 48  1  1  0  0  0
  5  2  1  0  0  0  0
  5  3  1  0  0  0  0
  6 10  1  0  0  0  0
  8  4  1  0  0  0  0
  9  1  2  0  0  0  0
  9  6  1  0  0  0  0
 10 13  2  0  0  0  0
 11  3  1  6  0  0  0
 11 10  1  0  0  0  0
 12 11  1  0  0  0  0
 12  8  1  1  0  0  0
 13  7  1  0  0  0  0
 14 15  2  0  0  0  0
 15 17  1  0  0  0  0
 17 16  1  0  0  0  0
 18 14  1  0  0  0  0
 19 18  1  0  0  0  0
 21 22  1  0  0  0  0
 21 20  1  6  0  0  0
 22 24  2  0  0  0  0
 23 22  1  0  0  0  0
 25 23  1  0  0  0  0
 27 32  1  0  0  0  0
 27 31  2  0  0  0  0
 28 34  1  6  0  0  0
 28 33  1  0  0  0  0
 28 29  1  0  0  0  0
 29 30  1  0  0  0  0
 30 31  1  0  0  0  0
 30 25  1  1  0  0  0
 33 26  1  1  0  0  0
 33 27  1  0  0  0  0
 34 35  1  0  0  0  0
 36 35  1  0  0  0  0
 37 38  1  0  0  0  0
 37 21  1  0  0  0  0
 39 41  2  0  0  0  0
 39 40  1  0  0  0  0
 40 45  1  0  0  0  0
 41 46  1  0  0  0  0
 42 47  1  0  0  0  0
 42 43  2  0  0  0  0
 44 43  1  0  0  0  0
 45 44  1  0  0  0  0
 46 45  2  0  0  0  0
 46 42  1  0  0  0  0
 47 38  1  0  0  0  0
 49 50  1  1  0  0  0
 49 53  1  0  0  0  0
 51 54  1  6  0  0  0
 51 49  1  0  0  0  0
 51 52  1  0  0  0  0
 52 53  1  0  0  0  0
 53 48  1  1  0  0  0
 54 55  1  1  0  0  0
 56 54  1  0  0  0  0
 56 57  1  0  0  0  0
 58 57  1  0  0  0  0
 58 61  1  0  0  0  0
 58 62  1  1  0  0  0
 60 61  2  0  0  0  0
 61 59  2  0  0  0  0
 62 63  1  0  0  0  0
 64 65  2  0  0  0  0
 64 63  1  0  0  0  0
 66 67  1  0  0  0  0
 66 49  1  0  0  0  0
M  END
>  <MODEL>
3

>  <REMARK>
 VINA RESULT:      -5.6      1.975      2.846
  Name = 
  24 active torsions:
  status: ('A' for Active; 'I' for Inactive)
    1  A    between atoms: C_1  and  O_51
    2  A    between atoms: N_4  and  CA_29
    3  A    between atoms: C_7  and  C_32
    4  A    between atoms: C_7  and  N_54
    5  A    between atoms: C_10  and  C_25
    6  A    between atoms: C_10  and  C_38
    7  A    between atoms: C_14  and  O_18
    8  A    between atoms: C_15  and  C_34
    9  A    between atoms: C_16  and  O_18
   10  A    between atoms: C_19  and  C_30
   11  A    between atoms: C_19  and  C_65
   12  A    between atoms: C_21  and  C_48
   13  A    between atoms: C_22  and  N_37
   14  A    between atoms: C_22  and  C_48
   15  A    between atoms: C_22  and  C_52
   16  A    between atoms: C_25  and  O_60
   17  A    between atoms: C_26  and  C_45
   18  A    between atoms: CA_29  and  C_40
   19  A    between atoms: N_37  and  N_39
   20  A    between atoms: N_39  and  N_63
   21  A    between atoms: C_44  and  C_45
   22  A    between atoms: C_44  and  C_50
   23  A    between atoms: C_50  and  O_60
   24  A    between atoms: C_50  and  N_66
                            x       y       z     vdW  Elec       q    Type
                         _______ _______ _______ _____ _____    ______ ____

>  <TORSDO>
F 24

$$$$
=
 OpenBabel11042418383D

 67 72  0  0  1  0  0  0  0  0999 V2000
  190.6730  171.0070  142.4790 N   0  0  0  0  0  0  0  0  0  0  0  0
  190.8220  176.1680  146.5300 O   0  0  0  0  0  0  0  0  0  0  0  0
  190.5030  173.9840  145.7380 C   0  0  0  0  0  2  0  0  0  0  0  0
  193.5800  176.7900  144.3000 C   0  0  1  0  0  3  0  0  0  0  0  0
  189.9530  175.0570  146.6350 C   0  0  2  0  0  3  0  0  0  0  0  0
  191.9460  172.7540  143.4860 N   0  0  0  0  0  2  0  0  0  0  0  0
  192.9530  176.2880  142.9980 C   0  0  0  0  0  2  0  0  0  0  0  0
  192.8570  176.2140  145.5250 C   0  0  0  0  0  2  0  0  0  0  0  0
  190.7580  172.2400  142.8830 C   0  0  0  0  0  3  0  0  0  0  0  0
  192.0800  174.1520  143.7560 C   0  0  0  0  0  0  0  0  0  0  0  0
  191.0400  174.8360  144.6460 C   0  0  2  0  0  3  0  0  0  0  0  0
  191.4190  176.1110  145.2930 N   0  0  1  0  0  0  0  0  0  0  0  0
  192.8710  174.8360  142.9860 N   0  0  0  0  0  0  0  0  0  0  0  0
  191.7050  170.0370  142.6600 C   0  0  0  0  0  0  0  0  0  0  0  0
  192.4820  170.1070  143.7470 C   0  0  0  0  0  3  0  0  0  0  0  0
  194.8610  169.8570  144.3700 C   0  0  0  0  0  1  0  0  0  0  0  0
  193.5690  169.1270  144.0430 C   0  0  0  0  0  2  0  0  0  0  0  0
  191.8480  168.9290  141.6570 C   0  0  0  0  0  2  0  0  0  0  0  0
  190.6770  168.1660  141.6130 O   0  0  0  0  0  1  0  0  0  0  0  0
  195.0740  176.4490  144.4170 C   0  0  0  0  0  2  0  0  0  0  0  0
  195.5230  175.2820  143.5280 C   0  0  1  0  0  3  0  0  0  0  0  0
  196.1490  175.7570  142.2530 C   0  0  0  0  0  0  0  0  0  0  0  0
  195.7230  175.2230  140.9920 N   0  0  0  0  0  2  0  0  0  0  0  0
  197.0310  176.6570  142.2980 O   0  0  0  0  0  0  0  0  0  0  0  0
  196.4070  175.5140  139.7340 C   0  0  0  0  0  2  0  0  0  0  0  0
  194.9390  172.9390  135.0280 O   0  0  0  0  0  1  0  0  0  0  0  0
  194.6310  174.7780  136.5110 C   0  0  0  0  0  0  0  0  0  0  0  0
  196.7080  173.2800  136.6240 C   0  0  1  0  0  3  0  0  0  0  0  0
  197.1560  174.2350  137.7270 C   0  0  0  0  0  2  0  0  0  0  0  0
  195.9640  174.5730  138.6140 C   0  0  2  0  0  3  0  0  0  0  0  0
  194.8360  175.1410  137.7870 C   0  0  0  0  0  3  0  0  0  0  0  0
  193.5880  175.3270  135.8380 F   0  0  0  0  0  0  0  0  0  0  0  0
  195.6180  173.9240  135.7470 C   0  0  1  0  0  3  0  0  0  0  0  0
  197.8090  172.9430  135.8240 O   0  0  0  0  0  0  0  0  0  0  0  0
  197.9410  171.5550  135.9450 C   0  0  0  0  0  2  0  0  0  0  0  0
  197.0130  171.0770  136.8590 O   0  0  0  0  0  1  0  0  0  0  0  0
  196.4050  174.3640  144.2490 N   0  0  0  0  0  2  0  0  0  0  0  0
  196.5740  173.1950  143.4840 N   0  0  0  0  0  2  0  0  0  0  0  0
  192.8660  171.9710  138.8630 C   0  0  0  0  0  3  0  0  0  0  0  0
  193.8850  170.9750  138.7370 O   0  0  0  0  0  0  0  0  0  0  0  0
  193.1770  172.7070  140.1840 C   0  0  0  0  0  3  0  0  0  0  0  0
  195.3780  172.0630  141.6480 C   0  0  0  0  0  0  0  0  0  0  0  0
  196.3540  171.2560  141.3750 N   0  0  0  0  0  0  0  0  0  0  0  0
  195.9810  170.4320  140.2150 C   0  0  0  0  0  2  0  0  0  0  0  0
  194.6530  171.0000  139.8710 C   0  0  0  0  0  0  0  0  0  0  0  0
  194.2700  171.8720  140.7300 C   0  0  0  0  0  0  0  0  0  0  0  0
  195.4470  173.0730  142.6540 N   0  0  0  0  0  2  0  0  0  0  0  0
  188.5590  175.4870  146.1740 C   0  0  0  0  0  2  0  0  0  0  0  0
  187.7890  177.2970  144.5190 C   0  0  1  0  0  0  0  0  0  0  0  0
  187.5900  176.0810  143.5910 C   0  0  0  0  0  1  0  0  0  0  0  0
  186.5000  177.6760  145.2670 C   0  0  1  0  0  3  0  0  0  0  0  0
  187.2280  177.5200  146.5970 C   0  0  0  0  0  2  0  0  0  0  0  0
  188.4580  176.9840  145.8770 C   0  0  1  0  0  3  0  0  0  0  0  0
  185.9080  179.0660  144.9770 C   0  0  2  0  0  3  0  0  0  0  0  0
  184.8860  179.4060  145.8650 O   0  0  0  0  0  1  0  0  0  0  0  0
  185.4010  179.1130  143.5420 C   0  0  0  0  0  2  0  0  0  0  0  0
  184.2950  178.2630  143.4150 O   0  0  0  0  0  0  0  0  0  0  0  0
  184.2250  177.8840  142.0610 C   0  0  1  0  0  3  0  0  0  0  0  0
  182.5190  177.7750  140.3100 O   0  0  0  0  0  0  0  0  0  0  0  0
  182.0940  178.8040  142.2780 O   0  0  0  0  0  0  0  0  0  0  0  0
  182.9370  178.2930  141.5190 N   0  0  0  0  0  0  0  0  0  0  0  0
  185.3610  178.5470  141.2590 C   0  0  0  0  0  2  0  0  0  0  0  0
  186.4260  177.5490  140.8260 C   0  0  0  0  0  2  0  0  0  0  0  0
  186.3320  177.2110  139.3670 C   0  0  0  0  0  3  0  0  0  0  0  0
  187.0200  176.3260  138.8880 O   0  0  0  0  0  0  0  0  0  0  0  0
  188.4690  178.3880  143.9120 O   0  0  0  0  0  0  0  0  0  0  0  0
  189.6870  177.9410  143.3780 C   0  0  0  0  0  1  0  0  0  0  0  0
  1 14  1  0  0  0  0
  1  9  2  0  0  0  0
  2  5  1  0  0  0  0
  3  5  1  0  0  0  0
  4 20  1  1  0  0  0
  4  8  1  0  0  0  0
  5 48  1  6  0  0  0
  6 10  1  0  0  0  0
  7  4  1  0  0  0  0
  9  6  1  0  0  0  0
 10 11  1  0  0  0  0
 11 12  1  0  0  0  0
 11  3  1  1  0  0  0
 12  8  1  1  0  0  0
 12  2  1  0  0  0  0
 13  7  1  0  0  0  0
 13 10  2  0  0  0  0
 14 15  2  0  0  0  0
 15 17  1  0  0  0  0
 17 16  1  0  0  0  0
 18 14  1  0  0  0  0
 19 18  1  0  0  0  0
 21 37  1  0  0  0  0
 21 20  1  1  0  0  0
 22 24  2  0  0  0  0
 22 21  1  0  0  0  0
 23 22  1  0  0  0  0
 25 23  1  0  0  0  0
 27 31  2  0  0  0  0
 28 34  1  6  0  0  0
 28 29  1  0  0  0  0
 29 30  1  0  0  0  0
 30 25  1  1  0  0  0
 31 30  1  0  0  0  0
 32 27  1  0  0  0  0
 33 26  1  1  0  0  0
 33 27  1  0  0  0  0
 33 28  1  0  0  0  0
 34 35  1  0  0  0  0
 35 36  1  0  0  0  0
 38 37  1  0  0  0  0
 39 41  2  0  0  0  0
 40 39  1  0  0  0  0
 40 45  1  0  0  0  0
 41 46  1  0  0  0  0
 42 47  1  0  0  0  0
 43 42  2  0  0  0  0
 44 43  1  0  0  0  0
 45 44  1  0  0  0  0
 45 46  2  0  0  0  0
 46 42  1  0  0  0  0
 47 38  1  0  0  0  0
 49 50  1  6  0  0  0
 49 51  1  0  0  0  0
 49 53  1  0  0  0  0
 51 54  1  6  0  0  0
 51 52  1  0  0  0  0
 53 48  1  6  0  0  0
 53 52  1  0  0  0  0
 54 55  1  1  0  0  0
 56 54  1  0  0  0  0
 57 56  1  0  0  0  0
 58 62  1  6  0  0  0
 58 57  1  0  0  0  0
 59 61  2  0  0  0  0
 61 58  1  0  0  0  0
 61 60  2  0  0  0  0
 63 62  1  0  0  0  0
 64 63  1  0  0  0  0
 65 64  2  0  0  0  0
 66 49  1  0  0  0  0
 67 66  1  0  0  0  0
M  END
>  <MODEL>
4

>  <REMARK>
 VINA RESULT:      -5.1      3.187      9.408
  Name = 
  24 active torsions:
  status: ('A' for Active; 'I' for Inactive)
    1  A    between atoms: C_1  and  O_51
    2  A    between atoms: N_4  and  CA_29
    3  A    between atoms: C_7  and  C_32
    4  A    between atoms: C_7  and  N_54
    5  A    between atoms: C_10  and  C_25
    6  A    between atoms: C_10  and  C_38
    7  A    between atoms: C_14  and  O_18
    8  A    between atoms: C_15  and  C_34
    9  A    between atoms: C_16  and  O_18
   10  A    between atoms: C_19  and  C_30
   11  A    between atoms: C_19  and  C_65
   12  A    between atoms: C_21  and  C_48
   13  A    between atoms: C_22  and  N_37
   14  A    between atoms: C_22  and  C_48
   15  A    between atoms: C_22  and  C_52
   16  A    between atoms: C_25  and  O_60
   17  A    between atoms: C_26  and  C_45
   18  A    between atoms: CA_29  and  C_40
   19  A    between atoms: N_37  and  N_39
   20  A    between atoms: N_39  and  N_63
   21  A    between atoms: C_44  and  C_45
   22  A    between atoms: C_44  and  C_50
   23  A    between atoms: C_50  and  O_60
   24  A    between atoms: C_50  and  N_66
                            x       y       z     vdW  Elec       q    Type
                         _______ _______ _______ _____ _____    ______ ____

>  <TORSDO>
F 24

$$$$
=
 OpenBabel11042418383D

 67 72  0  0  1  0  0  0  0  0999 V2000
  190.3210  176.9090  146.9720 N   0  0  0  0  0  0  0  0  0  0  0  0
  188.2630  177.0160  140.7420 O   0  0  0  0  0  0  0  0  0  0  0  0
  189.3180  177.6550  142.7350 C   0  0  0  0  0  2  0  0  0  0  0  0
  188.6720  173.5020  141.4140 C   0  0  1  0  0  3  0  0  0  0  0  0
  188.5590  178.1480  141.5360 C   0  0  2  0  0  3  0  0  0  0  0  0
  190.2300  175.8230  144.8510 N   0  0  0  0  0  2  0  0  0  0  0  0
  188.1680  173.4750  142.8580 C   0  0  0  0  0  2  0  0  0  0  0  0
  189.0930  174.9190  140.9980 C   0  0  0  0  0  2  0  0  0  0  0  0
  189.6510  176.5970  145.9020 C   0  0  0  0  0  3  0  0  0  0  0  0
  189.4240  175.3420  143.7720 C   0  0  0  0  0  0  0  0  0  0  0  0
  188.6400  176.3480  142.9280 C   0  0  2  0  0  3  0  0  0  0  0  0
  188.2090  175.9260  141.5780 N   0  0  1  0  0  0  0  0  0  0  0  0
  189.1370  174.0740  143.7610 N   0  0  0  0  0  0  0  0  0  0  0  0
  191.6970  176.5850  147.1730 C   0  0  0  0  0  0  0  0  0  0  0  0
  192.6110  177.0690  146.3250 C   0  0  0  0  0  3  0  0  0  0  0  0
  194.4120  175.4110  145.9790 C   0  0  0  0  0  1  0  0  0  0  0  0
  194.0760  176.8120  146.4630 C   0  0  0  0  0  2  0  0  0  0  0  0
  192.0850  175.7600  148.3670 C   0  0  0  0  0  2  0  0  0  0  0  0
  191.0880  174.8200  148.6460 O   0  0  0  0  0  1  0  0  0  0  0  0
  189.8610  172.5570  141.1760 C   0  0  0  0  0  2  0  0  0  0  0  0
  190.6290  172.8300  139.8760 C   0  0  1  0  0  3  0  0  0  0  0  0
  192.0650  172.4140  139.9760 C   0  0  0  0  0  0  0  0  0  0  0  0
  193.1010  173.2480  139.4390 N   0  0  0  0  0  2  0  0  0  0  0  0
  192.3550  171.3390  140.5660 O   0  0  0  0  0  0  0  0  0  0  0  0
  194.4960  172.8240  139.3500 C   0  0  0  0  0  2  0  0  0  0  0  0
  196.9590  176.4520  142.7700 O   0  0  0  0  0  1  0  0  0  0  0  0
  195.2970  176.0370  141.1130 C   0  0  0  0  0  0  0  0  0  0  0  0
  196.4400  174.1320  142.3930 C   0  0  1  0  0  3  0  0  0  0  0  0
  195.5000  173.2310  141.5970 C   0  0  0  0  0  2  0  0  0  0  0  0
  195.4210  173.7310  140.1600 C   0  0  2  0  0  3  0  0  0  0  0  0
  194.9910  175.1780  140.1280 C   0  0  0  0  0  3  0  0  0  0  0  0
  194.8820  177.3260  141.0060 F   0  0  0  0  0  0  0  0  0  0  0  0
  195.9260  175.5840  142.4120 C   0  0  1  0  0  3  0  0  0  0  0  0
  196.5380  173.6570  143.7080 O   0  0  0  0  0  0  0  0  0  0  0  0
  195.8790  172.4230  143.7050 C   0  0  0  0  0  2  0  0  0  0  0  0
  196.8070  171.3980  143.8240 O   0  0  0  0  0  1  0  0  0  0  0  0
  189.9710  172.2150  138.7230 N   0  0  0  0  0  2  0  0  0  0  0  0
  189.5010  173.2310  137.8690 N   0  0  0  0  0  2  0  0  0  0  0  0
  194.7830  174.4490  135.1830 C   0  0  0  0  0  3  0  0  0  0  0  0
  194.3590  173.2440  134.5390 O   0  0  0  0  0  0  0  0  0  0  0  0
  193.6020  174.8650  136.0880 C   0  0  0  0  0  3  0  0  0  0  0  0
  191.3800  173.3050  136.2740 C   0  0  0  0  0  0  0  0  0  0  0  0
  191.1430  172.1310  135.7840 N   0  0  0  0  0  0  0  0  0  0  0  0
  192.1790  171.8100  134.7910 C   0  0  0  0  0  2  0  0  0  0  0  0
  193.0580  173.0020  134.8950 C   0  0  0  0  0  0  0  0  0  0  0  0
  192.5660  173.8910  135.6770 C   0  0  0  0  0  0  0  0  0  0  0  0
  190.6250  173.8840  137.3390 N   0  0  0  0  0  2  0  0  0  0  0  0
  187.2420  178.8010  141.9590 C   0  0  0  0  0  2  0  0  0  0  0  0
  184.9310  178.3270  142.9790 C   0  0  1  0  0  0  0  0  0  0  0  0
  185.2300  179.6220  143.7600 C   0  0  0  0  0  1  0  0  0  0  0  0
  184.1210  178.5930  141.6980 C   0  0  1  0  0  3  0  0  0  0  0  0
  185.2110  177.9210  140.8720 C   0  0  0  0  0  2  0  0  0  0  0  0
  186.0940  177.8020  142.1060 C   0  0  1  0  0  3  0  0  0  0  0  0
  182.7200  177.9610  141.6150 C   0  0  2  0  0  3  0  0  0  0  0  0
  182.4000  177.5440  140.3220 O   0  0  0  0  0  1  0  0  0  0  0  0
  181.6830  178.9540  142.1230 C   0  0  0  0  0  2  0  0  0  0  0  0
  180.4010  178.4370  141.8980 O   0  0  0  0  0  0  0  0  0  0  0  0
  179.5140  179.5310  141.9080 C   0  0  1  0  0  3  0  0  0  0  0  0
  179.6990  181.2140  140.1410 O   0  0  0  0  0  0  0  0  0  0  0  0
  179.0270  179.1080  139.6670 O   0  0  0  0  0  0  0  0  0  0  0  0
  179.2760  179.9620  140.5370 N   0  0  0  0  0  0  0  0  0  0  0  0
  178.1790  179.1330  142.5660 C   0  0  0  0  0  2  0  0  0  0  0  0
  178.3260  177.9410  143.5030 C   0  0  0  0  0  2  0  0  0  0  0  0
  178.0740  176.6360  142.8080 C   0  0  0  0  0  3  0  0  0  0  0  0
  177.6970  176.6110  141.6490 O   0  0  0  0  0  0  0  0  0  0  0  0
  184.4420  177.2610  143.7820 O   0  0  0  0  0  0  0  0  0  0  0  0
  185.5220  176.5920  144.3780 C   0  0  0  0  0  1  0  0  0  0  0  0
  1 14  1  0  0  0  0
  2  5  1  0  0  0  0
  2 12  1  0  0  0  0
  4 20  1  1  0  0  0
  4  7  1  0  0  0  0
  5 48  1  1  0  0  0
  5  3  1  0  0  0  0
  6  9  1  0  0  0  0
  7 13  1  0  0  0  0
  8  4  1  0  0  0  0
  9  1  2  0  0  0  0
 10  6  1  0  0  0  0
 11  3  1  6  0  0  0
 11 10  1  0  0  0  0
 12  8  1  6  0  0  0
 12 11  1  0  0  0  0
 13 10  2  0  0  0  0
 14 18  1  0  0  0  0
 15 17  1  0  0  0  0
 15 14  2  0  0  0  0
 16 17  1  0  0  0  0
 18 19  1  0  0  0  0
 21 22  1  0  0  0  0
 21 20  1  1  0  0  0
 22 24  2  0  0  0  0
 23 22  1  0  0  0  0
 25 23  1  0  0  0  0
 27 33  1  0  0  0  0
 28 33  1  0  0  0  0
 28 34  1  1  0  0  0
 29 28  1  0  0  0  0
 30 25  1  6  0  0  0
 30 29  1  0  0  0  0
 31 30  1  0  0  0  0
 31 27  2  0  0  0  0
 32 27  1  0  0  0  0
 33 26  1  6  0  0  0
 35 34  1  0  0  0  0
 35 36  1  0  0  0  0
 37 21  1  0  0  0  0
 38 37  1  0  0  0  0
 39 41  2  0  0  0  0
 40 45  1  0  0  0  0
 40 39  1  0  0  0  0
 42 47  1  0  0  0  0
 43 42  2  0  0  0  0
 44 45  1  0  0  0  0
 44 43  1  0  0  0  0
 45 46  2  0  0  0  0
 46 41  1  0  0  0  0
 46 42  1  0  0  0  0
 47 38  1  0  0  0  0
 49 50  1  1  0  0  0
 49 66  1  0  0  0  0
 51 54  1  1  0  0  0
 51 49  1  0  0  0  0
 52 51  1  0  0  0  0
 52 53  1  0  0  0  0
 53 48  1  6  0  0  0
 53 49  1  0  0  0  0
 54 55  1  6  0  0  0
 54 56  1  0  0  0  0
 57 58  1  0  0  0  0
 57 56  1  0  0  0  0
 58 62  1  6  0  0  0
 59 61  2  0  0  0  0
 60 61  2  0  0  0  0
 61 58  1  0  0  0  0
 62 63  1  0  0  0  0
 64 63  1  0  0  0  0
 65 64  2  0  0  0  0
 66 67  1  0  0  0  0
M  END
>  <MODEL>
5

>  <REMARK>
 VINA RESULT:      -4.5      3.679     10.434
  Name = 
  24 active torsions:
  status: ('A' for Active; 'I' for Inactive)
    1  A    between atoms: C_1  and  O_51
    2  A    between atoms: N_4  and  CA_29
    3  A    between atoms: C_7  and  C_32
    4  A    between atoms: C_7  and  N_54
    5  A    between atoms: C_10  and  C_25
    6  A    between atoms: C_10  and  C_38
    7  A    between atoms: C_14  and  O_18
    8  A    between atoms: C_15  and  C_34
    9  A    between atoms: C_16  and  O_18
   10  A    between atoms: C_19  and  C_30
   11  A    between atoms: C_19  and  C_65
   12  A    between atoms: C_21  and  C_48
   13  A    between atoms: C_22  and  N_37
   14  A    between atoms: C_22  and  C_48
   15  A    between atoms: C_22  and  C_52
   16  A    between atoms: C_25  and  O_60
   17  A    between atoms: C_26  and  C_45
   18  A    between atoms: CA_29  and  C_40
   19  A    between atoms: N_37  and  N_39
   20  A    between atoms: N_39  and  N_63
   21  A    between atoms: C_44  and  C_45
   22  A    between atoms: C_44  and  C_50
   23  A    between atoms: C_50  and  O_60
   24  A    between atoms: C_50  and  N_66
                            x       y       z     vdW  Elec       q    Type
                         _______ _______ _______ _____ _____    ______ ____

>  <TORSDO>
F 24

$$$$
=
 OpenBabel11042418383D

 67 72  0  0  1  0  0  0  0  0999 V2000
  189.7970  177.0610  147.0000 N   0  0  0  0  0  0  0  0  0  0  0  0
  188.4010  177.2020  140.5900 O   0  0  0  0  0  0  0  0  0  0  0  0
  189.2170  177.8440  142.6920 C   0  0  0  0  0  2  0  0  0  0  0  0
  188.8700  173.6930  141.2540 C   0  0  1  0  0  3  0  0  0  0  0  0
  188.5690  178.3290  141.4260 C   0  0  2  0  0  3  0  0  0  0  0  0
  189.9700  176.0090  144.8670 N   0  0  0  0  0  2  0  0  0  0  0  0
  188.2180  173.6230  142.6370 C   0  0  0  0  0  2  0  0  0  0  0  0
  189.2780  175.1310  140.9040 C   0  0  0  0  0  2  0  0  0  0  0  0
  189.2550  176.7440  145.8610 C   0  0  0  0  0  3  0  0  0  0  0  0
  189.3010  175.5180  143.7030 C   0  0  0  0  0  0  0  0  0  0  0  0
  188.5710  176.5090  142.7950 C   0  0  2  0  0  3  0  0  0  0  0  0
  188.3010  176.0960  141.4010 N   0  0  1  0  0  0  0  0  0  0  0  0
  189.0650  174.2410  143.6440 N   0  0  0  0  0  0  0  0  0  0  0  0
  191.1550  176.7830  147.3410 C   0  0  0  0  0  0  0  0  0  0  0  0
  192.0720  176.7230  146.3680 C   0  0  0  0  0  3  0  0  0  0  0  0
  194.3730  177.2200  145.6150 C   0  0  0  0  0  1  0  0  0  0  0  0
  193.5210  176.4660  146.6210 C   0  0  0  0  0  2  0  0  0  0  0  0
  191.5280  176.6300  148.7870 C   0  0  0  0  0  2  0  0  0  0  0  0
  191.5970  177.8840  149.4020 O   0  0  0  0  0  1  0  0  0  0  0  0
  190.1120  172.7960  141.1300 C   0  0  0  0  0  2  0  0  0  0  0  0
  190.1310  171.9210  139.8700 C   0  0  1  0  0  3  0  0  0  0  0  0
  190.5700  170.5200  140.1680 C   0  0  0  0  0  0  0  0  0  0  0  0
  190.8170  170.1080  141.5190 N   0  0  0  0  0  2  0  0  0  0  0  0
  190.6890  169.6980  139.2210 O   0  0  0  0  0  0  0  0  0  0  0  0
  191.4100  168.8170  141.8620 C   0  0  0  0  0  2  0  0  0  0  0  0
  196.0150  170.1040  144.7010 O   0  0  0  0  0  1  0  0  0  0  0  0
  195.0290  169.4270  142.6400 C   0  0  0  0  0  0  0  0  0  0  0  0
  193.6350  170.4310  144.5430 C   0  0  1  0  0  3  0  0  0  0  0  0
  192.4730  170.2990  143.5640 C   0  0  0  0  0  2  0  0  0  0  0  0
  192.5810  168.9680  142.8320 C   0  0  2  0  0  3  0  0  0  0  0  0
  193.9220  168.8500  142.1480 C   0  0  0  0  0  3  0  0  0  0  0  0
  196.2000  169.2660  141.9720 F   0  0  0  0  0  0  0  0  0  0  0  0
  194.9860  170.3930  143.8040 C   0  0  1  0  0  3  0  0  0  0  0  0
  193.5220  171.6420  145.2410 O   0  0  0  0  0  0  0  0  0  0  0  0
  193.1760  172.5930  144.2750 C   0  0  0  0  0  2  0  0  0  0  0  0
  194.0730  173.6520  144.3220 O   0  0  0  0  0  1  0  0  0  0  0  0
  188.8420  171.9440  139.1790 N   0  0  0  0  0  2  0  0  0  0  0  0
  189.0390  172.3870  137.8580 N   0  0  0  0  0  2  0  0  0  0  0  0
  193.9200  175.4840  136.0720 C   0  0  0  0  0  3  0  0  0  0  0  0
  192.8880  175.9740  135.2100 O   0  0  0  0  0  0  0  0  0  0  0  0
  193.2030  174.5600  137.0810 C   0  0  0  0  0  3  0  0  0  0  0  0
  190.5310  174.0860  136.8740 C   0  0  0  0  0  0  0  0  0  0  0  0
  189.6910  174.4380  135.9540 N   0  0  0  0  0  0  0  0  0  0  0  0
  190.3220  175.4510  135.0950 C   0  0  0  0  0  2  0  0  0  0  0  0
  191.6840  175.5210  135.6810 C   0  0  0  0  0  0  0  0  0  0  0  0
  191.7840  174.8080  136.7430 C   0  0  0  0  0  0  0  0  0  0  0  0
  190.2780  173.0460  137.8190 N   0  0  0  0  0  2  0  0  0  0  0  0
  187.1910  178.9270  141.7160 C   0  0  0  0  0  2  0  0  0  0  0  0
  184.8820  178.3140  142.6650 C   0  0  1  0  0  0  0  0  0  0  0  0
  185.1130  179.5840  143.5080 C   0  0  0  0  0  1  0  0  0  0  0  0
  184.0870  178.6030  141.3810 C   0  0  1  0  0  3  0  0  0  0  0  0
  185.2200  178.0140  140.5490 C   0  0  0  0  0  2  0  0  0  0  0  0
  186.0830  177.8760  141.7950 C   0  0  1  0  0  3  0  0  0  0  0  0
  182.7160  177.9190  141.2410 C   0  0  2  0  0  3  0  0  0  0  0  0
  182.5080  177.4010  139.9610 O   0  0  0  0  0  1  0  0  0  0  0  0
  181.6150  178.9090  141.5970 C   0  0  0  0  0  2  0  0  0  0  0  0
  180.7010  178.9820  140.5380 O   0  0  0  0  0  0  0  0  0  0  0  0
  179.5720  179.6710  141.0220 C   0  0  1  0  0  3  0  0  0  0  0  0
  179.8080  181.7880  139.8180 O   0  0  0  0  0  0  0  0  0  0  0  0
  178.3570  180.2080  139.1050 O   0  0  0  0  0  0  0  0  0  0  0  0
  179.1160  180.6090  140.0060 N   0  0  0  0  0  0  0  0  0  0  0  0
  178.4410  178.6790  141.3570 C   0  0  0  0  0  2  0  0  0  0  0  0
  178.8410  177.6890  142.4430 C   0  0  0  0  0  2  0  0  0  0  0  0
  177.9190  176.5070  142.5040 C   0  0  0  0  0  3  0  0  0  0  0  0
  178.0290  175.6770  143.3900 O   0  0  0  0  0  0  0  0  0  0  0  0
  184.4230  177.1940  143.4110 O   0  0  0  0  0  0  0  0  0  0  0  0
  185.1610  177.0900  144.5990 C   0  0  0  0  0  1  0  0  0  0  0  0
  1 14  1  0  0  0  0
  2 12  1  0  0  0  0
  2  5  1  0  0  0  0
  4 20  1  1  0  0  0
  4  7  1  0  0  0  0
  5 48  1  1  0  0  0
  5  3  1  0  0  0  0
  6  9  1  0  0  0  0
  7 13  1  0  0  0  0
  8  4  1  0  0  0  0
  9  1  2  0  0  0  0
 10  6  1  0  0  0  0
 11  3  1  6  0  0  0
 11 10  1  0  0  0  0
 12  8  1  6  0  0  0
 12 11  1  0  0  0  0
 13 10  2  0  0  0  0
 14 18  1  0  0  0  0
 15 17  1  0  0  0  0
 15 14  2  0  0  0  0
 16 17  1  0  0  0  0
 18 19  1  0  0  0  0
 21 22  1  0  0  0  0
 21 20  1  1  0  0  0
 22 23  1  0  0  0  0
 23 25  1  0  0  0  0
 24 22  2  0  0  0  0
 27 33  1  0  0  0  0
 28 34  1  6  0  0  0
 29 28  1  0  0  0  0
 30 25  1  6  0  0  0
 30 29  1  0  0  0  0
 31 27  2  0  0  0  0
 31 30  1  0  0  0  0
 32 27  1  0  0  0  0
 33 28  1  0  0  0  0
 33 26  1  1  0  0  0
 35 36  1  0  0  0  0
 35 34  1  0  0  0  0
 37 21  1  0  0  0  0
 38 37  1  0  0  0  0
 39 41  2  0  0  0  0
 40 45  1  0  0  0  0
 40 39  1  0  0  0  0
 42 47  1  0  0  0  0
 43 42  2  0  0  0  0
 44 45  1  0  0  0  0
 44 43  1  0  0  0  0
 45 46  2  0  0  0  0
 46 42  1  0  0  0  0
 46 41  1  0  0  0  0
 47 38  1  0  0  0  0
 49 66  1  0  0  0  0
 49 50  1  1  0  0  0
 51 54  1  1  0  0  0
 51 49  1  0  0  0  0
 52 51  1  0  0  0  0
 52 53  1  0  0  0  0
 53 48  1  6  0  0  0
 53 49  1  0  0  0  0
 54 55  1  6  0  0  0
 54 56  1  0  0  0  0
 57 58  1  0  0  0  0
 57 56  1  0  0  0  0
 58 62  1  6  0  0  0
 59 61  2  0  0  0  0
 60 61  2  0  0  0  0
 61 58  1  0  0  0  0
 62 63  1  0  0  0  0
 63 64  1  0  0  0  0
 64 65  2  0  0  0  0
 66 67  1  0  0  0  0
M  END
>  <MODEL>
6

>  <REMARK>
 VINA RESULT:      -4.4      4.041     10.508
  Name = 
  24 active torsions:
  status: ('A' for Active; 'I' for Inactive)
    1  A    between atoms: C_1  and  O_51
    2  A    between atoms: N_4  and  CA_29
    3  A    between atoms: C_7  and  C_32
    4  A    between atoms: C_7  and  N_54
    5  A    between atoms: C_10  and  C_25
    6  A    between atoms: C_10  and  C_38
    7  A    between atoms: C_14  and  O_18
    8  A    between atoms: C_15  and  C_34
    9  A    between atoms: C_16  and  O_18
   10  A    between atoms: C_19  and  C_30
   11  A    between atoms: C_19  and  C_65
   12  A    between atoms: C_21  and  C_48
   13  A    between atoms: C_22  and  N_37
   14  A    between atoms: C_22  and  C_48
   15  A    between atoms: C_22  and  C_52
   16  A    between atoms: C_25  and  O_60
   17  A    between atoms: C_26  and  C_45
   18  A    between atoms: CA_29  and  C_40
   19  A    between atoms: N_37  and  N_39
   20  A    between atoms: N_39  and  N_63
   21  A    between atoms: C_44  and  C_45
   22  A    between atoms: C_44  and  C_50
   23  A    between atoms: C_50  and  O_60
   24  A    between atoms: C_50  and  N_66
                            x       y       z     vdW  Elec       q    Type
                         _______ _______ _______ _____ _____    ______ ____

>  <TORSDO>
F 24

$$$$
=
 OpenBabel11042418383D

 67 72  0  0  1  0  0  0  0  0999 V2000
  190.0430  177.1670  147.4230 N   0  0  0  0  0  0  0  0  0  0  0  0
  188.6610  177.2320  141.0080 O   0  0  0  0  0  0  0  0  0  0  0  0
  189.4540  177.9090  143.1080 C   0  0  0  0  0  2  0  0  0  0  0  0
  189.2210  173.7420  141.6950 C   0  0  1  0  0  3  0  0  0  0  0  0
  188.7970  178.3690  141.8380 C   0  0  2  0  0  3  0  0  0  0  0  0
  190.2500  176.1080  145.2970 N   0  0  0  0  0  2  0  0  0  0  0  0
  188.5670  173.6630  143.0760 C   0  0  0  0  0  2  0  0  0  0  0  0
  189.5920  175.1880  141.3370 C   0  0  0  0  0  2  0  0  0  0  0  0
  189.5130  176.8290  146.2850 C   0  0  0  0  0  3  0  0  0  0  0  0
  189.5970  175.5920  144.1340 C   0  0  0  0  0  0  0  0  0  0  0  0
  188.8440  176.5580  143.2180 C   0  0  2  0  0  3  0  0  0  0  0  0
  188.5880  176.1300  141.8260 N   0  0  1  0  0  0  0  0  0  0  0  0
  189.3950  174.3090  144.0820 N   0  0  0  0  0  0  0  0  0  0  0  0
  191.4080  176.9280  147.7680 C   0  0  0  0  0  0  0  0  0  0  0  0
  192.1890  176.2580  146.9140 C   0  0  0  0  0  3  0  0  0  0  0  0
  194.4750  177.1930  146.8120 C   0  0  0  0  0  1  0  0  0  0  0  0
  193.6340  175.9790  147.1680 C   0  0  0  0  0  2  0  0  0  0  0  0
  191.9440  177.4910  149.0530 C   0  0  0  0  0  2  0  0  0  0  0  0
  191.1100  178.5130  149.5160 O   0  0  0  0  0  1  0  0  0  0  0  0
  190.4860  172.8780  141.5800 C   0  0  0  0  0  2  0  0  0  0  0  0
  190.8090  172.4240  140.1500 C   0  0  1  0  0  3  0  0  0  0  0  0
  192.1010  173.0000  139.6570 C   0  0  0  0  0  0  0  0  0  0  0  0
  192.9200  173.7940  140.5260 N   0  0  0  0  0  2  0  0  0  0  0  0
  192.4770  172.7520  138.4810 O   0  0  0  0  0  0  0  0  0  0  0  0
  194.0970  174.5250  140.0620 C   0  0  0  0  0  2  0  0  0  0  0  0
  197.0840  175.0070  144.7280 O   0  0  0  0  0  1  0  0  0  0  0  0
  195.2780  175.7970  143.3880 C   0  0  0  0  0  0  0  0  0  0  0  0
  196.3550  173.5030  142.9960 C   0  0  1  0  0  3  0  0  0  0  0  0
  195.2900  173.3530  141.9130 C   0  0  0  0  0  2  0  0  0  0  0  0
  195.1480  174.6710  141.1620 C   0  0  2  0  0  3  0  0  0  0  0  0
  194.8340  175.7930  142.1210 C   0  0  0  0  0  3  0  0  0  0  0  0
  194.9610  176.8480  144.1860 F   0  0  0  0  0  0  0  0  0  0  0  0
  195.9620  174.5970  144.0070 C   0  0  1  0  0  3  0  0  0  0  0  0
  196.5110  172.2830  143.6690 O   0  0  0  0  0  0  0  0  0  0  0  0
  195.2620  171.6570  143.5900 C   0  0  0  0  0  2  0  0  0  0  0  0
  194.7890  171.3970  144.8690 O   0  0  0  0  0  1  0  0  0  0  0  0
  190.7900  170.9660  140.0300 N   0  0  0  0  0  2  0  0  0  0  0  0
  189.6710  170.5840  139.2660 N   0  0  0  0  0  2  0  0  0  0  0  0
  189.1940  175.0860  135.2530 C   0  0  0  0  0  3  0  0  0  0  0  0
  189.8580  174.0570  134.5130 O   0  0  0  0  0  0  0  0  0  0  0  0
  188.8240  174.4400  136.6060 C   0  0  0  0  0  3  0  0  0  0  0  0
  189.5630  171.8840  137.1730 C   0  0  0  0  0  0  0  0  0  0  0  0
  190.3170  171.0670  136.5090 N   0  0  0  0  0  0  0  0  0  0  0  0
  190.5270  171.6060  135.1560 C   0  0  0  0  0  2  0  0  0  0  0  0
  189.8050  172.8990  135.2440 C   0  0  0  0  0  0  0  0  0  0  0  0
  189.1880  173.0270  136.3610 C   0  0  0  0  0  0  0  0  0  0  0  0
  189.2440  171.7170  138.5550 N   0  0  0  0  0  2  0  0  0  0  0  0
  187.4030  178.9320  142.1210 C   0  0  0  0  0  2  0  0  0  0  0  0
  185.0070  178.2940  142.8000 C   0  0  1  0  0  0  0  0  0  0  0  0
  185.1280  179.5620  143.6680 C   0  0  0  0  0  1  0  0  0  0  0  0
  184.3600  178.5820  141.4350 C   0  0  1  0  0  3  0  0  0  0  0  0
  185.5860  178.0070  140.7350 C   0  0  0  0  0  2  0  0  0  0  0  0
  186.3030  177.8710  142.0700 C   0  0  1  0  0  3  0  0  0  0  0  0
  183.0200  177.8860  141.1380 C   0  0  2  0  0  3  0  0  0  0  0  0
  183.0040  177.2750  139.8820 O   0  0  0  0  0  1  0  0  0  0  0  0
  181.8870  178.8960  141.2490 C   0  0  0  0  0  2  0  0  0  0  0  0
  180.7500  178.2590  141.7630 O   0  0  0  0  0  0  0  0  0  0  0  0
  179.6870  178.5530  140.8880 C   0  0  1  0  0  3  0  0  0  0  0  0
  178.0140  178.2340  142.6440 O   0  0  0  0  0  0  0  0  0  0  0  0
  177.6920  177.3890  140.5720 O   0  0  0  0  0  0  0  0  0  0  0  0
  178.4740  177.9180  141.3830 N   0  0  0  0  0  0  0  0  0  0  0  0
  179.4750  180.0760  140.7930 C   0  0  0  0  0  2  0  0  0  0  0  0
  179.1520  180.5300  139.3760 C   0  0  0  0  0  2  0  0  0  0  0  0
  179.0470  182.0220  139.2650 C   0  0  0  0  0  3  0  0  0  0  0  0
  178.2550  182.6420  139.9530 O   0  0  0  0  0  0  0  0  0  0  0  0
  184.4770  177.1660  143.4850 O   0  0  0  0  0  0  0  0  0  0  0  0
  185.0670  177.0710  144.7540 C   0  0  0  0  0  1  0  0  0  0  0  0
  1 14  1  0  0  0  0
  2 12  1  0  0  0  0
  2  5  1  0  0  0  0
  4 20  1  1  0  0  0
  4  7  1  0  0  0  0
  5 48  1  1  0  0  0
  5  3  1  0  0  0  0
  6  9  1  0  0  0  0
  7 13  1  0  0  0  0
  8  4  1  0  0  0  0
  9  1  2  0  0  0  0
 10  6  1  0  0  0  0
 11  3  1  6  0  0  0
 11 10  1  0  0  0  0
 12  8  1  6  0  0  0
 12 11  1  0  0  0  0
 13 10  2  0  0  0  0
 14 18  1  0  0  0  0
 15 17  1  0  0  0  0
 15 14  2  0  0  0  0
 16 17  1  0  0  0  0
 18 19  1  0  0  0  0
 21 20  1  1  0  0  0
 22 21  1  0  0  0  0
 22 23  1  0  0  0  0
 24 22  2  0  0  0  0
 25 23  1  0  0  0  0
 27 33  1  0  0  0  0
 27 32  1  0  0  0  0
 28 34  1  1  0  0  0
 28 33  1  0  0  0  0
 29 28  1  0  0  0  0
 30 25  1  6  0  0  0
 30 29  1  0  0  0  0
 30 31  1  0  0  0  0
 31 27  2  0  0  0  0
 33 26  1  6  0  0  0
 35 34  1  0  0  0  0
 35 36  1  0  0  0  0
 37 21  1  0  0  0  0
 38 37  1  0  0  0  0
 39 41  2  0  0  0  0
 40 45  1  0  0  0  0
 40 39  1  0  0  0  0
 42 47  1  0  0  0  0
 43 42  2  0  0  0  0
 44 45  1  0  0  0  0
 44 43  1  0  0  0  0
 45 46  2  0  0  0  0
 46 41  1  0  0  0  0
 46 42  1  0  0  0  0
 47 38  1  0  0  0  0
 49 66  1  0  0  0  0
 49 50  1  1  0  0  0
 51 54  1  1  0  0  0
 51 49  1  0  0  0  0
 52 51  1  0  0  0  0
 52 53  1  0  0  0  0
 53 48  1  6  0  0  0
 53 49  1  0  0  0  0
 54 55  1  6  0  0  0
 54 56  1  0  0  0  0
 56 57  1  0  0  0  0
 58 62  1  1  0  0  0
 58 61  1  0  0  0  0
 58 57  1  0  0  0  0
 60 61  2  0  0  0  0
 61 59  2  0  0  0  0
 63 62  1  0  0  0  0
 64 63  1  0  0  0  0
 64 65  2  0  0  0  0
 66 67  1  0  0  0  0
M  END
>  <MODEL>
7

>  <REMARK>
 VINA RESULT:      -4.4      3.681     10.232
  Name = 
  24 active torsions:
  status: ('A' for Active; 'I' for Inactive)
    1  A    between atoms: C_1  and  O_51
    2  A    between atoms: N_4  and  CA_29
    3  A    between atoms: C_7  and  C_32
    4  A    between atoms: C_7  and  N_54
    5  A    between atoms: C_10  and  C_25
    6  A    between atoms: C_10  and  C_38
    7  A    between atoms: C_14  and  O_18
    8  A    between atoms: C_15  and  C_34
    9  A    between atoms: C_16  and  O_18
   10  A    between atoms: C_19  and  C_30
   11  A    between atoms: C_19  and  C_65
   12  A    between atoms: C_21  and  C_48
   13  A    between atoms: C_22  and  N_37
   14  A    between atoms: C_22  and  C_48
   15  A    between atoms: C_22  and  C_52
   16  A    between atoms: C_25  and  O_60
   17  A    between atoms: C_26  and  C_45
   18  A    between atoms: CA_29  and  C_40
   19  A    between atoms: N_37  and  N_39
   20  A    between atoms: N_39  and  N_63
   21  A    between atoms: C_44  and  C_45
   22  A    between atoms: C_44  and  C_50
   23  A    between atoms: C_50  and  O_60
   24  A    between atoms: C_50  and  N_66
                            x       y       z     vdW  Elec       q    Type
                         _______ _______ _______ _____ _____    ______ ____

>  <TORSDO>
F 24

$$$$
=
 OpenBabel11042418383D

 67 72  0  0  1  0  0  0  0  0999 V2000
  189.8750  177.0270  147.2310 N   0  0  0  0  0  0  0  0  0  0  0  0
  188.5000  177.0930  140.8150 O   0  0  0  0  0  0  0  0  0  0  0  0
  189.3190  177.7550  142.9100 C   0  0  0  0  0  2  0  0  0  0  0  0
  188.9160  173.5890  141.5330 C   0  0  1  0  0  3  0  0  0  0  0  0
  188.6820  178.2310  141.6350 C   0  0  2  0  0  3  0  0  0  0  0  0
  190.0390  175.9410  145.1150 N   0  0  0  0  0  2  0  0  0  0  0  0
  188.2590  173.5480  142.9140 C   0  0  0  0  0  2  0  0  0  0  0  0
  189.3460  175.0150  141.1630 C   0  0  0  0  0  2  0  0  0  0  0  0
  189.3320  176.7010  146.0950 C   0  0  0  0  0  3  0  0  0  0  0  0
  189.3660  175.4430  143.9550 C   0  0  0  0  0  0  0  0  0  0  0  0
  188.6540  176.4320  143.0300 C   0  0  2  0  0  3  0  0  0  0  0  0
  188.3820  176.0010  141.6420 N   0  0  1  0  0  0  0  0  0  0  0  0
  189.1120  174.1690  143.9150 N   0  0  0  0  0  0  0  0  0  0  0  0
  191.2290  176.7350  147.5800 C   0  0  0  0  0  0  0  0  0  0  0  0
  192.1690  176.7700  146.6290 C   0  0  0  0  0  3  0  0  0  0  0  0
  194.4520  176.9000  145.6890 C   0  0  0  0  0  1  0  0  0  0  0  0
  193.6150  176.5070  146.8950 C   0  0  0  0  0  2  0  0  0  0  0  0
  191.5680  176.4580  149.0160 C   0  0  0  0  0  2  0  0  0  0  0  0
  191.9490  177.6410  149.6570 O   0  0  0  0  0  1  0  0  0  0  0  0
  190.1450  172.6720  141.4260 C   0  0  0  0  0  2  0  0  0  0  0  0
  190.6880  172.5140  140.0000 C   0  0  1  0  0  3  0  0  0  0  0  0
  192.1380  172.8790  139.9080 C   0  0  0  0  0  0  0  0  0  0  0  0
  193.1380  172.0340  140.4940 N   0  0  0  0  0  2  0  0  0  0  0  0
  192.4720  173.9210  139.2830 O   0  0  0  0  0  0  0  0  0  0  0  0
  194.5450  172.4170  140.5910 C   0  0  0  0  0  2  0  0  0  0  0  0
  195.1810  172.9360  146.0910 O   0  0  0  0  0  1  0  0  0  0  0  0
  193.7660  173.1560  144.1860 C   0  0  0  0  0  0  0  0  0  0  0  0
  195.9300  171.7820  144.1160 C   0  0  1  0  0  3  0  0  0  0  0  0
  195.5070  171.4620  142.6850 C   0  0  0  0  0  2  0  0  0  0  0  0
  194.9540  172.7220  142.0320 C   0  0  2  0  0  3  0  0  0  0  0  0
  193.8190  173.2870  142.8510 C   0  0  0  0  0  3  0  0  0  0  0  0
  192.7180  173.7020  144.8530 F   0  0  0  0  0  0  0  0  0  0  0  0
  194.7310  172.2740  144.9490 C   0  0  1  0  0  3  0  0  0  0  0  0
  196.4670  170.6310  144.7110 O   0  0  0  0  0  0  0  0  0  0  0  0
  196.0700  170.6900  146.0520 C   0  0  0  0  0  2  0  0  0  0  0  0
  196.5260  169.5630  146.7230 O   0  0  0  0  0  1  0  0  0  0  0  0
  190.4380  171.1710  139.4740 N   0  0  0  0  0  2  0  0  0  0  0  0
  189.3250  171.2170  138.6140 N   0  0  0  0  0  2  0  0  0  0  0  0
  188.9910  175.6720  134.5350 C   0  0  0  0  0  3  0  0  0  0  0  0
  188.0560  176.0770  135.5390 O   0  0  0  0  0  0  0  0  0  0  0  0
  189.6840  174.4150  135.1060 C   0  0  0  0  0  3  0  0  0  0  0  0
  188.9280  173.3850  137.5080 C   0  0  0  0  0  0  0  0  0  0  0  0
  187.9470  173.7160  138.2860 N   0  0  0  0  0  0  0  0  0  0  0  0
  187.3990  175.0050  137.8390 C   0  0  0  0  0  2  0  0  0  0  0  0
  188.2210  175.2670  136.6320 C   0  0  0  0  0  0  0  0  0  0  0  0
  189.1460  174.3910  136.4850 C   0  0  0  0  0  0  0  0  0  0  0  0
  189.6210  172.1390  137.5980 N   0  0  0  0  0  2  0  0  0  0  0  0
  187.3120  178.8530  141.9110 C   0  0  0  0  0  2  0  0  0  0  0  0
  184.9620  178.2970  142.7910 C   0  0  1  0  0  0  0  0  0  0  0  0
  185.1850  179.5780  143.6180 C   0  0  0  0  0  1  0  0  0  0  0  0
  184.2160  178.5760  141.4740 C   0  0  1  0  0  3  0  0  0  0  0  0
  185.3670  177.9520  140.6930 C   0  0  0  0  0  2  0  0  0  0  0  0
  186.1840  177.8230  141.9710 C   0  0  1  0  0  3  0  0  0  0  0  0
  182.8400  177.9120  141.2990 C   0  0  2  0  0  3  0  0  0  0  0  0
  182.5780  177.5710  139.9700 O   0  0  0  0  0  1  0  0  0  0  0  0
  181.7560  178.8410  141.8300 C   0  0  0  0  0  2  0  0  0  0  0  0
  180.6170  178.7310  141.0230 O   0  0  0  0  0  0  0  0  0  0  0  0
  179.6920  179.6830  141.4910 C   0  0  1  0  0  3  0  0  0  0  0  0
  177.6940  180.2350  140.1900 O   0  0  0  0  0  0  0  0  0  0  0  0
  179.6740  181.2330  139.7490 O   0  0  0  0  0  0  0  0  0  0  0  0
  179.0600  180.3320  140.3510 N   0  0  0  0  0  0  0  0  0  0  0  0
  178.6170  179.0050  142.3630 C   0  0  0  0  0  2  0  0  0  0  0  0
  178.5690  177.4970  142.1560 C   0  0  0  0  0  2  0  0  0  0  0  0
  177.6980  177.1080  140.9990 C   0  0  0  0  0  3  0  0  0  0  0  0
  178.1590  176.4950  140.0520 O   0  0  0  0  0  0  0  0  0  0  0  0
  184.4570  177.1990  143.5400 O   0  0  0  0  0  0  0  0  0  0  0  0
  185.3220  176.9290  144.6120 C   0  0  0  0  0  1  0  0  0  0  0  0
  1 14  1  0  0  0  0
  2  5  1  0  0  0  0
  2 12  1  0  0  0  0
  4 20  1  1  0  0  0
  4  7  1  0  0  0  0
  5 48  1  1  0  0  0
  5  3  1  0  0  0  0
  6  9  1  0  0  0  0
  7 13  1  0  0  0  0
  8  4  1  0  0  0  0
  9  1  2  0  0  0  0
 10  6  1  0  0  0  0
 11  3  1  6  0  0  0
 11 10  1  0  0  0  0
 12  8  1  6  0  0  0
 12 11  1  0  0  0  0
 13 10  2  0  0  0  0
 14 18  1  0  0  0  0
 15 17  1  0  0  0  0
 15 14  2  0  0  0  0
 16 17  1  0  0  0  0
 18 19  1  0  0  0  0
 21 20  1  1  0  0  0
 22 21  1  0  0  0  0
 22 23  1  0  0  0  0
 23 25  1  0  0  0  0
 24 22  2  0  0  0  0
 27 32  1  0  0  0  0
 27 33  1  0  0  0  0
 28 34  1  1  0  0  0
 28 33  1  0  0  0  0
 29 28  1  0  0  0  0
 30 25  1  6  0  0  0
 30 29  1  0  0  0  0
 30 31  1  0  0  0  0
 31 27  2  0  0  0  0
 33 26  1  1  0  0  0
 34 35  1  0  0  0  0
 35 36  1  0  0  0  0
 37 21  1  0  0  0  0
 38 37  1  0  0  0  0
 39 41  2  0  0  0  0
 39 40  1  0  0  0  0
 40 45  1  0  0  0  0
 41 46  1  0  0  0  0
 42 47  1  0  0  0  0
 42 43  2  0  0  0  0
 44 43  1  0  0  0  0
 45 44  1  0  0  0  0
 46 45  2  0  0  0  0
 46 42  1  0  0  0  0
 47 38  1  0  0  0  0
 49 66  1  0  0  0  0
 49 50  1  1  0  0  0
 51 54  1  1  0  0  0
 51 49  1  0  0  0  0
 52 51  1  0  0  0  0
 52 53  1  0  0  0  0
 53 48  1  6  0  0  0
 53 49  1  0  0  0  0
 54 55  1  6  0  0  0
 54 56  1  0  0  0  0
 57 58  1  0  0  0  0
 57 56  1  0  0  0  0
 58 62  1  1  0  0  0
 59 61  2  0  0  0  0
 60 61  2  0  0  0  0
 61 58  1  0  0  0  0
 63 62  1  0  0  0  0
 64 63  1  0  0  0  0
 65 64  2  0  0  0  0
 66 67  1  0  0  0  0
M  END
>  <MODEL>
8

>  <REMARK>
 VINA RESULT:      -4.3      3.642     10.308
  Name = 
  24 active torsions:
  status: ('A' for Active; 'I' for Inactive)
    1  A    between atoms: C_1  and  O_51
    2  A    between atoms: N_4  and  CA_29
    3  A    between atoms: C_7  and  C_32
    4  A    between atoms: C_7  and  N_54
    5  A    between atoms: C_10  and  C_25
    6  A    between atoms: C_10  and  C_38
    7  A    between atoms: C_14  and  O_18
    8  A    between atoms: C_15  and  C_34
    9  A    between atoms: C_16  and  O_18
   10  A    between atoms: C_19  and  C_30
   11  A    between atoms: C_19  and  C_65
   12  A    between atoms: C_21  and  C_48
   13  A    between atoms: C_22  and  N_37
   14  A    between atoms: C_22  and  C_48
   15  A    between atoms: C_22  and  C_52
   16  A    between atoms: C_25  and  O_60
   17  A    between atoms: C_26  and  C_45
   18  A    between atoms: CA_29  and  C_40
   19  A    between atoms: N_37  and  N_39
   20  A    between atoms: N_39  and  N_63
   21  A    between atoms: C_44  and  C_45
   22  A    between atoms: C_44  and  C_50
   23  A    between atoms: C_50  and  O_60
   24  A    between atoms: C_50  and  N_66
                            x       y       z     vdW  Elec       q    Type
                         _______ _______ _______ _____ _____    ______ ____

>  <TORSDO>
F 24

$$$$
=
 OpenBabel11042418383D

 67 72  0  0  1  0  0  0  0  0999 V2000
  191.7270  176.6640  146.1920 N   0  0  0  0  0  0  0  0  0  0  0  0
  187.8960  177.0380  140.8760 O   0  0  0  0  0  0  0  0  0  0  0  0
  189.4930  177.6020  142.4980 C   0  0  0  0  0  2  0  0  0  0  0  0
  188.5290  173.5070  141.1900 C   0  0  1  0  0  3  0  0  0  0  0  0
  188.4030  178.1350  141.6100 C   0  0  2  0  0  3  0  0  0  0  0  0
  191.0170  175.6880  144.1350 N   0  0  0  0  0  2  0  0  0  0  0  0
  188.4800  173.3900  142.7140 C   0  0  0  0  0  2  0  0  0  0  0  0
  188.7890  174.9550  140.7510 C   0  0  0  0  0  2  0  0  0  0  0  0
  190.7710  176.3900  145.3540 C   0  0  0  0  0  3  0  0  0  0  0  0
  189.9310  175.2410  143.3190 C   0  0  0  0  0  0  0  0  0  0  0  0
  188.9180  176.2680  142.8080 C   0  0  2  0  0  3  0  0  0  0  0  0
  188.1080  175.9050  141.6260 N   0  0  1  0  0  0  0  0  0  0  0  0
  189.6690  173.9690  143.3200 N   0  0  0  0  0  0  0  0  0  0  0  0
  193.1030  176.3690  145.9540 C   0  0  0  0  0  0  0  0  0  0  0  0
  193.7540  177.0300  144.9900 C   0  0  0  0  0  3  0  0  0  0  0  0
  195.3520  175.8010  143.5590 C   0  0  0  0  0  1  0  0  0  0  0  0
  195.1990  176.8150  144.6790 C   0  0  0  0  0  2  0  0  0  0  0  0
  193.7980  175.3700  146.8340 C   0  0  0  0  0  2  0  0  0  0  0  0
  192.8740  174.4450  147.3330 O   0  0  0  0  0  1  0  0  0  0  0  0
  189.6020  172.6100  140.5530 C   0  0  0  0  0  2  0  0  0  0  0  0
  189.3260  172.2420  139.0890 C   0  0  1  0  0  3  0  0  0  0  0  0
  189.9860  173.1940  138.1390 C   0  0  0  0  0  0  0  0  0  0  0  0
  191.4080  173.3780  138.1660 N   0  0  0  0  0  2  0  0  0  0  0  0
  189.2810  173.8060  137.2920 O   0  0  0  0  0  0  0  0  0  0  0  0
  192.0910  174.4100  137.3900 C   0  0  0  0  0  2  0  0  0  0  0  0
  197.1940  174.4000  139.6000 O   0  0  0  0  0  1  0  0  0  0  0  0
  194.8780  173.8980  139.8490 C   0  0  0  0  0  0  0  0  0  0  0  0
  195.9270  174.3490  137.5540 C   0  0  1  0  0  3  0  0  0  0  0  0
  194.5310  174.0450  137.0190 C   0  0  0  0  0  2  0  0  0  0  0  0
  193.4940  174.6930  137.9270 C   0  0  2  0  0  3  0  0  0  0  0  0
  193.6750  174.2270  139.3520 C   0  0  0  0  0  3  0  0  0  0  0  0
  194.9600  173.4980  141.1430 F   0  0  0  0  0  0  0  0  0  0  0  0
  196.1090  173.7850  138.9750 C   0  0  1  0  0  3  0  0  0  0  0  0
  196.8860  173.7810  136.7030 O   0  0  0  0  0  0  0  0  0  0  0  0
  196.9260  174.6170  135.5810 C   0  0  0  0  0  2  0  0  0  0  0  0
  197.8280  175.6490  135.8020 O   0  0  0  0  0  1  0  0  0  0  0  0
  189.6940  170.8560  138.8040 N   0  0  0  0  0  2  0  0  0  0  0  0
  190.3980  170.3330  139.9050 N   0  0  0  0  0  2  0  0  0  0  0  0
  195.9940  168.6910  138.2950 C   0  0  0  0  0  3  0  0  0  0  0  0
  196.2150  169.5400  139.4240 O   0  0  0  0  0  0  0  0  0  0  0  0
  194.4610  168.5300  138.1990 C   0  0  0  0  0  3  0  0  0  0  0  0
  192.8170  169.8510  139.9180 C   0  0  0  0  0  0  0  0  0  0  0  0
  193.0920  170.7440  140.8150 N   0  0  0  0  0  0  0  0  0  0  0  0
  194.5470  170.7720  141.0280 C   0  0  0  0  0  2  0  0  0  0  0  0
  195.0060  169.7810  140.0240 C   0  0  0  0  0  0  0  0  0  0  0  0
  194.0220  169.1940  139.4460 C   0  0  0  0  0  0  0  0  0  0  0  0
  191.5050  169.6330  139.3980 N   0  0  0  0  0  2  0  0  0  0  0  0
  187.2660  178.7270  142.4440 C   0  0  0  0  0  2  0  0  0  0  0  0
  184.8120  178.4940  143.1720 C   0  0  1  0  0  0  0  0  0  0  0  0
  185.0930  179.8480  143.8550 C   0  0  0  0  0  1  0  0  0  0  0  0
  184.2010  178.6650  141.7710 C   0  0  1  0  0  3  0  0  0  0  0  0
  185.3430  177.8480  141.1760 C   0  0  0  0  0  2  0  0  0  0  0  0
  186.0420  177.8150  142.5280 C   0  0  1  0  0  3  0  0  0  0  0  0
  182.7840  178.1050  141.5550 C   0  0  2  0  0  3  0  0  0  0  0  0
  182.6220  177.5360  140.2910 O   0  0  0  0  0  1  0  0  0  0  0  0
  181.7620  179.2130  141.7720 C   0  0  0  0  0  2  0  0  0  0  0  0
  180.7610  178.7560  142.6390 O   0  0  0  0  0  0  0  0  0  0  0  0
  179.7700  178.1580  141.8390 C   0  0  1  0  0  3  0  0  0  0  0  0
  177.9180  176.7670  142.6300 O   0  0  0  0  0  0  0  0  0  0  0  0
  178.3130  178.7970  143.5440 O   0  0  0  0  0  0  0  0  0  0  0  0
  178.5590  177.9890  142.6300 N   0  0  0  0  0  0  0  0  0  0  0  0
  179.4690  179.0370  140.6100 C   0  0  0  0  0  2  0  0  0  0  0  0
  178.5830  180.2280  140.9510 C   0  0  0  0  0  2  0  0  0  0  0  0
  178.8200  181.3950  140.0380 C   0  0  0  0  0  3  0  0  0  0  0  0
  179.4390  181.2540  138.9970 O   0  0  0  0  0  0  0  0  0  0  0  0
  184.1470  177.5500  144.0010 O   0  0  0  0  0  0  0  0  0  0  0  0
  184.1530  178.0080  145.3280 C   0  0  0  0  0  1  0  0  0  0  0  0
  2  5  1  0  0  0  0
  2 12  1  0  0  0  0
  4 20  1  1  0  0  0
  4  7  1  0  0  0  0
  5 48  1  1  0  0  0
  5  3  1  0  0  0  0
  6  9  1  0  0  0  0
  7 13  1  0  0  0  0
  8  4  1  0  0  0  0
  9  1  2  0  0  0  0
 10 13  2  0  0  0  0
 10  6  1  0  0  0  0
 11  3  1  6  0  0  0
 11 10  1  0  0  0  0
 12  8  1  6  0  0  0
 12 11  1  0  0  0  0
 14  1  1  0  0  0  0
 14 18  1  0  0  0  0
 15 14  2  0  0  0  0
 16 17  1  0  0  0  0
 17 15  1  0  0  0  0
 18 19  1  0  0  0  0
 21 20  1  1  0  0  0
 22 23  1  0  0  0  0
 22 21  1  0  0  0  0
 24 22  2  0  0  0  0
 25 23  1  0  0  0  0
 27 32  1  0  0  0  0
 28 34  1  6  0  0  0
 28 33  1  0  0  0  0
 29 28  1  0  0  0  0
 29 30  1  0  0  0  0
 30 25  1  6  0  0  0
 30 31  1  0  0  0  0
 31 27  2  0  0  0  0
 33 26  1  1  0  0  0
 33 27  1  0  0  0  0
 35 36  1  0  0  0  0
 35 34  1  0  0  0  0
 37 21  1  0  0  0  0
 37 38  1  0  0  0  0
 39 40  1  0  0  0  0
 40 45  1  0  0  0  0
 41 39  2  0  0  0  0
 41 46  1  0  0  0  0
 42 43  2  0  0  0  0
 43 44  1  0  0  0  0
 45 44  1  0  0  0  0
 46 42  1  0  0  0  0
 46 45  2  0  0  0  0
 47 38  1  0  0  0  0
 47 42  1  0  0  0  0
 49 50  1  1  0  0  0
 49 66  1  0  0  0  0
 51 54  1  1  0  0  0
 51 49  1  0  0  0  0
 52 51  1  0  0  0  0
 52 53  1  0  0  0  0
 53 48  1  6  0  0  0
 53 49  1  0  0  0  0
 54 55  1  6  0  0  0
 54 56  1  0  0  0  0
 56 57  1  0  0  0  0
 58 62  1  6  0  0  0
 58 61  1  0  0  0  0
 58 57  1  0  0  0  0
 61 59  2  0  0  0  0
 61 60  2  0  0  0  0
 62 63  1  0  0  0  0
 64 63  1  0  0  0  0
 65 64  2  0  0  0  0
 66 67  1  0  0  0  0
M  END
>  <MODEL>
9

>  <REMARK>
 VINA RESULT:      -4.2      3.889     10.674
  Name = 
  24 active torsions:
  status: ('A' for Active; 'I' for Inactive)
    1  A    between atoms: C_1  and  O_51
    2  A    between atoms: N_4  and  CA_29
    3  A    between atoms: C_7  and  C_32
    4  A    between atoms: C_7  and  N_54
    5  A    between atoms: C_10  and  C_25
    6  A    between atoms: C_10  and  C_38
    7  A    between atoms: C_14  and  O_18
    8  A    between atoms: C_15  and  C_34
    9  A    between atoms: C_16  and  O_18
   10  A    between atoms: C_19  and  C_30
   11  A    between atoms: C_19  and  C_65
   12  A    between atoms: C_21  and  C_48
   13  A    between atoms: C_22  and  N_37
   14  A    between atoms: C_22  and  C_48
   15  A    between atoms: C_22  and  C_52
   16  A    between atoms: C_25  and  O_60
   17  A    between atoms: C_26  and  C_45
   18  A    between atoms: CA_29  and  C_40
   19  A    between atoms: N_37  and  N_39
   20  A    between atoms: N_39  and  N_63
   21  A    between atoms: C_44  and  C_45
   22  A    between atoms: C_44  and  C_50
   23  A    between atoms: C_50  and  O_60
   24  A    between atoms: C_50  and  N_66
                            x       y       z     vdW  Elec       q    Type
                         _______ _______ _______ _____ _____    ______ ____

>  <TORSDO>
F 24

$$$$
