=
 OpenBabel11042417063D

 44 50  0  0  1  0  0  0  0  0999 V2000
  192.3590  173.8970  140.6210 C   0  0  2  0  0  3  0  0  0  0  0  0
  193.5590  174.3980  141.0160 C   0  0  0  0  0  0  0  0  0  0  0  0
  191.3020  173.5720  141.5540 N   0  0  2  0  0  0  0  0  0  0  0  0
  190.6490  173.4630  138.8170 C   0  0  0  0  0  0  0  0  0  0  0  0
  197.0240  175.6910  143.6980 N   0  0  0  0  0  0  0  0  0  0  0  0
  192.1330  173.5500  139.1520 C   0  0  1  0  0  3  0  0  0  0  0  0
  196.0440  175.4290  141.7680 C   0  0  0  0  0  0  0  0  0  0  0  0
  195.8670  175.1690  143.9590 C   0  0  0  0  0  0  0  0  0  0  0  0
  189.8110  173.0890  139.7390 N   0  0  0  0  0  0  0  0  0  0  0  0
  190.2320  172.6960  141.0810 C   0  0  0  0  0  2  0  0  0  0  0  0
  195.7270  175.4230  140.4150 C   0  0  0  0  0  3  0  0  0  0  0  0
  194.4770  174.8970  140.0370 C   0  0  0  0  0  0  0  0  0  0  0  0
  194.0730  174.9880  138.6280 C   0  0  0  0  0  3  0  0  0  0  0  0
  195.1720  174.9620  142.7080 C   0  0  0  0  0  0  0  0  0  0  0  0
  197.1340  175.8670  142.3060 N   0  0  0  0  0  0  0  0  0  0  0  0
  190.1280  173.6610  137.4950 N   0  0  0  0  0  2  0  0  0  0  0  0
  193.9270  174.4420  142.3810 C   0  0  0  0  0  2  0  0  0  0  0  0
  192.9470  174.4090  138.2220 C   0  0  0  0  0  3  0  0  0  0  0  0
  190.3550  173.5320  143.8380 C   0  0  2  0  0  3  0  0  0  0  0  0
  189.5430  174.3040  144.8900 C   0  0  1  0  0  3  0  0  0  0  0  0
  190.9560  173.8600  145.1960 C   0  0  0  0  0  2  0  0  0  0  0  0
  190.3660  176.4880  143.7210 C   0  0  0  0  0  2  0  0  0  0  0  0
  189.4310  175.8400  144.7420 C   0  0  1  0  0  3  0  0  0  0  0  0
  191.0820  174.3580  142.7690 C   0  0  2  0  0  3  0  0  0  0  0  0
  190.3950  175.6710  142.4480 C   0  0  0  0  0  2  0  0  0  0  0  0
  188.0750  176.8820  146.8040 O   0  0  0  0  0  1  0  0  0  0  0  0
  187.4020  176.8340  145.5760 C   0  0  2  0  0  0  0  0  0  0  0  0
  188.0490  176.2070  144.4450 N   0  0  1  0  0  0  0  0  0  0  0  0
  187.9600  177.5910  144.6050 O   0  0  0  0  0  0  0  0  0  0  0  0
  185.9470  176.8230  145.5580 N   0  0  0  0  0  2  0  0  0  0  0  0
  185.1420  177.9840  145.7820 C   0  0  0  0  0  0  0  0  0  0  0  0
  184.8540  178.5520  147.2930 S   0  0  0  0  0  0  0  0  0  0  0  0
  185.3210  179.8360  144.1680 C   0  0  0  0  0  1  0  0  0  0  0  0
  184.4900  178.6500  144.6200 C   0  0  0  0  0  2  0  0  0  0  0  0
  190.9200  173.7940  136.2810 C   0  0  0  0  0  2  0  0  0  0  0  0
  191.0050  172.4770  135.5890 C   0  0  0  0  0  0  0  0  0  0  0  0
  191.9610  172.2260  134.8710 O   0  0  0  0  0  0  0  0  0  0  0  0
  189.9220  171.4690  135.7820 C   0  0  0  0  0  2  0  0  0  0  0  0
  190.4660  170.2310  136.4760 C   0  0  0  0  0  2  0  0  0  0  0  0
  189.6550  169.9290  137.7240 C   0  0  0  0  0  2  0  0  0  0  0  0
  190.5760  169.5970  138.8870 C   0  0  0  0  0  1  0  0  0  0  0  0
  195.4030  174.7850  145.3250 C   0  0  0  0  0  2  0  0  0  0  0  0
  193.5690  176.3640  145.7230 C   0  0  0  0  0  2  0  0  0  0  0  0
  194.7980  175.9550  146.0280 C   0  0  0  0  0  3  0  0  0  0  0  0
  1  2  1  1  0  0  0
  1  3  1  0  0  0  0
  2 17  1  0  0  0  0
  3 10  1  6  0  0  0
  3 24  1  0  0  0  0
  4  6  1  0  0  0  0
  4  9  2  0  0  0  0
  5  8  1  0  0  0  0
  6 18  1  6  0  0  0
  6  1  1  0  0  0  0
  7 15  1  0  0  0  0
  7 14  1  0  0  0  0
  8 42  1  0  0  0  0
  9 10  1  0  0  0  0
 11  7  2  0  0  0  0
 12 11  1  0  0  0  0
 12  2  2  0  0  0  0
 13 12  1  0  0  0  0
 14  8  2  0  0  0  0
 15  5  2  0  0  0  0
 16  4  1  0  0  0  0
 17 14  1  0  0  0  0
 18 13  2  0  0  0  0
 19 20  1  0  0  0  0
 19 21  1  1  0  0  0
 20 21  1  1  0  0  0
 23 22  1  6  0  0  0
 23 20  1  0  0  0  0
 24 25  1  6  0  0  0
 24 19  1  0  0  0  0
 25 22  1  0  0  0  0
 27 26  1  1  0  0  0
 28 29  1  6  0  0  0
 28 23  1  0  0  0  0
 28 27  1  0  0  0  0
 29 27  1  0  0  0  0
 30 27  1  0  0  0  0
 30 31  1  0  0  0  0
 31 32  2  0  0  0  0
 33 34  1  0  0  0  0
 34 31  1  0  0  0  0
 35 16  1  0  0  0  0
 36 38  1  0  0  0  0
 36 35  1  0  0  0  0
 37 36  2  0  0  0  0
 38 39  1  0  0  0  0
 39 40  1  0  0  0  0
 40 41  1  0  0  0  0
 42 44  1  0  0  0  0
 43 44  2  0  0  0  0
M  END
>  <MODEL>
1

>  <REMARK>
 VINA RESULT:      -6.8      0.000      0.000
  Name = 
  12 active torsions:
  status: ('A' for Active; 'I' for Inactive)
    1  A    between atoms: N_4  and  C_41
    2  A    between atoms: C_5  and  N_9
    3  A    between atoms: C_5  and  C_17
    4  A    between atoms: C_8  and  C_11
    5  A    between atoms: C_8  and  C_14
    6  A    between atoms: N_9  and  C_21
    7  A    between atoms: C_11  and  C_38
    8  A    between atoms: C_12  and  C_38
    9  A    between atoms: C_14  and  N_35
   10  A    between atoms: C_19  and  C_23
   11  A    between atoms: C_23  and  C_40
   12  A    between atoms: N_30  and  C_39
                            x       y       z     vdW  Elec       q    Type
                         _______ _______ _______ _____ _____    ______ ____

>  <TORSDO>
F 12

$$$$
=
 OpenBabel11042417063D

 44 50  0  0  1  0  0  0  0  0999 V2000
  192.4620  173.9840  140.6570 C   0  0  2  0  0  3  0  0  0  0  0  0
  193.6630  174.4740  141.0610 C   0  0  0  0  0  0  0  0  0  0  0  0
  191.3990  173.6580  141.5830 N   0  0  2  0  0  0  0  0  0  0  0  0
  190.7550  173.5770  138.8430 C   0  0  0  0  0  0  0  0  0  0  0  0
  197.1270  175.7210  143.7670 N   0  0  0  0  0  0  0  0  0  0  0  0
  192.2390  173.6520  139.1840 C   0  0  1  0  0  3  0  0  0  0  0  0
  196.1520  175.4830  141.8310 C   0  0  0  0  0  0  0  0  0  0  0  0
  195.9650  175.2040  144.0180 C   0  0  0  0  0  0  0  0  0  0  0  0
  189.9120  173.2000  139.7580 N   0  0  0  0  0  0  0  0  0  0  0  0
  190.3260  172.7920  141.0990 C   0  0  0  0  0  2  0  0  0  0  0  0
  195.8400  175.4910  140.4770 C   0  0  0  0  0  3  0  0  0  0  0  0
  194.5880  174.9760  140.0890 C   0  0  0  0  0  0  0  0  0  0  0  0
  194.1890  175.0830  138.6800 C   0  0  0  0  0  3  0  0  0  0  0  0
  195.2740  175.0130  142.7630 C   0  0  0  0  0  0  0  0  0  0  0  0
  197.2430  175.9090  142.3770 N   0  0  0  0  0  0  0  0  0  0  0  0
  190.2400  173.7910  137.5210 N   0  0  0  0  0  2  0  0  0  0  0  0
  194.0270  174.5030  142.4280 C   0  0  0  0  0  2  0  0  0  0  0  0
  193.0620  174.5150  138.2640 C   0  0  0  0  0  3  0  0  0  0  0  0
  190.4990  173.5850  143.8850 C   0  0  2  0  0  3  0  0  0  0  0  0
  189.6850  174.3290  144.9550 C   0  0  1  0  0  3  0  0  0  0  0  0
  191.1170  173.9270  145.2320 C   0  0  0  0  0  2  0  0  0  0  0  0
  190.4190  176.5390  143.7760 C   0  0  0  0  0  2  0  0  0  0  0  0
  189.5250  175.8620  144.8140 C   0  0  1  0  0  3  0  0  0  0  0  0
  191.1800  174.4340  142.8040 C   0  0  2  0  0  3  0  0  0  0  0  0
  190.4490  175.7270  142.5010 C   0  0  0  0  0  2  0  0  0  0  0  0
  188.2040  176.9440  146.8780 O   0  0  0  0  0  1  0  0  0  0  0  0
  187.4980  176.8400  145.6720 C   0  0  2  0  0  0  0  0  0  0  0  0
  188.1270  176.1880  144.5450 N   0  0  1  0  0  0  0  0  0  0  0  0
  188.0110  177.5750  144.6610 O   0  0  0  0  0  0  0  0  0  0  0  0
  186.0430  176.7960  145.6970 N   0  0  0  0  0  2  0  0  0  0  0  0
  185.2170  177.9580  145.8090 C   0  0  0  0  0  0  0  0  0  0  0  0
  184.8950  178.6460  147.2620 S   0  0  0  0  0  0  0  0  0  0  0  0
  185.2770  179.7910  144.1650 C   0  0  0  0  0  1  0  0  0  0  0  0
  184.5750  178.5130  144.5850 C   0  0  0  0  0  2  0  0  0  0  0  0
  191.0370  173.9300  136.3110 C   0  0  0  0  0  2  0  0  0  0  0  0
  190.4900  175.0310  135.4700 C   0  0  0  0  0  0  0  0  0  0  0  0
  189.2920  175.0810  135.2350 O   0  0  0  0  0  0  0  0  0  0  0  0
  191.4100  176.0710  134.9240 C   0  0  0  0  0  2  0  0  0  0  0  0
  192.8080  175.5030  134.7450 C   0  0  0  0  0  2  0  0  0  0  0  0
  193.8490  176.5790  134.9960 C   0  0  0  0  0  2  0  0  0  0  0  0
  193.1770  177.9160  135.2620 C   0  0  0  0  0  1  0  0  0  0  0  0
  195.4950  174.8110  145.3800 C   0  0  0  0  0  2  0  0  0  0  0  0
  193.6850  176.4080  145.8160 C   0  0  0  0  0  2  0  0  0  0  0  0
  194.9140  175.9830  146.0990 C   0  0  0  0  0  3  0  0  0  0  0  0
  1  2  1  1  0  0  0
  1  3  1  0  0  0  0
  2 17  1  0  0  0  0
  3 10  1  6  0  0  0
  3 24  1  0  0  0  0
  4  6  1  0  0  0  0
  4  9  2  0  0  0  0
  5  8  1  0  0  0  0
  6 18  1  6  0  0  0
  6  1  1  0  0  0  0
  7 15  1  0  0  0  0
  7 14  1  0  0  0  0
  8 42  1  0  0  0  0
  9 10  1  0  0  0  0
 11  7  2  0  0  0  0
 12 11  1  0  0  0  0
 12  2  2  0  0  0  0
 13 12  1  0  0  0  0
 14  8  2  0  0  0  0
 15  5  2  0  0  0  0
 16  4  1  0  0  0  0
 17 14  1  0  0  0  0
 18 13  2  0  0  0  0
 19 20  1  0  0  0  0
 19 21  1  1  0  0  0
 20 21  1  1  0  0  0
 23 22  1  6  0  0  0
 23 20  1  0  0  0  0
 24 25  1  6  0  0  0
 24 19  1  0  0  0  0
 25 22  1  0  0  0  0
 27 30  1  0  0  0  0
 27 26  1  1  0  0  0
 28 29  1  6  0  0  0
 28 23  1  0  0  0  0
 28 27  1  0  0  0  0
 29 27  1  0  0  0  0
 30 31  1  0  0  0  0
 31 32  2  0  0  0  0
 33 34  1  0  0  0  0
 34 31  1  0  0  0  0
 35 16  1  0  0  0  0
 36 35  1  0  0  0  0
 37 36  2  0  0  0  0
 38 36  1  0  0  0  0
 39 38  1  0  0  0  0
 39 40  1  0  0  0  0
 40 41  1  0  0  0  0
 42 44  1  0  0  0  0
 43 44  2  0  0  0  0
M  END
>  <MODEL>
2

>  <REMARK>
 VINA RESULT:      -6.6      1.273      2.344
  Name = 
  12 active torsions:
  status: ('A' for Active; 'I' for Inactive)
    1  A    between atoms: N_4  and  C_41
    2  A    between atoms: C_5  and  N_9
    3  A    between atoms: C_5  and  C_17
    4  A    between atoms: C_8  and  C_11
    5  A    between atoms: C_8  and  C_14
    6  A    between atoms: N_9  and  C_21
    7  A    between atoms: C_11  and  C_38
    8  A    between atoms: C_12  and  C_38
    9  A    between atoms: C_14  and  N_35
   10  A    between atoms: C_19  and  C_23
   11  A    between atoms: C_23  and  C_40
   12  A    between atoms: N_30  and  C_39
                            x       y       z     vdW  Elec       q    Type
                         _______ _______ _______ _____ _____    ______ ____

>  <TORSDO>
F 12

$$$$
=
 OpenBabel11042417063D

 44 50  0  0  1  0  0  0  0  0999 V2000
  188.6020  175.2030  142.9490 C   0  0  2  0  0  3  0  0  0  0  0  0
  188.2240  175.3640  141.6530 C   0  0  0  0  0  0  0  0  0  0  0  0
  189.6490  174.2880  143.3500 N   0  0  2  0  0  0  0  0  0  0  0  0
  188.6480  176.0130  145.3380 C   0  0  0  0  0  0  0  0  0  0  0  0
  187.8430  174.6810  137.1520 N   0  0  0  0  0  0  0  0  0  0  0  0
  187.8330  175.9210  144.0540 C   0  0  1  0  0  3  0  0  0  0  0  0
  187.4040  175.7360  139.0090 C   0  0  0  0  0  0  0  0  0  0  0  0
  188.5150  174.0670  138.0740 C   0  0  1  0  0  3  0  0  0  0  0  0
  189.5120  175.0800  145.6100 N   0  0  0  0  0  0  0  0  0  0  0  0
  189.7070  173.9080  144.7600 C   0  0  0  0  0  2  0  0  0  0  0  0
  186.9300  176.6250  139.9660 C   0  0  0  0  0  3  0  0  0  0  0  0
  187.3380  176.4320  141.3000 C   0  0  0  0  0  0  0  0  0  0  0  0
  186.9450  177.4260  142.3070 C   0  0  0  0  0  3  0  0  0  0  0  0
  188.2540  174.7200  139.3360 C   0  0  0  0  0  0  0  0  0  0  0  0
  187.1440  175.7500  137.7440 N   0  0  0  0  0  0  0  0  0  0  0  0
  188.4350  177.0240  146.3350 N   0  0  0  0  0  2  0  0  0  0  0  0
  188.6890  174.4970  140.6360 C   0  0  0  0  0  3  0  0  0  0  0  0
  187.2270  177.2190  143.5890 C   0  0  0  0  0  3  0  0  0  0  0  0
  191.3880  172.6390  142.7410 C   0  0  2  0  0  3  0  0  0  0  0  0
  192.8760  172.4200  142.4250 C   0  0  1  0  0  3  0  0  0  0  0  0
  191.8200  172.0610  141.4030 C   0  0  0  0  0  2  0  0  0  0  0  0
  192.9340  174.9130  141.6500 C   0  0  0  0  0  2  0  0  0  0  0  0
  193.7170  173.6450  141.9910 C   0  0  1  0  0  3  0  0  0  0  0  0
  190.8200  174.0450  142.5070 C   0  0  2  0  0  3  0  0  0  0  0  0
  191.8470  175.1480  142.6750 C   0  0  0  0  0  2  0  0  0  0  0  0
  196.2560  173.2200  141.2500 O   0  0  0  0  0  1  0  0  0  0  0  0
  196.0630  173.7700  142.5240 C   0  0  2  0  0  0  0  0  0  0  0  0
  194.7140  173.9450  143.0160 N   0  0  1  0  0  0  0  0  0  0  0  0
  195.4910  174.9950  142.5220 O   0  0  0  0  0  0  0  0  0  0  0  0
  197.0880  173.5950  143.5420 N   0  0  0  0  0  2  0  0  0  0  0  0
  197.2750  172.3830  144.2780 C   0  0  0  0  0  0  0  0  0  0  0  0
  197.9410  171.0530  143.5890 S   0  0  0  0  0  0  0  0  0  0  0  0
  196.8190  173.6820  146.3210 C   0  0  0  0  0  1  0  0  0  0  0  0
  196.7880  172.3060  145.6840 C   0  0  0  0  0  2  0  0  0  0  0  0
  187.3320  177.9720  146.3600 C   0  0  0  0  0  2  0  0  0  0  0  0
  186.1520  177.3550  147.0300 C   0  0  0  0  0  0  0  0  0  0  0  0
  186.2440  176.9530  148.1790 O   0  0  0  0  0  0  0  0  0  0  0  0
  184.8610  177.2380  146.2910 C   0  0  0  0  0  2  0  0  0  0  0  0
  184.2250  178.6060  146.1120 C   0  0  0  0  0  2  0  0  0  0  0  0
  184.1780  178.9760  144.6400 C   0  0  0  0  0  2  0  0  0  0  0  0
  185.2000  180.0570  144.3330 C   0  0  0  0  0  1  0  0  0  0  0  0
  189.3410  172.8440  137.8420 C   0  0  0  0  0  2  0  0  0  0  0  0
  191.3880  174.0170  137.1680 C   0  0  0  0  0  2  0  0  0  0  0  0
  190.7950  173.1520  137.9880 C   0  0  0  0  0  3  0  0  0  0  0  0
  1  2  1  1  0  0  0
  1  3  1  0  0  0  0
  1  6  1  0  0  0  0
  3 10  1  1  0  0  0
  4  9  2  0  0  0  0
  4 16  1  0  0  0  0
  5 15  2  0  0  0  0
  5  8  1  0  0  0  0
  6 18  1  6  0  0  0
  6  4  1  0  0  0  0
  7 14  2  0  0  0  0
  7 11  1  0  0  0  0
  8 42  1  1  0  0  0
  8 14  1  0  0  0  0
 10  9  1  0  0  0  0
 11 12  2  0  0  0  0
 12  2  1  0  0  0  0
 12 13  1  0  0  0  0
 13 18  2  0  0  0  0
 14 17  1  0  0  0  0
 15  7  1  0  0  0  0
 16 35  1  0  0  0  0
 17  2  2  0  0  0  0
 19 21  1  6  0  0  0
 20 21  1  6  0  0  0
 20 19  1  0  0  0  0
 22 25  1  0  0  0  0
 23 22  1  1  0  0  0
 23 20  1  0  0  0  0
 23 28  1  0  0  0  0
 24 25  1  1  0  0  0
 24 19  1  0  0  0  0
 24  3  1  0  0  0  0
 27 26  1  6  0  0  0
 27 28  1  0  0  0  0
 27 30  1  0  0  0  0
 28 29  1  6  0  0  0
 29 27  1  0  0  0  0
 30 31  1  0  0  0  0
 31 34  1  0  0  0  0
 32 31  2  0  0  0  0
 34 33  1  0  0  0  0
 35 36  1  0  0  0  0
 36 37  2  0  0  0  0
 38 36  1  0  0  0  0
 39 38  1  0  0  0  0
 40 39  1  0  0  0  0
 41 40  1  0  0  0  0
 42 44  1  0  0  0  0
 43 44  2  0  0  0  0
M  END
>  <MODEL>
3

>  <REMARK>
 VINA RESULT:      -6.5      3.593      9.463
  Name = 
  12 active torsions:
  status: ('A' for Active; 'I' for Inactive)
    1  A    between atoms: N_4  and  C_41
    2  A    between atoms: C_5  and  N_9
    3  A    between atoms: C_5  and  C_17
    4  A    between atoms: C_8  and  C_11
    5  A    between atoms: C_8  and  C_14
    6  A    between atoms: N_9  and  C_21
    7  A    between atoms: C_11  and  C_38
    8  A    between atoms: C_12  and  C_38
    9  A    between atoms: C_14  and  N_35
   10  A    between atoms: C_19  and  C_23
   11  A    between atoms: C_23  and  C_40
   12  A    between atoms: N_30  and  C_39
                            x       y       z     vdW  Elec       q    Type
                         _______ _______ _______ _____ _____    ______ ____

>  <TORSDO>
F 12

$$$$
=
 OpenBabel11042417063D

 44 50  0  0  1  0  0  0  0  0999 V2000
  192.3270  173.8120  140.9570 C   0  0  2  0  0  3  0  0  0  0  0  0
  193.4370  174.5530  141.2170 C   0  0  0  0  0  0  0  0  0  0  0  0
  191.3550  173.4760  141.9740 N   0  0  2  0  0  0  0  0  0  0  0  0
  190.6760  172.8340  139.3180 C   0  0  0  0  0  0  0  0  0  0  0  0
  196.6960  176.7840  143.5130 N   0  0  0  0  0  0  0  0  0  0  0  0
  192.1320  173.2060  139.5700 C   0  0  1  0  0  3  0  0  0  0  0  0
  195.7340  176.0690  141.6910 C   0  0  0  0  0  0  0  0  0  0  0  0
  195.6440  176.1340  143.9010 C   0  0  0  0  0  0  0  0  0  0  0  0
  189.9280  172.4830  140.3220 N   0  0  0  0  0  0  0  0  0  0  0  0
  190.4340  172.3780  141.6890 C   0  0  0  0  0  2  0  0  0  0  0  0
  195.3970  175.7990  140.3700 C   0  0  0  0  0  3  0  0  0  0  0  0
  194.2420  175.0290  140.1330 C   0  0  0  0  0  0  0  0  0  0  0  0
  193.8010  174.8320  138.7460 C   0  0  0  0  0  3  0  0  0  0  0  0
  194.9690  175.6240  142.7290 C   0  0  0  0  0  0  0  0  0  0  0  0
  196.7490  176.7530  142.1070 N   0  0  0  0  0  0  0  0  0  0  0  0
  190.1040  172.7370  138.0050 N   0  0  0  0  0  2  0  0  0  0  0  0
  193.8190  174.8690  142.5420 C   0  0  0  0  0  2  0  0  0  0  0  0
  192.7780  174.0260  138.4830 C   0  0  0  0  0  3  0  0  0  0  0  0
  190.2500  173.6910  144.1760 C   0  0  2  0  0  3  0  0  0  0  0  0
  189.3500  174.5630  145.0660 C   0  0  1  0  0  3  0  0  0  0  0  0
  190.7470  174.2020  145.5200 C   0  0  0  0  0  2  0  0  0  0  0  0
  190.2080  176.6090  143.6900 C   0  0  0  0  0  2  0  0  0  0  0  0
  189.2170  176.0650  144.7200 C   0  0  1  0  0  3  0  0  0  0  0  0
  191.0340  174.3990  143.0640 C   0  0  2  0  0  3  0  0  0  0  0  0
  190.3440  175.6420  142.5350 C   0  0  0  0  0  2  0  0  0  0  0  0
  187.6410  177.1390  146.6010 O   0  0  0  0  0  1  0  0  0  0  0  0
  187.0810  177.0010  145.3230 C   0  0  2  0  0  0  0  0  0  0  0  0
  187.8520  176.3510  144.2860 N   0  0  1  0  0  0  0  0  0  0  0  0
  187.6900  177.7360  144.3660 O   0  0  0  0  0  0  0  0  0  0  0  0
  185.6350  176.9190  145.1800 N   0  0  0  0  0  2  0  0  0  0  0  0
  184.8260  177.9910  144.6880 C   0  0  0  0  0  0  0  0  0  0  0  0
  184.4960  178.1550  143.0900 S   0  0  0  0  0  0  0  0  0  0  0  0
  184.3930  178.4930  147.0600 C   0  0  0  0  0  1  0  0  0  0  0  0
  184.3310  179.0230  145.6410 C   0  0  0  0  0  2  0  0  0  0  0  0
  190.8410  172.7990  136.7520 C   0  0  0  0  0  2  0  0  0  0  0  0
  191.1930  171.4220  136.3050 C   0  0  0  0  0  0  0  0  0  0  0  0
  190.4310  170.4940  136.5300 O   0  0  0  0  0  0  0  0  0  0  0  0
  192.4740  171.1860  135.5790 C   0  0  0  0  0  2  0  0  0  0  0  0
  193.2810  170.0960  136.2650 C   0  0  0  0  0  2  0  0  0  0  0  0
  194.0120  170.6620  137.4700 C   0  0  0  0  0  2  0  0  0  0  0  0
  195.1420  171.5740  137.0240 C   0  0  0  0  0  1  0  0  0  0  0  0
  195.2760  175.9020  145.3300 C   0  0  0  0  0  2  0  0  0  0  0  0
  193.3150  176.4010  146.7170 C   0  0  0  0  0  2  0  0  0  0  0  0
  194.1270  176.7680  145.7280 C   0  0  0  0  0  3  0  0  0  0  0  0
  1  2  1  1  0  0  0
  1  3  1  0  0  0  0
  2 17  1  0  0  0  0
  3 10  1  6  0  0  0
  3 24  1  0  0  0  0
  4  6  1  0  0  0  0
  4  9  2  0  0  0  0
  5  8  1  0  0  0  0
  6 18  1  6  0  0  0
  6  1  1  0  0  0  0
  7 15  1  0  0  0  0
  7 14  1  0  0  0  0
  8 42  1  0  0  0  0
  9 10  1  0  0  0  0
 11  7  2  0  0  0  0
 12 11  1  0  0  0  0
 12  2  2  0  0  0  0
 13 12  1  0  0  0  0
 14  8  2  0  0  0  0
 15  5  2  0  0  0  0
 16  4  1  0  0  0  0
 17 14  1  0  0  0  0
 18 13  2  0  0  0  0
 19 20  1  0  0  0  0
 19 21  1  1  0  0  0
 20 21  1  1  0  0  0
 23 22  1  6  0  0  0
 23 20  1  0  0  0  0
 24 25  1  6  0  0  0
 24 19  1  0  0  0  0
 25 22  1  0  0  0  0
 27 26  1  1  0  0  0
 28 29  1  6  0  0  0
 28 23  1  0  0  0  0
 28 27  1  0  0  0  0
 29 27  1  0  0  0  0
 30 27  1  0  0  0  0
 31 30  1  0  0  0  0
 31 34  1  0  0  0  0
 32 31  2  0  0  0  0
 34 33  1  0  0  0  0
 35 16  1  0  0  0  0
 36 37  2  0  0  0  0
 36 35  1  0  0  0  0
 38 39  1  0  0  0  0
 38 36  1  0  0  0  0
 39 40  1  0  0  0  0
 41 40  1  0  0  0  0
 42 44  1  0  0  0  0
 44 43  2  0  0  0  0
M  END
>  <MODEL>
4

>  <REMARK>
 VINA RESULT:      -6.3      1.397      1.645
  Name = 
  12 active torsions:
  status: ('A' for Active; 'I' for Inactive)
    1  A    between atoms: N_4  and  C_41
    2  A    between atoms: C_5  and  N_9
    3  A    between atoms: C_5  and  C_17
    4  A    between atoms: C_8  and  C_11
    5  A    between atoms: C_8  and  C_14
    6  A    between atoms: N_9  and  C_21
    7  A    between atoms: C_11  and  C_38
    8  A    between atoms: C_12  and  C_38
    9  A    between atoms: C_14  and  N_35
   10  A    between atoms: C_19  and  C_23
   11  A    between atoms: C_23  and  C_40
   12  A    between atoms: N_30  and  C_39
                            x       y       z     vdW  Elec       q    Type
                         _______ _______ _______ _____ _____    ______ ____

>  <TORSDO>
F 12

$$$$
=
 OpenBabel11042417063D

 44 50  0  0  1  0  0  0  0  0999 V2000
  190.2850  175.8650  144.2030 C   0  0  2  0  0  3  0  0  0  0  0  0
  191.4950  175.7260  144.8060 C   0  0  0  0  0  0  0  0  0  0  0  0
  190.0290  175.4200  142.8500 N   0  0  2  0  0  0  0  0  0  0  0  0
  187.7980  176.2770  144.3400 C   0  0  0  0  0  0  0  0  0  0  0  0
  195.9460  174.8940  145.4080 N   0  0  0  0  0  0  0  0  0  0  0  0
  189.1660  176.6170  144.9190 C   0  0  1  0  0  3  0  0  0  0  0  0
  193.9580  175.4680  146.0960 C   0  0  0  0  0  0  0  0  0  0  0  0
  195.1790  174.8270  144.3660 C   0  0  0  0  0  0  0  0  0  0  0  0
  187.7040  175.9570  143.0830 N   0  0  0  0  0  0  0  0  0  0  0  0
  188.8490  175.9570  142.1760 C   0  0  0  0  0  2  0  0  0  0  0  0
  192.8630  175.8520  146.8600 C   0  0  0  0  0  3  0  0  0  0  0  0
  191.6240  175.9890  146.2080 C   0  0  0  0  0  0  0  0  0  0  0  0
  190.4310  176.2780  147.0150 C   0  0  0  0  0  3  0  0  0  0  0  0
  193.8430  175.2100  144.7620 C   0  0  0  0  0  0  0  0  0  0  0  0
  195.1690  175.2910  146.5120 N   0  0  0  0  0  2  0  0  0  0  0  0
  186.5770  176.4000  145.0820 N   0  0  0  0  0  2  0  0  0  0  0  0
  192.6390  175.3230  144.0790 C   0  0  0  0  0  3  0  0  0  0  0  0
  189.2670  176.5150  146.4180 C   0  0  0  0  0  3  0  0  0  0  0  0
  191.4510  174.5500  141.0240 C   0  0  2  0  0  3  0  0  0  0  0  0
  191.6760  173.4030  140.0250 C   0  0  1  0  0  3  0  0  0  0  0  0
  192.7490  173.7550  141.0330 C   0  0  0  0  0  2  0  0  0  0  0  0
  190.4310  171.8640  141.7260 C   0  0  0  0  0  2  0  0  0  0  0  0
  191.0180  172.0350  140.3250 C   0  0  1  0  0  3  0  0  0  0  0  0
  190.6690  174.2230  142.3020 C   0  0  2  0  0  3  0  0  0  0  0  0
  189.6620  173.1030  142.1260 C   0  0  0  0  0  2  0  0  0  0  0  0
  191.8110  170.4470  138.3190 O   0  0  0  0  0  1  0  0  0  0  0  0
  190.4630  170.8280  138.3160 C   0  0  2  0  0  0  0  0  0  0  0  0
  189.9930  171.7520  139.3250 N   0  0  1  0  0  0  0  0  0  0  0  0
  189.7540  170.3770  139.3750 O   0  0  0  0  0  0  0  0  0  0  0  0
  189.7220  170.8300  137.0630 N   0  0  0  0  0  2  0  0  0  0  0  0
  190.1460  171.5370  135.8940 C   0  0  0  0  0  0  0  0  0  0  0  0
  191.0950  170.8290  134.7590 S   0  0  0  0  0  0  0  0  0  0  0  0
  190.8620  173.8540  136.3240 C   0  0  0  0  0  1  0  0  0  0  0  0
  189.7760  172.9710  135.7390 C   0  0  0  0  0  2  0  0  0  0  0  0
  186.4380  177.0170  146.3930 C   0  0  0  0  0  2  0  0  0  0  0  0
  185.2870  177.9630  146.3860 C   0  0  0  0  0  0  0  0  0  0  0  0
  184.8120  178.3540  147.4410 O   0  0  0  0  0  0  0  0  0  0  0  0
  184.7250  178.4330  145.0860 C   0  0  0  0  0  2  0  0  0  0  0  0
  185.5620  179.5700  144.5240 C   0  0  0  0  0  2  0  0  0  0  0  0
  185.9500  179.2780  143.0860 C   0  0  0  0  0  2  0  0  0  0  0  0
  184.9560  178.3190  142.4520 C   0  0  0  0  0  1  0  0  0  0  0  0
  195.6530  174.4890  142.9900 C   0  0  0  0  0  2  0  0  0  0  0  0
  196.1340  175.6460  140.8810 C   0  0  0  0  0  2  0  0  0  0  0  0
  195.8420  175.7270  142.1770 C   0  0  0  0  0  3  0  0  0  0  0  0
  1  2  1  6  0  0  0
  1  6  1  0  0  0  0
  2 12  1  0  0  0  0
  3 10  1  1  0  0  0
  3  1  1  0  0  0  0
  4  6  1  0  0  0  0
  4 16  1  0  0  0  0
  5 15  1  0  0  0  0
  6 18  1  1  0  0  0
  7 15  1  0  0  0  0
  7 11  1  0  0  0  0
  8 14  1  0  0  0  0
  8  5  2  0  0  0  0
  9  4  2  0  0  0  0
 10  9  1  0  0  0  0
 12 11  2  0  0  0  0
 12 13  1  0  0  0  0
 14  7  2  0  0  0  0
 16 35  1  0  0  0  0
 17 14  1  0  0  0  0
 17  2  2  0  0  0  0
 18 13  2  0  0  0  0
 19 21  1  1  0  0  0
 19 24  1  0  0  0  0
 20 23  1  0  0  0  0
 20 19  1  0  0  0  0
 20 21  1  1  0  0  0
 22 25  1  0  0  0  0
 23 22  1  1  0  0  0
 24 25  1  6  0  0  0
 24  3  1  0  0  0  0
 27 26  1  6  0  0  0
 27 28  1  0  0  0  0
 27 29  1  0  0  0  0
 28 29  1  1  0  0  0
 28 23  1  0  0  0  0
 30 27  1  0  0  0  0
 31 30  1  0  0  0  0
 32 31  2  0  0  0  0
 34 31  1  0  0  0  0
 34 33  1  0  0  0  0
 36 35  1  0  0  0  0
 36 37  2  0  0  0  0
 38 36  1  0  0  0  0
 39 38  1  0  0  0  0
 40 39  1  0  0  0  0
 41 40  1  0  0  0  0
 42  8  1  0  0  0  0
 43 44  2  0  0  0  0
 44 42  1  0  0  0  0
M  END
>  <MODEL>
5

>  <REMARK>
 VINA RESULT:      -6.2      3.031      8.376
  Name = 
  12 active torsions:
  status: ('A' for Active; 'I' for Inactive)
    1  A    between atoms: N_4  and  C_41
    2  A    between atoms: C_5  and  N_9
    3  A    between atoms: C_5  and  C_17
    4  A    between atoms: C_8  and  C_11
    5  A    between atoms: C_8  and  C_14
    6  A    between atoms: N_9  and  C_21
    7  A    between atoms: C_11  and  C_38
    8  A    between atoms: C_12  and  C_38
    9  A    between atoms: C_14  and  N_35
   10  A    between atoms: C_19  and  C_23
   11  A    between atoms: C_23  and  C_40
   12  A    between atoms: N_30  and  C_39
                            x       y       z     vdW  Elec       q    Type
                         _______ _______ _______ _____ _____    ______ ____

>  <TORSDO>
F 12

$$$$
=
 OpenBabel11042417063D

 44 50  0  0  1  0  0  0  0  0999 V2000
  191.6580  173.5570  144.9570 C   0  0  2  0  0  3  0  0  0  0  0  0
  191.0700  174.6390  145.5320 C   0  0  0  0  0  0  0  0  0  0  0  0
  190.9940  172.7440  143.9610 N   0  0  2  0  0  0  0  0  0  0  0  0
  193.7220  172.2100  144.4140 C   0  0  0  0  0  0  0  0  0  0  0  0
  187.8900  177.6840  146.7520 N   0  0  0  0  0  0  0  0  0  0  0  0
  193.0290  173.0950  145.4430 C   0  0  1  0  0  3  0  0  0  0  0  0
  189.9140  176.8710  146.7490 C   0  0  0  0  0  0  0  0  0  0  0  0
  187.8450  176.6290  146.0000 C   0  0  0  0  0  0  0  0  0  0  0  0
  193.0000  171.4740  143.6220 N   0  0  0  0  0  0  0  0  0  0  0  0
  191.5420  171.4140  143.7030 C   0  0  0  0  0  2  0  0  0  0  0  0
  191.2700  176.6520  146.9530 C   0  0  0  0  0  3  0  0  0  0  0  0
  191.8510  175.5220  146.3450 C   0  0  0  0  0  0  0  0  0  0  0  0
  193.3030  175.3350  146.4500 C   0  0  0  0  0  3  0  0  0  0  0  0
  189.1640  176.0390  145.9700 C   0  0  0  0  0  0  0  0  0  0  0  0
  189.2080  177.8460  147.2190 N   0  0  0  0  0  2  0  0  0  0  0  0
  195.1460  172.0530  144.3430 N   0  0  0  0  0  2  0  0  0  0  0  0
  189.6960  174.9190  145.3450 C   0  0  0  0  0  3  0  0  0  0  0  0
  193.8660  174.2270  145.9770 C   0  0  0  0  0  3  0  0  0  0  0  0
  188.9210  172.3630  142.6690 C   0  0  2  0  0  3  0  0  0  0  0  0
  188.2240  172.5220  141.3080 C   0  0  1  0  0  3  0  0  0  0  0  0
  187.6360  173.1670  142.5430 C   0  0  0  0  0  2  0  0  0  0  0  0
  189.8240  174.5410  140.8830 C   0  0  0  0  0  2  0  0  0  0  0  0
  188.7920  173.5660  140.3160 C   0  0  1  0  0  3  0  0  0  0  0  0
  190.0720  173.3260  142.9850 C   0  0  2  0  0  3  0  0  0  0  0  0
  190.8170  173.8030  141.7530 C   0  0  0  0  0  2  0  0  0  0  0  0
  187.8200  174.3950  137.9620 O   0  0  0  0  0  1  0  0  0  0  0  0
  188.8390  173.4350  137.9120 C   0  0  2  0  0  0  0  0  0  0  0  0
  189.3470  172.8860  139.1490 N   0  0  1  0  0  0  0  0  0  0  0  0
  190.0250  173.8550  138.4070 O   0  0  0  0  0  0  0  0  0  0  0  0
  188.9550  172.5740  136.7440 N   0  0  0  0  0  2  0  0  0  0  0  0
  190.0870  172.5720  135.8690 C   0  0  0  0  0  0  0  0  0  0  0  0
  190.2860  173.7230  134.7190 S   0  0  0  0  0  0  0  0  0  0  0  0
  190.4090  170.2270  136.5500 C   0  0  0  0  0  1  0  0  0  0  0  0
  191.0700  171.4570  135.9580 C   0  0  0  0  0  2  0  0  0  0  0  0
  196.1050  172.5520  145.3180 C   0  0  0  0  0  2  0  0  0  0  0  0
  196.9540  173.6070  144.6950 C   0  0  0  0  0  0  0  0  0  0  0  0
  197.8190  174.1620  145.3540 O   0  0  0  0  0  0  0  0  0  0  0  0
  196.7440  173.9750  143.2640 C   0  0  0  0  0  2  0  0  0  0  0  0
  195.9750  175.2810  143.1580 C   0  0  0  0  0  2  0  0  0  0  0  0
  194.7100  175.0820  142.3420 C   0  0  0  0  0  2  0  0  0  0  0  0
  193.6250  176.0410  142.8040 C   0  0  0  0  0  1  0  0  0  0  0  0
  186.6030  176.1000  145.3630 C   0  0  0  0  0  2  0  0  0  0  0  0
  186.5840  176.6050  142.9620 C   0  0  0  0  0  2  0  0  0  0  0  0
  186.2080  176.9410  144.1940 C   0  0  0  0  0  3  0  0  0  0  0  0
  1  6  1  0  0  0  0
  1  2  1  1  0  0  0
  2 12  1  0  0  0  0
  3 10  1  6  0  0  0
  3  1  1  0  0  0  0
  4  6  1  0  0  0  0
  5 15  1  0  0  0  0
  6 18  1  6  0  0  0
  7 11  1  0  0  0  0
  7 15  1  0  0  0  0
  8  5  2  0  0  0  0
  9 10  1  0  0  0  0
  9  4  2  0  0  0  0
 12 13  1  0  0  0  0
 12 11  2  0  0  0  0
 14  8  1  0  0  0  0
 14  7  2  0  0  0  0
 16  4  1  0  0  0  0
 16 35  1  0  0  0  0
 17  2  2  0  0  0  0
 17 14  1  0  0  0  0
 18 13  2  0  0  0  0
 19 21  1  1  0  0  0
 19 24  1  0  0  0  0
 20 21  1  1  0  0  0
 20 19  1  0  0  0  0
 22 25  1  0  0  0  0
 23 22  1  1  0  0  0
 23 20  1  0  0  0  0
 24 25  1  6  0  0  0
 24  3  1  0  0  0  0
 27 26  1  1  0  0  0
 27 29  1  0  0  0  0
 27 28  1  0  0  0  0
 28 29  1  6  0  0  0
 28 23  1  0  0  0  0
 30 27  1  0  0  0  0
 31 34  1  0  0  0  0
 31 30  1  0  0  0  0
 32 31  2  0  0  0  0
 34 33  1  0  0  0  0
 36 35  1  0  0  0  0
 36 37  2  0  0  0  0
 38 36  1  0  0  0  0
 39 38  1  0  0  0  0
 40 41  1  0  0  0  0
 40 39  1  0  0  0  0
 42  8  1  0  0  0  0
 43 44  2  0  0  0  0
 44 42  1  0  0  0  0
M  END
>  <MODEL>
6

>  <REMARK>
 VINA RESULT:      -6.2      3.546      8.220
  Name = 
  12 active torsions:
  status: ('A' for Active; 'I' for Inactive)
    1  A    between atoms: N_4  and  C_41
    2  A    between atoms: C_5  and  N_9
    3  A    between atoms: C_5  and  C_17
    4  A    between atoms: C_8  and  C_11
    5  A    between atoms: C_8  and  C_14
    6  A    between atoms: N_9  and  C_21
    7  A    between atoms: C_11  and  C_38
    8  A    between atoms: C_12  and  C_38
    9  A    between atoms: C_14  and  N_35
   10  A    between atoms: C_19  and  C_23
   11  A    between atoms: C_23  and  C_40
   12  A    between atoms: N_30  and  C_39
                            x       y       z     vdW  Elec       q    Type
                         _______ _______ _______ _____ _____    ______ ____

>  <TORSDO>
F 12

$$$$
=
 OpenBabel11042417063D

 44 50  0  0  1  0  0  0  0  0999 V2000
  186.1880  177.9980  143.0960 C   0  0  2  0  0  3  0  0  0  0  0  0
  186.4580  178.1000  144.4240 C   0  0  0  0  0  0  0  0  0  0  0  0
  187.0930  177.3660  142.1600 N   0  0  2  0  0  0  0  0  0  0  0  0
  184.5510  178.0720  141.1770 C   0  0  0  0  0  0  0  0  0  0  0  0
  188.7200  177.9720  148.3910 N   0  0  0  0  0  0  0  0  0  0  0  0
  184.9400  178.6660  142.5250 C   0  0  1  0  0  3  0  0  0  0  0  0
  186.9570  178.3410  147.1610 C   0  0  0  0  0  0  0  0  0  0  0  0
  189.0680  177.6770  147.1780 C   0  0  0  0  0  0  0  0  0  0  0  0
  185.4800  177.5970  140.4010 N   0  0  0  0  0  0  0  0  0  0  0  0
  186.9000  177.6500  140.7400 C   0  0  0  0  0  2  0  0  0  0  0  0
  185.6830  178.6560  146.7050 C   0  0  0  0  0  3  0  0  0  0  0  0
  185.4350  178.5410  145.3240 C   0  0  0  0  0  0  0  0  0  0  0  0
  184.0660  178.7540  144.8360 C   0  0  0  0  0  3  0  0  0  0  0  0
  187.9360  177.9140  146.3120 C   0  0  0  0  0  0  0  0  0  0  0  0
  187.3740  178.3840  148.3840 N   0  0  0  0  0  2  0  0  0  0  0  0
  183.2140  178.1110  140.6560 N   0  0  0  0  0  2  0  0  0  0  0  0
  187.7330  177.7780  144.9450 C   0  0  0  0  0  3  0  0  0  0  0  0
  183.8200  178.7550  143.5290 C   0  0  0  0  0  3  0  0  0  0  0  0
  189.3940  176.4650  142.2450 C   0  0  2  0  0  3  0  0  0  0  0  0
  190.2850  175.2320  142.0220 C   0  0  1  0  0  3  0  0  0  0  0  0
  190.2230  175.8890  143.3830 C   0  0  0  0  0  2  0  0  0  0  0  0
  188.1640  173.7870  142.5010 C   0  0  0  0  0  2  0  0  0  0  0  0
  189.6120  173.8390  142.0130 C   0  0  1  0  0  3  0  0  0  0  0  0
  187.9110  176.2140  142.5430 C   0  0  2  0  0  3  0  0  0  0  0  0
  187.3750  174.9390  141.9200 C   0  0  0  0  0  2  0  0  0  0  0  0
  190.8030  171.4410  141.9050 O   0  0  0  0  0  1  0  0  0  0  0  0
  190.2800  171.9320  140.7010 C   0  0  2  0  0  0  0  0  0  0  0  0
  189.7000  173.2570  140.6770 N   0  0  1  0  0  0  0  0  0  0  0  0
  188.9380  172.0880  140.6990 O   0  0  0  0  0  0  0  0  0  0  0  0
  190.8270  171.4590  139.4380 N   0  0  0  0  0  2  0  0  0  0  0  0
  190.4980  170.1930  138.8580 C   0  0  0  0  0  0  0  0  0  0  0  0
  191.0480  168.7860  139.4960 S   0  0  0  0  0  0  0  0  0  0  0  0
  190.5600  170.5650  136.4240 C   0  0  0  0  0  1  0  0  0  0  0  0
  189.6970  170.1560  137.6020 C   0  0  0  0  0  2  0  0  0  0  0  0
  182.1000  178.8510  141.2300 C   0  0  0  0  0  2  0  0  0  0  0  0
  180.8500  178.5400  140.4810 C   0  0  0  0  0  0  0  0  0  0  0  0
  180.7910  177.5420  139.7790 O   0  0  0  0  0  0  0  0  0  0  0  0
  179.6730  179.4490  140.5990 C   0  0  0  0  0  2  0  0  0  0  0  0
  178.4300  178.6630  140.9810 C   0  0  0  0  0  2  0  0  0  0  0  0
  178.4070  178.4090  142.4780 C   0  0  0  0  0  2  0  0  0  0  0  0
  178.2580  176.9240  142.7610 C   0  0  0  0  0  1  0  0  0  0  0  0
  190.4420  177.2500  146.7750 C   0  0  0  0  0  2  0  0  0  0  0  0
  189.7750  174.9050  147.0460 C   0  0  0  0  0  2  0  0  0  0  0  0
  190.7050  175.8440  147.2010 C   0  0  0  0  0  3  0  0  0  0  0  0
  1  2  1  6  0  0  0
  2 17  2  0  0  0  0
  2 12  1  0  0  0  0
  3 10  1  6  0  0  0
  3 24  1  0  0  0  0
  3  1  1  0  0  0  0
  4  6  1  0  0  0  0
  6  1  1  0  0  0  0
  6 18  1  1  0  0  0
  7 15  1  0  0  0  0
  8  5  2  0  0  0  0
  9 10  1  0  0  0  0
  9  4  2  0  0  0  0
 11  7  1  0  0  0  0
 12 11  2  0  0  0  0
 13 12  1  0  0  0  0
 14  7  2  0  0  0  0
 14  8  1  0  0  0  0
 15  5  1  0  0  0  0
 16  4  1  0  0  0  0
 16 35  1  0  0  0  0
 17 14  1  0  0  0  0
 18 13  2  0  0  0  0
 19 24  1  0  0  0  0
 19 21  1  1  0  0  0
 20 19  1  0  0  0  0
 20 21  1  1  0  0  0
 23 20  1  0  0  0  0
 23 22  1  6  0  0  0
 24 25  1  6  0  0  0
 25 22  1  0  0  0  0
 27 26  1  1  0  0  0
 28 29  1  1  0  0  0
 28 27  1  0  0  0  0
 28 23  1  0  0  0  0
 29 27  1  0  0  0  0
 30 27  1  0  0  0  0
 31 30  1  0  0  0  0
 31 32  2  0  0  0  0
 33 34  1  0  0  0  0
 34 31  1  0  0  0  0
 36 38  1  0  0  0  0
 36 35  1  0  0  0  0
 37 36  2  0  0  0  0
 38 39  1  0  0  0  0
 39 40  1  0  0  0  0
 40 41  1  0  0  0  0
 42  8  1  0  0  0  0
 42 44  1  0  0  0  0
 43 44  2  0  0  0  0
M  END
>  <MODEL>
7

>  <REMARK>
 VINA RESULT:      -6.1      4.394      9.534
  Name = 
  12 active torsions:
  status: ('A' for Active; 'I' for Inactive)
    1  A    between atoms: N_4  and  C_41
    2  A    between atoms: C_5  and  N_9
    3  A    between atoms: C_5  and  C_17
    4  A    between atoms: C_8  and  C_11
    5  A    between atoms: C_8  and  C_14
    6  A    between atoms: N_9  and  C_21
    7  A    between atoms: C_11  and  C_38
    8  A    between atoms: C_12  and  C_38
    9  A    between atoms: C_14  and  N_35
   10  A    between atoms: C_19  and  C_23
   11  A    between atoms: C_23  and  C_40
   12  A    between atoms: N_30  and  C_39
                            x       y       z     vdW  Elec       q    Type
                         _______ _______ _______ _____ _____    ______ ____

>  <TORSDO>
F 12

$$$$
=
 OpenBabel11042417063D

 44 50  0  0  1  0  0  0  0  0999 V2000
  192.5500  172.3710  141.4840 C   0  0  2  0  0  3  0  0  0  0  0  0
  193.7060  173.0860  141.4960 C   0  0  0  0  0  0  0  0  0  0  0  0
  191.5560  172.4740  142.5300 N   0  0  2  0  0  0  0  0  0  0  0  0
  190.8390  170.9840  140.2510 C   0  0  0  0  0  0  0  0  0  0  0  0
  197.1030  175.7740  142.9460 N   0  0  0  0  0  0  0  0  0  0  0  0
  192.3170  171.3300  140.3920 C   0  0  1  0  0  3  0  0  0  0  0  0
  196.0980  174.5260  141.4660 C   0  0  0  0  0  0  0  0  0  0  0  0
  196.0100  175.3680  143.5110 C   0  0  0  0  0  0  0  0  0  0  0  0
  190.0690  171.0550  141.2960 N   0  0  0  0  0  0  0  0  0  0  0  0
  190.5640  171.4050  142.6250 C   0  0  0  0  0  2  0  0  0  0  0  0
  195.7450  173.8320  140.3160 C   0  0  0  0  0  3  0  0  0  0  0  0
  194.5430  173.1010  140.3340 C   0  0  0  0  0  0  0  0  0  0  0  0
  194.0920  172.4570  139.0940 C   0  0  0  0  0  3  0  0  0  0  0  0
  195.3030  174.5230  142.5750 C   0  0  0  0  0  0  0  0  0  0  0  0
  197.1550  175.2490  141.6410 N   0  0  0  0  0  0  0  0  0  0  0  0
  190.2650  170.4680  139.0410 N   0  0  0  0  0  2  0  0  0  0  0  0
  194.1060  173.8220  142.6350 C   0  0  0  0  0  2  0  0  0  0  0  0
  193.0170  171.6750  139.1040 C   0  0  0  0  0  3  0  0  0  0  0  0
  190.8090  173.4970  144.6540 C   0  0  2  0  0  3  0  0  0  0  0  0
  189.9570  174.5990  145.3030 C   0  0  1  0  0  3  0  0  0  0  0  0
  191.4450  174.5360  145.5640 C   0  0  0  0  0  2  0  0  0  0  0  0
  190.2900  175.9590  143.1000 C   0  0  0  0  0  2  0  0  0  0  0  0
  189.5650  175.8220  144.4380 C   0  0  1  0  0  3  0  0  0  0  0  0
  191.2950  173.7390  143.2190 C   0  0  2  0  0  3  0  0  0  0  0  0
  190.3660  174.6170  142.4050 C   0  0  0  0  0  2  0  0  0  0  0  0
  188.2360  177.7540  145.7330 O   0  0  0  0  0  1  0  0  0  0  0  0
  187.4780  176.9400  144.8800 C   0  0  2  0  0  0  0  0  0  0  0  0
  188.1220  175.8270  144.2180 N   0  0  1  0  0  0  0  0  0  0  0  0
  187.8200  177.0300  143.5750 O   0  0  0  0  0  0  0  0  0  0  0  0
  186.0480  176.7970  145.1110 N   0  0  0  0  0  2  0  0  0  0  0  0
  185.1820  177.8920  145.4240 C   0  0  0  0  0  0  0  0  0  0  0  0
  184.7840  178.2580  146.9720 S   0  0  0  0  0  0  0  0  0  0  0  0
  185.5030  179.7900  143.8880 C   0  0  0  0  0  1  0  0  0  0  0  0
  184.5700  178.6720  144.3120 C   0  0  0  0  0  2  0  0  0  0  0  0
  191.0050  170.0410  137.8640 C   0  0  0  0  0  2  0  0  0  0  0  0
  190.4140  170.6610  136.6450 C   0  0  0  0  0  0  0  0  0  0  0  0
  190.7710  170.2900  135.5370 O   0  0  0  0  0  0  0  0  0  0  0  0
  189.3820  171.7290  136.7850 C   0  0  0  0  0  2  0  0  0  0  0  0
  190.0050  173.1010  136.5850 C   0  0  0  0  0  2  0  0  0  0  0  0
  190.1990  173.7920  137.9220 C   0  0  0  0  0  2  0  0  0  0  0  0
  188.9000  173.7940  138.7110 C   0  0  0  0  0  1  0  0  0  0  0  0
  195.6250  175.6750  144.9210 C   0  0  0  0  0  2  0  0  0  0  0  0
  196.8140  173.7900  145.9460 C   0  0  0  0  0  2  0  0  0  0  0  0
  195.6680  174.4420  145.7630 C   0  0  0  0  0  3  0  0  0  0  0  0
  1  2  1  1  0  0  0
  1  3  1  0  0  0  0
  2 17  1  0  0  0  0
  3 10  1  6  0  0  0
  3 24  1  0  0  0  0
  4  6  1  0  0  0  0
  4  9  2  0  0  0  0
  5  8  1  0  0  0  0
  6 18  1  6  0  0  0
  6  1  1  0  0  0  0
  7 15  1  0  0  0  0
  7 14  1  0  0  0  0
  8 42  1  0  0  0  0
  9 10  1  0  0  0  0
 11 12  1  0  0  0  0
 11  7  2  0  0  0  0
 12  2  2  0  0  0  0
 13 18  2  0  0  0  0
 13 12  1  0  0  0  0
 14 17  1  0  0  0  0
 14  8  2  0  0  0  0
 15  5  2  0  0  0  0
 16  4  1  0  0  0  0
 19 20  1  0  0  0  0
 19 21  1  1  0  0  0
 20 21  1  1  0  0  0
 23 22  1  6  0  0  0
 23 20  1  0  0  0  0
 24 25  1  6  0  0  0
 24 19  1  0  0  0  0
 25 22  1  0  0  0  0
 27 30  1  0  0  0  0
 27 26  1  1  0  0  0
 28 29  1  6  0  0  0
 28 23  1  0  0  0  0
 28 27  1  0  0  0  0
 29 27  1  0  0  0  0
 30 31  1  0  0  0  0
 31 32  2  0  0  0  0
 33 34  1  0  0  0  0
 34 31  1  0  0  0  0
 35 16  1  0  0  0  0
 36 38  1  0  0  0  0
 36 35  1  0  0  0  0
 37 36  2  0  0  0  0
 39 38  1  0  0  0  0
 39 40  1  0  0  0  0
 40 41  1  0  0  0  0
 42 44  1  0  0  0  0
 44 43  2  0  0  0  0
M  END
>  <MODEL>
8

>  <REMARK>
 VINA RESULT:      -6.1      1.403      1.981
  Name = 
  12 active torsions:
  status: ('A' for Active; 'I' for Inactive)
    1  A    between atoms: N_4  and  C_41
    2  A    between atoms: C_5  and  N_9
    3  A    between atoms: C_5  and  C_17
    4  A    between atoms: C_8  and  C_11
    5  A    between atoms: C_8  and  C_14
    6  A    between atoms: N_9  and  C_21
    7  A    between atoms: C_11  and  C_38
    8  A    between atoms: C_12  and  C_38
    9  A    between atoms: C_14  and  N_35
   10  A    between atoms: C_19  and  C_23
   11  A    between atoms: C_23  and  C_40
   12  A    between atoms: N_30  and  C_39
                            x       y       z     vdW  Elec       q    Type
                         _______ _______ _______ _____ _____    ______ ____

>  <TORSDO>
F 12

$$$$
=
 OpenBabel11042417063D

 44 50  0  0  1  0  0  0  0  0999 V2000
  187.7690  177.3170  143.5890 C   0  0  2  0  0  3  0  0  0  0  0  0
  188.4000  177.3170  144.7920 C   0  0  0  0  0  0  0  0  0  0  0  0
  188.2960  176.6320  142.4290 N   0  0  2  0  0  0  0  0  0  0  0  0
  185.6950  177.6870  142.1990 C   0  0  0  0  0  0  0  0  0  0  0  0
  191.6200  176.7130  147.9760 N   0  0  0  0  0  0  0  0  0  0  0  0
  186.5090  178.1580  143.3980 C   0  0  1  0  0  3  0  0  0  0  0  0
  189.6520  177.3520  147.2890 C   0  0  0  0  0  0  0  0  0  0  0  0
  191.5850  176.4420  146.7090 C   0  0  0  0  0  0  0  0  0  0  0  0
  186.3090  177.1460  141.1880 N   0  0  0  0  0  0  0  0  0  0  0  0
  187.7630  177.0120  141.1220 C   0  0  0  0  0  2  0  0  0  0  0  0
  188.3540  177.8400  147.2080 C   0  0  0  0  0  3  0  0  0  0  0  0
  187.7260  177.8280  145.9480 C   0  0  0  0  0  0  0  0  0  0  0  0
  186.3160  178.2280  145.8600 C   0  0  0  0  0  3  0  0  0  0  0  0
  190.2990  176.8580  146.1940 C   0  0  0  0  0  0  0  0  0  0  0  0
  190.3880  177.2810  148.3490 N   0  0  0  0  0  2  0  0  0  0  0  0
  184.2840  177.9110  142.0690 N   0  0  0  0  0  2  0  0  0  0  0  0
  189.7160  176.8190  144.9340 C   0  0  0  0  0  3  0  0  0  0  0  0
  185.7260  178.3270  144.6730 C   0  0  0  0  0  3  0  0  0  0  0  0
  190.4810  175.5300  142.0740 C   0  0  2  0  0  3  0  0  0  0  0  0
  191.2010  174.2650  141.5800 C   0  0  1  0  0  3  0  0  0  0  0  0
  191.3860  174.7390  143.0050 C   0  0  0  0  0  2  0  0  0  0  0  0
  189.0210  172.9600  142.1830 C   0  0  0  0  0  2  0  0  0  0  0  0
  190.3900  172.9490  141.5020 C   0  0  1  0  0  3  0  0  0  0  0  0
  189.0310  175.3730  142.5500 C   0  0  2  0  0  3  0  0  0  0  0  0
  188.2880  174.2440  141.8620 C   0  0  0  0  0  2  0  0  0  0  0  0
  192.1940  171.1610  140.6490 O   0  0  0  0  0  1  0  0  0  0  0  0
  191.1940  171.5220  139.7360 C   0  0  2  0  0  0  0  0  0  0  0  0
  190.2410  172.5450  140.1070 N   0  0  1  0  0  0  0  0  0  0  0  0
  189.9430  171.1810  140.1150 O   0  0  0  0  0  0  0  0  0  0  0  0
  191.4430  171.3780  138.3090 N   0  0  0  0  0  2  0  0  0  0  0  0
  191.1820  170.1770  137.5770 C   0  0  0  0  0  0  0  0  0  0  0  0
  192.2930  168.9760  137.4710 S   0  0  0  0  0  0  0  0  0  0  0  0
  189.7110  171.2330  135.9060 C   0  0  0  0  0  1  0  0  0  0  0  0
  189.8980  170.0460  136.8320 C   0  0  0  0  0  2  0  0  0  0  0  0
  183.4730  178.7480  142.9410 C   0  0  0  0  0  2  0  0  0  0  0  0
  182.0900  178.8500  142.3970 C   0  0  0  0  0  0  0  0  0  0  0  0
  181.2210  179.4170  143.0420 O   0  0  0  0  0  0  0  0  0  0  0  0
  181.7750  178.2640  141.0620 C   0  0  0  0  0  2  0  0  0  0  0  0
  180.5050  178.8780  140.4970 C   0  0  0  0  0  2  0  0  0  0  0  0
  179.3440  177.9110  140.6390 C   0  0  0  0  0  2  0  0  0  0  0  0
  178.6630  177.6980  139.2970 C   0  0  0  0  0  1  0  0  0  0  0  0
  192.7290  175.8770  145.9350 C   0  0  0  0  0  2  0  0  0  0  0  0
  194.6580  177.3830  145.7590 C   0  0  0  0  0  2  0  0  0  0  0  0
  193.4990  176.9630  145.2580 C   0  0  0  0  0  3  0  0  0  0  0  0
  1  2  1  6  0  0  0
  2 17  2  0  0  0  0
  2 12  1  0  0  0  0
  3 10  1  6  0  0  0
  3 24  1  0  0  0  0
  3  1  1  0  0  0  0
  4  6  1  0  0  0  0
  5 15  1  0  0  0  0
  6  1  1  0  0  0  0
  6 18  1  1  0  0  0
  7 15  1  0  0  0  0
  8  5  2  0  0  0  0
  9  4  2  0  0  0  0
 10  9  1  0  0  0  0
 11  7  1  0  0  0  0
 12 11  2  0  0  0  0
 13 12  1  0  0  0  0
 14  8  1  0  0  0  0
 14  7  2  0  0  0  0
 16  4  1  0  0  0  0
 16 35  1  0  0  0  0
 17 14  1  0  0  0  0
 18 13  2  0  0  0  0
 19 24  1  0  0  0  0
 19 21  1  1  0  0  0
 20 19  1  0  0  0  0
 20 21  1  1  0  0  0
 23 20  1  0  0  0  0
 23 22  1  6  0  0  0
 24 25  1  6  0  0  0
 25 22  1  0  0  0  0
 27 28  1  0  0  0  0
 27 29  1  0  0  0  0
 27 26  1  1  0  0  0
 28 29  1  1  0  0  0
 28 23  1  0  0  0  0
 30 27  1  0  0  0  0
 31 30  1  0  0  0  0
 32 31  2  0  0  0  0
 33 34  1  0  0  0  0
 34 31  1  0  0  0  0
 36 35  1  0  0  0  0
 36 37  2  0  0  0  0
 38 36  1  0  0  0  0
 39 40  1  0  0  0  0
 39 38  1  0  0  0  0
 41 40  1  0  0  0  0
 42  8  1  0  0  0  0
 44 43  2  0  0  0  0
 44 42  1  0  0  0  0
M  END
>  <MODEL>
9

>  <REMARK>
 VINA RESULT:      -6.0      4.067      8.968
  Name = 
  12 active torsions:
  status: ('A' for Active; 'I' for Inactive)
    1  A    between atoms: N_4  and  C_41
    2  A    between atoms: C_5  and  N_9
    3  A    between atoms: C_5  and  C_17
    4  A    between atoms: C_8  and  C_11
    5  A    between atoms: C_8  and  C_14
    6  A    between atoms: N_9  and  C_21
    7  A    between atoms: C_11  and  C_38
    8  A    between atoms: C_12  and  C_38
    9  A    between atoms: C_14  and  N_35
   10  A    between atoms: C_19  and  C_23
   11  A    between atoms: C_23  and  C_40
   12  A    between atoms: N_30  and  C_39
                            x       y       z     vdW  Elec       q    Type
                         _______ _______ _______ _____ _____    ______ ____

>  <TORSDO>
F 12

$$$$
