=
 OpenBabel11042418483D

 44 49  0  0  1  0  0  0  0  0999 V2000
  195.0980  172.5430  145.3930 N   0  0  0  0  0  0  0  0  0  0  0  0
  190.9940  173.3490  142.8960 C   0  0  0  0  0  0  0  0  0  0  0  0
  191.1260  174.7080  145.7690 C   0  0  0  0  0  3  0  0  0  0  0  0
  194.0300  172.6670  144.6010 C   0  0  0  0  0  0  0  0  0  0  0  0
  190.0760  174.1640  143.5710 C   0  0  0  0  0  3  0  0  0  0  0  0
  192.8140  173.2900  144.6500 C   0  0  0  0  0  0  0  0  0  0  0  0
  195.9130  171.7690  144.6130 C   0  0  0  0  0  0  0  0  0  0  0  0
  193.0990  172.2190  142.6970 O   0  0  0  0  0  0  0  0  0  0  0  0
  195.3660  171.4350  143.3540 C   0  0  0  0  0  3  0  0  0  0  0  0
  192.2440  172.9680  143.4020 C   0  0  0  0  0  0  0  0  0  0  0  0
  194.1540  172.0590  143.4500 C   0  0  0  0  0  0  0  0  0  0  0  0
  192.3410  174.0480  145.7040 C   0  0  0  0  0  3  0  0  0  0  0  0
  190.1080  174.7730  144.8240 C   0  0  0  0  0  0  0  0  0  0  0  0
  192.0020  172.0210  136.3610 C   0  0  0  0  0  0  0  0  0  0  0  0
  190.8300  172.4990  138.5050 C   0  0  0  0  0  0  0  0  0  0  0  0
  190.3330  171.4280  141.3510 C   0  0  0  0  0  3  0  0  0  0  0  0
  189.8930  173.4190  139.2160 C   0  0  0  0  0  2  0  0  0  0  0  0
  192.4900  172.4390  135.2780 O   0  0  0  0  0  0  0  0  0  0  0  0
  190.5900  172.8740  141.5490 C   0  0  0  0  0  0  0  0  0  0  0  0
  191.3800  172.9400  137.2590 N   0  0  0  0  0  0  0  0  0  0  0  0
  190.5420  170.7270  140.2300 C   0  0  0  0  0  3  0  0  0  0  0  0
  191.0700  171.2490  138.9520 C   0  0  2  0  0  3  0  0  0  0  0  0
  190.4020  173.7710  140.5730 C   0  0  0  0  0  3  0  0  0  0  0  0
  191.9610  170.5530  136.6830 C   0  0  2  0  0  3  0  0  0  0  0  0
  192.0020  170.3380  138.1980 C   0  0  0  0  0  2  0  0  0  0  0  0
  192.8310  169.0920  135.0000 O   0  0  0  0  0  0  0  0  0  0  0  0
  193.0690  169.7930  136.0220 C   0  0  0  0  0  0  0  0  0  0  0  0
  194.3570  169.8650  136.5700 O   0  0  0  0  0  0  0  0  0  0  0  0
  195.5810  171.1560  135.0700 O   0  0  0  0  0  0  0  0  0  0  0  0
  195.5170  170.1660  135.8470 C   0  0  0  0  0  3  0  0  0  0  0  0
  188.9530  175.5470  145.1820 C   0  0  0  0  0  0  0  0  0  0  0  0
  187.9840  176.1970  145.4870 C   0  0  0  0  0  0  0  0  0  0  0  0
  187.0830  177.7520  147.1530 C   0  0  0  0  0  2  0  0  0  0  0  0
  184.8760  179.7780  144.0900 C   0  0  0  0  0  1  0  0  0  0  0  0
  185.7670  179.2350  145.1860 C   0  0  2  0  0  3  0  0  0  0  0  0
  186.4370  177.9380  144.7130 C   0  0  0  0  0  2  0  0  0  0  0  0
  184.9540  179.0100  146.4580 C   0  0  0  0  0  2  0  0  0  0  0  0
  186.8110  176.9880  145.8610 C   0  0  1  0  0  3  0  0  0  0  0  0
  185.8370  178.5210  147.6150 C   0  0  0  0  0  2  0  0  0  0  0  0
  197.2820  171.3640  145.0480 C   0  0  0  0  0  2  0  0  0  0  0  0
  197.8100  168.5400  144.7830 C   0  0  0  0  0  1  0  0  0  0  0  0
  197.3330  168.3460  147.2990 C   0  0  0  0  0  1  0  0  0  0  0  0
  197.4400  169.1940  146.0790 C   0  0  0  0  0  0  0  0  0  0  0  0
  197.1990  170.4570  146.1690 N   0  0  0  0  0  0  0  0  0  0  0  0
  2 10  2  0  0  0  0
  2  5  1  0  0  0  0
  4  6  2  0  0  0  0
  4  1  1  0  0  0  0
  5 13  2  0  0  0  0
  6 12  1  0  0  0  0
  7 40  1  0  0  0  0
  7  1  2  0  0  0  0
  8 10  1  0  0  0  0
  8 11  1  0  0  0  0
  9 11  2  0  0  0  0
  9  7  1  0  0  0  0
 10  6  1  0  0  0  0
 11  4  1  0  0  0  0
 12  3  2  0  0  0  0
 13 31  1  0  0  0  0
 13  3  1  0  0  0  0
 14 24  1  0  0  0  0
 14 20  1  0  0  0  0
 15 22  1  0  0  0  0
 15 17  1  0  0  0  0
 16 19  1  0  0  0  0
 17 23  1  0  0  0  0
 18 14  2  0  0  0  0
 19  2  1  0  0  0  0
 20 15  2  0  0  0  0
 21 16  2  0  0  0  0
 22 25  1  1  0  0  0
 22 21  1  0  0  0  0
 23 19  2  0  0  0  0
 24 27  1  6  0  0  0
 24 25  1  0  0  0  0
 26 27  2  0  0  0  0
 27 28  1  0  0  0  0
 29 30  2  0  0  0  0
 30 28  1  0  0  0  0
 31 32  3  0  0  0  0
 33 39  1  0  0  0  0
 35 34  1  6  0  0  0
 35 37  1  0  0  0  0
 36 35  1  0  0  0  0
 36 38  1  0  0  0  0
 37 39  1  0  0  0  0
 38 32  1  6  0  0  0
 38 33  1  0  0  0  0
 40 44  1  0  0  0  0
 41 43  1  0  0  0  0
 43 44  2  0  0  0  0
 43 42  1  0  0  0  0
M  END
>  <MODEL>
1

>  <REMARK>
 VINA RESULT:      -7.0      0.000      0.000
  Name = 
  8 active torsions:
  status: ('A' for Active; 'I' for Inactive)
    1  A    between atoms: C_3  and  C_22
    2  A    between atoms: O_4  and  C_30
    3  A    between atoms: O_4  and  C_39
    4  A    between atoms: C_10  and  C_41
    5  A    between atoms: C_11  and  C_24
    6  A    between atoms: C_11  and  N_43
    7  A    between atoms: C_30  and  C_38
    8  A    between atoms: C_34  and  C_42
                            x       y       z     vdW  Elec       q    Type
                         _______ _______ _______ _____ _____    ______ ____

>  <TORSDO>
F 8

$$$$
=
 OpenBabel11042418483D

 44 49  0  0  1  0  0  0  0  0999 V2000
  190.0260  177.2310  146.2360 N   0  0  0  0  0  0  0  0  0  0  0  0
  187.3820  175.9220  142.3600 C   0  0  0  0  0  0  0  0  0  0  0  0
  186.0530  178.1260  144.2300 C   0  0  0  0  0  3  0  0  0  0  0  0
  189.4120  176.7660  145.1450 C   0  0  0  0  0  0  0  0  0  0  0  0
  186.1640  176.6040  142.2540 C   0  0  0  0  0  3  0  0  0  0  0  0
  188.2300  176.9830  144.4930 C   0  0  0  0  0  0  0  0  0  0  0  0
  191.1940  176.5200  146.2010 C   0  0  0  0  0  0  0  0  0  0  0  0
  189.4850  175.4630  143.4160 O   0  0  0  0  0  0  0  0  0  0  0  0
  191.3100  175.6450  145.0980 C   0  0  0  0  0  3  0  0  0  0  0  0
  188.3180  176.1160  143.3850 C   0  0  0  0  0  0  0  0  0  0  0  0
  190.1100  175.8790  144.4850 C   0  0  0  0  0  0  0  0  0  0  0  0
  187.2460  177.8710  144.8840 C   0  0  0  0  0  3  0  0  0  0  0  0
  185.5600  177.5730  143.0540 C   0  0  0  0  0  0  0  0  0  0  0  0
  191.3720  172.7910  137.9140 C   0  0  0  0  0  0  0  0  0  0  0  0
  189.3140  173.6350  139.0330 C   0  0  0  0  0  0  0  0  0  0  0  0
  187.6720  173.4910  141.6360 C   0  0  0  0  0  3  0  0  0  0  0  0
  188.0790  174.4590  138.8770 C   0  0  0  0  0  2  0  0  0  0  0  0
  192.2610  172.9350  137.0330 O   0  0  0  0  0  0  0  0  0  0  0  0
  187.6810  174.9340  141.2940 C   0  0  0  0  0  0  0  0  0  0  0  0
  190.3300  173.7600  138.0320 N   0  0  0  0  0  0  0  0  0  0  0  0
  188.4300  172.5370  141.0850 C   0  0  0  0  0  3  0  0  0  0  0  0
  189.4340  172.7180  140.0160 C   0  0  2  0  0  3  0  0  0  0  0  0
  187.8800  175.3680  140.0430 C   0  0  0  0  0  3  0  0  0  0  0  0
  191.3190  171.5610  138.7760 C   0  0  2  0  0  3  0  0  0  0  0  0
  190.6840  171.8870  140.1310 C   0  0  0  0  0  2  0  0  0  0  0  0
  193.1220  170.1320  138.1190 O   0  0  0  0  0  0  0  0  0  0  0  0
  192.6690  170.9440  138.9730 C   0  0  0  0  0  0  0  0  0  0  0  0
  193.4010  171.2740  140.1210 O   0  0  0  0  0  0  0  0  0  0  0  0
  194.6200  173.0880  139.3210 O   0  0  0  0  0  0  0  0  0  0  0  0
  194.4960  172.1460  140.1480 C   0  0  0  0  0  3  0  0  0  0  0  0
  184.2760  178.0440  142.6170 C   0  0  0  0  0  0  0  0  0  0  0  0
  183.1960  178.4380  142.2540 C   0  0  0  0  0  0  0  0  0  0  0  0
  181.3760  178.0740  140.6530 C   0  0  0  0  0  2  0  0  0  0  0  0
  178.5160  179.2810  143.6040 C   0  0  0  0  0  1  0  0  0  0  0  0
  179.4440  178.6670  142.5780 C   0  0  2  0  0  3  0  0  0  0  0  0
  180.9020  178.8930  142.9990 C   0  0  0  0  0  2  0  0  0  0  0  0
  179.1640  179.2580  141.2000 C   0  0  0  0  0  2  0  0  0  0  0  0
  181.8830  178.9180  141.8180 C   0  0  1  0  0  3  0  0  0  0  0  0
  180.0410  178.6120  140.1190 C   0  0  0  0  0  2  0  0  0  0  0  0
  192.2700  176.7030  147.2190 C   0  0  0  0  0  2  0  0  0  0  0  0
  194.6330  177.4160  145.7260 C   0  0  0  0  0  1  0  0  0  0  0  0
  195.4640  175.0230  146.1470 C   0  0  0  0  0  1  0  0  0  0  0  0
  194.4130  176.0630  146.3290 C   0  0  0  0  0  0  0  0  0  0  0  0
  193.3420  175.7660  146.9830 N   0  0  0  0  0  0  0  0  0  0  0  0
  2 10  2  0  0  0  0
  3 12  2  0  0  0  0
  4  1  1  0  0  0  0
  5  2  1  0  0  0  0
  5 13  2  0  0  0  0
  6 12  1  0  0  0  0
  6  4  2  0  0  0  0
  7  1  2  0  0  0  0
  7 40  1  0  0  0  0
  8 11  1  0  0  0  0
  9  7  1  0  0  0  0
 10  8  1  0  0  0  0
 10  6  1  0  0  0  0
 11  9  2  0  0  0  0
 11  4  1  0  0  0  0
 13  3  1  0  0  0  0
 14 20  1  0  0  0  0
 14 24  1  0  0  0  0
 15 22  1  0  0  0  0
 17 15  1  0  0  0  0
 17 23  1  0  0  0  0
 18 14  2  0  0  0  0
 19 16  1  0  0  0  0
 19  2  1  0  0  0  0
 20 15  2  0  0  0  0
 21 16  2  0  0  0  0
 22 25  1  1  0  0  0
 22 21  1  0  0  0  0
 23 19  2  0  0  0  0
 24 27  1  1  0  0  0
 24 25  1  0  0  0  0
 26 27  2  0  0  0  0
 27 28  1  0  0  0  0
 28 30  1  0  0  0  0
 29 30  2  0  0  0  0
 31 13  1  0  0  0  0
 32 31  3  0  0  0  0
 33 38  1  0  0  0  0
 35 36  1  0  0  0  0
 35 34  1  1  0  0  0
 37 35  1  0  0  0  0
 38 32  1  1  0  0  0
 38 36  1  0  0  0  0
 39 33  1  0  0  0  0
 39 37  1  0  0  0  0
 41 43  1  0  0  0  0
 42 43  1  0  0  0  0
 43 44  2  0  0  0  0
 44 40  1  0  0  0  0
M  END
>  <MODEL>
2

>  <REMARK>
 VINA RESULT:      -6.8      3.305      5.577
  Name = 
  8 active torsions:
  status: ('A' for Active; 'I' for Inactive)
    1  A    between atoms: C_3  and  C_22
    2  A    between atoms: O_4  and  C_30
    3  A    between atoms: O_4  and  C_39
    4  A    between atoms: C_10  and  C_41
    5  A    between atoms: C_11  and  C_24
    6  A    between atoms: C_11  and  N_43
    7  A    between atoms: C_30  and  C_38
    8  A    between atoms: C_34  and  C_42
                            x       y       z     vdW  Elec       q    Type
                         _______ _______ _______ _____ _____    ______ ____

>  <TORSDO>
F 8

$$$$
=
 OpenBabel11042418483D

 44 49  0  0  1  0  0  0  0  0999 V2000
  194.9390  173.1550  145.6220 N   0  0  0  0  0  0  0  0  0  0  0  0
  191.1450  173.6310  142.6040 C   0  0  0  0  0  0  0  0  0  0  0  0
  191.0450  175.4530  145.2100 C   0  0  0  0  0  3  0  0  0  0  0  0
  193.9620  173.1700  144.7110 C   0  0  0  0  0  0  0  0  0  0  0  0
  190.2000  174.5710  143.0330 C   0  0  0  0  0  3  0  0  0  0  0  0
  192.7750  173.8230  144.5270 C   0  0  0  0  0  0  0  0  0  0  0  0
  195.7940  172.2400  145.0720 C   0  0  0  0  0  0  0  0  0  0  0  0
  193.2090  172.4300  142.8200 O   0  0  0  0  0  0  0  0  0  0  0  0
  195.3630  171.7110  143.8340 C   0  0  0  0  0  3  0  0  0  0  0  0
  192.3210  173.3090  143.2950 C   0  0  0  0  0  0  0  0  0  0  0  0
  194.1750  172.3730  143.6960 C   0  0  0  0  0  0  0  0  0  0  0  0
  192.2310  174.7610  145.3840 C   0  0  0  0  0  3  0  0  0  0  0  0
  190.1320  175.3820  144.1640 C   0  0  0  0  0  0  0  0  0  0  0  0
  192.7380  171.2250  136.5080 C   0  0  0  0  0  0  0  0  0  0  0  0
  191.3790  172.0690  138.4170 C   0  0  0  0  0  0  0  0  0  0  0  0
  190.5780  171.4900  141.3340 C   0  0  0  0  0  3  0  0  0  0  0  0
  190.4070  173.1070  138.8700 C   0  0  0  0  0  2  0  0  0  0  0  0
  193.3400  171.4520  135.4250 O   0  0  0  0  0  0  0  0  0  0  0  0
  190.8580  172.9460  141.3190 C   0  0  0  0  0  0  0  0  0  0  0  0
  192.0600  172.2890  137.1760 N   0  0  0  0  0  0  0  0  0  0  0  0
  190.8720  170.6110  140.3700 C   0  0  0  0  0  3  0  0  0  0  0  0
  191.5370  170.9060  139.0830 C   0  0  2  0  0  3  0  0  0  0  0  0
  190.7930  173.6720  140.1960 C   0  0  0  0  0  3  0  0  0  0  0  0
  192.6210  169.8320  137.0590 C   0  0  2  0  0  3  0  0  0  0  0  0
  192.5090  169.8700  138.5850 C   0  0  0  0  0  2  0  0  0  0  0  0
  193.6320  168.1660  135.6710 O   0  0  0  0  0  0  0  0  0  0  0  0
  193.7630  168.9580  136.6450 C   0  0  0  0  0  0  0  0  0  0  0  0
  194.9620  169.0260  137.3690 O   0  0  0  0  0  0  0  0  0  0  0  0
  197.2730  168.8010  137.5300 O   0  0  0  0  0  0  0  0  0  0  0  0
  196.2390  168.8810  136.8140 C   0  0  0  0  0  3  0  0  0  0  0  0
  188.9810  176.2340  144.2640 C   0  0  0  0  0  0  0  0  0  0  0  0
  188.0130  176.9490  144.3520 C   0  0  0  0  0  0  0  0  0  0  0  0
  185.7850  177.4090  143.4390 C   0  0  0  0  0  2  0  0  0  0  0  0
  184.4090  178.5560  147.3300 C   0  0  0  0  0  1  0  0  0  0  0  0
  184.7690  177.9900  145.9730 C   0  0  2  0  0  3  0  0  0  0  0  0
  186.2830  177.7560  145.8950 C   0  0  0  0  0  2  0  0  0  0  0  0
  184.2920  178.9310  144.8710 C   0  0  0  0  0  2  0  0  0  0  0  0
  186.8390  177.8160  144.4640 C   0  0  1  0  0  3  0  0  0  0  0  0
  184.5800  178.3590  143.4760 C   0  0  0  0  0  2  0  0  0  0  0  0
  197.0930  171.8790  145.7110 C   0  0  0  0  0  2  0  0  0  0  0  0
  196.6620  169.4520  147.2090 C   0  0  0  0  0  1  0  0  0  0  0  0
  197.8470  168.2130  145.2960 C   0  0  0  0  0  1  0  0  0  0  0  0
  197.3510  169.4910  145.8790 C   0  0  0  0  0  0  0  0  0  0  0  0
  197.5410  170.5920  145.2340 N   0  0  0  0  0  0  0  0  0  0  0  0
  2  5  1  0  0  0  0
  2 10  2  0  0  0  0
  3 12  2  0  0  0  0
  4  1  1  0  0  0  0
  5 13  2  0  0  0  0
  6  4  2  0  0  0  0
  6 12  1  0  0  0  0
  7  1  2  0  0  0  0
  7 40  1  0  0  0  0
  8 10  1  0  0  0  0
  8 11  1  0  0  0  0
  9  7  1  0  0  0  0
 10  6  1  0  0  0  0
 11  9  2  0  0  0  0
 11  4  1  0  0  0  0
 13 31  1  0  0  0  0
 13  3  1  0  0  0  0
 14 24  1  0  0  0  0
 14 20  1  0  0  0  0
 15 17  1  0  0  0  0
 15 22  1  0  0  0  0
 17 23  1  0  0  0  0
 18 14  2  0  0  0  0
 19 16  1  0  0  0  0
 19  2  1  0  0  0  0
 20 15  2  0  0  0  0
 21 16  2  0  0  0  0
 22 25  1  1  0  0  0
 22 21  1  0  0  0  0
 23 19  2  0  0  0  0
 24 27  1  1  0  0  0
 24 25  1  0  0  0  0
 26 27  2  0  0  0  0
 27 28  1  0  0  0  0
 30 28  1  0  0  0  0
 30 29  2  0  0  0  0
 31 32  3  0  0  0  0
 33 39  1  0  0  0  0
 33 38  1  0  0  0  0
 35 34  1  1  0  0  0
 36 35  1  0  0  0  0
 37 35  1  0  0  0  0
 38 32  1  1  0  0  0
 38 36  1  0  0  0  0
 39 37  1  0  0  0  0
 42 43  1  0  0  0  0
 43 41  1  0  0  0  0
 44 40  1  0  0  0  0
 44 43  2  0  0  0  0
M  END
>  <MODEL>
3

>  <REMARK>
 VINA RESULT:      -6.5      1.052      1.578
  Name = 
  8 active torsions:
  status: ('A' for Active; 'I' for Inactive)
    1  A    between atoms: C_3  and  C_22
    2  A    between atoms: O_4  and  C_30
    3  A    between atoms: O_4  and  C_39
    4  A    between atoms: C_10  and  C_41
    5  A    between atoms: C_11  and  C_24
    6  A    between atoms: C_11  and  N_43
    7  A    between atoms: C_30  and  C_38
    8  A    between atoms: C_34  and  C_42
                            x       y       z     vdW  Elec       q    Type
                         _______ _______ _______ _____ _____    ______ ____

>  <TORSDO>
F 8

$$$$
=
 OpenBabel11042418483D

 44 49  0  0  1  0  0  0  0  0999 V2000
  186.8210  177.2660  142.6580 N   0  0  0  0  0  0  0  0  0  0  0  0
  190.7420  174.4190  142.1560 C   0  0  0  0  0  0  0  0  0  0  0  0
  188.5630  174.1500  139.8540 C   0  0  0  0  0  3  0  0  0  0  0  0
  187.9420  176.5390  142.6600 C   0  0  0  0  0  0  0  0  0  0  0  0
  190.7190  173.6310  140.9990 C   0  0  0  0  0  3  0  0  0  0  0  0
  188.5210  175.5920  141.8620 C   0  0  0  0  0  0  0  0  0  0  0  0
  186.9860  178.0020  143.8000 C   0  0  0  0  0  0  0  0  0  0  0  0
  189.8240  176.0760  143.6260 O   0  0  0  0  0  0  0  0  0  0  0  0
  188.1950  177.7480  144.4860 C   0  0  0  0  0  3  0  0  0  0  0  0
  189.7320  175.3180  142.5290 C   0  0  0  0  0  0  0  0  0  0  0  0
  188.7320  176.7910  143.6700 C   0  0  0  0  0  0  0  0  0  0  0  0
  187.9870  175.0900  140.6910 C   0  0  0  0  0  3  0  0  0  0  0  0
  189.7830  173.4940  139.9760 C   0  0  0  0  0  0  0  0  0  0  0  0
  195.3260  170.9480  145.6810 C   0  0  0  0  0  0  0  0  0  0  0  0
  193.9020  172.8360  144.9020 C   0  0  0  0  0  0  0  0  0  0  0  0
  193.2670  174.6230  142.4740 C   0  0  0  0  0  3  0  0  0  0  0  0
  192.8800  173.8500  145.2970 C   0  0  0  0  0  2  0  0  0  0  0  0
  195.5170  169.9980  146.4860 O   0  0  0  0  0  0  0  0  0  0  0  0
  191.9350  174.2800  143.0280 C   0  0  0  0  0  0  0  0  0  0  0  0
  194.1580  171.7590  145.8100 N   0  0  0  0  0  2  0  0  0  0  0  0
  194.4350  174.0590  142.8000 C   0  0  0  0  0  3  0  0  0  0  0  0
  194.6450  172.9780  143.7850 C   0  0  0  0  0  0  0  0  0  0  0  0
  191.7670  173.9170  144.3050 C   0  0  0  0  0  3  0  0  0  0  0  0
  196.3560  171.3190  144.6520 C   0  0  2  0  0  3  0  0  0  0  0  0
  195.6840  171.9480  143.4280 C   0  0  0  0  0  2  0  0  0  0  0  0
  197.9410  169.5790  145.0800 O   0  0  0  0  0  0  0  0  0  0  0  0
  197.1950  170.1500  144.2370 C   0  0  0  0  0  0  0  0  0  0  0  0
  197.1440  169.7220  142.9040 O   0  0  0  0  0  0  0  0  0  0  0  0
  195.5770  168.9000  141.3910 O   0  0  0  0  0  0  0  0  0  0  0  0
  196.2890  168.7270  142.4170 C   0  0  0  0  0  3  0  0  0  0  0  0
  190.1130  172.5620  138.9350 C   0  0  0  0  0  0  0  0  0  0  0  0
  190.3920  171.7770  138.0640 C   0  0  0  0  0  0  0  0  0  0  0  0
  190.6360  171.4880  135.6420 C   0  0  0  0  0  2  0  0  0  0  0  0
  193.8700  168.7520  136.2770 C   0  0  0  0  0  1  0  0  0  0  0  0
  192.8680  169.8440  135.9730 C   0  0  2  0  0  3  0  0  0  0  0  0
  192.1350  170.2470  137.2590 C   0  0  0  0  0  2  0  0  0  0  0  0
  191.8920  169.3750  134.8980 C   0  0  0  0  0  2  0  0  0  0  0  0
  190.7310  170.8190  137.0100 C   0  0  1  0  0  3  0  0  0  0  0  0
  190.9000  170.4810  134.5130 C   0  0  0  0  0  2  0  0  0  0  0  0
  185.9890  179.0200  144.2420 C   0  0  0  0  0  2  0  0  0  0  0  0
  184.4800  177.9360  146.4490 C   0  0  0  0  0  1  0  0  0  0  0  0
  185.9390  179.3830  147.9900 C   0  0  0  0  0  1  0  0  0  0  0  0
  185.5920  178.9260  146.6160 C   0  0  0  0  0  0  0  0  0  0  0  0
  186.2450  179.4030  145.6110 N   0  0  0  0  0  0  0  0  0  0  0  0
  1  4  1  0  0  0  0
  1  7  2  0  0  0  0
  2 10  2  0  0  0  0
  2 19  1  0  0  0  0
  3 13  1  0  0  0  0
  3 12  2  0  0  0  0
  4 11  1  0  0  0  0
  5  2  1  0  0  0  0
  6 10  1  0  0  0  0
  6  4  2  0  0  0  0
  7 40  1  0  0  0  0
  7  9  1  0  0  0  0
  8 11  1  0  0  0  0
 10  8  1  0  0  0  0
 11  9  2  0  0  0  0
 12  6  1  0  0  0  0
 13  5  2  0  0  0  0
 14 20  1  0  0  0  0
 14 18  2  0  0  0  0
 15 17  1  0  0  0  0
 15 20  1  0  0  0  0
 16 21  2  0  0  0  0
 16 19  1  0  0  0  0
 19 23  2  0  0  0  0
 21 22  1  0  0  0  0
 22 15  2  0  0  0  0
 23 17  1  0  0  0  0
 24 27  1  6  0  0  0
 24 14  1  0  0  0  0
 25 22  1  0  0  0  0
 25 24  1  0  0  0  0
 27 26  2  0  0  0  0
 28 27  1  0  0  0  0
 29 30  2  0  0  0  0
 30 28  1  0  0  0  0
 31 13  1  0  0  0  0
 32 31  3  0  0  0  0
 33 38  1  0  0  0  0
 35 34  1  1  0  0  0
 35 36  1  0  0  0  0
 37 35  1  0  0  0  0
 38 36  1  0  0  0  0
 38 32  1  1  0  0  0
 39 37  1  0  0  0  0
 39 33  1  0  0  0  0
 40 44  1  0  0  0  0
 41 43  1  0  0  0  0
 43 42  1  0  0  0  0
 44 43  2  0  0  0  0
M  END
>  <MODEL>
4

>  <REMARK>
 VINA RESULT:      -6.2      3.060      9.978
  Name = 
  8 active torsions:
  status: ('A' for Active; 'I' for Inactive)
    1  A    between atoms: C_3  and  C_22
    2  A    between atoms: O_4  and  C_30
    3  A    between atoms: O_4  and  C_39
    4  A    between atoms: C_10  and  C_41
    5  A    between atoms: C_11  and  C_24
    6  A    between atoms: C_11  and  N_43
    7  A    between atoms: C_30  and  C_38
    8  A    between atoms: C_34  and  C_42
                            x       y       z     vdW  Elec       q    Type
                         _______ _______ _______ _____ _____    ______ ____

>  <TORSDO>
F 8

$$$$
=
 OpenBabel11042418483D

 44 49  0  0  1  0  0  0  0  0999 V2000
  194.8660  171.9200  144.7630 N   0  0  0  0  0  0  0  0  0  0  0  0
  190.6830  173.2710  142.6630 C   0  0  0  0  0  0  0  0  0  0  0  0
  191.1190  174.3330  145.6300 C   0  0  0  0  0  3  0  0  0  0  0  0
  193.7610  172.2000  144.0670 C   0  0  0  0  0  0  0  0  0  0  0  0
  189.8830  174.0840  143.4750 C   0  0  0  0  0  3  0  0  0  0  0  0
  192.6060  172.9060  144.2640 C   0  0  0  0  0  0  0  0  0  0  0  0
  195.5600  171.1660  143.8580 C   0  0  0  0  0  0  0  0  0  0  0  0
  192.6700  172.0090  142.2050 O   0  0  0  0  0  0  0  0  0  0  0  0
  194.9050  170.9970  142.6170 C   0  0  0  0  0  3  0  0  0  0  0  0
  191.9300  172.7500  143.0370 C   0  0  0  0  0  0  0  0  0  0  0  0
  193.7570  171.6990  142.8600 C   0  0  0  0  0  0  0  0  0  0  0  0
  192.2690  173.5920  145.4140 C   0  0  0  0  0  3  0  0  0  0  0  0
  190.0490  174.5650  144.7720 C   0  0  0  0  0  0  0  0  0  0  0  0
  188.1770  174.8480  136.6020 C   0  0  0  0  0  0  0  0  0  0  0  0
  188.7360  173.5320  138.6420 C   0  0  0  0  0  0  0  0  0  0  0  0
  191.0740  172.3980  140.2960 C   0  0  0  0  0  3  0  0  0  0  0  0
  188.1880  172.7500  139.7890 C   0  0  0  0  0  2  0  0  0  0  0  0
  187.3610  175.5690  135.9710 O   0  0  0  0  0  0  0  0  0  0  0  0
  190.1530  172.9610  141.3120 C   0  0  0  0  0  0  0  0  0  0  0  0
  187.8240  174.3410  137.8900 N   0  0  0  0  0  0  0  0  0  0  0  0
  191.0170  172.5910  138.9730 C   0  0  0  0  0  3  0  0  0  0  0  0
  190.0190  173.4030  138.2450 C   0  0  2  0  0  3  0  0  0  0  0  0
  188.8470  173.1310  141.0720 C   0  0  0  0  0  3  0  0  0  0  0  0
  189.4770  174.4140  135.9850 C   0  0  2  0  0  3  0  0  0  0  0  0
  190.5340  174.1890  137.0690 C   0  0  0  0  0  2  0  0  0  0  0  0
  189.2130  176.2930  134.5260 O   0  0  0  0  0  0  0  0  0  0  0  0
  189.9790  175.3920  134.9680 C   0  0  0  0  0  0  0  0  0  0  0  0
  191.2990  175.2740  134.5130 O   0  0  0  0  0  0  0  0  0  0  0  0
  192.2130  177.1880  135.4730 O   0  0  0  0  0  0  0  0  0  0  0  0
  192.2670  176.2820  134.5980 C   0  0  0  0  0  3  0  0  0  0  0  0
  188.9880  175.3850  145.2840 C   0  0  0  0  0  0  0  0  0  0  0  0
  188.0990  176.0750  145.7180 C   0  0  0  0  0  0  0  0  0  0  0  0
  187.5680  177.8480  147.3250 C   0  0  0  0  0  2  0  0  0  0  0  0
  184.6500  179.4440  144.6250 C   0  0  0  0  0  1  0  0  0  0  0  0
  185.7870  179.0520  145.5430 C   0  0  2  0  0  3  0  0  0  0  0  0
  186.3650  177.7000  145.1040 C   0  0  0  0  0  2  0  0  0  0  0  0
  185.3000  179.0060  146.9890 C   0  0  0  0  0  2  0  0  0  0  0  0
  187.0230  176.9150  146.2480 C   0  0  1  0  0  3  0  0  0  0  0  0
  186.4420  178.6770  147.9600 C   0  0  0  0  0  2  0  0  0  0  0  0
  196.9170  170.6180  144.1510 C   0  0  0  0  0  2  0  0  0  0  0  0
  195.9200  168.2130  145.3940 C   0  0  0  0  0  1  0  0  0  0  0  0
  196.8310  169.1360  147.6110 C   0  0  0  0  0  1  0  0  0  0  0  0
  196.6300  169.2980  146.1440 C   0  0  0  0  0  0  0  0  0  0  0  0
  197.0570  170.3690  145.5660 N   0  0  0  0  0  0  0  0  0  0  0  0
  2 10  2  0  0  0  0
  2  5  1  0  0  0  0
  4  6  2  0  0  0  0
  4  1  1  0  0  0  0
  5 13  2  0  0  0  0
  6 12  1  0  0  0  0
  7 40  1  0  0  0  0
  7  1  2  0  0  0  0
  8 11  1  0  0  0  0
  8 10  1  0  0  0  0
  9 11  2  0  0  0  0
  9  7  1  0  0  0  0
 10  6  1  0  0  0  0
 11  4  1  0  0  0  0
 12  3  2  0  0  0  0
 13 31  1  0  0  0  0
 13  3  1  0  0  0  0
 14 20  1  0  0  0  0
 15 17  1  0  0  0  0
 16 19  1  0  0  0  0
 17 23  1  0  0  0  0
 18 14  2  0  0  0  0
 19  2  1  0  0  0  0
 20 15  2  0  0  0  0
 21 16  2  0  0  0  0
 22 25  1  1  0  0  0
 22 15  1  0  0  0  0
 22 21  1  0  0  0  0
 23 19  2  0  0  0  0
 24 27  1  6  0  0  0
 24 14  1  0  0  0  0
 24 25  1  0  0  0  0
 26 27  2  0  0  0  0
 28 30  1  0  0  0  0
 28 27  1  0  0  0  0
 30 29  2  0  0  0  0
 31 32  3  0  0  0  0
 33 39  1  0  0  0  0
 35 34  1  6  0  0  0
 35 37  1  0  0  0  0
 36 35  1  0  0  0  0
 36 38  1  0  0  0  0
 37 39  1  0  0  0  0
 38 32  1  6  0  0  0
 38 33  1  0  0  0  0
 40 44  1  0  0  0  0
 41 43  1  0  0  0  0
 43 42  1  0  0  0  0
 44 43  2  0  0  0  0
M  END
>  <MODEL>
5

>  <REMARK>
 VINA RESULT:      -6.0      2.367      3.030
  Name = 
  8 active torsions:
  status: ('A' for Active; 'I' for Inactive)
    1  A    between atoms: C_3  and  C_22
    2  A    between atoms: O_4  and  C_30
    3  A    between atoms: O_4  and  C_39
    4  A    between atoms: C_10  and  C_41
    5  A    between atoms: C_11  and  C_24
    6  A    between atoms: C_11  and  N_43
    7  A    between atoms: C_30  and  C_38
    8  A    between atoms: C_34  and  C_42
                            x       y       z     vdW  Elec       q    Type
                         _______ _______ _______ _____ _____    ______ ____

>  <TORSDO>
F 8

$$$$
=
 OpenBabel11042418483D

 44 49  0  0  1  0  0  0  0  0999 V2000
  186.4590  176.8440  139.6740 N   0  0  0  0  0  0  0  0  0  0  0  0
  189.9490  173.7850  141.1530 C   0  0  0  0  0  0  0  0  0  0  0  0
  189.0090  173.4170  138.1370 C   0  0  0  0  0  3  0  0  0  0  0  0
  187.3990  176.0690  140.2210 C   0  0  0  0  0  0  0  0  0  0  0  0
  190.3800  172.9000  140.1570 C   0  0  0  0  0  3  0  0  0  0  0  0
  188.1940  175.0290  139.8250 C   0  0  0  0  0  0  0  0  0  0  0  0
  186.1570  177.6680  140.7230 C   0  0  0  0  0  0  0  0  0  0  0  0
  188.6090  175.6050  141.9560 O   0  0  0  0  0  0  0  0  0  0  0  0
  186.9090  177.4190  141.8940 C   0  0  0  0  0  3  0  0  0  0  0  0
  188.9550  174.7580  140.9800 C   0  0  0  0  0  0  0  0  0  0  0  0
  187.6740  176.3710  141.4630 C   0  0  0  0  0  0  0  0  0  0  0  0
  188.1980  174.4530  138.5690 C   0  0  0  0  0  3  0  0  0  0  0  0
  189.9900  172.7190  138.8320 C   0  0  0  0  0  0  0  0  0  0  0  0
  192.9230  176.2010  146.7040 C   0  0  0  0  0  0  0  0  0  0  0  0
  192.2410  174.6190  144.9060 C   0  0  0  0  0  0  0  0  0  0  0  0
  189.8140  173.2080  143.6360 C   0  0  0  0  0  3  0  0  0  0  0  0
  192.7170  173.7160  143.8170 C   0  0  0  0  0  2  0  0  0  0  0  0
  193.7600  177.0240  147.1610 O   0  0  0  0  0  0  0  0  0  0  0  0
  190.6140  173.6670  142.4750 C   0  0  0  0  0  0  0  0  0  0  0  0
  193.1800  175.5470  145.4610 N   0  0  0  0  0  2  0  0  0  0  0  0
  189.9840  173.5690  144.9130 C   0  0  0  0  0  3  0  0  0  0  0  0
  191.0060  174.5000  145.4360 C   0  0  0  0  0  0  0  0  0  0  0  0
  191.9270  173.9090  142.5660 C   0  0  0  0  0  3  0  0  0  0  0  0
  191.7050  175.8070  147.4920 C   0  0  2  0  0  3  0  0  0  0  0  0
  190.5650  175.4120  146.5500 C   0  0  0  0  0  2  0  0  0  0  0  0
  190.5380  177.8350  147.9930 O   0  0  0  0  0  0  0  0  0  0  0  0
  191.2550  176.8890  148.4240 C   0  0  0  0  0  0  0  0  0  0  0  0
  191.6570  176.8360  149.7650 O   0  0  0  0  0  0  0  0  0  0  0  0
  191.6060  177.7260  151.9160 O   0  0  0  0  0  0  0  0  0  0  0  0
  191.5710  177.9020  150.6680 C   0  0  0  0  0  3  0  0  0  0  0  0
  190.6720  171.6850  138.1060 C   0  0  0  0  0  0  0  0  0  0  0  0
  191.2460  170.8150  137.5010 C   0  0  0  0  0  0  0  0  0  0  0  0
  191.3250  169.5780  135.3860 C   0  0  0  0  0  2  0  0  0  0  0  0
  195.5890  169.2930  135.6930 C   0  0  0  0  0  1  0  0  0  0  0  0
  194.1160  169.5170  135.4240 C   0  0  2  0  0  3  0  0  0  0  0  0
  193.4410  170.0840  136.6790 C   0  0  0  0  0  2  0  0  0  0  0  0
  193.4620  168.2120  134.9790 C   0  0  0  0  0  2  0  0  0  0  0  0
  191.9430  169.7550  136.7690 C   0  0  1  0  0  3  0  0  0  0  0  0
  191.9800  168.4120  134.6310 C   0  0  0  0  0  2  0  0  0  0  0  0
  185.1530  178.7660  140.6110 C   0  0  0  0  0  2  0  0  0  0  0  0
  182.8030  178.6760  142.2820 C   0  0  0  0  0  1  0  0  0  0  0  0
  181.5740  177.6450  140.2750 C   0  0  0  0  0  1  0  0  0  0  0  0
  182.8260  178.2000  140.8610 C   0  0  0  0  0  0  0  0  0  0  0  0
  183.8940  178.2420  140.1390 N   0  0  0  0  0  0  0  0  0  0  0  0
  1  4  1  0  0  0  0
  1  7  2  0  0  0  0
  2 19  1  0  0  0  0
  3 12  2  0  0  0  0
  3 13  1  0  0  0  0
  4 11  1  0  0  0  0
  5  2  1  0  0  0  0
  6  4  2  0  0  0  0
  6 10  1  0  0  0  0
  7  9  1  0  0  0  0
 10  2  2  0  0  0  0
 10  8  1  0  0  0  0
 11  9  2  0  0  0  0
 11  8  1  0  0  0  0
 12  6  1  0  0  0  0
 13  5  2  0  0  0  0
 14 18  2  0  0  0  0
 14 24  1  0  0  0  0
 15 22  2  0  0  0  0
 15 20  1  0  0  0  0
 16 21  2  0  0  0  0
 17 15  1  0  0  0  0
 19 23  2  0  0  0  0
 19 16  1  0  0  0  0
 20 14  1  0  0  0  0
 21 22  1  0  0  0  0
 22 25  1  0  0  0  0
 23 17  1  0  0  0  0
 24 27  1  6  0  0  0
 25 24  1  0  0  0  0
 26 27  2  0  0  0  0
 27 28  1  0  0  0  0
 28 30  1  0  0  0  0
 30 29  2  0  0  0  0
 31 13  1  0  0  0  0
 32 31  3  0  0  0  0
 33 38  1  0  0  0  0
 35 34  1  1  0  0  0
 35 36  1  0  0  0  0
 36 38  1  0  0  0  0
 37 35  1  0  0  0  0
 38 32  1  6  0  0  0
 39 37  1  0  0  0  0
 39 33  1  0  0  0  0
 40  7  1  0  0  0  0
 42 43  1  0  0  0  0
 43 41  1  0  0  0  0
 44 40  1  0  0  0  0
 44 43  2  0  0  0  0
M  END
>  <MODEL>
6

>  <REMARK>
 VINA RESULT:      -5.9      4.544     12.033
  Name = 
  8 active torsions:
  status: ('A' for Active; 'I' for Inactive)
    1  A    between atoms: C_3  and  C_22
    2  A    between atoms: O_4  and  C_30
    3  A    between atoms: O_4  and  C_39
    4  A    between atoms: C_10  and  C_41
    5  A    between atoms: C_11  and  C_24
    6  A    between atoms: C_11  and  N_43
    7  A    between atoms: C_30  and  C_38
    8  A    between atoms: C_34  and  C_42
                            x       y       z     vdW  Elec       q    Type
                         _______ _______ _______ _____ _____    ______ ____

>  <TORSDO>
F 8

$$$$
=
 OpenBabel11042418483D

 44 49  0  0  1  0  0  0  0  0999 V2000
  186.5470  176.8280  139.8780 N   0  0  0  0  0  0  0  0  0  0  0  0
  189.9020  173.5800  141.2660 C   0  0  0  0  0  0  0  0  0  0  0  0
  188.9900  173.3780  138.2250 C   0  0  0  0  0  3  0  0  0  0  0  0
  187.4500  175.9960  140.4030 C   0  0  0  0  0  0  0  0  0  0  0  0
  190.3130  172.7230  140.2380 C   0  0  0  0  0  3  0  0  0  0  0  0
  188.2120  174.9450  139.9720 C   0  0  0  0  0  0  0  0  0  0  0  0
  186.2610  177.6170  140.9590 C   0  0  0  0  0  0  0  0  0  0  0  0
  188.6190  175.4120  142.1310 O   0  0  0  0  0  0  0  0  0  0  0  0
  186.9880  177.2900  142.1260 C   0  0  0  0  0  3  0  0  0  0  0  0
  188.9470  174.5960  141.1230 C   0  0  0  0  0  0  0  0  0  0  0  0
  187.7200  176.2330  141.6600 C   0  0  0  0  0  0  0  0  0  0  0  0
  188.2130  174.4230  138.6920 C   0  0  0  0  0  3  0  0  0  0  0  0
  189.9350  172.6140  138.9010 C   0  0  0  0  0  0  0  0  0  0  0  0
  194.9090  171.7030  145.3770 C   0  0  0  0  0  0  0  0  0  0  0  0
  192.6260  172.2940  144.5760 C   0  0  0  0  0  0  0  0  0  0  0  0
  190.9320  174.5730  143.3800 C   0  0  0  0  0  3  0  0  0  0  0  0
  191.2180  171.8240  144.4200 C   0  0  0  0  0  2  0  0  0  0  0  0
  195.7730  170.8220  145.6280 O   0  0  0  0  0  0  0  0  0  0  0  0
  190.5430  173.3800  142.5890 C   0  0  0  0  0  0  0  0  0  0  0  0
  193.6250  171.3160  144.8870 N   0  0  0  0  0  2  0  0  0  0  0  0
  191.9690  174.6690  144.2200 C   0  0  0  0  0  3  0  0  0  0  0  0
  192.9440  173.6050  144.5400 C   0  0  0  0  0  0  0  0  0  0  0  0
  190.6880  172.1350  143.0600 C   0  0  0  0  0  3  0  0  0  0  0  0
  195.1600  173.1530  145.6850 C   0  0  2  0  0  3  0  0  0  0  0  0
  194.3710  174.0470  144.7240 C   0  0  0  0  0  2  0  0  0  0  0  0
  197.2850  173.5550  146.7080 O   0  0  0  0  0  0  0  0  0  0  0  0
  196.6150  173.5020  145.6390 C   0  0  0  0  0  0  0  0  0  0  0  0
  197.2030  173.7810  144.3980 O   0  0  0  0  0  0  0  0  0  0  0  0
  197.3370  172.1860  142.7080 O   0  0  0  0  0  0  0  0  0  0  0  0
  197.9010  172.8510  143.6180 C   0  0  0  0  0  3  0  0  0  0  0  0
  190.5890  171.5870  138.1400 C   0  0  0  0  0  0  0  0  0  0  0  0
  191.1410  170.7250  137.5030 C   0  0  0  0  0  0  0  0  0  0  0  0
  191.2590  169.6280  135.3150 C   0  0  0  0  0  2  0  0  0  0  0  0
  195.4780  169.0700  135.8040 C   0  0  0  0  0  1  0  0  0  0  0  0
  194.0370  169.3980  135.4810 C   0  0  2  0  0  3  0  0  0  0  0  0
  193.3300  169.9200  136.7390 C   0  0  0  0  0  2  0  0  0  0  0  0
  193.3340  168.1660  134.9170 C   0  0  0  0  0  2  0  0  0  0  0  0
  191.8140  169.6760  136.7350 C   0  0  1  0  0  3  0  0  0  0  0  0
  191.8860  168.4770  134.5140 C   0  0  0  0  0  2  0  0  0  0  0  0
  185.3000  178.7560  140.8820 C   0  0  0  0  0  2  0  0  0  0  0  0
  182.8950  178.5170  142.4560 C   0  0  0  0  0  1  0  0  0  0  0  0
  181.7180  177.7470  140.3060 C   0  0  0  0  0  1  0  0  0  0  0  0
  182.9580  178.2080  140.9920 C   0  0  0  0  0  0  0  0  0  0  0  0
  184.0500  178.3130  140.3130 N   0  0  0  0  0  0  0  0  0  0  0  0
  1  4  1  0  0  0  0
  1  7  2  0  0  0  0
  2 19  1  0  0  0  0
  3 12  2  0  0  0  0
  3 13  1  0  0  0  0
  4 11  1  0  0  0  0
  5  2  1  0  0  0  0
  6  4  2  0  0  0  0
  6 10  1  0  0  0  0
  7  9  1  0  0  0  0
 10  2  2  0  0  0  0
 10  8  1  0  0  0  0
 11  9  2  0  0  0  0
 11  8  1  0  0  0  0
 12  6  1  0  0  0  0
 13  5  2  0  0  0  0
 14 18  2  0  0  0  0
 14 24  1  0  0  0  0
 15 20  1  0  0  0  0
 16 21  2  0  0  0  0
 17 15  1  0  0  0  0
 19 23  2  0  0  0  0
 19 16  1  0  0  0  0
 20 14  1  0  0  0  0
 21 22  1  0  0  0  0
 22 15  2  0  0  0  0
 22 25  1  0  0  0  0
 23 17  1  0  0  0  0
 24 27  1  6  0  0  0
 25 24  1  0  0  0  0
 27 26  2  0  0  0  0
 28 27  1  0  0  0  0
 29 30  2  0  0  0  0
 30 28  1  0  0  0  0
 31 13  1  0  0  0  0
 32 31  3  0  0  0  0
 33 38  1  0  0  0  0
 35 34  1  1  0  0  0
 35 36  1  0  0  0  0
 37 35  1  0  0  0  0
 38 36  1  0  0  0  0
 38 32  1  1  0  0  0
 39 37  1  0  0  0  0
 39 33  1  0  0  0  0
 40  7  1  0  0  0  0
 42 43  1  0  0  0  0
 43 41  1  0  0  0  0
 44 40  1  0  0  0  0
 44 43  2  0  0  0  0
M  END
>  <MODEL>
7

>  <REMARK>
 VINA RESULT:      -5.8      3.696     11.010
  Name = 
  8 active torsions:
  status: ('A' for Active; 'I' for Inactive)
    1  A    between atoms: C_3  and  C_22
    2  A    between atoms: O_4  and  C_30
    3  A    between atoms: O_4  and  C_39
    4  A    between atoms: C_10  and  C_41
    5  A    between atoms: C_11  and  C_24
    6  A    between atoms: C_11  and  N_43
    7  A    between atoms: C_30  and  C_38
    8  A    between atoms: C_34  and  C_42
                            x       y       z     vdW  Elec       q    Type
                         _______ _______ _______ _____ _____    ______ ____

>  <TORSDO>
F 8

$$$$
=
 OpenBabel11042418483D

 44 49  0  0  1  0  0  0  0  0999 V2000
  183.1210  179.0890  142.8320 N   0  0  0  0  0  0  0  0  0  0  0  0
  187.0710  176.7160  141.2510 C   0  0  0  0  0  0  0  0  0  0  0  0
  187.4380  178.2910  143.9900 C   0  0  0  0  0  3  0  0  0  0  0  0
  184.1210  178.4030  142.2710 C   0  0  0  0  0  0  0  0  0  0  0  0
  188.1760  176.8340  142.1030 C   0  0  0  0  0  3  0  0  0  0  0  0
  185.4300  178.1280  142.5570 C   0  0  0  0  0  0  0  0  0  0  0  0
  182.1150  178.8650  141.9330 C   0  0  0  0  0  0  0  0  0  0  0  0
  184.7870  177.1290  140.6500 O   0  0  0  0  0  0  0  0  0  0  0  0
  182.4810  178.0410  140.8440 C   0  0  0  0  0  3  0  0  0  0  0  0
  185.8210  177.3070  141.4800 C   0  0  0  0  0  0  0  0  0  0  0  0
  183.7900  177.8030  141.1580 C   0  0  0  0  0  0  0  0  0  0  0  0
  186.1220  178.5750  143.6660 C   0  0  0  0  0  3  0  0  0  0  0  0
  188.3640  177.5120  143.3050 C   0  0  0  0  0  0  0  0  0  0  0  0
  190.2270  174.9160  135.5690 C   0  0  0  0  0  0  0  0  0  0  0  0
  188.4350  175.1690  137.2790 C   0  0  0  0  0  0  0  0  0  0  0  0
  187.6610  174.4760  140.1790 C   0  0  0  0  0  3  0  0  0  0  0  0
  187.0590  175.6790  137.5510 C   0  0  0  0  0  2  0  0  0  0  0  0
  190.7800  175.3230  134.5130 O   0  0  0  0  0  0  0  0  0  0  0  0
  187.2630  175.8960  140.0290 C   0  0  0  0  0  0  0  0  0  0  0  0
  189.0770  175.5960  136.0720 N   0  0  0  0  0  0  0  0  0  0  0  0
  188.4210  173.7670  139.3350 C   0  0  0  0  0  3  0  0  0  0  0  0
  189.0210  174.2500  138.0740 C   0  0  2  0  0  3  0  0  0  0  0  0
  187.0050  176.4400  138.8330 C   0  0  0  0  0  3  0  0  0  0  0  0
  190.6840  173.6590  136.2550 C   0  0  2  0  0  3  0  0  0  0  0  0
  190.4010  173.7390  137.7580 C   0  0  0  0  0  2  0  0  0  0  0  0
  192.4990  172.8040  134.9510 O   0  0  0  0  0  0  0  0  0  0  0  0
  192.1350  173.3750  136.0170 C   0  0  0  0  0  0  0  0  0  0  0  0
  193.0640  173.7380  137.0010 O   0  0  0  0  0  0  0  0  0  0  0  0
  193.2760  176.0270  136.6350 O   0  0  0  0  0  0  0  0  0  0  0  0
  193.7850  174.9380  137.0140 C   0  0  0  0  0  3  0  0  0  0  0  0
  189.6670  177.4020  143.8980 C   0  0  0  0  0  0  0  0  0  0  0  0
  190.7610  177.3040  144.3960 C   0  0  0  0  0  0  0  0  0  0  0  0
  192.0440  176.2200  146.1810 C   0  0  0  0  0  2  0  0  0  0  0  0
  195.4770  176.0380  143.6240 C   0  0  0  0  0  1  0  0  0  0  0  0
  194.2600  175.8980  144.5130 C   0  0  2  0  0  3  0  0  0  0  0  0
  193.1000  176.7200  143.9360 C   0  0  0  0  0  2  0  0  0  0  0  0
  194.5990  176.3340  145.9360 C   0  0  0  0  0  2  0  0  0  0  0  0
  192.0900  177.1820  144.9970 C   0  0  1  0  0  3  0  0  0  0  0  0
  193.4070  176.1420  146.8840 C   0  0  0  0  0  2  0  0  0  0  0  0
  180.7390  179.4080  142.1250 C   0  0  0  0  0  2  0  0  0  0  0  0
  178.6670  179.3990  140.1190 C   0  0  0  0  0  1  0  0  0  0  0  0
  177.8880  177.1640  141.1160 C   0  0  0  0  0  1  0  0  0  0  0  0
  178.8380  178.3110  141.1340 C   0  0  0  0  0  0  0  0  0  0  0  0
  179.7670  178.3440  142.0280 N   0  0  0  0  0  0  0  0  0  0  0  0
  2 10  2  0  0  0  0
  2  5  1  0  0  0  0
  4  6  2  0  0  0  0
  4  1  1  0  0  0  0
  5 13  2  0  0  0  0
  6 12  1  0  0  0  0
  7 40  1  0  0  0  0
  7  1  2  0  0  0  0
  8 11  1  0  0  0  0
  8 10  1  0  0  0  0
  9 11  2  0  0  0  0
  9  7  1  0  0  0  0
 10  6  1  0  0  0  0
 11  4  1  0  0  0  0
 12  3  2  0  0  0  0
 13 31  1  0  0  0  0
 13  3  1  0  0  0  0
 14 20  1  0  0  0  0
 14 24  1  0  0  0  0
 15 17  1  0  0  0  0
 15 22  1  0  0  0  0
 17 23  1  0  0  0  0
 18 14  2  0  0  0  0
 19 16  1  0  0  0  0
 19  2  1  0  0  0  0
 20 15  2  0  0  0  0
 21 16  2  0  0  0  0
 22 25  1  1  0  0  0
 22 21  1  0  0  0  0
 23 19  2  0  0  0  0
 24 27  1  1  0  0  0
 24 25  1  0  0  0  0
 26 27  2  0  0  0  0
 27 28  1  0  0  0  0
 28 30  1  0  0  0  0
 29 30  2  0  0  0  0
 31 32  3  0  0  0  0
 33 39  1  0  0  0  0
 35 34  1  6  0  0  0
 35 37  1  0  0  0  0
 36 35  1  0  0  0  0
 36 38  1  0  0  0  0
 37 39  1  0  0  0  0
 38 32  1  6  0  0  0
 38 33  1  0  0  0  0
 41 43  1  0  0  0  0
 42 43  1  0  0  0  0
 43 44  2  0  0  0  0
 44 40  1  0  0  0  0
M  END
>  <MODEL>
8

>  <REMARK>
 VINA RESULT:      -5.5      4.637      9.880
  Name = 
  8 active torsions:
  status: ('A' for Active; 'I' for Inactive)
    1  A    between atoms: C_3  and  C_22
    2  A    between atoms: O_4  and  C_30
    3  A    between atoms: O_4  and  C_39
    4  A    between atoms: C_10  and  C_41
    5  A    between atoms: C_11  and  C_24
    6  A    between atoms: C_11  and  N_43
    7  A    between atoms: C_30  and  C_38
    8  A    between atoms: C_34  and  C_42
                            x       y       z     vdW  Elec       q    Type
                         _______ _______ _______ _____ _____    ______ ____

>  <TORSDO>
F 8

$$$$
=
 OpenBabel11042418483D

 44 49  0  0  1  0  0  0  0  0999 V2000
  191.4570  176.6820  148.9370 N   0  0  0  0  0  0  0  0  0  0  0  0
  189.2210  176.4290  144.6170 C   0  0  0  0  0  0  0  0  0  0  0  0
  190.9790  173.8920  145.3870 C   0  0  0  0  0  3  0  0  0  0  0  0
  190.7960  176.7590  147.7790 C   0  0  0  0  0  0  0  0  0  0  0  0
  189.4530  175.2300  143.9330 C   0  0  0  0  0  3  0  0  0  0  0  0
  190.6140  175.9710  146.6760 C   0  0  0  0  0  0  0  0  0  0  0  0
  191.1210  177.8780  149.5090 C   0  0  0  0  0  0  0  0  0  0  0  0
  189.4650  177.8930  146.5000 O   0  0  0  0  0  0  0  0  0  0  0  0
  190.2540  178.6740  148.7260 C   0  0  0  0  0  3  0  0  0  0  0  0
  189.7520  176.7460  145.8740 C   0  0  0  0  0  0  0  0  0  0  0  0
  190.1110  177.8630  147.6350 C   0  0  0  0  0  0  0  0  0  0  0  0
  191.1660  174.7190  146.4820 C   0  0  0  0  0  3  0  0  0  0  0  0
  190.2140  174.1050  144.2460 C   0  0  0  0  0  0  0  0  0  0  0  0
  184.0680  178.2870  140.6810 C   0  0  0  0  0  0  0  0  0  0  0  0
  186.2120  178.3880  141.9450 C   0  0  0  0  0  0  0  0  0  0  0  0
  187.4310  178.2430  144.7700 C   0  0  0  0  0  3  0  0  0  0  0  0
  187.6850  178.6100  141.8520 C   0  0  0  0  0  2  0  0  0  0  0  0
  183.4600  178.0800  139.5980 O   0  0  0  0  0  0  0  0  0  0  0  0
  188.3400  177.4150  143.9420 C   0  0  0  0  0  0  0  0  0  0  0  0
  185.4910  178.1750  140.7260 N   0  0  0  0  0  0  0  0  0  0  0  0
  186.2280  178.7070  144.4130 C   0  0  0  0  0  3  0  0  0  0  0  0
  185.5520  178.4930  143.1170 C   0  0  2  0  0  3  0  0  0  0  0  0
  188.4410  177.5760  142.6160 C   0  0  0  0  0  3  0  0  0  0  0  0
  183.3400  178.7600  141.9070 C   0  0  2  0  0  3  0  0  0  0  0  0
  184.0620  178.2860  143.1720 C   0  0  0  0  0  2  0  0  0  0  0  0
  181.5590  177.2920  141.2750 O   0  0  0  0  0  0  0  0  0  0  0  0
  181.9110  178.3130  141.9290 C   0  0  0  0  0  0  0  0  0  0  0  0
  180.9830  179.0550  142.6720 O   0  0  0  0  0  0  0  0  0  0  0  0
  178.7790  178.9980  143.4180 O   0  0  0  0  0  0  0  0  0  0  0  0
  179.5990  179.0420  142.4620 C   0  0  0  0  0  3  0  0  0  0  0  0
  190.2140  173.0490  143.2730 C   0  0  0  0  0  0  0  0  0  0  0  0
  190.2160  172.1660  142.4520 C   0  0  0  0  0  0  0  0  0  0  0  0
  190.2170  171.6900  140.0470 C   0  0  0  0  0  2  0  0  0  0  0  0
  192.6490  168.2270  140.7180 C   0  0  0  0  0  1  0  0  0  0  0  0
  191.9540  169.5300  140.3860 C   0  0  2  0  0  3  0  0  0  0  0  0
  191.4370  170.1830  141.6740 C   0  0  0  0  0  2  0  0  0  0  0  0
  190.8210  169.2800  139.3940 C   0  0  0  0  0  2  0  0  0  0  0  0
  190.2210  171.0960  141.4520 C   0  0  1  0  0  3  0  0  0  0  0  0
  190.1330  170.5890  138.9800 C   0  0  0  0  0  2  0  0  0  0  0  0
  191.5950  178.2730  150.8670 C   0  0  0  0  0  2  0  0  0  0  0  0
  190.8230  177.9720  153.6300 C   0  0  0  0  0  1  0  0  0  0  0  0
  191.9840  175.6820  153.5710 C   0  0  0  0  0  1  0  0  0  0  0  0
  191.5910  176.9350  152.8690 C   0  0  0  0  0  0  0  0  0  0  0  0
  191.9330  177.0990  151.6360 N   0  0  0  0  0  0  0  0  0  0  0  0
  1  7  2  0  0  0  0
  2 10  2  0  0  0  0
  3 12  2  0  0  0  0
  4  1  1  0  0  0  0
  5 13  2  0  0  0  0
  5  2  1  0  0  0  0
  6  4  2  0  0  0  0
  7 40  1  0  0  0  0
  8 11  1  0  0  0  0
  9  7  1  0  0  0  0
 10  8  1  0  0  0  0
 10  6  1  0  0  0  0
 11  4  1  0  0  0  0
 11  9  2  0  0  0  0
 12  6  1  0  0  0  0
 13  3  1  0  0  0  0
 14 20  1  0  0  0  0
 14 24  1  0  0  0  0
 15 22  1  0  0  0  0
 17 15  1  0  0  0  0
 17 23  1  0  0  0  0
 18 14  2  0  0  0  0
 19  2  1  0  0  0  0
 19 16  1  0  0  0  0
 20 15  2  0  0  0  0
 21 16  2  0  0  0  0
 22 25  1  1  0  0  0
 22 21  1  0  0  0  0
 23 19  2  0  0  0  0
 24 27  1  6  0  0  0
 24 25  1  0  0  0  0
 26 27  2  0  0  0  0
 27 28  1  0  0  0  0
 30 28  1  0  0  0  0
 30 29  2  0  0  0  0
 31 13  1  0  0  0  0
 32 31  3  0  0  0  0
 33 38  1  0  0  0  0
 35 34  1  1  0  0  0
 35 36  1  0  0  0  0
 37 35  1  0  0  0  0
 38 36  1  0  0  0  0
 38 32  1  1  0  0  0
 39 37  1  0  0  0  0
 39 33  1  0  0  0  0
 40 44  1  0  0  0  0
 43 42  1  0  0  0  0
 43 41  1  0  0  0  0
 44 43  2  0  0  0  0
M  END
>  <MODEL>
9

>  <REMARK>
 VINA RESULT:      -5.2      5.638     10.425
  Name = 
  8 active torsions:
  status: ('A' for Active; 'I' for Inactive)
    1  A    between atoms: C_3  and  C_22
    2  A    between atoms: O_4  and  C_30
    3  A    between atoms: O_4  and  C_39
    4  A    between atoms: C_10  and  C_41
    5  A    between atoms: C_11  and  C_24
    6  A    between atoms: C_11  and  N_43
    7  A    between atoms: C_30  and  C_38
    8  A    between atoms: C_34  and  C_42
                            x       y       z     vdW  Elec       q    Type
                         _______ _______ _______ _____ _____    ______ ____

>  <TORSDO>
F 8

$$$$
