=
 OpenBabel11042418183D

 35 40  0  0  1  0  0  0  0  0999 V2000
  191.8170  174.9900  144.6210 N   0  0  0  0  0  0  0  0  0  0  0  0
  188.7620  176.0220  142.6930 C   0  0  0  0  0  0  0  0  0  0  0  0
  189.5970  176.5970  144.9890 C   0  0  0  0  0  0  0  0  0  0  0  0
  187.2270  177.0790  144.3540 C   0  0  2  0  0  3  0  0  0  0  0  0
  188.0220  174.3710  139.3950 C   0  0  0  0  0  3  0  0  0  0  0  0
  188.8860  175.3010  141.5650 C   0  0  0  0  0  0  0  0  0  0  0  0
  191.6580  175.6500  145.8010 C   0  0  0  0  0  0  0  0  0  0  0  0
  188.4250  177.5110  145.2020 C   0  0  0  0  0  2  0  0  0  0  0  0
  190.9140  175.0990  143.6040 C   0  0  0  0  0  0  0  0  0  0  0  0
  189.0700  173.5460  139.3530 C   0  0  0  0  0  0  0  0  0  0  0  0
  187.6130  176.9810  142.8770 C   0  0  0  0  0  2  0  0  0  0  0  0
  190.0950  173.5980  140.3560 N   0  0  0  0  0  0  0  0  0  0  0  0
  189.7800  175.9150  143.7710 C   0  0  0  0  0  0  0  0  0  0  0  0
  187.8800  175.4350  140.4480 C   0  0  0  0  0  2  0  0  0  0  0  0
  190.0480  174.3930  141.3860 C   0  0  0  0  0  0  0  0  0  0  0  0
  191.1070  174.3790  142.3680 N   0  0  0  0  0  0  0  0  0  0  0  0
  190.5480  176.4720  146.0000 C   0  0  0  0  0  3  0  0  0  0  0  0
  186.0980  177.9910  144.5400 N   0  0  0  0  0  0  0  0  0  0  0  0
  185.2840  176.7410  146.3440 O   0  0  0  0  0  0  0  0  0  0  0  0
  185.1470  177.7410  145.5870 C   0  0  0  0  0  0  0  0  0  0  0  0
  183.9850  178.6530  145.8080 C   0  0  0  0  0  1  0  0  0  0  0  0
  185.9410  179.1440  143.6580 C   0  0  0  0  0  1  0  0  0  0  0  0
  193.5570  174.2760  142.4870 C   0  0  0  0  0  2  0  0  0  0  0  0
  192.2770  173.5070  142.1930 C   0  0  0  0  0  3  0  0  0  0  0  0
  193.1580  174.0120  141.0580 C   0  0  0  0  0  2  0  0  0  0  0  0
  189.1630  172.5380  138.2600 C   0  0  0  0  0  2  0  0  0  0  0  0
  189.4540  171.2840  138.7990 O   0  0  0  0  0  1  0  0  0  0  0  0
  192.6780  175.5130  146.8800 C   0  0  0  0  0  2  0  0  0  0  0  0
  193.7270  176.6060  146.7630 C   0  0  0  0  0  2  0  0  0  0  0  0
  196.0790  176.2050  144.1680 C   0  0  0  0  0  0  0  0  0  0  0  0
  195.1650  176.9310  144.7650 O   0  0  0  0  0  0  0  0  0  0  0  0
  194.7800  176.2050  145.7870 C   0  0  0  0  0  0  0  0  0  0  0  0
  196.2690  175.0330  144.8010 N   0  0  0  0  0  0  0  0  0  0  0  0
  195.4380  175.0330  145.8350 N   0  0  0  0  0  0  0  0  0  0  0  0
  196.8200  176.6210  142.9480 C   0  0  0  0  0  1  0  0  0  0  0  0
  1  7  1  0  0  0  0
  2 11  1  0  0  0  0
  2 13  1  0  0  0  0
  3  8  1  0  0  0  0
  3 17  1  0  0  0  0
  4 18  1  6  0  0  0
  4  8  1  0  0  0  0
  5 14  1  0  0  0  0
  6  2  2  0  0  0  0
  7 17  2  0  0  0  0
  7 28  1  0  0  0  0
  9 13  1  0  0  0  0
  9  1  2  0  0  0  0
 10  5  2  0  0  0  0
 10 12  1  0  0  0  0
 11  4  1  0  0  0  0
 12 15  2  0  0  0  0
 13  3  2  0  0  0  0
 14  6  1  0  0  0  0
 15  6  1  0  0  0  0
 15 16  1  0  0  0  0
 16  9  1  0  0  0  0
 18 20  1  0  0  0  0
 20 21  1  0  0  0  0
 20 19  2  0  0  0  0
 22 18  1  0  0  0  0
 24 16  1  0  0  0  0
 24 23  1  0  0  0  0
 25 24  1  0  0  0  0
 25 23  1  0  0  0  0
 26 27  1  0  0  0  0
 26 10  1  0  0  0  0
 29 28  1  0  0  0  0
 30 31  1  0  0  0  0
 30 33  2  0  0  0  0
 31 32  1  0  0  0  0
 32 34  2  0  0  0  0
 32 29  1  0  0  0  0
 33 34  1  0  0  0  0
 35 30  1  0  0  0  0
M  END
>  <MODEL>
1

>  <REMARK>
 VINA RESULT:      -7.7      0.000      0.000
  Name = 
  6 active torsions:
  status: ('A' for Active; 'I' for Inactive)
    1  A    between atoms: N_1  and  C_10
    2  A    between atoms: C_3  and  C_8
    3  A    between atoms: C_3  and  C_24
    4  A    between atoms: C_9  and  CA_21
    5  A    between atoms: C_13  and  C_24
    6  A    between atoms: C_15  and  N_32
                            x       y       z     vdW  Elec       q    Type
                         _______ _______ _______ _____ _____    ______ ____

>  <TORSDO>
F 6

$$$$
=
 OpenBabel11042418183D

 35 40  0  0  1  0  0  0  0  0999 V2000
  188.3490  176.2030  144.7600 N   0  0  0  0  0  0  0  0  0  0  0  0
  191.0370  173.9840  143.3580 C   0  0  0  0  0  0  0  0  0  0  0  0
  190.7650  175.1330  145.5730 C   0  0  0  0  0  0  0  0  0  0  0  0
  192.9920  174.2220  144.8920 C   0  0  2  0  0  3  0  0  0  0  0  0
  190.8880  172.9730  139.7380 C   0  0  0  0  0  3  0  0  0  0  0  0
  190.6020  173.7750  142.1030 C   0  0  0  0  0  0  0  0  0  0  0  0
  188.8220  176.4900  146.0030 C   0  0  0  0  0  0  0  0  0  0  0  0
  192.0520  174.5320  146.0590 C   0  0  0  0  0  2  0  0  0  0  0  0
  189.0290  175.3950  143.8960 C   0  0  0  0  0  0  0  0  0  0  0  0
  189.7670  173.6160  139.4040 C   0  0  0  0  0  0  0  0  0  0  0  0
  192.3010  173.3320  143.8590 C   0  0  0  0  0  2  0  0  0  0  0  0
  188.9840  174.3020  140.3930 N   0  0  0  0  0  0  0  0  0  0  0  0
  190.2590  174.8380  144.2930 C   0  0  0  0  0  0  0  0  0  0  0  0
  191.3650  172.8770  141.1610 C   0  0  0  0  0  2  0  0  0  0  0  0
  189.3320  174.3950  141.6430 C   0  0  0  0  0  0  0  0  0  0  0  0
  188.5040  175.1180  142.5800 N   0  0  0  0  0  0  0  0  0  0  0  0
  190.0350  175.9510  146.4330 C   0  0  0  0  0  3  0  0  0  0  0  0
  194.2310  173.6060  145.3680 N   0  0  0  0  0  0  0  0  0  0  0  0
  195.3500  175.6630  145.3580 O   0  0  0  0  0  0  0  0  0  0  0  0
  195.3950  174.4220  145.5790 C   0  0  0  0  0  0  0  0  0  0  0  0
  196.6750  173.8270  146.0680 C   0  0  0  0  0  1  0  0  0  0  0  0
  194.2800  172.1690  145.6190 C   0  0  0  0  0  1  0  0  0  0  0  0
  187.4320  176.5230  140.8770 C   0  0  0  0  0  2  0  0  0  0  0  0
  187.2320  175.7130  142.1490 C   0  0  0  0  0  3  0  0  0  0  0  0
  187.3060  177.2330  142.2000 C   0  0  0  0  0  2  0  0  0  0  0  0
  189.3370  173.6420  137.9780 C   0  0  0  0  0  2  0  0  0  0  0  0
  188.0790  174.2380  137.8770 O   0  0  0  0  0  1  0  0  0  0  0  0
  188.0380  177.3670  146.9200 C   0  0  0  0  0  2  0  0  0  0  0  0
  186.6600  176.7770  147.1720 C   0  0  0  0  0  2  0  0  0  0  0  0
  184.4740  178.3860  144.9220 C   0  0  0  0  0  0  0  0  0  0  0  0
  185.4660  177.5560  145.1390 O   0  0  0  0  0  0  0  0  0  0  0  0
  185.6250  177.5610  146.4410 C   0  0  0  0  0  0  0  0  0  0  0  0
  184.0120  178.9120  146.0710 N   0  0  0  0  0  0  0  0  0  0  0  0
  184.7470  178.3850  147.0410 N   0  0  0  0  0  0  0  0  0  0  0  0
  183.9230  178.7040  143.5780 C   0  0  0  0  0  1  0  0  0  0  0  0
  1  7  1  0  0  0  0
  2 11  1  0  0  0  0
  2 13  1  0  0  0  0
  3  8  1  0  0  0  0
  3 17  1  0  0  0  0
  4 18  1  1  0  0  0
  4  8  1  0  0  0  0
  5 14  1  0  0  0  0
  6  2  2  0  0  0  0
  7 17  2  0  0  0  0
  7 28  1  0  0  0  0
  9 13  1  0  0  0  0
  9  1  2  0  0  0  0
 10  5  2  0  0  0  0
 10 12  1  0  0  0  0
 11  4  1  0  0  0  0
 12 15  2  0  0  0  0
 13  3  2  0  0  0  0
 14  6  1  0  0  0  0
 15  6  1  0  0  0  0
 15 16  1  0  0  0  0
 16  9  1  0  0  0  0
 18 20  1  0  0  0  0
 18 22  1  0  0  0  0
 19 20  2  0  0  0  0
 20 21  1  0  0  0  0
 23 24  1  0  0  0  0
 23 25  1  0  0  0  0
 24 25  1  0  0  0  0
 24 16  1  0  0  0  0
 26 10  1  0  0  0  0
 27 26  1  0  0  0  0
 28 29  1  0  0  0  0
 30 31  1  0  0  0  0
 30 33  2  0  0  0  0
 31 32  1  0  0  0  0
 32 34  2  0  0  0  0
 32 29  1  0  0  0  0
 33 34  1  0  0  0  0
 35 30  1  0  0  0  0
M  END
>  <MODEL>
2

>  <REMARK>
 VINA RESULT:      -7.5      1.891      7.161
  Name = 
  6 active torsions:
  status: ('A' for Active; 'I' for Inactive)
    1  A    between atoms: N_1  and  C_10
    2  A    between atoms: C_3  and  C_8
    3  A    between atoms: C_3  and  C_24
    4  A    between atoms: C_9  and  CA_21
    5  A    between atoms: C_13  and  C_24
    6  A    between atoms: C_15  and  N_32
                            x       y       z     vdW  Elec       q    Type
                         _______ _______ _______ _____ _____    ______ ____

>  <TORSDO>
F 6

$$$$
=
 OpenBabel11042418183D

 35 40  0  0  1  0  0  0  0  0999 V2000
  188.0720  176.8640  143.1520 N   0  0  0  0  0  0  0  0  0  0  0  0
  191.0110  174.7760  142.0960 C   0  0  0  0  0  0  0  0  0  0  0  0
  188.6690  174.9820  141.2180 C   0  0  0  0  0  0  0  0  0  0  0  0
  190.1010  173.0450  140.5460 C   0  0  2  0  0  3  0  0  0  0  0  0
  194.1130  174.7530  144.2240 C   0  0  0  0  0  3  0  0  0  0  0  0
  191.9280  175.0920  143.0280 C   0  0  0  0  0  0  0  0  0  0  0  0
  187.1100  176.4900  142.2660 C   0  0  0  0  0  0  0  0  0  0  0  0
  188.9760  173.9940  140.1280 C   0  0  0  0  0  2  0  0  0  0  0  0
  189.3330  176.3430  143.1150 C   0  0  0  0  0  0  0  0  0  0  0  0
  193.6990  175.5900  145.1780 C   0  0  0  0  0  0  0  0  0  0  0  0
  191.3430  173.8280  140.9720 C   0  0  0  0  0  2  0  0  0  0  0  0
  192.4330  176.2600  145.0770 N   0  0  0  0  0  0  0  0  0  0  0  0
  189.6570  175.3860  142.1360 C   0  0  0  0  0  0  0  0  0  0  0  0
  193.3190  174.5080  142.9720 C   0  0  0  0  0  2  0  0  0  0  0  0
  191.5930  176.0600  144.1030 C   0  0  0  0  0  0  0  0  0  0  0  0
  190.3280  176.7560  144.0760 N   0  0  0  0  0  0  0  0  0  0  0  0
  187.3970  175.5470  141.2780 C   0  0  0  0  0  3  0  0  0  0  0  0
  190.4180  172.1060  139.4690 N   0  0  0  0  0  0  0  0  0  0  0  0
  190.5920  170.3190  140.9720 O   0  0  0  0  0  0  0  0  0  0  0  0
  190.6570  170.7240  139.7780 C   0  0  0  0  0  0  0  0  0  0  0  0
  190.9800  169.7370  138.7040 C   0  0  0  0  0  1  0  0  0  0  0  0
  190.4960  172.5790  138.0900 C   0  0  0  0  0  1  0  0  0  0  0  0
  190.3310  177.1860  146.4930 C   0  0  0  0  0  2  0  0  0  0  0  0
  189.9920  177.7380  145.1160 C   0  0  0  0  0  3  0  0  0  0  0  0
  188.8980  177.2000  146.0280 C   0  0  0  0  0  2  0  0  0  0  0  0
  194.5540  175.8120  146.3770 C   0  0  0  0  0  2  0  0  0  0  0  0
  194.3490  177.1020  146.8700 O   0  0  0  0  0  1  0  0  0  0  0  0
  185.7500  177.0960  142.3340 C   0  0  0  0  0  2  0  0  0  0  0  0
  185.8400  178.5640  142.7180 C   0  0  0  0  0  2  0  0  0  0  0  0
  185.3390  179.0330  146.1750 C   0  0  0  0  0  0  0  0  0  0  0  0
  186.1540  178.9220  145.1540 O   0  0  0  0  0  0  0  0  0  0  0  0
  185.3680  178.7590  144.1180 C   0  0  0  0  0  0  0  0  0  0  0  0
  184.0530  178.9400  145.7910 N   0  0  0  0  0  0  0  0  0  0  0  0
  184.0720  178.7630  144.4770 N   0  0  0  0  0  0  0  0  0  0  0  0
  185.7760  179.2430  147.5810 C   0  0  0  0  0  1  0  0  0  0  0  0
  2 13  1  0  0  0  0
  2  6  2  0  0  0  0
  3 17  2  0  0  0  0
  3 13  1  0  0  0  0
  4 18  1  6  0  0  0
  4 11  1  0  0  0  0
  5 10  2  0  0  0  0
  6 15  1  0  0  0  0
  7 28  1  0  0  0  0
  7  1  2  0  0  0  0
  8  4  1  0  0  0  0
  8  3  1  0  0  0  0
  9  1  1  0  0  0  0
  9 16  1  0  0  0  0
 10 26  1  0  0  0  0
 11  2  1  0  0  0  0
 12 10  1  0  0  0  0
 13  9  2  0  0  0  0
 14  6  1  0  0  0  0
 14  5  1  0  0  0  0
 15 12  2  0  0  0  0
 16 15  1  0  0  0  0
 16 24  1  0  0  0  0
 17  7  1  0  0  0  0
 18 20  1  0  0  0  0
 20 19  2  0  0  0  0
 21 20  1  0  0  0  0
 22 18  1  0  0  0  0
 24 25  1  0  0  0  0
 24 23  1  0  0  0  0
 25 23  1  0  0  0  0
 26 27  1  0  0  0  0
 28 29  1  0  0  0  0
 29 32  1  0  0  0  0
 30 35  1  0  0  0  0
 31 30  1  0  0  0  0
 32 34  2  0  0  0  0
 32 31  1  0  0  0  0
 33 30  2  0  0  0  0
 34 33  1  0  0  0  0
M  END
>  <MODEL>
3

>  <REMARK>
 VINA RESULT:      -7.1      1.872      8.081
  Name = 
  6 active torsions:
  status: ('A' for Active; 'I' for Inactive)
    1  A    between atoms: N_1  and  C_10
    2  A    between atoms: C_3  and  C_8
    3  A    between atoms: C_3  and  C_24
    4  A    between atoms: C_9  and  CA_21
    5  A    between atoms: C_13  and  C_24
    6  A    between atoms: C_15  and  N_32
                            x       y       z     vdW  Elec       q    Type
                         _______ _______ _______ _____ _____    ______ ____

>  <TORSDO>
F 6

$$$$
=
 OpenBabel11042418183D

 35 40  0  0  1  0  0  0  0  0999 V2000
  188.8970  174.7500  141.4730 N   0  0  0  0  0  0  0  0  0  0  0  0
  190.6680  176.1100  144.4940 C   0  0  0  0  0  0  0  0  0  0  0  0
  191.4550  174.7740  142.5200 C   0  0  0  0  0  0  0  0  0  0  0  0
  192.8840  174.9640  144.5630 C   0  0  2  0  0  3  0  0  0  0  0  0
  188.6570  177.6950  147.2490 C   0  0  0  0  0  3  0  0  0  0  0  0
  189.6560  176.6610  145.1880 C   0  0  0  0  0  0  0  0  0  0  0  0
  189.8980  174.1170  140.8040 C   0  0  0  0  0  0  0  0  0  0  0  0
  192.8630  174.8070  143.0410 C   0  0  0  0  0  2  0  0  0  0  0  0
  189.1150  175.4070  142.6490 C   0  0  0  0  0  0  0  0  0  0  0  0
  187.4430  177.5420  146.7150 C   0  0  0  0  0  0  0  0  0  0  0  0
  192.0880  176.1960  144.9950 C   0  0  0  0  0  2  0  0  0  0  0  0
  187.2780  177.0130  145.3910 N   0  0  0  0  0  0  0  0  0  0  0  0
  190.4110  175.4330  143.1960 C   0  0  0  0  0  0  0  0  0  0  0  0
  189.9150  177.3850  146.4860 C   0  0  0  0  0  3  0  0  0  0  0  0
  188.2710  176.6000  144.6560 C   0  0  2  0  0  3  0  0  0  0  0  0
  188.0290  176.0620  143.3380 N   0  0  0  0  0  0  0  0  0  0  0  0
  191.1970  174.1270  141.3140 C   0  0  0  0  0  3  0  0  0  0  0  0
  194.2590  175.0280  145.0620 N   0  0  0  0  0  0  0  0  0  0  0  0
  194.3310  172.7120  145.3920 O   0  0  0  0  0  0  0  0  0  0  0  0
  194.9250  173.8220  145.4670 C   0  0  0  0  0  0  0  0  0  0  0  0
  196.3280  173.8510  145.9790 C   0  0  0  0  0  1  0  0  0  0  0  0
  194.9410  176.3160  145.1530 C   0  0  0  0  0  1  0  0  0  0  0  0
  186.6050  176.7950  141.4780 C   0  0  0  0  0  2  0  0  0  0  0  0
  186.6670  176.0210  142.7860 C   0  0  0  0  0  3  0  0  0  0  0  0
  186.0650  177.4180  142.7390 C   0  0  0  0  0  2  0  0  0  0  0  0
  186.2410  177.9020  147.5170 C   0  0  0  0  0  2  0  0  0  0  0  0
  185.7410  179.1330  147.0880 O   0  0  0  0  0  1  0  0  0  0  0  0
  189.6170  173.4240  139.5140 C   0  0  0  0  0  2  0  0  0  0  0  0
  188.2000  173.7170  139.0490 C   0  0  0  0  0  2  0  0  0  0  0  0
  187.7390  175.6660  136.1480 C   0  0  0  0  0  0  0  0  0  0  0  0
  187.3690  175.3380  137.3620 O   0  0  0  0  0  0  0  0  0  0  0  0
  188.2260  174.4180  137.7340 C   0  0  0  0  0  0  0  0  0  0  0  0
  188.8150  174.9610  135.7540 N   0  0  0  0  0  0  0  0  0  0  0  0
  189.1250  174.1630  136.7670 N   0  0  0  0  0  0  0  0  0  0  0  0
  187.0620  176.6910  135.3100 C   0  0  0  0  0  1  0  0  0  0  0  0
  1  9  1  0  0  0  0
  2 11  1  0  0  0  0
  2  6  2  0  0  0  0
  3  8  1  0  0  0  0
  3 13  1  0  0  0  0
  4 11  1  0  0  0  0
  4 18  1  6  0  0  0
  6 14  1  0  0  0  0
  7 17  1  0  0  0  0
  7  1  2  0  0  0  0
  8  4  1  0  0  0  0
  9 13  2  0  0  0  0
  9 16  1  0  0  0  0
 10  5  1  0  0  0  0
 10 26  1  0  0  0  0
 12 10  2  0  0  0  0
 13  2  1  0  0  0  0
 14  5  2  0  0  0  0
 15  6  1  1  0  0  0
 15 12  1  0  0  0  0
 16 15  1  0  0  0  0
 17  3  2  0  0  0  0
 18 22  1  0  0  0  0
 18 20  1  0  0  0  0
 19 20  2  0  0  0  0
 20 21  1  0  0  0  0
 23 25  1  0  0  0  0
 23 24  1  0  0  0  0
 24 16  1  0  0  0  0
 25 24  1  0  0  0  0
 27 26  1  0  0  0  0
 28  7  1  0  0  0  0
 29 28  1  0  0  0  0
 30 31  1  0  0  0  0
 31 32  1  0  0  0  0
 32 29  1  0  0  0  0
 33 30  2  0  0  0  0
 33 34  1  0  0  0  0
 34 32  2  0  0  0  0
 35 30  1  0  0  0  0
M  END
>  <MODEL>
4

>  <REMARK>
 VINA RESULT:      -7.1      2.344      8.280
  Name = 
  6 active torsions:
  status: ('A' for Active; 'I' for Inactive)
    1  A    between atoms: N_1  and  C_10
    2  A    between atoms: C_3  and  C_8
    3  A    between atoms: C_3  and  C_24
    4  A    between atoms: C_9  and  CA_21
    5  A    between atoms: C_13  and  C_24
    6  A    between atoms: C_15  and  N_32
                            x       y       z     vdW  Elec       q    Type
                         _______ _______ _______ _____ _____    ______ ____

>  <TORSDO>
F 6

$$$$
=
 OpenBabel11042418183D

 35 40  0  0  1  0  0  0  0  0999 V2000
  191.2460  175.1890  145.1880 N   0  0  0  0  0  0  0  0  0  0  0  0
  188.8750  175.1440  142.2740 C   0  0  0  0  0  0  0  0  0  0  0  0
  190.9810  173.8740  142.7700 C   0  0  0  0  0  0  0  0  0  0  0  0
  190.0540  173.9170  140.4480 C   0  0  2  0  0  3  0  0  0  0  0  0
  186.1120  177.6920  142.1090 C   0  0  0  0  0  3  0  0  0  0  0  0
  188.0020  176.1120  142.6080 C   0  0  0  0  0  0  0  0  0  0  0  0
  192.1810  174.2720  144.8210 C   0  0  0  0  0  0  0  0  0  0  0  0
  190.8420  173.1120  141.4840 C   0  0  0  0  0  2  0  0  0  0  0  0
  190.1700  175.4810  144.4000 C   0  0  0  0  0  0  0  0  0  0  0  0
  186.3810  178.3430  143.2430 C   0  0  0  0  0  0  0  0  0  0  0  0
  188.6970  174.3440  141.0090 C   0  0  0  0  0  2  0  0  0  0  0  0
  187.4080  177.8830  144.1340 N   0  0  0  0  0  0  0  0  0  0  0  0
  190.0160  174.8190  143.1680 C   0  0  0  0  0  0  0  0  0  0  0  0
  186.8170  176.4210  141.7260 C   0  0  0  0  0  2  0  0  0  0  0  0
  188.1730  176.8600  143.8790 C   0  0  0  0  0  0  0  0  0  0  0  0
  189.2000  176.4660  144.8140 N   0  0  0  0  0  0  0  0  0  0  0  0
  192.0580  173.5930  143.6080 C   0  0  0  0  0  3  0  0  0  0  0  0
  189.8930  173.1580  139.2080 N   0  0  0  0  0  0  0  0  0  0  0  0
  191.9420  173.9280  138.3770 O   0  0  0  0  0  0  0  0  0  0  0  0
  190.9120  173.2220  138.1970 C   0  0  0  0  0  0  0  0  0  0  0  0
  190.7810  172.4570  136.9210 C   0  0  0  0  0  1  0  0  0  0  0  0
  188.6970  172.3460  139.0020 C   0  0  0  0  0  1  0  0  0  0  0  0
  189.5120  176.1850  147.2330 C   0  0  0  0  0  2  0  0  0  0  0  0
  189.3640  177.1770  146.0900 C   0  0  0  0  0  3  0  0  0  0  0  0
  188.1950  176.8860  147.0210 C   0  0  0  0  0  2  0  0  0  0  0  0
  185.6190  179.5780  143.5750 C   0  0  0  0  0  2  0  0  0  0  0  0
  185.6560  179.7980  144.9530 O   0  0  0  0  0  1  0  0  0  0  0  0
  193.3320  173.9740  145.7200 C   0  0  0  0  0  2  0  0  0  0  0  0
  194.1350  175.2350  145.9950 C   0  0  0  0  0  2  0  0  0  0  0  0
  196.1060  176.0490  143.1890 C   0  0  0  0  0  0  0  0  0  0  0  0
  194.9820  176.1620  143.8530 O   0  0  0  0  0  0  0  0  0  0  0  0
  195.1580  175.4350  144.9310 C   0  0  0  0  0  0  0  0  0  0  0  0
  196.9830  175.2590  143.8350 N   0  0  0  0  0  0  0  0  0  0  0  0
  196.3760  174.8660  144.9470 N   0  0  0  0  0  0  0  0  0  0  0  0
  196.3850  176.7130  141.8880 C   0  0  0  0  0  1  0  0  0  0  0  0
  2  6  2  0  0  0  0
  2 13  1  0  0  0  0
  3 13  2  0  0  0  0
  3 17  1  0  0  0  0
  4 18  1  6  0  0  0
  4 11  1  0  0  0  0
  4  8  1  0  0  0  0
  5 10  2  0  0  0  0
  6 15  1  0  0  0  0
  7  1  1  0  0  0  0
  7 28  1  0  0  0  0
  8  3  1  0  0  0  0
  9 16  1  0  0  0  0
  9  1  2  0  0  0  0
 10 26  1  0  0  0  0
 10 12  1  0  0  0  0
 11  2  1  0  0  0  0
 13  9  1  0  0  0  0
 14  5  1  0  0  0  0
 14  6  1  0  0  0  0
 15 12  2  0  0  0  0
 15 16  1  0  0  0  0
 16 24  1  0  0  0  0
 17  7  2  0  0  0  0
 20 19  2  0  0  0  0
 20 18  1  0  0  0  0
 21 20  1  0  0  0  0
 22 18  1  0  0  0  0
 24 25  1  0  0  0  0
 24 23  1  0  0  0  0
 25 23  1  0  0  0  0
 26 27  1  0  0  0  0
 28 29  1  0  0  0  0
 30 33  2  0  0  0  0
 30 31  1  0  0  0  0
 31 32  1  0  0  0  0
 32 34  2  0  0  0  0
 32 29  1  0  0  0  0
 33 34  1  0  0  0  0
 35 30  1  0  0  0  0
M  END
>  <MODEL>
5

>  <REMARK>
 VINA RESULT:      -7.1      1.695      5.790
  Name = 
  6 active torsions:
  status: ('A' for Active; 'I' for Inactive)
    1  A    between atoms: N_1  and  C_10
    2  A    between atoms: C_3  and  C_8
    3  A    between atoms: C_3  and  C_24
    4  A    between atoms: C_9  and  CA_21
    5  A    between atoms: C_13  and  C_24
    6  A    between atoms: C_15  and  N_32
                            x       y       z     vdW  Elec       q    Type
                         _______ _______ _______ _____ _____    ______ ____

>  <TORSDO>
F 6

$$$$
=
 OpenBabel11042418183D

 35 40  0  0  1  0  0  0  0  0999 V2000
  187.8140  175.4060  141.1650 N   0  0  0  0  0  0  0  0  0  0  0  0
  189.4620  175.9670  144.4940 C   0  0  0  0  0  0  0  0  0  0  0  0
  190.1620  174.7010  142.4440 C   0  0  0  0  0  0  0  0  0  0  0  0
  191.3340  174.3210  144.6200 C   0  0  2  0  0  3  0  0  0  0  0  0
  187.5400  177.6870  147.2330 C   0  0  0  0  0  3  0  0  0  0  0  0
  188.5250  176.6680  145.1560 C   0  0  0  0  0  0  0  0  0  0  0  0
  188.7190  174.6250  140.5160 C   0  0  0  0  0  0  0  0  0  0  0  0
  191.4650  174.3370  143.0950 C   0  0  0  0  0  2  0  0  0  0  0  0
  188.0290  175.8610  142.4340 C   0  0  0  0  0  0  0  0  0  0  0  0
  186.3990  177.8880  146.5710 C   0  0  0  0  0  0  0  0  0  0  0  0
  190.7910  175.6550  145.1340 C   0  0  0  0  0  2  0  0  0  0  0  0
  186.2830  177.5600  145.1790 N   0  0  0  0  0  0  0  0  0  0  0  0
  189.2190  175.5160  143.1000 C   0  0  0  0  0  0  0  0  0  0  0  0
  188.7790  177.1660  146.5580 C   0  0  0  0  0  3  0  0  0  0  0  0
  187.2380  177.0010  144.4930 C   0  0  2  0  0  3  0  0  0  0  0  0
  187.0440  176.6800  143.0980 N   0  0  0  0  0  0  0  0  0  0  0  0
  189.9130  174.2670  141.1430 C   0  0  0  0  0  3  0  0  0  0  0  0
  192.6140  173.9980  145.2510 N   0  0  0  0  0  0  0  0  0  0  0  0
  192.5220  171.7860  144.4890 O   0  0  0  0  0  0  0  0  0  0  0  0
  193.1500  172.6710  145.1340 C   0  0  0  0  0  0  0  0  0  0  0  0
  194.4550  172.3080  145.7630 C   0  0  0  0  0  1  0  0  0  0  0  0
  193.3340  175.0230  146.0010 C   0  0  0  0  0  1  0  0  0  0  0  0
  186.0770  177.6660  141.0680 C   0  0  0  0  0  2  0  0  0  0  0  0
  185.7880  177.0280  142.4190 C   0  0  0  0  0  3  0  0  0  0  0  0
  185.6770  178.5350  142.2330 C   0  0  0  0  0  2  0  0  0  0  0  0
  185.2210  178.4400  147.2970 C   0  0  0  0  0  2  0  0  0  0  0  0
  184.0710  178.2740  146.5230 O   0  0  0  0  0  1  0  0  0  0  0  0
  188.4500  174.1630  139.1250 C   0  0  0  0  0  2  0  0  0  0  0  0
  188.1910  172.6650  139.1010 C   0  0  0  0  0  2  0  0  0  0  0  0
  190.4850  170.4840  137.5490 C   0  0  0  0  0  0  0  0  0  0  0  0
  189.3850  170.6660  138.2400 O   0  0  0  0  0  0  0  0  0  0  0  0
  189.2830  171.9670  138.3660 C   0  0  0  0  0  0  0  0  0  0  0  0
  191.0740  171.6540  137.2440 N   0  0  0  0  0  0  0  0  0  0  0  0
  190.3070  172.6020  137.7660 N   0  0  0  0  0  0  0  0  0  0  0  0
  191.0160  169.1540  137.1470 C   0  0  0  0  0  1  0  0  0  0  0  0
  1  9  1  0  0  0  0
  2 11  1  0  0  0  0
  2  6  2  0  0  0  0
  3  8  1  0  0  0  0
  3 13  1  0  0  0  0
  4 11  1  0  0  0  0
  4 18  1  1  0  0  0
  6 14  1  0  0  0  0
  7 17  1  0  0  0  0
  7  1  2  0  0  0  0
  8  4  1  0  0  0  0
  9 16  1  0  0  0  0
  9 13  2  0  0  0  0
 10  5  1  0  0  0  0
 10 26  1  0  0  0  0
 12 10  2  0  0  0  0
 13  2  1  0  0  0  0
 14  5  2  0  0  0  0
 15  6  1  1  0  0  0
 15 12  1  0  0  0  0
 16 15  1  0  0  0  0
 17  3  2  0  0  0  0
 18 22  1  0  0  0  0
 19 20  2  0  0  0  0
 20 18  1  0  0  0  0
 20 21  1  0  0  0  0
 23 25  1  0  0  0  0
 23 24  1  0  0  0  0
 24 16  1  0  0  0  0
 25 24  1  0  0  0  0
 27 26  1  0  0  0  0
 28  7  1  0  0  0  0
 29 28  1  0  0  0  0
 30 31  1  0  0  0  0
 31 32  1  0  0  0  0
 32 29  1  0  0  0  0
 33 30  2  0  0  0  0
 33 34  1  0  0  0  0
 34 32  2  0  0  0  0
 35 30  1  0  0  0  0
M  END
>  <MODEL>
6

>  <REMARK>
 VINA RESULT:      -7.0      2.160      8.012
  Name = 
  6 active torsions:
  status: ('A' for Active; 'I' for Inactive)
    1  A    between atoms: N_1  and  C_10
    2  A    between atoms: C_3  and  C_8
    3  A    between atoms: C_3  and  C_24
    4  A    between atoms: C_9  and  CA_21
    5  A    between atoms: C_13  and  C_24
    6  A    between atoms: C_15  and  N_32
                            x       y       z     vdW  Elec       q    Type
                         _______ _______ _______ _____ _____    ______ ____

>  <TORSDO>
F 6

$$$$
=
 OpenBabel11042418183D

 35 40  0  0  1  0  0  0  0  0999 V2000
  189.8370  174.5290  141.1290 N   0  0  0  0  0  0  0  0  0  0  0  0
  189.1870  175.8930  144.5680 C   0  0  0  0  0  0  0  0  0  0  0  0
  187.7050  175.5300  142.5750 C   0  0  0  0  0  0  0  0  0  0  0  0
  186.9480  176.9910  144.4580 C   0  0  2  0  0  3  0  0  0  0  0  0
  192.0850  176.4940  146.8890 C   0  0  0  0  0  3  0  0  0  0  0  0
  190.4170  175.8820  145.1110 C   0  0  0  0  0  0  0  0  0  0  0  0
  188.6130  174.6140  140.5410 C   0  0  0  0  0  0  0  0  0  0  0  0
  186.5180  176.0290  143.3490 C   0  0  0  0  0  2  0  0  0  0  0  0
  190.0490  174.9190  142.4190 C   0  0  0  0  0  0  0  0  0  0  0  0
  193.0680  176.0930  146.0790 C   0  0  0  0  0  0  0  0  0  0  0  0
  187.9910  176.3410  145.3690 C   0  0  0  0  0  2  0  0  0  0  0  0
  192.7810  175.5150  144.7970 N   0  0  0  0  0  0  0  0  0  0  0  0
  188.9760  175.4280  143.1730 C   0  0  0  0  0  0  0  0  0  0  0  0
  190.6340  176.3150  146.5410 C   0  0  0  0  0  3  0  0  0  0  0  0
  191.5760  175.3980  144.3180 C   0  0  2  0  0  3  0  0  0  0  0  0
  191.3630  174.8240  143.0100 N   0  0  0  0  0  0  0  0  0  0  0  0
  187.5240  175.1090  141.2600 C   0  0  0  0  0  3  0  0  0  0  0  0
  185.7920  177.4480  145.2300 N   0  0  0  0  0  0  0  0  0  0  0  0
  185.3050  179.1160  143.6610 O   0  0  0  0  0  0  0  0  0  0  0  0
  185.0040  178.5480  144.7470 C   0  0  0  0  0  0  0  0  0  0  0  0
  183.8150  179.0380  145.5070 C   0  0  0  0  0  1  0  0  0  0  0  0
  185.4500  176.7910  146.4880 C   0  0  0  0  0  1  0  0  0  0  0  0
  192.1050  173.0300  141.5080 C   0  0  0  0  0  2  0  0  0  0  0  0
  192.4950  174.3140  142.2240 C   0  0  0  0  0  3  0  0  0  0  0  0
  192.9510  172.9610  142.7540 C   0  0  0  0  0  2  0  0  0  0  0  0
  194.4840  176.2720  146.5040 C   0  0  0  0  0  2  0  0  0  0  0  0
  194.9390  177.5310  146.1100 O   0  0  0  0  0  1  0  0  0  0  0  0
  188.4240  174.1630  139.1330 C   0  0  0  0  0  2  0  0  0  0  0  0
  188.2490  172.6550  139.0750 C   0  0  0  0  0  2  0  0  0  0  0  0
  191.4660  171.7080  137.9910 C   0  0  0  0  0  0  0  0  0  0  0  0
  190.6040  172.6490  138.2920 O   0  0  0  0  0  0  0  0  0  0  0  0
  189.5220  172.0050  138.6570 C   0  0  0  0  0  0  0  0  0  0  0  0
  190.9370  170.4830  138.1600 N   0  0  0  0  0  0  0  0  0  0  0  0
  189.6950  170.6730  138.5850 N   0  0  0  0  0  0  0  0  0  0  0  0
  192.8570  171.9590  137.5250 C   0  0  0  0  0  1  0  0  0  0  0  0
  1  9  1  0  0  0  0
  2  6  2  0  0  0  0
  2 11  1  0  0  0  0
  3 13  1  0  0  0  0
  3  8  1  0  0  0  0
  4 18  1  1  0  0  0
  4 11  1  0  0  0  0
  6 14  1  0  0  0  0
  7  1  2  0  0  0  0
  7 17  1  0  0  0  0
  8  4  1  0  0  0  0
  9 16  1  0  0  0  0
  9 13  2  0  0  0  0
 10 26  1  0  0  0  0
 10  5  1  0  0  0  0
 12 10  2  0  0  0  0
 13  2  1  0  0  0  0
 14  5  2  0  0  0  0
 15 12  1  6  0  0  0
 15  6  1  0  0  0  0
 16 15  1  0  0  0  0
 17  3  2  0  0  0  0
 18 22  1  0  0  0  0
 19 20  2  0  0  0  0
 20 18  1  0  0  0  0
 20 21  1  0  0  0  0
 23 24  1  0  0  0  0
 23 25  1  0  0  0  0
 24 25  1  0  0  0  0
 24 16  1  0  0  0  0
 27 26  1  0  0  0  0
 28  7  1  0  0  0  0
 29 28  1  0  0  0  0
 30 33  2  0  0  0  0
 30 31  1  0  0  0  0
 31 32  1  0  0  0  0
 32 29  1  0  0  0  0
 33 34  1  0  0  0  0
 34 32  2  0  0  0  0
 35 30  1  0  0  0  0
M  END
>  <MODEL>
7

>  <REMARK>
 VINA RESULT:      -6.9      1.651      6.206
  Name = 
  6 active torsions:
  status: ('A' for Active; 'I' for Inactive)
    1  A    between atoms: N_1  and  C_10
    2  A    between atoms: C_3  and  C_8
    3  A    between atoms: C_3  and  C_24
    4  A    between atoms: C_9  and  CA_21
    5  A    between atoms: C_13  and  C_24
    6  A    between atoms: C_15  and  N_32
                            x       y       z     vdW  Elec       q    Type
                         _______ _______ _______ _____ _____    ______ ____

>  <TORSDO>
F 6

$$$$
=
 OpenBabel11042418183D

 35 40  0  0  1  0  0  0  0  0999 V2000
  192.8330  175.8350  143.6020 N   0  0  0  0  0  0  0  0  0  0  0  0
  189.2570  175.4660  142.5120 C   0  0  0  0  0  0  0  0  0  0  0  0
  190.3470  176.7910  144.3440 C   0  0  0  0  0  0  0  0  0  0  0  0
  187.8750  176.4170  144.3600 C   0  0  2  0  0  3  0  0  0  0  0  0
  188.3880  172.9260  139.8770 C   0  0  0  0  0  3  0  0  0  0  0  0
  189.3570  174.5580  141.5250 C   0  0  0  0  0  0  0  0  0  0  0  0
  192.7330  176.6890  144.6570 C   0  0  0  0  0  0  0  0  0  0  0  0
  189.0160  177.3610  144.7430 C   0  0  0  0  0  2  0  0  0  0  0  0
  191.7400  175.4350  142.8890 C   0  0  0  0  0  0  0  0  0  0  0  0
  189.6140  172.4440  139.6620 C   0  0  0  0  0  0  0  0  0  0  0  0
  187.9260  176.0770  142.8700 C   0  0  0  0  0  2  0  0  0  0  0  0
  190.7600  173.0240  140.3010 N   0  0  0  0  0  0  0  0  0  0  0  0
  190.4670  175.9140  143.2490 C   0  0  0  0  0  0  0  0  0  0  0  0
  188.1390  174.1280  140.7440 C   0  0  0  0  0  2  0  0  0  0  0  0
  190.6840  173.9990  141.1610 C   0  0  0  0  0  0  0  0  0  0  0  0
  191.8790  174.5220  141.7800 N   0  0  0  0  0  0  0  0  0  0  0  0
  191.4880  177.1870  145.0390 C   0  0  0  0  0  3  0  0  0  0  0  0
  186.5780  176.9920  144.7220 N   0  0  0  0  0  0  0  0  0  0  0  0
  186.8600  176.4120  146.9720 O   0  0  0  0  0  0  0  0  0  0  0  0
  186.1350  176.9440  146.0870 C   0  0  0  0  0  0  0  0  0  0  0  0
  184.8190  177.5240  146.4920 C   0  0  0  0  0  1  0  0  0  0  0  0
  185.7400  177.6020  143.6930 C   0  0  0  0  0  1  0  0  0  0  0  0
  194.2110  175.1340  141.3190 C   0  0  0  0  0  2  0  0  0  0  0  0
  193.2020  173.9990  141.4110 C   0  0  0  0  0  3  0  0  0  0  0  0
  193.6360  174.5450  140.0570 C   0  0  0  0  0  2  0  0  0  0  0  0
  189.7890  171.2700  138.7620 C   0  0  0  0  0  2  0  0  0  0  0  0
  191.0920  170.7800  138.8770 O   0  0  0  0  0  1  0  0  0  0  0  0
  193.9560  177.1100  145.3980 C   0  0  0  0  0  2  0  0  0  0  0  0
  194.5480  175.9370  146.1610 C   0  0  0  0  0  2  0  0  0  0  0  0
  197.0780  173.9670  144.6980 C   0  0  0  0  0  0  0  0  0  0  0  0
  196.1540  174.1240  145.6140 O   0  0  0  0  0  0  0  0  0  0  0  0
  195.6350  175.3020  145.3640 C   0  0  0  0  0  0  0  0  0  0  0  0
  197.1470  175.0320  143.8780 N   0  0  0  0  0  0  0  0  0  0  0  0
  196.2250  175.8850  144.3050 N   0  0  0  0  0  0  0  0  0  0  0  0
  197.9410  172.7620  144.5710 C   0  0  0  0  0  1  0  0  0  0  0  0
  1  7  1  0  0  0  0
  2 11  1  0  0  0  0
  2 13  1  0  0  0  0
  3  8  1  0  0  0  0
  3 17  1  0  0  0  0
  4 18  1  6  0  0  0
  4  8  1  0  0  0  0
  5 14  1  0  0  0  0
  6  2  2  0  0  0  0
  7 17  2  0  0  0  0
  7 28  1  0  0  0  0
  9 13  1  0  0  0  0
  9  1  2  0  0  0  0
 10  5  2  0  0  0  0
 10 12  1  0  0  0  0
 11  4  1  0  0  0  0
 12 15  2  0  0  0  0
 13  3  2  0  0  0  0
 14  6  1  0  0  0  0
 15  6  1  0  0  0  0
 15 16  1  0  0  0  0
 16  9  1  0  0  0  0
 18 20  1  0  0  0  0
 20 21  1  0  0  0  0
 20 19  2  0  0  0  0
 22 18  1  0  0  0  0
 23 24  1  0  0  0  0
 24 16  1  0  0  0  0
 25 23  1  0  0  0  0
 25 24  1  0  0  0  0
 26 27  1  0  0  0  0
 26 10  1  0  0  0  0
 28 29  1  0  0  0  0
 30 31  1  0  0  0  0
 32 31  1  0  0  0  0
 32 29  1  0  0  0  0
 33 34  1  0  0  0  0
 33 30  2  0  0  0  0
 34 32  2  0  0  0  0
 35 30  1  0  0  0  0
M  END
>  <MODEL>
8

>  <REMARK>
 VINA RESULT:      -6.9      1.496      1.649
  Name = 
  6 active torsions:
  status: ('A' for Active; 'I' for Inactive)
    1  A    between atoms: N_1  and  C_10
    2  A    between atoms: C_3  and  C_8
    3  A    between atoms: C_3  and  C_24
    4  A    between atoms: C_9  and  CA_21
    5  A    between atoms: C_13  and  C_24
    6  A    between atoms: C_15  and  N_32
                            x       y       z     vdW  Elec       q    Type
                         _______ _______ _______ _____ _____    ______ ____

>  <TORSDO>
F 6

$$$$
=
 OpenBabel11042418183D

 35 40  0  0  1  0  0  0  0  0999 V2000
  188.1060  176.5810  144.4890 N   0  0  0  0  0  0  0  0  0  0  0  0
  190.8030  174.8950  142.4900 C   0  0  0  0  0  0  0  0  0  0  0  0
  188.3320  175.1510  142.1340 C   0  0  0  0  0  0  0  0  0  0  0  0
  189.6250  173.4610  140.8210 C   0  0  2  0  0  3  0  0  0  0  0  0
  194.2620  174.6090  143.9400 C   0  0  0  0  0  3  0  0  0  0  0  0
  191.8810  175.0660  143.2750 C   0  0  0  0  0  0  0  0  0  0  0  0
  186.9920  176.3410  143.7450 C   0  0  0  0  0  0  0  0  0  0  0  0
  188.4290  174.4150  140.8280 C   0  0  0  0  0  2  0  0  0  0  0  0
  189.3400  176.1420  144.1080 C   0  0  0  0  0  0  0  0  0  0  0  0
  194.0340  175.2180  145.1050 C   0  0  0  0  0  0  0  0  0  0  0  0
  190.9180  174.2050  141.1550 C   0  0  0  0  0  2  0  0  0  0  0  0
  192.7660  175.8300  145.3850 N   0  0  0  0  0  0  0  0  0  0  0  0
  189.4760  175.4160  142.9100 C   0  0  0  0  0  0  0  0  0  0  0  0
  193.2400  174.5760  142.8380 C   0  0  0  0  0  2  0  0  0  0  0  0
  191.7530  175.7840  144.5690 C   0  0  0  0  0  0  0  0  0  0  0  0
  190.5000  176.4060  144.9250 N   0  0  0  0  0  0  0  0  0  0  0  0
  187.0900  175.6280  142.5490 C   0  0  0  0  0  3  0  0  0  0  0  0
  189.7350  172.7700  139.5360 N   0  0  0  0  0  0  0  0  0  0  0  0
  190.4410  170.7920  140.5690 O   0  0  0  0  0  0  0  0  0  0  0  0
  190.1620  171.3990  139.4990 C   0  0  0  0  0  0  0  0  0  0  0  0
  190.2830  170.6630  138.2050 C   0  0  0  0  0  1  0  0  0  0  0  0
  189.4160  173.4790  138.2990 C   0  0  0  0  0  1  0  0  0  0  0  0
  191.0970  176.4190  147.3060 C   0  0  0  0  0  2  0  0  0  0  0  0
  190.3640  177.1450  146.1880 C   0  0  0  0  0  3  0  0  0  0  0  0
  189.5960  176.3200  147.2120 C   0  0  0  0  0  2  0  0  0  0  0  0
  195.1060  175.2420  146.1390 C   0  0  0  0  0  2  0  0  0  0  0  0
  196.2210  174.5400  145.6770 O   0  0  0  0  0  1  0  0  0  0  0  0
  185.6660  176.8520  144.1920 C   0  0  0  0  0  2  0  0  0  0  0  0
  185.4580  178.2810  143.7190 C   0  0  0  0  0  2  0  0  0  0  0  0
  182.9880  178.2900  141.2050 C   0  0  0  0  0  0  0  0  0  0  0  0
  183.3100  178.2910  142.4750 O   0  0  0  0  0  0  0  0  0  0  0  0
  184.6210  178.2980  142.4870 C   0  0  0  0  0  0  0  0  0  0  0  0
  184.0810  178.2930  140.4200 N   0  0  0  0  0  0  0  0  0  0  0  0
  185.1240  178.2970  141.2390 N   0  0  0  0  0  0  0  0  0  0  0  0
  181.5930  178.2900  140.6890 C   0  0  0  0  0  1  0  0  0  0  0  0
  2 13  1  0  0  0  0
  2  6  2  0  0  0  0
  3 17  2  0  0  0  0
  3 13  1  0  0  0  0
  4 18  1  6  0  0  0
  4  8  1  0  0  0  0
  4 11  1  0  0  0  0
  5 10  2  0  0  0  0
  6 15  1  0  0  0  0
  7 28  1  0  0  0  0
  7  1  2  0  0  0  0
  8  3  1  0  0  0  0
  9  1  1  0  0  0  0
  9 16  1  0  0  0  0
 10 12  1  0  0  0  0
 10 26  1  0  0  0  0
 11  2  1  0  0  0  0
 13  9  2  0  0  0  0
 14  6  1  0  0  0  0
 14  5  1  0  0  0  0
 15 16  1  0  0  0  0
 15 12  2  0  0  0  0
 16 24  1  0  0  0  0
 17  7  1  0  0  0  0
 20 18  1  0  0  0  0
 20 19  2  0  0  0  0
 21 20  1  0  0  0  0
 22 18  1  0  0  0  0
 24 25  1  0  0  0  0
 24 23  1  0  0  0  0
 25 23  1  0  0  0  0
 27 26  1  0  0  0  0
 29 28  1  0  0  0  0
 30 31  1  0  0  0  0
 31 32  1  0  0  0  0
 32 29  1  0  0  0  0
 33 30  2  0  0  0  0
 33 34  1  0  0  0  0
 34 32  2  0  0  0  0
 35 30  1  0  0  0  0
M  END
>  <MODEL>
9

>  <REMARK>
 VINA RESULT:      -6.9      2.168      8.239
  Name = 
  6 active torsions:
  status: ('A' for Active; 'I' for Inactive)
    1  A    between atoms: N_1  and  C_10
    2  A    between atoms: C_3  and  C_8
    3  A    between atoms: C_3  and  C_24
    4  A    between atoms: C_9  and  CA_21
    5  A    between atoms: C_13  and  C_24
    6  A    between atoms: C_15  and  N_32
                            x       y       z     vdW  Elec       q    Type
                         _______ _______ _______ _____ _____    ______ ____

>  <TORSDO>
F 6

$$$$
