=
 OpenBabel11042415123D

 45 49  0  0  1  0  0  0  0  0999 V2000
  187.8540  176.8370  146.7890 C   0  0  0  0  0  2  0  0  0  0  0  0
  189.2320  176.2360  146.5860 C   0  0  2  0  0  0  0  0  0  0  0  0
  189.4910  176.0870  145.1030 C   0  0  2  0  0  3  0  0  0  0  0  0
  189.5920  174.9770  147.3580 C   0  0  0  0  0  1  0  0  0  0  0  0
  190.3110  177.0910  145.9130 C   0  0  2  0  0  3  0  0  0  0  0  0
  187.4250  177.3990  145.4400 C   0  0  1  0  0  3  0  0  0  0  0  0
  188.3500  176.7880  144.3730 C   0  0  2  0  0  3  0  0  0  0  0  0
  185.9020  177.3710  145.2080 C   0  0  1  0  0  3  0  0  0  0  0  0
  185.1850  176.8430  146.4430 C   0  0  0  0  0  1  0  0  0  0  0  0
  185.3250  178.7180  144.7840 C   0  0  0  0  0  2  0  0  0  0  0  0
  185.5340  178.9360  143.2950 C   0  0  0  0  0  2  0  0  0  0  0  0
  184.8490  177.9530  142.5760 O   0  0  0  0  0  0  0  0  0  0  0  0
  184.9580  178.3430  141.2360 C   0  0  1  0  0  3  0  0  0  0  0  0
  185.8460  177.4850  140.5670 O   0  0  0  0  0  1  0  0  0  0  0  0
  183.5880  178.3010  140.5720 C   0  0  0  0  0  2  0  0  0  0  0  0
  181.3900  178.3870  140.8860 C   0  0  0  0  0  1  0  0  0  0  0  0
  182.5940  178.0750  141.5280 O   0  0  0  0  0  0  0  0  0  0  0  0
  187.6600  175.8290  143.5140 N   0  0  0  0  0  2  0  0  0  0  0  0
  188.3070  175.0580  142.4860 C   0  0  0  0  0  0  0  0  0  0  0  0
  188.6300  175.6270  141.3300 C   0  0  0  0  0  2  0  0  0  0  0  0
  188.7860  173.6480  142.7680 C   0  0  1  0  0  3  0  0  0  0  0  0
  188.3120  172.5770  141.7610 C   0  0  2  0  0  3  0  0  0  0  0  0
  191.0090  173.5900  140.5840 C   0  0  0  0  0  2  0  0  0  0  0  0
  190.2690  173.5560  143.0280 C   0  0  0  0  0  0  0  0  0  0  0  0
  190.2000  172.4580  140.1670 N   0  0  0  0  0  2  0  0  0  0  0  0
  194.4250  172.6020  145.0100 C   0  0  0  0  0  3  0  0  0  0  0  0
  191.2580  173.5120  142.0540 C   0  0  0  0  0  0  0  0  0  0  0  0
  192.1910  173.1690  144.0860 C   0  0  0  0  0  0  0  0  0  0  0  0
  195.2450  172.4530  143.8850 C   0  0  0  0  0  0  0  0  0  0  0  0
  194.8750  172.6560  142.5470 C   0  0  0  0  0  3  0  0  0  0  0  0
  193.6550  173.0150  141.9890 C   0  0  0  0  0  3  0  0  0  0  0  0
  190.8300  173.3610  144.2830 C   0  0  0  0  0  3  0  0  0  0  0  0
  193.0750  172.9100  145.1140 C   0  0  0  0  0  3  0  0  0  0  0  0
  188.7970  172.8280  140.3270 C   0  0  0  0  0  2  0  0  0  0  0  0
  192.4640  173.2430  142.6600 C   0  0  0  0  0  0  0  0  0  0  0  0
  186.9310  172.4960  141.7750 F   0  0  0  0  0  0  0  0  0  0  0  0
  196.8840  170.8640  144.9040 O   0  0  0  0  0  1  0  0  0  0  0  0
  196.6290  171.9940  144.1250 C   0  0  0  0  0  0  0  0  0  0  0  0
  197.5930  172.5730  143.5490 O   0  0  0  0  0  0  0  0  0  0  0  0
  191.7230  176.5610  146.1480 C   0  0  0  0  0  2  0  0  0  0  0  0
  192.6050  176.7680  144.9260 C   0  0  0  0  0  2  0  0  0  0  0  0
  194.5370  175.6790  146.7300 O   0  0  0  0  0  1  0  0  0  0  0  0
  194.3710  176.6570  145.3590 P   0  0  0  0  0  0  0  0  0  0  0  0
  195.2490  175.9840  144.0770 O   0  0  0  0  0  0  0  0  0  0  0  0
  194.9080  178.0400  145.6610 O   0  0  0  0  0  1  0  0  0  0  0  0
  2  1  1  0  0  0  0
  2  4  1  1  0  0  0
  3  5  1  0  0  0  0
  3  2  1  0  0  0  0
  5 40  1  0  0  0  0
  5  2  1  0  0  0  0
  6  1  1  0  0  0  0
  7  3  1  0  0  0  0
  7  6  1  0  0  0  0
  8  6  1  0  0  0  0
  8  9  1  0  0  0  0
 10  8  1  0  0  0  0
 11 10  1  0  0  0  0
 12 11  1  0  0  0  0
 13 12  1  0  0  0  0
 14 13  1  0  0  0  0
 15 13  1  0  0  0  0
 15 17  1  0  0  0  0
 16 17  1  0  0  0  0
 18  7  1  0  0  0  0
 19 21  1  0  0  0  0
 19 18  1  0  0  0  0
 20 19  2  0  0  0  0
 21 24  1  0  0  0  0
 22 36  1  0  0  0  0
 22 21  1  0  0  0  0
 23 27  1  0  0  0  0
 24 32  1  0  0  0  0
 25 34  1  0  0  0  0
 25 23  1  0  0  0  0
 26 33  2  0  0  0  0
 27 35  1  0  0  0  0
 27 24  2  0  0  0  0
 28 32  2  0  0  0  0
 28 33  1  0  0  0  0
 29 38  1  0  0  0  0
 29 26  1  0  0  0  0
 30 29  2  0  0  0  0
 31 30  1  0  0  0  0
 31 35  2  0  0  0  0
 34 22  1  0  0  0  0
 35 28  1  0  0  0  0
 38 37  1  0  0  0  0
 39 38  2  0  0  0  0
 41 43  1  0  0  0  0
 41 40  1  0  0  0  0
 43 45  1  0  0  0  0
 43 42  1  0  0  0  0
 44 43  2  0  0  0  0
M  END
>  <MODEL>
1

>  <REMARK>
 VINA RESULT:      -7.6      0.000      0.000
  Name = 
  14 active torsions:
  status: ('A' for Active; 'I' for Inactive)
    1  A    between atoms: C_1  and  C_31
    2  A    between atoms: N_3  and  C_31
    3  A    between atoms: N_3  and  C_44
    4  A    between atoms: C_5  and  O_10
    5  A    between atoms: C_5  and  C_16
    6  A    between atoms: C_16  and  O_26
    7  A    between atoms: C_17  and  C_32
    8  A    between atoms: P_22  and  C_28
    9  A    between atoms: C_25  and  C_36
   10  A    between atoms: O_26  and  C_33
   11  A    between atoms: C_28  and  C_36
   12  A    between atoms: C_30  and  C_41
   13  A    between atoms: C_30  and  C_42
   14  A    between atoms: C_33  and  C_41
                            x       y       z     vdW  Elec       q    Type
                         _______ _______ _______ _____ _____    ______ ____

>  <TORSDO>
F 14

$$$$
=
 OpenBabel11042415123D

 45 49  0  0  1  0  0  0  0  0999 V2000
  190.5460  171.5570  141.9330 C   0  0  0  0  0  2  0  0  0  0  0  0
  189.5050  172.5760  142.3590 C   0  0  2  0  0  0  0  0  0  0  0  0
  190.1450  173.5680  143.3040 C   0  0  2  0  0  3  0  0  0  0  0  0
  188.1690  172.0700  142.8800 C   0  0  0  0  0  1  0  0  0  0  0  0
  189.6870  174.0330  141.9220 C   0  0  2  0  0  3  0  0  0  0  0  0
  191.9000  172.1380  142.3160 C   0  0  1  0  0  3  0  0  0  0  0  0
  191.6440  173.2860  143.3070 C   0  0  2  0  0  3  0  0  0  0  0  0
  192.9580  171.0740  142.6670 C   0  0  1  0  0  3  0  0  0  0  0  0
  192.3200  169.6950  142.7500 C   0  0  0  0  0  1  0  0  0  0  0  0
  194.1490  171.0610  141.7130 C   0  0  0  0  0  2  0  0  0  0  0  0
  194.3370  172.4330  141.0860 C   0  0  0  0  0  2  0  0  0  0  0  0
  195.4490  173.0600  141.6540 O   0  0  0  0  0  0  0  0  0  0  0  0
  195.3660  174.3930  141.2340 C   0  0  1  0  0  3  0  0  0  0  0  0
  194.2250  174.9920  141.7930 O   0  0  0  0  0  1  0  0  0  0  0  0
  196.6170  175.1500  141.6610 C   0  0  0  0  0  2  0  0  0  0  0  0
  197.1390  176.7660  143.0940 C   0  0  0  0  0  1  0  0  0  0  0  0
  196.5270  175.5090  143.0090 O   0  0  0  0  0  0  0  0  0  0  0  0
  192.0750  172.9630  144.6660 N   0  0  0  0  0  2  0  0  0  0  0  0
  193.0940  173.6830  145.3800 C   0  0  0  0  0  0  0  0  0  0  0  0
  194.3770  173.4680  145.1080 C   0  0  0  0  0  2  0  0  0  0  0  0
  192.7230  174.8140  146.3180 C   0  0  1  0  0  3  0  0  0  0  0  0
  193.7390  175.9750  146.3840 C   0  0  2  0  0  3  0  0  0  0  0  0
  191.7810  176.8030  144.1120 C   0  0  0  0  0  2  0  0  0  0  0  0
  191.3120  175.3130  146.1310 C   0  0  0  0  0  0  0  0  0  0  0  0
  192.8280  177.5870  144.7440 N   0  0  0  0  0  2  0  0  0  0  0  0
  186.8700  176.6170  146.9540 C   0  0  0  0  0  3  0  0  0  0  0  0
  190.8960  176.2130  145.1590 C   0  0  0  0  0  0  0  0  0  0  0  0
  189.1860  175.8020  146.5810 C   0  0  0  0  0  0  0  0  0  0  0  0
  186.6850  177.6110  145.9850 C   0  0  0  0  0  0  0  0  0  0  0  0
  187.6000  177.9910  144.9920 C   0  0  0  0  0  3  0  0  0  0  0  0
  188.8830  177.5360  144.7180 C   0  0  0  0  0  3  0  0  0  0  0  0
  190.2670  175.0400  147.0040 C   0  0  0  0  0  3  0  0  0  0  0  0
  187.9690  175.8160  147.2340 C   0  0  0  0  0  3  0  0  0  0  0  0
  193.9400  176.6900  145.0400 C   0  0  0  0  0  2  0  0  0  0  0  0
  189.5920  176.5700  145.4150 C   0  0  0  0  0  0  0  0  0  0  0  0
  194.9570  175.5110  146.8480 F   0  0  0  0  0  0  0  0  0  0  0  0
  184.7650  178.7570  144.8680 O   0  0  0  0  0  0  0  0  0  0  0  0
  185.4170  178.3670  146.0400 C   0  0  0  0  0  0  0  0  0  0  0  0
  184.8630  178.5890  147.1540 O   0  0  0  0  0  1  0  0  0  0  0  0
  188.4030  174.8530  142.0330 C   0  0  0  0  0  2  0  0  0  0  0  0
  188.0610  175.5290  140.7140 C   0  0  0  0  0  2  0  0  0  0  0  0
  186.3390  177.4930  139.5520 O   0  0  0  0  0  0  0  0  0  0  0  0
  187.1350  177.0750  140.9860 P   0  0  0  0  0  0  0  0  0  0  0  0
  185.9970  176.8680  142.2230 O   0  0  0  0  0  1  0  0  0  0  0  0
  188.0950  178.1810  141.3680 O   0  0  0  0  0  1  0  0  0  0  0  0
  1  6  1  0  0  0  0
  1  2  1  0  0  0  0
  2  4  1  1  0  0  0
  2  3  1  0  0  0  0
  3  7  1  0  0  0  0
  5 40  1  0  0  0  0
  5  2  1  0  0  0  0
  5  3  1  0  0  0  0
  6  8  1  0  0  0  0
  6  7  1  0  0  0  0
  7 18  1  0  0  0  0
  8  9  1  0  0  0  0
 10  8  1  0  0  0  0
 11 12  1  0  0  0  0
 11 10  1  0  0  0  0
 13 12  1  0  0  0  0
 13 15  1  0  0  0  0
 13 14  1  0  0  0  0
 15 17  1  0  0  0  0
 17 16  1  0  0  0  0
 18 19  1  0  0  0  0
 19 21  1  0  0  0  0
 20 19  2  0  0  0  0
 21 22  1  0  0  0  0
 22 36  1  0  0  0  0
 23 25  1  0  0  0  0
 23 27  1  0  0  0  0
 24 21  1  0  0  0  0
 24 32  1  0  0  0  0
 25 34  1  0  0  0  0
 26 33  2  0  0  0  0
 27 35  1  0  0  0  0
 27 24  2  0  0  0  0
 28 32  2  0  0  0  0
 28 33  1  0  0  0  0
 29 38  1  0  0  0  0
 29 26  1  0  0  0  0
 30 29  2  0  0  0  0
 31 30  1  0  0  0  0
 31 35  2  0  0  0  0
 34 22  1  0  0  0  0
 35 28  1  0  0  0  0
 37 38  2  0  0  0  0
 38 39  1  0  0  0  0
 41 43  1  0  0  0  0
 41 40  1  0  0  0  0
 42 43  2  0  0  0  0
 43 45  1  0  0  0  0
 43 44  1  0  0  0  0
M  END
>  <MODEL>
2

>  <REMARK>
 VINA RESULT:      -7.3      3.157      8.948
  Name = 
  14 active torsions:
  status: ('A' for Active; 'I' for Inactive)
    1  A    between atoms: C_1  and  C_31
    2  A    between atoms: N_3  and  C_31
    3  A    between atoms: N_3  and  C_44
    4  A    between atoms: C_5  and  O_10
    5  A    between atoms: C_5  and  C_16
    6  A    between atoms: C_16  and  O_26
    7  A    between atoms: C_17  and  C_32
    8  A    between atoms: P_22  and  C_28
    9  A    between atoms: C_25  and  C_36
   10  A    between atoms: O_26  and  C_33
   11  A    between atoms: C_28  and  C_36
   12  A    between atoms: C_30  and  C_41
   13  A    between atoms: C_30  and  C_42
   14  A    between atoms: C_33  and  C_41
                            x       y       z     vdW  Elec       q    Type
                         _______ _______ _______ _____ _____    ______ ____

>  <TORSDO>
F 14

$$$$
=
 OpenBabel11042415123D

 45 49  0  0  1  0  0  0  0  0999 V2000
  194.3610  175.6920  146.1990 C   0  0  0  0  0  2  0  0  0  0  0  0
  195.5050  175.0120  145.4700 C   0  0  2  0  0  0  0  0  0  0  0  0
  194.9630  174.3210  144.2390 C   0  0  2  0  0  3  0  0  0  0  0  0
  196.4360  174.1120  146.2680 C   0  0  0  0  0  1  0  0  0  0  0  0
  195.8930  175.5240  144.0800 C   0  0  2  0  0  3  0  0  0  0  0  0
  193.1920  175.7330  145.2240 C   0  0  1  0  0  3  0  0  0  0  0  0
  193.5060  174.7440  144.0890 C   0  0  2  0  0  3  0  0  0  0  0  0
  191.8100  175.6740  145.9030 C   0  0  1  0  0  3  0  0  0  0  0  0
  191.9470  175.2270  147.3510 C   0  0  0  0  0  1  0  0  0  0  0  0
  191.0310  176.9820  145.8130 C   0  0  0  0  0  2  0  0  0  0  0  0
  189.8420  176.9540  146.7600 C   0  0  0  0  0  2  0  0  0  0  0  0
  188.7080  177.4390  146.1030 O   0  0  0  0  0  0  0  0  0  0  0  0
  187.6830  176.5470  146.4450 C   0  0  1  0  0  3  0  0  0  0  0  0
  188.2300  175.4320  147.1010 O   0  0  0  0  0  1  0  0  0  0  0  0
  186.6730  177.2420  147.3480 C   0  0  0  0  0  2  0  0  0  0  0  0
  184.7140  177.4590  146.3220 C   0  0  0  0  0  1  0  0  0  0  0  0
  185.9010  178.1420  146.6080 O   0  0  0  0  0  0  0  0  0  0  0  0
  192.6500  173.5600  144.1230 N   0  0  0  0  0  2  0  0  0  0  0  0
  192.1280  172.9090  142.9520 C   0  0  0  0  0  0  0  0  0  0  0  0
  192.0110  171.5860  142.9200 C   0  0  0  0  0  2  0  0  0  0  0  0
  191.5430  173.7240  141.8150 C   0  0  1  0  0  3  0  0  0  0  0  0
  191.1870  172.9230  140.5450 C   0  0  2  0  0  3  0  0  0  0  0  0
  188.5820  172.8500  142.2460 C   0  0  0  0  0  2  0  0  0  0  0  0
  190.4140  174.6290  142.2430 C   0  0  0  0  0  0  0  0  0  0  0  0
  188.7870  172.4220  140.8730 N   0  0  0  0  0  2  0  0  0  0  0  0
  187.7160  178.4200  142.9230 C   0  0  0  0  0  3  0  0  0  0  0  0
  189.0920  174.2430  142.4170 C   0  0  0  0  0  0  0  0  0  0  0  0
  189.2500  176.4900  142.6240 C   0  0  0  0  0  0  0  0  0  0  0  0
  186.4350  177.8560  142.9270 C   0  0  0  0  0  0  0  0  0  0  0  0
  186.1220  176.4900  142.8500 C   0  0  0  0  0  3  0  0  0  0  0  0
  186.9440  175.3770  142.7260 C   0  0  0  0  0  3  0  0  0  0  0  0
  190.5280  176.0060  142.3820 C   0  0  0  0  0  3  0  0  0  0  0  0
  188.9660  177.8320  142.7830 C   0  0  0  0  0  3  0  0  0  0  0  0
  190.1230  171.8420  140.7800 C   0  0  0  0  0  2  0  0  0  0  0  0
  188.3260  175.3670  142.6250 C   0  0  0  0  0  0  0  0  0  0  0  0
  192.3280  172.3420  140.0180 F   0  0  0  0  0  0  0  0  0  0  0  0
  184.0950  178.4960  142.3250 O   0  0  0  0  0  0  0  0  0  0  0  0
  185.2940  178.7930  142.9750 C   0  0  0  0  0  0  0  0  0  0  0  0
  185.3650  179.8360  143.6860 O   0  0  0  0  0  1  0  0  0  0  0  0
  197.2840  175.0700  143.6450 C   0  0  0  0  0  2  0  0  0  0  0  0
  197.2080  174.0020  142.5640 C   0  0  0  0  0  2  0  0  0  0  0  0
  195.0130  174.3780  140.7710 O   0  0  0  0  0  1  0  0  0  0  0  0
  196.6600  174.7070  140.9760 P   0  0  0  0  0  0  0  0  0  0  0  0
  196.9070  176.3830  140.9610 O   0  0  0  0  0  1  0  0  0  0  0  0
  197.4430  174.0760  139.8440 O   0  0  0  0  0  0  0  0  0  0  0  0
  2  1  1  0  0  0  0
  2  4  1  1  0  0  0
  3  2  1  0  0  0  0
  5  3  1  0  0  0  0
  5  2  1  0  0  0  0
  6  8  1  0  0  0  0
  6  1  1  0  0  0  0
  7 18  1  0  0  0  0
  7  3  1  0  0  0  0
  7  6  1  0  0  0  0
  8  9  1  0  0  0  0
 10  8  1  0  0  0  0
 10 11  1  0  0  0  0
 12 13  1  0  0  0  0
 12 11  1  0  0  0  0
 13 14  1  0  0  0  0
 13 15  1  0  0  0  0
 16 17  1  0  0  0  0
 17 15  1  0  0  0  0
 19 18  1  0  0  0  0
 20 19  2  0  0  0  0
 21 24  1  0  0  0  0
 21 19  1  0  0  0  0
 22 34  1  0  0  0  0
 22 21  1  0  0  0  0
 23 27  1  0  0  0  0
 24 32  2  0  0  0  0
 24 27  1  0  0  0  0
 25 23  1  0  0  0  0
 26 29  2  0  0  0  0
 27 35  2  0  0  0  0
 28 35  1  0  0  0  0
 28 33  2  0  0  0  0
 29 38  1  0  0  0  0
 30 29  1  0  0  0  0
 31 30  2  0  0  0  0
 32 28  1  0  0  0  0
 33 26  1  0  0  0  0
 34 25  1  0  0  0  0
 35 31  1  0  0  0  0
 36 22  1  0  0  0  0
 37 38  2  0  0  0  0
 38 39  1  0  0  0  0
 40  5  1  0  0  0  0
 41 40  1  0  0  0  0
 42 43  1  0  0  0  0
 43 41  1  0  0  0  0
 44 43  1  0  0  0  0
 45 43  2  0  0  0  0
M  END
>  <MODEL>
3

>  <REMARK>
 VINA RESULT:      -7.3      2.667      6.808
  Name = 
  14 active torsions:
  status: ('A' for Active; 'I' for Inactive)
    1  A    between atoms: C_1  and  C_31
    2  A    between atoms: N_3  and  C_31
    3  A    between atoms: N_3  and  C_44
    4  A    between atoms: C_5  and  O_10
    5  A    between atoms: C_5  and  C_16
    6  A    between atoms: C_16  and  O_26
    7  A    between atoms: C_17  and  C_32
    8  A    between atoms: P_22  and  C_28
    9  A    between atoms: C_25  and  C_36
   10  A    between atoms: O_26  and  C_33
   11  A    between atoms: C_28  and  C_36
   12  A    between atoms: C_30  and  C_41
   13  A    between atoms: C_30  and  C_42
   14  A    between atoms: C_33  and  C_41
                            x       y       z     vdW  Elec       q    Type
                         _______ _______ _______ _____ _____    ______ ____

>  <TORSDO>
F 14

$$$$
=
 OpenBabel11042415123D

 45 49  0  0  1  0  0  0  0  0999 V2000
  187.7780  176.5880  146.7320 C   0  0  0  0  0  2  0  0  0  0  0  0
  189.0790  175.8140  146.8300 C   0  0  2  0  0  0  0  0  0  0  0  0
  189.6470  175.6290  145.4400 C   0  0  2  0  0  3  0  0  0  0  0  0
  189.0900  174.5200  147.6280 C   0  0  0  0  0  1  0  0  0  0  0  0
  190.3810  176.5200  146.4410 C   0  0  2  0  0  3  0  0  0  0  0  0
  187.7420  177.1970  145.3370 C   0  0  1  0  0  3  0  0  0  0  0  0
  188.8000  176.4700  144.4910 C   0  0  2  0  0  3  0  0  0  0  0  0
  186.3200  177.3660  144.7670 C   0  0  1  0  0  3  0  0  0  0  0  0
  185.2820  176.8850  145.7720 C   0  0  0  0  0  1  0  0  0  0  0  0
  186.0110  178.7900  144.3130 C   0  0  0  0  0  2  0  0  0  0  0  0
  186.2620  178.9330  142.8210 C   0  0  0  0  0  2  0  0  0  0  0  0
  185.7820  177.8030  142.1540 O   0  0  0  0  0  0  0  0  0  0  0  0
  185.4650  178.2510  140.8650 C   0  0  1  0  0  3  0  0  0  0  0  0
  186.3810  177.7180  139.9440 O   0  0  0  0  0  1  0  0  0  0  0  0
  184.0490  177.8240  140.5020 C   0  0  0  0  0  2  0  0  0  0  0  0
  181.9290  178.4360  140.7730 C   0  0  0  0  0  1  0  0  0  0  0  0
  183.1430  178.2950  141.4570 O   0  0  0  0  0  0  0  0  0  0  0  0
  188.2080  175.6060  143.4720 N   0  0  0  0  0  2  0  0  0  0  0  0
  188.9670  174.9050  142.4710 C   0  0  0  0  0  0  0  0  0  0  0  0
  188.6330  175.0070  141.1890 C   0  0  0  0  0  2  0  0  0  0  0  0
  190.2520  174.1910  142.8400 C   0  0  1  0  0  3  0  0  0  0  0  0
  190.0980  172.6910  143.1750 C   0  0  2  0  0  3  0  0  0  0  0  0
  190.6380  172.7350  140.1110 C   0  0  0  0  0  2  0  0  0  0  0  0
  191.3780  174.4360  141.8660 C   0  0  0  0  0  0  0  0  0  0  0  0
  190.5950  171.5980  141.0130 N   0  0  0  0  0  2  0  0  0  0  0  0
  195.5610  175.5620  140.0380 C   0  0  0  0  0  3  0  0  0  0  0  0
  191.5590  173.7740  140.6590 C   0  0  0  0  0  0  0  0  0  0  0  0
  193.3490  175.0970  141.0660 C   0  0  0  0  0  0  0  0  0  0  0  0
  195.6240  174.7060  138.9330 C   0  0  0  0  0  0  0  0  0  0  0  0
  194.6150  173.8400  138.4870 C   0  0  0  0  0  3  0  0  0  0  0  0
  193.3510  173.5790  139.0010 C   0  0  0  0  0  3  0  0  0  0  0  0
  192.4630  175.2630  142.1220 C   0  0  0  0  0  3  0  0  0  0  0  0
  194.5680  175.7410  140.9920 C   0  0  0  0  0  3  0  0  0  0  0  0
  189.5590  171.8540  142.0070 C   0  0  0  0  0  2  0  0  0  0  0  0
  192.7830  174.1290  140.1400 C   0  0  0  0  0  0  0  0  0  0  0  0
  189.2740  172.5360  144.2750 F   0  0  0  0  0  0  0  0  0  0  0  0
  197.8970  173.7590  138.5010 O   0  0  0  0  0  1  0  0  0  0  0  0
  196.8960  174.6800  138.1820 C   0  0  0  0  0  0  0  0  0  0  0  0
  197.0530  175.4340  137.1800 O   0  0  0  0  0  0  0  0  0  0  0  0
  191.6240  175.8120  146.9750 C   0  0  0  0  0  2  0  0  0  0  0  0
  192.5170  175.3270  145.8430 C   0  0  0  0  0  2  0  0  0  0  0  0
  194.6180  176.6490  144.4250 O   0  0  0  0  0  0  0  0  0  0  0  0
  194.1800  176.0620  145.9510 P   0  0  0  0  0  0  0  0  0  0  0  0
  194.1890  177.3340  147.0690 O   0  0  0  0  0  1  0  0  0  0  0  0
  195.1740  175.0060  146.3860 O   0  0  0  0  0  1  0  0  0  0  0  0
  1  2  1  0  0  0  0
  2  4  1  1  0  0  0
  3  5  1  0  0  0  0
  3  2  1  0  0  0  0
  5  2  1  0  0  0  0
  5 40  1  0  0  0  0
  6  1  1  0  0  0  0
  7  6  1  0  0  0  0
  7  3  1  0  0  0  0
  8  6  1  0  0  0  0
  8  9  1  0  0  0  0
 10  8  1  0  0  0  0
 11 10  1  0  0  0  0
 12 11  1  0  0  0  0
 13 12  1  0  0  0  0
 14 13  1  0  0  0  0
 15 13  1  0  0  0  0
 15 17  1  0  0  0  0
 16 17  1  0  0  0  0
 18  7  1  0  0  0  0
 19 21  1  0  0  0  0
 19 18  1  0  0  0  0
 20 19  2  0  0  0  0
 21 22  1  0  0  0  0
 22 36  1  0  0  0  0
 23 27  1  0  0  0  0
 23 25  1  0  0  0  0
 24 32  1  0  0  0  0
 24 21  1  0  0  0  0
 25 34  1  0  0  0  0
 26 33  2  0  0  0  0
 27 24  2  0  0  0  0
 28 32  2  0  0  0  0
 29 26  1  0  0  0  0
 30 29  2  0  0  0  0
 30 31  1  0  0  0  0
 31 35  2  0  0  0  0
 33 28  1  0  0  0  0
 34 22  1  0  0  0  0
 35 27  1  0  0  0  0
 35 28  1  0  0  0  0
 38 37  1  0  0  0  0
 38 29  1  0  0  0  0
 39 38  2  0  0  0  0
 41 43  1  0  0  0  0
 41 40  1  0  0  0  0
 42 43  2  0  0  0  0
 43 45  1  0  0  0  0
 43 44  1  0  0  0  0
M  END
>  <MODEL>
4

>  <REMARK>
 VINA RESULT:      -7.0      2.186      2.857
  Name = 
  14 active torsions:
  status: ('A' for Active; 'I' for Inactive)
    1  A    between atoms: C_1  and  C_31
    2  A    between atoms: N_3  and  C_31
    3  A    between atoms: N_3  and  C_44
    4  A    between atoms: C_5  and  O_10
    5  A    between atoms: C_5  and  C_16
    6  A    between atoms: C_16  and  O_26
    7  A    between atoms: C_17  and  C_32
    8  A    between atoms: P_22  and  C_28
    9  A    between atoms: C_25  and  C_36
   10  A    between atoms: O_26  and  C_33
   11  A    between atoms: C_28  and  C_36
   12  A    between atoms: C_30  and  C_41
   13  A    between atoms: C_30  and  C_42
   14  A    between atoms: C_33  and  C_41
                            x       y       z     vdW  Elec       q    Type
                         _______ _______ _______ _____ _____    ______ ____

>  <TORSDO>
F 14

$$$$
=
 OpenBabel11042415123D

 45 49  0  0  1  0  0  0  0  0999 V2000
  190.6100  172.3780  140.9240 C   0  0  0  0  0  2  0  0  0  0  0  0
  192.0350  172.7130  140.5260 C   0  0  2  0  0  0  0  0  0  0  0  0
  192.8610  172.9150  141.7770 C   0  0  2  0  0  3  0  0  0  0  0  0
  192.2590  173.8200  139.5070 C   0  0  0  0  0  1  0  0  0  0  0  0
  193.1450  171.7150  140.8730 C   0  0  2  0  0  3  0  0  0  0  0  0
  190.6500  172.0090  142.4010 C   0  0  1  0  0  3  0  0  0  0  0  0
  191.9940  172.5040  142.9620 C   0  0  2  0  0  3  0  0  0  0  0  0
  189.3550  172.3490  143.1640 C   0  0  1  0  0  3  0  0  0  0  0  0
  189.4570  171.8980  144.6140 C   0  0  0  0  0  1  0  0  0  0  0  0
  188.9700  173.8240  143.0830 C   0  0  0  0  0  2  0  0  0  0  0  0
  187.8590  174.0230  142.0660 C   0  0  0  0  0  2  0  0  0  0  0  0
  187.3460  175.3180  142.1790 O   0  0  0  0  0  0  0  0  0  0  0  0
  187.8670  176.0110  141.0790 C   0  0  1  0  0  3  0  0  0  0  0  0
  188.2260  175.0960  140.0750 O   0  0  0  0  0  1  0  0  0  0  0  0
  186.8310  176.9920  140.5470 C   0  0  0  0  0  2  0  0  0  0  0  0
  185.3840  178.3440  141.5560 C   0  0  0  0  0  1  0  0  0  0  0  0
  186.7530  178.1120  141.3790 O   0  0  0  0  0  0  0  0  0  0  0  0
  191.8420  173.6380  143.8700 N   0  0  0  0  0  0  0  0  0  0  0  0
  192.5390  173.7680  145.1210 C   0  0  0  0  0  0  0  0  0  0  0  0
  193.5800  172.9870  145.3870 C   0  0  0  0  0  1  0  0  0  0  0  0
  192.2120  174.9040  146.0690 C   0  0  1  0  0  3  0  0  0  0  0  0
  193.2460  176.0500  146.1060 C   0  0  2  0  0  3  0  0  0  0  0  0
  191.2360  176.9080  143.8910 C   0  0  0  0  0  2  0  0  0  0  0  0
  190.8030  175.4240  145.9230 C   0  0  0  0  0  0  0  0  0  0  0  0
  192.3130  177.6760  144.4930 N   0  0  0  0  0  2  0  0  0  0  0  0
  186.4070  176.7940  146.8730 C   0  0  0  0  0  3  0  0  0  0  0  0
  190.3740  176.3310  144.9630 C   0  0  0  0  0  0  0  0  0  0  0  0
  188.6990  175.9450  146.4340 C   0  0  0  0  0  0  0  0  0  0  0  0
  186.2090  177.7910  145.9110 C   0  0  0  0  0  0  0  0  0  0  0  0
  187.1000  178.1580  144.8910 C   0  0  0  0  0  3  0  0  0  0  0  0
  188.3680  177.6840  144.5810 C   0  0  0  0  0  3  0  0  0  0  0  0
  189.7800  175.1670  146.8250 C   0  0  0  0  0  3  0  0  0  0  0  0
  187.5020  175.9770  147.1210 C   0  0  0  0  0  3  0  0  0  0  0  0
  193.4200  176.7630  144.7570 C   0  0  0  0  0  2  0  0  0  0  0  0
  189.0830  176.7070  145.2570 C   0  0  0  0  0  0  0  0  0  0  0  0
  194.4700  175.5670  146.5340 F   0  0  0  0  0  0  0  0  0  0  0  0
  184.4340  179.2210  144.8830 O   0  0  0  0  0  0  0  0  0  0  0  0
  184.9550  178.5660  146.0010 C   0  0  0  0  0  0  0  0  0  0  0  0
  184.2910  178.5670  147.0770 O   0  0  0  0  0  1  0  0  0  0  0  0
  194.4230  171.9430  140.0680 C   0  0  0  0  0  2  0  0  0  0  0  0
  195.6550  171.9000  140.9590 C   0  0  0  0  0  2  0  0  0  0  0  0
  195.7060  174.5680  139.9340 O   0  0  0  0  0  0  0  0  0  0  0  0
  196.5400  173.4920  140.9400 P   0  0  0  0  0  0  0  0  0  0  0  0
  196.6280  174.1350  142.5040 O   0  0  0  0  0  1  0  0  0  0  0  0
  197.9410  173.2870  140.4030 O   0  0  0  0  0  1  0  0  0  0  0  0
  1  6  1  0  0  0  0
  2  4  1  6  0  0  0
  2  5  1  0  0  0  0
  2  1  1  0  0  0  0
  2  3  1  0  0  0  0
  3  7  1  0  0  0  0
  5  3  1  0  0  0  0
  6  7  1  0  0  0  0
  6  8  1  0  0  0  0
  7 18  1  0  0  0  0
  8  9  1  0  0  0  0
 10  8  1  0  0  0  0
 11 12  1  0  0  0  0
 11 10  1  0  0  0  0
 13 12  1  0  0  0  0
 14 13  1  0  0  0  0
 15 13  1  0  0  0  0
 15 17  1  0  0  0  0
 17 16  1  0  0  0  0
 18 19  2  0  0  0  0
 19 20  1  0  0  0  0
 19 21  1  0  0  0  0
 21 22  1  0  0  0  0
 22 36  1  0  0  0  0
 23 25  1  0  0  0  0
 23 27  1  0  0  0  0
 24 21  1  0  0  0  0
 24 32  1  0  0  0  0
 25 34  1  0  0  0  0
 26 33  2  0  0  0  0
 27 35  1  0  0  0  0
 27 24  2  0  0  0  0
 28 32  2  0  0  0  0
 28 33  1  0  0  0  0
 29 38  1  0  0  0  0
 29 26  1  0  0  0  0
 30 29  2  0  0  0  0
 31 30  1  0  0  0  0
 31 35  2  0  0  0  0
 34 22  1  0  0  0  0
 35 28  1  0  0  0  0
 37 38  2  0  0  0  0
 38 39  1  0  0  0  0
 40  5  1  0  0  0  0
 40 41  1  0  0  0  0
 42 43  2  0  0  0  0
 43 41  1  0  0  0  0
 43 44  1  0  0  0  0
 45 43  1  0  0  0  0
M  END
>  <MODEL>
5

>  <REMARK>
 VINA RESULT:      -7.0      2.779      7.294
  Name = 
  14 active torsions:
  status: ('A' for Active; 'I' for Inactive)
    1  A    between atoms: C_1  and  C_31
    2  A    between atoms: N_3  and  C_31
    3  A    between atoms: N_3  and  C_44
    4  A    between atoms: C_5  and  O_10
    5  A    between atoms: C_5  and  C_16
    6  A    between atoms: C_16  and  O_26
    7  A    between atoms: C_17  and  C_32
    8  A    between atoms: P_22  and  C_28
    9  A    between atoms: C_25  and  C_36
   10  A    between atoms: O_26  and  C_33
   11  A    between atoms: C_28  and  C_36
   12  A    between atoms: C_30  and  C_41
   13  A    between atoms: C_30  and  C_42
   14  A    between atoms: C_33  and  C_41
                            x       y       z     vdW  Elec       q    Type
                         _______ _______ _______ _____ _____    ______ ____

>  <TORSDO>
F 14

$$$$
=
 OpenBabel11042415123D

 45 49  0  0  1  0  0  0  0  0999 V2000
  193.1250  171.6790  141.5060 C   0  0  0  0  0  2  0  0  0  0  0  0
  191.8150  172.3400  141.8920 C   0  0  2  0  0  0  0  0  0  0  0  0
  192.1080  173.6730  142.5430 C   0  0  2  0  0  3  0  0  0  0  0  0
  190.8030  171.5270  142.6850 C   0  0  0  0  0  1  0  0  0  0  0  0
  191.4120  173.6360  141.1820 C   0  0  2  0  0  3  0  0  0  0  0  0
  194.1920  172.7640  141.5780 C   0  0  1  0  0  3  0  0  0  0  0  0
  193.6010  173.9380  142.3760 C   0  0  2  0  0  3  0  0  0  0  0  0
  195.5910  172.2380  141.9530 C   0  0  1  0  0  3  0  0  0  0  0  0
  195.5060  170.7990  142.4420 C   0  0  0  0  0  1  0  0  0  0  0  0
  196.6120  172.3660  140.8260 C   0  0  0  0  0  2  0  0  0  0  0  0
  196.0250  173.1620  139.6710 C   0  0  0  0  0  2  0  0  0  0  0  0
  197.0080  173.9930  139.1280 O   0  0  0  0  0  0  0  0  0  0  0  0
  196.6150  175.2920  139.4750 C   0  0  1  0  0  3  0  0  0  0  0  0
  195.2130  175.3650  139.5090 O   0  0  0  0  0  1  0  0  0  0  0  0
  197.1920  175.6610  140.8350 C   0  0  0  0  0  2  0  0  0  0  0  0
  196.9240  176.7900  142.7300 C   0  0  0  0  0  1  0  0  0  0  0  0
  196.4260  176.6690  141.4280 O   0  0  0  0  0  0  0  0  0  0  0  0
  194.2170  174.0890  143.6930 N   0  0  0  0  0  2  0  0  0  0  0  0
  193.6520  173.5750  144.9110 C   0  0  0  0  0  0  0  0  0  0  0  0
  193.5810  172.2640  145.1110 C   0  0  0  0  0  2  0  0  0  0  0  0
  193.2950  174.5110  146.0490 C   0  0  1  0  0  3  0  0  0  0  0  0
  194.3070  175.6470  146.3090 C   0  0  2  0  0  3  0  0  0  0  0  0
  192.3020  176.8660  144.2650 C   0  0  0  0  0  2  0  0  0  0  0  0
  191.8780  175.0250  145.9830 C   0  0  0  0  0  0  0  0  0  0  0  0
  193.3580  177.5270  145.0110 N   0  0  0  0  0  2  0  0  0  0  0  0
  187.4490  176.1230  147.1150 C   0  0  0  0  0  3  0  0  0  0  0  0
  191.4400  176.0870  145.2020 C   0  0  0  0  0  0  0  0  0  0  0  0
  189.7600  175.4080  146.5560 C   0  0  0  0  0  0  0  0  0  0  0  0
  187.2410  177.2770  146.3510 C   0  0  0  0  0  0  0  0  0  0  0  0
  188.1340  177.8410  145.4270 C   0  0  0  0  0  3  0  0  0  0  0  0
  189.4140  177.4530  145.0510 C   0  0  0  0  0  3  0  0  0  0  0  0
  190.8510  174.5890  146.8100 C   0  0  0  0  0  3  0  0  0  0  0  0
  188.5560  175.2920  147.2220 C   0  0  0  0  0  3  0  0  0  0  0  0
  194.4790  176.5990  145.1160 C   0  0  0  0  0  2  0  0  0  0  0  0
  190.1400  176.3810  145.5440 C   0  0  0  0  0  0  0  0  0  0  0  0
  195.5360  175.1140  146.6560 F   0  0  0  0  0  0  0  0  0  0  0  0
  185.9400  179.1900  147.3000 O   0  0  0  0  0  1  0  0  0  0  0  0
  185.9710  178.0010  146.5670 C   0  0  0  0  0  0  0  0  0  0  0  0
  184.9120  177.5950  146.0110 O   0  0  0  0  0  0  0  0  0  0  0  0
  189.9270  173.9610  141.3330 C   0  0  0  0  0  2  0  0  0  0  0  0
  189.7160  175.2400  142.1280 C   0  0  0  0  0  2  0  0  0  0  0  0
  186.9550  175.6620  142.7360 O   0  0  0  0  0  1  0  0  0  0  0  0
  188.1740  176.0760  141.6380 P   0  0  0  0  0  0  0  0  0  0  0  0
  188.3900  177.7560  141.6420 O   0  0  0  0  0  1  0  0  0  0  0  0
  187.7730  175.6260  140.2490 O   0  0  0  0  0  0  0  0  0  0  0  0
  1  6  1  0  0  0  0
  1  2  1  0  0  0  0
  2  3  1  0  0  0  0
  2  4  1  1  0  0  0
  5 40  1  0  0  0  0
  5  2  1  0  0  0  0
  5  3  1  0  0  0  0
  6  8  1  0  0  0  0
  6  7  1  0  0  0  0
  7  3  1  0  0  0  0
  7 18  1  0  0  0  0
  8  9  1  0  0  0  0
 10  8  1  0  0  0  0
 11 10  1  0  0  0  0
 12 13  1  0  0  0  0
 12 11  1  0  0  0  0
 13 14  1  0  0  0  0
 13 15  1  0  0  0  0
 15 17  1  0  0  0  0
 17 16  1  0  0  0  0
 18 19  1  0  0  0  0
 19 20  2  0  0  0  0
 19 21  1  0  0  0  0
 21 22  1  0  0  0  0
 22 36  1  0  0  0  0
 23 25  1  0  0  0  0
 23 27  1  0  0  0  0
 24 21  1  0  0  0  0
 24 32  1  0  0  0  0
 25 34  1  0  0  0  0
 26 33  2  0  0  0  0
 27 35  1  0  0  0  0
 27 24  2  0  0  0  0
 28 32  2  0  0  0  0
 28 33  1  0  0  0  0
 29 38  1  0  0  0  0
 29 26  1  0  0  0  0
 30 29  2  0  0  0  0
 31 30  1  0  0  0  0
 31 35  2  0  0  0  0
 34 22  1  0  0  0  0
 35 28  1  0  0  0  0
 38 37  1  0  0  0  0
 39 38  2  0  0  0  0
 40 41  1  0  0  0  0
 43 44  1  0  0  0  0
 43 41  1  0  0  0  0
 43 42  1  0  0  0  0
 45 43  2  0  0  0  0
M  END
>  <MODEL>
6

>  <REMARK>
 VINA RESULT:      -6.9      3.620      9.148
  Name = 
  14 active torsions:
  status: ('A' for Active; 'I' for Inactive)
    1  A    between atoms: C_1  and  C_31
    2  A    between atoms: N_3  and  C_31
    3  A    between atoms: N_3  and  C_44
    4  A    between atoms: C_5  and  O_10
    5  A    between atoms: C_5  and  C_16
    6  A    between atoms: C_16  and  O_26
    7  A    between atoms: C_17  and  C_32
    8  A    between atoms: P_22  and  C_28
    9  A    between atoms: C_25  and  C_36
   10  A    between atoms: O_26  and  C_33
   11  A    between atoms: C_28  and  C_36
   12  A    between atoms: C_30  and  C_41
   13  A    between atoms: C_30  and  C_42
   14  A    between atoms: C_33  and  C_41
                            x       y       z     vdW  Elec       q    Type
                         _______ _______ _______ _____ _____    ______ ____

>  <TORSDO>
F 14

$$$$
=
 OpenBabel11042415123D

 45 49  0  0  1  0  0  0  0  0999 V2000
  191.8630  174.4180  141.2230 C   0  0  0  0  0  2  0  0  0  0  0  0
  193.3290  174.5680  141.5860 C   0  0  2  0  0  0  0  0  0  0  0  0
  193.6030  173.7960  142.8570 C   0  0  2  0  0  3  0  0  0  0  0  0
  193.9220  175.9680  141.6280 C   0  0  0  0  0  1  0  0  0  0  0  0
  194.2240  173.3260  141.5420 C   0  0  2  0  0  3  0  0  0  0  0  0
  191.3300  173.2590  142.0550 C   0  0  1  0  0  3  0  0  0  0  0  0
  192.3470  172.9930  143.1770 C   0  0  2  0  0  3  0  0  0  0  0  0
  189.8380  173.3880  142.4180 C   0  0  1  0  0  3  0  0  0  0  0  0
  189.3130  174.7650  142.0380 C   0  0  0  0  0  1  0  0  0  0  0  0
  188.9670  172.2920  141.8110 C   0  0  0  0  0  2  0  0  0  0  0  0
  188.3970  172.7490  140.4780 C   0  0  0  0  0  2  0  0  0  0  0  0
  189.2630  172.3780  139.4460 O   0  0  0  0  0  0  0  0  0  0  0  0
  188.9630  173.2500  138.3920 C   0  0  1  0  0  3  0  0  0  0  0  0
  188.1910  174.3200  138.8720 O   0  0  0  0  0  1  0  0  0  0  0  0
  190.2520  173.7720  137.7700 C   0  0  0  0  0  2  0  0  0  0  0  0
  191.1860  174.0630  135.7750 C   0  0  0  0  0  1  0  0  0  0  0  0
  190.0020  174.2750  136.4900 O   0  0  0  0  0  0  0  0  0  0  0  0
  191.8460  173.3780  144.4940 N   0  0  0  0  0  2  0  0  0  0  0  0
  192.6840  173.8100  145.5800 C   0  0  0  0  0  0  0  0  0  0  0  0
  193.8770  173.2550  145.7630 C   0  0  0  0  0  2  0  0  0  0  0  0
  192.3000  175.0150  146.4160 C   0  0  1  0  0  3  0  0  0  0  0  0
  193.3030  176.1890  146.3800 C   0  0  2  0  0  3  0  0  0  0  0  0
  191.3370  176.7930  144.0440 C   0  0  0  0  0  2  0  0  0  0  0  0
  190.8830  175.4800  146.1860 C   0  0  0  0  0  0  0  0  0  0  0  0
  192.3760  177.6410  144.6050 N   0  0  0  0  0  2  0  0  0  0  0  0
  186.4260  176.8020  146.8910 C   0  0  0  0  0  3  0  0  0  0  0  0
  190.4590  176.2870  145.1390 C   0  0  0  0  0  0  0  0  0  0  0  0
  188.7520  175.9830  146.5920 C   0  0  0  0  0  0  0  0  0  0  0  0
  186.2320  177.7050  145.8400 C   0  0  0  0  0  0  0  0  0  0  0  0
  187.1430  178.0070  144.8170 C   0  0  0  0  0  3  0  0  0  0  0  0
  188.4310  177.5440  144.5850 C   0  0  0  0  0  3  0  0  0  0  0  0
  189.8400  175.2730  147.0790 C   0  0  0  0  0  3  0  0  0  0  0  0
  187.5340  176.0410  147.2400 C   0  0  0  0  0  3  0  0  0  0  0  0
  193.4970  176.7860  144.9790 C   0  0  0  0  0  2  0  0  0  0  0  0
  189.1500  176.6510  145.3630 C   0  0  0  0  0  0  0  0  0  0  0  0
  194.5250  175.7800  146.8830 F   0  0  0  0  0  0  0  0  0  0  0  0
  184.2350  178.6170  144.6440 O   0  0  0  0  0  0  0  0  0  0  0  0
  184.9550  178.4490  145.8280 C   0  0  0  0  0  0  0  0  0  0  0  0
  184.4570  178.8640  146.9130 O   0  0  0  0  0  1  0  0  0  0  0  0
  195.7130  173.6660  141.5020 C   0  0  0  0  0  2  0  0  0  0  0  0
  196.3300  173.3010  140.1610 C   0  0  0  0  0  2  0  0  0  0  0  0
  195.3360  175.2780  138.3510 O   0  0  0  0  0  1  0  0  0  0  0  0
  196.7240  174.7900  139.1880 P   0  0  0  0  0  0  0  0  0  0  0  0
  197.2360  176.0410  140.2090 O   0  0  0  0  0  1  0  0  0  0  0  0
  197.8230  174.4720  138.1960 O   0  0  0  0  0  0  0  0  0  0  0  0
  1  2  1  0  0  0  0
  1  6  1  0  0  0  0
  2  4  1  6  0  0  0
  2  3  1  0  0  0  0
  3  7  1  0  0  0  0
  5  2  1  0  0  0  0
  5  3  1  0  0  0  0
  6  8  1  0  0  0  0
  6  7  1  0  0  0  0
  7 18  1  0  0  0  0
  9  8  1  0  0  0  0
 10  8  1  0  0  0  0
 11 10  1  0  0  0  0
 12 11  1  0  0  0  0
 13 14  1  0  0  0  0
 13 12  1  0  0  0  0
 15 13  1  0  0  0  0
 16 17  1  0  0  0  0
 17 15  1  0  0  0  0
 18 19  1  0  0  0  0
 19 20  2  0  0  0  0
 19 21  1  0  0  0  0
 22 21  1  0  0  0  0
 22 36  1  0  0  0  0
 23 25  1  0  0  0  0
 23 27  1  0  0  0  0
 24 21  1  0  0  0  0
 24 32  1  0  0  0  0
 25 34  1  0  0  0  0
 26 33  2  0  0  0  0
 27 35  1  0  0  0  0
 27 24  2  0  0  0  0
 28 32  2  0  0  0  0
 28 33  1  0  0  0  0
 29 26  1  0  0  0  0
 30 29  2  0  0  0  0
 31 30  1  0  0  0  0
 31 35  2  0  0  0  0
 34 22  1  0  0  0  0
 35 28  1  0  0  0  0
 37 38  2  0  0  0  0
 38 29  1  0  0  0  0
 38 39  1  0  0  0  0
 40  5  1  0  0  0  0
 41 40  1  0  0  0  0
 42 43  1  0  0  0  0
 43 41  1  0  0  0  0
 43 44  1  0  0  0  0
 45 43  2  0  0  0  0
M  END
>  <MODEL>
7

>  <REMARK>
 VINA RESULT:      -6.8      3.462      7.863
  Name = 
  14 active torsions:
  status: ('A' for Active; 'I' for Inactive)
    1  A    between atoms: C_1  and  C_31
    2  A    between atoms: N_3  and  C_31
    3  A    between atoms: N_3  and  C_44
    4  A    between atoms: C_5  and  O_10
    5  A    between atoms: C_5  and  C_16
    6  A    between atoms: C_16  and  O_26
    7  A    between atoms: C_17  and  C_32
    8  A    between atoms: P_22  and  C_28
    9  A    between atoms: C_25  and  C_36
   10  A    between atoms: O_26  and  C_33
   11  A    between atoms: C_28  and  C_36
   12  A    between atoms: C_30  and  C_41
   13  A    between atoms: C_30  and  C_42
   14  A    between atoms: C_33  and  C_41
                            x       y       z     vdW  Elec       q    Type
                         _______ _______ _______ _____ _____    ______ ____

>  <TORSDO>
F 14

$$$$
=
 OpenBabel11042415123D

 45 49  0  0  1  0  0  0  0  0999 V2000
  188.1370  175.5510  147.3920 C   0  0  0  0  0  2  0  0  0  0  0  0
  189.5120  175.1570  146.8850 C   0  0  2  0  0  0  0  0  0  0  0  0
  190.0240  176.2380  145.9590 C   0  0  2  0  0  3  0  0  0  0  0  0
  189.6940  173.7670  146.2970 C   0  0  0  0  0  1  0  0  0  0  0  0
  190.7160  176.0080  147.3020 C   0  0  2  0  0  3  0  0  0  0  0  0
  187.9690  177.0310  147.0760 C   0  0  1  0  0  3  0  0  0  0  0  0
  189.0490  177.4070  146.0480 C   0  0  2  0  0  3  0  0  0  0  0  0
  186.5090  177.4500  146.8090 C   0  0  1  0  0  3  0  0  0  0  0  0
  185.5690  176.7510  147.7800 C   0  0  0  0  0  1  0  0  0  0  0  0
  186.2940  178.9600  146.8410 C   0  0  0  0  0  2  0  0  0  0  0  0
  185.2390  179.3640  145.8250 C   0  0  0  0  0  2  0  0  0  0  0  0
  185.8290  179.5020  144.5660 O   0  0  0  0  0  0  0  0  0  0  0  0
  185.0810  178.6710  143.7230 C   0  0  1  0  0  3  0  0  0  0  0  0
  183.7270  179.0420  143.7780 O   0  0  0  0  0  1  0  0  0  0  0  0
  185.5970  178.7820  142.2950 C   0  0  0  0  0  2  0  0  0  0  0  0
  185.5840  177.9050  140.2530 C   0  0  0  0  0  1  0  0  0  0  0  0
  184.8550  177.9550  141.4470 O   0  0  0  0  0  0  0  0  0  0  0  0
  188.4950  177.6810  144.7240 N   0  0  0  0  0  2  0  0  0  0  0  0
  188.2730  176.6750  143.7200 C   0  0  0  0  0  0  0  0  0  0  0  0
  187.3370  175.7500  143.9010 C   0  0  0  0  0  2  0  0  0  0  0  0
  188.9720  176.7600  142.3780 C   0  0  1  0  0  3  0  0  0  0  0  0
  190.3390  177.4780  142.3920 C   0  0  2  0  0  3  0  0  0  0  0  0
  191.0400  174.4920  142.9180 C   0  0  0  0  0  2  0  0  0  0  0  0
  189.0380  175.4410  141.6500 C   0  0  0  0  0  0  0  0  0  0  0  0
  191.9340  175.6030  142.6410 N   0  0  0  0  0  2  0  0  0  0  0  0
  188.6610  172.1210  138.3420 C   0  0  0  0  0  3  0  0  0  0  0  0
  189.9710  174.4380  141.8780 C   0  0  0  0  0  0  0  0  0  0  0  0
  188.7200  173.9010  140.0720 C   0  0  0  0  0  0  0  0  0  0  0  0
  189.7510  171.2970  138.6450 C   0  0  0  0  0  0  0  0  0  0  0  0
  190.6240  171.4310  139.7360 C   0  0  0  0  0  3  0  0  0  0  0  0
  190.6690  172.3810  140.7490 C   0  0  0  0  0  3  0  0  0  0  0  0
  188.2530  175.1170  140.5510 C   0  0  0  0  0  3  0  0  0  0  0  0
  188.1980  173.2760  138.9560 C   0  0  0  0  0  3  0  0  0  0  0  0
  191.3820  176.7910  143.2850 C   0  0  0  0  0  2  0  0  0  0  0  0
  189.8330  173.4750  140.9050 C   0  0  0  0  0  0  0  0  0  0  0  0
  190.1780  178.7920  142.7950 F   0  0  0  0  0  0  0  0  0  0  0  0
  190.0180  170.4150  136.3210 O   0  0  0  0  0  0  0  0  0  0  0  0
  190.0400  170.1980  137.7000 C   0  0  0  0  0  0  0  0  0  0  0  0
  190.4000  169.0690  138.1390 O   0  0  0  0  0  1  0  0  0  0  0  0
  192.0490  175.2920  147.1000 C   0  0  0  0  0  2  0  0  0  0  0  0
  193.0910  176.2180  146.4920 C   0  0  0  0  0  2  0  0  0  0  0  0
  193.6900  173.8180  145.0600 O   0  0  0  0  0  1  0  0  0  0  0  0
  194.3620  175.2790  145.5860 P   0  0  0  0  0  0  0  0  0  0  0  0
  194.9050  176.1650  144.2480 O   0  0  0  0  0  0  0  0  0  0  0  0
  195.5310  174.9930  146.5040 O   0  0  0  0  0  1  0  0  0  0  0  0
  2  4  1  6  0  0  0
  2  5  1  0  0  0  0
  2  1  1  0  0  0  0
  3  7  1  0  0  0  0
  3  2  1  0  0  0  0
  3  5  1  0  0  0  0
  6  1  1  0  0  0  0
  7  6  1  0  0  0  0
  8 10  1  0  0  0  0
  8  6  1  0  0  0  0
  8  9  1  0  0  0  0
 11 10  1  0  0  0  0
 12 11  1  0  0  0  0
 13 14  1  0  0  0  0
 13 12  1  0  0  0  0
 15 13  1  0  0  0  0
 16 17  1  0  0  0  0
 17 15  1  0  0  0  0
 18  7  1  0  0  0  0
 19 20  2  0  0  0  0
 19 18  1  0  0  0  0
 21 22  1  0  0  0  0
 21 19  1  0  0  0  0
 22 36  1  0  0  0  0
 22 34  1  0  0  0  0
 24 27  1  0  0  0  0
 24 21  1  0  0  0  0
 25 23  1  0  0  0  0
 25 34  1  0  0  0  0
 26 29  2  0  0  0  0
 26 33  1  0  0  0  0
 27 23  1  0  0  0  0
 28 32  1  0  0  0  0
 28 35  1  0  0  0  0
 29 30  1  0  0  0  0
 30 31  2  0  0  0  0
 31 35  1  0  0  0  0
 32 24  2  0  0  0  0
 33 28  2  0  0  0  0
 35 27  2  0  0  0  0
 37 38  2  0  0  0  0
 38 39  1  0  0  0  0
 38 29  1  0  0  0  0
 40  5  1  0  0  0  0
 41 40  1  0  0  0  0
 42 43  1  0  0  0  0
 43 41  1  0  0  0  0
 43 45  1  0  0  0  0
 44 43  2  0  0  0  0
M  END
>  <MODEL>
8

>  <REMARK>
 VINA RESULT:      -6.7      2.844      4.461
  Name = 
  14 active torsions:
  status: ('A' for Active; 'I' for Inactive)
    1  A    between atoms: C_1  and  C_31
    2  A    between atoms: N_3  and  C_31
    3  A    between atoms: N_3  and  C_44
    4  A    between atoms: C_5  and  O_10
    5  A    between atoms: C_5  and  C_16
    6  A    between atoms: C_16  and  O_26
    7  A    between atoms: C_17  and  C_32
    8  A    between atoms: P_22  and  C_28
    9  A    between atoms: C_25  and  C_36
   10  A    between atoms: O_26  and  C_33
   11  A    between atoms: C_28  and  C_36
   12  A    between atoms: C_30  and  C_41
   13  A    between atoms: C_30  and  C_42
   14  A    between atoms: C_33  and  C_41
                            x       y       z     vdW  Elec       q    Type
                         _______ _______ _______ _____ _____    ______ ____

>  <TORSDO>
F 14

$$$$
=
 OpenBabel11042415123D

 45 49  0  0  1  0  0  0  0  0999 V2000
  191.7790  171.7070  141.9250 C   0  0  0  0  0  2  0  0  0  0  0  0
  190.7170  172.6250  142.5010 C   0  0  2  0  0  0  0  0  0  0  0  0
  191.3670  173.9210  142.9320 C   0  0  2  0  0  3  0  0  0  0  0  0
  189.7850  172.0710  143.5680 C   0  0  0  0  0  1  0  0  0  0  0  0
  190.3910  173.9230  141.7570 C   0  0  2  0  0  3  0  0  0  0  0  0
  193.0020  172.5750  141.6600 C   0  0  1  0  0  3  0  0  0  0  0  0
  192.8090  173.8890  142.4350 C   0  0  2  0  0  3  0  0  0  0  0  0
  194.3410  171.8230  141.7920 C   0  0  1  0  0  3  0  0  0  0  0  0
  194.1020  170.3800  142.2150 C   0  0  0  0  0  1  0  0  0  0  0  0
  195.1980  171.8810  140.5310 C   0  0  0  0  0  2  0  0  0  0  0  0
  194.7130  170.8590  139.5160 C   0  0  0  0  0  2  0  0  0  0  0  0
  194.5750  171.4680  138.2660 O   0  0  0  0  0  0  0  0  0  0  0  0
  193.3430  171.0160  137.7780 C   0  0  1  0  0  3  0  0  0  0  0  0
  192.7200  170.2130  138.7470 O   0  0  0  0  0  1  0  0  0  0  0  0
  192.4560  172.2040  137.4320 C   0  0  0  0  0  2  0  0  0  0  0  0
  190.8520  173.5970  138.0840 C   0  0  0  0  0  1  0  0  0  0  0  0
  191.5290  172.4290  138.4540 O   0  0  0  0  0  0  0  0  0  0  0  0
  193.7180  174.0110  143.5720 N   0  0  0  0  0  2  0  0  0  0  0  0
  193.4190  173.5400  144.8970 C   0  0  0  0  0  0  0  0  0  0  0  0
  193.5810  172.2570  145.2000 C   0  0  0  0  0  2  0  0  0  0  0  0
  193.0860  174.5200  146.0050 C   0  0  1  0  0  3  0  0  0  0  0  0
  194.1450  175.6160  146.2540 C   0  0  2  0  0  3  0  0  0  0  0  0
  192.2280  176.8700  144.1470 C   0  0  0  0  0  2  0  0  0  0  0  0
  191.6950  175.0940  145.9030 C   0  0  0  0  0  0  0  0  0  0  0  0
  193.3010  177.5030  144.8940 N   0  0  0  0  0  2  0  0  0  0  0  0
  187.3020  176.4170  146.9330 C   0  0  0  0  0  3  0  0  0  0  0  0
  191.3180  176.1540  145.0880 C   0  0  0  0  0  0  0  0  0  0  0  0
  189.5880  175.5850  146.4300 C   0  0  0  0  0  0  0  0  0  0  0  0
  187.1590  177.5590  146.1360 C   0  0  0  0  0  0  0  0  0  0  0  0
  188.0900  178.0580  145.2140 C   0  0  0  0  0  3  0  0  0  0  0  0
  189.3570  177.6040  144.8690 C   0  0  0  0  0  3  0  0  0  0  0  0
  190.6370  174.7250  146.7230 C   0  0  0  0  0  3  0  0  0  0  0  0
  188.3690  175.5400  147.0790 C   0  0  0  0  0  3  0  0  0  0  0  0
  194.3780  176.5290  145.0410 C   0  0  0  0  0  2  0  0  0  0  0  0
  190.0270  176.5140  145.4010 C   0  0  0  0  0  0  0  0  0  0  0  0
  195.3430  175.0380  146.6340 F   0  0  0  0  0  0  0  0  0  0  0  0
  185.5200  179.2780  145.3560 O   0  0  0  0  0  0  0  0  0  0  0  0
  185.9190  178.3440  146.3140 C   0  0  0  0  0  0  0  0  0  0  0  0
  185.1600  178.1080  147.2960 O   0  0  0  0  0  1  0  0  0  0  0  0
  189.0530  174.5290  142.1750 C   0  0  0  0  0  2  0  0  0  0  0  0
  188.2660  175.0230  140.9710 C   0  0  0  0  0  2  0  0  0  0  0  0
  186.4470  176.4620  142.6430 O   0  0  0  0  0  1  0  0  0  0  0  0
  187.4780  176.6300  141.3110 P   0  0  0  0  0  0  0  0  0  0  0  0
  188.6530  177.8010  141.6520 O   0  0  0  0  0  1  0  0  0  0  0  0
  186.6730  177.0650  140.1050 O   0  0  0  0  0  0  0  0  0  0  0  0
  1  2  1  0  0  0  0
  2  3  1  0  0  0  0
  2  4  1  1  0  0  0
  5 40  1  0  0  0  0
  5  2  1  0  0  0  0
  5  3  1  0  0  0  0
  6  8  1  0  0  0  0
  6  1  1  0  0  0  0
  6  7  1  0  0  0  0
  7  3  1  0  0  0  0
  7 18  1  0  0  0  0
  8  9  1  0  0  0  0
 10  8  1  0  0  0  0
 11 10  1  0  0  0  0
 12 11  1  0  0  0  0
 13 12  1  0  0  0  0
 13 14  1  0  0  0  0
 15 13  1  0  0  0  0
 15 17  1  0  0  0  0
 16 17  1  0  0  0  0
 18 19  1  0  0  0  0
 19 20  2  0  0  0  0
 19 21  1  0  0  0  0
 21 22  1  0  0  0  0
 22 36  1  0  0  0  0
 23 25  1  0  0  0  0
 23 27  1  0  0  0  0
 24 21  1  0  0  0  0
 24 32  1  0  0  0  0
 25 34  1  0  0  0  0
 26 33  2  0  0  0  0
 27 35  1  0  0  0  0
 27 24  2  0  0  0  0
 28 32  2  0  0  0  0
 28 33  1  0  0  0  0
 29 38  1  0  0  0  0
 29 26  1  0  0  0  0
 30 29  2  0  0  0  0
 31 30  1  0  0  0  0
 31 35  2  0  0  0  0
 34 22  1  0  0  0  0
 35 28  1  0  0  0  0
 37 38  2  0  0  0  0
 38 39  1  0  0  0  0
 41 43  1  0  0  0  0
 41 40  1  0  0  0  0
 43 44  1  0  0  0  0
 43 42  1  0  0  0  0
 45 43  2  0  0  0  0
M  END
>  <MODEL>
9

>  <REMARK>
 VINA RESULT:      -6.6      3.900      8.693
  Name = 
  14 active torsions:
  status: ('A' for Active; 'I' for Inactive)
    1  A    between atoms: C_1  and  C_31
    2  A    between atoms: N_3  and  C_31
    3  A    between atoms: N_3  and  C_44
    4  A    between atoms: C_5  and  O_10
    5  A    between atoms: C_5  and  C_16
    6  A    between atoms: C_16  and  O_26
    7  A    between atoms: C_17  and  C_32
    8  A    between atoms: P_22  and  C_28
    9  A    between atoms: C_25  and  C_36
   10  A    between atoms: O_26  and  C_33
   11  A    between atoms: C_28  and  C_36
   12  A    between atoms: C_30  and  C_41
   13  A    between atoms: C_30  and  C_42
   14  A    between atoms: C_33  and  C_41
                            x       y       z     vdW  Elec       q    Type
                         _______ _______ _______ _____ _____    ______ ____

>  <TORSDO>
F 14

$$$$
