=
 OpenBabel11042419413D

 61 67  0  0  1  0  0  0  0  0999 V2000
  189.4350  177.4270  143.9620 C   0  0  0  0  0  3  0  0  0  0  0  0
  188.4510  177.4270  143.0400 C   0  0  0  0  0  0  0  0  0  0  0  0
  188.4760  176.3920  142.0060 C   0  0  0  0  0  0  0  0  0  0  0  0
  187.6590  176.1060  140.9120 C   0  0  0  0  0  3  0  0  0  0  0  0
  190.5170  175.3780  142.8460 C   0  0  0  0  0  0  0  0  0  0  0  0
  189.4570  175.4670  141.9690 C   0  0  2  0  0  3  0  0  0  0  0  0
  191.2630  173.4670  141.4820 C   0  0  0  0  0  0  0  0  0  0  0  0
  190.5700  176.3950  143.9810 C   0  0  0  0  0  3  0  0  0  0  0  0
  189.2780  174.6600  140.9310 N   0  0  0  0  0  0  0  0  0  0  0  0
  189.9050  172.8110  139.5160 N   0  0  0  0  0  1  0  0  0  0  0  0
  191.4680  174.3470  142.6000 C   0  0  0  0  0  0  0  0  0  0  0  0
  190.1330  173.6510  140.6460 C   0  0  0  0  0  0  0  0  0  0  0  0
  188.1870  175.0240  140.2700 N   0  0  0  0  0  0  0  0  0  0  0  0
  192.1340  171.1930  142.1090 C   0  0  2  0  0  3  0  0  0  0  0  0
  192.2160  172.3450  141.1520 C   0  0  2  0  0  3  0  0  0  0  0  0
  193.6530  172.7560  141.2210 C   0  0  0  0  0  2  0  0  0  0  0  0
  193.4850  170.6680  142.2650 N   0  0  0  0  0  0  0  0  0  0  0  0
  194.4010  171.6050  141.7160 N   0  0  0  0  0  0  0  0  0  0  0  0
  191.2250  170.1160  141.5410 C   0  0  0  0  0  1  0  0  0  0  0  0
  193.7470  170.5940  143.6970 C   0  0  0  0  0  2  0  0  0  0  0  0
  194.6290  168.5430  147.1960 C   0  0  0  0  0  3  0  0  0  0  0  0
  195.7840  169.1760  143.8280 C   0  0  0  0  0  2  0  0  0  0  0  0
  195.2440  170.5910  143.9710 C   0  0  2  0  0  3  0  0  0  0  0  0
  196.9630  170.1410  145.9010 C   0  0  1  0  0  3  0  0  0  0  0  0
  195.6410  169.7800  145.2080 C   0  0  2  0  0  0  0  0  0  0  0  0
  197.6270  168.8700  146.3800 C   0  0  0  0  0  2  0  0  0  0  0  0
  195.8170  168.3180  148.0450 C   0  0  0  0  0  3  0  0  0  0  0  0
  197.1050  168.4770  147.7260 C   0  0  0  0  0  3  0  0  0  0  0  0
  194.5390  169.1540  146.0090 C   0  0  0  0  0  3  0  0  0  0  0  0
  197.9380  170.9180  145.0300 C   0  0  0  0  0  1  0  0  0  0  0  0
  195.0100  170.9740  140.5510 C   0  0  0  0  0  2  0  0  0  0  0  0
  196.2800  171.7120  140.1660 C   0  0  0  0  0  2  0  0  0  0  0  0
  194.7960  172.0410  137.9630 O   0  0  0  0  0  0  0  0  0  0  0  0
  196.2140  172.1420  138.4410 S   0  0  0  0  0  0  0  0  0  0  0  0
  197.0680  171.1840  137.6600 O   0  0  0  0  0  0  0  0  0  0  0  0
  196.8240  173.8140  138.2280 C   0  0  1  0  0  3  0  0  0  0  0  0
  197.6000  175.3810  136.8490 C   0  0  0  0  0  1  0  0  0  0  0  0
  197.0840  174.0820  136.8730 O   0  0  0  0  0  0  0  0  0  0  0  0
  195.9110  174.8170  138.8010 N   0  0  0  0  0  2  0  0  0  0  0  0
  195.6580  176.2970  140.5900 O   0  0  0  0  0  1  0  0  0  0  0  0
  197.7000  175.2350  140.3050 N   0  0  0  0  0  1  0  0  0  0  0  0
  196.2590  175.1070  140.1880 C   0  0  2  0  0  3  0  0  0  0  0  0
  192.6280  174.1550  143.4300 N   0  0  0  0  0  2  0  0  0  0  0  0
  192.6410  173.5190  144.7350 C   0  0  2  0  0  3  0  0  0  0  0  0
  191.3770  172.9970  145.0180 O   0  0  0  0  0  1  0  0  0  0  0  0
  193.1180  174.5120  145.7960 C   0  0  2  0  0  3  0  0  0  0  0  0
  192.0740  174.8450  146.6560 O   0  0  0  0  0  1  0  0  0  0  0  0
  193.8060  175.7620  145.2410 C   0  0  0  0  0  2  0  0  0  0  0  0
  195.2790  175.8200  145.6200 C   0  0  0  0  0  2  0  0  0  0  0  0
  196.0460  174.5650  145.1940 C   0  0  1  0  0  3  0  0  0  0  0  0
  197.0050  174.8420  144.0440 C   0  0  0  0  0  1  0  0  0  0  0  0
  196.7390  174.0110  146.2800 O   0  0  0  0  0  1  0  0  0  0  0  0
  187.3810  178.4670  143.0620 C   0  0  0  0  0  2  0  0  0  0  0  0
  185.8150  177.3850  146.2880 C   0  0  2  0  0  3  0  0  0  0  0  0
  185.5460  180.3810  144.3700 O   0  0  0  0  0  0  0  0  0  0  0  0
  185.1550  178.7580  146.1140 C   0  0  2  0  0  3  0  0  0  0  0  0
  183.7780  178.6350  146.0050 F   0  0  0  0  0  0  0  0  0  0  0  0
  186.4430  178.2200  144.1450 N   0  0  0  0  0  0  0  0  0  0  0  0
  186.4790  177.0200  144.9500 C   0  0  0  0  0  2  0  0  0  0  0  0
  185.7080  179.2180  144.8210 C   0  0  0  0  0  0  0  0  0  0  0  0
  184.8950  176.4190  146.6590 F   0  0  0  0  0  0  0  0  0  0  0  0
  1  8  2  0  0  0  0
  2 53  1  0  0  0  0
  2  1  1  0  0  0  0
  3  2  2  0  0  0  0
  4  3  1  0  0  0  0
  5  8  1  0  0  0  0
  6  3  1  6  0  0  0
  6  5  1  0  0  0  0
  7 11  1  0  0  0  0
  9  6  1  0  0  0  0
 10 12  1  0  0  0  0
 11  5  2  0  0  0  0
 11 43  1  0  0  0  0
 12  9  1  0  0  0  0
 12  7  2  0  0  0  0
 13  4  2  0  0  0  0
 13  9  1  0  0  0  0
 14 19  1  6  0  0  0
 14 17  1  0  0  0  0
 15 16  1  0  0  0  0
 15  7  1  1  0  0  0
 15 14  1  0  0  0  0
 16 18  1  0  0  0  0
 17 20  1  0  0  0  0
 18 17  1  0  0  0  0
 21 27  1  0  0  0  0
 22 23  1  0  0  0  0
 23 20  1  1  0  0  0
 23 25  1  0  0  0  0
 24 30  1  6  0  0  0
 24 26  1  0  0  0  0
 25 22  1  6  0  0  0
 25 24  1  0  0  0  0
 25 29  1  0  0  0  0
 26 28  1  0  0  0  0
 28 27  2  0  0  0  0
 29 21  2  0  0  0  0
 31 18  1  0  0  0  0
 32 31  1  0  0  0  0
 33 34  2  0  0  0  0
 34 32  1  0  0  0  0
 35 34  2  0  0  0  0
 36 38  1  6  0  0  0
 36 34  1  0  0  0  0
 36 39  1  0  0  0  0
 37 38  1  0  0  0  0
 39 42  1  0  0  0  0
 42 41  1  6  0  0  0
 42 40  1  0  0  0  0
 43 44  1  0  0  0  0
 44 45  1  1  0  0  0
 44 46  1  0  0  0  0
 46 47  1  6  0  0  0
 48 49  1  0  0  0  0
 48 46  1  0  0  0  0
 50 51  1  6  0  0  0
 50 49  1  0  0  0  0
 50 52  1  0  0  0  0
 53 58  1  0  0  0  0
 54 61  1  6  0  0  0
 55 60  2  0  0  0  0
 56 57  1  6  0  0  0
 56 54  1  0  0  0  0
 58 60  1  0  0  0  0
 58 59  1  0  0  0  0
 59 54  1  0  0  0  0
 60 56  1  0  0  0  0
M  END
>  <MODEL>
1

>  <REMARK>
 VINA RESULT:      -7.2      0.000      0.000
  Name = 
  18 active torsions:
  status: ('A' for Active; 'I' for Inactive)
    1  A    between atoms: C_2  and  N_9
    2  A    between atoms: C_2  and  C_29
    3  A    between atoms: C_3  and  C_30
    4  A    between atoms: C_3  and  C_58
    5  A    between atoms: C_4  and  C_8
    6  A    between atoms: C_4  and  N_44
    7  A    between atoms: N_9  and  C_51
    8  A    between atoms: C_12  and  S_16
    9  A    between atoms: C_12  and  C_26
   10  A    between atoms: O_13  and  C_15
   11  A    between atoms: C_15  and  S_16
   12  A    between atoms: C_15  and  N_35
   13  A    between atoms: C_18  and  C_19
   14  A    between atoms: C_18  and  N_41
   15  A    between atoms: C_23  and  C_37
   16  A    between atoms: C_26  and  N_45
   17  A    between atoms: C_29  and  C_58
   18  A    between atoms: N_35  and  C_40
                            x       y       z     vdW  Elec       q    Type
                         _______ _______ _______ _____ _____    ______ ____

>  <TORSDO>
F 18

$$$$
=
 OpenBabel11042419413D

 61 67  0  0  1  0  0  0  0  0999 V2000
  189.5440  177.4930  143.7380 C   0  0  0  0  0  3  0  0  0  0  0  0
  188.4950  177.4200  142.8950 C   0  0  0  0  0  0  0  0  0  0  0  0
  188.4350  176.2910  141.9660 C   0  0  0  0  0  0  0  0  0  0  0  0
  187.5380  175.9140  140.9670 C   0  0  0  0  0  3  0  0  0  0  0  0
  190.5240  175.3310  142.7490 C   0  0  0  0  0  0  0  0  0  0  0  0
  189.4030  175.3530  141.9460 C   0  0  2  0  0  3  0  0  0  0  0  0
  191.1530  173.2880  141.5240 C   0  0  0  0  0  0  0  0  0  0  0  0
  190.6690  176.4500  143.7740 C   0  0  0  0  0  3  0  0  0  0  0  0
  189.1420  174.4530  141.0070 N   0  0  0  0  0  0  0  0  0  0  0  0
  189.6470  172.4680  139.7340 N   0  0  0  0  0  1  0  0  0  0  0  0
  191.4470  174.2680  142.5340 C   0  0  0  0  0  0  0  0  0  0  0  0
  189.9650  173.4080  140.7580 C   0  0  0  0  0  0  0  0  0  0  0  0
  188.0080  174.7690  140.3940 N   0  0  0  0  0  0  0  0  0  0  0  0
  192.0100  171.0470  142.2740 C   0  0  2  0  0  3  0  0  0  0  0  0
  192.0700  172.1260  141.2330 C   0  0  2  0  0  3  0  0  0  0  0  0
  193.5150  172.5110  141.2110 C   0  0  0  0  0  2  0  0  0  0  0  0
  193.3570  170.5060  142.4080 N   0  0  0  0  0  0  0  0  0  0  0  0
  194.2640  171.3820  141.7540 N   0  0  0  0  0  0  0  0  0  0  0  0
  191.0580  169.9520  141.8250 C   0  0  0  0  0  1  0  0  0  0  0  0
  193.6810  170.5290  143.8300 C   0  0  0  0  0  2  0  0  0  0  0  0
  194.6260  168.4510  147.2970 C   0  0  0  0  0  3  0  0  0  0  0  0
  195.6600  169.0250  143.8790 C   0  0  0  0  0  2  0  0  0  0  0  0
  195.1880  170.4630  144.0390 C   0  0  2  0  0  3  0  0  0  0  0  0
  196.9680  169.9450  145.8950 C   0  0  1  0  0  3  0  0  0  0  0  0
  195.6030  169.6390  145.2610 C   0  0  2  0  0  0  0  0  0  0  0  0
  197.5970  168.6490  146.3500 C   0  0  0  0  0  2  0  0  0  0  0  0
  195.8390  168.1780  148.0940 C   0  0  0  0  0  3  0  0  0  0  0  0
  197.1180  168.2810  147.7190 C   0  0  0  0  0  3  0  0  0  0  0  0
  194.5110  169.0620  146.1110 C   0  0  0  0  0  3  0  0  0  0  0  0
  197.9360  170.6780  144.9790 C   0  0  0  0  0  1  0  0  0  0  0  0
  194.8090  170.6570  140.6120 C   0  0  0  0  0  2  0  0  0  0  0  0
  195.8260  171.5190  139.8870 C   0  0  0  0  0  2  0  0  0  0  0  0
  194.1450  171.1730  137.8340 O   0  0  0  0  0  0  0  0  0  0  0  0
  195.6050  171.3460  138.1310 S   0  0  0  0  0  0  0  0  0  0  0  0
  196.3530  170.1330  137.6570 O   0  0  0  0  0  0  0  0  0  0  0  0
  196.2370  172.8090  137.3110 C   0  0  1  0  0  3  0  0  0  0  0  0
  195.1280  174.6730  137.8160 C   0  0  0  0  0  1  0  0  0  0  0  0
  196.2400  173.9110  138.1850 O   0  0  0  0  0  0  0  0  0  0  0  0
  197.5720  172.5900  136.7310 N   0  0  0  0  0  2  0  0  0  0  0  0
  197.9370  174.4660  135.3880 O   0  0  0  0  0  1  0  0  0  0  0  0
  196.3590  172.9050  134.7140 N   0  0  0  0  0  1  0  0  0  0  0  0
  197.6390  173.1060  135.3670 C   0  0  2  0  0  3  0  0  0  0  0  0
  192.6630  174.1380  143.2920 N   0  0  0  0  0  2  0  0  0  0  0  0
  193.4780  175.2350  143.7830 C   0  0  2  0  0  3  0  0  0  0  0  0
  194.6270  175.3560  142.9990 O   0  0  0  0  0  1  0  0  0  0  0  0
  193.7960  175.0270  145.2640 C   0  0  2  0  0  3  0  0  0  0  0  0
  194.8060  174.0800  145.4170 O   0  0  0  0  0  1  0  0  0  0  0  0
  192.5850  174.6980  146.1410 C   0  0  0  0  0  2  0  0  0  0  0  0
  192.1770  175.8730  147.0190 C   0  0  0  0  0  2  0  0  0  0  0  0
  190.7460  175.7430  147.5490 C   0  0  1  0  0  3  0  0  0  0  0  0
  190.0090  177.0760  147.5400 C   0  0  0  0  0  1  0  0  0  0  0  0
  190.0280  174.7870  146.8180 O   0  0  0  0  0  1  0  0  0  0  0  0
  187.4380  178.4730  142.8950 C   0  0  0  0  0  2  0  0  0  0  0  0
  185.6920  177.3190  146.0010 C   0  0  2  0  0  3  0  0  0  0  0  0
  185.5380  180.3620  144.1460 O   0  0  0  0  0  0  0  0  0  0  0  0
  185.0460  178.6980  145.8240 C   0  0  2  0  0  3  0  0  0  0  0  0
  183.6770  178.5830  145.6360 F   0  0  0  0  0  0  0  0  0  0  0  0
  186.4410  178.2030  143.9180 N   0  0  0  0  0  0  0  0  0  0  0  0
  186.4280  176.9830  144.6930 C   0  0  0  0  0  2  0  0  0  0  0  0
  185.6720  179.1870  144.5770 C   0  0  0  0  0  0  0  0  0  0  0  0
  184.7500  176.3480  146.2960 F   0  0  0  0  0  0  0  0  0  0  0  0
  1  8  2  0  0  0  0
  2 53  1  0  0  0  0
  2  1  1  0  0  0  0
  3  2  2  0  0  0  0
  4  3  1  0  0  0  0
  5  8  1  0  0  0  0
  6  3  1  6  0  0  0
  6  5  1  0  0  0  0
  7 11  1  0  0  0  0
  9  6  1  0  0  0  0
 10 12  1  0  0  0  0
 11  5  2  0  0  0  0
 11 43  1  0  0  0  0
 12  9  1  0  0  0  0
 12  7  2  0  0  0  0
 13  4  2  0  0  0  0
 13  9  1  0  0  0  0
 14 19  1  6  0  0  0
 14 17  1  0  0  0  0
 15  7  1  1  0  0  0
 15 14  1  0  0  0  0
 16 15  1  0  0  0  0
 16 18  1  0  0  0  0
 17 20  1  0  0  0  0
 18 17  1  0  0  0  0
 21 27  1  0  0  0  0
 22 23  1  0  0  0  0
 23 20  1  1  0  0  0
 23 25  1  0  0  0  0
 24 30  1  6  0  0  0
 24 26  1  0  0  0  0
 25 22  1  6  0  0  0
 25 24  1  0  0  0  0
 25 29  1  0  0  0  0
 26 28  1  0  0  0  0
 28 27  2  0  0  0  0
 29 21  2  0  0  0  0
 31 18  1  0  0  0  0
 32 31  1  0  0  0  0
 33 34  2  0  0  0  0
 34 32  1  0  0  0  0
 35 34  2  0  0  0  0
 36 39  1  1  0  0  0
 36 34  1  0  0  0  0
 36 38  1  0  0  0  0
 37 38  1  0  0  0  0
 42 41  1  1  0  0  0
 42 40  1  0  0  0  0
 42 39  1  0  0  0  0
 43 44  1  0  0  0  0
 44 45  1  6  0  0  0
 44 46  1  0  0  0  0
 46 47  1  6  0  0  0
 46 48  1  0  0  0  0
 48 49  1  0  0  0  0
 49 50  1  0  0  0  0
 50 51  1  6  0  0  0
 52 50  1  0  0  0  0
 53 58  1  0  0  0  0
 54 61  1  6  0  0  0
 55 60  2  0  0  0  0
 56 57  1  6  0  0  0
 56 54  1  0  0  0  0
 58 60  1  0  0  0  0
 58 59  1  0  0  0  0
 59 54  1  0  0  0  0
 60 56  1  0  0  0  0
M  END
>  <MODEL>
2

>  <REMARK>
 VINA RESULT:      -6.9      1.324      2.332
  Name = 
  18 active torsions:
  status: ('A' for Active; 'I' for Inactive)
    1  A    between atoms: C_2  and  N_9
    2  A    between atoms: C_2  and  C_29
    3  A    between atoms: C_3  and  C_30
    4  A    between atoms: C_3  and  C_58
    5  A    between atoms: C_4  and  C_8
    6  A    between atoms: C_4  and  N_44
    7  A    between atoms: N_9  and  C_51
    8  A    between atoms: C_12  and  S_16
    9  A    between atoms: C_12  and  C_26
   10  A    between atoms: O_13  and  C_15
   11  A    between atoms: C_15  and  S_16
   12  A    between atoms: C_15  and  N_35
   13  A    between atoms: C_18  and  C_19
   14  A    between atoms: C_18  and  N_41
   15  A    between atoms: C_23  and  C_37
   16  A    between atoms: C_26  and  N_45
   17  A    between atoms: C_29  and  C_58
   18  A    between atoms: N_35  and  C_40
                            x       y       z     vdW  Elec       q    Type
                         _______ _______ _______ _____ _____    ______ ____

>  <TORSDO>
F 18

$$$$
=
 OpenBabel11042419413D

 61 67  0  0  1  0  0  0  0  0999 V2000
  187.8710  176.1310  141.8590 C   0  0  0  0  0  3  0  0  0  0  0  0
  188.1820  177.1510  142.6850 C   0  0  0  0  0  0  0  0  0  0  0  0
  189.5690  177.2720  143.1360 C   0  0  0  0  0  0  0  0  0  0  0  0
  190.2290  178.1590  143.9850 C   0  0  0  0  0  3  0  0  0  0  0  0
  190.3040  175.3030  141.9190 C   0  0  0  0  0  0  0  0  0  0  0  0
  190.5090  176.3870  142.7460 C   0  0  0  0  0  0  0  0  0  0  0  0
  192.6920  174.8050  142.2650 C   0  0  0  0  0  0  0  0  0  0  0  0
  188.8970  175.1020  141.3680 C   0  0  0  0  0  2  0  0  0  0  0  0
  191.6730  176.6890  143.3060 N   0  0  0  0  0  0  0  0  0  0  0  0
  194.0170  176.3060  143.7250 N   0  0  0  0  0  1  0  0  0  0  0  0
  191.4290  174.4670  141.6660 C   0  0  0  0  0  0  0  0  0  0  0  0
  192.7870  175.9480  143.0990 C   0  0  0  0  0  0  0  0  0  0  0  0
  191.5330  177.7670  144.0650 N   0  0  0  0  0  0  0  0  0  0  0  0
  194.4520  174.0430  140.6390 C   0  0  2  0  0  3  0  0  0  0  0  0
  193.9370  173.9800  142.0470 C   0  0  2  0  0  3  0  0  0  0  0  0
  193.7180  172.5180  142.2750 C   0  0  0  0  0  2  0  0  0  0  0  0
  194.9910  172.7260  140.3210 N   0  0  0  0  0  0  0  0  0  0  0  0
  194.5590  171.8090  141.3160 N   0  0  0  0  0  0  0  0  0  0  0  0
  195.5520  175.0860  140.5410 C   0  0  0  0  0  1  0  0  0  0  0  0
  194.3830  172.3150  139.0610 C   0  0  0  0  0  2  0  0  0  0  0  0
  190.7990  171.9630  136.9970 C   0  0  0  0  0  3  0  0  0  0  0  0
  193.8710  170.2330  137.8040 C   0  0  0  0  0  2  0  0  0  0  0  0
  193.8230  170.9040  139.1680 C   0  0  2  0  0  3  0  0  0  0  0  0
  191.5980  169.5610  138.8060 C   0  0  1  0  0  3  0  0  0  0  0  0
  192.5400  170.6900  138.3590 C   0  0  2  0  0  0  0  0  0  0  0  0
  191.0120  168.9010  137.5800 C   0  0  0  0  0  2  0  0  0  0  0  0
  189.7370  170.9470  136.8450 C   0  0  0  0  0  3  0  0  0  0  0  0
  189.7970  169.6390  137.1120 C   0  0  0  0  0  3  0  0  0  0  0  0
  191.9760  171.8710  137.6290 C   0  0  0  0  0  3  0  0  0  0  0  0
  192.2550  168.5030  139.6790 C   0  0  0  0  0  1  0  0  0  0  0  0
  195.7480  171.3790  142.0450 C   0  0  0  0  0  2  0  0  0  0  0  0
  195.3960  170.2460  142.9910 C   0  0  0  0  0  2  0  0  0  0  0  0
  197.9280  170.7630  143.6860 O   0  0  0  0  0  0  0  0  0  0  0  0
  196.7130  170.0240  144.1640 S   0  0  0  0  0  0  0  0  0  0  0  0
  197.0360  168.5610  144.2730 O   0  0  0  0  0  0  0  0  0  0  0  0
  196.1920  170.6520  145.7600 C   0  0  1  0  0  3  0  0  0  0  0  0
  195.1750  169.1280  147.0260 C   0  0  0  0  0  1  0  0  0  0  0  0
  196.4230  169.7030  146.7710 O   0  0  0  0  0  0  0  0  0  0  0  0
  196.8280  171.9390  146.0860 N   0  0  0  0  0  2  0  0  0  0  0  0
  196.8230  174.2370  145.6660 O   0  0  0  0  0  1  0  0  0  0  0  0
  194.8020  173.1000  145.6550 N   0  0  0  0  0  1  0  0  0  0  0  0
  196.2150  173.0290  145.3330 C   0  0  2  0  0  3  0  0  0  0  0  0
  191.3480  173.2960  140.8350 N   0  0  0  0  0  2  0  0  0  0  0  0
  190.5360  172.1220  141.1000 C   0  0  2  0  0  3  0  0  0  0  0  0
  189.2280  172.3460  140.6640 O   0  0  0  0  0  1  0  0  0  0  0  0
  190.6070  171.7620  142.5840 C   0  0  2  0  0  3  0  0  0  0  0  0
  191.0090  170.4370  142.7460 O   0  0  0  0  0  1  0  0  0  0  0  0
  189.3330  172.0600  143.3790 C   0  0  0  0  0  2  0  0  0  0  0  0
  189.6180  172.2590  144.8620 C   0  0  0  0  0  2  0  0  0  0  0  0
  190.1390  173.6630  145.1770 C   0  0  1  0  0  3  0  0  0  0  0  0
  189.4820  174.2530  146.4180 C   0  0  0  0  0  1  0  0  0  0  0  0
  191.5340  173.6560  145.3240 O   0  0  0  0  0  1  0  0  0  0  0  0
  187.1370  178.1130  143.1410 C   0  0  0  0  0  2  0  0  0  0  0  0
  187.1850  177.2320  146.7800 C   0  0  2  0  0  3  0  0  0  0  0  0
  185.5040  179.7890  144.9480 O   0  0  0  0  0  0  0  0  0  0  0  0
  186.1930  178.4000  146.7980 C   0  0  2  0  0  3  0  0  0  0  0  0
  184.9470  177.9860  147.2470 F   0  0  0  0  0  0  0  0  0  0  0  0
  186.7550  177.8460  144.5180 N   0  0  0  0  0  0  0  0  0  0  0  0
  187.3770  176.8120  145.3140 C   0  0  0  0  0  2  0  0  0  0  0  0
  186.1010  178.7640  145.3670 C   0  0  0  0  0  0  0  0  0  0  0  0
  186.7330  176.1660  147.5400 F   0  0  0  0  0  0  0  0  0  0  0  0
  1  2  2  0  0  0  0
  2  3  1  0  0  0  0
  2 53  1  0  0  0  0
  3  4  1  0  0  0  0
  4 13  2  0  0  0  0
  5  6  1  0  0  0  0
  6  3  2  0  0  0  0
  6  9  1  0  0  0  0
  7 12  2  0  0  0  0
  8  1  1  0  0  0  0
  8  5  1  0  0  0  0
  9 13  1  0  0  0  0
 11  5  2  0  0  0  0
 11  7  1  0  0  0  0
 12  9  1  0  0  0  0
 12 10  1  0  0  0  0
 14 19  1  1  0  0  0
 14 15  1  0  0  0  0
 15  7  1  6  0  0  0
 15 16  1  0  0  0  0
 17 14  1  0  0  0  0
 17 18  1  0  0  0  0
 18 31  1  0  0  0  0
 18 16  1  0  0  0  0
 20 17  1  0  0  0  0
 21 29  2  0  0  0  0
 22 25  1  0  0  0  0
 22 23  1  0  0  0  0
 23 20  1  6  0  0  0
 24 30  1  6  0  0  0
 25 29  1  6  0  0  0
 25 24  1  0  0  0  0
 25 23  1  0  0  0  0
 26 24  1  0  0  0  0
 27 21  1  0  0  0  0
 27 28  2  0  0  0  0
 28 26  1  0  0  0  0
 31 32  1  0  0  0  0
 32 34  1  0  0  0  0
 33 34  2  0  0  0  0
 34 35  2  0  0  0  0
 34 36  1  0  0  0  0
 36 39  1  1  0  0  0
 36 38  1  0  0  0  0
 38 37  1  0  0  0  0
 42 41  1  1  0  0  0
 42 40  1  0  0  0  0
 42 39  1  0  0  0  0
 43 44  1  0  0  0  0
 43 11  1  0  0  0  0
 44 45  1  1  0  0  0
 44 46  1  0  0  0  0
 46 47  1  6  0  0  0
 46 48  1  0  0  0  0
 48 49  1  0  0  0  0
 49 50  1  0  0  0  0
 50 52  1  0  0  0  0
 50 51  1  1  0  0  0
 53 58  1  0  0  0  0
 54 56  1  0  0  0  0
 54 61  1  1  0  0  0
 55 60  2  0  0  0  0
 56 57  1  6  0  0  0
 58 59  1  0  0  0  0
 58 60  1  0  0  0  0
 59 54  1  0  0  0  0
 60 56  1  0  0  0  0
M  END
>  <MODEL>
3

>  <REMARK>
 VINA RESULT:      -6.7      2.672      5.996
  Name = 
  18 active torsions:
  status: ('A' for Active; 'I' for Inactive)
    1  A    between atoms: C_2  and  N_9
    2  A    between atoms: C_2  and  C_29
    3  A    between atoms: C_3  and  C_30
    4  A    between atoms: C_3  and  C_58
    5  A    between atoms: C_4  and  C_8
    6  A    between atoms: C_4  and  N_44
    7  A    between atoms: N_9  and  C_51
    8  A    between atoms: C_12  and  S_16
    9  A    between atoms: C_12  and  C_26
   10  A    between atoms: O_13  and  C_15
   11  A    between atoms: C_15  and  S_16
   12  A    between atoms: C_15  and  N_35
   13  A    between atoms: C_18  and  C_19
   14  A    between atoms: C_18  and  N_41
   15  A    between atoms: C_23  and  C_37
   16  A    between atoms: C_26  and  N_45
   17  A    between atoms: C_29  and  C_58
   18  A    between atoms: N_35  and  C_40
                            x       y       z     vdW  Elec       q    Type
                         _______ _______ _______ _____ _____    ______ ____

>  <TORSDO>
F 18

$$$$
=
 OpenBabel11042419413D

 61 67  0  0  1  0  0  0  0  0999 V2000
  189.1780  177.5750  143.8030 C   0  0  0  0  0  3  0  0  0  0  0  0
  188.1770  177.5020  142.9020 C   0  0  0  0  0  0  0  0  0  0  0  0
  188.2070  176.4110  141.9270 C   0  0  0  0  0  0  0  0  0  0  0  0
  187.3780  176.0460  140.8670 C   0  0  0  0  0  3  0  0  0  0  0  0
  190.2880  175.4940  142.7800 C   0  0  0  0  0  0  0  0  0  0  0  0
  189.2100  175.5090  141.9200 C   0  0  2  0  0  3  0  0  0  0  0  0
  191.0550  173.5280  141.5080 C   0  0  0  0  0  0  0  0  0  0  0  0
  190.3370  176.5730  143.8560 C   0  0  0  0  0  3  0  0  0  0  0  0
  189.0310  174.6420  140.9330 N   0  0  0  0  0  0  0  0  0  0  0  0
  189.6760  172.7320  139.6090 N   0  0  0  0  0  1  0  0  0  0  0  0
  191.2590  174.4730  142.5720 C   0  0  0  0  0  0  0  0  0  0  0  0
  189.9050  173.6390  140.6860 C   0  0  0  0  0  0  0  0  0  0  0  0
  187.9200  174.9440  140.2740 N   0  0  0  0  0  0  0  0  0  0  0  0
  191.9330  171.2740  142.1930 C   0  0  2  0  0  3  0  0  0  0  0  0
  192.0290  172.4120  141.2210 C   0  0  2  0  0  3  0  0  0  0  0  0
  193.4580  172.8400  141.3230 C   0  0  0  0  0  2  0  0  0  0  0  0
  193.2850  170.7660  142.3930 N   0  0  0  0  0  0  0  0  0  0  0  0
  194.2050  171.7050  141.8550 N   0  0  0  0  0  0  0  0  0  0  0  0
  191.0520  170.1780  141.6180 C   0  0  0  0  0  1  0  0  0  0  0  0
  193.5090  170.7170  143.8330 C   0  0  0  0  0  2  0  0  0  0  0  0
  194.4800  168.4220  147.1530 C   0  0  0  0  0  3  0  0  0  0  0  0
  195.6530  169.4610  143.8930 C   0  0  0  0  0  2  0  0  0  0  0  0
  194.9950  170.8090  144.1500 C   0  0  2  0  0  3  0  0  0  0  0  0
  196.7020  170.3190  146.0810 C   0  0  1  0  0  3  0  0  0  0  0  0
  195.4300  169.9190  145.3190 C   0  0  2  0  0  0  0  0  0  0  0  0
  197.4580  169.0660  146.4600 C   0  0  0  0  0  2  0  0  0  0  0  0
  195.6640  168.2140  148.0120 C   0  0  0  0  0  3  0  0  0  0  0  0
  196.9410  168.5060  147.7470 C   0  0  0  0  0  3  0  0  0  0  0  0
  194.3660  169.1330  146.0240 C   0  0  0  0  0  3  0  0  0  0  0  0
  197.6270  171.2500  145.3150 C   0  0  0  0  0  1  0  0  0  0  0  0
  194.8530  171.0630  140.7160 C   0  0  0  0  0  2  0  0  0  0  0  0
  194.7480  171.9520  139.4910 C   0  0  0  0  0  2  0  0  0  0  0  0
  197.3480  172.1140  140.1060 O   0  0  0  0  0  0  0  0  0  0  0  0
  196.3470  172.6340  139.1170 S   0  0  0  0  0  0  0  0  0  0  0  0
  196.2830  174.1310  139.2210 O   0  0  0  0  0  0  0  0  0  0  0  0
  196.8150  172.1600  137.4530 C   0  0  1  0  0  3  0  0  0  0  0  0
  197.6360  173.2450  135.6890 C   0  0  0  0  0  1  0  0  0  0  0  0
  197.9240  172.9040  137.0140 O   0  0  0  0  0  0  0  0  0  0  0  0
  197.0660  170.7140  137.3360 N   0  0  0  0  0  2  0  0  0  0  0  0
  195.2950  169.1920  137.3110 O   0  0  0  0  0  1  0  0  0  0  0  0
  196.6660  169.3320  135.4460 N   0  0  0  0  0  1  0  0  0  0  0  0
  196.0370  170.0700  136.5260 C   0  0  2  0  0  3  0  0  0  0  0  0
  192.4390  174.3540  143.3880 N   0  0  0  0  0  2  0  0  0  0  0  0
  192.4860  173.8250  144.7390 C   0  0  2  0  0  3  0  0  0  0  0  0
  191.1870  173.6080  145.2050 O   0  0  0  0  0  1  0  0  0  0  0  0
  193.2850  174.7660  145.6410 C   0  0  2  0  0  3  0  0  0  0  0  0
  192.6380  174.9370  146.8630 O   0  0  0  0  0  1  0  0  0  0  0  0
  193.6440  176.1120  145.0060 C   0  0  0  0  0  2  0  0  0  0  0  0
  195.1500  176.3180  144.9150 C   0  0  0  0  0  2  0  0  0  0  0  0
  195.8060  175.4020  143.8770 C   0  0  1  0  0  3  0  0  0  0  0  0
  195.5600  175.8810  142.4530 C   0  0  0  0  0  1  0  0  0  0  0  0
  197.1830  175.2820  144.1170 O   0  0  0  0  0  1  0  0  0  0  0  0
  187.0830  178.5160  142.8890 C   0  0  0  0  0  2  0  0  0  0  0  0
  185.5480  177.4500  146.1350 C   0  0  2  0  0  3  0  0  0  0  0  0
  185.4070  180.5030  144.2970 O   0  0  0  0  0  0  0  0  0  0  0  0
  184.9690  178.8630  146.0130 C   0  0  2  0  0  3  0  0  0  0  0  0
  183.5840  178.8260  145.9440 F   0  0  0  0  0  0  0  0  0  0  0  0
  186.1640  178.2980  143.9940 N   0  0  0  0  0  0  0  0  0  0  0  0
  186.1490  177.0780  144.7690 C   0  0  0  0  0  2  0  0  0  0  0  0
  185.5110  179.3220  144.7150 C   0  0  0  0  0  0  0  0  0  0  0  0
  184.5820  176.5320  146.5110 F   0  0  0  0  0  0  0  0  0  0  0  0
  1  8  2  0  0  0  0
  2  1  1  0  0  0  0
  3  2  2  0  0  0  0
  4  3  1  0  0  0  0
  5  8  1  0  0  0  0
  6  3  1  6  0  0  0
  6  5  1  0  0  0  0
  7 11  1  0  0  0  0
  9  6  1  0  0  0  0
 10 12  1  0  0  0  0
 11  5  2  0  0  0  0
 11 43  1  0  0  0  0
 12  9  1  0  0  0  0
 12  7  2  0  0  0  0
 13  4  2  0  0  0  0
 13  9  1  0  0  0  0
 14 19  1  6  0  0  0
 14 17  1  0  0  0  0
 15 16  1  0  0  0  0
 15  7  1  1  0  0  0
 15 14  1  0  0  0  0
 16 18  1  0  0  0  0
 17 20  1  0  0  0  0
 18 17  1  0  0  0  0
 21 27  1  0  0  0  0
 22 23  1  0  0  0  0
 23 20  1  1  0  0  0
 23 25  1  0  0  0  0
 24 30  1  6  0  0  0
 24 26  1  0  0  0  0
 25 22  1  6  0  0  0
 25 29  1  0  0  0  0
 25 24  1  0  0  0  0
 26 28  1  0  0  0  0
 28 27  2  0  0  0  0
 29 21  2  0  0  0  0
 31 18  1  0  0  0  0
 32 31  1  0  0  0  0
 34 35  2  0  0  0  0
 34 32  1  0  0  0  0
 34 33  2  0  0  0  0
 36 38  1  1  0  0  0
 36 34  1  0  0  0  0
 37 38  1  0  0  0  0
 39 36  1  0  0  0  0
 42 41  1  6  0  0  0
 42 40  1  0  0  0  0
 42 39  1  0  0  0  0
 43 44  1  0  0  0  0
 44 45  1  1  0  0  0
 44 46  1  0  0  0  0
 46 47  1  1  0  0  0
 48 46  1  0  0  0  0
 49 48  1  0  0  0  0
 50 51  1  6  0  0  0
 50 52  1  0  0  0  0
 50 49  1  0  0  0  0
 53  2  1  0  0  0  0
 53 58  1  0  0  0  0
 54 61  1  6  0  0  0
 55 60  2  0  0  0  0
 56 57  1  6  0  0  0
 56 54  1  0  0  0  0
 58 60  1  0  0  0  0
 58 59  1  0  0  0  0
 59 54  1  0  0  0  0
 60 56  1  0  0  0  0
M  END
>  <MODEL>
4

>  <REMARK>
 VINA RESULT:      -6.7      1.471      1.975
  Name = 
  18 active torsions:
  status: ('A' for Active; 'I' for Inactive)
    1  A    between atoms: C_2  and  N_9
    2  A    between atoms: C_2  and  C_29
    3  A    between atoms: C_3  and  C_30
    4  A    between atoms: C_3  and  C_58
    5  A    between atoms: C_4  and  C_8
    6  A    between atoms: C_4  and  N_44
    7  A    between atoms: N_9  and  C_51
    8  A    between atoms: C_12  and  S_16
    9  A    between atoms: C_12  and  C_26
   10  A    between atoms: O_13  and  C_15
   11  A    between atoms: C_15  and  S_16
   12  A    between atoms: C_15  and  N_35
   13  A    between atoms: C_18  and  C_19
   14  A    between atoms: C_18  and  N_41
   15  A    between atoms: C_23  and  C_37
   16  A    between atoms: C_26  and  N_45
   17  A    between atoms: C_29  and  C_58
   18  A    between atoms: N_35  and  C_40
                            x       y       z     vdW  Elec       q    Type
                         _______ _______ _______ _____ _____    ______ ____

>  <TORSDO>
F 18

$$$$
=
 OpenBabel11042419413D

 61 67  0  0  1  0  0  0  0  0999 V2000
  183.1990  178.7060  144.2650 C   0  0  0  0  0  3  0  0  0  0  0  0
  182.6500  178.9570  143.0600 C   0  0  0  0  0  0  0  0  0  0  0  0
  183.4010  178.5650  141.8660 C   0  0  0  0  0  0  0  0  0  0  0  0
  183.1620  178.6840  140.4980 C   0  0  0  0  0  3  0  0  0  0  0  0
  185.2730  177.6860  143.1390 C   0  0  0  0  0  0  0  0  0  0  0  0
  184.6110  177.9780  141.9650 C   0  0  2  0  0  3  0  0  0  0  0  0
  187.0870  176.8380  141.7040 C   0  0  0  0  0  0  0  0  0  0  0  0
  184.5630  178.0280  144.4440 C   0  0  0  0  0  3  0  0  0  0  0  0
  185.1010  177.7440  140.7550 N   0  0  0  0  0  0  0  0  0  0  0  0
  186.8050  176.9500  139.2440 N   0  0  0  0  0  1  0  0  0  0  0  0
  186.5660  177.1000  143.0180 C   0  0  0  0  0  0  0  0  0  0  0  0
  186.3150  177.1770  140.5640 C   0  0  0  0  0  0  0  0  0  0  0  0
  184.2370  178.1630  139.8390 N   0  0  0  0  0  0  0  0  0  0  0  0
  188.4430  174.7220  141.6280 C   0  0  2  0  0  3  0  0  0  0  0  0
  188.4430  176.2150  141.4820 C   0  0  2  0  0  3  0  0  0  0  0  0
  189.4650  176.6630  142.4780 C   0  0  0  0  0  2  0  0  0  0  0  0
  189.7170  174.3500  142.2320 N   0  0  0  0  0  0  0  0  0  0  0  0
  190.3400  175.5230  142.7320 N   0  0  0  0  0  0  0  0  0  0  0  0
  188.3110  174.0710  140.2610 C   0  0  0  0  0  1  0  0  0  0  0  0
  189.4090  173.5000  143.3770 C   0  0  0  0  0  2  0  0  0  0  0  0
  193.1380  173.1770  145.1710 C   0  0  0  0  0  3  0  0  0  0  0  0
  190.0580  171.3950  144.5280 C   0  0  0  0  0  2  0  0  0  0  0  0
  189.9930  172.1080  143.1850 C   0  0  2  0  0  3  0  0  0  0  0  0
  192.2680  170.8110  143.3480 C   0  0  1  0  0  3  0  0  0  0  0  0
  191.3350  171.9020  143.8950 C   0  0  2  0  0  0  0  0  0  0  0  0
  192.9560  170.1290  144.5090 C   0  0  0  0  0  2  0  0  0  0  0  0
  194.2310  172.1840  145.2160 C   0  0  0  0  0  3  0  0  0  0  0  0
  194.1820  170.8840  144.9130 C   0  0  0  0  0  3  0  0  0  0  0  0
  191.9220  173.0740  144.6210 C   0  0  0  0  0  3  0  0  0  0  0  0
  191.5750  169.7630  142.4900 C   0  0  0  0  0  1  0  0  0  0  0  0
  191.5440  175.7390  141.9380 C   0  0  0  0  0  2  0  0  0  0  0  0
  192.5790  176.4900  142.7560 C   0  0  0  0  0  2  0  0  0  0  0  0
  194.7010  176.6470  141.1330 O   0  0  0  0  0  0  0  0  0  0  0  0
  194.2040  175.9030  142.3360 S   0  0  0  0  0  0  0  0  0  0  0  0
  194.1330  174.4370  142.0160 O   0  0  0  0  0  0  0  0  0  0  0  0
  195.3030  176.1680  143.7280 C   0  0  1  0  0  3  0  0  0  0  0  0
  194.9350  177.4700  145.4970 C   0  0  0  0  0  1  0  0  0  0  0  0
  194.5790  176.2420  144.9300 O   0  0  0  0  0  0  0  0  0  0  0  0
  196.3580  175.1450  143.8070 N   0  0  0  0  0  2  0  0  0  0  0  0
  197.5590  177.0320  143.1360 O   0  0  0  0  0  1  0  0  0  0  0  0
  197.8340  175.0590  141.9480 N   0  0  0  0  0  1  0  0  0  0  0  0
  197.6140  175.6460  143.2570 C   0  0  2  0  0  3  0  0  0  0  0  0
  187.3690  176.7620  144.1620 N   0  0  0  0  0  2  0  0  0  0  0  0
  187.6450  177.6320  145.2920 C   0  0  2  0  0  3  0  0  0  0  0  0
  188.9450  178.1320  145.1950 O   0  0  0  0  0  1  0  0  0  0  0  0
  187.4000  176.8800  146.6010 C   0  0  2  0  0  3  0  0  0  0  0  0
  187.4650  177.7540  147.6850 O   0  0  0  0  0  1  0  0  0  0  0  0
  188.2960  175.6570  146.8160 C   0  0  0  0  0  2  0  0  0  0  0  0
  189.5080  175.9800  147.6780 C   0  0  0  0  0  2  0  0  0  0  0  0
  190.8090  175.4160  147.0990 C   0  0  1  0  0  3  0  0  0  0  0  0
  191.5300  176.4290  146.2180 C   0  0  0  0  0  1  0  0  0  0  0  0
  191.6590  174.9710  148.1210 O   0  0  0  0  0  1  0  0  0  0  0  0
  181.3250  179.6340  142.9470 C   0  0  0  0  0  2  0  0  0  0  0  0
  178.5540  177.6880  141.3490 C   0  0  2  0  0  3  0  0  0  0  0  0
  180.3240  180.6170  140.3450 O   0  0  0  0  0  0  0  0  0  0  0  0
  178.7870  178.7570  140.2760 C   0  0  2  0  0  3  0  0  0  0  0  0
  179.1830  178.1790  139.0790 F   0  0  0  0  0  0  0  0  0  0  0  0
  180.4730  178.9460  141.9910 N   0  0  0  0  0  0  0  0  0  0  0  0
  179.7440  177.7430  142.3210 C   0  0  0  0  0  2  0  0  0  0  0  0
  179.9120  179.5360  140.8380 C   0  0  0  0  0  0  0  0  0  0  0  0
  178.4320  176.4250  140.7940 F   0  0  0  0  0  0  0  0  0  0  0  0
  1  8  2  0  0  0  0
  2  1  1  0  0  0  0
  3  2  2  0  0  0  0
  4  3  1  0  0  0  0
  5  8  1  0  0  0  0
  6  3  1  6  0  0  0
  6  5  1  0  0  0  0
  7 11  1  0  0  0  0
  9  6  1  0  0  0  0
 10 12  1  0  0  0  0
 11  5  2  0  0  0  0
 11 43  1  0  0  0  0
 12  9  1  0  0  0  0
 12  7  2  0  0  0  0
 13  4  2  0  0  0  0
 13  9  1  0  0  0  0
 14 19  1  6  0  0  0
 14 17  1  0  0  0  0
 15 14  1  0  0  0  0
 15  7  1  1  0  0  0
 15 16  1  0  0  0  0
 16 18  1  0  0  0  0
 17 18  1  0  0  0  0
 17 20  1  0  0  0  0
 21 27  1  0  0  0  0
 23 20  1  1  0  0  0
 23 25  1  0  0  0  0
 23 22  1  0  0  0  0
 24 30  1  1  0  0  0
 24 25  1  0  0  0  0
 24 26  1  0  0  0  0
 25 22  1  1  0  0  0
 25 29  1  0  0  0  0
 26 28  1  0  0  0  0
 28 27  2  0  0  0  0
 29 21  2  0  0  0  0
 31 18  1  0  0  0  0
 31 32  1  0  0  0  0
 33 34  2  0  0  0  0
 34 32  1  0  0  0  0
 34 36  1  0  0  0  0
 35 34  2  0  0  0  0
 36 39  1  1  0  0  0
 36 38  1  0  0  0  0
 38 37  1  0  0  0  0
 40 42  1  0  0  0  0
 42 41  1  6  0  0  0
 42 39  1  0  0  0  0
 43 44  1  0  0  0  0
 44 45  1  1  0  0  0
 44 46  1  0  0  0  0
 46 48  1  0  0  0  0
 46 47  1  1  0  0  0
 48 49  1  0  0  0  0
 50 51  1  1  0  0  0
 50 49  1  0  0  0  0
 50 52  1  0  0  0  0
 53  2  1  0  0  0  0
 54 61  1  6  0  0  0
 54 59  1  0  0  0  0
 55 60  2  0  0  0  0
 56 57  1  6  0  0  0
 56 60  1  0  0  0  0
 56 54  1  0  0  0  0
 58 59  1  0  0  0  0
 58 53  1  0  0  0  0
 60 58  1  0  0  0  0
M  END
>  <MODEL>
5

>  <REMARK>
 VINA RESULT:      -5.9      3.680      6.016
  Name = 
  18 active torsions:
  status: ('A' for Active; 'I' for Inactive)
    1  A    between atoms: C_2  and  N_9
    2  A    between atoms: C_2  and  C_29
    3  A    between atoms: C_3  and  C_30
    4  A    between atoms: C_3  and  C_58
    5  A    between atoms: C_4  and  C_8
    6  A    between atoms: C_4  and  N_44
    7  A    between atoms: N_9  and  C_51
    8  A    between atoms: C_12  and  S_16
    9  A    between atoms: C_12  and  C_26
   10  A    between atoms: O_13  and  C_15
   11  A    between atoms: C_15  and  S_16
   12  A    between atoms: C_15  and  N_35
   13  A    between atoms: C_18  and  C_19
   14  A    between atoms: C_18  and  N_41
   15  A    between atoms: C_23  and  C_37
   16  A    between atoms: C_26  and  N_45
   17  A    between atoms: C_29  and  C_58
   18  A    between atoms: N_35  and  C_40
                            x       y       z     vdW  Elec       q    Type
                         _______ _______ _______ _____ _____    ______ ____

>  <TORSDO>
F 18

$$$$
=
 OpenBabel11042419413D

 61 67  0  0  1  0  0  0  0  0999 V2000
  187.2470  176.3580  141.9740 C   0  0  0  0  0  3  0  0  0  0  0  0
  186.6700  176.7760  140.8290 C   0  0  0  0  0  0  0  0  0  0  0  0
  187.0690  176.1250  139.5800 C   0  0  0  0  0  0  0  0  0  0  0  0
  186.7110  176.3060  138.2450 C   0  0  0  0  0  3  0  0  0  0  0  0
  188.6540  174.6440  140.6730 C   0  0  0  0  0  0  0  0  0  0  0  0
  187.9910  175.1410  139.5710 C   0  0  2  0  0  3  0  0  0  0  0  0
  189.8420  173.1810  139.0860 C   0  0  0  0  0  0  0  0  0  0  0  0
  188.2900  175.2350  142.0300 C   0  0  0  0  0  3  0  0  0  0  0  0
  188.2030  174.7320  138.3260 N   0  0  0  0  0  0  0  0  0  0  0  0
  189.2980  173.3590  136.6750 N   0  0  0  0  0  1  0  0  0  0  0  0
  189.6250  173.6300  140.4340 C   0  0  0  0  0  0  0  0  0  0  0  0
  189.0990  173.7630  138.0280 C   0  0  0  0  0  0  0  0  0  0  0  0
  187.4330  175.4240  137.4960 N   0  0  0  0  0  0  0  0  0  0  0  0
  190.7340  170.8900  139.6120 C   0  0  2  0  0  3  0  0  0  0  0  0
  190.8450  172.1080  138.7420 C   0  0  2  0  0  3  0  0  0  0  0  0
  192.2620  172.5460  138.9340 C   0  0  0  0  0  2  0  0  0  0  0  0
  192.0870  170.3870  139.8190 N   0  0  0  0  0  0  0  0  0  0  0  0
  193.0090  171.3810  139.3970 N   0  0  0  0  0  0  0  0  0  0  0  0
  189.8930  169.8340  138.9140 C   0  0  0  0  0  1  0  0  0  0  0  0
  192.2590  170.2200  141.2580 C   0  0  0  0  0  2  0  0  0  0  0  0
  193.8150  171.1380  144.9940 C   0  0  0  0  0  3  0  0  0  0  0  0
  193.1950  168.4190  142.6920 C   0  0  0  0  0  2  0  0  0  0  0  0
  193.4970  169.3870  141.5580 C   0  0  2  0  0  3  0  0  0  0  0  0
  195.5590  169.3110  143.1780 C   0  0  1  0  0  3  0  0  0  0  0  0
  194.0710  169.6230  142.9580 C   0  0  2  0  0  0  0  0  0  0  0  0
  195.7340  168.7120  144.5550 C   0  0  0  0  0  2  0  0  0  0  0  0
  195.0270  170.8040  145.7700 C   0  0  0  0  0  3  0  0  0  0  0  0
  195.8750  169.7880  145.5840 C   0  0  0  0  0  3  0  0  0  0  0  0
  193.4030  170.6540  143.8160 C   0  0  0  0  0  3  0  0  0  0  0  0
  196.1640  168.3740  142.1440 C   0  0  0  0  0  1  0  0  0  0  0  0
  193.7080  170.8470  138.2340 C   0  0  0  0  0  2  0  0  0  0  0  0
  193.8590  171.9270  137.1780 C   0  0  0  0  0  2  0  0  0  0  0  0
  195.7450  173.2050  135.7740 O   0  0  0  0  0  0  0  0  0  0  0  0
  195.5820  172.3160  136.9700 S   0  0  0  0  0  0  0  0  0  0  0  0
  196.3520  171.0460  136.7510 O   0  0  0  0  0  0  0  0  0  0  0  0
  196.1790  173.1430  138.4450 C   0  0  1  0  0  3  0  0  0  0  0  0
  197.9400  174.1260  137.4990 C   0  0  0  0  0  1  0  0  0  0  0  0
  197.5850  173.1780  138.4630 O   0  0  0  0  0  0  0  0  0  0  0  0
  195.6140  174.4940  138.5930 N   0  0  0  0  0  2  0  0  0  0  0  0
  194.1550  175.4700  140.1350 O   0  0  0  0  0  1  0  0  0  0  0  0
  196.4390  175.6540  140.4950 N   0  0  0  0  0  1  0  0  0  0  0  0
  195.3710  174.8050  139.9990 C   0  0  2  0  0  3  0  0  0  0  0  0
  190.3970  173.0380  141.4940 N   0  0  0  0  0  2  0  0  0  0  0  0
  191.1470  173.7630  142.5050 C   0  0  2  0  0  3  0  0  0  0  0  0
  192.5160  173.6130  142.2740 O   0  0  0  0  0  1  0  0  0  0  0  0
  190.7310  173.2950  143.9000 C   0  0  2  0  0  3  0  0  0  0  0  0
  189.6220  172.4540  143.8220 O   0  0  0  0  0  1  0  0  0  0  0  0
  190.5080  174.4200  144.9150 C   0  0  0  0  0  2  0  0  0  0  0  0
  190.9510  175.7730  144.3760 C   0  0  0  0  0  2  0  0  0  0  0  0
  190.4700  176.9380  145.2450 C   0  0  1  0  0  3  0  0  0  0  0  0
  188.9530  177.0700  145.2380 C   0  0  0  0  0  1  0  0  0  0  0  0
  190.9390  176.8070  146.5600 O   0  0  0  0  0  1  0  0  0  0  0  0
  185.6720  177.8840  140.8340 C   0  0  0  0  0  2  0  0  0  0  0  0
  185.4480  179.7940  144.0480 C   0  0  2  0  0  3  0  0  0  0  0  0
  183.0480  177.9140  142.1960 O   0  0  0  0  0  0  0  0  0  0  0  0
  184.0230  179.2350  143.9660 C   0  0  2  0  0  3  0  0  0  0  0  0
  183.7530  178.4050  145.0440 F   0  0  0  0  0  0  0  0  0  0  0  0
  185.3670  178.2980  142.1940 N   0  0  0  0  0  0  0  0  0  0  0  0
  186.2980  179.0430  143.0110 C   0  0  0  0  0  2  0  0  0  0  0  0
  184.0660  178.4280  142.7270 C   0  0  0  0  0  0  0  0  0  0  0  0
  185.9810  179.6480  145.3170 F   0  0  0  0  0  0  0  0  0  0  0  0
  1  8  2  0  0  0  0
  2 53  1  0  0  0  0
  2  1  1  0  0  0  0
  3  2  2  0  0  0  0
  4  3  1  0  0  0  0
  5  8  1  0  0  0  0
  6  3  1  6  0  0  0
  6  5  1  0  0  0  0
  7 11  1  0  0  0  0
  9  6  1  0  0  0  0
 10 12  1  0  0  0  0
 11  5  2  0  0  0  0
 11 43  1  0  0  0  0
 12  9  1  0  0  0  0
 12  7  2  0  0  0  0
 13  4  2  0  0  0  0
 13  9  1  0  0  0  0
 14 19  1  6  0  0  0
 14 17  1  0  0  0  0
 15 16  1  0  0  0  0
 15  7  1  1  0  0  0
 15 14  1  0  0  0  0
 16 18  1  0  0  0  0
 17 20  1  0  0  0  0
 18 17  1  0  0  0  0
 21 27  1  0  0  0  0
 23 20  1  1  0  0  0
 23 22  1  0  0  0  0
 23 25  1  0  0  0  0
 24 30  1  6  0  0  0
 24 26  1  0  0  0  0
 25 22  1  1  0  0  0
 25 24  1  0  0  0  0
 25 29  1  0  0  0  0
 26 28  1  0  0  0  0
 28 27  2  0  0  0  0
 29 21  2  0  0  0  0
 31 18  1  0  0  0  0
 32 31  1  0  0  0  0
 33 34  2  0  0  0  0
 34 32  1  0  0  0  0
 34 36  1  0  0  0  0
 35 34  2  0  0  0  0
 36 38  1  6  0  0  0
 36 39  1  0  0  0  0
 37 38  1  0  0  0  0
 39 42  1  0  0  0  0
 42 40  1  6  0  0  0
 42 41  1  0  0  0  0
 43 44  1  0  0  0  0
 44 45  1  6  0  0  0
 44 46  1  0  0  0  0
 46 47  1  6  0  0  0
 46 48  1  0  0  0  0
 49 48  1  0  0  0  0
 49 50  1  0  0  0  0
 50 51  1  1  0  0  0
 50 52  1  0  0  0  0
 53 58  1  0  0  0  0
 54 61  1  1  0  0  0
 55 60  2  0  0  0  0
 56 54  1  0  0  0  0
 56 57  1  1  0  0  0
 58 60  1  0  0  0  0
 58 59  1  0  0  0  0
 59 54  1  0  0  0  0
 60 56  1  0  0  0  0
M  END
>  <MODEL>
6

>  <REMARK>
 VINA RESULT:      -5.7      2.271      3.216
  Name = 
  18 active torsions:
  status: ('A' for Active; 'I' for Inactive)
    1  A    between atoms: C_2  and  N_9
    2  A    between atoms: C_2  and  C_29
    3  A    between atoms: C_3  and  C_30
    4  A    between atoms: C_3  and  C_58
    5  A    between atoms: C_4  and  C_8
    6  A    between atoms: C_4  and  N_44
    7  A    between atoms: N_9  and  C_51
    8  A    between atoms: C_12  and  S_16
    9  A    between atoms: C_12  and  C_26
   10  A    between atoms: O_13  and  C_15
   11  A    between atoms: C_15  and  S_16
   12  A    between atoms: C_15  and  N_35
   13  A    between atoms: C_18  and  C_19
   14  A    between atoms: C_18  and  N_41
   15  A    between atoms: C_23  and  C_37
   16  A    between atoms: C_26  and  N_45
   17  A    between atoms: C_29  and  C_58
   18  A    between atoms: N_35  and  C_40
                            x       y       z     vdW  Elec       q    Type
                         _______ _______ _______ _____ _____    ______ ____

>  <TORSDO>
F 18

$$$$
=
 OpenBabel11042419413D

 61 67  0  0  1  0  0  0  0  0999 V2000
  188.9740  174.4150  143.2540 C   0  0  0  0  0  3  0  0  0  0  0  0
  189.4250  175.4310  144.0160 C   0  0  0  0  0  0  0  0  0  0  0  0
  190.8150  175.8570  143.8420 C   0  0  0  0  0  0  0  0  0  0  0  0
  191.6060  176.8280  144.4540 C   0  0  0  0  0  3  0  0  0  0  0  0
  191.2770  174.1940  142.1330 C   0  0  0  0  0  0  0  0  0  0  0  0
  191.6250  175.2480  142.9520 C   0  0  0  0  0  0  0  0  0  0  0  0
  193.6080  174.2680  141.3370 C   0  0  0  0  0  0  0  0  0  0  0  0
  189.8400  173.6910  142.2150 C   0  0  0  0  0  2  0  0  0  0  0  0
  192.8350  175.7890  142.9970 N   0  0  0  0  0  0  0  0  0  0  0  0
  195.1380  175.9600  142.3050 N   0  0  0  0  0  1  0  0  0  0  0  0
  192.3010  173.6700  141.2930 C   0  0  0  0  0  0  0  0  0  0  0  0
  193.8510  175.3510  142.2190 C   0  0  0  0  0  0  0  0  0  0  0  0
  192.8530  176.7580  143.9040 N   0  0  0  0  0  0  0  0  0  0  0  0
  195.6460  172.8040  141.1820 C   0  0  2  0  0  3  0  0  0  0  0  0
  194.7490  173.7800  140.4790 C   0  0  2  0  0  3  0  0  0  0  0  0
  195.6800  174.8750  140.0650 C   0  0  0  0  0  2  0  0  0  0  0  0
  197.0040  173.0590  140.7160 N   0  0  0  0  0  0  0  0  0  0  0  0
  197.0220  174.3020  140.0290 N   0  0  0  0  0  0  0  0  0  0  0  0
  195.2380  171.3840  140.8270 C   0  0  0  0  0  1  0  0  0  0  0  0
  197.8370  173.2080  141.9040 C   0  0  0  0  0  2  0  0  0  0  0  0
  197.9410  169.7900  144.2560 C   0  0  0  0  0  3  0  0  0  0  0  0
  197.8630  173.4030  144.3820 C   0  0  0  0  0  2  0  0  0  0  0  0
  196.9740  173.3690  143.1480 C   0  0  2  0  0  3  0  0  0  0  0  0
  195.8460  171.9500  145.0440 C   0  0  1  0  0  3  0  0  0  0  0  0
  197.0350  172.1690  144.0970 C   0  0  2  0  0  0  0  0  0  0  0  0
  196.3660  171.4590  146.3760 C   0  0  0  0  0  2  0  0  0  0  0  0
  197.2410  169.2830  145.4540 C   0  0  0  0  0  3  0  0  0  0  0  0
  196.5400  169.9730  146.3580 C   0  0  0  0  0  3  0  0  0  0  0  0
  197.8640  170.9940  143.6760 C   0  0  0  0  0  3  0  0  0  0  0  0
  194.9850  173.1840  145.2670 C   0  0  0  0  0  1  0  0  0  0  0  0
  197.3130  174.0130  138.6300 C   0  0  0  0  0  2  0  0  0  0  0  0
  197.2740  175.2930  137.8160 C   0  0  0  0  0  2  0  0  0  0  0  0
  197.8080  173.5770  135.8330 O   0  0  0  0  0  0  0  0  0  0  0  0
  197.1350  174.8930  136.0890 S   0  0  0  0  0  0  0  0  0  0  0  0
  197.8130  175.9600  135.2780 O   0  0  0  0  0  0  0  0  0  0  0  0
  195.4010  174.8010  135.6450 C   0  0  1  0  0  3  0  0  0  0  0  0
  194.5060  172.8530  135.0400 C   0  0  0  0  0  1  0  0  0  0  0  0
  194.8140  173.6310  136.1590 O   0  0  0  0  0  0  0  0  0  0  0  0
  194.6540  175.9970  136.0650 N   0  0  0  0  0  2  0  0  0  0  0  0
  195.0190  177.7780  134.5980 O   0  0  0  0  0  1  0  0  0  0  0  0
  192.8400  177.2720  135.2130 N   0  0  0  0  0  1  0  0  0  0  0  0
  194.1530  176.7330  134.9080 C   0  0  2  0  0  3  0  0  0  0  0  0
  192.0760  172.5620  140.4040 N   0  0  0  0  0  2  0  0  0  0  0  0
  191.4410  172.6360  139.1000 C   0  0  2  0  0  3  0  0  0  0  0  0
  191.1670  173.9690  138.7850 O   0  0  0  0  0  1  0  0  0  0  0  0
  190.1900  171.7580  139.0770 C   0  0  2  0  0  3  0  0  0  0  0  0
  190.2500  170.7970  140.0840 O   0  0  0  0  0  1  0  0  0  0  0  0
  189.8750  171.1240  137.7190 C   0  0  0  0  0  2  0  0  0  0  0  0
  191.1220  170.9580  136.8620 C   0  0  0  0  0  2  0  0  0  0  0  0
  191.5260  169.4910  136.6890 C   0  0  1  0  0  3  0  0  0  0  0  0
  192.9290  169.2170  137.2130 C   0  0  0  0  0  1  0  0  0  0  0  0
  190.6010  168.6420  137.3130 O   0  0  0  0  0  1  0  0  0  0  0  0
  188.5400  176.0860  145.0220 C   0  0  0  0  0  2  0  0  0  0  0  0
  186.1640  177.9080  142.7720 C   0  0  2  0  0  3  0  0  0  0  0  0
  186.6340  177.9450  146.3080 O   0  0  0  0  0  0  0  0  0  0  0  0
  185.7690  178.5090  144.1260 C   0  0  2  0  0  3  0  0  0  0  0  0
  185.9870  179.8780  144.1420 F   0  0  0  0  0  0  0  0  0  0  0  0
  187.7130  177.1050  144.3960 N   0  0  0  0  0  0  0  0  0  0  0  0
  187.4960  177.1650  142.9680 C   0  0  0  0  0  2  0  0  0  0  0  0
  186.7130  177.8520  145.0560 C   0  0  0  0  0  0  0  0  0  0  0  0
  186.2850  178.8820  141.7960 F   0  0  0  0  0  0  0  0  0  0  0  0
  1  2  2  0  0  0  0
  2 53  1  0  0  0  0
  3  2  1  0  0  0  0
  3  4  1  0  0  0  0
  5  8  1  0  0  0  0
  5  6  1  0  0  0  0
  6  9  1  0  0  0  0
  6  3  2  0  0  0  0
  7 12  2  0  0  0  0
  8  1  1  0  0  0  0
  9 13  1  0  0  0  0
 11  7  1  0  0  0  0
 11  5  2  0  0  0  0
 12 10  1  0  0  0  0
 12  9  1  0  0  0  0
 13  4  2  0  0  0  0
 14 19  1  6  0  0  0
 15 14  1  0  0  0  0
 15  7  1  1  0  0  0
 16 15  1  0  0  0  0
 17 14  1  0  0  0  0
 17 20  1  0  0  0  0
 18 16  1  0  0  0  0
 18 17  1  0  0  0  0
 21 27  1  0  0  0  0
 23 20  1  6  0  0  0
 23 25  1  0  0  0  0
 23 22  1  0  0  0  0
 24 30  1  1  0  0  0
 24 26  1  0  0  0  0
 25 29  1  6  0  0  0
 25 22  1  0  0  0  0
 25 24  1  0  0  0  0
 27 28  2  0  0  0  0
 28 26  1  0  0  0  0
 29 21  2  0  0  0  0
 31 18  1  0  0  0  0
 32 31  1  0  0  0  0
 33 34  2  0  0  0  0
 34 32  1  0  0  0  0
 35 34  2  0  0  0  0
 36 39  1  1  0  0  0
 36 34  1  0  0  0  0
 36 38  1  0  0  0  0
 37 38  1  0  0  0  0
 42 40  1  1  0  0  0
 42 41  1  0  0  0  0
 42 39  1  0  0  0  0
 43 11  1  0  0  0  0
 44 45  1  1  0  0  0
 44 43  1  0  0  0  0
 46 44  1  0  0  0  0
 46 47  1  1  0  0  0
 48 46  1  0  0  0  0
 49 48  1  0  0  0  0
 50 49  1  0  0  0  0
 50 51  1  1  0  0  0
 50 52  1  0  0  0  0
 54 61  1  6  0  0  0
 54 59  1  0  0  0  0
 54 56  1  0  0  0  0
 56 57  1  6  0  0  0
 56 60  1  0  0  0  0
 58 53  1  0  0  0  0
 58 60  1  0  0  0  0
 59 58  1  0  0  0  0
 60 55  2  0  0  0  0
M  END
>  <MODEL>
7

>  <REMARK>
 VINA RESULT:      -5.7      2.725      5.100
  Name = 
  18 active torsions:
  status: ('A' for Active; 'I' for Inactive)
    1  A    between atoms: C_2  and  N_9
    2  A    between atoms: C_2  and  C_29
    3  A    between atoms: C_3  and  C_30
    4  A    between atoms: C_3  and  C_58
    5  A    between atoms: C_4  and  C_8
    6  A    between atoms: C_4  and  N_44
    7  A    between atoms: N_9  and  C_51
    8  A    between atoms: C_12  and  S_16
    9  A    between atoms: C_12  and  C_26
   10  A    between atoms: O_13  and  C_15
   11  A    between atoms: C_15  and  S_16
   12  A    between atoms: C_15  and  N_35
   13  A    between atoms: C_18  and  C_19
   14  A    between atoms: C_18  and  N_41
   15  A    between atoms: C_23  and  C_37
   16  A    between atoms: C_26  and  N_45
   17  A    between atoms: C_29  and  C_58
   18  A    between atoms: N_35  and  C_40
                            x       y       z     vdW  Elec       q    Type
                         _______ _______ _______ _____ _____    ______ ____

>  <TORSDO>
F 18

$$$$
=
 OpenBabel11042419413D

 61 67  0  0  1  0  0  0  0  0999 V2000
  187.4650  176.4670  141.9680 C   0  0  0  0  0  3  0  0  0  0  0  0
  186.9540  176.5560  140.7230 C   0  0  0  0  0  0  0  0  0  0  0  0
  187.4880  175.6650  139.6930 C   0  0  0  0  0  0  0  0  0  0  0  0
  187.2230  175.4980  138.3340 C   0  0  0  0  0  3  0  0  0  0  0  0
  189.0750  174.6140  141.2020 C   0  0  0  0  0  0  0  0  0  0  0  0
  188.4690  174.7840  139.9740 C   0  0  2  0  0  3  0  0  0  0  0  0
  190.4730  172.9190  140.0850 C   0  0  0  0  0  0  0  0  0  0  0  0
  188.5710  175.4760  142.3530 C   0  0  0  0  0  3  0  0  0  0  0  0
  188.8020  174.1120  138.8790 N   0  0  0  0  0  0  0  0  0  0  0  0
  190.1060  172.4820  137.6730 N   0  0  0  0  0  1  0  0  0  0  0  0
  190.1240  173.6530  141.2710 C   0  0  0  0  0  0  0  0  0  0  0  0
  189.7780  173.1750  138.8760 C   0  0  0  0  0  0  0  0  0  0  0  0
  188.0560  174.5260  137.8630 N   0  0  0  0  0  0  0  0  0  0  0  0
  191.5360  170.9680  141.2610 C   0  0  2  0  0  3  0  0  0  0  0  0
  191.5650  171.8790  140.0700 C   0  0  2  0  0  3  0  0  0  0  0  0
  192.9390  172.4710  140.1150 C   0  0  0  0  0  2  0  0  0  0  0  0
  192.9210  170.6630  141.6010 N   0  0  0  0  0  0  0  0  0  0  0  0
  193.7680  171.5610  140.8980 N   0  0  0  0  0  0  0  0  0  0  0  0
  190.7980  169.6870  140.9110 C   0  0  0  0  0  1  0  0  0  0  0  0
  193.0770  170.9420  143.0230 C   0  0  0  0  0  2  0  0  0  0  0  0
  194.7690  173.9030  145.3900 C   0  0  0  0  0  3  0  0  0  0  0  0
  194.4410  170.3220  145.0070 C   0  0  0  0  0  2  0  0  0  0  0  0
  194.4650  170.5390  143.5010 C   0  0  2  0  0  3  0  0  0  0  0  0
  196.6430  171.5690  144.5410 C   0  0  1  0  0  3  0  0  0  0  0  0
  195.1100  171.5580  144.4460 C   0  0  2  0  0  0  0  0  0  0  0  0
  197.0420  171.8400  145.9730 C   0  0  0  0  0  2  0  0  0  0  0  0
  196.0850  174.1710  146.0070 C   0  0  0  0  0  3  0  0  0  0  0  0
  197.0800  173.3110  146.2410 C   0  0  0  0  0  3  0  0  0  0  0  0
  194.3470  172.8160  144.7330 C   0  0  0  0  0  3  0  0  0  0  0  0
  197.3110  170.2870  144.0690 C   0  0  0  0  0  1  0  0  0  0  0  0
  194.5310  170.7670  139.9410 C   0  0  0  0  0  2  0  0  0  0  0  0
  194.9670  171.6370  138.7770 C   0  0  0  0  0  2  0  0  0  0  0  0
  197.4830  171.5840  137.8670 O   0  0  0  0  0  0  0  0  0  0  0  0
  196.6630  172.1210  139.0020 S   0  0  0  0  0  0  0  0  0  0  0  0
  197.1730  171.5480  140.2940 O   0  0  0  0  0  0  0  0  0  0  0  0
  196.7630  173.9100  139.0490 C   0  0  1  0  0  3  0  0  0  0  0  0
  197.9010  175.0140  137.4850 C   0  0  0  0  0  1  0  0  0  0  0  0
  196.6510  174.4510  137.7560 O   0  0  0  0  0  0  0  0  0  0  0  0
  195.7670  174.5000  139.9580 N   0  0  0  0  0  2  0  0  0  0  0  0
  195.3770  175.0650  142.1910 O   0  0  0  0  0  1  0  0  0  0  0  0
  197.1710  176.0440  141.0930 N   0  0  0  0  0  1  0  0  0  0  0  0
  196.3720  174.8410  141.2430 C   0  0  2  0  0  3  0  0  0  0  0  0
  190.8490  173.3900  142.4860 N   0  0  0  0  0  2  0  0  0  0  0  0
  191.0190  174.3190  143.5900 C   0  0  2  0  0  3  0  0  0  0  0  0
  192.3250  174.8150  143.5900 O   0  0  0  0  0  1  0  0  0  0  0  0
  190.6490  173.6370  144.9080 C   0  0  2  0  0  3  0  0  0  0  0  0
  190.1870  172.3430  144.6750 O   0  0  0  0  0  1  0  0  0  0  0  0
  189.6770  174.4270  145.7880 C   0  0  0  0  0  2  0  0  0  0  0  0
  190.3030  174.8250  147.1170 C   0  0  0  0  0  2  0  0  0  0  0  0
  190.1860  176.3270  147.3960 C   0  0  1  0  0  3  0  0  0  0  0  0
  191.4460  176.8900  148.0400 C   0  0  0  0  0  1  0  0  0  0  0  0
  189.8860  177.0310  146.2210 O   0  0  0  0  0  1  0  0  0  0  0  0
  185.8890  177.5510  140.4030 C   0  0  0  0  0  2  0  0  0  0  0  0
  184.4210  178.3800  143.7470 C   0  0  2  0  0  3  0  0  0  0  0  0
  187.4540  179.3580  142.1440 O   0  0  0  0  0  0  0  0  0  0  0  0
  185.6970  179.2290  143.7940 C   0  0  2  0  0  3  0  0  0  0  0  0
  185.3900  180.5770  143.9050 F   0  0  0  0  0  0  0  0  0  0  0  0
  185.4540  178.2460  141.6030 N   0  0  0  0  0  0  0  0  0  0  0  0
  184.2270  177.9190  142.2930 C   0  0  0  0  0  2  0  0  0  0  0  0
  186.3010  178.9730  142.4680 C   0  0  0  0  0  0  0  0  0  0  0  0
  183.3180  179.0910  144.1880 F   0  0  0  0  0  0  0  0  0  0  0  0
  1  8  2  0  0  0  0
  2  1  1  0  0  0  0
  3  2  2  0  0  0  0
  4  3  1  0  0  0  0
  5 11  2  0  0  0  0
  5  8  1  0  0  0  0
  6  3  1  6  0  0  0
  6  5  1  0  0  0  0
  7 11  1  0  0  0  0
  9  6  1  0  0  0  0
 10 12  1  0  0  0  0
 11 43  1  0  0  0  0
 12  9  1  0  0  0  0
 12  7  2  0  0  0  0
 13  4  2  0  0  0  0
 13  9  1  0  0  0  0
 14 19  1  6  0  0  0
 14 17  1  0  0  0  0
 15  7  1  1  0  0  0
 15 16  1  0  0  0  0
 15 14  1  0  0  0  0
 16 18  1  0  0  0  0
 17 20  1  0  0  0  0
 18 17  1  0  0  0  0
 21 27  1  0  0  0  0
 23 20  1  1  0  0  0
 23 25  1  0  0  0  0
 23 22  1  0  0  0  0
 24 30  1  1  0  0  0
 24 26  1  0  0  0  0
 25 24  1  0  0  0  0
 25 29  1  1  0  0  0
 25 22  1  0  0  0  0
 26 28  1  0  0  0  0
 27 28  2  0  0  0  0
 29 21  2  0  0  0  0
 31 18  1  0  0  0  0
 32 34  1  0  0  0  0
 32 31  1  0  0  0  0
 33 34  2  0  0  0  0
 34 36  1  0  0  0  0
 34 35  2  0  0  0  0
 36 38  1  6  0  0  0
 36 39  1  0  0  0  0
 37 38  1  0  0  0  0
 39 42  1  0  0  0  0
 42 41  1  6  0  0  0
 42 40  1  0  0  0  0
 43 44  1  0  0  0  0
 44 45  1  1  0  0  0
 44 46  1  0  0  0  0
 46 47  1  6  0  0  0
 46 48  1  0  0  0  0
 48 49  1  0  0  0  0
 49 50  1  0  0  0  0
 50 51  1  6  0  0  0
 52 50  1  0  0  0  0
 53  2  1  0  0  0  0
 53 58  1  0  0  0  0
 54 56  1  0  0  0  0
 54 61  1  6  0  0  0
 55 60  2  0  0  0  0
 56 57  1  6  0  0  0
 58 59  1  0  0  0  0
 58 60  1  0  0  0  0
 59 54  1  0  0  0  0
 60 56  1  0  0  0  0
M  END
>  <MODEL>
8

>  <REMARK>
 VINA RESULT:      -5.5      1.986      3.056
  Name = 
  18 active torsions:
  status: ('A' for Active; 'I' for Inactive)
    1  A    between atoms: C_2  and  N_9
    2  A    between atoms: C_2  and  C_29
    3  A    between atoms: C_3  and  C_30
    4  A    between atoms: C_3  and  C_58
    5  A    between atoms: C_4  and  C_8
    6  A    between atoms: C_4  and  N_44
    7  A    between atoms: N_9  and  C_51
    8  A    between atoms: C_12  and  S_16
    9  A    between atoms: C_12  and  C_26
   10  A    between atoms: O_13  and  C_15
   11  A    between atoms: C_15  and  S_16
   12  A    between atoms: C_15  and  N_35
   13  A    between atoms: C_18  and  C_19
   14  A    between atoms: C_18  and  N_41
   15  A    between atoms: C_23  and  C_37
   16  A    between atoms: C_26  and  N_45
   17  A    between atoms: C_29  and  C_58
   18  A    between atoms: N_35  and  C_40
                            x       y       z     vdW  Elec       q    Type
                         _______ _______ _______ _____ _____    ______ ____

>  <TORSDO>
F 18

$$$$
=
 OpenBabel11042419413D

 61 67  0  0  1  0  0  0  0  0999 V2000
  188.0140  176.0590  143.5520 C   0  0  0  0  0  3  0  0  0  0  0  0
  188.5310  176.0410  144.7970 C   0  0  0  0  0  0  0  0  0  0  0  0
  189.7280  175.2320  145.0330 C   0  0  0  0  0  0  0  0  0  0  0  0
  190.5000  174.9650  146.1630 C   0  0  0  0  0  3  0  0  0  0  0  0
  189.8470  174.4500  142.7360 C   0  0  0  0  0  0  0  0  0  0  0  0
  190.2940  174.5180  144.0390 C   0  0  0  0  0  0  0  0  0  0  0  0
  191.7130  172.8880  142.3560 C   0  0  0  0  0  0  0  0  0  0  0  0
  188.6200  175.2810  142.3770 C   0  0  0  0  0  2  0  0  0  0  0  0
  191.3430  173.8500  144.5020 N   0  0  0  0  0  0  0  0  0  0  0  0
  193.2000  172.3320  144.2600 N   0  0  0  0  0  1  0  0  0  0  0  0
  190.5710  173.6000  141.8520 C   0  0  0  0  0  0  0  0  0  0  0  0
  192.0850  173.0360  143.7170 C   0  0  0  0  0  0  0  0  0  0  0  0
  191.4940  174.1050  145.7950 N   0  0  0  0  0  0  0  0  0  0  0  0
  192.3930  170.5220  141.8480 C   0  0  2  0  0  3  0  0  0  0  0  0
  192.5410  171.9710  141.4900 C   0  0  2  0  0  3  0  0  0  0  0  0
  194.0110  172.2140  141.6160 C   0  0  0  0  0  2  0  0  0  0  0  0
  193.6950  169.8960  141.6460 N   0  0  0  0  0  0  0  0  0  0  0  0
  194.6690  170.9180  141.4920 N   0  0  0  0  0  0  0  0  0  0  0  0
  191.3630  169.8700  140.9410 C   0  0  0  0  0  1  0  0  0  0  0  0
  194.0120  169.1760  142.8740 C   0  0  0  0  0  2  0  0  0  0  0  0
  194.4260  168.1660  146.8790 C   0  0  0  0  0  3  0  0  0  0  0  0
  196.1990  168.3670  143.7330 C   0  0  0  0  0  2  0  0  0  0  0  0
  195.3710  169.6020  143.4120 C   0  0  2  0  0  3  0  0  0  0  0  0
  196.6350  169.9970  145.6760 C   0  0  1  0  0  3  0  0  0  0  0  0
  195.6150  169.1840  144.8650 C   0  0  2  0  0  0  0  0  0  0  0  0
  197.4050  169.0560  146.5740 C   0  0  0  0  0  2  0  0  0  0  0  0
  195.3990  168.4210  147.9610 C   0  0  0  0  0  3  0  0  0  0  0  0
  196.6680  168.8270  147.8560 C   0  0  0  0  0  3  0  0  0  0  0  0
  194.5020  168.4800  145.5800 C   0  0  0  0  0  3  0  0  0  0  0  0
  197.6150  170.7980  144.8320 C   0  0  0  0  0  1  0  0  0  0  0  0
  195.1650  170.8320  140.1230 C   0  0  0  0  0  2  0  0  0  0  0  0
  196.1560  171.9510  139.8590 C   0  0  0  0  0  2  0  0  0  0  0  0
  194.1840  173.1080  138.4670 O   0  0  0  0  0  0  0  0  0  0  0  0
  195.6600  172.8500  138.4070 S   0  0  0  0  0  0  0  0  0  0  0  0
  195.9680  172.0280  137.1880 O   0  0  0  0  0  0  0  0  0  0  0  0
  196.5590  174.3990  138.3380 C   0  0  1  0  0  3  0  0  0  0  0  0
  197.8590  175.2680  136.7520 C   0  0  0  0  0  1  0  0  0  0  0  0
  196.5320  174.9370  137.0400 O   0  0  0  0  0  0  0  0  0  0  0  0
  196.0650  175.3730  139.3250 N   0  0  0  0  0  2  0  0  0  0  0  0
  197.9020  174.6580  140.5790 O   0  0  0  0  0  1  0  0  0  0  0  0
  196.5380  176.3190  141.4520 N   0  0  0  0  0  1  0  0  0  0  0  0
  197.1280  175.7660  140.2470 C   0  0  2  0  0  3  0  0  0  0  0  0
  190.1990  173.4270  140.4730 N   0  0  0  0  0  2  0  0  0  0  0  0
  188.8870  173.6870  139.9090 C   0  0  2  0  0  3  0  0  0  0  0  0
  188.0730  172.5640  140.0740 O   0  0  0  0  0  1  0  0  0  0  0  0
  189.0210  174.1050  138.4440 C   0  0  2  0  0  3  0  0  0  0  0  0
  187.8350  173.8600  137.7560 O   0  0  0  0  0  1  0  0  0  0  0  0
  190.2250  173.5050  137.7130 C   0  0  0  0  0  2  0  0  0  0  0  0
  189.8480  172.2670  136.9100 C   0  0  0  0  0  2  0  0  0  0  0  0
  189.7310  172.5530  135.4100 C   0  0  1  0  0  3  0  0  0  0  0  0
  190.4920  173.8080  135.0050 C   0  0  0  0  0  1  0  0  0  0  0  0
  190.1720  171.4550  134.6570 O   0  0  0  0  0  1  0  0  0  0  0  0
  187.8890  176.8060  145.9040 C   0  0  0  0  0  2  0  0  0  0  0  0
  185.5150  178.7060  143.7180 C   0  0  2  0  0  3  0  0  0  0  0  0
  185.0010  176.3550  146.3510 O   0  0  0  0  0  0  0  0  0  0  0  0
  184.5200  177.9640  144.6170 C   0  0  2  0  0  3  0  0  0  0  0  0
  183.7480  178.8580  145.3440 F   0  0  0  0  0  0  0  0  0  0  0  0
  186.7680  177.5880  145.4090 N   0  0  0  0  0  0  0  0  0  0  0  0
  186.9060  178.5730  144.3610 C   0  0  0  0  0  2  0  0  0  0  0  0
  185.4100  177.2240  145.5380 C   0  0  0  0  0  0  0  0  0  0  0  0
  185.1720  180.0380  143.5650 F   0  0  0  0  0  0  0  0  0  0  0  0
  1  2  2  0  0  0  0
  2  3  1  0  0  0  0
  2 53  1  0  0  0  0
  3  4  1  0  0  0  0
  5  6  1  0  0  0  0
  6  9  1  0  0  0  0
  6  3  2  0  0  0  0
  7 12  2  0  0  0  0
  8  5  1  0  0  0  0
  8  1  1  0  0  0  0
  9 13  1  0  0  0  0
 11  7  1  0  0  0  0
 11  5  2  0  0  0  0
 12 10  1  0  0  0  0
 12  9  1  0  0  0  0
 13  4  2  0  0  0  0
 14 19  1  6  0  0  0
 15 16  1  0  0  0  0
 15 14  1  0  0  0  0
 15  7  1  1  0  0  0
 17 14  1  0  0  0  0
 17 20  1  0  0  0  0
 18 16  1  0  0  0  0
 18 17  1  0  0  0  0
 21 27  1  0  0  0  0
 23 20  1  6  0  0  0
 23 22  1  0  0  0  0
 23 25  1  0  0  0  0
 24 30  1  6  0  0  0
 24 26  1  0  0  0  0
 25 22  1  6  0  0  0
 25 29  1  0  0  0  0
 25 24  1  0  0  0  0
 26 28  1  0  0  0  0
 28 27  2  0  0  0  0
 29 21  2  0  0  0  0
 31 18  1  0  0  0  0
 32 31  1  0  0  0  0
 34 33  2  0  0  0  0
 34 32  1  0  0  0  0
 35 34  2  0  0  0  0
 36 38  1  6  0  0  0
 36 34  1  0  0  0  0
 36 39  1  0  0  0  0
 37 38  1  0  0  0  0
 39 42  1  0  0  0  0
 42 40  1  1  0  0  0
 42 41  1  0  0  0  0
 43 11  1  0  0  0  0
 44 45  1  6  0  0  0
 44 43  1  0  0  0  0
 46 47  1  6  0  0  0
 46 44  1  0  0  0  0
 48 46  1  0  0  0  0
 49 48  1  0  0  0  0
 50 51  1  6  0  0  0
 50 49  1  0  0  0  0
 52 50  1  0  0  0  0
 54 61  1  1  0  0  0
 54 59  1  0  0  0  0
 54 56  1  0  0  0  0
 56 57  1  1  0  0  0
 56 60  1  0  0  0  0
 58 60  1  0  0  0  0
 58 53  1  0  0  0  0
 59 58  1  0  0  0  0
 60 55  2  0  0  0  0
M  END
>  <MODEL>
9

>  <REMARK>
 VINA RESULT:      -5.5      2.312      4.416
  Name = 
  18 active torsions:
  status: ('A' for Active; 'I' for Inactive)
    1  A    between atoms: C_2  and  N_9
    2  A    between atoms: C_2  and  C_29
    3  A    between atoms: C_3  and  C_30
    4  A    between atoms: C_3  and  C_58
    5  A    between atoms: C_4  and  C_8
    6  A    between atoms: C_4  and  N_44
    7  A    between atoms: N_9  and  C_51
    8  A    between atoms: C_12  and  S_16
    9  A    between atoms: C_12  and  C_26
   10  A    between atoms: O_13  and  C_15
   11  A    between atoms: C_15  and  S_16
   12  A    between atoms: C_15  and  N_35
   13  A    between atoms: C_18  and  C_19
   14  A    between atoms: C_18  and  N_41
   15  A    between atoms: C_23  and  C_37
   16  A    between atoms: C_26  and  N_45
   17  A    between atoms: C_29  and  C_58
   18  A    between atoms: N_35  and  C_40
                            x       y       z     vdW  Elec       q    Type
                         _______ _______ _______ _____ _____    ______ ____

>  <TORSDO>
F 18

$$$$
