=
 OpenBabel11042418143D

 53 55  0  0  1  0  0  0  0  0999 V2000
  190.5660  171.2250  140.8900 C   0  0  2  0  0  3  0  0  0  0  0  0
  192.2250  171.6000  139.0280 C   0  0  0  0  0  0  0  0  0  0  0  0
  191.4620  171.0430  138.1950 O   0  0  0  0  0  0  0  0  0  0  0  0
  191.8010  171.8010  140.3750 N   0  0  0  0  0  2  0  0  0  0  0  0
  193.5830  172.0520  138.6100 C   0  0  0  0  0  2  0  0  0  0  0  0
  193.7000  173.4980  138.7540 N   0  0  0  0  0  0  0  0  0  0  0  0
  194.5670  174.0630  139.7470 C   0  0  0  0  0  0  0  0  0  0  0  0
  194.5440  175.4730  140.0000 N   0  0  0  0  0  2  0  0  0  0  0  0
  192.8860  174.3570  137.9070 C   0  0  0  0  0  1  0  0  0  0  0  0
  195.3490  173.3180  140.3970 O   0  0  0  0  0  0  0  0  0  0  0  0
  195.4130  176.1060  140.9800 C   0  0  0  0  0  2  0  0  0  0  0  0
  194.7520  176.1240  142.3550 C   0  0  0  0  0  2  0  0  0  0  0  0
  195.7930  175.9850  143.4590 C   0  0  0  0  0  2  0  0  0  0  0  0
  195.3770  176.7200  144.6410 N   0  0  0  0  0  1  0  0  0  0  0  0
  189.8290  172.2520  141.7370 C   0  0  0  0  0  2  0  0  0  0  0  0
  188.7060  172.5260  139.5460 N   0  0  0  0  0  2  0  0  0  0  0  0
  188.6910  172.8990  140.9550 C   0  0  2  0  0  0  0  0  0  0  0  0
  188.9560  174.3710  140.6660 C   0  0  1  0  0  3  0  0  0  0  0  0
  188.9670  173.9230  139.2060 C   0  0  2  0  0  3  0  0  0  0  0  0
  187.4410  172.6470  141.5310 O   0  0  0  0  0  1  0  0  0  0  0  0
  187.8900  174.4370  138.4790 O   0  0  0  0  0  1  0  0  0  0  0  0
  186.7540  177.2110  141.9700 N   0  0  0  0  0  2  0  0  0  0  0  0
  187.9230  176.4380  141.7020 C   0  0  0  0  0  0  0  0  0  0  0  0
  189.0550  176.8340  142.0970 O   0  0  0  0  0  0  0  0  0  0  0  0
  187.8010  175.2120  140.9800 N   0  0  0  0  0  2  0  0  0  0  0  0
  186.8220  178.4940  142.6480 C   0  0  0  0  0  2  0  0  0  0  0  0
  186.1060  178.4100  143.9830 C   0  0  0  0  0  2  0  0  0  0  0  0
  187.0420  178.4380  145.0380 O   0  0  0  0  0  0  0  0  0  0  0  0
  186.8670  177.3200  145.8970 C   0  0  2  0  0  0  0  0  0  0  0  0
  185.7290  176.6430  145.4530 O   0  0  0  0  0  1  0  0  0  0  0  0
  185.3010  178.2410  147.5100 O   0  0  0  0  0  1  0  0  0  0  0  0
  186.6050  177.7670  147.3520 C   0  0  0  0  0  2  0  0  0  0  0  0
  188.0670  176.3450  145.7940 C   0  0  2  0  0  3  0  0  0  0  0  0
  188.1650  175.5460  146.9380 O   0  0  0  0  0  1  0  0  0  0  0  0
  189.2740  177.0290  145.6030 O   0  0  0  0  0  0  0  0  0  0  0  0
  191.6650  177.4660  144.1610 O   0  0  0  0  0  0  0  0  0  0  0  0
  190.2240  176.0630  145.5420 N   0  0  0  0  0  2  0  0  0  0  0  0
  191.4450  176.2740  144.8380 C   0  0  0  0  0  0  0  0  0  0  0  0
  192.3230  175.3790  144.8250 O   0  0  0  0  0  1  0  0  0  0  0  0
  190.8650  169.9700  141.7060 C   0  0  0  0  0  2  0  0  0  0  0  0
  192.2350  169.8500  141.9480 O   0  0  0  0  0  0  0  0  0  0  0  0
  192.3270  169.2320  143.1950 C   0  0  0  0  0  2  0  0  0  0  0  0
  193.1090  171.3810  144.5260 C   0  0  0  0  0  0  0  0  0  0  0  0
  196.7050  171.0750  145.5550 S   0  0  0  0  0  0  0  0  0  0  0  0
  194.4840  169.5440  144.4620 C   0  0  0  0  0  0  0  0  0  0  0  0
  193.2660  169.9820  144.0830 C   0  0  0  0  0  0  0  0  0  0  0  0
  194.8970  172.8980  145.5330 N   0  0  0  0  0  0  0  0  0  0  0  0
  197.1480  173.7890  146.1670 C   0  0  0  0  0  1  0  0  0  0  0  0
  196.2150  172.6890  145.8060 C   0  0  0  0  0  0  0  0  0  0  0  0
  194.3260  171.7080  145.2340 C   0  0  0  0  0  0  0  0  0  0  0  0
  192.1430  172.1530  144.2870 O   0  0  0  0  0  0  0  0  0  0  0  0
  195.1040  168.2450  144.0920 C   0  0  0  0  0  1  0  0  0  0  0  0
  195.1300  170.6290  145.1940 C   0  0  0  0  0  0  0  0  0  0  0  0
  1 40  1  1  0  0  0
  1 15  1  0  0  0  0
  2  4  1  0  0  0  0
  3  2  2  0  0  0  0
  4  1  1  0  0  0  0
  5  6  1  0  0  0  0
  5  2  1  0  0  0  0
  6  7  1  0  0  0  0
  7  8  1  0  0  0  0
  7 10  2  0  0  0  0
  8 11  1  0  0  0  0
  9  6  1  0  0  0  0
 11 12  1  0  0  0  0
 12 13  1  0  0  0  0
 13 14  1  0  0  0  0
 16 17  1  0  0  0  0
 17 20  1  1  0  0  0
 17 15  1  0  0  0  0
 18 17  1  0  0  0  0
 18 25  1  6  0  0  0
 19 21  1  6  0  0  0
 19 16  1  0  0  0  0
 19 18  1  0  0  0  0
 22 26  1  0  0  0  0
 23 22  1  0  0  0  0
 23 24  2  0  0  0  0
 25 23  1  0  0  0  0
 26 27  1  0  0  0  0
 27 28  1  0  0  0  0
 28 29  1  0  0  0  0
 29 30  1  6  0  0  0
 29 32  1  0  0  0  0
 32 31  1  0  0  0  0
 33 29  1  0  0  0  0
 33 34  1  1  0  0  0
 35 33  1  0  0  0  0
 36 38  2  0  0  0  0
 37 35  1  0  0  0  0
 38 37  1  0  0  0  0
 39 38  1  0  0  0  0
 40 41  1  0  0  0  0
 41 42  1  0  0  0  0
 42 46  1  0  0  0  0
 43 50  1  0  0  0  0
 44 49  1  0  0  0  0
 45 53  1  0  0  0  0
 46 45  2  0  0  0  0
 46 43  1  0  0  0  0
 47 49  2  0  0  0  0
 49 48  1  0  0  0  0
 50 47  1  0  0  0  0
 51 43  2  0  0  0  0
 52 45  1  0  0  0  0
 53 50  2  0  0  0  0
 53 44  1  0  0  0  0
M  END
>  <MODEL>
1

>  <REMARK>
 VINA RESULT:      -5.7      0.000      0.000
  Name = 
  21 active torsions:
  status: ('A' for Active; 'I' for Inactive)
    1  A    between atoms: C_3  and  C_21
    2  A    between atoms: C_3  and  C_41
    3  A    between atoms: C_3  and  O_51
    4  A    between atoms: N_4  and  C_32
    5  A    between atoms: C_5  and  N_28
    6  A    between atoms: C_5  and  C_33
    7  A    between atoms: O_7  and  N_11
    8  A    between atoms: O_7  and  C_41
    9  A    between atoms: C_8  and  C_44
   10  A    between atoms: N_10  and  C_44
   11  A    between atoms: C_12  and  C_15
   12  A    between atoms: C_14  and  C_33
   13  A    between atoms: C_15  and  C_39
   14  A    between atoms: C_20  and  C_45
   15  A    between atoms: C_22  and  N_46
   16  A    between atoms: C_25  and  C_32
   17  A    between atoms: C_25  and  O_51
   18  A    between atoms: C_37  and  C_39
   19  A    between atoms: C_37  and  O_53
   20  A    between atoms: C_39  and  N_42
   21  A    between atoms: C_45  and  O_53
                            x       y       z     vdW  Elec       q    Type
                         _______ _______ _______ _____ _____    ______ ____

>  <TORSDO>
F 21

$$$$
=
 OpenBabel11042418143D

 53 55  0  0  1  0  0  0  0  0999 V2000
  191.8960  174.6030  145.5810 C   0  0  2  0  0  3  0  0  0  0  0  0
  191.0830  173.7190  143.3630 C   0  0  0  0  0  0  0  0  0  0  0  0
  191.8260  174.5200  142.7370 O   0  0  0  0  0  0  0  0  0  0  0  0
  191.1340  173.6480  144.7870 N   0  0  0  0  0  2  0  0  0  0  0  0
  190.1390  172.8370  142.6180 C   0  0  0  0  0  2  0  0  0  0  0  0
  189.2620  173.6370  141.7700 N   0  0  0  0  0  0  0  0  0  0  0  0
  189.2440  173.4400  140.3500 C   0  0  0  0  0  0  0  0  0  0  0  0
  188.5160  174.3450  139.5100 N   0  0  0  0  0  2  0  0  0  0  0  0
  188.4440  174.6720  142.3850 C   0  0  0  0  0  1  0  0  0  0  0  0
  189.8700  172.4710  139.8410 O   0  0  0  0  0  0  0  0  0  0  0  0
  188.4450  174.1850  138.0660 C   0  0  0  0  0  2  0  0  0  0  0  0
  187.3990  175.1220  137.4710 C   0  0  0  0  0  2  0  0  0  0  0  0
  187.8500  175.6480  136.1150 C   0  0  0  0  0  2  0  0  0  0  0  0
  187.4310  177.0290  135.9430 N   0  0  0  0  0  1  0  0  0  0  0  0
  193.2650  174.0250  145.9110 C   0  0  0  0  0  2  0  0  0  0  0  0
  194.1110  176.2090  146.7180 N   0  0  0  0  0  2  0  0  0  0  0  0
  194.3520  175.0900  145.8160 C   0  0  2  0  0  0  0  0  0  0  0  0
  194.2110  175.9460  144.5640 C   0  0  1  0  0  3  0  0  0  0  0  0
  193.9580  177.0800  145.5550 C   0  0  2  0  0  3  0  0  0  0  0  0
  195.6330  174.5590  146.0020 O   0  0  0  0  0  1  0  0  0  0  0  0
  194.9780  178.0360  145.5490 O   0  0  0  0  0  1  0  0  0  0  0  0
  197.1010  175.4770  142.1060 N   0  0  0  0  0  2  0  0  0  0  0  0
  195.8470  175.2670  142.7550 C   0  0  0  0  0  0  0  0  0  0  0  0
  195.0690  174.3550  142.3600 O   0  0  0  0  0  0  0  0  0  0  0  0
  195.4810  176.1010  143.8540 N   0  0  0  0  0  2  0  0  0  0  0  0
  197.5030  174.7000  140.9460 C   0  0  0  0  0  2  0  0  0  0  0  0
  197.2160  175.4830  139.6780 C   0  0  0  0  0  2  0  0  0  0  0  0
  195.8260  175.5310  139.4410 O   0  0  0  0  0  0  0  0  0  0  0  0
  195.5050  174.9210  138.2000 C   0  0  2  0  0  0  0  0  0  0  0  0
  195.5830  173.5400  138.3950 O   0  0  0  0  0  1  0  0  0  0  0  0
  197.0280  174.1600  136.4660 O   0  0  0  0  0  1  0  0  0  0  0  0
  196.5320  175.2960  137.1090 C   0  0  0  0  0  2  0  0  0  0  0  0
  194.0530  175.2560  137.7730 C   0  0  2  0  0  3  0  0  0  0  0  0
  193.1270  174.5370  138.5370 O   0  0  0  0  0  1  0  0  0  0  0  0
  193.8390  174.9890  136.4140 O   0  0  0  0  0  0  0  0  0  0  0  0
  191.2110  174.6060  135.4490 O   0  0  0  0  0  1  0  0  0  0  0  0
  193.1180  176.0420  135.9570 N   0  0  0  0  0  2  0  0  0  0  0  0
  191.7830  175.8700  135.4870 C   0  0  0  0  0  0  0  0  0  0  0  0
  191.1220  176.8650  135.1010 O   0  0  0  0  0  0  0  0  0  0  0  0
  191.1390  174.9570  146.8570 C   0  0  0  0  0  2  0  0  0  0  0  0
  189.7970  175.2290  146.5810 O   0  0  0  0  0  0  0  0  0  0  0  0
  189.6390  176.5840  146.8670 C   0  0  0  0  0  2  0  0  0  0  0  0
  187.1550  177.1930  146.1870 C   0  0  0  0  0  0  0  0  0  0  0  0
  186.9770  178.2280  142.5840 S   0  0  0  0  0  0  0  0  0  0  0  0
  188.8630  177.6740  144.7300 C   0  0  0  0  0  0  0  0  0  0  0  0
  188.6150  177.1940  145.9660 C   0  0  0  0  0  0  0  0  0  0  0  0
  185.3280  177.6750  144.4730 N   0  0  0  0  0  0  0  0  0  0  0  0
  184.1880  177.9840  142.2660 C   0  0  0  0  0  1  0  0  0  0  0  0
  185.3850  177.9830  143.1470 C   0  0  0  0  0  0  0  0  0  0  0  0
  186.5760  177.7560  144.9880 C   0  0  0  0  0  0  0  0  0  0  0  0
  186.5350  176.7420  147.1860 O   0  0  0  0  0  0  0  0  0  0  0  0
  190.1840  177.7080  144.0510 C   0  0  0  0  0  1  0  0  0  0  0  0
  187.5800  178.0360  144.1360 C   0  0  0  0  0  0  0  0  0  0  0  0
  1 15  1  1  0  0  0
  1 40  1  0  0  0  0
  2  4  1  0  0  0  0
  3  2  2  0  0  0  0
  4  1  1  0  0  0  0
  5  2  1  0  0  0  0
  6  9  1  0  0  0  0
  6  5  1  0  0  0  0
  7  6  1  0  0  0  0
  8  7  1  0  0  0  0
 10  7  2  0  0  0  0
 11  8  1  0  0  0  0
 12 11  1  0  0  0  0
 13 12  1  0  0  0  0
 14 13  1  0  0  0  0
 17 15  1  0  0  0  0
 17 20  1  1  0  0  0
 17 16  1  0  0  0  0
 18 25  1  1  0  0  0
 18 19  1  0  0  0  0
 18 17  1  0  0  0  0
 19 21  1  1  0  0  0
 19 16  1  0  0  0  0
 22 23  1  0  0  0  0
 23 25  1  0  0  0  0
 24 23  2  0  0  0  0
 26 22  1  0  0  0  0
 27 26  1  0  0  0  0
 28 27  1  0  0  0  0
 29 30  1  1  0  0  0
 29 28  1  0  0  0  0
 31 32  1  0  0  0  0
 32 29  1  0  0  0  0
 33 29  1  0  0  0  0
 33 34  1  1  0  0  0
 35 33  1  0  0  0  0
 36 38  1  0  0  0  0
 37 35  1  0  0  0  0
 38 37  1  0  0  0  0
 39 38  2  0  0  0  0
 41 40  1  0  0  0  0
 41 42  1  0  0  0  0
 43 51  2  0  0  0  0
 44 49  1  0  0  0  0
 44 53  1  0  0  0  0
 45 46  2  0  0  0  0
 46 43  1  0  0  0  0
 46 42  1  0  0  0  0
 47 50  1  0  0  0  0
 48 49  1  0  0  0  0
 49 47  2  0  0  0  0
 50 43  1  0  0  0  0
 52 45  1  0  0  0  0
 53 45  1  0  0  0  0
 53 50  2  0  0  0  0
M  END
>  <MODEL>
2

>  <REMARK>
 VINA RESULT:      -5.5      3.251      9.516
  Name = 
  21 active torsions:
  status: ('A' for Active; 'I' for Inactive)
    1  A    between atoms: C_3  and  C_21
    2  A    between atoms: C_3  and  C_41
    3  A    between atoms: C_3  and  O_51
    4  A    between atoms: N_4  and  C_32
    5  A    between atoms: C_5  and  N_28
    6  A    between atoms: C_5  and  C_33
    7  A    between atoms: O_7  and  N_11
    8  A    between atoms: O_7  and  C_41
    9  A    between atoms: C_8  and  C_44
   10  A    between atoms: N_10  and  C_44
   11  A    between atoms: C_12  and  C_15
   12  A    between atoms: C_14  and  C_33
   13  A    between atoms: C_15  and  C_39
   14  A    between atoms: C_20  and  C_45
   15  A    between atoms: C_22  and  N_46
   16  A    between atoms: C_25  and  C_32
   17  A    between atoms: C_25  and  O_51
   18  A    between atoms: C_37  and  C_39
   19  A    between atoms: C_37  and  O_53
   20  A    between atoms: C_39  and  N_42
   21  A    between atoms: C_45  and  O_53
                            x       y       z     vdW  Elec       q    Type
                         _______ _______ _______ _____ _____    ______ ____

>  <TORSDO>
F 21

$$$$
=
 OpenBabel11042418143D

 53 55  0  0  1  0  0  0  0  0999 V2000
  188.7580  175.4830  143.4480 C   0  0  2  0  0  3  0  0  0  0  0  0
  187.4120  177.2630  144.6240 C   0  0  0  0  0  0  0  0  0  0  0  0
  187.3060  176.5450  145.6530 O   0  0  0  0  0  0  0  0  0  0  0  0
  188.1990  176.8260  143.5160 N   0  0  0  0  0  2  0  0  0  0  0  0
  186.7110  178.5770  144.5530 C   0  0  0  0  0  2  0  0  0  0  0  0
  185.2910  178.3780  144.2890 N   0  0  0  0  0  0  0  0  0  0  0  0
  184.7950  178.3650  142.9440 C   0  0  0  0  0  0  0  0  0  0  0  0
  183.3830  178.3470  142.7000 N   0  0  0  0  0  2  0  0  0  0  0  0
  184.3780  178.2430  145.4160 C   0  0  0  0  0  1  0  0  0  0  0  0
  185.6020  178.3710  141.9760 O   0  0  0  0  0  0  0  0  0  0  0  0
  182.8210  178.3130  141.3580 C   0  0  0  0  0  2  0  0  0  0  0  0
  181.2990  178.2200  141.4130 C   0  0  0  0  0  2  0  0  0  0  0  0
  180.6580  179.3420  140.6070 C   0  0  0  0  0  2  0  0  0  0  0  0
  179.2100  179.2220  140.6370 N   0  0  0  0  0  1  0  0  0  0  0  0
  190.2440  175.5560  143.1280 C   0  0  0  0  0  2  0  0  0  0  0  0
  190.4810  174.8430  145.4890 N   0  0  0  0  0  2  0  0  0  0  0  0
  191.0690  174.7880  144.1570 C   0  0  2  0  0  0  0  0  0  0  0  0
  192.3200  175.5490  144.5740 C   0  0  1  0  0  3  0  0  0  0  0  0
  191.6540  175.5810  145.9490 C   0  0  2  0  0  3  0  0  0  0  0  0
  191.3090  173.4670  143.7640 O   0  0  0  0  0  1  0  0  0  0  0  0
  192.3440  174.8220  146.8970 O   0  0  0  0  0  1  0  0  0  0  0  0
  195.9430  174.3500  144.3400 N   0  0  0  0  0  2  0  0  0  0  0  0
  194.8220  175.2340  144.3430 C   0  0  0  0  0  0  0  0  0  0  0  0
  194.9850  176.4730  144.1610 O   0  0  0  0  0  0  0  0  0  0  0  0
  193.5140  174.7030  144.5550 N   0  0  0  0  0  2  0  0  0  0  0  0
  197.3030  174.8380  144.1880 C   0  0  0  0  0  2  0  0  0  0  0  0
  197.6950  174.8220  142.7220 C   0  0  0  0  0  2  0  0  0  0  0  0
  196.8360  173.9670  141.9990 O   0  0  0  0  0  0  0  0  0  0  0  0
  196.3560  174.6100  140.8270 C   0  0  2  0  0  0  0  0  0  0  0  0
  197.1150  174.1240  139.7590 O   0  0  0  0  0  1  0  0  0  0  0  0
  195.3630  176.8190  141.0260 O   0  0  0  0  0  1  0  0  0  0  0  0
  196.5750  176.1380  140.8970 C   0  0  0  0  0  2  0  0  0  0  0  0
  194.8740  174.2450  140.5590 C   0  0  2  0  0  3  0  0  0  0  0  0
  194.4420  173.2320  141.4220 O   0  0  0  0  0  1  0  0  0  0  0  0
  194.6740  173.8400  139.2320 O   0  0  0  0  0  0  0  0  0  0  0  0
  195.1140  174.6550  136.5630 O   0  0  0  0  0  0  0  0  0  0  0  0
  193.9070  174.8110  138.6780 N   0  0  0  0  0  2  0  0  0  0  0  0
  194.1000  175.2190  137.3250 C   0  0  0  0  0  0  0  0  0  0  0  0
  193.3550  176.0940  136.8230 O   0  0  0  0  0  1  0  0  0  0  0  0
  188.0220  174.6540  142.3990 C   0  0  0  0  0  2  0  0  0  0  0  0
  188.4320  173.3200  142.4420 O   0  0  0  0  0  0  0  0  0  0  0  0
  188.0270  172.7800  141.2220 C   0  0  0  0  0  2  0  0  0  0  0  0
  189.0980  173.7330  138.9980 C   0  0  0  0  0  0  0  0  0  0  0  0
  192.0560  171.6730  137.9550 S   0  0  0  0  0  0  0  0  0  0  0  0
  190.2140  172.1030  140.1670 C   0  0  0  0  0  0  0  0  0  0  0  0
  189.1210  172.8920  140.2100 C   0  0  0  0  0  0  0  0  0  0  0  0
  190.6230  173.5580  136.9600 N   0  0  0  0  0  0  0  0  0  0  0  0
  192.2490  172.6160  135.3070 C   0  0  0  0  0  1  0  0  0  0  0  0
  191.6450  172.7070  136.6620 C   0  0  0  0  0  0  0  0  0  0  0  0
  190.2960  173.3970  138.2630 C   0  0  0  0  0  0  0  0  0  0  0  0
  188.1930  174.5350  138.6430 O   0  0  0  0  0  0  0  0  0  0  0  0
  190.5440  171.0060  141.1130 C   0  0  0  0  0  1  0  0  0  0  0  0
  190.9480  172.4410  138.9510 C   0  0  0  0  0  0  0  0  0  0  0  0
  1 40  1  6  0  0  0
  1  4  1  0  0  0  0
  2  3  2  0  0  0  0
  4  2  1  0  0  0  0
  5  2  1  0  0  0  0
  6  5  1  0  0  0  0
  6  9  1  0  0  0  0
  7  6  1  0  0  0  0
  8  7  1  0  0  0  0
 10  7  2  0  0  0  0
 11 12  1  0  0  0  0
 11  8  1  0  0  0  0
 13 14  1  0  0  0  0
 13 12  1  0  0  0  0
 15  1  1  0  0  0  0
 15 17  1  0  0  0  0
 16 19  1  0  0  0  0
 17 20  1  6  0  0  0
 17 18  1  0  0  0  0
 17 16  1  0  0  0  0
 18 25  1  1  0  0  0
 18 19  1  0  0  0  0
 19 21  1  1  0  0  0
 22 23  1  0  0  0  0
 23 25  1  0  0  0  0
 24 23  2  0  0  0  0
 26 22  1  0  0  0  0
 27 26  1  0  0  0  0
 28 27  1  0  0  0  0
 29 30  1  6  0  0  0
 29 32  1  0  0  0  0
 29 28  1  0  0  0  0
 32 31  1  0  0  0  0
 33 29  1  0  0  0  0
 33 34  1  1  0  0  0
 35 33  1  0  0  0  0
 36 38  2  0  0  0  0
 37 35  1  0  0  0  0
 38 37  1  0  0  0  0
 39 38  1  0  0  0  0
 40 41  1  0  0  0  0
 42 41  1  0  0  0  0
 43 46  1  0  0  0  0
 44 53  1  0  0  0  0
 45 46  2  0  0  0  0
 45 52  1  0  0  0  0
 46 42  1  0  0  0  0
 47 50  1  0  0  0  0
 48 49  1  0  0  0  0
 49 47  2  0  0  0  0
 49 44  1  0  0  0  0
 50 53  2  0  0  0  0
 50 43  1  0  0  0  0
 51 43  2  0  0  0  0
 53 45  1  0  0  0  0
M  END
>  <MODEL>
3

>  <REMARK>
 VINA RESULT:      -5.5      2.937      9.506
  Name = 
  21 active torsions:
  status: ('A' for Active; 'I' for Inactive)
    1  A    between atoms: C_3  and  C_21
    2  A    between atoms: C_3  and  C_41
    3  A    between atoms: C_3  and  O_51
    4  A    between atoms: N_4  and  C_32
    5  A    between atoms: C_5  and  N_28
    6  A    between atoms: C_5  and  C_33
    7  A    between atoms: O_7  and  N_11
    8  A    between atoms: O_7  and  C_41
    9  A    between atoms: C_8  and  C_44
   10  A    between atoms: N_10  and  C_44
   11  A    between atoms: C_12  and  C_15
   12  A    between atoms: C_14  and  C_33
   13  A    between atoms: C_15  and  C_39
   14  A    between atoms: C_20  and  C_45
   15  A    between atoms: C_22  and  N_46
   16  A    between atoms: C_25  and  C_32
   17  A    between atoms: C_25  and  O_51
   18  A    between atoms: C_37  and  C_39
   19  A    between atoms: C_37  and  O_53
   20  A    between atoms: C_39  and  N_42
   21  A    between atoms: C_45  and  O_53
                            x       y       z     vdW  Elec       q    Type
                         _______ _______ _______ _____ _____    ______ ____

>  <TORSDO>
F 21

$$$$
=
 OpenBabel11042418143D

 53 55  0  0  1  0  0  0  0  0999 V2000
  189.1920  173.2400  140.7000 C   0  0  2  0  0  3  0  0  0  0  0  0
  187.8430  175.3220  141.1600 C   0  0  0  0  0  0  0  0  0  0  0  0
  187.4050  174.8360  142.2360 O   0  0  0  0  0  0  0  0  0  0  0  0
  188.8090  174.6100  140.3870 N   0  0  0  0  0  2  0  0  0  0  0  0
  187.3530  176.6470  140.6830 C   0  0  0  0  0  2  0  0  0  0  0  0
  187.4450  177.6340  141.7530 N   0  0  0  0  0  0  0  0  0  0  0  0
  186.2790  178.0120  142.4970 C   0  0  0  0  0  0  0  0  0  0  0  0
  186.3430  179.1050  143.4220 N   0  0  0  0  0  2  0  0  0  0  0  0
  188.7300  178.2650  142.0180 C   0  0  0  0  0  1  0  0  0  0  0  0
  185.1990  177.3830  142.3370 O   0  0  0  0  0  0  0  0  0  0  0  0
  185.1990  179.5220  144.2190 C   0  0  0  0  0  2  0  0  0  0  0  0
  185.4010  179.1510  145.6850 C   0  0  0  0  0  2  0  0  0  0  0  0
  185.0060  177.7020  145.9370 C   0  0  0  0  0  2  0  0  0  0  0  0
  185.6650  177.1990  147.1300 N   0  0  0  0  0  1  0  0  0  0  0  0
  190.6600  173.1910  141.0980 C   0  0  0  0  0  2  0  0  0  0  0  0
  189.8840  171.5260  142.7610 N   0  0  0  0  0  2  0  0  0  0  0  0
  190.8340  172.5980  142.4920 C   0  0  2  0  0  0  0  0  0  0  0  0
  190.2660  173.5030  143.5770 C   0  0  1  0  0  3  0  0  0  0  0  0
  189.2910  172.3500  143.8110 C   0  0  2  0  0  3  0  0  0  0  0  0
  192.1490  172.1800  142.7290 O   0  0  0  0  0  1  0  0  0  0  0  0
  189.4780  171.7330  145.0510 O   0  0  0  0  0  1  0  0  0  0  0  0
  192.6200  175.0580  146.1570 N   0  0  0  0  0  2  0  0  0  0  0  0
  191.7190  174.9580  145.0540 C   0  0  0  0  0  0  0  0  0  0  0  0
  191.3880  175.9890  144.4040 O   0  0  0  0  0  0  0  0  0  0  0  0
  191.1950  173.6800  144.6930 N   0  0  0  0  0  2  0  0  0  0  0  0
  193.1390  176.3370  146.6080 C   0  0  0  0  0  2  0  0  0  0  0  0
  194.5700  176.5090  146.1310 C   0  0  0  0  0  2  0  0  0  0  0  0
  194.5860  177.0850  144.8430 O   0  0  0  0  0  0  0  0  0  0  0  0
  195.3800  176.3110  143.9550 C   0  0  2  0  0  0  0  0  0  0  0  0
  196.5140  177.0710  143.6580 O   0  0  0  0  0  1  0  0  0  0  0  0
  195.4990  176.1430  141.5340 O   0  0  0  0  0  1  0  0  0  0  0  0
  194.6360  176.0440  142.6270 C   0  0  0  0  0  2  0  0  0  0  0  0
  195.8550  175.0000  144.6310 C   0  0  2  0  0  3  0  0  0  0  0  0
  197.2400  174.8460  144.5100 O   0  0  0  0  0  1  0  0  0  0  0  0
  195.2150  173.8780  144.0880 O   0  0  0  0  0  0  0  0  0  0  0  0
  194.1820  171.8450  145.7570 O   0  0  0  0  0  1  0  0  0  0  0  0
  195.9900  172.8230  144.4420 N   0  0  0  0  0  2  0  0  0  0  0  0
  195.4780  171.7770  145.2650 C   0  0  0  0  0  0  0  0  0  0  0  0
  196.2030  170.7940  145.5500 O   0  0  0  0  0  0  0  0  0  0  0  0
  188.9270  172.3290  139.5050 C   0  0  0  0  0  2  0  0  0  0  0  0
  190.1060  171.7130  139.0790 O   0  0  0  0  0  0  0  0  0  0  0  0
  190.0850  171.8200  137.6890 C   0  0  0  0  0  2  0  0  0  0  0  0
  192.1930  170.5190  136.7560 C   0  0  0  0  0  0  0  0  0  0  0  0
  195.2210  172.7360  136.7270 S   0  0  0  0  0  0  0  0  0  0  0  0
  192.3320  172.7880  137.0780 C   0  0  0  0  0  0  0  0  0  0  0  0
  191.4730  171.7500  137.1370 C   0  0  0  0  0  0  0  0  0  0  0  0
  194.7000  170.2470  136.3690 N   0  0  0  0  0  0  0  0  0  0  0  0
  197.1580  170.7130  136.4280 C   0  0  0  0  0  1  0  0  0  0  0  0
  195.7330  171.1320  136.4530 C   0  0  0  0  0  0  0  0  0  0  0  0
  193.5380  170.9360  136.4280 C   0  0  0  0  0  0  0  0  0  0  0  0
  191.7490  169.3400  136.7710 O   0  0  0  0  0  0  0  0  0  0  0  0
  192.0590  174.1790  137.5220 C   0  0  0  0  0  1  0  0  0  0  0  0
  193.6150  172.2660  136.6180 C   0  0  0  0  0  0  0  0  0  0  0  0
  1 40  1  6  0  0  0
  1 15  1  0  0  0  0
  2  3  2  0  0  0  0
  4  1  1  0  0  0  0
  4  2  1  0  0  0  0
  5  2  1  0  0  0  0
  5  6  1  0  0  0  0
  6  9  1  0  0  0  0
  6  7  1  0  0  0  0
  7  8  1  0  0  0  0
  8 11  1  0  0  0  0
 10  7  2  0  0  0  0
 11 12  1  0  0  0  0
 12 13  1  0  0  0  0
 13 14  1  0  0  0  0
 15 17  1  0  0  0  0
 16 19  1  0  0  0  0
 17 20  1  1  0  0  0
 17 16  1  0  0  0  0
 17 18  1  0  0  0  0
 18 19  1  0  0  0  0
 18 25  1  1  0  0  0
 19 21  1  1  0  0  0
 22 26  1  0  0  0  0
 23 22  1  0  0  0  0
 24 23  2  0  0  0  0
 25 23  1  0  0  0  0
 27 26  1  0  0  0  0
 28 27  1  0  0  0  0
 29 30  1  6  0  0  0
 29 33  1  0  0  0  0
 29 28  1  0  0  0  0
 31 32  1  0  0  0  0
 32 29  1  0  0  0  0
 33 34  1  6  0  0  0
 35 37  1  0  0  0  0
 35 33  1  0  0  0  0
 37 38  1  0  0  0  0
 38 39  2  0  0  0  0
 38 36  1  0  0  0  0
 41 40  1  0  0  0  0
 42 41  1  0  0  0  0
 43 51  2  0  0  0  0
 43 46  1  0  0  0  0
 45 46  2  0  0  0  0
 45 52  1  0  0  0  0
 46 42  1  0  0  0  0
 47 50  1  0  0  0  0
 47 49  2  0  0  0  0
 48 49  1  0  0  0  0
 49 44  1  0  0  0  0
 50 53  2  0  0  0  0
 50 43  1  0  0  0  0
 53 44  1  0  0  0  0
 53 45  1  0  0  0  0
M  END
>  <MODEL>
4

>  <REMARK>
 VINA RESULT:      -5.2      2.811      7.814
  Name = 
  21 active torsions:
  status: ('A' for Active; 'I' for Inactive)
    1  A    between atoms: C_3  and  C_21
    2  A    between atoms: C_3  and  C_41
    3  A    between atoms: C_3  and  O_51
    4  A    between atoms: N_4  and  C_32
    5  A    between atoms: C_5  and  N_28
    6  A    between atoms: C_5  and  C_33
    7  A    between atoms: O_7  and  N_11
    8  A    between atoms: O_7  and  C_41
    9  A    between atoms: C_8  and  C_44
   10  A    between atoms: N_10  and  C_44
   11  A    between atoms: C_12  and  C_15
   12  A    between atoms: C_14  and  C_33
   13  A    between atoms: C_15  and  C_39
   14  A    between atoms: C_20  and  C_45
   15  A    between atoms: C_22  and  N_46
   16  A    between atoms: C_25  and  C_32
   17  A    between atoms: C_25  and  O_51
   18  A    between atoms: C_37  and  C_39
   19  A    between atoms: C_37  and  O_53
   20  A    between atoms: C_39  and  N_42
   21  A    between atoms: C_45  and  O_53
                            x       y       z     vdW  Elec       q    Type
                         _______ _______ _______ _____ _____    ______ ____

>  <TORSDO>
F 21

$$$$
=
 OpenBabel11042418143D

 53 55  0  0  1  0  0  0  0  0999 V2000
  188.4140  175.6490  143.0560 C   0  0  2  0  0  3  0  0  0  0  0  0
  187.0120  177.6660  143.6260 C   0  0  0  0  0  0  0  0  0  0  0  0
  186.8210  177.2410  144.7950 O   0  0  0  0  0  0  0  0  0  0  0  0
  187.8720  176.9610  142.7320 N   0  0  0  0  0  2  0  0  0  0  0  0
  186.3370  178.9130  143.1640 C   0  0  0  0  0  2  0  0  0  0  0  0
  184.8970  178.7030  143.0710 N   0  0  0  0  0  0  0  0  0  0  0  0
  184.2950  178.3340  141.8230 C   0  0  0  0  0  0  0  0  0  0  0  0
  182.8680  178.3020  141.6970 N   0  0  0  0  0  2  0  0  0  0  0  0
  184.0760  178.9240  144.2520 C   0  0  0  0  0  1  0  0  0  0  0  0
  185.0220  178.0370  140.8370 O   0  0  0  0  0  0  0  0  0  0  0  0
  182.2000  177.9150  140.4630 C   0  0  0  0  0  2  0  0  0  0  0  0
  180.7350  178.3390  140.4880 C   0  0  0  0  0  2  0  0  0  0  0  0
  180.5600  179.6430  141.2550 C   0  0  0  0  0  2  0  0  0  0  0  0
  180.0090  180.6700  140.3880 N   0  0  0  0  0  1  0  0  0  0  0  0
  189.9260  175.6560  142.8820 C   0  0  0  0  0  2  0  0  0  0  0  0
  189.7420  175.7490  145.3510 N   0  0  0  0  0  2  0  0  0  0  0  0
  190.6380  175.5210  144.2240 C   0  0  2  0  0  0  0  0  0  0  0  0
  191.5010  176.7340  144.5420 C   0  0  1  0  0  3  0  0  0  0  0  0
  190.5280  176.9290  145.7030 C   0  0  2  0  0  3  0  0  0  0  0  0
  191.3050  174.2970  144.3490 O   0  0  0  0  0  1  0  0  0  0  0  0
  191.1320  176.7350  146.9480 O   0  0  0  0  0  1  0  0  0  0  0  0
  195.2300  175.8940  144.6170 N   0  0  0  0  0  2  0  0  0  0  0  0
  193.9500  176.2640  144.1040 C   0  0  0  0  0  0  0  0  0  0  0  0
  193.8010  176.5090  142.8740 O   0  0  0  0  0  0  0  0  0  0  0  0
  192.8400  176.3570  144.9960 N   0  0  0  0  0  2  0  0  0  0  0  0
  196.4080  175.8390  143.7700 C   0  0  0  0  0  2  0  0  0  0  0  0
  196.8950  174.4060  143.6560 C   0  0  0  0  0  2  0  0  0  0  0  0
  196.3460  173.6230  144.6930 O   0  0  0  0  0  0  0  0  0  0  0  0
  195.9220  172.3600  144.1990 C   0  0  2  0  0  0  0  0  0  0  0  0
  196.8170  171.4100  144.6960 O   0  0  0  0  0  1  0  0  0  0  0  0
  194.7220  172.3110  142.0870 O   0  0  0  0  0  1  0  0  0  0  0  0
  195.9960  172.3090  142.6570 C   0  0  0  0  0  2  0  0  0  0  0  0
  194.5100  172.0010  144.7270 C   0  0  2  0  0  3  0  0  0  0  0  0
  194.0550  172.9610  145.6380 O   0  0  0  0  0  1  0  0  0  0  0  0
  194.4910  170.7390  145.3360 O   0  0  0  0  0  0  0  0  0  0  0  0
  191.8580  170.8990  144.3220 O   0  0  0  0  0  1  0  0  0  0  0  0
  194.0770  169.8850  144.3670 N   0  0  0  0  0  2  0  0  0  0  0  0
  192.7600  169.9660  143.8280 C   0  0  0  0  0  0  0  0  0  0  0  0
  192.4110  169.1880  142.9080 O   0  0  0  0  0  0  0  0  0  0  0  0
  187.7760  174.5770  142.1770 C   0  0  0  0  0  2  0  0  0  0  0  0
  188.6160  173.4680  142.0550 O   0  0  0  0  0  0  0  0  0  0  0  0
  188.2090  172.8350  140.8810 C   0  0  0  0  0  2  0  0  0  0  0  0
  190.6700  172.2630  140.0950 C   0  0  0  0  0  0  0  0  0  0  0  0
  191.5470  174.1620  136.9780 S   0  0  0  0  0  0  0  0  0  0  0  0
  189.3050  173.4770  138.7040 C   0  0  0  0  0  0  0  0  0  0  0  0
  189.3200  172.8210  139.8820 C   0  0  0  0  0  0  0  0  0  0  0  0
  192.7630  172.6980  138.7020 N   0  0  0  0  0  0  0  0  0  0  0  0
  194.3370  173.7860  137.0880 C   0  0  0  0  0  1  0  0  0  0  0  0
  192.9780  173.4760  137.6050 C   0  0  0  0  0  0  0  0  0  0  0  0
  191.4310  172.6150  138.9160 C   0  0  0  0  0  0  0  0  0  0  0  0
  191.0930  171.6580  141.1150 O   0  0  0  0  0  0  0  0  0  0  0  0
  188.1920  174.3070  138.1750 C   0  0  0  0  0  1  0  0  0  0  0  0
  190.6270  173.3260  138.1040 C   0  0  0  0  0  0  0  0  0  0  0  0
  1 40  1  6  0  0  0
  2  3  2  0  0  0  0
  4  1  1  0  0  0  0
  4  2  1  0  0  0  0
  5  2  1  0  0  0  0
  6  5  1  0  0  0  0
  6  9  1  0  0  0  0
  7  6  1  0  0  0  0
  8  7  1  0  0  0  0
 10  7  2  0  0  0  0
 11 12  1  0  0  0  0
 11  8  1  0  0  0  0
 12 13  1  0  0  0  0
 14 13  1  0  0  0  0
 15  1  1  0  0  0  0
 15 17  1  0  0  0  0
 16 19  1  0  0  0  0
 17 20  1  1  0  0  0
 17 18  1  0  0  0  0
 17 16  1  0  0  0  0
 18 25  1  1  0  0  0
 18 19  1  0  0  0  0
 19 21  1  1  0  0  0
 23 22  1  0  0  0  0
 23 25  1  0  0  0  0
 24 23  2  0  0  0  0
 26 22  1  0  0  0  0
 27 26  1  0  0  0  0
 27 28  1  0  0  0  0
 29 28  1  0  0  0  0
 29 30  1  1  0  0  0
 29 33  1  0  0  0  0
 31 32  1  0  0  0  0
 32 29  1  0  0  0  0
 33 35  1  0  0  0  0
 33 34  1  1  0  0  0
 37 35  1  0  0  0  0
 38 36  1  0  0  0  0
 38 37  1  0  0  0  0
 39 38  2  0  0  0  0
 41 40  1  0  0  0  0
 42 41  1  0  0  0  0
 43 51  2  0  0  0  0
 44 49  1  0  0  0  0
 44 53  1  0  0  0  0
 45 46  2  0  0  0  0
 46 43  1  0  0  0  0
 46 42  1  0  0  0  0
 47 50  1  0  0  0  0
 48 49  1  0  0  0  0
 49 47  2  0  0  0  0
 50 43  1  0  0  0  0
 52 45  1  0  0  0  0
 53 45  1  0  0  0  0
 53 50  2  0  0  0  0
M  END
>  <MODEL>
5

>  <REMARK>
 VINA RESULT:      -5.2      3.062      9.204
  Name = 
  21 active torsions:
  status: ('A' for Active; 'I' for Inactive)
    1  A    between atoms: C_3  and  C_21
    2  A    between atoms: C_3  and  C_41
    3  A    between atoms: C_3  and  O_51
    4  A    between atoms: N_4  and  C_32
    5  A    between atoms: C_5  and  N_28
    6  A    between atoms: C_5  and  C_33
    7  A    between atoms: O_7  and  N_11
    8  A    between atoms: O_7  and  C_41
    9  A    between atoms: C_8  and  C_44
   10  A    between atoms: N_10  and  C_44
   11  A    between atoms: C_12  and  C_15
   12  A    between atoms: C_14  and  C_33
   13  A    between atoms: C_15  and  C_39
   14  A    between atoms: C_20  and  C_45
   15  A    between atoms: C_22  and  N_46
   16  A    between atoms: C_25  and  C_32
   17  A    between atoms: C_25  and  O_51
   18  A    between atoms: C_37  and  C_39
   19  A    between atoms: C_37  and  O_53
   20  A    between atoms: C_39  and  N_42
   21  A    between atoms: C_45  and  O_53
                            x       y       z     vdW  Elec       q    Type
                         _______ _______ _______ _____ _____    ______ ____

>  <TORSDO>
F 21

$$$$
=
 OpenBabel11042418143D

 53 55  0  0  1  0  0  0  0  0999 V2000
  192.1410  171.6440  140.0160 C   0  0  2  0  0  3  0  0  0  0  0  0
  190.2060  173.0000  140.8990 C   0  0  0  0  0  0  0  0  0  0  0  0
  190.9870  173.7540  141.5370 O   0  0  0  0  0  0  0  0  0  0  0  0
  190.7230  171.9770  140.0480 N   0  0  0  0  0  2  0  0  0  0  0  0
  188.7300  173.1680  141.0310 C   0  0  0  0  0  2  0  0  0  0  0  0
  188.3020  174.3980  140.3740 N   0  0  0  0  0  0  0  0  0  0  0  0
  187.9160  175.5410  141.1490 C   0  0  0  0  0  0  0  0  0  0  0  0
  187.3310  176.6800  140.5050 N   0  0  0  0  0  2  0  0  0  0  0  0
  188.2250  174.4290  138.9210 C   0  0  0  0  0  1  0  0  0  0  0  0
  188.0920  175.5430  142.3980 O   0  0  0  0  0  0  0  0  0  0  0  0
  186.9380  177.8750  141.2360 C   0  0  0  0  0  2  0  0  0  0  0  0
  185.5310  177.7210  141.8040 C   0  0  0  0  0  2  0  0  0  0  0  0
  185.3560  178.5680  143.0580 C   0  0  0  0  0  2  0  0  0  0  0  0
  183.9490  178.6730  143.4050 N   0  0  0  0  0  1  0  0  0  0  0  0
  192.7710  172.1830  138.7400 C   0  0  0  0  0  2  0  0  0  0  0  0
  194.9370  173.3090  138.3200 N   0  0  0  0  0  2  0  0  0  0  0  0
  193.6670  173.3830  139.0310 C   0  0  2  0  0  0  0  0  0  0  0  0
  194.3210  173.2930  140.4030 C   0  0  1  0  0  3  0  0  0  0  0  0
  195.6220  173.2140  139.6070 C   0  0  2  0  0  3  0  0  0  0  0  0
  193.0200  174.5990  138.7850 O   0  0  0  0  0  1  0  0  0  0  0  0
  196.4330  174.3370  139.7910 O   0  0  0  0  0  1  0  0  0  0  0  0
  193.9140  175.8270  143.2370 N   0  0  0  0  0  2  0  0  0  0  0  0
  194.0160  174.5700  142.5680 C   0  0  0  0  0  0  0  0  0  0  0  0
  193.9430  173.4910  143.2210 O   0  0  0  0  0  0  0  0  0  0  0  0
  194.2040  174.5440  141.1540 N   0  0  0  0  0  2  0  0  0  0  0  0
  193.7820  175.9180  144.6810 C   0  0  0  0  0  2  0  0  0  0  0  0
  192.3340  176.1840  145.0490 C   0  0  0  0  0  2  0  0  0  0  0  0
  191.8640  175.1820  145.9250 O   0  0  0  0  0  0  0  0  0  0  0  0
  190.5170  175.4340  146.3020 C   0  0  2  0  0  0  0  0  0  0  0  0
  190.3700  174.9700  147.6120 O   0  0  0  0  0  1  0  0  0  0  0  0
  190.1330  173.5010  144.8810 O   0  0  0  0  0  1  0  0  0  0  0  0
  189.5310  174.6420  145.4140 C   0  0  0  0  0  2  0  0  0  0  0  0
  190.2130  176.9530  146.3010 C   0  0  2  0  0  3  0  0  0  0  0  0
  190.2930  177.4820  147.5940 O   0  0  0  0  0  1  0  0  0  0  0  0
  188.9460  177.2260  145.7670 O   0  0  0  0  0  0  0  0  0  0  0  0
  186.2130  176.5090  145.7460 O   0  0  0  0  0  0  0  0  0  0  0  0
  188.1600  177.4930  146.8400 N   0  0  0  0  0  2  0  0  0  0  0  0
  186.7840  177.1180  146.8540 C   0  0  0  0  0  0  0  0  0  0  0  0
  186.0860  177.3440  147.8720 O   0  0  0  0  0  1  0  0  0  0  0  0
  192.3330  170.1330  140.1140 C   0  0  0  0  0  2  0  0  0  0  0  0
  192.1130  169.6870  141.4190 O   0  0  0  0  0  0  0  0  0  0  0  0
  193.1500  168.7900  141.6720 C   0  0  0  0  0  2  0  0  0  0  0  0
  193.8900  169.7550  144.0220 C   0  0  0  0  0  0  0  0  0  0  0  0
  197.1180  171.6490  143.7270 S   0  0  0  0  0  0  0  0  0  0  0  0
  195.3600  169.8500  142.2610 C   0  0  0  0  0  0  0  0  0  0  0  0
  194.1430  169.3900  142.6140 C   0  0  0  0  0  0  0  0  0  0  0  0
  195.3000  171.2810  145.5040 N   0  0  0  0  0  0  0  0  0  0  0  0
  196.9750  173.0110  146.1890 C   0  0  0  0  0  1  0  0  0  0  0  0
  196.4440  171.9790  145.2590 C   0  0  0  0  0  0  0  0  0  0  0  0
  195.0860  170.4320  144.4730 C   0  0  0  0  0  0  0  0  0  0  0  0
  192.8320  169.5720  144.6800 O   0  0  0  0  0  0  0  0  0  0  0  0
  195.9450  169.8280  140.8950 C   0  0  0  0  0  1  0  0  0  0  0  0
  195.9450  170.4860  143.4380 C   0  0  0  0  0  0  0  0  0  0  0  0
  1 15  1  6  0  0  0
  1  4  1  0  0  0  0
  1 40  1  0  0  0  0
  2  5  1  0  0  0  0
  2  3  2  0  0  0  0
  4  2  1  0  0  0  0
  6  5  1  0  0  0  0
  6  7  1  0  0  0  0
  7 10  2  0  0  0  0
  8  7  1  0  0  0  0
  8 11  1  0  0  0  0
  9  6  1  0  0  0  0
 11 12  1  0  0  0  0
 12 13  1  0  0  0  0
 13 14  1  0  0  0  0
 15 17  1  0  0  0  0
 16 17  1  0  0  0  0
 16 19  1  0  0  0  0
 17 20  1  6  0  0  0
 17 18  1  0  0  0  0
 18 25  1  1  0  0  0
 19 21  1  1  0  0  0
 19 18  1  0  0  0  0
 22 26  1  0  0  0  0
 23 24  2  0  0  0  0
 23 22  1  0  0  0  0
 25 23  1  0  0  0  0
 26 27  1  0  0  0  0
 27 28  1  0  0  0  0
 28 29  1  0  0  0  0
 29 30  1  1  0  0  0
 31 32  1  0  0  0  0
 32 29  1  0  0  0  0
 33 29  1  0  0  0  0
 33 34  1  1  0  0  0
 35 33  1  0  0  0  0
 35 37  1  0  0  0  0
 36 38  2  0  0  0  0
 37 38  1  0  0  0  0
 38 39  1  0  0  0  0
 40 41  1  0  0  0  0
 41 42  1  0  0  0  0
 42 46  1  0  0  0  0
 43 50  1  0  0  0  0
 43 51  2  0  0  0  0
 44 49  1  0  0  0  0
 45 46  2  0  0  0  0
 45 53  1  0  0  0  0
 46 43  1  0  0  0  0
 49 47  2  0  0  0  0
 49 48  1  0  0  0  0
 50 47  1  0  0  0  0
 52 45  1  0  0  0  0
 53 44  1  0  0  0  0
 53 50  2  0  0  0  0
M  END
>  <MODEL>
6

>  <REMARK>
 VINA RESULT:      -5.2      1.825      5.495
  Name = 
  21 active torsions:
  status: ('A' for Active; 'I' for Inactive)
    1  A    between atoms: C_3  and  C_21
    2  A    between atoms: C_3  and  C_41
    3  A    between atoms: C_3  and  O_51
    4  A    between atoms: N_4  and  C_32
    5  A    between atoms: C_5  and  N_28
    6  A    between atoms: C_5  and  C_33
    7  A    between atoms: O_7  and  N_11
    8  A    between atoms: O_7  and  C_41
    9  A    between atoms: C_8  and  C_44
   10  A    between atoms: N_10  and  C_44
   11  A    between atoms: C_12  and  C_15
   12  A    between atoms: C_14  and  C_33
   13  A    between atoms: C_15  and  C_39
   14  A    between atoms: C_20  and  C_45
   15  A    between atoms: C_22  and  N_46
   16  A    between atoms: C_25  and  C_32
   17  A    between atoms: C_25  and  O_51
   18  A    between atoms: C_37  and  C_39
   19  A    between atoms: C_37  and  O_53
   20  A    between atoms: C_39  and  N_42
   21  A    between atoms: C_45  and  O_53
                            x       y       z     vdW  Elec       q    Type
                         _______ _______ _______ _____ _____    ______ ____

>  <TORSDO>
F 21

$$$$
=
 OpenBabel11042418143D

 53 55  0  0  1  0  0  0  0  0999 V2000
  188.0300  175.7620  141.8910 C   0  0  2  0  0  3  0  0  0  0  0  0
  186.0280  177.2890  142.0310 C   0  0  0  0  0  0  0  0  0  0  0  0
  185.5340  176.6060  142.9660 O   0  0  0  0  0  0  0  0  0  0  0  0
  187.3170  176.9720  141.5060 N   0  0  0  0  0  2  0  0  0  0  0  0
  185.2660  178.4370  141.4600 C   0  0  0  0  0  2  0  0  0  0  0  0
  183.9480  178.5250  142.0780 N   0  0  0  0  0  0  0  0  0  0  0  0
  182.7640  178.2790  141.3060 C   0  0  0  0  0  0  0  0  0  0  0  0
  181.4730  178.5390  141.8720 N   0  0  0  0  0  2  0  0  0  0  0  0
  183.8510  178.9150  143.4770 C   0  0  0  0  0  1  0  0  0  0  0  0
  182.8600  177.8350  140.1310 O   0  0  0  0  0  0  0  0  0  0  0  0
  180.2370  178.2900  141.1450 C   0  0  0  0  0  2  0  0  0  0  0  0
  179.1040  179.1480  141.7000 C   0  0  0  0  0  2  0  0  0  0  0  0
  178.5230  178.5280  142.9640 C   0  0  0  0  0  2  0  0  0  0  0  0
  178.1310  177.1510  142.7170 N   0  0  0  0  0  1  0  0  0  0  0  0
  189.3930  176.1240  142.4640 C   0  0  0  0  0  2  0  0  0  0  0  0
  188.1930  176.0970  144.6310 N   0  0  0  0  0  2  0  0  0  0  0  0
  189.4590  175.8330  143.9590 C   0  0  2  0  0  0  0  0  0  0  0  0
  190.2010  176.9190  144.7250 C   0  0  1  0  0  3  0  0  0  0  0  0
  188.8480  177.1570  145.3930 C   0  0  2  0  0  3  0  0  0  0  0  0
  189.9120  174.5360  144.2260 O   0  0  0  0  0  1  0  0  0  0  0  0
  188.8540  176.8240  146.7500 O   0  0  0  0  0  1  0  0  0  0  0  0
  193.4980  175.8410  146.3340 N   0  0  0  0  0  2  0  0  0  0  0  0
  192.5900  176.3970  145.3820 C   0  0  0  0  0  0  0  0  0  0  0  0
  193.0220  176.9120  144.3120 O   0  0  0  0  0  0  0  0  0  0  0  0
  191.1890  176.3660  145.6520 N   0  0  0  0  0  2  0  0  0  0  0  0
  194.9370  175.8960  146.1420 C   0  0  0  0  0  2  0  0  0  0  0  0
  195.4880  174.4910  145.9740 C   0  0  0  0  0  2  0  0  0  0  0  0
  195.4090  174.0970  144.6220 O   0  0  0  0  0  0  0  0  0  0  0  0
  194.6970  172.8750  144.4940 C   0  0  2  0  0  0  0  0  0  0  0  0
  194.3810  172.4530  145.7880 O   0  0  0  0  0  1  0  0  0  0  0  0
  196.8560  171.7640  144.4040 O   0  0  0  0  0  1  0  0  0  0  0  0
  195.5760  171.7800  143.8480 C   0  0  0  0  0  2  0  0  0  0  0  0
  193.3660  173.0820  143.7270 C   0  0  2  0  0  3  0  0  0  0  0  0
  192.3050  172.4480  144.3820 O   0  0  0  0  0  1  0  0  0  0  0  0
  193.4490  172.6080  142.4110 O   0  0  0  0  0  0  0  0  0  0  0  0
  195.6750  173.8090  141.1530 O   0  0  0  0  0  1  0  0  0  0  0  0
  193.2840  173.7030  141.6290 N   0  0  0  0  0  2  0  0  0  0  0  0
  194.3930  174.3090  140.9690 C   0  0  0  0  0  0  0  0  0  0  0  0
  194.2120  175.3000  140.2220 O   0  0  0  0  0  0  0  0  0  0  0  0
  188.1810  174.8300  140.6920 C   0  0  0  0  0  2  0  0  0  0  0  0
  188.4210  173.5180  141.1090 O   0  0  0  0  0  0  0  0  0  0  0  0
  188.1870  172.7340  139.9800 C   0  0  0  0  0  2  0  0  0  0  0  0
  190.6050  171.6600  139.9200 C   0  0  0  0  0  0  0  0  0  0  0  0
  192.5340  172.8890  136.9440 S   0  0  0  0  0  0  0  0  0  0  0  0
  189.8630  172.8470  138.1000 C   0  0  0  0  0  0  0  0  0  0  0  0
  189.4760  172.3870  139.3080 C   0  0  0  0  0  0  0  0  0  0  0  0
  193.0090  171.5330  139.0730 N   0  0  0  0  0  0  0  0  0  0  0  0
  195.0940  172.0920  137.8070 C   0  0  0  0  0  1  0  0  0  0  0  0
  193.6190  172.0870  137.9880 C   0  0  0  0  0  0  0  0  0  0  0  0
  191.6720  171.6990  138.9450 C   0  0  0  0  0  0  0  0  0  0  0  0
  190.6540  171.1600  141.0750 O   0  0  0  0  0  0  0  0  0  0  0  0
  189.0850  173.7520  137.2150 C   0  0  0  0  0  1  0  0  0  0  0  0
  191.2340  172.3950  137.8800 C   0  0  0  0  0  0  0  0  0  0  0  0
  1 40  1  6  0  0  0
  1 15  1  0  0  0  0
  2  3  2  0  0  0  0
  4  1  1  0  0  0  0
  4  2  1  0  0  0  0
  5  2  1  0  0  0  0
  5  6  1  0  0  0  0
  6  9  1  0  0  0  0
  7  8  1  0  0  0  0
  7  6  1  0  0  0  0
 10  7  2  0  0  0  0
 11 12  1  0  0  0  0
 11  8  1  0  0  0  0
 12 13  1  0  0  0  0
 14 13  1  0  0  0  0
 15 17  1  0  0  0  0
 16 19  1  0  0  0  0
 17 20  1  1  0  0  0
 17 16  1  0  0  0  0
 17 18  1  0  0  0  0
 18 19  1  0  0  0  0
 18 25  1  1  0  0  0
 19 21  1  1  0  0  0
 23 25  1  0  0  0  0
 23 22  1  0  0  0  0
 24 23  2  0  0  0  0
 26 22  1  0  0  0  0
 27 26  1  0  0  0  0
 28 27  1  0  0  0  0
 29 28  1  0  0  0  0
 29 30  1  1  0  0  0
 32 31  1  0  0  0  0
 32 29  1  0  0  0  0
 33 34  1  1  0  0  0
 33 29  1  0  0  0  0
 35 33  1  0  0  0  0
 37 35  1  0  0  0  0
 38 36  1  0  0  0  0
 38 37  1  0  0  0  0
 39 38  2  0  0  0  0
 40 41  1  0  0  0  0
 42 41  1  0  0  0  0
 43 51  2  0  0  0  0
 44 53  1  0  0  0  0
 44 49  1  0  0  0  0
 45 46  2  0  0  0  0
 46 43  1  0  0  0  0
 46 42  1  0  0  0  0
 48 49  1  0  0  0  0
 49 47  2  0  0  0  0
 50 47  1  0  0  0  0
 50 43  1  0  0  0  0
 52 45  1  0  0  0  0
 53 45  1  0  0  0  0
 53 50  2  0  0  0  0
M  END
>  <MODEL>
7

>  <REMARK>
 VINA RESULT:      -5.1      3.327      9.142
  Name = 
  21 active torsions:
  status: ('A' for Active; 'I' for Inactive)
    1  A    between atoms: C_3  and  C_21
    2  A    between atoms: C_3  and  C_41
    3  A    between atoms: C_3  and  O_51
    4  A    between atoms: N_4  and  C_32
    5  A    between atoms: C_5  and  N_28
    6  A    between atoms: C_5  and  C_33
    7  A    between atoms: O_7  and  N_11
    8  A    between atoms: O_7  and  C_41
    9  A    between atoms: C_8  and  C_44
   10  A    between atoms: N_10  and  C_44
   11  A    between atoms: C_12  and  C_15
   12  A    between atoms: C_14  and  C_33
   13  A    between atoms: C_15  and  C_39
   14  A    between atoms: C_20  and  C_45
   15  A    between atoms: C_22  and  N_46
   16  A    between atoms: C_25  and  C_32
   17  A    between atoms: C_25  and  O_51
   18  A    between atoms: C_37  and  C_39
   19  A    between atoms: C_37  and  O_53
   20  A    between atoms: C_39  and  N_42
   21  A    between atoms: C_45  and  O_53
                            x       y       z     vdW  Elec       q    Type
                         _______ _______ _______ _____ _____    ______ ____

>  <TORSDO>
F 21

$$$$
=
 OpenBabel11042418143D

 53 55  0  0  1  0  0  0  0  0999 V2000
  190.4050  171.4210  141.4340 C   0  0  2  0  0  3  0  0  0  0  0  0
  191.3470  169.9630  139.6050 C   0  0  0  0  0  0  0  0  0  0  0  0
  190.2030  169.5120  139.3330 O   0  0  0  0  0  0  0  0  0  0  0  0
  191.5070  170.9860  140.5870 N   0  0  0  0  0  2  0  0  0  0  0  0
  192.5480  169.4270  138.9010 C   0  0  0  0  0  2  0  0  0  0  0  0
  192.9810  170.3550  137.8640 N   0  0  0  0  0  0  0  0  0  0  0  0
  194.1030  171.2210  138.0850 C   0  0  0  0  0  0  0  0  0  0  0  0
  194.4130  172.2490  137.1360 N   0  0  0  0  0  2  0  0  0  0  0  0
  192.2270  170.4250  136.6210 C   0  0  0  0  0  1  0  0  0  0  0  0
  194.8160  171.0770  139.1150 O   0  0  0  0  0  0  0  0  0  0  0  0
  195.5490  173.1450  137.2960 C   0  0  0  0  0  2  0  0  0  0  0  0
  195.1190  174.4470  137.9640 C   0  0  0  0  0  2  0  0  0  0  0  0
  196.2320  174.9990  138.8450 C   0  0  0  0  0  2  0  0  0  0  0  0
  195.8830  174.8600  140.2480 N   0  0  0  0  0  1  0  0  0  0  0  0
  190.2270  172.9280  141.3180 C   0  0  0  0  0  2  0  0  0  0  0  0
  188.8190  172.7880  139.2840 N   0  0  0  0  0  2  0  0  0  0  0  0
  188.8990  173.2780  140.6550 C   0  0  2  0  0  0  0  0  0  0  0  0
  188.8320  174.7410  140.2370 C   0  0  1  0  0  3  0  0  0  0  0  0
  188.7570  174.1730  138.8210 C   0  0  2  0  0  3  0  0  0  0  0  0
  187.8010  172.8500  141.4090 O   0  0  0  0  0  1  0  0  0  0  0  0
  187.5210  174.4080  138.2130 O   0  0  0  0  0  1  0  0  0  0  0  0
  186.2900  177.1890  141.7090 N   0  0  0  0  0  2  0  0  0  0  0  0
  187.5490  176.6240  141.3410 C   0  0  0  0  0  0  0  0  0  0  0  0
  188.6250  177.2220  141.6250 O   0  0  0  0  0  0  0  0  0  0  0  0
  187.5800  175.3770  140.6470 N   0  0  0  0  0  2  0  0  0  0  0  0
  186.1920  178.4820  142.3630 C   0  0  0  0  0  2  0  0  0  0  0  0
  185.3220  178.3680  143.6010 C   0  0  0  0  0  2  0  0  0  0  0  0
  186.0190  178.8450  144.7310 O   0  0  0  0  0  0  0  0  0  0  0  0
  186.1950  177.8100  145.6880 C   0  0  2  0  0  0  0  0  0  0  0  0
  185.6930  176.6390  145.1150 O   0  0  0  0  0  1  0  0  0  0  0  0
  184.0660  178.4600  146.6650 O   0  0  0  0  0  1  0  0  0  0  0  0
  185.3770  178.0900  146.9700 C   0  0  0  0  0  2  0  0  0  0  0  0
  187.6960  177.5820  145.9930 C   0  0  2  0  0  3  0  0  0  0  0  0
  188.4890  177.9110  144.8870 O   0  0  0  0  0  1  0  0  0  0  0  0
  187.9520  176.2560  146.3670 O   0  0  0  0  0  0  0  0  0  0  0  0
  189.3190  173.7880  146.5280 O   0  0  0  0  0  0  0  0  0  0  0  0
  189.2720  176.2240  146.6770 N   0  0  0  0  0  2  0  0  0  0  0  0
  189.9820  174.9890  146.7410 C   0  0  0  0  0  0  0  0  0  0  0  0
  191.2110  174.9870  146.9940 O   0  0  0  0  0  1  0  0  0  0  0  0
  190.6600  171.0200  142.8840 C   0  0  0  0  0  2  0  0  0  0  0  0
  191.9800  171.2910  143.2510 O   0  0  0  0  0  0  0  0  0  0  0  0
  191.8810  172.0220  144.4350 C   0  0  0  0  0  2  0  0  0  0  0  0
  192.8970  174.4140  143.9350 C   0  0  0  0  0  0  0  0  0  0  0  0
  196.6050  174.4330  144.5110 S   0  0  0  0  0  0  0  0  0  0  0  0
  194.2160  172.8270  144.9400 C   0  0  0  0  0  0  0  0  0  0  0  0
  192.9610  173.0540  144.5040 C   0  0  0  0  0  0  0  0  0  0  0  0
  194.8440  176.0040  143.4990 N   0  0  0  0  0  0  0  0  0  0  0  0
  197.1810  176.8270  143.1420 C   0  0  0  0  0  1  0  0  0  0  0  0
  196.1860  175.8710  143.6940 C   0  0  0  0  0  0  0  0  0  0  0  0
  194.2160  174.9780  144.1160 C   0  0  0  0  0  0  0  0  0  0  0  0
  191.9170  174.9540  143.3560 O   0  0  0  0  0  0  0  0  0  0  0  0
  194.7500  171.5360  145.4470 C   0  0  0  0  0  1  0  0  0  0  0  0
  194.9860  174.0450  144.7060 C   0  0  0  0  0  0  0  0  0  0  0  0
  1 15  1  1  0  0  0
  1 40  1  0  0  0  0
  2  4  1  0  0  0  0
  3  2  2  0  0  0  0
  4  1  1  0  0  0  0
  5  2  1  0  0  0  0
  6  7  1  0  0  0  0
  6  5  1  0  0  0  0
  7 10  2  0  0  0  0
  8 11  1  0  0  0  0
  8  7  1  0  0  0  0
  9  6  1  0  0  0  0
 11 12  1  0  0  0  0
 12 13  1  0  0  0  0
 13 14  1  0  0  0  0
 16 17  1  0  0  0  0
 17 15  1  0  0  0  0
 17 20  1  1  0  0  0
 18 25  1  1  0  0  0
 18 17  1  0  0  0  0
 19 21  1  1  0  0  0
 19 16  1  0  0  0  0
 19 18  1  0  0  0  0
 22 26  1  0  0  0  0
 23 24  2  0  0  0  0
 23 22  1  0  0  0  0
 25 23  1  0  0  0  0
 26 27  1  0  0  0  0
 27 28  1  0  0  0  0
 28 29  1  0  0  0  0
 29 30  1  6  0  0  0
 29 33  1  0  0  0  0
 29 32  1  0  0  0  0
 31 32  1  0  0  0  0
 33 34  1  6  0  0  0
 33 35  1  0  0  0  0
 35 37  1  0  0  0  0
 36 38  2  0  0  0  0
 37 38  1  0  0  0  0
 38 39  1  0  0  0  0
 40 41  1  0  0  0  0
 41 42  1  0  0  0  0
 42 46  1  0  0  0  0
 43 50  1  0  0  0  0
 43 46  1  0  0  0  0
 44 53  1  0  0  0  0
 45 52  1  0  0  0  0
 46 45  2  0  0  0  0
 47 49  2  0  0  0  0
 47 50  1  0  0  0  0
 48 49  1  0  0  0  0
 49 44  1  0  0  0  0
 50 53  2  0  0  0  0
 51 43  2  0  0  0  0
 53 45  1  0  0  0  0
M  END
>  <MODEL>
8

>  <REMARK>
 VINA RESULT:      -5.1      1.728      2.714
  Name = 
  21 active torsions:
  status: ('A' for Active; 'I' for Inactive)
    1  A    between atoms: C_3  and  C_21
    2  A    between atoms: C_3  and  C_41
    3  A    between atoms: C_3  and  O_51
    4  A    between atoms: N_4  and  C_32
    5  A    between atoms: C_5  and  N_28
    6  A    between atoms: C_5  and  C_33
    7  A    between atoms: O_7  and  N_11
    8  A    between atoms: O_7  and  C_41
    9  A    between atoms: C_8  and  C_44
   10  A    between atoms: N_10  and  C_44
   11  A    between atoms: C_12  and  C_15
   12  A    between atoms: C_14  and  C_33
   13  A    between atoms: C_15  and  C_39
   14  A    between atoms: C_20  and  C_45
   15  A    between atoms: C_22  and  N_46
   16  A    between atoms: C_25  and  C_32
   17  A    between atoms: C_25  and  O_51
   18  A    between atoms: C_37  and  C_39
   19  A    between atoms: C_37  and  O_53
   20  A    between atoms: C_39  and  N_42
   21  A    between atoms: C_45  and  O_53
                            x       y       z     vdW  Elec       q    Type
                         _______ _______ _______ _____ _____    ______ ____

>  <TORSDO>
F 21

$$$$
=
 OpenBabel11042418143D

 53 55  0  0  1  0  0  0  0  0999 V2000
  191.6420  175.1130  145.2660 C   0  0  2  0  0  3  0  0  0  0  0  0
  190.6350  173.9940  143.2420 C   0  0  0  0  0  0  0  0  0  0  0  0
  191.2150  174.8010  142.4690 O   0  0  0  0  0  0  0  0  0  0  0  0
  190.8750  174.0400  144.6480 N   0  0  0  0  0  2  0  0  0  0  0  0
  189.6880  172.9820  142.6920 C   0  0  0  0  0  2  0  0  0  0  0  0
  188.8420  173.5860  141.6690 N   0  0  0  0  0  0  0  0  0  0  0  0
  188.9290  173.1550  140.3040 C   0  0  0  0  0  0  0  0  0  0  0  0
  188.2270  173.8700  139.2800 N   0  0  0  0  0  2  0  0  0  0  0  0
  187.9440  174.6670  142.0480 C   0  0  0  0  0  1  0  0  0  0  0  0
  189.6250  172.1470  140.0060 O   0  0  0  0  0  0  0  0  0  0  0  0
  188.2610  173.4680  137.8820 C   0  0  0  0  0  2  0  0  0  0  0  0
  189.4140  174.1520  137.1540 C   0  0  0  0  0  2  0  0  0  0  0  0
  190.4170  173.1260  136.6420 C   0  0  0  0  0  2  0  0  0  0  0  0
  189.7250  171.9970  136.0450 N   0  0  0  0  0  1  0  0  0  0  0  0
  192.7880  174.5280  146.0790 C   0  0  0  0  0  2  0  0  0  0  0  0
  194.0110  176.5430  146.8420 N   0  0  0  0  0  2  0  0  0  0  0  0
  194.0450  175.3840  145.9590 C   0  0  2  0  0  0  0  0  0  0  0  0
  194.0460  176.2290  144.6920 C   0  0  1  0  0  3  0  0  0  0  0  0
  194.0050  177.4070  145.6640 C   0  0  2  0  0  3  0  0  0  0  0  0
  195.2140  174.6380  146.1490 O   0  0  0  0  0  1  0  0  0  0  0  0
  195.1760  178.1680  145.6340 O   0  0  0  0  0  1  0  0  0  0  0  0
  196.7510  175.3140  142.1500 N   0  0  0  0  0  2  0  0  0  0  0  0
  195.4820  175.3450  142.8040 C   0  0  0  0  0  0  0  0  0  0  0  0
  194.5140  174.6720  142.3510 O   0  0  0  0  0  0  0  0  0  0  0  0
  195.3180  176.1460  143.9740 N   0  0  0  0  0  2  0  0  0  0  0  0
  196.9640  174.5640  140.9240 C   0  0  0  0  0  2  0  0  0  0  0  0
  196.9220  175.5040  139.7330 C   0  0  0  0  0  2  0  0  0  0  0  0
  196.0430  175.0020  138.7490 O   0  0  0  0  0  0  0  0  0  0  0  0
  196.7240  174.8090  137.5170 C   0  0  2  0  0  0  0  0  0  0  0  0
  197.8610  175.6190  137.5520 O   0  0  0  0  0  1  0  0  0  0  0  0
  196.2690  176.5180  135.8510 O   0  0  0  0  0  1  0  0  0  0  0  0
  195.8590  175.2700  136.3230 C   0  0  0  0  0  2  0  0  0  0  0  0
  197.1940  173.3410  137.3650 C   0  0  2  0  0  3  0  0  0  0  0  0
  197.1970  172.9510  136.0200 O   0  0  0  0  0  1  0  0  0  0  0  0
  196.3890  172.4610  138.0990 O   0  0  0  0  0  0  0  0  0  0  0  0
  193.5760  172.6720  138.2650 O   0  0  0  0  0  1  0  0  0  0  0  0
  195.6010  171.8500  137.1800 N   0  0  0  0  0  2  0  0  0  0  0  0
  194.1810  171.9640  137.2360 C   0  0  0  0  0  0  0  0  0  0  0  0
  193.4740  171.4200  136.3530 O   0  0  0  0  0  0  0  0  0  0  0  0
  190.7410  175.9720  146.1470 C   0  0  0  0  0  2  0  0  0  0  0  0
  189.4160  175.9170  145.7070 O   0  0  0  0  0  0  0  0  0  0  0  0
  188.7970  177.0200  146.2930 C   0  0  0  0  0  2  0  0  0  0  0  0
  186.3220  177.6990  145.6470 C   0  0  0  0  0  0  0  0  0  0  0  0
  186.0440  178.3730  141.9650 S   0  0  0  0  0  0  0  0  0  0  0  0
  187.9890  177.9310  144.0850 C   0  0  0  0  0  0  0  0  0  0  0  0
  187.7680  177.5930  145.3720 C   0  0  0  0  0  0  0  0  0  0  0  0
  184.4500  178.1090  143.9610 N   0  0  0  0  0  0  0  0  0  0  0  0
  183.2350  178.2590  141.7780 C   0  0  0  0  0  1  0  0  0  0  0  0
  184.4670  178.2780  142.6090 C   0  0  0  0  0  0  0  0  0  0  0  0
  185.7220  178.1690  144.4180 C   0  0  0  0  0  0  0  0  0  0  0  0
  185.7220  177.3870  146.7100 O   0  0  0  0  0  0  0  0  0  0  0  0
  189.2790  177.8200  143.3570 C   0  0  0  0  0  1  0  0  0  0  0  0
  186.7020  178.3040  143.5050 C   0  0  0  0  0  0  0  0  0  0  0  0
  1 15  1  1  0  0  0
  1 40  1  0  0  0  0
  2  4  1  0  0  0  0
  3  2  2  0  0  0  0
  4  1  1  0  0  0  0
  5  2  1  0  0  0  0
  6  9  1  0  0  0  0
  6  5  1  0  0  0  0
  7  6  1  0  0  0  0
  8  7  1  0  0  0  0
 10  7  2  0  0  0  0
 11  8  1  0  0  0  0
 12 11  1  0  0  0  0
 13 12  1  0  0  0  0
 14 13  1  0  0  0  0
 17 15  1  0  0  0  0
 17 20  1  1  0  0  0
 17 16  1  0  0  0  0
 18 25  1  1  0  0  0
 18 19  1  0  0  0  0
 18 17  1  0  0  0  0
 19 21  1  1  0  0  0
 19 16  1  0  0  0  0
 22 23  1  0  0  0  0
 23 25  1  0  0  0  0
 24 23  2  0  0  0  0
 26 22  1  0  0  0  0
 27 26  1  0  0  0  0
 28 27  1  0  0  0  0
 29 30  1  1  0  0  0
 29 28  1  0  0  0  0
 31 32  1  0  0  0  0
 32 29  1  0  0  0  0
 33 34  1  6  0  0  0
 33 29  1  0  0  0  0
 33 35  1  0  0  0  0
 37 38  1  0  0  0  0
 37 35  1  0  0  0  0
 38 36  1  0  0  0  0
 39 38  2  0  0  0  0
 41 40  1  0  0  0  0
 41 42  1  0  0  0  0
 43 51  2  0  0  0  0
 44 49  1  0  0  0  0
 44 53  1  0  0  0  0
 45 46  2  0  0  0  0
 46 43  1  0  0  0  0
 46 42  1  0  0  0  0
 47 50  1  0  0  0  0
 48 49  1  0  0  0  0
 49 47  2  0  0  0  0
 50 43  1  0  0  0  0
 52 45  1  0  0  0  0
 53 45  1  0  0  0  0
 53 50  2  0  0  0  0
M  END
>  <MODEL>
9

>  <REMARK>
 VINA RESULT:      -5.1      3.375      9.932
  Name = 
  21 active torsions:
  status: ('A' for Active; 'I' for Inactive)
    1  A    between atoms: C_3  and  C_21
    2  A    between atoms: C_3  and  C_41
    3  A    between atoms: C_3  and  O_51
    4  A    between atoms: N_4  and  C_32
    5  A    between atoms: C_5  and  N_28
    6  A    between atoms: C_5  and  C_33
    7  A    between atoms: O_7  and  N_11
    8  A    between atoms: O_7  and  C_41
    9  A    between atoms: C_8  and  C_44
   10  A    between atoms: N_10  and  C_44
   11  A    between atoms: C_12  and  C_15
   12  A    between atoms: C_14  and  C_33
   13  A    between atoms: C_15  and  C_39
   14  A    between atoms: C_20  and  C_45
   15  A    between atoms: C_22  and  N_46
   16  A    between atoms: C_25  and  C_32
   17  A    between atoms: C_25  and  O_51
   18  A    between atoms: C_37  and  C_39
   19  A    between atoms: C_37  and  O_53
   20  A    between atoms: C_39  and  N_42
   21  A    between atoms: C_45  and  O_53
                            x       y       z     vdW  Elec       q    Type
                         _______ _______ _______ _____ _____    ______ ____

>  <TORSDO>
F 21

$$$$
