=
 OpenBabel11042414233D

 27 30  0  0  1  0  0  0  0  0999 V2000
  190.4150  174.1040  145.6980 C   0  0  2  0  0  3  0  0  0  0  0  0
  191.3570  178.2140  143.4280 C   0  0  0  0  0  3  0  0  0  0  0  0
  189.2930  174.1330  146.5510 O   0  0  0  0  0  0  0  0  0  0  0  0
  190.6850  174.7240  143.2110 C   0  0  1  0  0  3  0  0  0  0  0  0
  189.9570  175.3590  146.3690 C   0  0  2  0  0  3  0  0  0  0  0  0
  191.5680  176.9940  142.8960 N   0  0  0  0  0  0  0  0  0  0  0  0
  190.0670  176.8780  144.4320 C   0  0  0  0  0  0  0  0  0  0  0  0
  190.4250  178.1770  144.4060 N   0  0  0  0  0  0  0  0  0  0  0  0
  189.1470  176.2740  145.4540 C   0  0  2  0  0  3  0  0  0  0  0  0
  190.7650  176.1580  143.5310 N   0  0  0  0  0  0  0  0  0  0  0  0
  189.9210  173.8870  144.2600 C   0  0  1  0  0  3  0  0  0  0  0  0
  189.9690  172.4240  143.9400 C   0  0  0  0  0  0  0  0  0  0  0  0
  191.1880  171.7090  144.0980 N   0  0  0  0  0  1  0  0  0  0  0  0
  188.9400  171.8250  143.5250 O   0  0  0  0  0  0  0  0  0  0  0  0
  188.3790  177.3010  146.2370 C   0  0  0  0  0  0  0  0  0  0  0  0
  188.9080  177.8250  147.2550 O   0  0  0  0  0  0  0  0  0  0  0  0
  185.9120  176.7650  147.8020 N   0  0  0  0  0  1  0  0  0  0  0  0
  187.0220  177.6960  145.7910 C   0  0  0  0  0  0  0  0  0  0  0  0
  184.6490  177.8340  146.0640 N   0  0  0  0  0  0  0  0  0  0  0  0
  185.8570  177.4370  146.5460 C   0  0  0  0  0  0  0  0  0  0  0  0
  185.6790  178.7370  144.1250 C   0  0  0  0  0  3  0  0  0  0  0  0
  184.5340  178.4770  144.8740 C   0  0  0  0  0  3  0  0  0  0  0  0
  186.8890  178.3420  144.5980 N   0  0  0  0  0  0  0  0  0  0  0  0
  190.0500  174.5470  141.8640 C   0  0  0  0  0  3  0  0  0  0  0  0
  188.8390  175.0220  141.6150 C   0  0  0  0  0  3  0  0  0  0  0  0
  188.2700  174.8460  140.3610 O   0  0  0  0  0  0  0  0  0  0  0  0
  188.6190  173.7200  139.5780 C   0  0  0  0  0  1  0  0  0  0  0  0
  1  5  1  0  0  0  0
  1  3  1  1  0  0  0
  2  8  1  0  0  0  0
  4 24  1  6  0  0  0
  4 10  1  0  0  0  0
  4 11  1  0  0  0  0
  5  3  1  1  0  0  0
  6  2  2  0  0  0  0
  6 10  1  0  0  0  0
  7  9  1  0  0  0  0
  8  7  2  0  0  0  0
  9 15  1  1  0  0  0
  9  5  1  0  0  0  0
 10  7  1  0  0  0  0
 11 12  1  6  0  0  0
 11  1  1  0  0  0  0
 12 13  1  0  0  0  0
 14 12  2  0  0  0  0
 15 16  2  0  0  0  0
 18 15  1  0  0  0  0
 18 20  1  0  0  0  0
 19 20  2  0  0  0  0
 20 17  1  0  0  0  0
 21 23  1  0  0  0  0
 21 22  2  0  0  0  0
 22 19  1  0  0  0  0
 23 18  2  0  0  0  0
 25 24  2  0  0  0  0
 26 25  1  0  0  0  0
 27 26  1  0  0  0  0
M  END
>  <MODEL>
1

>  <REMARK>
 VINA RESULT:      -6.4      0.000      0.000
  Name = 
  5 active torsions:
  status: ('A' for Active; 'I' for Inactive)
    1  A    between atoms: C_2  and  C_27
    2  A    between atoms: C_6  and  C_7
    3  A    between atoms: C_7  and  C_25
    4  A    between atoms: C_11  and  C_16
    5  A    between atoms: C_13  and  O_14
                            x       y       z     vdW  Elec       q    Type
                         _______ _______ _______ _____ _____    ______ ____

>  <TORSDO>
F 5

$$$$
=
 OpenBabel11042414233D

 27 30  0  0  1  0  0  0  0  0999 V2000
  187.7400  176.5270  146.1480 C   0  0  2  0  0  3  0  0  0  0  0  0
  188.8510  174.8100  141.8180 C   0  0  0  0  0  3  0  0  0  0  0  0
  188.6210  177.5090  146.6490 O   0  0  0  0  0  0  0  0  0  0  0  0
  186.4430  176.3710  143.9270 C   0  0  1  0  0  3  0  0  0  0  0  0
  189.1830  176.5760  145.7590 C   0  0  2  0  0  3  0  0  0  0  0  0
  187.5900  174.9750  142.2620 N   0  0  0  0  0  0  0  0  0  0  0  0
  188.9230  176.2860  143.3260 C   0  0  0  0  0  0  0  0  0  0  0  0
  189.7190  175.6120  142.4730 N   0  0  0  0  0  0  0  0  0  0  0  0
  189.4210  177.2170  144.3940 C   0  0  2  0  0  3  0  0  0  0  0  0
  187.6380  175.8940  143.2110 N   0  0  0  0  0  0  0  0  0  0  0  0
  186.7570  177.2090  145.1860 C   0  0  1  0  0  3  0  0  0  0  0  0
  185.5100  177.5700  145.9330 C   0  0  0  0  0  0  0  0  0  0  0  0
  185.1380  178.9370  146.0600 N   0  0  0  0  0  1  0  0  0  0  0  0
  184.7950  176.6750  146.4570 O   0  0  0  0  0  0  0  0  0  0  0  0
  190.8590  177.6100  144.2100 C   0  0  0  0  0  0  0  0  0  0  0  0
  191.1340  178.6800  143.6010 O   0  0  0  0  0  0  0  0  0  0  0  0
  192.9290  176.2860  142.5400 N   0  0  0  0  0  1  0  0  0  0  0  0
  191.9310  176.7480  144.7610 C   0  0  0  0  0  0  0  0  0  0  0  0
  193.8590  175.3490  144.5420 N   0  0  0  0  0  0  0  0  0  0  0  0
  192.9100  176.1250  143.9560 C   0  0  0  0  0  0  0  0  0  0  0  0
  192.9300  175.7690  146.6860 C   0  0  0  0  0  3  0  0  0  0  0  0
  193.8920  175.1580  145.8860 C   0  0  0  0  0  3  0  0  0  0  0  0
  191.9770  176.5440  146.1080 N   0  0  0  0  0  0  0  0  0  0  0  0
  185.5850  177.1680  142.9910 C   0  0  0  0  0  3  0  0  0  0  0  0
  186.0870  178.1850  142.3060 C   0  0  0  0  0  3  0  0  0  0  0  0
  185.2740  178.9100  141.4460 O   0  0  0  0  0  0  0  0  0  0  0  0
  184.4500  178.2330  140.5140 C   0  0  0  0  0  1  0  0  0  0  0  0
  1  3  1  1  0  0  0
  2  6  2  0  0  0  0
  2  8  1  0  0  0  0
  4 24  1  6  0  0  0
  4 11  1  0  0  0  0
  5  1  1  0  0  0  0
  5  3  1  1  0  0  0
  6 10  1  0  0  0  0
  7  9  1  0  0  0  0
  8  7  2  0  0  0  0
  9 15  1  6  0  0  0
  9  5  1  0  0  0  0
 10  7  1  0  0  0  0
 10  4  1  0  0  0  0
 11 12  1  1  0  0  0
 11  1  1  0  0  0  0
 12 13  1  0  0  0  0
 12 14  2  0  0  0  0
 15 18  1  0  0  0  0
 16 15  2  0  0  0  0
 17 20  1  0  0  0  0
 18 23  1  0  0  0  0
 19 22  2  0  0  0  0
 20 19  1  0  0  0  0
 20 18  2  0  0  0  0
 22 21  1  0  0  0  0
 23 21  2  0  0  0  0
 25 24  2  0  0  0  0
 26 25  1  0  0  0  0
 27 26  1  0  0  0  0
M  END
>  <MODEL>
2

>  <REMARK>
 VINA RESULT:      -6.2      2.601      5.850
  Name = 
  5 active torsions:
  status: ('A' for Active; 'I' for Inactive)
    1  A    between atoms: C_2  and  C_27
    2  A    between atoms: C_6  and  C_7
    3  A    between atoms: C_7  and  C_25
    4  A    between atoms: C_11  and  C_16
    5  A    between atoms: C_13  and  O_14
                            x       y       z     vdW  Elec       q    Type
                         _______ _______ _______ _____ _____    ______ ____

>  <TORSDO>
F 5

$$$$
=
 OpenBabel11042414233D

 27 30  0  0  1  0  0  0  0  0999 V2000
  187.7240  176.1800  146.2620 C   0  0  2  0  0  3  0  0  0  0  0  0
  188.5100  175.0420  141.6770 C   0  0  0  0  0  3  0  0  0  0  0  0
  188.7900  176.8420  146.9070 O   0  0  0  0  0  0  0  0  0  0  0  0
  186.4650  176.7000  144.0750 C   0  0  1  0  0  3  0  0  0  0  0  0
  189.1500  175.9790  145.8570 C   0  0  2  0  0  3  0  0  0  0  0  0
  187.3070  175.3990  142.1700 N   0  0  0  0  0  0  0  0  0  0  0  0
  188.8760  176.1810  143.4170 C   0  0  0  0  0  0  0  0  0  0  0  0
  189.5200  175.5080  142.4430 N   0  0  0  0  0  0  0  0  0  0  0  0
  189.5470  176.7790  144.6190 C   0  0  2  0  0  3  0  0  0  0  0  0
  187.5380  176.1050  143.2620 N   0  0  0  0  0  0  0  0  0  0  0  0
  186.9320  177.2160  145.4530 C   0  0  1  0  0  3  0  0  0  0  0  0
  185.7810  177.7070  146.2780 C   0  0  0  0  0  0  0  0  0  0  0  0
  185.7930  179.0370  146.7810 N   0  0  0  0  0  1  0  0  0  0  0  0
  184.8090  176.9470  146.5360 O   0  0  0  0  0  0  0  0  0  0  0  0
  191.0390  176.8750  144.4760 C   0  0  0  0  0  0  0  0  0  0  0  0
  191.5490  177.9310  144.0120 O   0  0  0  0  0  0  0  0  0  0  0  0
  192.3380  176.6930  147.1410 N   0  0  0  0  0  1  0  0  0  0  0  0
  191.8890  175.7370  144.8990 C   0  0  0  0  0  0  0  0  0  0  0  0
  193.2650  174.5820  146.4800 N   0  0  0  0  0  0  0  0  0  0  0  0
  192.5000  175.6630  146.1700 C   0  0  0  0  0  0  0  0  0  0  0  0
  192.8570  173.6360  144.3410 C   0  0  0  0  0  3  0  0  0  0  0  0
  193.4560  173.5690  145.5960 C   0  0  0  0  0  3  0  0  0  0  0  0
  192.0920  174.7120  144.0240 N   0  0  0  0  0  0  0  0  0  0  0  0
  185.8190  177.8150  143.3100 C   0  0  0  0  0  3  0  0  0  0  0  0
  184.7920  177.5830  142.5050 C   0  0  0  0  0  3  0  0  0  0  0  0
  184.2090  178.6310  141.8050 O   0  0  0  0  0  0  0  0  0  0  0  0
  183.4860  178.3700  140.6160 C   0  0  0  0  0  1  0  0  0  0  0  0
  1  3  1  1  0  0  0
  2  6  2  0  0  0  0
  2  8  1  0  0  0  0
  4 24  1  6  0  0  0
  4 11  1  0  0  0  0
  5  1  1  0  0  0  0
  5  3  1  1  0  0  0
  6 10  1  0  0  0  0
  7  9  1  0  0  0  0
  8  7  2  0  0  0  0
  9 15  1  6  0  0  0
  9  5  1  0  0  0  0
 10  7  1  0  0  0  0
 10  4  1  0  0  0  0
 11  1  1  0  0  0  0
 11 12  1  1  0  0  0
 12 14  2  0  0  0  0
 12 13  1  0  0  0  0
 15 18  1  0  0  0  0
 16 15  2  0  0  0  0
 18 20  1  0  0  0  0
 20 19  2  0  0  0  0
 20 17  1  0  0  0  0
 21 22  2  0  0  0  0
 22 19  1  0  0  0  0
 23 21  1  0  0  0  0
 23 18  2  0  0  0  0
 25 24  2  0  0  0  0
 26 25  1  0  0  0  0
 27 26  1  0  0  0  0
M  END
>  <MODEL>
3

>  <REMARK>
 VINA RESULT:      -6.2      2.689      5.824
  Name = 
  5 active torsions:
  status: ('A' for Active; 'I' for Inactive)
    1  A    between atoms: C_2  and  C_27
    2  A    between atoms: C_6  and  C_7
    3  A    between atoms: C_7  and  C_25
    4  A    between atoms: C_11  and  C_16
    5  A    between atoms: C_13  and  O_14
                            x       y       z     vdW  Elec       q    Type
                         _______ _______ _______ _____ _____    ______ ____

>  <TORSDO>
F 5

$$$$
=
 OpenBabel11042414233D

 27 30  0  0  1  0  0  0  0  0999 V2000
  188.1950  173.8940  142.3740 C   0  0  2  0  0  3  0  0  0  0  0  0
  188.2360  176.8150  146.1680 C   0  0  0  0  0  3  0  0  0  0  0  0
  188.1350  174.5390  141.1200 O   0  0  0  0  0  0  0  0  0  0  0  0
  189.8090  174.1780  144.3630 C   0  0  1  0  0  3  0  0  0  0  0  0
  187.5500  175.2310  142.1960 C   0  0  2  0  0  3  0  0  0  0  0  0
  188.8990  175.6420  146.1130 N   0  0  0  0  0  0  0  0  0  0  0  0
  188.5540  176.3890  144.1250 C   0  0  0  0  0  0  0  0  0  0  0  0
  187.9930  177.3090  144.9340 N   0  0  0  0  0  0  0  0  0  0  0  0
  188.4380  176.3950  142.6280 C   0  0  2  0  0  3  0  0  0  0  0  0
  189.0900  175.3740  144.8330 N   0  0  0  0  0  0  0  0  0  0  0  0
  189.6550  173.9060  142.8510 C   0  0  1  0  0  3  0  0  0  0  0  0
  190.3120  172.6200  142.4520 C   0  0  0  0  0  0  0  0  0  0  0  0
  191.3780  172.6380  141.5100 N   0  0  0  0  0  1  0  0  0  0  0  0
  189.9220  171.5240  142.9370 O   0  0  0  0  0  0  0  0  0  0  0  0
  187.9430  177.7030  142.0800 C   0  0  0  0  0  0  0  0  0  0  0  0
  188.7690  178.6250  141.8410 O   0  0  0  0  0  0  0  0  0  0  0  0
  186.7290  177.4400  139.3810 N   0  0  0  0  0  1  0  0  0  0  0  0
  186.4970  177.8830  141.8090 C   0  0  0  0  0  0  0  0  0  0  0  0
  184.5950  177.9340  140.3590 N   0  0  0  0  0  0  0  0  0  0  0  0
  185.9330  177.7530  140.5210 C   0  0  0  0  0  0  0  0  0  0  0  0
  184.3350  178.3630  142.6790 C   0  0  0  0  0  3  0  0  0  0  0  0
  183.7850  178.2340  141.4060 C   0  0  0  0  0  3  0  0  0  0  0  0
  185.6700  178.1850  142.8490 N   0  0  0  0  0  0  0  0  0  0  0  0
  191.2620  174.3020  144.7090 C   0  0  0  0  0  3  0  0  0  0  0  0
  191.9870  175.3120  144.2510 C   0  0  0  0  0  3  0  0  0  0  0  0
  193.3320  175.4060  144.5830 O   0  0  0  0  0  0  0  0  0  0  0  0
  193.8580  176.6310  145.0620 C   0  0  0  0  0  1  0  0  0  0  0  0
  1  3  1  6  0  0  0
  1 11  1  0  0  0  0
  4 24  1  6  0  0  0
  4 10  1  0  0  0  0
  5  3  1  6  0  0  0
  5  1  1  0  0  0  0
  5  9  1  0  0  0  0
  6  2  2  0  0  0  0
  7 10  1  0  0  0  0
  7  8  2  0  0  0  0
  8  2  1  0  0  0  0
  9 15  1  1  0  0  0
  9  7  1  0  0  0  0
 10  6  1  0  0  0  0
 11 12  1  1  0  0  0
 11  4  1  0  0  0  0
 12 14  2  0  0  0  0
 13 12  1  0  0  0  0
 16 15  2  0  0  0  0
 17 20  1  0  0  0  0
 18 15  1  0  0  0  0
 18 23  1  0  0  0  0
 19 20  1  0  0  0  0
 19 22  2  0  0  0  0
 20 18  2  0  0  0  0
 21 23  2  0  0  0  0
 22 21  1  0  0  0  0
 25 26  1  0  0  0  0
 25 24  2  0  0  0  0
 26 27  1  0  0  0  0
M  END
>  <MODEL>
4

>  <REMARK>
 VINA RESULT:      -6.1      2.698      4.346
  Name = 
  5 active torsions:
  status: ('A' for Active; 'I' for Inactive)
    1  A    between atoms: C_2  and  C_27
    2  A    between atoms: C_6  and  C_7
    3  A    between atoms: C_7  and  C_25
    4  A    between atoms: C_11  and  C_16
    5  A    between atoms: C_13  and  O_14
                            x       y       z     vdW  Elec       q    Type
                         _______ _______ _______ _____ _____    ______ ____

>  <TORSDO>
F 5

$$$$
=
 OpenBabel11042414233D

 27 30  0  0  1  0  0  0  0  0999 V2000
  188.6790  177.6670  142.9050 C   0  0  2  0  0  3  0  0  0  0  0  0
  185.5620  179.4610  146.0680 C   0  0  0  0  0  3  0  0  0  0  0  0
  189.3930  176.5330  143.3440 O   0  0  0  0  0  0  0  0  0  0  0  0
  186.1510  178.1580  142.8060 C   0  0  1  0  0  3  0  0  0  0  0  0
  188.9760  177.4220  144.3500 C   0  0  2  0  0  3  0  0  0  0  0  0
  185.3680  179.4630  144.7340 N   0  0  0  0  0  0  0  0  0  0  0  0
  186.7430  177.9000  145.2760 C   0  0  0  0  0  0  0  0  0  0  0  0
  186.4310  178.4960  146.4430 N   0  0  0  0  0  0  0  0  0  0  0  0
  187.7950  176.8400  145.1210 C   0  0  2  0  0  3  0  0  0  0  0  0
  186.1140  178.4900  144.2400 N   0  0  0  0  0  0  0  0  0  0  0  0
  187.3000  177.2060  142.4110 C   0  0  1  0  0  3  0  0  0  0  0  0
  187.3560  176.9930  140.9290 C   0  0  0  0  0  0  0  0  0  0  0  0
  187.7940  175.7420  140.4140 N   0  0  0  0  0  1  0  0  0  0  0  0
  187.0260  177.9160  140.1370 O   0  0  0  0  0  0  0  0  0  0  0  0
  188.2280  176.2430  146.4300 C   0  0  0  0  0  0  0  0  0  0  0  0
  187.3560  175.9340  147.2870 O   0  0  0  0  0  0  0  0  0  0  0  0
  189.7020  173.8500  145.4680 N   0  0  0  0  0  1  0  0  0  0  0  0
  189.6680  176.0080  146.6860 C   0  0  0  0  0  0  0  0  0  0  0  0
  191.6810  174.7280  146.5000 N   0  0  0  0  0  0  0  0  0  0  0  0
  190.3570  174.8670  146.2210 C   0  0  0  0  0  0  0  0  0  0  0  0
  191.6860  176.7910  147.6750 C   0  0  0  0  0  3  0  0  0  0  0  0
  192.3590  175.6630  147.2140 C   0  0  0  0  0  3  0  0  0  0  0  0
  190.3640  176.9360  147.4030 N   0  0  0  0  0  0  0  0  0  0  0  0
  184.8370  177.5620  142.3980 C   0  0  0  0  0  3  0  0  0  0  0  0
  183.9250  178.2910  141.7700 C   0  0  0  0  0  3  0  0  0  0  0  0
  182.7150  177.7190  141.4020 O   0  0  0  0  0  0  0  0  0  0  0  0
  181.6770  178.5320  140.8870 C   0  0  0  0  0  1  0  0  0  0  0  0
  1  3  1  6  0  0  0
  1  5  1  0  0  0  0
  2  8  1  0  0  0  0
  4 24  1  1  0  0  0
  4 10  1  0  0  0  0
  5  3  1  6  0  0  0
  5  9  1  0  0  0  0
  6  2  2  0  0  0  0
  7  8  2  0  0  0  0
  9  7  1  0  0  0  0
  9 15  1  1  0  0  0
 10  6  1  0  0  0  0
 10  7  1  0  0  0  0
 11 12  1  6  0  0  0
 11  4  1  0  0  0  0
 11  1  1  0  0  0  0
 13 12  1  0  0  0  0
 14 12  2  0  0  0  0
 15 18  1  0  0  0  0
 15 16  2  0  0  0  0
 17 20  1  0  0  0  0
 18 23  1  0  0  0  0
 19 22  2  0  0  0  0
 20 19  1  0  0  0  0
 20 18  2  0  0  0  0
 22 21  1  0  0  0  0
 23 21  2  0  0  0  0
 25 24  2  0  0  0  0
 26 25  1  0  0  0  0
 27 26  1  0  0  0  0
M  END
>  <MODEL>
5

>  <REMARK>
 VINA RESULT:      -6.0      2.788      5.617
  Name = 
  5 active torsions:
  status: ('A' for Active; 'I' for Inactive)
    1  A    between atoms: C_2  and  C_27
    2  A    between atoms: C_6  and  C_7
    3  A    between atoms: C_7  and  C_25
    4  A    between atoms: C_11  and  C_16
    5  A    between atoms: C_13  and  O_14
                            x       y       z     vdW  Elec       q    Type
                         _______ _______ _______ _____ _____    ______ ____

>  <TORSDO>
F 5

$$$$
=
 OpenBabel11042414233D

 27 30  0  0  1  0  0  0  0  0999 V2000
  187.6490  177.3310  141.9020 C   0  0  2  0  0  3  0  0  0  0  0  0
  191.3100  176.4920  144.8730 C   0  0  0  0  0  3  0  0  0  0  0  0
  187.0930  176.1850  141.2960 O   0  0  0  0  0  0  0  0  0  0  0  0
  188.0830  177.9140  144.3740 C   0  0  1  0  0  3  0  0  0  0  0  0
  188.4540  176.0980  141.6410 C   0  0  2  0  0  3  0  0  0  0  0  0
  190.4010  177.4710  145.0540 N   0  0  0  0  0  0  0  0  0  0  0  0
  189.5690  175.9110  143.8300 C   0  0  0  0  0  0  0  0  0  0  0  0
  190.8230  175.4980  144.0980 N   0  0  0  0  0  0  0  0  0  0  0  0
  188.6360  175.2210  142.8770 C   0  0  2  0  0  3  0  0  0  0  0  0
  189.3150  177.1090  144.3940 N   0  0  0  0  0  0  0  0  0  0  0  0
  187.0560  177.4660  143.3120 C   0  0  1  0  0  3  0  0  0  0  0  0
  185.8760  178.3870  143.2620 C   0  0  0  0  0  0  0  0  0  0  0  0
  184.5650  177.8590  143.4180 N   0  0  0  0  0  1  0  0  0  0  0  0
  186.0350  179.6230  143.0730 O   0  0  0  0  0  0  0  0  0  0  0  0
  189.0850  173.8350  142.5110 C   0  0  0  0  0  0  0  0  0  0  0  0
  189.2850  172.9890  143.4250 O   0  0  0  0  0  0  0  0  0  0  0  0
  191.6890  174.0050  141.0910 N   0  0  0  0  0  1  0  0  0  0  0  0
  189.2670  173.4770  141.0840 C   0  0  0  0  0  0  0  0  0  0  0  0
  190.5920  173.2130  139.1100 N   0  0  0  0  0  0  0  0  0  0  0  0
  190.5110  173.5610  140.4220 C   0  0  0  0  0  0  0  0  0  0  0  0
  188.2750  172.6970  139.0670 C   0  0  0  0  0  3  0  0  0  0  0  0
  189.5050  172.7840  138.4190 C   0  0  0  0  0  3  0  0  0  0  0  0
  188.1850  173.0450  140.3760 N   0  0  0  0  0  0  0  0  0  0  0  0
  187.4490  177.8900  145.7320 C   0  0  0  0  0  3  0  0  0  0  0  0
  186.9560  176.7660  146.2330 C   0  0  0  0  0  3  0  0  0  0  0  0
  186.3720  176.7670  147.4930 O   0  0  0  0  0  0  0  0  0  0  0  0
  185.6990  177.9220  147.9590 C   0  0  0  0  0  1  0  0  0  0  0  0
  1  3  1  6  0  0  0
  1 11  1  0  0  0  0
  2  6  2  0  0  0  0
  4 10  1  0  0  0  0
  4 24  1  1  0  0  0
  5  3  1  6  0  0  0
  5  1  1  0  0  0  0
  5  9  1  0  0  0  0
  7  8  2  0  0  0  0
  7 10  1  0  0  0  0
  8  2  1  0  0  0  0
  9 15  1  6  0  0  0
  9  7  1  0  0  0  0
 10  6  1  0  0  0  0
 11 12  1  6  0  0  0
 11  4  1  0  0  0  0
 12 13  1  0  0  0  0
 14 12  2  0  0  0  0
 15 16  2  0  0  0  0
 18 15  1  0  0  0  0
 19 20  2  0  0  0  0
 20 18  1  0  0  0  0
 20 17  1  0  0  0  0
 21 23  1  0  0  0  0
 22 21  2  0  0  0  0
 22 19  1  0  0  0  0
 23 18  2  0  0  0  0
 24 25  2  0  0  0  0
 25 26  1  0  0  0  0
 26 27  1  0  0  0  0
M  END
>  <MODEL>
6

>  <REMARK>
 VINA RESULT:      -5.9      2.386      6.601
  Name = 
  5 active torsions:
  status: ('A' for Active; 'I' for Inactive)
    1  A    between atoms: C_2  and  C_27
    2  A    between atoms: C_6  and  C_7
    3  A    between atoms: C_7  and  C_25
    4  A    between atoms: C_11  and  C_16
    5  A    between atoms: C_13  and  O_14
                            x       y       z     vdW  Elec       q    Type
                         _______ _______ _______ _____ _____    ______ ____

>  <TORSDO>
F 5

$$$$
=
 OpenBabel11042414233D

 27 30  0  0  1  0  0  0  0  0999 V2000
  186.4190  177.5170  143.6120 C   0  0  2  0  0  3  0  0  0  0  0  0
  191.1790  177.6030  143.1020 C   0  0  0  0  0  3  0  0  0  0  0  0
  185.7660  176.4430  142.9710 O   0  0  0  0  0  0  0  0  0  0  0  0
  188.3720  177.5690  145.2920 C   0  0  1  0  0  3  0  0  0  0  0  0
  186.9720  176.8650  142.3850 C   0  0  2  0  0  3  0  0  0  0  0  0
  190.5330  178.0110  144.2120 N   0  0  0  0  0  0  0  0  0  0  0  0
  189.3120  176.6190  143.1170 C   0  0  0  0  0  0  0  0  0  0  0  0
  190.4360  176.7340  142.3830 N   0  0  0  0  0  0  0  0  0  0  0  0
  188.0880  175.8670  142.6800 C   0  0  2  0  0  3  0  0  0  0  0  0
  189.3610  177.3990  144.2160 N   0  0  0  0  0  0  0  0  0  0  0  0
  186.9720  177.0130  144.9530 C   0  0  1  0  0  3  0  0  0  0  0  0
  185.9810  177.3130  146.0360 C   0  0  0  0  0  0  0  0  0  0  0  0
  185.9270  178.6190  146.5980 N   0  0  0  0  0  1  0  0  0  0  0  0
  185.2030  176.4160  146.4590 O   0  0  0  0  0  0  0  0  0  0  0  0
  188.3410  174.9570  141.5120 C   0  0  0  0  0  0  0  0  0  0  0  0
  187.9570  175.3060  140.3630 O   0  0  0  0  0  0  0  0  0  0  0  0
  190.2400  173.7860  139.5510 N   0  0  0  0  0  1  0  0  0  0  0  0
  189.0530  173.6740  141.7240 C   0  0  0  0  0  0  0  0  0  0  0  0
  190.5670  171.9470  141.0560 N   0  0  0  0  0  0  0  0  0  0  0  0
  189.9550  173.1300  140.7830 C   0  0  0  0  0  0  0  0  0  0  0  0
  189.4480  171.8070  143.1440 C   0  0  0  0  0  3  0  0  0  0  0  0
  190.3350  171.2750  142.2130 C   0  0  0  0  0  3  0  0  0  0  0  0
  188.8310  172.9870  142.8790 N   0  0  0  0  0  0  0  0  0  0  0  0
  188.8820  176.9240  146.5450 C   0  0  0  0  0  3  0  0  0  0  0  0
  189.3580  175.6870  146.5290 C   0  0  0  0  0  3  0  0  0  0  0  0
  189.8240  175.1090  147.7020 O   0  0  0  0  0  0  0  0  0  0  0  0
  191.1720  175.2920  148.0930 C   0  0  0  0  0  1  0  0  0  0  0  0
  1  3  1  1  0  0  0
  1 11  1  0  0  0  0
  2  6  2  0  0  0  0
  4 24  1  1  0  0  0
  5  9  1  0  0  0  0
  5  3  1  1  0  0  0
  5  1  1  0  0  0  0
  6 10  1  0  0  0  0
  7 10  1  0  0  0  0
  8  2  1  0  0  0  0
  8  7  2  0  0  0  0
  9 15  1  6  0  0  0
  9  7  1  0  0  0  0
 10  4  1  0  0  0  0
 11  4  1  0  0  0  0
 11 12  1  1  0  0  0
 12 14  2  0  0  0  0
 12 13  1  0  0  0  0
 15 18  1  0  0  0  0
 16 15  2  0  0  0  0
 17 20  1  0  0  0  0
 18 23  1  0  0  0  0
 19 22  2  0  0  0  0
 20 19  1  0  0  0  0
 20 18  2  0  0  0  0
 22 21  1  0  0  0  0
 23 21  2  0  0  0  0
 25 24  2  0  0  0  0
 25 26  1  0  0  0  0
 26 27  1  0  0  0  0
M  END
>  <MODEL>
7

>  <REMARK>
 VINA RESULT:      -5.9      2.062      6.333
  Name = 
  5 active torsions:
  status: ('A' for Active; 'I' for Inactive)
    1  A    between atoms: C_2  and  C_27
    2  A    between atoms: C_6  and  C_7
    3  A    between atoms: C_7  and  C_25
    4  A    between atoms: C_11  and  C_16
    5  A    between atoms: C_13  and  O_14
                            x       y       z     vdW  Elec       q    Type
                         _______ _______ _______ _____ _____    ______ ____

>  <TORSDO>
F 5

$$$$
=
 OpenBabel11042414233D

 27 30  0  0  1  0  0  0  0  0999 V2000
  189.7640  175.9790  142.5620 C   0  0  2  0  0  3  0  0  0  0  0  0
  190.9660  176.1000  147.1970 C   0  0  0  0  0  3  0  0  0  0  0  0
  189.5000  174.6940  142.0440 O   0  0  0  0  0  0  0  0  0  0  0  0
  188.8030  177.2270  144.6020 C   0  0  1  0  0  3  0  0  0  0  0  0
  190.4040  174.7480  143.1200 C   0  0  2  0  0  3  0  0  0  0  0  0
  190.2520  177.0620  146.5770 N   0  0  0  0  0  0  0  0  0  0  0  0
  190.0560  175.2010  145.5170 C   0  0  0  0  0  0  0  0  0  0  0  0
  190.8740  174.9180  146.5500 N   0  0  0  0  0  0  0  0  0  0  0  0
  189.7410  174.2470  144.4010 C   0  0  2  0  0  3  0  0  0  0  0  0
  189.6900  176.4980  145.5230 N   0  0  0  0  0  0  0  0  0  0  0  0
  188.5040  176.4730  143.2870 C   0  0  1  0  0  3  0  0  0  0  0  0
  187.6910  177.3070  142.3450 C   0  0  0  0  0  0  0  0  0  0  0  0
  186.3840  176.8840  141.9800 N   0  0  0  0  0  1  0  0  0  0  0  0
  188.1600  178.3750  141.8670 O   0  0  0  0  0  0  0  0  0  0  0  0
  190.1300  172.8290  144.7090 C   0  0  0  0  0  0  0  0  0  0  0  0
  189.3890  172.1330  145.4550 O   0  0  0  0  0  0  0  0  0  0  0  0
  190.1540  171.1050  142.2900 N   0  0  0  0  0  1  0  0  0  0  0  0
  191.3650  172.2640  144.1160 C   0  0  0  0  0  0  0  0  0  0  0  0
  192.5410  170.9690  142.4840 N   0  0  0  0  0  0  0  0  0  0  0  0
  191.3620  171.4470  142.9640 C   0  0  0  0  0  0  0  0  0  0  0  0
  193.7340  172.0650  144.2190 C   0  0  0  0  0  3  0  0  0  0  0  0
  193.7240  171.2590  143.0840 C   0  0  0  0  0  3  0  0  0  0  0  0
  192.5610  172.5450  144.7060 N   0  0  0  0  0  0  0  0  0  0  0  0
  187.5170  177.5540  145.3000 C   0  0  0  0  0  3  0  0  0  0  0  0
  186.7670  176.5970  145.8270 C   0  0  0  0  0  3  0  0  0  0  0  0
  185.5800  176.9220  146.4690 O   0  0  0  0  0  0  0  0  0  0  0  0
  185.4780  178.1320  147.1970 C   0  0  0  0  0  1  0  0  0  0  0  0
  1  3  1  6  0  0  0
  1  5  1  0  0  0  0
  1 11  1  0  0  0  0
  4 24  1  1  0  0  0
  4 10  1  0  0  0  0
  5  3  1  6  0  0  0
  5  9  1  0  0  0  0
  6  2  2  0  0  0  0
  7 10  1  0  0  0  0
  7  8  2  0  0  0  0
  8  2  1  0  0  0  0
  9 15  1  1  0  0  0
  9  7  1  0  0  0  0
 10  6  1  0  0  0  0
 11 12  1  6  0  0  0
 11  4  1  0  0  0  0
 13 12  1  0  0  0  0
 14 12  2  0  0  0  0
 15 16  2  0  0  0  0
 17 20  1  0  0  0  0
 18 23  1  0  0  0  0
 18 15  1  0  0  0  0
 19 20  1  0  0  0  0
 19 22  2  0  0  0  0
 20 18  2  0  0  0  0
 21 23  2  0  0  0  0
 22 21  1  0  0  0  0
 24 25  2  0  0  0  0
 25 26  1  0  0  0  0
 26 27  1  0  0  0  0
M  END
>  <MODEL>
8

>  <REMARK>
 VINA RESULT:      -5.8      2.353      6.556
  Name = 
  5 active torsions:
  status: ('A' for Active; 'I' for Inactive)
    1  A    between atoms: C_2  and  C_27
    2  A    between atoms: C_6  and  C_7
    3  A    between atoms: C_7  and  C_25
    4  A    between atoms: C_11  and  C_16
    5  A    between atoms: C_13  and  O_14
                            x       y       z     vdW  Elec       q    Type
                         _______ _______ _______ _____ _____    ______ ____

>  <TORSDO>
F 5

$$$$
=
 OpenBabel11042414233D

 27 30  0  0  1  0  0  0  0  0999 V2000
  190.0760  173.8130  144.1170 C   0  0  2  0  0  3  0  0  0  0  0  0
  191.1910  176.4050  147.9870 C   0  0  0  0  0  3  0  0  0  0  0  0
  189.6000  174.5550  143.0150 O   0  0  0  0  0  0  0  0  0  0  0  0
  192.2200  174.0420  145.5280 C   0  0  1  0  0  3  0  0  0  0  0  0
  189.3550  175.1130  144.2830 C   0  0  2  0  0  3  0  0  0  0  0  0
  191.8480  175.2890  147.6120 N   0  0  0  0  0  0  0  0  0  0  0  0
  190.8680  176.1730  145.9130 C   0  0  0  0  0  0  0  0  0  0  0  0
  190.5540  176.9810  146.9440 N   0  0  0  0  0  0  0  0  0  0  0  0
  190.2870  176.2950  144.5340 C   0  0  2  0  0  3  0  0  0  0  0  0
  191.6390  175.1420  146.3150 N   0  0  0  0  0  0  0  0  0  0  0  0
  191.6100  173.8860  144.1190 C   0  0  1  0  0  3  0  0  0  0  0  0
  192.1590  172.6860  143.4090 C   0  0  0  0  0  0  0  0  0  0  0  0
  191.9550  171.3900  143.9580 N   0  0  0  0  0  1  0  0  0  0  0  0
  192.8060  172.8180  142.3360 O   0  0  0  0  0  0  0  0  0  0  0  0
  189.5940  177.6070  144.3000 C   0  0  0  0  0  0  0  0  0  0  0  0
  190.2840  178.6440  144.1010 O   0  0  0  0  0  0  0  0  0  0  0  0
  187.9760  177.7210  141.8110 N   0  0  0  0  0  1  0  0  0  0  0  0
  188.1130  177.6600  144.2860 C   0  0  0  0  0  0  0  0  0  0  0  0
  185.9990  177.7580  143.1700 N   0  0  0  0  0  0  0  0  0  0  0  0
  187.3560  177.7120  143.0950 C   0  0  0  0  0  0  0  0  0  0  0  0
  186.0920  177.7010  145.5410 C   0  0  0  0  0  3  0  0  0  0  0  0
  185.3520  177.7530  144.3630 C   0  0  0  0  0  3  0  0  0  0  0  0
  187.4480  177.6570  145.4750 N   0  0  0  0  0  0  0  0  0  0  0  0
  193.7020  174.2360  145.4190 C   0  0  0  0  0  3  0  0  0  0  0  0
  194.2070  175.3190  144.8450 C   0  0  0  0  0  3  0  0  0  0  0  0
  195.5830  175.4770  144.7540 O   0  0  0  0  0  0  0  0  0  0  0  0
  196.1270  176.4110  143.8390 C   0  0  0  0  0  1  0  0  0  0  0  0
  1  3  1  6  0  0  0
  1 11  1  0  0  0  0
  1  5  1  0  0  0  0
  4 24  1  6  0  0  0
  4 10  1  0  0  0  0
  5  3  1  6  0  0  0
  5  9  1  0  0  0  0
  6  2  2  0  0  0  0
  7 10  1  0  0  0  0
  7  8  2  0  0  0  0
  8  2  1  0  0  0  0
  9 15  1  1  0  0  0
  9  7  1  0  0  0  0
 10  6  1  0  0  0  0
 11 12  1  1  0  0  0
 11  4  1  0  0  0  0
 12 13  1  0  0  0  0
 14 12  2  0  0  0  0
 16 15  2  0  0  0  0
 17 20  1  0  0  0  0
 18 15  1  0  0  0  0
 18 23  1  0  0  0  0
 19 22  2  0  0  0  0
 20 19  1  0  0  0  0
 20 18  2  0  0  0  0
 22 21  1  0  0  0  0
 23 21  2  0  0  0  0
 25 24  2  0  0  0  0
 26 25  1  0  0  0  0
 27 26  1  0  0  0  0
M  END
>  <MODEL>
9

>  <REMARK>
 VINA RESULT:      -5.7      2.836      4.037
  Name = 
  5 active torsions:
  status: ('A' for Active; 'I' for Inactive)
    1  A    between atoms: C_2  and  C_27
    2  A    between atoms: C_6  and  C_7
    3  A    between atoms: C_7  and  C_25
    4  A    between atoms: C_11  and  C_16
    5  A    between atoms: C_13  and  O_14
                            x       y       z     vdW  Elec       q    Type
                         _______ _______ _______ _____ _____    ______ ____

>  <TORSDO>
F 5

$$$$
