=
 OpenBabel11042418553D

 31 36  0  0  1  0  0  0  0  0999 V2000
  193.0140  173.5970  145.6660 C   0  0  0  0  0  3  0  0  0  0  0  0
  195.6260  172.4750  143.5120 O   0  0  0  0  0  0  0  0  0  0  0  0
  187.0170  177.9030  145.6530 C   0  0  0  0  0  0  0  0  0  0  0  0
  190.2480  176.8150  143.8240 C   0  0  1  0  0  3  0  0  0  0  0  0
  185.9130  178.7730  146.1130 C   0  0  0  0  0  0  0  0  0  0  0  0
  194.4010  174.4920  143.3140 C   0  0  0  0  0  3  0  0  0  0  0  0
  186.8280  178.0940  141.8960 C   0  0  2  0  0  3  0  0  0  0  0  0
  185.6710  179.5130  143.7370 C   0  0  0  0  0  2  0  0  0  0  0  0
  189.9970  177.5840  145.1130 C   0  0  1  0  0  3  0  0  0  0  0  0
  188.2810  177.6370  141.6930 C   0  0  2  0  0  3  0  0  0  0  0  0
  189.1870  178.5170  142.3990 N   0  0  2  0  0  0  0  0  0  0  0  0
  193.4400  175.2790  143.8040 C   0  0  0  0  0  3  0  0  0  0  0  0
  193.9750  172.8110  145.1770 C   0  0  0  0  0  3  0  0  0  0  0  0
  187.9450  177.4960  146.4680 N   0  0  0  0  0  0  0  0  0  0  0  0
  185.2550  179.4850  145.1880 C   0  0  0  0  0  3  0  0  0  0  0  0
  187.1250  177.6230  144.2530 N   0  0  0  0  0  0  0  0  0  0  0  0
  188.9960  178.5810  141.0280 O   0  0  0  0  0  0  0  0  0  0  0  0
  190.9470  175.2520  146.7510 C   0  0  0  0  0  2  0  0  0  0  0  0
  190.4180  177.7750  142.6460 C   0  0  0  0  0  2  0  0  0  0  0  0
  194.7210  173.2160  143.9730 C   0  0  0  0  0  0  0  0  0  0  0  0
  189.1080  176.7300  146.0230 C   0  0  2  0  0  3  0  0  0  0  0  0
  191.3830  176.9970  144.8170 C   0  0  1  0  0  3  0  0  0  0  0  0
  186.5040  178.3190  143.3480 C   0  0  0  0  0  0  0  0  0  0  0  0
  191.7010  175.6820  145.5090 C   0  0  0  0  0  0  0  0  0  0  0  0
  192.6750  174.8890  145.0160 C   0  0  0  0  0  0  0  0  0  0  0  0
  189.9150  176.2690  147.2160 C   0  0  0  0  0  2  0  0  0  0  0  0
  185.4830  178.8370  147.5280 C   0  0  0  0  0  0  0  0  0  0  0  0
  186.2730  179.5140  148.5010 N   0  0  0  0  0  1  0  0  0  0  0  0
  184.4140  178.2790  147.8930 O   0  0  0  0  0  0  0  0  0  0  0  0
  185.9650  177.1330  141.3690 O   0  0  0  0  0  0  0  0  0  0  0  0
  185.2090  177.8140  140.4130 C   0  0  0  0  0  1  0  0  0  0  0  0
  2 20  2  0  0  0  0
  3  5  1  0  0  0  0
  3 14  2  0  0  0  0
  4 19  1  6  0  0  0
  4 22  1  0  0  0  0
  4  9  1  0  0  0  0
  5 27  1  0  0  0  0
  6 12  2  0  0  0  0
  6 20  1  0  0  0  0
  7 30  1  1  0  0  0
  7 23  1  0  0  0  0
  8 15  1  0  0  0  0
  9 21  1  0  0  0  0
 10  7  1  0  0  0  0
 10 11  1  0  0  0  0
 11 19  1  0  0  0  0
 12 25  1  0  0  0  0
 13  1  2  0  0  0  0
 15  5  2  0  0  0  0
 16  3  1  0  0  0  0
 17 10  1  0  0  0  0
 17 11  1  0  0  0  0
 18 26  1  0  0  0  0
 20 13  1  0  0  0  0
 21 14  1  0  0  0  0
 21 26  1  0  0  0  0
 22  9  1  0  0  0  0
 22 24  1  0  0  0  0
 23  8  1  0  0  0  0
 23 16  2  0  0  0  0
 24 18  1  0  0  0  0
 25 24  2  0  0  0  0
 25  1  1  0  0  0  0
 27 29  2  0  0  0  0
 27 28  1  0  0  0  0
 31 30  1  0  0  0  0
M  END
>  <MODEL>
1

>  <REMARK>
 VINA RESULT:      -8.1      0.000      0.000
  Name = 
  2 active torsions:
  status: ('A' for Active; 'I' for Inactive)
    1  A    between atoms: O_3  and  C_11
    2  A    between atoms: C_6  and  C_7
                            x       y       z     vdW  Elec       q    Type
                         _______ _______ _______ _____ _____    ______ ____

>  <TORSDO>
F 2

$$$$
=
 OpenBabel11042418553D

 31 36  0  0  1  0  0  0  0  0999 V2000
  190.1900  171.9330  142.2190 C   0  0  0  0  0  3  0  0  0  0  0  0
  191.0060  170.5890  139.0170 O   0  0  0  0  0  0  0  0  0  0  0  0
  186.4530  177.4900  145.3270 C   0  0  0  0  0  0  0  0  0  0  0  0
  187.9470  175.9770  142.0960 C   0  0  1  0  0  3  0  0  0  0  0  0
  186.0070  178.5100  146.3010 C   0  0  0  0  0  0  0  0  0  0  0  0
  190.4790  172.8440  139.5090 C   0  0  0  0  0  3  0  0  0  0  0  0
  184.5590  178.3350  142.1840 C   0  0  2  0  0  3  0  0  0  0  0  0
  184.8870  179.6670  144.3880 C   0  0  0  0  0  2  0  0  0  0  0  0
  188.5770  176.5610  143.3520 C   0  0  1  0  0  3  0  0  0  0  0  0
  185.5350  177.5840  141.2660 C   0  0  2  0  0  3  0  0  0  0  0  0
  186.8790  178.0940  141.4390 N   0  0  2  0  0  0  0  0  0  0  0  0
  190.1420  173.7470  140.4350 C   0  0  0  0  0  3  0  0  0  0  0  0
  190.5280  171.0320  141.2940 C   0  0  0  0  0  3  0  0  0  0  0  0
  187.4940  176.7440  145.5540 N   0  0  0  0  0  0  0  0  0  0  0  0
  185.2260  179.5010  145.8500 C   0  0  0  0  0  3  0  0  0  0  0  0
  185.7940  177.4260  144.0580 N   0  0  0  0  0  0  0  0  0  0  0  0
  186.0860  178.4260  140.3520 O   0  0  0  0  0  0  0  0  0  0  0  0
  189.4720  173.8320  144.2350 C   0  0  0  0  0  2  0  0  0  0  0  0
  187.8040  177.0490  141.0140 C   0  0  0  0  0  2  0  0  0  0  0  0
  190.6890  171.4390  139.8880 C   0  0  0  0  0  0  0  0  0  0  0  0
  188.0250  175.8060  144.5660 C   0  0  2  0  0  3  0  0  0  0  0  0
  189.4150  175.7160  142.3840 C   0  0  1  0  0  3  0  0  0  0  0  0
  185.0480  178.3890  143.6060 C   0  0  0  0  0  0  0  0  0  0  0  0
  189.6290  174.2680  142.7920 C   0  0  0  0  0  0  0  0  0  0  0  0
  189.9720  173.3580  141.8580 C   0  0  0  0  0  0  0  0  0  0  0  0
  189.1310  174.9760  145.1790 C   0  0  0  0  0  2  0  0  0  0  0  0
  186.3440  178.4410  147.7400 C   0  0  0  0  0  0  0  0  0  0  0  0
  187.1310  179.4580  148.3560 N   0  0  0  0  0  1  0  0  0  0  0  0
  185.9490  177.4710  148.4400 O   0  0  0  0  0  0  0  0  0  0  0  0
  183.3130  177.7080  142.1420 O   0  0  0  0  0  0  0  0  0  0  0  0
  182.6660  178.2670  141.0380 C   0  0  0  0  0  1  0  0  0  0  0  0
  2 20  2  0  0  0  0
  3 14  2  0  0  0  0
  3  5  1  0  0  0  0
  4 19  1  6  0  0  0
  4 22  1  0  0  0  0
  4  9  1  0  0  0  0
  5 27  1  0  0  0  0
  6 20  1  0  0  0  0
  6 12  2  0  0  0  0
  7 30  1  1  0  0  0
  7 23  1  0  0  0  0
  8 15  1  0  0  0  0
  9 21  1  0  0  0  0
 10 11  1  0  0  0  0
 10  7  1  0  0  0  0
 12 25  1  0  0  0  0
 13  1  2  0  0  0  0
 15  5  2  0  0  0  0
 16  3  1  0  0  0  0
 17 10  1  0  0  0  0
 17 11  1  0  0  0  0
 18 26  1  0  0  0  0
 19 11  1  0  0  0  0
 20 13  1  0  0  0  0
 21 26  1  0  0  0  0
 21 14  1  0  0  0  0
 22 24  1  0  0  0  0
 22  9  1  0  0  0  0
 23 16  2  0  0  0  0
 23  8  1  0  0  0  0
 24 18  1  0  0  0  0
 25  1  1  0  0  0  0
 25 24  2  0  0  0  0
 27 28  1  0  0  0  0
 27 29  2  0  0  0  0
 31 30  1  0  0  0  0
M  END
>  <MODEL>
2

>  <REMARK>
 VINA RESULT:      -8.0      2.997      3.304
  Name = 
  2 active torsions:
  status: ('A' for Active; 'I' for Inactive)
    1  A    between atoms: O_3  and  C_11
    2  A    between atoms: C_6  and  C_7
                            x       y       z     vdW  Elec       q    Type
                         _______ _______ _______ _____ _____    ______ ____

>  <TORSDO>
F 2

$$$$
=
 OpenBabel11042418553D

 31 36  0  0  1  0  0  0  0  0999 V2000
  186.7060  178.6950  144.3900 C   0  0  0  0  0  3  0  0  0  0  0  0
  183.6970  178.2910  146.2630 O   0  0  0  0  0  0  0  0  0  0  0  0
  192.5840  174.8710  142.0810 C   0  0  0  0  0  0  0  0  0  0  0  0
  189.4910  175.0010  144.4000 C   0  0  1  0  0  3  0  0  0  0  0  0
  193.9450  174.5410  141.6050 C   0  0  0  0  0  0  0  0  0  0  0  0
  185.6780  177.0120  146.4800 C   0  0  0  0  0  3  0  0  0  0  0  0
  191.0270  171.5190  142.7990 C   0  0  2  0  0  3  0  0  0  0  0  0
  193.4880  172.1880  142.3160 C   0  0  0  0  0  2  0  0  0  0  0  0
  190.8010  175.7740  144.3790 C   0  0  1  0  0  3  0  0  0  0  0  0
  189.9550  172.0980  143.7340 C   0  0  2  0  0  3  0  0  0  0  0  0
  190.5760  172.8320  144.8150 N   0  0  2  0  0  0  0  0  0  0  0  0
  186.9290  176.7930  146.0650 C   0  0  0  0  0  3  0  0  0  0  0  0
  185.4570  178.9150  144.8050 C   0  0  0  0  0  3  0  0  0  0  0  0
  192.2600  176.0840  142.4210 N   0  0  0  0  0  0  0  0  0  0  0  0
  194.3350  173.2610  141.6760 C   0  0  0  0  0  3  0  0  0  0  0  0
  191.6570  173.8010  142.2900 N   0  0  0  0  0  0  0  0  0  0  0  0
  190.0560  171.5590  144.9780 O   0  0  0  0  0  0  0  0  0  0  0  0
  189.3810  178.2610  143.4710 C   0  0  0  0  0  2  0  0  0  0  0  0
  189.5950  173.7850  145.3210 C   0  0  0  0  0  2  0  0  0  0  0  0
  184.8750  178.0850  145.8730 C   0  0  0  0  0  0  0  0  0  0  0  0
  190.9610  176.4220  142.9990 C   0  0  2  0  0  3  0  0  0  0  0  0
  189.6130  176.2830  145.2050 C   0  0  1  0  0  3  0  0  0  0  0  0
  192.0290  172.5580  142.3760 C   0  0  0  0  0  0  0  0  0  0  0  0
  188.7970  177.3930  144.5680 C   0  0  0  0  0  0  0  0  0  0  0  0
  187.5350  177.6170  144.9890 C   0  0  0  0  0  0  0  0  0  0  0  0
  190.8270  177.9220  143.1370 C   0  0  0  0  0  2  0  0  0  0  0  0
  194.8520  175.5510  141.0140 C   0  0  0  0  0  0  0  0  0  0  0  0
  195.6210  176.4170  141.8440 N   0  0  0  0  0  1  0  0  0  0  0  0
  194.9460  175.6660  139.7630 O   0  0  0  0  0  0  0  0  0  0  0  0
  190.4090  170.9790  141.6690 O   0  0  0  0  0  0  0  0  0  0  0  0
  190.8160  169.6440  141.6410 C   0  0  0  0  0  1  0  0  0  0  0  0
  1 13  2  0  0  0  0
  1 25  1  0  0  0  0
  3 16  1  0  0  0  0
  3 14  2  0  0  0  0
  4 22  1  0  0  0  0
  4 19  1  1  0  0  0
  5 15  2  0  0  0  0
  5  3  1  0  0  0  0
  7 30  1  6  0  0  0
  7 10  1  0  0  0  0
  8 23  1  0  0  0  0
  9  4  1  0  0  0  0
  9 22  1  0  0  0  0
 10 11  1  0  0  0  0
 10 17  1  0  0  0  0
 11 17  1  0  0  0  0
 11 19  1  0  0  0  0
 12  6  2  0  0  0  0
 13 20  1  0  0  0  0
 14 21  1  0  0  0  0
 15  8  1  0  0  0  0
 16 23  2  0  0  0  0
 18 24  1  0  0  0  0
 20  2  2  0  0  0  0
 20  6  1  0  0  0  0
 21 26  1  0  0  0  0
 21  9  1  0  0  0  0
 23  7  1  0  0  0  0
 24 25  2  0  0  0  0
 24 22  1  0  0  0  0
 25 12  1  0  0  0  0
 26 18  1  0  0  0  0
 27  5  1  0  0  0  0
 27 28  1  0  0  0  0
 29 27  2  0  0  0  0
 31 30  1  0  0  0  0
M  END
>  <MODEL>
3

>  <REMARK>
 VINA RESULT:      -7.6      3.381      8.310
  Name = 
  2 active torsions:
  status: ('A' for Active; 'I' for Inactive)
    1  A    between atoms: O_3  and  C_11
    2  A    between atoms: C_6  and  C_7
                            x       y       z     vdW  Elec       q    Type
                         _______ _______ _______ _____ _____    ______ ____

>  <TORSDO>
F 2

$$$$
=
 OpenBabel11042418553D

 31 36  0  0  1  0  0  0  0  0999 V2000
  189.8470  171.8780  138.7760 C   0  0  0  0  0  3  0  0  0  0  0  0
  192.1400  169.5540  137.3380 O   0  0  0  0  0  0  0  0  0  0  0  0
  189.0380  176.2330  144.6830 C   0  0  0  0  0  0  0  0  0  0  0  0
  190.9920  173.3420  143.0120 C   0  0  1  0  0  3  0  0  0  0  0  0
  188.4210  177.0530  145.7470 C   0  0  0  0  0  0  0  0  0  0  0  0
  191.9140  170.0760  139.6370 C   0  0  0  0  0  3  0  0  0  0  0  0
  192.6630  176.0140  145.6800 C   0  0  2  0  0  3  0  0  0  0  0  0
  190.5800  176.8400  146.9910 C   0  0  0  0  0  2  0  0  0  0  0  0
  189.5710  173.4590  143.5430 C   0  0  1  0  0  3  0  0  0  0  0  0
  192.9310  174.7610  144.8330 C   0  0  2  0  0  3  0  0  0  0  0  0
  192.0290  173.6950  145.2160 N   0  0  2  0  0  0  0  0  0  0  0  0
  191.2830  170.7900  140.5740 C   0  0  0  0  0  3  0  0  0  0  0  0
  190.4780  171.1650  137.8410 C   0  0  0  0  0  3  0  0  0  0  0  0
  188.3130  175.5530  143.8440 N   0  0  0  0  0  0  0  0  0  0  0  0
  189.1810  177.3740  146.8040 C   0  0  0  0  0  3  0  0  0  0  0  0
  190.4630  176.0900  144.6720 N   0  0  0  0  0  0  0  0  0  0  0  0
  193.3560  173.7320  145.6130 O   0  0  0  0  0  0  0  0  0  0  0  0
  188.4680  173.4250  140.7490 C   0  0  0  0  0  2  0  0  0  0  0  0
  191.9260  172.7800  144.0850 C   0  0  0  0  0  2  0  0  0  0  0  0
  191.5460  170.2250  138.2200 C   0  0  0  0  0  0  0  0  0  0  0  0
  188.8920  174.6470  142.8530 C   0  0  2  0  0  3  0  0  0  0  0  0
  189.9600  172.3010  142.6160 C   0  0  1  0  0  3  0  0  0  0  0  0
  191.2040  176.3830  145.6980 C   0  0  0  0  0  0  0  0  0  0  0  0
  189.5680  172.4660  141.1580 C   0  0  0  0  0  0  0  0  0  0  0  0
  190.2040  171.7430  140.2120 C   0  0  0  0  0  0  0  0  0  0  0  0
  187.8130  174.1310  141.9270 C   0  0  0  0  0  2  0  0  0  0  0  0
  187.0370  177.5680  145.6580 C   0  0  0  0  0  0  0  0  0  0  0  0
  185.9920  176.9960  146.4400 N   0  0  0  0  0  1  0  0  0  0  0  0
  186.7600  178.5160  144.8750 O   0  0  0  0  0  0  0  0  0  0  0  0
  193.4080  177.0800  145.1730 O   0  0  0  0  0  0  0  0  0  0  0  0
  194.5530  177.1300  145.9700 C   0  0  0  0  0  1  0  0  0  0  0  0
  1 25  1  0  0  0  0
  2 20  2  0  0  0  0
  3  5  1  0  0  0  0
  4  9  1  0  0  0  0
  4 19  1  1  0  0  0
  5 15  2  0  0  0  0
  6 12  2  0  0  0  0
  7 30  1  6  0  0  0
  7 23  1  0  0  0  0
 10 11  1  0  0  0  0
 10 17  1  0  0  0  0
 10  7  1  0  0  0  0
 11 17  1  0  0  0  0
 13 20  1  0  0  0  0
 13  1  2  0  0  0  0
 14  3  2  0  0  0  0
 15  8  1  0  0  0  0
 16  3  1  0  0  0  0
 16 23  2  0  0  0  0
 18 24  1  0  0  0  0
 18 26  1  0  0  0  0
 19 11  1  0  0  0  0
 20  6  1  0  0  0  0
 21  9  1  0  0  0  0
 21 14  1  0  0  0  0
 22  4  1  0  0  0  0
 22  9  1  0  0  0  0
 23  8  1  0  0  0  0
 24 22  1  0  0  0  0
 25 12  1  0  0  0  0
 25 24  2  0  0  0  0
 26 21  1  0  0  0  0
 27  5  1  0  0  0  0
 27 28  1  0  0  0  0
 29 27  2  0  0  0  0
 30 31  1  0  0  0  0
M  END
>  <MODEL>
4

>  <REMARK>
 VINA RESULT:      -7.3      4.202      6.036
  Name = 
  2 active torsions:
  status: ('A' for Active; 'I' for Inactive)
    1  A    between atoms: O_3  and  C_11
    2  A    between atoms: C_6  and  C_7
                            x       y       z     vdW  Elec       q    Type
                         _______ _______ _______ _____ _____    ______ ____

>  <TORSDO>
F 2

$$$$
=
 OpenBabel11042418553D

 31 36  0  0  1  0  0  0  0  0999 V2000
  185.5940  177.0770  144.7400 C   0  0  0  0  0  3  0  0  0  0  0  0
  185.1340  178.3640  148.0350 O   0  0  0  0  0  0  0  0  0  0  0  0
  190.4410  173.2380  140.7050 C   0  0  0  0  0  0  0  0  0  0  0  0
  189.7460  175.1840  143.9750 C   0  0  1  0  0  3  0  0  0  0  0  0
  191.1860  172.6960  139.5480 C   0  0  0  0  0  0  0  0  0  0  0  0
  187.2000  177.9160  146.9700 C   0  0  0  0  0  3  0  0  0  0  0  0
  192.3730  172.0110  143.6950 C   0  0  2  0  0  3  0  0  0  0  0  0
  192.9690  172.0270  141.1680 C   0  0  0  0  0  2  0  0  0  0  0  0
  189.8650  175.6140  142.5200 C   0  0  1  0  0  3  0  0  0  0  0  0
  191.8020  173.0820  144.6370 C   0  0  2  0  0  3  0  0  0  0  0  0
  192.0750  174.4050  144.1160 N   0  0  2  0  0  0  0  0  0  0  0  0
  187.8350  177.4810  145.8770 C   0  0  0  0  0  3  0  0  0  0  0  0
  184.9610  177.5120  145.8310 C   0  0  0  0  0  3  0  0  0  0  0  0
  189.5410  174.1660  140.5570 N   0  0  0  0  0  0  0  0  0  0  0  0
  192.3520  172.0820  139.7920 C   0  0  0  0  0  3  0  0  0  0  0  0
  190.8230  172.8180  142.0190 N   0  0  0  0  0  0  0  0  0  0  0  0
  192.7980  173.8470  145.1580 O   0  0  0  0  0  0  0  0  0  0  0  0
  186.9110  176.1400  142.3780 C   0  0  0  0  0  2  0  0  0  0  0  0
  191.0910  175.3150  144.6900 C   0  0  0  0  0  2  0  0  0  0  0  0
  185.7300  177.9540  147.0060 C   0  0  0  0  0  0  0  0  0  0  0  0
  188.8680  174.8000  141.6900 C   0  0  2  0  0  3  0  0  0  0  0  0
  189.2370  176.5530  143.5580 C   0  0  1  0  0  3  0  0  0  0  0  0
  191.9580  172.2360  142.2660 C   0  0  0  0  0  0  0  0  0  0  0  0
  187.7180  176.5870  143.5800 C   0  0  0  0  0  0  0  0  0  0  0  0
  187.0780  177.0290  144.6820 C   0  0  0  0  0  0  0  0  0  0  0  0
  187.7690  175.7150  141.1960 C   0  0  0  0  0  2  0  0  0  0  0  0
  190.6690  172.7610  138.1630 C   0  0  0  0  0  0  0  0  0  0  0  0
  191.0400  173.8260  137.2930 N   0  0  0  0  0  1  0  0  0  0  0  0
  189.8790  171.8760  137.7380 O   0  0  0  0  0  0  0  0  0  0  0  0
  191.9400  170.7520  144.1140 O   0  0  0  0  0  0  0  0  0  0  0  0
  193.1070  170.0010  144.2630 C   0  0  0  0  0  1  0  0  0  0  0  0
  1 13  2  0  0  0  0
  3 16  1  0  0  0  0
  4 19  1  1  0  0  0
  5 15  2  0  0  0  0
  5  3  1  0  0  0  0
  6 20  1  0  0  0  0
  7 30  1  1  0  0  0
  7 10  1  0  0  0  0
  8 23  1  0  0  0  0
  9 22  1  0  0  0  0
  9  4  1  0  0  0  0
 10 17  1  0  0  0  0
 11 10  1  0  0  0  0
 11 19  1  0  0  0  0
 11 17  1  0  0  0  0
 12  6  2  0  0  0  0
 13 20  1  0  0  0  0
 14  3  2  0  0  0  0
 14 21  1  0  0  0  0
 15  8  1  0  0  0  0
 16 23  2  0  0  0  0
 18 24  1  0  0  0  0
 20  2  2  0  0  0  0
 21  9  1  0  0  0  0
 22 24  1  0  0  0  0
 22  4  1  0  0  0  0
 23  7  1  0  0  0  0
 24 25  2  0  0  0  0
 25  1  1  0  0  0  0
 25 12  1  0  0  0  0
 26 21  1  0  0  0  0
 26 18  1  0  0  0  0
 27  5  1  0  0  0  0
 28 27  1  0  0  0  0
 29 27  2  0  0  0  0
 30 31  1  0  0  0  0
M  END
>  <MODEL>
5

>  <REMARK>
 VINA RESULT:      -7.3      3.686      8.522
  Name = 
  2 active torsions:
  status: ('A' for Active; 'I' for Inactive)
    1  A    between atoms: O_3  and  C_11
    2  A    between atoms: C_6  and  C_7
                            x       y       z     vdW  Elec       q    Type
                         _______ _______ _______ _____ _____    ______ ____

>  <TORSDO>
F 2

$$$$
=
 OpenBabel11042418553D

 31 36  0  0  1  0  0  0  0  0999 V2000
  186.8200  178.9470  144.4920 C   0  0  0  0  0  3  0  0  0  0  0  0
  183.3990  179.0480  143.4890 O   0  0  0  0  0  0  0  0  0  0  0  0
  193.0370  175.1450  143.3080 C   0  0  0  0  0  0  0  0  0  0  0  0
  189.1990  175.3300  142.8610 C   0  0  1  0  0  3  0  0  0  0  0  0
  194.3820  174.5600  143.4980 C   0  0  0  0  0  0  0  0  0  0  0  0
  184.8170  177.1520  143.4820 C   0  0  0  0  0  3  0  0  0  0  0  0
  191.7430  173.4720  140.1910 C   0  0  2  0  0  3  0  0  0  0  0  0
  193.7960  172.9370  141.6880 C   0  0  0  0  0  2  0  0  0  0  0  0
  190.0910  175.1470  144.0790 C   0  0  1  0  0  3  0  0  0  0  0  0
  190.2720  173.7750  140.5120 C   0  0  2  0  0  3  0  0  0  0  0  0
  189.9180  173.2270  141.8040 N   0  0  2  0  0  0  0  0  0  0  0  0
  186.0300  176.6510  143.7310 C   0  0  0  0  0  3  0  0  0  0  0  0
  185.6080  179.4470  144.2430 C   0  0  0  0  0  3  0  0  0  0  0  0
  192.4520  175.8210  144.2520 N   0  0  0  0  0  0  0  0  0  0  0  0
  194.7430  173.5540  142.6890 C   0  0  0  0  0  3  0  0  0  0  0  0
  192.3250  174.8390  142.1030 N   0  0  0  0  0  0  0  0  0  0  0  0
  189.5530  172.6250  140.6110 O   0  0  0  0  0  0  0  0  0  0  0  0
  189.4320  177.9160  145.0420 C   0  0  0  0  0  2  0  0  0  0  0  0
  188.7670  173.9750  142.2980 C   0  0  0  0  0  2  0  0  0  0  0  0
  184.5410  178.5770  143.7240 C   0  0  0  0  0  0  0  0  0  0  0  0
  191.0810  176.3160  144.1360 C   0  0  2  0  0  3  0  0  0  0  0  0
  188.6160  175.5330  144.2480 C   0  0  1  0  0  3  0  0  0  0  0  0
  192.6580  173.8550  141.3230 C   0  0  0  0  0  0  0  0  0  0  0  0
  188.3470  177.0060  144.5040 C   0  0  0  0  0  0  0  0  0  0  0  0
  187.1210  177.5110  144.2540 C   0  0  0  0  0  0  0  0  0  0  0  0
  190.7430  177.1950  145.3200 C   0  0  0  0  0  2  0  0  0  0  0  0
  195.3450  175.0770  144.4960 C   0  0  0  0  0  0  0  0  0  0  0  0
  195.5390  174.4090  145.7390 N   0  0  0  0  0  1  0  0  0  0  0  0
  195.9980  176.1290  144.2620 O   0  0  0  0  0  0  0  0  0  0  0  0
  192.1140  174.1640  139.0370 O   0  0  0  0  0  0  0  0  0  0  0  0
  191.6380  173.3840  137.9820 C   0  0  0  0  0  1  0  0  0  0  0  0
  2 20  2  0  0  0  0
  3  5  1  0  0  0  0
  3 14  2  0  0  0  0
  4 19  1  1  0  0  0
  4  9  1  0  0  0  0
  4 22  1  0  0  0  0
  5 27  1  0  0  0  0
  6 20  1  0  0  0  0
  6 12  2  0  0  0  0
  7 30  1  6  0  0  0
  7 10  1  0  0  0  0
  7 23  1  0  0  0  0
  8 15  1  0  0  0  0
  9 21  1  0  0  0  0
  9 22  1  0  0  0  0
 10 17  1  0  0  0  0
 10 11  1  0  0  0  0
 11 19  1  0  0  0  0
 12 25  1  0  0  0  0
 13  1  2  0  0  0  0
 15  5  2  0  0  0  0
 16  3  1  0  0  0  0
 17 11  1  0  0  0  0
 18 26  1  0  0  0  0
 20 13  1  0  0  0  0
 21 14  1  0  0  0  0
 21 26  1  0  0  0  0
 22 24  1  0  0  0  0
 23  8  1  0  0  0  0
 23 16  2  0  0  0  0
 24 18  1  0  0  0  0
 25  1  1  0  0  0  0
 25 24  2  0  0  0  0
 27 28  1  0  0  0  0
 29 27  2  0  0  0  0
 31 30  1  0  0  0  0
M  END
>  <MODEL>
6

>  <REMARK>
 VINA RESULT:      -6.9      3.467      7.920
  Name = 
  2 active torsions:
  status: ('A' for Active; 'I' for Inactive)
    1  A    between atoms: O_3  and  C_11
    2  A    between atoms: C_6  and  C_7
                            x       y       z     vdW  Elec       q    Type
                         _______ _______ _______ _____ _____    ______ ____

>  <TORSDO>
F 2

$$$$
=
 OpenBabel11042418553D

 31 36  0  0  1  0  0  0  0  0999 V2000
  188.4030  177.5600  147.2630 C   0  0  0  0  0  3  0  0  0  0  0  0
  185.1460  178.7040  146.3610 O   0  0  0  0  0  0  0  0  0  0  0  0
  194.0760  173.6870  144.5580 C   0  0  0  0  0  0  0  0  0  0  0  0
  190.3690  174.7250  144.1810 C   0  0  1  0  0  3  0  0  0  0  0  0
  195.2960  172.8540  144.4780 C   0  0  0  0  0  0  0  0  0  0  0  0
  186.2630  176.8030  145.4990 C   0  0  0  0  0  3  0  0  0  0  0  0
  192.8580  173.8690  140.9990 C   0  0  2  0  0  3  0  0  0  0  0  0
  194.6550  172.3620  142.1120 C   0  0  0  0  0  2  0  0  0  0  0  0
  191.1020  173.8550  145.1910 C   0  0  1  0  0  3  0  0  0  0  0  0
  191.4230  174.2450  141.3970 C   0  0  2  0  0  3  0  0  0  0  0  0
  190.8690  173.2420  142.2820 N   0  0  2  0  0  0  0  0  0  0  0  0
  187.3590  176.0390  145.5090 C   0  0  0  0  0  3  0  0  0  0  0  0
  187.3070  178.3220  147.2530 C   0  0  0  0  0  3  0  0  0  0  0  0
  193.5080  173.9510  145.6980 N   0  0  0  0  0  0  0  0  0  0  0  0
  195.5800  172.2790  143.3020 C   0  0  0  0  0  3  0  0  0  0  0  0
  193.4470  174.0920  143.3370 N   0  0  0  0  0  0  0  0  0  0  0  0
  190.5360  173.3230  140.9390 O   0  0  0  0  0  0  0  0  0  0  0  0
  190.7680  175.9510  147.3170 C   0  0  0  0  0  2  0  0  0  0  0  0
  189.7990  173.8730  143.0460 C   0  0  0  0  0  2  0  0  0  0  0  0
  186.1780  177.9850  146.3700 C   0  0  0  0  0  0  0  0  0  0  0  0
  192.2430  174.6760  145.8010 C   0  0  2  0  0  3  0  0  0  0  0  0
  189.6910  174.3740  145.4930 C   0  0  1  0  0  3  0  0  0  0  0  0
  193.7050  173.5280  142.1950 C   0  0  0  0  0  0  0  0  0  0  0  0
  189.6180  175.5920  146.3980 C   0  0  0  0  0  0  0  0  0  0  0  0
  188.5100  176.3610  146.3910 C   0  0  0  0  0  0  0  0  0  0  0  0
  191.9260  174.9660  147.2510 C   0  0  0  0  0  2  0  0  0  0  0  0
  196.2230  172.6830  145.6190 C   0  0  0  0  0  0  0  0  0  0  0  0
  196.9540  173.7910  146.1390 N   0  0  0  0  0  1  0  0  0  0  0  0
  196.3880  171.5480  146.1400 O   0  0  0  0  0  0  0  0  0  0  0  0
  193.4370  174.9330  140.3040 O   0  0  0  0  0  0  0  0  0  0  0  0
  193.7320  174.4180  139.0410 C   0  0  0  0  0  1  0  0  0  0  0  0
  2 20  2  0  0  0  0
  3 14  2  0  0  0  0
  4 19  1  6  0  0  0
  4  9  1  0  0  0  0
  4 22  1  0  0  0  0
  5  3  1  0  0  0  0
  5 27  1  0  0  0  0
  6 12  2  0  0  0  0
  6 20  1  0  0  0  0
  7 30  1  1  0  0  0
  7 10  1  0  0  0  0
  7 23  1  0  0  0  0
  8 23  1  0  0  0  0
  8 15  1  0  0  0  0
  9 22  1  0  0  0  0
  9 21  1  0  0  0  0
 10 11  1  0  0  0  0
 11 19  1  0  0  0  0
 12 25  1  0  0  0  0
 13  1  2  0  0  0  0
 14 21  1  0  0  0  0
 15  5  2  0  0  0  0
 16  3  1  0  0  0  0
 17 10  1  0  0  0  0
 17 11  1  0  0  0  0
 20 13  1  0  0  0  0
 21 26  1  0  0  0  0
 22 24  1  0  0  0  0
 23 16  2  0  0  0  0
 24 18  1  0  0  0  0
 25 24  2  0  0  0  0
 25  1  1  0  0  0  0
 26 18  1  0  0  0  0
 27 28  1  0  0  0  0
 27 29  2  0  0  0  0
 31 30  1  0  0  0  0
M  END
>  <MODEL>
7

>  <REMARK>
 VINA RESULT:      -6.9      3.597      8.107
  Name = 
  2 active torsions:
  status: ('A' for Active; 'I' for Inactive)
    1  A    between atoms: O_3  and  C_11
    2  A    between atoms: C_6  and  C_7
                            x       y       z     vdW  Elec       q    Type
                         _______ _______ _______ _____ _____    ______ ____

>  <TORSDO>
F 2

$$$$
=
 OpenBabel11042418553D

 31 36  0  0  1  0  0  0  0  0999 V2000
  185.5070  176.6500  145.1170 C   0  0  0  0  0  3  0  0  0  0  0  0
  184.7320  178.5840  148.0130 O   0  0  0  0  0  0  0  0  0  0  0  0
  191.2880  174.1520  141.2630 C   0  0  0  0  0  0  0  0  0  0  0  0
  190.0000  176.5410  144.0200 C   0  0  1  0  0  3  0  0  0  0  0  0
  192.1170  173.6410  140.1500 C   0  0  0  0  0  0  0  0  0  0  0  0
  186.6950  178.7370  146.6960 C   0  0  0  0  0  3  0  0  0  0  0  0
  193.7680  174.8520  144.0090 C   0  0  2  0  0  3  0  0  0  0  0  0
  194.1140  174.3250  141.4900 C   0  0  0  0  0  2  0  0  0  0  0  0
  189.8070  176.5030  142.5110 C   0  0  1  0  0  3  0  0  0  0  0  0
  192.8340  175.8200  144.7510 C   0  0  2  0  0  3  0  0  0  0  0  0
  192.4300  176.8980  143.8740 N   0  0  2  0  0  0  0  0  0  0  0  0
  187.3810  178.2910  145.6400 C   0  0  0  0  0  3  0  0  0  0  0  0
  184.8210  177.0970  146.1710 C   0  0  0  0  0  3  0  0  0  0  0  0
  190.0540  174.5180  141.0760 N   0  0  0  0  0  0  0  0  0  0  0  0
  193.4490  173.6830  140.2980 C   0  0  0  0  0  3  0  0  0  0  0  0
  191.9090  174.3650  142.5350 N   0  0  0  0  0  0  0  0  0  0  0  0
  193.3980  177.0520  144.8540 O   0  0  0  0  0  0  0  0  0  0  0  0
  186.9410  175.6660  142.8450 C   0  0  0  0  0  2  0  0  0  0  0  0
  191.1790  177.4410  144.3920 C   0  0  0  0  0  2  0  0  0  0  0  0
  185.3780  178.1640  147.0190 C   0  0  0  0  0  0  0  0  0  0  0  0
  189.2430  175.1300  142.1280 C   0  0  2  0  0  3  0  0  0  0  0  0
  188.8900  177.3630  143.3890 C   0  0  1  0  0  3  0  0  0  0  0  0
  193.1990  174.4240  142.6830 C   0  0  0  0  0  0  0  0  0  0  0  0
  187.5320  176.7620  143.7090 C   0  0  0  0  0  0  0  0  0  0  0  0
  186.8380  177.2140  144.7730 C   0  0  0  0  0  0  0  0  0  0  0  0
  187.8160  175.2950  141.6560 C   0  0  0  0  0  2  0  0  0  0  0  0
  191.5350  173.0460  138.9270 C   0  0  0  0  0  0  0  0  0  0  0  0
  191.4590  173.7920  137.7160 N   0  0  0  0  0  1  0  0  0  0  0  0
  191.0840  171.8690  138.9450 O   0  0  0  0  0  0  0  0  0  0  0  0
  193.9940  173.7280  144.8060 O   0  0  0  0  0  0  0  0  0  0  0  0
  193.0170  173.7910  145.8000 C   0  0  0  0  0  1  0  0  0  0  0  0
  1 13  2  0  0  0  0
  3 16  1  0  0  0  0
  4 19  1  6  0  0  0
  5 15  2  0  0  0  0
  5  3  1  0  0  0  0
  6 20  1  0  0  0  0
  7 10  1  0  0  0  0
  7 30  1  1  0  0  0
  8 23  1  0  0  0  0
  9 22  1  0  0  0  0
  9  4  1  0  0  0  0
 10 17  1  0  0  0  0
 11 19  1  0  0  0  0
 11 10  1  0  0  0  0
 11 17  1  0  0  0  0
 12  6  2  0  0  0  0
 13 20  1  0  0  0  0
 14  3  2  0  0  0  0
 14 21  1  0  0  0  0
 15  8  1  0  0  0  0
 16 23  2  0  0  0  0
 18 24  1  0  0  0  0
 20  2  2  0  0  0  0
 21  9  1  0  0  0  0
 22 24  1  0  0  0  0
 22  4  1  0  0  0  0
 23  7  1  0  0  0  0
 24 25  2  0  0  0  0
 25  1  1  0  0  0  0
 25 12  1  0  0  0  0
 26 21  1  0  0  0  0
 26 18  1  0  0  0  0
 27 29  2  0  0  0  0
 27  5  1  0  0  0  0
 28 27  1  0  0  0  0
 30 31  1  0  0  0  0
M  END
>  <MODEL>
8

>  <REMARK>
 VINA RESULT:      -6.7      3.135      8.267
  Name = 
  2 active torsions:
  status: ('A' for Active; 'I' for Inactive)
    1  A    between atoms: O_3  and  C_11
    2  A    between atoms: C_6  and  C_7
                            x       y       z     vdW  Elec       q    Type
                         _______ _______ _______ _____ _____    ______ ____

>  <TORSDO>
F 2

$$$$
=
 OpenBabel11042418553D

 31 36  0  0  1  0  0  0  0  0999 V2000
  191.3440  170.6160  139.0820 C   0  0  0  0  0  3  0  0  0  0  0  0
  193.8900  168.1660  139.5680 O   0  0  0  0  0  0  0  0  0  0  0  0
  188.0820  176.2650  142.5400 C   0  0  0  0  0  0  0  0  0  0  0  0
  190.4070  173.1850  142.8130 C   0  0  1  0  0  3  0  0  0  0  0  0
  187.0840  177.2850  142.9290 C   0  0  0  0  0  0  0  0  0  0  0  0
  192.6240  169.2390  141.2560 C   0  0  0  0  0  3  0  0  0  0  0  0
  190.7610  176.5570  145.1700 C   0  0  2  0  0  3  0  0  0  0  0  0
  188.3630  177.5440  145.0620 C   0  0  0  0  0  2  0  0  0  0  0  0
  188.9170  173.3360  142.5480 C   0  0  1  0  0  3  0  0  0  0  0  0
  191.3220  175.1510  144.9080 C   0  0  2  0  0  3  0  0  0  0  0  0
  190.2800  174.1590  145.0700 N   0  0  2  0  0  0  0  0  0  0  0  0
  191.6680  170.1220  141.5580 C   0  0  0  0  0  3  0  0  0  0  0  0
  192.2980  169.7330  138.7810 C   0  0  0  0  0  3  0  0  0  0  0  0
  187.8060  175.3450  141.6630 N   0  0  0  0  0  0  0  0  0  0  0  0
  187.2620  177.9150  144.0980 C   0  0  0  0  0  3  0  0  0  0  0  0
  189.3250  176.2230  143.2500 N   0  0  0  0  0  0  0  0  0  0  0  0
  191.2530  174.3870  146.0300 O   0  0  0  0  0  0  0  0  0  0  0  0
  189.2890  172.5150  139.6830 C   0  0  0  0  0  2  0  0  0  0  0  0
  190.6740  172.9800  144.3050 C   0  0  0  0  0  2  0  0  0  0  0  0
  192.9910  168.9970  139.8520 C   0  0  0  0  0  0  0  0  0  0  0  0
  188.7290  174.2590  141.3400 C   0  0  2  0  0  3  0  0  0  0  0  0
  189.6270  172.0090  142.2530 C   0  0  1  0  0  3  0  0  0  0  0  0
  189.5000  176.8170  144.3920 C   0  0  0  0  0  0  0  0  0  0  0  0
  189.9950  171.7700  140.7980 C   0  0  0  0  0  0  0  0  0  0  0  0
  190.9580  170.8760  140.4930 C   0  0  0  0  0  0  0  0  0  0  0  0
  188.1960  173.4510  140.1770 C   0  0  0  0  0  2  0  0  0  0  0  0
  185.9480  177.6630  142.0590 C   0  0  0  0  0  0  0  0  0  0  0  0
  186.1710  178.1860  140.7520 N   0  0  0  0  0  1  0  0  0  0  0  0
  184.7630  177.5390  142.4700 O   0  0  0  0  0  0  0  0  0  0  0  0
  191.7250  177.5080  144.8290 O   0  0  0  0  0  0  0  0  0  0  0  0
  192.7350  176.7830  144.1930 C   0  0  0  0  0  1  0  0  0  0  0  0
  1 25  1  0  0  0  0
  2 20  2  0  0  0  0
  3  5  1  0  0  0  0
  3 16  1  0  0  0  0
  4 19  1  1  0  0  0
  5 15  2  0  0  0  0
  6 12  2  0  0  0  0
  7 30  1  6  0  0  0
  9  4  1  0  0  0  0
 10 11  1  0  0  0  0
 10  7  1  0  0  0  0
 10 17  1  0  0  0  0
 11 17  1  0  0  0  0
 13  1  2  0  0  0  0
 13 20  1  0  0  0  0
 14  3  2  0  0  0  0
 15  8  1  0  0  0  0
 16 23  2  0  0  0  0
 18 26  1  0  0  0  0
 18 24  1  0  0  0  0
 19 11  1  0  0  0  0
 20  6  1  0  0  0  0
 21 14  1  0  0  0  0
 21  9  1  0  0  0  0
 22  9  1  0  0  0  0
 22  4  1  0  0  0  0
 23  8  1  0  0  0  0
 23  7  1  0  0  0  0
 24 22  1  0  0  0  0
 25 24  2  0  0  0  0
 25 12  1  0  0  0  0
 26 21  1  0  0  0  0
 27 29  2  0  0  0  0
 27  5  1  0  0  0  0
 28 27  1  0  0  0  0
 31 30  1  0  0  0  0
M  END
>  <MODEL>
9

>  <REMARK>
 VINA RESULT:      -6.7      4.097      5.813
  Name = 
  2 active torsions:
  status: ('A' for Active; 'I' for Inactive)
    1  A    between atoms: O_3  and  C_11
    2  A    between atoms: C_6  and  C_7
                            x       y       z     vdW  Elec       q    Type
                         _______ _______ _______ _____ _____    ______ ____

>  <TORSDO>
F 2

$$$$
