=
 OpenBabel11042416323D

 54 61  0  0  1  0  0  0  0  0999 V2000
  186.9810  178.5250  142.0560 C   0  0  0  0  0  2  0  0  0  0  0  0
  185.5090  178.2120  141.7760 C   0  0  0  0  0  2  0  0  0  0  0  0
  188.9060  177.1470  146.2940 C   0  0  0  0  0  0  0  0  0  0  0  0
  184.9680  178.4530  144.0640 C   0  0  0  0  0  2  0  0  0  0  0  0
  185.5950  177.7340  145.2220 C   0  0  0  0  0  0  0  0  0  0  0  0
  190.2470  177.8060  144.4040 O   0  0  0  0  0  0  0  0  0  0  0  0
  189.1230  177.5610  144.9150 C   0  0  0  0  0  0  0  0  0  0  0  0
  187.6060  177.0820  146.5260 C   0  0  0  0  0  3  0  0  0  0  0  0
  184.8540  177.5690  142.9150 N   0  0  0  0  0  2  0  0  0  0  0  0
  187.6340  177.3810  142.8170 C   0  0  2  0  0  3  0  0  0  0  0  0
  186.9220  177.4810  145.2820 C   0  0  0  0  0  0  0  0  0  0  0  0
  187.8790  177.7210  144.2300 N   0  0  0  0  0  0  0  0  0  0  0  0
  184.7390  177.4090  146.3780 C   0  0  0  0  0  3  0  0  0  0  0  0
  184.3920  178.3120  147.2380 N   0  0  0  0  0  2  0  0  0  0  0  0
  188.7840  176.6850  142.0720 C   0  0  0  0  0  2  0  0  0  0  0  0
  187.7180  174.5520  142.3260 O   0  0  0  0  0  1  0  0  0  0  0  0
  188.4150  175.3510  141.4210 C   0  0  2  0  0  3  0  0  0  0  0  0
  189.6790  174.6160  141.0020 C   0  0  0  0  0  2  0  0  0  0  0  0
  190.5460  172.9460  139.4470 N   0  0  0  0  0  2  0  0  0  0  0  0
  190.0960  172.1330  140.5880 C   0  0  2  0  0  3  0  0  0  0  0  0
  189.3520  173.3540  140.2070 C   0  0  1  0  0  3  0  0  0  0  0  0
  191.0620  172.2910  141.7640 C   0  0  0  0  0  2  0  0  0  0  0  0
  189.2390  171.5620  143.1180 O   0  0  0  0  0  1  0  0  0  0  0  0
  190.6220  171.4480  142.9570 C   0  0  2  0  0  3  0  0  0  0  0  0
  191.3410  171.9010  144.2370 C   0  0  2  0  0  3  0  0  0  0  0  0
  191.1990  173.2780  144.4150 O   0  0  0  0  0  1  0  0  0  0  0  0
  193.0630  170.0620  144.5280 C   0  0  0  0  0  2  0  0  0  0  0  0
  194.0510  169.4800  143.5240 C   0  0  0  0  0  2  0  0  0  0  0  0
  192.8330  171.5440  144.2660 C   0  0  2  0  0  3  0  0  0  0  0  0
  194.5530  171.5640  141.7640 O   0  0  0  0  0  1  0  0  0  0  0  0
  195.6290  172.7630  143.5770 C   0  0  2  0  0  3  0  0  0  0  0  0
  196.0970  171.6190  145.6190 C   0  0  1  0  0  3  0  0  0  0  0  0
  195.9780  170.2030  145.0220 C   0  0  0  0  0  2  0  0  0  0  0  0
  197.1090  172.9830  143.8560 C   0  0  0  0  0  2  0  0  0  0  0  0
  197.4210  172.2050  145.1430 C   0  0  0  0  0  2  0  0  0  0  0  0
  195.1070  172.5760  144.9870 C   0  0  2  0  0  3  0  0  0  0  0  0
  195.4320  170.1430  143.5740 C   0  0  2  0  0  3  0  0  0  0  0  0
  195.5370  171.4630  142.7530 C   0  0  1  0  0  3  0  0  0  0  0  0
  193.6030  172.4090  145.2590 C   0  0  0  0  0  2  0  0  0  0  0  0
  189.8750  176.8650  147.2590 O   0  0  0  0  0  0  0  0  0  0  0  0
  190.4040  175.5610  147.4500 C   0  0  0  0  0  2  0  0  0  0  0  0
  191.9170  175.6050  147.3620 C   0  0  0  0  0  2  0  0  0  0  0  0
  192.3260  175.9420  146.0070 N   0  0  0  0  0  2  0  0  0  0  0  0
  193.6430  176.3810  145.6430 C   0  0  0  0  0  0  0  0  0  0  0  0
  194.3500  177.0350  146.5600 C   0  0  0  0  0  2  0  0  0  0  0  0
  195.5570  176.5400  144.0120 C   0  0  0  0  0  3  0  0  0  0  0  0
  194.5170  175.1090  139.9030 C   0  0  0  0  0  3  0  0  0  0  0  0
  193.4160  175.6450  143.2430 C   0  0  0  0  0  3  0  0  0  0  0  0
  193.9950  175.4950  141.9860 C   0  0  0  0  0  0  0  0  0  0  0  0
  195.2880  175.8450  141.7400 C   0  0  0  0  0  0  0  0  0  0  0  0
  195.5890  175.6110  140.4920 O   0  0  0  0  0  0  0  0  0  0  0  0
  194.2120  176.1710  144.2850 C   0  0  0  0  0  0  0  0  0  0  0  0
  196.1100  176.3760  142.7290 C   0  0  0  0  0  3  0  0  0  0  0  0
  193.4600  175.0110  140.8130 C   0  0  0  0  0  3  0  0  0  0  0  0
  1 10  1  0  0  0  0
  2  1  1  0  0  0  0
  2  9  1  0  0  0  0
  3  8  2  0  0  0  0
  3 40  1  0  0  0  0
  4  5  1  0  0  0  0
  5 11  2  0  0  0  0
  5 13  1  0  0  0  0
  6  7  2  0  0  0  0
  7  3  1  0  0  0  0
  9  4  1  0  0  0  0
 10 15  1  6  0  0  0
 10 12  1  0  0  0  0
 11  8  1  0  0  0  0
 12  7  1  0  0  0  0
 12 11  1  0  0  0  0
 13 14  2  0  0  0  0
 17 15  1  0  0  0  0
 17 16  1  1  0  0  0
 18 17  1  0  0  0  0
 19 21  1  0  0  0  0
 19 20  1  0  0  0  0
 20 22  1  1  0  0  0
 21 20  1  0  0  0  0
 21 18  1  1  0  0  0
 22 24  1  0  0  0  0
 24 23  1  1  0  0  0
 24 25  1  0  0  0  0
 25 26  1  6  0  0  0
 28 27  1  0  0  0  0
 29 25  1  1  0  0  0
 29 27  1  0  0  0  0
 29 39  1  0  0  0  0
 31 34  1  1  0  0  0
 31 36  1  0  0  0  0
 32 33  1  6  0  0  0
 34 35  1  0  0  0  0
 35 32  1  0  0  0  0
 36 39  1  6  0  0  0
 36 32  1  0  0  0  0
 37 28  1  1  0  0  0
 37 33  1  0  0  0  0
 38 30  1  6  0  0  0
 38 37  1  0  0  0  0
 38 31  1  0  0  0  0
 40 41  1  0  0  0  0
 42 41  1  0  0  0  0
 43 42  1  0  0  0  0
 44 43  1  0  0  0  0
 44 45  2  0  0  0  0
 46 52  1  0  0  0  0
 47 51  1  0  0  0  0
 47 54  2  0  0  0  0
 48 52  2  0  0  0  0
 49 48  1  0  0  0  0
 50 49  2  0  0  0  0
 50 53  1  0  0  0  0
 51 50  1  0  0  0  0
 52 44  1  0  0  0  0
 53 46  2  0  0  0  0
 54 49  1  0  0  0  0
M  END
>  <MODEL>
1

>  <REMARK>
 VINA RESULT:      -7.7      0.000      0.000
  Name = 
  15 active torsions:
  status: ('A' for Active; 'I' for Inactive)
    1  A    between atoms: C_1  and  C_23
    2  A    between atoms: C_2  and  C_22
    3  A    between atoms: C_2  and  C_46
    4  A    between atoms: C_5  and  C_20
    5  A    between atoms: C_5  and  C_24
    6  A    between atoms: C_11  and  C_33
    7  A    between atoms: C_11  and  N_42
    8  A    between atoms: C_13  and  C_14
    9  A    between atoms: C_13  and  C_46
   10  A    between atoms: C_15  and  O_51
   11  A    between atoms: C_17  and  N_42
   12  A    between atoms: C_17  and  C_45
   13  A    between atoms: C_24  and  C_32
   14  A    between atoms: C_32  and  C_43
   15  A    between atoms: C_33  and  O_51
                            x       y       z     vdW  Elec       q    Type
                         _______ _______ _______ _____ _____    ______ ____

>  <TORSDO>
F 15

$$$$
=
 OpenBabel11042416323D

 54 61  0  0  1  0  0  0  0  0999 V2000
  187.0130  178.4190  141.9990 C   0  0  0  0  0  2  0  0  0  0  0  0
  185.5400  178.1100  141.7230 C   0  0  0  0  0  2  0  0  0  0  0  0
  188.8910  177.2240  146.3120 C   0  0  0  0  0  0  0  0  0  0  0  0
  184.9860  178.4670  143.9920 C   0  0  0  0  0  2  0  0  0  0  0  0
  185.5960  177.7970  145.1880 C   0  0  0  0  0  0  0  0  0  0  0  0
  190.2540  177.7750  144.4040 O   0  0  0  0  0  0  0  0  0  0  0  0
  189.1240  177.5690  144.9170 C   0  0  0  0  0  0  0  0  0  0  0  0
  187.5890  177.1850  146.5370 C   0  0  0  0  0  3  0  0  0  0  0  0
  184.8690  177.5310  142.8860 N   0  0  0  0  0  2  0  0  0  0  0  0
  187.6470  177.3060  142.8190 C   0  0  2  0  0  3  0  0  0  0  0  0
  186.9190  177.5320  145.2710 C   0  0  0  0  0  0  0  0  0  0  0  0
  187.8870  177.7100  144.2150 N   0  0  0  0  0  0  0  0  0  0  0  0
  184.7270  177.5380  146.3520 C   0  0  0  0  0  3  0  0  0  0  0  0
  184.4350  178.4720  147.1990 N   0  0  0  0  0  2  0  0  0  0  0  0
  188.7940  176.5610  142.1160 C   0  0  0  0  0  2  0  0  0  0  0  0
  187.3870  174.6190  142.1060 O   0  0  0  0  0  1  0  0  0  0  0  0
  188.3800  175.2830  141.3860 C   0  0  2  0  0  3  0  0  0  0  0  0
  189.5780  174.3560  141.2520 C   0  0  0  0  0  2  0  0  0  0  0  0
  190.2080  173.4910  139.0570 N   0  0  0  0  0  2  0  0  0  0  0  0
  190.4530  172.3450  139.9470 C   0  0  2  0  0  3  0  0  0  0  0  0
  189.3250  173.2640  140.2140 C   0  0  1  0  0  3  0  0  0  0  0  0
  191.7100  172.5850  140.7860 C   0  0  0  0  0  2  0  0  0  0  0  0
  192.2060  171.4550  142.8260 O   0  0  0  0  0  1  0  0  0  0  0  0
  192.1940  171.2940  141.4380 C   0  0  2  0  0  3  0  0  0  0  0  0
  193.5990  170.9250  140.9380 C   0  0  2  0  0  3  0  0  0  0  0  0
  194.2040  170.0170  141.8100 O   0  0  0  0  0  1  0  0  0  0  0  0
  195.4330  171.9810  139.5420 C   0  0  0  0  0  2  0  0  0  0  0  0
  195.4050  173.2380  138.6800 C   0  0  0  0  0  2  0  0  0  0  0  0
  194.5250  172.1340  140.7540 C   0  0  2  0  0  3  0  0  0  0  0  0
  193.4910  174.8500  139.8770 O   0  0  0  0  0  1  0  0  0  0  0  0
  194.9440  175.0480  141.8080 C   0  0  2  0  0  3  0  0  0  0  0  0
  197.1950  174.2640  141.6620 C   0  0  1  0  0  3  0  0  0  0  0  0
  197.2430  174.2490  140.1210 C   0  0  0  0  0  2  0  0  0  0  0  0
  195.8260  176.2070  142.2490 C   0  0  0  0  0  2  0  0  0  0  0  0
  197.2750  175.7200  142.1070 C   0  0  0  0  0  2  0  0  0  0  0  0
  195.8260  173.8730  142.1820 C   0  0  2  0  0  3  0  0  0  0  0  0
  195.8850  174.4920  139.4180 C   0  0  2  0  0  3  0  0  0  0  0  0
  194.7880  175.1850  140.2800 C   0  0  1  0  0  3  0  0  0  0  0  0
  195.3310  172.4270  142.0160 C   0  0  0  0  0  2  0  0  0  0  0  0
  189.8500  176.9770  147.2980 O   0  0  0  0  0  0  0  0  0  0  0  0
  190.6500  175.8050  147.3060 C   0  0  0  0  0  2  0  0  0  0  0  0
  192.1160  176.1850  147.3860 C   0  0  0  0  0  2  0  0  0  0  0  0
  192.6670  176.3200  146.0470 N   0  0  0  0  0  2  0  0  0  0  0  0
  192.9740  175.2180  145.1810 C   0  0  0  0  0  0  0  0  0  0  0  0
  192.1690  175.0050  144.1450 C   0  0  0  0  0  2  0  0  0  0  0  0
  195.4190  174.8190  145.6470 C   0  0  0  0  0  3  0  0  0  0  0  0
  196.4970  170.4860  145.9070 C   0  0  0  0  0  3  0  0  0  0  0  0
  193.9280  172.8960  145.4100 C   0  0  0  0  0  3  0  0  0  0  0  0
  195.0380  172.0820  145.6220 C   0  0  0  0  0  0  0  0  0  0  0  0
  196.2810  172.5970  145.8380 C   0  0  0  0  0  0  0  0  0  0  0  0
  197.1450  171.6340  146.0060 O   0  0  0  0  0  0  0  0  0  0  0  0
  194.1150  174.2960  145.4290 C   0  0  0  0  0  0  0  0  0  0  0  0
  196.5180  173.9680  145.8570 C   0  0  0  0  0  3  0  0  0  0  0  0
  195.1390  170.7090  145.6610 C   0  0  0  0  0  3  0  0  0  0  0  0
  1 10  1  0  0  0  0
  2  1  1  0  0  0  0
  2  9  1  0  0  0  0
  3  8  2  0  0  0  0
  3 40  1  0  0  0  0
  4  5  1  0  0  0  0
  5 11  2  0  0  0  0
  5 13  1  0  0  0  0
  6  7  2  0  0  0  0
  7  3  1  0  0  0  0
  9  4  1  0  0  0  0
 10 15  1  6  0  0  0
 10 12  1  0  0  0  0
 11  8  1  0  0  0  0
 12  7  1  0  0  0  0
 12 11  1  0  0  0  0
 13 14  2  0  0  0  0
 17 16  1  1  0  0  0
 17 15  1  0  0  0  0
 18 17  1  0  0  0  0
 19 20  1  0  0  0  0
 19 21  1  0  0  0  0
 20 21  1  0  0  0  0
 20 22  1  1  0  0  0
 21 18  1  1  0  0  0
 22 24  1  0  0  0  0
 24 23  1  1  0  0  0
 25 24  1  0  0  0  0
 25 26  1  1  0  0  0
 27 29  1  0  0  0  0
 28 27  1  0  0  0  0
 29 25  1  1  0  0  0
 29 39  1  0  0  0  0
 31 36  1  0  0  0  0
 31 34  1  6  0  0  0
 32 33  1  6  0  0  0
 32 35  1  0  0  0  0
 32 36  1  0  0  0  0
 35 34  1  0  0  0  0
 36 39  1  6  0  0  0
 37 28  1  1  0  0  0
 37 33  1  0  0  0  0
 37 38  1  0  0  0  0
 38 30  1  6  0  0  0
 38 31  1  0  0  0  0
 40 41  1  0  0  0  0
 41 42  1  0  0  0  0
 43 42  1  0  0  0  0
 44 52  1  0  0  0  0
 44 43  1  0  0  0  0
 45 44  2  0  0  0  0
 46 53  1  0  0  0  0
 47 51  1  0  0  0  0
 48 52  1  0  0  0  0
 48 49  2  0  0  0  0
 49 54  1  0  0  0  0
 49 50  1  0  0  0  0
 50 53  2  0  0  0  0
 50 51  1  0  0  0  0
 52 46  2  0  0  0  0
 54 47  2  0  0  0  0
M  END
>  <MODEL>
2

>  <REMARK>
 VINA RESULT:      -7.2      1.506      3.392
  Name = 
  15 active torsions:
  status: ('A' for Active; 'I' for Inactive)
    1  A    between atoms: C_1  and  C_23
    2  A    between atoms: C_2  and  C_22
    3  A    between atoms: C_2  and  C_46
    4  A    between atoms: C_5  and  C_20
    5  A    between atoms: C_5  and  C_24
    6  A    between atoms: C_11  and  C_33
    7  A    between atoms: C_11  and  N_42
    8  A    between atoms: C_13  and  C_14
    9  A    between atoms: C_13  and  C_46
   10  A    between atoms: C_15  and  O_51
   11  A    between atoms: C_17  and  N_42
   12  A    between atoms: C_17  and  C_45
   13  A    between atoms: C_24  and  C_32
   14  A    between atoms: C_32  and  C_43
   15  A    between atoms: C_33  and  O_51
                            x       y       z     vdW  Elec       q    Type
                         _______ _______ _______ _____ _____    ______ ____

>  <TORSDO>
F 15

$$$$
=
 OpenBabel11042416323D

 54 61  0  0  1  0  0  0  0  0999 V2000
  192.0850  170.8040  142.5820 C   0  0  0  0  0  2  0  0  0  0  0  0
  192.3500  169.4070  143.1500 C   0  0  0  0  0  2  0  0  0  0  0  0
  195.8640  173.5670  141.3000 C   0  0  0  0  0  0  0  0  0  0  0  0
  194.3580  170.1390  144.1580 C   0  0  0  0  0  2  0  0  0  0  0  0
  195.5140  170.8160  143.4820 C   0  0  0  0  0  0  0  0  0  0  0  0
  193.6070  174.0390  140.6030 O   0  0  0  0  0  0  0  0  0  0  0  0
  194.4370  173.2980  141.1910 C   0  0  0  0  0  0  0  0  0  0  0  0
  196.4200  172.6470  142.0700 C   0  0  0  0  0  3  0  0  0  0  0  0
  193.7790  169.1280  143.2880 N   0  0  0  0  0  2  0  0  0  0  0  0
  193.0770  171.1260  141.4750 C   0  0  2  0  0  3  0  0  0  0  0  0
  195.3430  171.7430  142.5120 C   0  0  0  0  0  0  0  0  0  0  0  0
  194.0880  172.1090  141.9020 N   0  0  0  0  0  0  0  0  0  0  0  0
  196.8700  170.5350  143.9900 C   0  0  0  0  0  3  0  0  0  0  0  0
  197.0590  169.9420  145.1240 N   0  0  0  0  0  2  0  0  0  0  0  0
  192.4470  171.3500  140.0910 C   0  0  0  0  0  2  0  0  0  0  0  0
  190.3990  170.5290  139.1510 O   0  0  0  0  0  1  0  0  0  0  0  0
  190.9200  171.4270  140.0830 C   0  0  2  0  0  3  0  0  0  0  0  0
  190.4770  172.8300  139.7000 C   0  0  0  0  0  2  0  0  0  0  0  0
  188.9860  172.5640  141.6140 N   0  0  0  0  0  2  0  0  0  0  0  0
  189.0770  174.0260  141.4670 C   0  0  2  0  0  3  0  0  0  0  0  0
  189.0980  173.1550  140.2700 C   0  0  1  0  0  3  0  0  0  0  0  0
  190.4430  174.5210  141.9440 C   0  0  0  0  0  2  0  0  0  0  0  0
  189.2160  174.7700  143.9740 O   0  0  0  0  0  1  0  0  0  0  0  0
  190.3310  175.2480  143.2810 C   0  0  2  0  0  3  0  0  0  0  0  0
  190.2080  176.7640  143.0670 C   0  0  2  0  0  3  0  0  0  0  0  0
  191.0840  177.4480  143.9120 O   0  0  0  0  0  1  0  0  0  0  0  0
  188.3910  178.3070  142.2020 C   0  0  0  0  0  2  0  0  0  0  0  0
  187.0180  177.9760  141.6300 C   0  0  0  0  0  2  0  0  0  0  0  0
  188.7880  177.3040  143.2770 C   0  0  2  0  0  3  0  0  0  0  0  0
  186.3210  175.5860  142.8530 O   0  0  0  0  0  1  0  0  0  0  0  0
  186.2160  176.7630  144.9700 C   0  0  2  0  0  3  0  0  0  0  0  0
  186.3050  179.1480  144.9870 C   0  0  1  0  0  3  0  0  0  0  0  0
  185.9320  179.3170  143.5010 C   0  0  0  0  0  2  0  0  0  0  0  0
  185.0050  177.2270  145.7670 C   0  0  0  0  0  2  0  0  0  0  0  0
  185.0350  178.7620  145.7350 C   0  0  0  0  0  2  0  0  0  0  0  0
  187.1640  177.9200  145.2100 C   0  0  2  0  0  3  0  0  0  0  0  0
  185.8990  178.0060  142.6770 C   0  0  2  0  0  3  0  0  0  0  0  0
  185.7580  176.6910  143.5000 C   0  0  1  0  0  3  0  0  0  0  0  0
  188.6050  177.8880  144.6740 C   0  0  0  0  0  2  0  0  0  0  0  0
  196.5780  174.6170  140.7180 O   0  0  0  0  0  0  0  0  0  0  0  0
  197.1130  175.6900  141.4790 C   0  0  0  0  0  2  0  0  0  0  0  0
  196.0250  176.3010  142.3390 C   0  0  0  0  0  2  0  0  0  0  0  0
  196.4380  176.3040  143.7340 N   0  0  0  0  0  2  0  0  0  0  0  0
  196.1120  175.2740  144.6780 C   0  0  0  0  0  0  0  0  0  0  0  0
  197.0670  174.4070  144.9980 C   0  0  0  0  0  2  0  0  0  0  0  0
  193.9980  173.9440  145.0150 C   0  0  0  0  0  3  0  0  0  0  0  0
  190.9330  176.0680  147.4850 C   0  0  0  0  0  3  0  0  0  0  0  0
  194.1800  176.1580  146.0340 C   0  0  0  0  0  3  0  0  0  0  0  0
  192.8940  175.9710  146.5350 C   0  0  0  0  0  0  0  0  0  0  0  0
  192.1850  174.8320  146.2950 C   0  0  0  0  0  0  0  0  0  0  0  0
  191.0140  174.9020  146.8670 O   0  0  0  0  0  0  0  0  0  0  0  0
  194.7530  175.1220  145.2630 C   0  0  0  0  0  0  0  0  0  0  0  0
  192.7010  173.7870  145.5350 C   0  0  0  0  0  3  0  0  0  0  0  0
  192.1110  176.7990  147.3070 C   0  0  0  0  0  3  0  0  0  0  0  0
  1  2  1  0  0  0  0
  2  9  1  0  0  0  0
  3  8  2  0  0  0  0
  5 13  1  0  0  0  0
  5  4  1  0  0  0  0
  6  7  2  0  0  0  0
  7  3  1  0  0  0  0
  7 12  1  0  0  0  0
  8 11  1  0  0  0  0
  9  4  1  0  0  0  0
 10 15  1  6  0  0  0
 10 12  1  0  0  0  0
 10  1  1  0  0  0  0
 11  5  2  0  0  0  0
 12 11  1  0  0  0  0
 13 14  2  0  0  0  0
 17 16  1  6  0  0  0
 17 15  1  0  0  0  0
 18 17  1  0  0  0  0
 20 19  1  0  0  0  0
 20 22  1  1  0  0  0
 21 18  1  1  0  0  0
 21 20  1  0  0  0  0
 21 19  1  0  0  0  0
 22 24  1  0  0  0  0
 24 23  1  6  0  0  0
 25 24  1  0  0  0  0
 25 26  1  1  0  0  0
 27 29  1  0  0  0  0
 28 27  1  0  0  0  0
 29 25  1  6  0  0  0
 29 39  1  0  0  0  0
 31 36  1  0  0  0  0
 31 34  1  1  0  0  0
 32 33  1  6  0  0  0
 32 36  1  0  0  0  0
 32 35  1  0  0  0  0
 35 34  1  0  0  0  0
 36 39  1  6  0  0  0
 37 28  1  1  0  0  0
 37 38  1  0  0  0  0
 37 33  1  0  0  0  0
 38 30  1  6  0  0  0
 38 31  1  0  0  0  0
 40  3  1  0  0  0  0
 40 41  1  0  0  0  0
 41 42  1  0  0  0  0
 42 43  1  0  0  0  0
 43 44  1  0  0  0  0
 44 45  2  0  0  0  0
 44 52  1  0  0  0  0
 46 52  2  0  0  0  0
 46 53  1  0  0  0  0
 48 49  2  0  0  0  0
 49 54  1  0  0  0  0
 50 49  1  0  0  0  0
 50 51  1  0  0  0  0
 51 47  1  0  0  0  0
 52 48  1  0  0  0  0
 53 50  2  0  0  0  0
 54 47  2  0  0  0  0
M  END
>  <MODEL>
3

>  <REMARK>
 VINA RESULT:      -7.0      2.435      8.604
  Name = 
  15 active torsions:
  status: ('A' for Active; 'I' for Inactive)
    1  A    between atoms: C_1  and  C_23
    2  A    between atoms: C_2  and  C_22
    3  A    between atoms: C_2  and  C_46
    4  A    between atoms: C_5  and  C_20
    5  A    between atoms: C_5  and  C_24
    6  A    between atoms: C_11  and  C_33
    7  A    between atoms: C_11  and  N_42
    8  A    between atoms: C_13  and  C_14
    9  A    between atoms: C_13  and  C_46
   10  A    between atoms: C_15  and  O_51
   11  A    between atoms: C_17  and  N_42
   12  A    between atoms: C_17  and  C_45
   13  A    between atoms: C_24  and  C_32
   14  A    between atoms: C_32  and  C_43
   15  A    between atoms: C_33  and  O_51
                            x       y       z     vdW  Elec       q    Type
                         _______ _______ _______ _____ _____    ______ ____

>  <TORSDO>
F 15

$$$$
=
 OpenBabel11042416323D

 54 61  0  0  1  0  0  0  0  0999 V2000
  187.4050  178.1250  141.5040 C   0  0  0  0  0  2  0  0  0  0  0  0
  185.9010  178.0880  141.2230 C   0  0  0  0  0  2  0  0  0  0  0  0
  188.9590  177.4250  146.0490 C   0  0  0  0  0  0  0  0  0  0  0  0
  185.4270  178.9910  143.3550 C   0  0  0  0  0  2  0  0  0  0  0  0
  185.8720  178.4540  144.6830 C   0  0  0  0  0  0  0  0  0  0  0  0
  190.4170  177.2910  144.1360 O   0  0  0  0  0  0  0  0  0  0  0  0
  189.2670  177.4330  144.6250 C   0  0  0  0  0  0  0  0  0  0  0  0
  187.6780  177.7080  146.2160 C   0  0  0  0  0  3  0  0  0  0  0  0
  185.1150  177.9030  142.4420 N   0  0  0  0  0  2  0  0  0  0  0  0
  187.7780  177.0850  142.5490 C   0  0  2  0  0  3  0  0  0  0  0  0
  187.1050  177.9350  144.8770 C   0  0  0  0  0  0  0  0  0  0  0  0
  188.0930  177.6940  143.8530 N   0  0  0  0  0  0  0  0  0  0  0  0
  184.9630  178.6180  145.8330 C   0  0  0  0  0  3  0  0  0  0  0  0
  184.4050  177.5990  146.4050 N   0  0  0  0  0  2  0  0  0  0  0  0
  188.7380  175.9910  142.0550 C   0  0  0  0  0  2  0  0  0  0  0  0
  187.7500  173.8260  142.3480 O   0  0  0  0  0  1  0  0  0  0  0  0
  188.0620  174.7910  141.3910 C   0  0  2  0  0  3  0  0  0  0  0  0
  189.0010  174.1710  140.3690 C   0  0  0  0  0  2  0  0  0  0  0  0
  190.0900  172.1280  139.5940 N   0  0  0  0  0  2  0  0  0  0  0  0
  190.6150  172.2840  140.9600 C   0  0  2  0  0  3  0  0  0  0  0  0
  189.2260  172.6860  140.6470 C   0  0  1  0  0  3  0  0  0  0  0  0
  191.6340  173.4250  141.0080 C   0  0  0  0  0  2  0  0  0  0  0  0
  191.3640  173.6560  143.3660 O   0  0  0  0  0  1  0  0  0  0  0  0
  192.3260  173.4910  142.3660 C   0  0  2  0  0  3  0  0  0  0  0  0
  193.3330  174.6510  142.4070 C   0  0  2  0  0  3  0  0  0  0  0  0
  192.7230  175.8410  142.0060 O   0  0  0  0  0  1  0  0  0  0  0  0
  195.8150  174.1340  142.3950 C   0  0  0  0  0  2  0  0  0  0  0  0
  196.5550  172.9020  141.8860 C   0  0  0  0  0  2  0  0  0  0  0  0
  194.5810  174.4150  141.5480 C   0  0  2  0  0  3  0  0  0  0  0  0
  194.9380  171.9180  139.8580 O   0  0  0  0  0  1  0  0  0  0  0  0
  195.4190  173.9200  138.5770 C   0  0  2  0  0  3  0  0  0  0  0  0
  197.1420  175.3960  139.3200 C   0  0  1  0  0  3  0  0  0  0  0  0
  197.8280  174.3670  140.2390 C   0  0  0  0  0  2  0  0  0  0  0  0
  196.3510  174.1160  137.3890 C   0  0  0  0  0  2  0  0  0  0  0  0
  197.4860  175.0250  137.8820 C   0  0  0  0  0  2  0  0  0  0  0  0
  195.6370  175.2260  139.3160 C   0  0  2  0  0  3  0  0  0  0  0  0
  197.0500  173.0440  140.4420 C   0  0  2  0  0  3  0  0  0  0  0  0
  195.9750  172.7160  139.3630 C   0  0  1  0  0  3  0  0  0  0  0  0
  194.8260  175.5660  140.5780 C   0  0  0  0  0  2  0  0  0  0  0  0
  189.8360  177.1770  147.1070 O   0  0  0  0  0  0  0  0  0  0  0  0
  190.2070  175.8650  147.4990 C   0  0  0  0  0  2  0  0  0  0  0  0
  191.7040  175.8030  147.7340 C   0  0  0  0  0  2  0  0  0  0  0  0
  192.3240  174.9230  146.7550 N   0  0  0  0  0  2  0  0  0  0  0  0
  193.5670  175.1970  146.0910 C   0  0  0  0  0  0  0  0  0  0  0  0
  193.7400  176.4140  145.5850 C   0  0  0  0  0  2  0  0  0  0  0  0
  195.9950  174.5250  146.0500 C   0  0  0  0  0  3  0  0  0  0  0  0
  196.6320  170.2170  145.0290 C   0  0  0  0  0  3  0  0  0  0  0  0
  194.2910  172.8400  145.5700 C   0  0  0  0  0  3  0  0  0  0  0  0
  195.3260  171.9260  145.3920 C   0  0  0  0  0  0  0  0  0  0  0  0
  196.6340  172.2800  145.5330 C   0  0  0  0  0  0  0  0  0  0  0  0
  197.4060  171.2510  145.3130 O   0  0  0  0  0  0  0  0  0  0  0  0
  194.6260  174.1680  145.9140 C   0  0  0  0  0  0  0  0  0  0  0  0
  197.0160  173.5770  145.8620 C   0  0  0  0  0  3  0  0  0  0  0  0
  195.2850  170.5890  145.0640 C   0  0  0  0  0  3  0  0  0  0  0  0
  1 10  1  0  0  0  0
  2  1  1  0  0  0  0
  2  9  1  0  0  0  0
  3  8  2  0  0  0  0
  3 40  1  0  0  0  0
  4  5  1  0  0  0  0
  5 11  2  0  0  0  0
  5 13  1  0  0  0  0
  6  7  2  0  0  0  0
  7  3  1  0  0  0  0
  9  4  1  0  0  0  0
 10 15  1  6  0  0  0
 10 12  1  0  0  0  0
 11  8  1  0  0  0  0
 12  7  1  0  0  0  0
 12 11  1  0  0  0  0
 13 14  2  0  0  0  0
 17 15  1  0  0  0  0
 17 16  1  1  0  0  0
 18 17  1  0  0  0  0
 19 21  1  0  0  0  0
 19 20  1  0  0  0  0
 20 22  1  6  0  0  0
 21 18  1  6  0  0  0
 21 20  1  0  0  0  0
 22 24  1  0  0  0  0
 24 25  1  0  0  0  0
 24 23  1  1  0  0  0
 25 26  1  6  0  0  0
 28 27  1  0  0  0  0
 29 27  1  0  0  0  0
 29 25  1  1  0  0  0
 31 34  1  6  0  0  0
 31 36  1  0  0  0  0
 31 38  1  0  0  0  0
 32 35  1  6  0  0  0
 32 33  1  0  0  0  0
 34 35  1  0  0  0  0
 36 32  1  0  0  0  0
 36 39  1  1  0  0  0
 37 33  1  6  0  0  0
 37 28  1  0  0  0  0
 38 30  1  1  0  0  0
 38 37  1  0  0  0  0
 39 29  1  0  0  0  0
 40 41  1  0  0  0  0
 41 42  1  0  0  0  0
 43 42  1  0  0  0  0
 44 43  1  0  0  0  0
 45 44  2  0  0  0  0
 47 54  2  0  0  0  0
 47 51  1  0  0  0  0
 48 52  2  0  0  0  0
 49 50  2  0  0  0  0
 49 48  1  0  0  0  0
 50 53  1  0  0  0  0
 51 50  1  0  0  0  0
 52 46  1  0  0  0  0
 52 44  1  0  0  0  0
 53 46  2  0  0  0  0
 54 49  1  0  0  0  0
M  END
>  <MODEL>
4

>  <REMARK>
 VINA RESULT:      -6.9      1.665      3.648
  Name = 
  15 active torsions:
  status: ('A' for Active; 'I' for Inactive)
    1  A    between atoms: C_1  and  C_23
    2  A    between atoms: C_2  and  C_22
    3  A    between atoms: C_2  and  C_46
    4  A    between atoms: C_5  and  C_20
    5  A    between atoms: C_5  and  C_24
    6  A    between atoms: C_11  and  C_33
    7  A    between atoms: C_11  and  N_42
    8  A    between atoms: C_13  and  C_14
    9  A    between atoms: C_13  and  C_46
   10  A    between atoms: C_15  and  O_51
   11  A    between atoms: C_17  and  N_42
   12  A    between atoms: C_17  and  C_45
   13  A    between atoms: C_24  and  C_32
   14  A    between atoms: C_32  and  C_43
   15  A    between atoms: C_33  and  O_51
                            x       y       z     vdW  Elec       q    Type
                         _______ _______ _______ _____ _____    ______ ____

>  <TORSDO>
F 15

$$$$
=
 OpenBabel11042416323D

 54 61  0  0  1  0  0  0  0  0999 V2000
  194.6480  172.2850  139.5730 C   0  0  0  0  0  2  0  0  0  0  0  0
  195.1900  171.2250  138.6120 C   0  0  0  0  0  2  0  0  0  0  0  0
  189.9320  173.4170  139.3980 C   0  0  0  0  0  0  0  0  0  0  0  0
  193.6420  171.8680  136.9460 C   0  0  0  0  0  2  0  0  0  0  0  0
  192.1500  171.9470  137.0810 C   0  0  0  0  0  0  0  0  0  0  0  0
  191.3510  174.0220  141.2480 O   0  0  0  0  0  0  0  0  0  0  0  0
  191.1790  173.4330  140.1500 C   0  0  0  0  0  0  0  0  0  0  0  0
  190.1300  172.8020  138.2450 C   0  0  0  0  0  3  0  0  0  0  0  0
  194.1630  170.7340  137.6930 N   0  0  0  0  0  2  0  0  0  0  0  0
  193.2550  171.9080  140.0540 C   0  0  2  0  0  3  0  0  0  0  0  0
  191.5490  172.4070  138.2020 C   0  0  0  0  0  0  0  0  0  0  0  0
  192.2090  172.7430  139.4400 N   0  0  0  0  0  0  0  0  0  0  0  0
  191.3320  171.6230  135.8970 C   0  0  0  0  0  3  0  0  0  0  0  0
  190.9090  170.4200  135.6760 N   0  0  0  0  0  2  0  0  0  0  0  0
  193.1400  171.6690  141.5680 C   0  0  0  0  0  2  0  0  0  0  0  0
  194.2910  169.6850  142.2670 O   0  0  0  0  0  1  0  0  0  0  0  0
  194.3870  171.0750  142.2240 C   0  0  2  0  0  3  0  0  0  0  0  0
  194.5160  171.5930  143.6480 C   0  0  0  0  0  2  0  0  0  0  0  0
  196.4090  172.8580  142.7670 N   0  0  0  0  0  2  0  0  0  0  0  0
  196.0930  173.5650  144.0200 C   0  0  2  0  0  3  0  0  0  0  0  0
  195.9290  172.0970  143.9330 C   0  0  1  0  0  3  0  0  0  0  0  0
  194.8090  174.3800  143.8570 C   0  0  0  0  0  2  0  0  0  0  0  0
  196.4460  176.0990  144.0930 O   0  0  0  0  0  1  0  0  0  0  0  0
  195.0680  175.8680  144.0760 C   0  0  2  0  0  3  0  0  0  0  0  0
  194.4380  176.3410  145.3960 C   0  0  2  0  0  3  0  0  0  0  0  0
  194.8650  175.5390  146.4550 O   0  0  0  0  0  1  0  0  0  0  0  0
  192.3610  177.3550  144.3520 C   0  0  0  0  0  2  0  0  0  0  0  0
  191.2870  176.7080  143.4860 C   0  0  0  0  0  2  0  0  0  0  0  0
  192.9050  176.3650  145.3730 C   0  0  2  0  0  3  0  0  0  0  0  0
  191.2630  174.0520  144.2880 O   0  0  0  0  0  1  0  0  0  0  0  0
  190.4410  174.7710  146.4540 C   0  0  2  0  0  3  0  0  0  0  0  0
  189.7120  177.0260  146.7380 C   0  0  1  0  0  3  0  0  0  0  0  0
  189.5370  177.3120  145.2330 C   0  0  0  0  0  2  0  0  0  0  0  0
  189.0370  174.6930  147.0380 C   0  0  0  0  0  2  0  0  0  0  0  0
  188.5500  176.1420  147.1730 C   0  0  0  0  0  2  0  0  0  0  0  0
  190.8920  176.1120  146.9980 C   0  0  2  0  0  3  0  0  0  0  0  0
  190.0770  176.2120  144.2870 C   0  0  2  0  0  3  0  0  0  0  0  0
  190.2660  174.8020  144.9220 C   0  0  1  0  0  3  0  0  0  0  0  0
  192.3220  176.6230  146.7600 C   0  0  0  0  0  2  0  0  0  0  0  0
  188.7020  173.9600  139.7790 O   0  0  0  0  0  0  0  0  0  0  0  0
  187.8920  173.3770  140.7890 C   0  0  0  0  0  2  0  0  0  0  0  0
  187.8470  174.2880  142.0000 C   0  0  0  0  0  2  0  0  0  0  0  0
  188.1400  175.6570  141.6020 N   0  0  0  0  0  2  0  0  0  0  0  0
  187.1550  176.6930  141.4740 C   0  0  0  0  0  0  0  0  0  0  0  0
  186.8230  177.0790  140.2460 C   0  0  0  0  0  2  0  0  0  0  0  0
  186.3250  178.7700  142.6350 C   0  0  0  0  0  3  0  0  0  0  0  0
  184.7850  178.0070  146.7640 C   0  0  0  0  0  3  0  0  0  0  0  0
  186.2020  176.6280  143.8070 C   0  0  0  0  0  3  0  0  0  0  0  0
  185.6530  177.3160  144.8860 C   0  0  0  0  0  0  0  0  0  0  0  0
  185.4460  178.6620  144.8550 C   0  0  0  0  0  0  0  0  0  0  0  0
  184.9270  179.0650  145.9830 O   0  0  0  0  0  0  0  0  0  0  0  0
  186.5400  177.3650  142.6500 C   0  0  0  0  0  0  0  0  0  0  0  0
  185.7700  179.4340  143.7440 C   0  0  0  0  0  3  0  0  0  0  0  0
  185.2340  176.8540  146.1140 C   0  0  0  0  0  3  0  0  0  0  0  0
  1 10  1  0  0  0  0
  2  1  1  0  0  0  0
  3 40  1  0  0  0  0
  3  7  1  0  0  0  0
  4  5  1  0  0  0  0
  4  9  1  0  0  0  0
  5 11  2  0  0  0  0
  7  6  2  0  0  0  0
  8  3  2  0  0  0  0
  9  2  1  0  0  0  0
 10 15  1  1  0  0  0
 11  8  1  0  0  0  0
 11 12  1  0  0  0  0
 12 10  1  0  0  0  0
 12  7  1  0  0  0  0
 13  5  1  0  0  0  0
 14 13  2  0  0  0  0
 15 17  1  0  0  0  0
 17 16  1  1  0  0  0
 17 18  1  0  0  0  0
 19 21  1  0  0  0  0
 19 20  1  0  0  0  0
 20 22  1  6  0  0  0
 21 18  1  6  0  0  0
 21 20  1  0  0  0  0
 22 24  1  0  0  0  0
 24 23  1  1  0  0  0
 24 25  1  0  0  0  0
 25 26  1  1  0  0  0
 27 29  1  0  0  0  0
 28 27  1  0  0  0  0
 29 25  1  1  0  0  0
 29 39  1  0  0  0  0
 31 36  1  0  0  0  0
 31 34  1  1  0  0  0
 32 33  1  6  0  0  0
 32 36  1  0  0  0  0
 32 35  1  0  0  0  0
 34 35  1  0  0  0  0
 36 39  1  6  0  0  0
 37 28  1  1  0  0  0
 37 38  1  0  0  0  0
 37 33  1  0  0  0  0
 38 30  1  6  0  0  0
 38 31  1  0  0  0  0
 40 41  1  0  0  0  0
 41 42  1  0  0  0  0
 43 42  1  0  0  0  0
 44 43  1  0  0  0  0
 44 52  1  0  0  0  0
 45 44  2  0  0  0  0
 46 52  2  0  0  0  0
 46 53  1  0  0  0  0
 48 49  2  0  0  0  0
 49 54  1  0  0  0  0
 50 49  1  0  0  0  0
 50 51  1  0  0  0  0
 51 47  1  0  0  0  0
 52 48  1  0  0  0  0
 53 50  2  0  0  0  0
 54 47  2  0  0  0  0
M  END
>  <MODEL>
5

>  <REMARK>
 VINA RESULT:      -6.9      2.583      8.773
  Name = 
  15 active torsions:
  status: ('A' for Active; 'I' for Inactive)
    1  A    between atoms: C_1  and  C_23
    2  A    between atoms: C_2  and  C_22
    3  A    between atoms: C_2  and  C_46
    4  A    between atoms: C_5  and  C_20
    5  A    between atoms: C_5  and  C_24
    6  A    between atoms: C_11  and  C_33
    7  A    between atoms: C_11  and  N_42
    8  A    between atoms: C_13  and  C_14
    9  A    between atoms: C_13  and  C_46
   10  A    between atoms: C_15  and  O_51
   11  A    between atoms: C_17  and  N_42
   12  A    between atoms: C_17  and  C_45
   13  A    between atoms: C_24  and  C_32
   14  A    between atoms: C_32  and  C_43
   15  A    between atoms: C_33  and  O_51
                            x       y       z     vdW  Elec       q    Type
                         _______ _______ _______ _____ _____    ______ ____

>  <TORSDO>
F 15

$$$$
=
 OpenBabel11042416323D

 54 61  0  0  1  0  0  0  0  0999 V2000
  188.1480  176.3040  146.6380 C   0  0  0  0  0  2  0  0  0  0  0  0
  187.2290  177.4770  146.9860 C   0  0  0  0  0  2  0  0  0  0  0  0
  188.8070  175.1450  141.9710 C   0  0  0  0  0  0  0  0  0  0  0  0
  185.8500  177.0180  145.1220 C   0  0  0  0  0  2  0  0  0  0  0  0
  186.2760  176.9060  143.6880 C   0  0  0  0  0  0  0  0  0  0  0  0
  190.2440  174.3420  143.7300 O   0  0  0  0  0  0  0  0  0  0  0  0
  189.2810  175.0560  143.3450 C   0  0  0  0  0  0  0  0  0  0  0  0
  187.7190  175.8950  141.9370 C   0  0  0  0  0  3  0  0  0  0  0  0
  186.6040  178.0610  145.7990 N   0  0  0  0  0  2  0  0  0  0  0  0
  188.9440  176.6060  145.3780 C   0  0  2  0  0  3  0  0  0  0  0  0
  187.4330  176.3090  143.3230 C   0  0  0  0  0  0  0  0  0  0  0  0
  188.4620  175.8360  144.2180 N   0  0  0  0  0  0  0  0  0  0  0  0
  185.3310  177.3580  142.6500 C   0  0  0  0  0  3  0  0  0  0  0  0
  184.2930  178.0710  142.9450 N   0  0  0  0  0  2  0  0  0  0  0  0
  190.4670  176.6620  145.5760 C   0  0  0  0  0  2  0  0  0  0  0  0
  190.8940  177.0230  147.9090 O   0  0  0  0  0  1  0  0  0  0  0  0
  190.9680  176.0690  146.8940 C   0  0  2  0  0  3  0  0  0  0  0  0
  192.4170  175.6350  146.7460 C   0  0  0  0  0  2  0  0  0  0  0  0
  194.3190  177.1650  146.7480 N   0  0  0  0  0  2  0  0  0  0  0  0
  194.6190  176.2660  145.6210 C   0  0  2  0  0  3  0  0  0  0  0  0
  193.2190  176.6390  145.9220 C   0  0  1  0  0  3  0  0  0  0  0  0
  195.0610  174.8970  146.1410 C   0  0  0  0  0  2  0  0  0  0  0  0
  196.7660  175.3630  144.5400 O   0  0  0  0  0  1  0  0  0  0  0  0
  196.2160  174.3390  145.3150 C   0  0  2  0  0  3  0  0  0  0  0  0
  195.7350  173.1940  144.4100 C   0  0  2  0  0  3  0  0  0  0  0  0
  196.7490  172.2500  144.2370 O   0  0  0  0  0  1  0  0  0  0  0  0
  193.7290  173.7760  142.9730 C   0  0  0  0  0  2  0  0  0  0  0  0
  193.3090  175.1140  142.3750 C   0  0  0  0  0  2  0  0  0  0  0  0
  195.2460  173.6600  143.0330 C   0  0  2  0  0  3  0  0  0  0  0  0
  195.6920  176.4900  142.0260 O   0  0  0  0  0  1  0  0  0  0  0  0
  196.3290  174.8530  140.3540 C   0  0  2  0  0  3  0  0  0  0  0  0
  194.6990  173.2990  139.5600 C   0  0  1  0  0  3  0  0  0  0  0  0
  193.4800  174.1090  140.0430 C   0  0  0  0  0  2  0  0  0  0  0  0
  196.3390  174.9660  138.8350 C   0  0  0  0  0  2  0  0  0  0  0  0
  195.2560  174.0030  138.3280 C   0  0  0  0  0  2  0  0  0  0  0  0
  195.8650  173.4200  140.5200 C   0  0  2  0  0  3  0  0  0  0  0  0
  193.8120  175.3250  140.9430 C   0  0  2  0  0  3  0  0  0  0  0  0
  195.2720  175.8600  140.8500 C   0  0  1  0  0  3  0  0  0  0  0  0
  195.7790  172.7730  141.9130 C   0  0  0  0  0  2  0  0  0  0  0  0
  189.3640  174.5470  140.8390 O   0  0  0  0  0  0  0  0  0  0  0  0
  188.5750  174.0870  139.7520 C   0  0  0  0  0  2  0  0  0  0  0  0
  189.2050  172.8460  139.1500 C   0  0  0  0  0  2  0  0  0  0  0  0
  189.7070  171.9820  140.2080 N   0  0  0  0  0  2  0  0  0  0  0  0
  190.9970  171.3530  140.1970 C   0  0  0  0  0  0  0  0  0  0  0  0
  191.5470  171.0950  139.0150 C   0  0  0  0  0  2  0  0  0  0  0  0
  191.1230  171.2210  142.7110 C   0  0  0  0  0  3  0  0  0  0  0  0
  194.8880  169.3240  144.2070 C   0  0  0  0  0  3  0  0  0  0  0  0
  192.9700  170.3280  141.3830 C   0  0  0  0  0  3  0  0  0  0  0  0
  193.5950  169.9940  142.5820 C   0  0  0  0  0  0  0  0  0  0  0  0
  193.0240  170.2550  143.7910 C   0  0  0  0  0  0  0  0  0  0  0  0
  193.8050  169.8510  144.7550 O   0  0  0  0  0  0  0  0  0  0  0  0
  191.7030  170.9480  141.4420 C   0  0  0  0  0  0  0  0  0  0  0  0
  191.7820  170.8720  143.9030 C   0  0  0  0  0  3  0  0  0  0  0  0
  194.8100  169.3870  142.8120 C   0  0  0  0  0  3  0  0  0  0  0  0
  1  2  1  0  0  0  0
  3  7  1  0  0  0  0
  4  9  1  0  0  0  0
  5  4  1  0  0  0  0
  7  6  2  0  0  0  0
  7 12  1  0  0  0  0
  8  3  2  0  0  0  0
  8 11  1  0  0  0  0
  9  2  1  0  0  0  0
 10 15  1  1  0  0  0
 10  1  1  0  0  0  0
 11  5  2  0  0  0  0
 11 12  1  0  0  0  0
 12 10  1  0  0  0  0
 13 14  2  0  0  0  0
 13  5  1  0  0  0  0
 15 17  1  0  0  0  0
 17 16  1  1  0  0  0
 18 17  1  0  0  0  0
 20 21  1  0  0  0  0
 20 22  1  1  0  0  0
 20 19  1  0  0  0  0
 21 18  1  1  0  0  0
 21 19  1  0  0  0  0
 24 23  1  6  0  0  0
 24 22  1  0  0  0  0
 25 26  1  6  0  0  0
 25 24  1  0  0  0  0
 27 29  1  0  0  0  0
 28 27  1  0  0  0  0
 29 25  1  1  0  0  0
 31 34  1  6  0  0  0
 31 36  1  0  0  0  0
 31 38  1  0  0  0  0
 32 35  1  6  0  0  0
 32 33  1  0  0  0  0
 32 36  1  0  0  0  0
 35 34  1  0  0  0  0
 36 39  1  1  0  0  0
 37 33  1  6  0  0  0
 37 28  1  0  0  0  0
 38 37  1  0  0  0  0
 38 30  1  1  0  0  0
 39 29  1  0  0  0  0
 40  3  1  0  0  0  0
 41 40  1  0  0  0  0
 42 41  1  0  0  0  0
 42 43  1  0  0  0  0
 44 43  1  0  0  0  0
 44 52  1  0  0  0  0
 45 44  2  0  0  0  0
 46 53  1  0  0  0  0
 47 51  1  0  0  0  0
 48 52  1  0  0  0  0
 48 49  2  0  0  0  0
 49 54  1  0  0  0  0
 49 50  1  0  0  0  0
 50 53  2  0  0  0  0
 50 51  1  0  0  0  0
 52 46  2  0  0  0  0
 54 47  2  0  0  0  0
M  END
>  <MODEL>
6

>  <REMARK>
 VINA RESULT:      -6.8      1.707      5.975
  Name = 
  15 active torsions:
  status: ('A' for Active; 'I' for Inactive)
    1  A    between atoms: C_1  and  C_23
    2  A    between atoms: C_2  and  C_22
    3  A    between atoms: C_2  and  C_46
    4  A    between atoms: C_5  and  C_20
    5  A    between atoms: C_5  and  C_24
    6  A    between atoms: C_11  and  C_33
    7  A    between atoms: C_11  and  N_42
    8  A    between atoms: C_13  and  C_14
    9  A    between atoms: C_13  and  C_46
   10  A    between atoms: C_15  and  O_51
   11  A    between atoms: C_17  and  N_42
   12  A    between atoms: C_17  and  C_45
   13  A    between atoms: C_24  and  C_32
   14  A    between atoms: C_32  and  C_43
   15  A    between atoms: C_33  and  O_51
                            x       y       z     vdW  Elec       q    Type
                         _______ _______ _______ _____ _____    ______ ____

>  <TORSDO>
F 15

$$$$
=
 OpenBabel11042416323D

 54 61  0  0  1  0  0  0  0  0999 V2000
  187.2610  177.9190  140.0930 C   0  0  0  0  0  2  0  0  0  0  0  0
  186.2670  177.4780  139.0160 C   0  0  0  0  0  2  0  0  0  0  0  0
  185.7620  178.1740  144.7020 C   0  0  0  0  0  0  0  0  0  0  0  0
  184.4750  178.4840  140.1820 C   0  0  0  0  0  2  0  0  0  0  0  0
  184.0700  178.2370  141.6060 C   0  0  0  0  0  0  0  0  0  0  0  0
  188.0900  178.1760  144.0860 O   0  0  0  0  0  0  0  0  0  0  0  0
  186.8760  178.0870  143.7690 C   0  0  0  0  0  0  0  0  0  0  0  0
  184.6270  178.1500  144.0240 C   0  0  0  0  0  3  0  0  0  0  0  0
  184.9280  177.2510  139.5580 N   0  0  0  0  0  2  0  0  0  0  0  0
  187.0370  177.1360  141.3780 C   0  0  2  0  0  3  0  0  0  0  0  0
  184.9760  178.0650  142.5950 C   0  0  0  0  0  0  0  0  0  0  0  0
  186.4050  177.9560  142.4260 N   0  0  0  0  0  0  0  0  0  0  0  0
  182.6350  178.3070  141.9380 C   0  0  0  0  0  3  0  0  0  0  0  0
  181.7250  178.2680  141.0180 N   0  0  0  0  0  2  0  0  0  0  0  0
  188.2240  176.2630  141.8150 C   0  0  0  0  0  2  0  0  0  0  0  0
  187.5730  173.9760  142.1310 O   0  0  0  0  0  1  0  0  0  0  0  0
  188.2210  174.8420  141.2500 C   0  0  2  0  0  3  0  0  0  0  0  0
  189.6500  174.3580  141.0640 C   0  0  0  0  0  2  0  0  0  0  0  0
  191.1090  172.9050  139.7530 N   0  0  0  0  0  2  0  0  0  0  0  0
  190.4590  171.9680  140.6820 C   0  0  2  0  0  3  0  0  0  0  0  0
  189.7120  173.1320  140.1560 C   0  0  1  0  0  3  0  0  0  0  0  0
  191.0320  172.1360  142.0910 C   0  0  0  0  0  2  0  0  0  0  0  0
  191.2170  169.7590  142.1520 O   0  0  0  0  0  1  0  0  0  0  0  0
  191.8890  170.9380  142.4850 C   0  0  2  0  0  3  0  0  0  0  0  0
  192.1980  170.9610  143.9900 C   0  0  2  0  0  3  0  0  0  0  0  0
  191.3840  171.8900  144.6400 O   0  0  0  0  0  1  0  0  0  0  0  0
  194.3110  170.1730  145.1490 C   0  0  0  0  0  2  0  0  0  0  0  0
  195.6540  169.7590  144.5590 C   0  0  0  0  0  2  0  0  0  0  0  0
  193.6660  171.2700  144.3130 C   0  0  2  0  0  3  0  0  0  0  0  0
  195.8420  171.2010  142.1970 O   0  0  0  0  0  1  0  0  0  0  0  0
  195.9620  173.2350  143.5130 C   0  0  2  0  0  3  0  0  0  0  0  0
  196.2660  173.0820  145.8760 C   0  0  1  0  0  3  0  0  0  0  0  0
  196.7860  171.6310  145.8610 C   0  0  0  0  0  2  0  0  0  0  0  0
  197.1620  174.1120  143.8440 C   0  0  0  0  0  2  0  0  0  0  0  0
  197.3880  173.9730  145.3560 C   0  0  0  0  0  2  0  0  0  0  0  0
  195.2010  173.3040  144.8220 C   0  0  2  0  0  3  0  0  0  0  0  0
  196.6700  170.9050  144.4980 C   0  0  2  0  0  3  0  0  0  0  0  0
  196.5230  171.8240  143.2490 C   0  0  1  0  0  3  0  0  0  0  0  0
  193.8250  172.6350  144.9740 C   0  0  0  0  0  2  0  0  0  0  0  0
  185.8240  178.2790  146.0940 O   0  0  0  0  0  0  0  0  0  0  0  0
  185.6280  177.1670  146.9530 C   0  0  0  0  0  2  0  0  0  0  0  0
  186.9510  176.7530  147.5660 C   0  0  0  0  0  2  0  0  0  0  0  0
  187.8740  176.3360  146.5210 N   0  0  0  0  0  2  0  0  0  0  0  0
  189.0380  175.5260  146.7430 C   0  0  0  0  0  0  0  0  0  0  0  0
  188.9460  174.5480  147.6380 C   0  0  0  0  0  2  0  0  0  0  0  0
  190.4440  175.5470  144.6520 C   0  0  0  0  0  3  0  0  0  0  0  0
  194.6820  176.7870  145.3700 C   0  0  0  0  0  3  0  0  0  0  0  0
  191.4680  176.1930  146.7760 C   0  0  0  0  0  3  0  0  0  0  0  0
  192.6590  176.3830  146.0780 C   0  0  0  0  0  0  0  0  0  0  0  0
  192.7510  176.1700  144.7360 C   0  0  0  0  0  0  0  0  0  0  0  0
  193.9650  176.4140  144.3230 O   0  0  0  0  0  0  0  0  0  0  0  0
  190.3310  175.7730  146.0510 C   0  0  0  0  0  0  0  0  0  0  0  0
  191.6630  175.7480  143.9790 C   0  0  0  0  0  3  0  0  0  0  0  0
  193.8970  176.7860  146.5260 C   0  0  0  0  0  3  0  0  0  0  0  0
  1 10  1  0  0  0  0
  2  9  1  0  0  0  0
  2  1  1  0  0  0  0
  3 40  1  0  0  0  0
  4  5  1  0  0  0  0
  5 13  1  0  0  0  0
  5 11  2  0  0  0  0
  7  6  2  0  0  0  0
  7  3  1  0  0  0  0
  8  3  2  0  0  0  0
  9  4  1  0  0  0  0
 10 15  1  1  0  0  0
 10 12  1  0  0  0  0
 11  8  1  0  0  0  0
 12 11  1  0  0  0  0
 12  7  1  0  0  0  0
 14 13  2  0  0  0  0
 17 15  1  0  0  0  0
 17 16  1  1  0  0  0
 18 17  1  0  0  0  0
 19 21  1  0  0  0  0
 19 20  1  0  0  0  0
 20 22  1  1  0  0  0
 21 20  1  0  0  0  0
 21 18  1  1  0  0  0
 22 24  1  0  0  0  0
 24 23  1  1  0  0  0
 24 25  1  0  0  0  0
 25 26  1  1  0  0  0
 28 27  1  0  0  0  0
 29 25  1  1  0  0  0
 29 39  1  0  0  0  0
 29 27  1  0  0  0  0
 31 34  1  1  0  0  0
 31 36  1  0  0  0  0
 32 35  1  6  0  0  0
 33 32  1  0  0  0  0
 34 35  1  0  0  0  0
 36 39  1  6  0  0  0
 36 32  1  0  0  0  0
 37 28  1  1  0  0  0
 37 33  1  0  0  0  0
 38 30  1  6  0  0  0
 38 31  1  0  0  0  0
 38 37  1  0  0  0  0
 40 41  1  0  0  0  0
 41 42  1  0  0  0  0
 43 44  1  0  0  0  0
 43 42  1  0  0  0  0
 44 45  2  0  0  0  0
 46 52  1  0  0  0  0
 47 54  2  0  0  0  0
 49 54  1  0  0  0  0
 49 48  1  0  0  0  0
 50 49  2  0  0  0  0
 51 50  1  0  0  0  0
 51 47  1  0  0  0  0
 52 44  1  0  0  0  0
 52 48  2  0  0  0  0
 53 46  2  0  0  0  0
 53 50  1  0  0  0  0
M  END
>  <MODEL>
7

>  <REMARK>
 VINA RESULT:      -6.7      1.940      3.288
  Name = 
  15 active torsions:
  status: ('A' for Active; 'I' for Inactive)
    1  A    between atoms: C_1  and  C_23
    2  A    between atoms: C_2  and  C_22
    3  A    between atoms: C_2  and  C_46
    4  A    between atoms: C_5  and  C_20
    5  A    between atoms: C_5  and  C_24
    6  A    between atoms: C_11  and  C_33
    7  A    between atoms: C_11  and  N_42
    8  A    between atoms: C_13  and  C_14
    9  A    between atoms: C_13  and  C_46
   10  A    between atoms: C_15  and  O_51
   11  A    between atoms: C_17  and  N_42
   12  A    between atoms: C_17  and  C_45
   13  A    between atoms: C_24  and  C_32
   14  A    between atoms: C_32  and  C_43
   15  A    between atoms: C_33  and  O_51
                            x       y       z     vdW  Elec       q    Type
                         _______ _______ _______ _____ _____    ______ ____

>  <TORSDO>
F 15

$$$$
=
 OpenBabel11042416323D

 54 61  0  0  1  0  0  0  0  0999 V2000
  191.0350  170.7500  142.0230 C   0  0  0  0  0  2  0  0  0  0  0  0
  191.3100  169.2640  141.7820 C   0  0  0  0  0  2  0  0  0  0  0  0
  194.7020  173.9060  141.6350 C   0  0  0  0  0  0  0  0  0  0  0  0
  193.4930  169.4710  142.6620 C   0  0  0  0  0  2  0  0  0  0  0  0
  194.5600  170.4280  142.2180 C   0  0  0  0  0  0  0  0  0  0  0  0
  192.3920  174.5860  141.6520 O   0  0  0  0  0  0  0  0  0  0  0  0
  193.2640  173.6790  141.6520 C   0  0  0  0  0  0  0  0  0  0  0  0
  195.3240  172.7440  141.7510 C   0  0  0  0  0  3  0  0  0  0  0  0
  192.7240  168.9980  141.5220 N   0  0  0  0  0  2  0  0  0  0  0  0
  191.8490  171.6050  141.0640 C   0  0  2  0  0  3  0  0  0  0  0  0
  194.2850  171.7050  141.8700 C   0  0  0  0  0  0  0  0  0  0  0  0
  192.9700  172.2840  141.7390 N   0  0  0  0  0  0  0  0  0  0  0  0
  195.9630  169.9780  142.2850 C   0  0  0  0  0  3  0  0  0  0  0  0
  196.2660  168.7370  142.4940 N   0  0  0  0  0  2  0  0  0  0  0  0
  191.0150  172.4590  140.0960 C   0  0  0  0  0  2  0  0  0  0  0  0
  189.2690  171.9310  138.5390 O   0  0  0  0  0  1  0  0  0  0  0  0
  189.5740  171.9880  139.8990 C   0  0  2  0  0  3  0  0  0  0  0  0
  188.6170  172.9630  140.5670 C   0  0  0  0  0  2  0  0  0  0  0  0
  188.0210  175.3130  140.8550 N   0  0  0  0  0  2  0  0  0  0  0  0
  189.2440  175.1810  141.6620 C   0  0  2  0  0  3  0  0  0  0  0  0
  189.0930  174.4060  140.4110 C   0  0  1  0  0  3  0  0  0  0  0  0
  188.9470  174.4130  142.9510 C   0  0  0  0  0  2  0  0  0  0  0  0
  189.3010  174.4390  145.3100 O   0  0  0  0  0  1  0  0  0  0  0  0
  189.8240  174.9030  144.1000 C   0  0  2  0  0  3  0  0  0  0  0  0
  189.8970  176.4380  144.1120 C   0  0  2  0  0  3  0  0  0  0  0  0
  190.7750  176.8760  145.1050 O   0  0  0  0  0  1  0  0  0  0  0  0
  188.3470  178.3050  143.3770 C   0  0  0  0  0  2  0  0  0  0  0  0
  186.9940  178.2350  142.6780 C   0  0  0  0  0  2  0  0  0  0  0  0
  188.5370  177.1190  144.3130 C   0  0  2  0  0  3  0  0  0  0  0  0
  185.9280  175.8040  143.4860 O   0  0  0  0  0  1  0  0  0  0  0  0
  185.7930  176.6760  145.7450 C   0  0  2  0  0  3  0  0  0  0  0  0
  186.1590  179.0050  146.1220 C   0  0  1  0  0  3  0  0  0  0  0  0
  185.9270  179.4270  144.6580 C   0  0  0  0  0  2  0  0  0  0  0  0
  184.5860  177.1740  146.5270 C   0  0  0  0  0  2  0  0  0  0  0  0
  184.7970  178.6820  146.7260 C   0  0  0  0  0  2  0  0  0  0  0  0
  186.8480  177.6590  146.2130 C   0  0  2  0  0  3  0  0  0  0  0  0
  185.8070  178.2590  143.6480 C   0  0  2  0  0  3  0  0  0  0  0  0
  185.4480  176.8700  144.2550 C   0  0  1  0  0  3  0  0  0  0  0  0
  188.3130  177.5190  145.7670 C   0  0  0  0  0  2  0  0  0  0  0  0
  195.3700  175.1280  141.5280 O   0  0  0  0  0  0  0  0  0  0  0  0
  196.5860  175.3950  142.2100 C   0  0  0  0  0  2  0  0  0  0  0  0
  196.3720  176.5010  143.2250 C   0  0  0  0  0  2  0  0  0  0  0  0
  195.1100  176.2990  143.9210 N   0  0  0  0  0  2  0  0  0  0  0  0
  194.9850  175.6750  145.2070 C   0  0  0  0  0  0  0  0  0  0  0  0
  194.5150  176.4140  146.2070 C   0  0  0  0  0  2  0  0  0  0  0  0
  196.7710  173.9540  145.6490 C   0  0  0  0  0  3  0  0  0  0  0  0
  195.1820  169.7870  145.9960 C   0  0  0  0  0  3  0  0  0  0  0  0
  194.4440  173.2280  145.4760 C   0  0  0  0  0  3  0  0  0  0  0  0
  194.8930  171.9280  145.6930 C   0  0  0  0  0  0  0  0  0  0  0  0
  196.2110  171.6410  145.8800 C   0  0  0  0  0  0  0  0  0  0  0  0
  196.3730  170.3590  146.0590 O   0  0  0  0  0  0  0  0  0  0  0  0
  195.3990  174.2690  145.4610 C   0  0  0  0  0  0  0  0  0  0  0  0
  197.1910  172.6290  145.8650 C   0  0  0  0  0  3  0  0  0  0  0  0
  194.1910  170.7450  145.7620 C   0  0  0  0  0  3  0  0  0  0  0  0
  2  1  1  0  0  0  0
  3  7  1  0  0  0  0
  3  8  2  0  0  0  0
  5 13  1  0  0  0  0
  5  4  1  0  0  0  0
  7  6  2  0  0  0  0
  7 12  1  0  0  0  0
  8 11  1  0  0  0  0
  9  2  1  0  0  0  0
  9  4  1  0  0  0  0
 10 15  1  1  0  0  0
 10 12  1  0  0  0  0
 10  1  1  0  0  0  0
 11  5  2  0  0  0  0
 12 11  1  0  0  0  0
 13 14  2  0  0  0  0
 17 16  1  6  0  0  0
 17 15  1  0  0  0  0
 17 18  1  0  0  0  0
 19 20  1  0  0  0  0
 20 22  1  1  0  0  0
 21 18  1  1  0  0  0
 21 19  1  0  0  0  0
 21 20  1  0  0  0  0
 22 24  1  0  0  0  0
 24 25  1  0  0  0  0
 24 23  1  1  0  0  0
 25 26  1  1  0  0  0
 27 29  1  0  0  0  0
 28 27  1  0  0  0  0
 29 25  1  1  0  0  0
 29 39  1  0  0  0  0
 31 36  1  0  0  0  0
 31 34  1  1  0  0  0
 32 33  1  6  0  0  0
 32 36  1  0  0  0  0
 32 35  1  0  0  0  0
 34 35  1  0  0  0  0
 36 39  1  6  0  0  0
 37 28  1  1  0  0  0
 37 38  1  0  0  0  0
 37 33  1  0  0  0  0
 38 30  1  6  0  0  0
 38 31  1  0  0  0  0
 40  3  1  0  0  0  0
 40 41  1  0  0  0  0
 41 42  1  0  0  0  0
 42 43  1  0  0  0  0
 43 44  1  0  0  0  0
 44 52  1  0  0  0  0
 44 45  2  0  0  0  0
 46 53  1  0  0  0  0
 47 51  1  0  0  0  0
 48 49  2  0  0  0  0
 49 54  1  0  0  0  0
 49 50  1  0  0  0  0
 50 51  1  0  0  0  0
 52 48  1  0  0  0  0
 52 46  2  0  0  0  0
 53 50  2  0  0  0  0
 54 47  2  0  0  0  0
M  END
>  <MODEL>
8

>  <REMARK>
 VINA RESULT:      -6.7      2.240      8.403
  Name = 
  15 active torsions:
  status: ('A' for Active; 'I' for Inactive)
    1  A    between atoms: C_1  and  C_23
    2  A    between atoms: C_2  and  C_22
    3  A    between atoms: C_2  and  C_46
    4  A    between atoms: C_5  and  C_20
    5  A    between atoms: C_5  and  C_24
    6  A    between atoms: C_11  and  C_33
    7  A    between atoms: C_11  and  N_42
    8  A    between atoms: C_13  and  C_14
    9  A    between atoms: C_13  and  C_46
   10  A    between atoms: C_15  and  O_51
   11  A    between atoms: C_17  and  N_42
   12  A    between atoms: C_17  and  C_45
   13  A    between atoms: C_24  and  C_32
   14  A    between atoms: C_32  and  C_43
   15  A    between atoms: C_33  and  O_51
                            x       y       z     vdW  Elec       q    Type
                         _______ _______ _______ _____ _____    ______ ____

>  <TORSDO>
F 15

$$$$
=
 OpenBabel11042416323D

 54 61  0  0  1  0  0  0  0  0999 V2000
  196.5190  172.8450  145.8750 C   0  0  0  0  0  2  0  0  0  0  0  0
  197.5920  172.3260  144.9140 C   0  0  0  0  0  2  0  0  0  0  0  0
  193.5010  176.3300  144.3570 C   0  0  0  0  0  0  0  0  0  0  0  0
  197.7990  174.4560  143.9110 C   0  0  0  0  0  2  0  0  0  0  0  0
  196.7020  175.2800  143.3050 C   0  0  0  0  0  0  0  0  0  0  0  0
  193.0760  175.0000  146.3190 O   0  0  0  0  0  0  0  0  0  0  0  0
  193.7750  175.2610  145.3070 C   0  0  0  0  0  0  0  0  0  0  0  0
  194.4890  176.3930  143.4800 C   0  0  0  0  0  3  0  0  0  0  0  0
  197.5860  173.0430  143.6400 N   0  0  0  0  0  2  0  0  0  0  0  0
  195.2280  173.1390  145.1240 C   0  0  2  0  0  3  0  0  0  0  0  0
  195.4680  175.3570  143.8530 C   0  0  0  0  0  0  0  0  0  0  0  0
  194.9900  174.5850  144.9750 N   0  0  0  0  0  0  0  0  0  0  0  0
  197.0340  176.1220  142.1400 C   0  0  0  0  0  3  0  0  0  0  0  0
  196.9030  175.6840  140.9290 N   0  0  0  0  0  2  0  0  0  0  0  0
  194.0240  172.2880  145.5560 C   0  0  0  0  0  2  0  0  0  0  0  0
  194.4710  170.0300  144.8830 O   0  0  0  0  0  1  0  0  0  0  0  0
  193.6730  171.1400  144.6090 C   0  0  2  0  0  3  0  0  0  0  0  0
  193.9180  171.5660  143.1710 C   0  0  0  0  0  2  0  0  0  0  0  0
  194.2390  170.1330  141.2210 N   0  0  0  0  0  2  0  0  0  0  0  0
  195.3830  171.0550  141.1440 C   0  0  2  0  0  3  0  0  0  0  0  0
  194.8740  170.6100  142.4600 C   0  0  1  0  0  3  0  0  0  0  0  0
  194.9170  172.4400  140.6930 C   0  0  0  0  0  2  0  0  0  0  0  0
  195.5470  172.4280  138.3930 O   0  0  0  0  0  1  0  0  0  0  0  0
  194.4390  172.4180  139.2440 C   0  0  2  0  0  3  0  0  0  0  0  0
  193.5370  173.6260  138.9500 C   0  0  2  0  0  3  0  0  0  0  0  0
  194.0260  174.7670  139.5900 O   0  0  0  0  0  1  0  0  0  0  0  0
  191.1150  173.7070  138.2060 C   0  0  0  0  0  2  0  0  0  0  0  0
  190.1040  172.5770  138.0420 C   0  0  0  0  0  2  0  0  0  0  0  0
  192.0730  173.4160  139.3530 C   0  0  2  0  0  3  0  0  0  0  0  0
  190.9140  170.6580  139.8740 O   0  0  0  0  0  1  0  0  0  0  0  0
  190.3450  172.1980  141.6580 C   0  0  2  0  0  3  0  0  0  0  0  0
  189.1230  174.1830  141.1430 C   0  0  1  0  0  3  0  0  0  0  0  0
  188.6070  173.6850  139.7780 C   0  0  0  0  0  2  0  0  0  0  0  0
  189.1410  172.2080  142.5890 C   0  0  0  0  0  2  0  0  0  0  0  0
  188.3290  173.4590  142.2230 C   0  0  0  0  0  2  0  0  0  0  0  0
  190.5260  173.6850  141.4250 C   0  0  2  0  0  3  0  0  0  0  0  0
  189.2320  172.3570  139.2830 C   0  0  2  0  0  3  0  0  0  0  0  0
  189.8910  171.4670  140.3790 C   0  0  1  0  0  3  0  0  0  0  0  0
  191.7070  174.2190  140.5980 C   0  0  0  0  0  2  0  0  0  0  0  0
  192.3980  177.1870  144.3360 O   0  0  0  0  0  0  0  0  0  0  0  0
  191.2460  176.9270  143.5490 C   0  0  0  0  0  2  0  0  0  0  0  0
  190.3380  175.9540  144.2740 C   0  0  0  0  0  2  0  0  0  0  0  0
  190.0690  176.4350  145.6210 N   0  0  0  0  0  2  0  0  0  0  0  0
  188.8980  176.1060  146.3820 C   0  0  0  0  0  0  0  0  0  0  0  0
  188.9920  175.1090  147.2570 C   0  0  0  0  0  2  0  0  0  0  0  0
  186.5120  176.5330  147.0720 C   0  0  0  0  0  3  0  0  0  0  0  0
  184.3800  179.4270  144.4090 C   0  0  0  0  0  3  0  0  0  0  0  0
  187.4070  177.6960  145.1170 C   0  0  0  0  0  3  0  0  0  0  0  0
  186.1580  178.2960  144.9740 C   0  0  0  0  0  0  0  0  0  0  0  0
  185.1300  178.0370  145.8300 C   0  0  0  0  0  0  0  0  0  0  0  0
  184.0730  178.7180  145.4820 O   0  0  0  0  0  0  0  0  0  0  0  0
  187.5960  176.7990  146.1920 C   0  0  0  0  0  0  0  0  0  0  0  0
  185.2640  177.1560  146.8980 C   0  0  0  0  0  3  0  0  0  0  0  0
  185.7080  179.1970  144.0360 C   0  0  0  0  0  3  0  0  0  0  0  0
  2  1  1  0  0  0  0
  3  7  1  0  0  0  0
  5 11  2  0  0  0  0
  5  4  1  0  0  0  0
  7  6  2  0  0  0  0
  8 11  1  0  0  0  0
  8  3  2  0  0  0  0
  9  4  1  0  0  0  0
  9  2  1  0  0  0  0
 10 15  1  1  0  0  0
 10  1  1  0  0  0  0
 11 12  1  0  0  0  0
 12 10  1  0  0  0  0
 12  7  1  0  0  0  0
 13  5  1  0  0  0  0
 14 13  2  0  0  0  0
 17 16  1  1  0  0  0
 17 15  1  0  0  0  0
 18 17  1  0  0  0  0
 19 21  1  0  0  0  0
 20 22  1  1  0  0  0
 20 19  1  0  0  0  0
 20 21  1  0  0  0  0
 21 18  1  1  0  0  0
 24 23  1  6  0  0  0
 24 22  1  0  0  0  0
 25 24  1  0  0  0  0
 25 26  1  1  0  0  0
 27 29  1  0  0  0  0
 28 27  1  0  0  0  0
 29 25  1  6  0  0  0
 29 39  1  0  0  0  0
 31 34  1  1  0  0  0
 32 33  1  6  0  0  0
 32 36  1  0  0  0  0
 32 35  1  0  0  0  0
 35 34  1  0  0  0  0
 36 39  1  6  0  0  0
 36 31  1  0  0  0  0
 37 28  1  6  0  0  0
 37 33  1  0  0  0  0
 37 38  1  0  0  0  0
 38 30  1  6  0  0  0
 38 31  1  0  0  0  0
 40  3  1  0  0  0  0
 41 42  1  0  0  0  0
 41 40  1  0  0  0  0
 42 43  1  0  0  0  0
 43 44  1  0  0  0  0
 44 45  2  0  0  0  0
 47 51  1  0  0  0  0
 48 52  1  0  0  0  0
 49 48  2  0  0  0  0
 49 50  1  0  0  0  0
 50 53  2  0  0  0  0
 51 50  1  0  0  0  0
 52 44  1  0  0  0  0
 52 46  2  0  0  0  0
 53 46  1  0  0  0  0
 54 47  2  0  0  0  0
 54 49  1  0  0  0  0
M  END
>  <MODEL>
9

>  <REMARK>
 VINA RESULT:      -6.6      2.442      8.332
  Name = 
  15 active torsions:
  status: ('A' for Active; 'I' for Inactive)
    1  A    between atoms: C_1  and  C_23
    2  A    between atoms: C_2  and  C_22
    3  A    between atoms: C_2  and  C_46
    4  A    between atoms: C_5  and  C_20
    5  A    between atoms: C_5  and  C_24
    6  A    between atoms: C_11  and  C_33
    7  A    between atoms: C_11  and  N_42
    8  A    between atoms: C_13  and  C_14
    9  A    between atoms: C_13  and  C_46
   10  A    between atoms: C_15  and  O_51
   11  A    between atoms: C_17  and  N_42
   12  A    between atoms: C_17  and  C_45
   13  A    between atoms: C_24  and  C_32
   14  A    between atoms: C_32  and  C_43
   15  A    between atoms: C_33  and  O_51
                            x       y       z     vdW  Elec       q    Type
                         _______ _______ _______ _____ _____    ______ ____

>  <TORSDO>
F 15

$$$$
