=
 OpenBabel11042417463D

 48 54  0  0  1  0  0  0  0  0999 V2000
  185.2630  178.7370  142.6410 C   0  0  0  0  0  2  0  0  0  0  0  0
  186.2350  177.3550  145.0950 C   0  0  0  0  0  0  0  0  0  0  0  0
  185.0010  177.9340  147.5150 C   0  0  0  0  0  3  0  0  0  0  0  0
  187.0570  176.8330  143.9950 C   0  0  0  0  0  0  0  0  0  0  0  0
  185.0720  178.1400  145.0820 C   0  0  0  0  0  0  0  0  0  0  0  0
  184.4440  178.4060  146.3090 C   0  0  0  0  0  3  0  0  0  0  0  0
  184.5120  178.6700  143.8780 N   0  0  0  0  0  2  0  0  0  0  0  0
  186.5720  176.5700  142.7660 C   0  0  2  0  0  3  0  0  0  0  0  0
  185.5600  177.3940  142.1730 N   0  0  0  0  0  2  0  0  0  0  0  0
  188.2200  176.1830  144.6520 C   0  0  0  0  0  0  0  0  0  0  0  0
  186.7700  176.8880  146.2770 C   0  0  0  0  0  0  0  0  0  0  0  0
  188.0150  176.1780  145.9770 C   0  0  0  0  0  0  0  0  0  0  0  0
  186.1840  177.1790  147.5050 C   0  0  0  0  0  2  0  0  0  0  0  0
  190.0080  174.7390  143.5880 C   0  0  0  0  0  0  0  0  0  0  0  0
  190.3840  173.4490  143.1930 C   0  0  2  0  0  0  0  0  0  0  0  0
  190.8880  172.6140  144.1900 O   0  0  0  0  0  1  0  0  0  0  0  0
  192.1010  175.4590  142.3780 C   0  0  0  0  0  3  0  0  0  0  0  0
  189.5440  175.9440  144.0200 C   0  0  0  0  0  0  0  0  0  0  0  0
  190.4450  176.9830  143.6020 C   0  0  0  0  0  3  0  0  0  0  0  0
  191.2240  174.5050  142.8050 C   0  0  0  0  0  0  0  0  0  0  0  0
  192.4540  177.8570  142.4850 O   0  0  0  0  0  1  0  0  0  0  0  0
  191.6720  176.7590  142.8270 C   0  0  0  0  0  0  0  0  0  0  0  0
  189.6280  172.8340  142.1170 N   0  0  0  0  0  0  0  0  0  0  0  0
  190.2100  172.5720  141.0150 N   0  0  0  0  0  0  0  0  0  0  0  0
  189.4950  171.9860  139.9630 N   0  0  0  0  0  2  0  0  0  0  0  0
  189.6990  171.4120  137.6180 C   0  0  0  0  0  1  0  0  0  0  0  0
  189.5770  172.5400  138.6220 C   0  0  2  0  0  3  0  0  0  0  0  0
  190.7280  173.4230  138.5130 N   0  0  0  0  0  2  0  0  0  0  0  0
  191.7100  172.7420  137.6860 C   0  0  0  0  0  2  0  0  0  0  0  0
  192.9850  173.5610  137.6160 C   0  0  0  0  0  2  0  0  0  0  0  0
  193.1800  174.2690  138.9380 C   0  0  0  0  0  2  0  0  0  0  0  0
  194.2910  175.2050  138.8380 N   0  0  0  0  0  2  0  0  0  0  0  0
  196.2440  174.0720  139.9280 C   0  0  0  0  0  2  0  0  0  0  0  0
  194.9790  173.7230  140.7160 C   0  0  0  0  0  2  0  0  0  0  0  0
  195.3000  176.2510  140.9620 C   0  0  0  0  0  1  0  0  0  0  0  0
  195.1110  175.0650  140.0360 C   0  0  0  0  0  0  0  0  0  0  0  0
  187.0720  175.4110  142.0110 C   0  0  0  0  0  3  0  0  0  0  0  0
  187.7810  175.5400  140.8960 C   0  0  0  0  0  2  0  0  0  0  0  0
  188.8960  175.6230  146.9070 O   0  0  0  0  0  0  0  0  0  0  0  0
  190.0820  176.2760  147.3280 C   0  0  0  0  0  2  0  0  0  0  0  0
  191.2390  175.2960  147.2850 C   0  0  0  0  0  2  0  0  0  0  0  0
  192.2690  175.6980  146.2370 C   0  0  0  0  0  2  0  0  0  0  0  0
  193.6560  175.1240  146.5750 C   0  0  1  0  0  3  0  0  0  0  0  0
  194.9210  175.9200  144.7730 C   0  0  0  0  0  2  0  0  0  0  0  0
  194.8510  174.4550  144.3880 C   0  0  0  0  0  2  0  0  0  0  0  0
  194.5040  177.3990  146.5770 C   0  0  0  0  0  1  0  0  0  0  0  0
  193.8960  173.5730  145.6620 S   0  0  0  0  0  0  0  0  0  0  0  0
  194.7670  176.0120  146.2150 N   0  0  0  0  0  0  0  0  0  0  0  0
  1  7  1  0  0  0  0
  2 11  1  0  0  0  0
  4 10  2  0  0  0  0
  4  2  1  0  0  0  0
  5  2  2  0  0  0  0
  5  6  1  0  0  0  0
  6  3  2  0  0  0  0
  7  5  1  0  0  0  0
  8 37  1  1  0  0  0
  8  4  1  0  0  0  0
  9  1  1  0  0  0  0
  9  8  1  0  0  0  0
 10 12  1  0  0  0  0
 11 13  1  0  0  0  0
 12 11  2  0  0  0  0
 12 39  1  0  0  0  0
 13  3  1  0  0  0  0
 14 18  1  0  0  0  0
 15 14  1  0  0  0  0
 15 16  1  1  0  0  0
 17 20  1  0  0  0  0
 17 22  2  0  0  0  0
 18 10  1  0  0  0  0
 19 18  2  0  0  0  0
 20 15  1  0  0  0  0
 20 14  2  0  0  0  0
 21 22  1  0  0  0  0
 22 19  1  0  0  0  0
 23 15  1  0  0  0  0
 24 23  2  0  0  0  0
 25 24  1  0  0  0  0
 27 26  1  6  0  0  0
 27 25  1  0  0  0  0
 28 27  1  0  0  0  0
 29 28  1  0  0  0  0
 30 29  1  0  0  0  0
 30 31  1  0  0  0  0
 32 31  1  0  0  0  0
 32 36  1  0  0  0  0
 33 36  1  0  0  0  0
 33 34  1  0  0  0  0
 36 34  1  0  0  0  0
 36 35  1  0  0  0  0
 38 37  2  0  0  0  0
 39 40  1  0  0  0  0
 41 40  1  0  0  0  0
 42 41  1  0  0  0  0
 43 42  1  6  0  0  0
 44 48  1  0  0  0  0
 45 44  1  0  0  0  0
 45 47  1  0  0  0  0
 47 43  1  0  0  0  0
 48 43  1  0  0  0  0
 48 46  1  0  0  0  0
M  END
>  <MODEL>
1

>  <REMARK>
 VINA RESULT:      -6.6      0.000      0.000
  Name = 
  16 active torsions:
  status: ('A' for Active; 'I' for Inactive)
    1  A    between atoms: C_6  and  C_13
    2  A    between atoms: C_6  and  C_16
    3  A    between atoms: N_7  and  C_41
    4  A    between atoms: N_7  and  N_44
    5  A    between atoms: C_9  and  C_33
    6  A    between atoms: C_9  and  C_35
    7  A    between atoms: C_12  and  N_28
    8  A    between atoms: C_16  and  C_36
    9  A    between atoms: C_20  and  C_34
   10  A    between atoms: N_22  and  C_24
   11  A    between atoms: N_22  and  C_35
   12  A    between atoms: C_25  and  C_27
   13  A    between atoms: C_33  and  N_40
   14  A    between atoms: C_36  and  O_42
   15  A    between atoms: C_39  and  O_42
   16  A    between atoms: N_40  and  C_41
                            x       y       z     vdW  Elec       q    Type
                         _______ _______ _______ _____ _____    ______ ____

>  <TORSDO>
F 16

$$$$
=
 OpenBabel11042417463D

 48 54  0  0  1  0  0  0  0  0999 V2000
  189.3650  174.6610  146.7690 C   0  0  0  0  0  2  0  0  0  0  0  0
  191.8290  175.2460  145.1990 C   0  0  0  0  0  0  0  0  0  0  0  0
  193.7120  176.9740  146.2890 C   0  0  0  0  0  3  0  0  0  0  0  0
  191.0550  174.3010  144.3840 C   0  0  0  0  0  0  0  0  0  0  0  0
  191.6680  175.6590  146.5310 C   0  0  0  0  0  0  0  0  0  0  0  0
  192.6380  176.5140  147.0780 C   0  0  0  0  0  3  0  0  0  0  0  0
  190.5640  175.2440  147.3390 N   0  0  0  0  0  2  0  0  0  0  0  0
  190.3620  173.2690  144.9000 C   0  0  2  0  0  3  0  0  0  0  0  0
  189.6850  173.3810  146.1580 N   0  0  0  0  0  2  0  0  0  0  0  0
  191.6470  174.3860  143.0230 C   0  0  0  0  0  0  0  0  0  0  0  0
  192.8860  175.6930  144.4350 C   0  0  1  0  0  3  0  0  0  0  0  0
  192.7400  175.1600  143.0800 C   0  0  0  0  0  0  0  0  0  0  0  0
  193.8340  176.5740  144.9490 C   0  0  0  0  0  3  0  0  0  0  0  0
  189.6060  174.0530  141.5600 C   0  0  0  0  0  0  0  0  0  0  0  0
  188.2090  174.1060  141.4770 C   0  0  2  0  0  0  0  0  0  0  0  0
  187.5140  173.0070  141.9820 O   0  0  0  0  0  1  0  0  0  0  0  0
  189.5000  173.6630  139.0710 C   0  0  0  0  0  3  0  0  0  0  0  0
  190.9530  174.0280  141.7580 C   0  0  0  0  0  0  0  0  0  0  0  0
  191.6180  173.7880  140.5060 C   0  0  0  0  0  3  0  0  0  0  0  0
  188.9110  173.8810  140.2820 C   0  0  0  0  0  0  0  0  0  0  0  0
  191.6970  173.3800  138.0820 O   0  0  0  0  0  1  0  0  0  0  0  0
  190.9310  173.6030  139.2210 C   0  0  0  0  0  0  0  0  0  0  0  0
  187.5820  175.4100  141.5890 N   0  0  0  0  0  0  0  0  0  0  0  0
  188.1210  176.4130  141.0180 N   0  0  0  0  0  0  0  0  0  0  0  0
  187.5340  177.6810  141.1230 N   0  0  0  0  0  2  0  0  0  0  0  0
  185.2670  177.9890  140.3240 C   0  0  0  0  0  1  0  0  0  0  0  0
  186.1500  177.8170  141.5430 C   0  0  2  0  0  3  0  0  0  0  0  0
  186.0040  178.9670  142.4220 N   0  0  0  0  0  2  0  0  0  0  0  0
  184.8090  178.7440  143.2200 C   0  0  0  0  0  2  0  0  0  0  0  0
  184.7300  179.7700  144.3340 C   0  0  0  0  0  2  0  0  0  0  0  0
  184.4660  179.0510  145.6380 C   0  0  0  0  0  2  0  0  0  0  0  0
  185.6700  179.0590  146.4590 N   0  0  0  0  0  2  0  0  0  0  0  0
  185.4040  176.5690  146.3300 C   0  0  0  0  0  2  0  0  0  0  0  0
  186.2620  176.9030  147.5520 C   0  0  0  0  0  2  0  0  0  0  0  0
  187.6060  177.6560  145.5080 C   0  0  0  0  0  1  0  0  0  0  0  0
  186.3260  177.7650  146.3140 C   0  0  0  0  0  0  0  0  0  0  0  0
  190.3000  171.9900  144.1770 C   0  0  0  0  0  3  0  0  0  0  0  0
  191.3610  171.2060  144.0250 C   0  0  0  0  0  2  0  0  0  0  0  0
  193.5630  175.4400  141.9870 O   0  0  0  0  0  0  0  0  0  0  0  0
  194.9200  175.0350  141.9210 C   0  0  0  0  0  2  0  0  0  0  0  0
  194.9880  173.5260  141.7800 C   0  0  0  0  0  2  0  0  0  0  0  0
  195.3050  172.8570  143.1120 C   0  0  0  0  0  2  0  0  0  0  0  0
  196.7000  173.2660  143.6170 C   0  0  1  0  0  3  0  0  0  0  0  0
  197.1980  171.4780  145.0450 C   0  0  0  0  0  2  0  0  0  0  0  0
  196.9470  172.5530  146.0850 C   0  0  0  0  0  2  0  0  0  0  0  0
  197.5450  171.1720  142.7210 C   0  0  0  0  0  1  0  0  0  0  0  0
  196.5300  174.0990  145.2210 S   0  0  0  0  0  0  0  0  0  0  0  0
  197.6110  172.1320  143.8160 N   0  0  0  0  0  0  0  0  0  0  0  0
  1  7  1  0  0  0  0
  2  5  1  0  0  0  0
  3  6  1  0  0  0  0
  4  8  1  0  0  0  0
  4  2  2  0  0  0  0
  5  6  2  0  0  0  0
  5  7  1  0  0  0  0
  8 37  1  1  0  0  0
  8  9  1  0  0  0  0
  9  1  1  0  0  0  0
 10 12  2  0  0  0  0
 10  4  1  0  0  0  0
 11 13  1  6  0  0  0
 11  2  1  0  0  0  0
 12 11  1  0  0  0  0
 13  3  2  0  0  0  0
 14 18  1  0  0  0  0
 15 14  1  0  0  0  0
 15 23  1  0  0  0  0
 15 16  1  1  0  0  0
 17 22  2  0  0  0  0
 17 20  1  0  0  0  0
 18 10  1  0  0  0  0
 19 18  2  0  0  0  0
 20 15  1  0  0  0  0
 20 14  2  0  0  0  0
 21 22  1  0  0  0  0
 22 19  1  0  0  0  0
 24 25  1  0  0  0  0
 24 23  2  0  0  0  0
 25 27  1  0  0  0  0
 27 26  1  6  0  0  0
 27 28  1  0  0  0  0
 28 29  1  0  0  0  0
 29 30  1  0  0  0  0
 30 31  1  0  0  0  0
 31 32  1  0  0  0  0
 33 34  1  0  0  0  0
 35 36  1  0  0  0  0
 36 33  1  0  0  0  0
 36 32  1  0  0  0  0
 36 34  1  0  0  0  0
 38 37  2  0  0  0  0
 39 12  1  0  0  0  0
 40 39  1  0  0  0  0
 41 40  1  0  0  0  0
 41 42  1  0  0  0  0
 43 42  1  1  0  0  0
 43 48  1  0  0  0  0
 43 47  1  0  0  0  0
 44 45  1  0  0  0  0
 46 48  1  0  0  0  0
 47 45  1  0  0  0  0
 48 44  1  0  0  0  0
M  END
>  <MODEL>
2

>  <REMARK>
 VINA RESULT:      -6.4      2.508      7.186
  Name = 
  16 active torsions:
  status: ('A' for Active; 'I' for Inactive)
    1  A    between atoms: C_6  and  C_13
    2  A    between atoms: C_6  and  C_16
    3  A    between atoms: N_7  and  C_41
    4  A    between atoms: N_7  and  N_44
    5  A    between atoms: C_9  and  C_33
    6  A    between atoms: C_9  and  C_35
    7  A    between atoms: C_12  and  N_28
    8  A    between atoms: C_16  and  C_36
    9  A    between atoms: C_20  and  C_34
   10  A    between atoms: N_22  and  C_24
   11  A    between atoms: N_22  and  C_35
   12  A    between atoms: C_25  and  C_27
   13  A    between atoms: C_33  and  N_40
   14  A    between atoms: C_36  and  O_42
   15  A    between atoms: C_39  and  O_42
   16  A    between atoms: N_40  and  C_41
                            x       y       z     vdW  Elec       q    Type
                         _______ _______ _______ _____ _____    ______ ____

>  <TORSDO>
F 16

$$$$
=
 OpenBabel11042417463D

 48 54  0  0  1  0  0  0  0  0999 V2000
  187.1170  177.8780  145.6460 C   0  0  0  0  0  2  0  0  0  0  0  0
  187.1850  177.2670  142.7300 C   0  0  0  0  0  0  0  0  0  0  0  0
  185.0360  178.0660  141.1610 C   0  0  0  0  0  3  0  0  0  0  0  0
  188.4470  176.7470  143.2730 C   0  0  2  0  0  3  0  0  0  0  0  0
  186.2070  178.0940  143.3050 C   0  0  0  0  0  0  0  0  0  0  0  0
  185.1380  178.5100  142.4960 C   0  0  0  0  0  3  0  0  0  0  0  0
  186.2630  178.5220  144.6680 N   0  0  0  0  0  2  0  0  0  0  0  0
  189.1580  177.3740  144.2290 C   0  0  2  0  0  3  0  0  0  0  0  0
  188.5110  178.0860  145.2930 N   0  0  0  0  0  2  0  0  0  0  0  0
  188.9720  175.8310  142.2280 C   0  0  0  0  0  0  0  0  0  0  0  0
  187.0840  176.8430  141.4220 C   0  0  0  0  0  0  0  0  0  0  0  0
  188.1970  175.9350  141.1390 C   0  0  0  0  0  0  0  0  0  0  0  0
  186.0090  177.2120  140.6190 C   0  0  0  0  0  3  0  0  0  0  0  0
  191.2040  174.6540  142.0050 C   0  0  0  0  0  0  0  0  0  0  0  0
  192.4990  174.6990  141.4740 C   0  0  2  0  0  0  0  0  0  0  0  0
  192.6370  174.3260  140.1370 O   0  0  0  0  0  1  0  0  0  0  0  0
  192.0350  172.6090  143.2250 C   0  0  0  0  0  3  0  0  0  0  0  0
  189.9220  174.7120  142.4610 C   0  0  0  0  0  0  0  0  0  0  0  0
  189.6850  173.6180  143.3640 C   0  0  0  0  0  3  0  0  0  0  0  0
  192.2130  173.6550  142.3680 C   0  0  0  0  0  0  0  0  0  0  0  0
  190.3210  171.5990  144.6140 O   0  0  0  0  0  1  0  0  0  0  0  0
  190.6850  172.6050  143.7250 C   0  0  0  0  0  0  0  0  0  0  0  0
  193.3940  175.7220  141.9840 N   0  0  0  0  0  0  0  0  0  0  0  0
  194.6510  175.5140  141.9710 N   0  0  0  0  0  0  0  0  0  0  0  0
  195.5290  176.4860  142.4670 N   0  0  0  0  0  2  0  0  0  0  0  0
  196.8520  174.9790  143.8280 C   0  0  0  0  0  1  0  0  0  0  0  0
  196.1480  176.3190  143.7710 C   0  0  2  0  0  3  0  0  0  0  0  0
  195.1390  176.3890  144.8170 N   0  0  0  0  0  2  0  0  0  0  0  0
  195.3090  175.2120  145.6530 C   0  0  0  0  0  2  0  0  0  0  0  0
  194.0180  174.4160  145.6960 C   0  0  0  0  0  2  0  0  0  0  0  0
  192.9930  175.1970  146.4880 C   0  0  0  0  0  2  0  0  0  0  0  0
  191.6510  174.7980  146.0870 N   0  0  0  0  0  2  0  0  0  0  0  0
  190.9840  176.6370  147.6560 C   0  0  0  0  0  2  0  0  0  0  0  0
  191.3340  175.3970  148.4820 C   0  0  0  0  0  2  0  0  0  0  0  0
  189.2800  174.7710  147.0880 C   0  0  0  0  0  1  0  0  0  0  0  0
  190.7180  175.2540  147.1110 C   0  0  0  0  0  0  0  0  0  0  0  0
  190.6280  177.3480  144.1880 C   0  0  0  0  0  3  0  0  0  0  0  0
  191.3410  178.3140  143.6200 C   0  0  0  0  0  2  0  0  0  0  0  0
  188.4110  175.2330  139.9510 O   0  0  0  0  0  0  0  0  0  0  0  0
  187.9320  173.9160  139.7390 C   0  0  0  0  0  2  0  0  0  0  0  0
  188.8740  173.1820  138.8030 C   0  0  0  0  0  2  0  0  0  0  0  0
  189.8160  172.2630  139.5710 C   0  0  0  0  0  2  0  0  0  0  0  0
  189.9870  170.9160  138.8470 C   0  0  1  0  0  3  0  0  0  0  0  0
  192.2690  170.5160  139.1810 C   0  0  0  0  0  2  0  0  0  0  0  0
  192.2990  170.8580  137.7040 C   0  0  0  0  0  2  0  0  0  0  0  0
  190.7790  169.9850  140.9450 C   0  0  0  0  0  1  0  0  0  0  0  0
  190.5990  171.2190  137.1650 S   0  0  0  0  0  0  0  0  0  0  0  0
  190.9430  170.0130  139.4980 N   0  0  0  0  0  0  0  0  0  0  0  0
  2  4  1  0  0  0  0
  2  5  1  0  0  0  0
  3  6  1  0  0  0  0
  4 10  1  6  0  0  0
  4  8  1  0  0  0  0
  5  7  1  0  0  0  0
  6  5  2  0  0  0  0
  7  1  1  0  0  0  0
  8 37  1  6  0  0  0
  8  9  1  0  0  0  0
  9  1  1  0  0  0  0
 10 18  1  0  0  0  0
 11  2  2  0  0  0  0
 12 11  1  0  0  0  0
 12 10  2  0  0  0  0
 13  3  2  0  0  0  0
 13 11  1  0  0  0  0
 14 20  2  0  0  0  0
 14 18  1  0  0  0  0
 15 16  1  6  0  0  0
 15 23  1  0  0  0  0
 15 14  1  0  0  0  0
 15 20  1  0  0  0  0
 17 22  2  0  0  0  0
 18 19  2  0  0  0  0
 19 22  1  0  0  0  0
 20 17  1  0  0  0  0
 22 21  1  0  0  0  0
 24 23  2  0  0  0  0
 24 25  1  0  0  0  0
 25 27  1  0  0  0  0
 27 26  1  6  0  0  0
 27 28  1  0  0  0  0
 28 29  1  0  0  0  0
 29 30  1  0  0  0  0
 30 31  1  0  0  0  0
 32 31  1  0  0  0  0
 32 36  1  0  0  0  0
 33 34  1  0  0  0  0
 35 36  1  0  0  0  0
 36 33  1  0  0  0  0
 36 34  1  0  0  0  0
 38 37  2  0  0  0  0
 39 12  1  0  0  0  0
 40 39  1  0  0  0  0
 41 42  1  0  0  0  0
 41 40  1  0  0  0  0
 43 48  1  0  0  0  0
 43 42  1  1  0  0  0
 44 48  1  0  0  0  0
 45 44  1  0  0  0  0
 47 45  1  0  0  0  0
 47 43  1  0  0  0  0
 48 46  1  0  0  0  0
M  END
>  <MODEL>
3

>  <REMARK>
 VINA RESULT:      -6.4      2.605      6.636
  Name = 
  16 active torsions:
  status: ('A' for Active; 'I' for Inactive)
    1  A    between atoms: C_6  and  C_13
    2  A    between atoms: C_6  and  C_16
    3  A    between atoms: N_7  and  C_41
    4  A    between atoms: N_7  and  N_44
    5  A    between atoms: C_9  and  C_33
    6  A    between atoms: C_9  and  C_35
    7  A    between atoms: C_12  and  N_28
    8  A    between atoms: C_16  and  C_36
    9  A    between atoms: C_20  and  C_34
   10  A    between atoms: N_22  and  C_24
   11  A    between atoms: N_22  and  C_35
   12  A    between atoms: C_25  and  C_27
   13  A    between atoms: C_33  and  N_40
   14  A    between atoms: C_36  and  O_42
   15  A    between atoms: C_39  and  O_42
   16  A    between atoms: N_40  and  C_41
                            x       y       z     vdW  Elec       q    Type
                         _______ _______ _______ _____ _____    ______ ____

>  <TORSDO>
F 16

$$$$
=
 OpenBabel11042417463D

 48 54  0  0  1  0  0  0  0  0999 V2000
  189.6910  171.1380  138.5890 C   0  0  0  0  0  2  0  0  0  0  0  0
  191.9240  173.0450  139.0920 C   0  0  0  0  0  0  0  0  0  0  0  0
  194.1400  172.9560  137.4190 C   0  0  0  0  0  3  0  0  0  0  0  0
  190.9090  173.3470  140.1090 C   0  0  0  0  0  0  0  0  0  0  0  0
  191.8660  172.2360  137.9450 C   0  0  0  0  0  0  0  0  0  0  0  0
  192.9840  172.2180  137.0960 C   0  0  0  0  0  3  0  0  0  0  0  0
  190.7230  171.4430  137.6190 N   0  0  0  0  0  2  0  0  0  0  0  0
  189.5850  173.3250  139.8660 C   0  0  2  0  0  3  0  0  0  0  0  0
  189.0070  172.3600  138.9780 N   0  0  0  0  0  2  0  0  0  0  0  0
  191.6150  174.1620  141.1320 C   0  0  0  0  0  0  0  0  0  0  0  0
  193.0560  173.7710  139.3980 C   0  0  0  0  0  0  0  0  0  0  0  0
  192.8460  174.4430  140.6810 C   0  0  0  0  0  0  0  0  0  0  0  0
  194.1870  173.7310  138.5880 C   0  0  0  0  0  2  0  0  0  0  0  0
  191.0830  175.4820  143.2280 C   0  0  0  0  0  0  0  0  0  0  0  0
  191.0070  176.7480  143.8210 C   0  0  2  0  0  0  0  0  0  0  0  0
  192.2050  177.2940  144.2800 O   0  0  0  0  0  1  0  0  0  0  0  0
  190.0020  174.6820  145.3610 C   0  0  0  0  0  3  0  0  0  0  0  0
  191.2030  174.3050  142.5530 C   0  0  0  0  0  0  0  0  0  0  0  0
  190.6880  173.2340  143.3630 C   0  0  0  0  0  3  0  0  0  0  0  0
  190.5110  175.6650  144.5640 C   0  0  0  0  0  0  0  0  0  0  0  0
  189.6570  172.2810  145.3810 O   0  0  0  0  0  1  0  0  0  0  0  0
  190.1230  173.4050  144.7080 C   0  0  0  0  0  0  0  0  0  0  0  0
  189.9990  177.6630  143.3140 N   0  0  0  0  0  0  0  0  0  0  0  0
  189.2210  177.2800  142.3820 N   0  0  0  0  0  0  0  0  0  0  0  0
  188.2480  178.1520  141.8760 N   0  0  0  0  0  2  0  0  0  0  0  0
  186.6820  177.3900  140.1900 C   0  0  0  0  0  1  0  0  0  0  0  0
  186.8880  177.6890  141.6610 C   0  0  2  0  0  3  0  0  0  0  0  0
  185.9390  178.7030  142.0950 N   0  0  0  0  0  2  0  0  0  0  0  0
  185.1490  178.1180  143.1650 C   0  0  0  0  0  2  0  0  0  0  0  0
  184.5170  179.2150  144.0010 C   0  0  0  0  0  2  0  0  0  0  0  0
  184.3620  178.7140  145.4200 C   0  0  0  0  0  2  0  0  0  0  0  0
  185.0690  177.4500  145.5770 N   0  0  0  0  0  2  0  0  0  0  0  0
  187.5390  177.7060  145.9280 C   0  0  0  0  0  2  0  0  0  0  0  0
  187.0680  176.4610  146.6840 C   0  0  0  0  0  2  0  0  0  0  0  0
  185.9070  178.4540  147.7940 C   0  0  0  0  0  1  0  0  0  0  0  0
  186.1550  177.6540  146.5300 C   0  0  0  0  0  0  0  0  0  0  0  0
  188.7030  174.3120  140.5080 C   0  0  0  0  0  3  0  0  0  0  0  0
  187.8270  173.9790  141.4480 C   0  0  0  0  0  2  0  0  0  0  0  0
  193.7810  175.2130  141.3760 O   0  0  0  0  0  0  0  0  0  0  0  0
  194.9070  174.6520  142.0290 C   0  0  0  0  0  2  0  0  0  0  0  0
  195.0390  175.2570  143.4140 C   0  0  0  0  0  2  0  0  0  0  0  0
  196.1980  174.6360  144.1830 C   0  0  0  0  0  2  0  0  0  0  0  0
  195.7420  174.1460  145.5690 C   0  0  1  0  0  3  0  0  0  0  0  0
  195.0290  171.9740  145.0620 C   0  0  0  0  0  2  0  0  0  0  0  0
  193.6770  172.6230  145.2910 C   0  0  0  0  0  2  0  0  0  0  0  0
  197.3510  172.3370  145.3640 C   0  0  0  0  0  1  0  0  0  0  0  0
  193.9470  174.3710  145.7180 S   0  0  0  0  0  0  0  0  0  0  0  0
  196.0190  172.7250  145.8130 N   0  0  0  0  0  0  0  0  0  0  0  0
  1  9  1  0  0  0  0
  2 11  1  0  0  0  0
  2  4  1  0  0  0  0
  3 13  1  0  0  0  0
  4 10  2  0  0  0  0
  5  2  2  0  0  0  0
  6  3  2  0  0  0  0
  6  5  1  0  0  0  0
  7  5  1  0  0  0  0
  7  1  1  0  0  0  0
  8  4  1  0  0  0  0
  8 37  1  6  0  0  0
  9  8  1  0  0  0  0
 10 18  1  0  0  0  0
 11 12  2  0  0  0  0
 12 10  1  0  0  0  0
 12 39  1  0  0  0  0
 13 11  1  0  0  0  0
 14 15  1  0  0  0  0
 14 20  1  0  0  0  0
 15 16  1  1  0  0  0
 15 20  1  0  0  0  0
 18 14  2  0  0  0  0
 18 19  1  0  0  0  0
 19 22  2  0  0  0  0
 20 17  2  0  0  0  0
 22 17  1  0  0  0  0
 22 21  1  0  0  0  0
 23 15  1  0  0  0  0
 24 23  2  0  0  0  0
 25 24  1  0  0  0  0
 27 26  1  6  0  0  0
 27 25  1  0  0  0  0
 27 28  1  0  0  0  0
 28 29  1  0  0  0  0
 29 30  1  0  0  0  0
 30 31  1  0  0  0  0
 31 32  1  0  0  0  0
 32 36  1  0  0  0  0
 33 36  1  0  0  0  0
 33 34  1  0  0  0  0
 36 34  1  0  0  0  0
 36 35  1  0  0  0  0
 37 38  2  0  0  0  0
 39 40  1  0  0  0  0
 40 41  1  0  0  0  0
 41 42  1  0  0  0  0
 43 42  1  6  0  0  0
 43 47  1  0  0  0  0
 43 48  1  0  0  0  0
 44 45  1  0  0  0  0
 44 48  1  0  0  0  0
 45 47  1  0  0  0  0
 46 48  1  0  0  0  0
M  END
>  <MODEL>
4

>  <REMARK>
 VINA RESULT:      -6.4      1.975      7.852
  Name = 
  16 active torsions:
  status: ('A' for Active; 'I' for Inactive)
    1  A    between atoms: C_6  and  C_13
    2  A    between atoms: C_6  and  C_16
    3  A    between atoms: N_7  and  C_41
    4  A    between atoms: N_7  and  N_44
    5  A    between atoms: C_9  and  C_33
    6  A    between atoms: C_9  and  C_35
    7  A    between atoms: C_12  and  N_28
    8  A    between atoms: C_16  and  C_36
    9  A    between atoms: C_20  and  C_34
   10  A    between atoms: N_22  and  C_24
   11  A    between atoms: N_22  and  C_35
   12  A    between atoms: C_25  and  C_27
   13  A    between atoms: C_33  and  N_40
   14  A    between atoms: C_36  and  O_42
   15  A    between atoms: C_39  and  O_42
   16  A    between atoms: N_40  and  C_41
                            x       y       z     vdW  Elec       q    Type
                         _______ _______ _______ _____ _____    ______ ____

>  <TORSDO>
F 16

$$$$
=
 OpenBabel11042417463D

 48 54  0  0  1  0  0  0  0  0999 V2000
  186.2330  177.6390  145.6750 C   0  0  0  0  0  2  0  0  0  0  0  0
  186.7160  177.2840  142.7570 C   0  0  0  0  0  0  0  0  0  0  0  0
  184.8040  178.2280  140.9760 C   0  0  0  0  0  3  0  0  0  0  0  0
  187.8920  176.7130  143.4250 C   0  0  2  0  0  3  0  0  0  0  0  0
  185.6610  178.0630  143.2570 C   0  0  0  0  0  0  0  0  0  0  0  0
  184.7130  178.5540  142.3450 C   0  0  0  0  0  3  0  0  0  0  0  0
  185.5210  178.3700  144.6460 N   0  0  0  0  0  2  0  0  0  0  0  0
  188.4560  177.2500  144.5230 C   0  0  2  0  0  3  0  0  0  0  0  0
  187.6610  177.8700  145.5420 N   0  0  0  0  0  2  0  0  0  0  0  0
  188.5660  175.8890  142.3880 C   0  0  0  0  0  0  0  0  0  0  0  0
  186.8030  176.9760  141.4160 C   0  0  0  0  0  0  0  0  0  0  0  0
  187.9520  176.0910  141.2140 C   0  0  0  0  0  0  0  0  0  0  0  0
  185.8490  177.4200  140.5040 C   0  0  0  0  0  3  0  0  0  0  0  0
  190.7460  174.6190  142.1680 C   0  0  0  0  0  0  0  0  0  0  0  0
  192.0260  174.5870  141.5990 C   0  0  2  0  0  0  0  0  0  0  0  0
  192.1110  174.1390  140.2810 O   0  0  0  0  0  1  0  0  0  0  0  0
  191.5400  172.6110  143.4730 C   0  0  0  0  0  3  0  0  0  0  0  0
  189.4820  174.7490  142.6550 C   0  0  0  0  0  0  0  0  0  0  0  0
  189.2320  173.7130  143.6220 C   0  0  0  0  0  3  0  0  0  0  0  0
  191.7290  173.6030  142.5550 C   0  0  0  0  0  0  0  0  0  0  0  0
  189.8330  171.7410  144.9610 O   0  0  0  0  0  1  0  0  0  0  0  0
  190.2050  172.6840  144.0090 C   0  0  0  0  0  0  0  0  0  0  0  0
  192.9720  175.6010  142.0290 N   0  0  0  0  0  0  0  0  0  0  0  0
  194.1020  175.6880  141.4470 N   0  0  0  0  0  0  0  0  0  0  0  0
  195.0310  176.6540  141.8530 N   0  0  0  0  0  2  0  0  0  0  0  0
  196.6600  175.1650  140.8530 C   0  0  0  0  0  1  0  0  0  0  0  0
  196.4530  176.4350  141.6520 C   0  0  2  0  0  3  0  0  0  0  0  0
  197.1300  176.3250  142.9350 N   0  0  0  0  0  2  0  0  0  0  0  0
  197.4290  174.9170  143.1390 C   0  0  0  0  0  2  0  0  0  0  0  0
  197.1760  174.5380  144.5860 C   0  0  0  0  0  2  0  0  0  0  0  0
  195.6830  174.4660  144.8140 C   0  0  0  0  0  2  0  0  0  0  0  0
  195.3580  175.0040  146.1280 N   0  0  0  0  0  2  0  0  0  0  0  0
  193.1460  175.8940  146.9040 C   0  0  0  0  0  2  0  0  0  0  0  0
  193.0110  175.4680  145.4400 C   0  0  0  0  0  2  0  0  0  0  0  0
  194.6900  177.4010  145.4710 C   0  0  0  0  0  1  0  0  0  0  0  0
  194.3200  176.0140  145.9610 C   0  0  0  0  0  0  0  0  0  0  0  0
  189.9180  177.2210  144.6880 C   0  0  0  0  0  3  0  0  0  0  0  0
  190.7200  178.0880  144.0810 C   0  0  0  0  0  2  0  0  0  0  0  0
  188.3360  175.4940  140.0120 O   0  0  0  0  0  0  0  0  0  0  0  0
  187.9370  174.1860  139.6400 C   0  0  0  0  0  2  0  0  0  0  0  0
  188.9760  173.5870  138.7110 C   0  0  0  0  0  2  0  0  0  0  0  0
  189.0460  172.0720  138.8590 C   0  0  0  0  0  2  0  0  0  0  0  0
  190.4680  171.5550  138.5830 C   0  0  1  0  0  3  0  0  0  0  0  0
  190.0180  169.3740  137.8580 C   0  0  0  0  0  2  0  0  0  0  0  0
  190.5990  169.0590  139.2230 C   0  0  0  0  0  2  0  0  0  0  0  0
  189.7810  171.1360  136.2920 C   0  0  0  0  0  1  0  0  0  0  0  0
  191.0530  170.6260  140.0290 S   0  0  0  0  0  0  0  0  0  0  0  0
  190.5550  170.6540  137.4280 N   0  0  0  0  0  0  0  0  0  0  0  0
  2  5  1  0  0  0  0
  2  4  1  0  0  0  0
  3  6  1  0  0  0  0
  4 10  1  6  0  0  0
  4  8  1  0  0  0  0
  5  7  1  0  0  0  0
  6  5  2  0  0  0  0
  7  1  1  0  0  0  0
  8 37  1  6  0  0  0
  8  9  1  0  0  0  0
  9  1  1  0  0  0  0
 10 18  1  0  0  0  0
 11  2  2  0  0  0  0
 12 11  1  0  0  0  0
 12 10  2  0  0  0  0
 13  3  2  0  0  0  0
 13 11  1  0  0  0  0
 14 20  2  0  0  0  0
 14 18  1  0  0  0  0
 15 16  1  6  0  0  0
 15 23  1  0  0  0  0
 15 14  1  0  0  0  0
 15 20  1  0  0  0  0
 17 22  2  0  0  0  0
 18 19  2  0  0  0  0
 19 22  1  0  0  0  0
 20 17  1  0  0  0  0
 22 21  1  0  0  0  0
 24 25  1  0  0  0  0
 24 23  2  0  0  0  0
 27 26  1  6  0  0  0
 27 25  1  0  0  0  0
 27 28  1  0  0  0  0
 28 29  1  0  0  0  0
 29 30  1  0  0  0  0
 30 31  1  0  0  0  0
 31 32  1  0  0  0  0
 34 36  1  0  0  0  0
 34 33  1  0  0  0  0
 35 36  1  0  0  0  0
 36 32  1  0  0  0  0
 36 33  1  0  0  0  0
 38 37  2  0  0  0  0
 39 12  1  0  0  0  0
 40 39  1  0  0  0  0
 41 42  1  0  0  0  0
 41 40  1  0  0  0  0
 43 42  1  1  0  0  0
 43 47  1  0  0  0  0
 44 45  1  0  0  0  0
 45 47  1  0  0  0  0
 46 48  1  0  0  0  0
 48 44  1  0  0  0  0
 48 43  1  0  0  0  0
M  END
>  <MODEL>
5

>  <REMARK>
 VINA RESULT:      -6.2      2.301      6.386
  Name = 
  16 active torsions:
  status: ('A' for Active; 'I' for Inactive)
    1  A    between atoms: C_6  and  C_13
    2  A    between atoms: C_6  and  C_16
    3  A    between atoms: N_7  and  C_41
    4  A    between atoms: N_7  and  N_44
    5  A    between atoms: C_9  and  C_33
    6  A    between atoms: C_9  and  C_35
    7  A    between atoms: C_12  and  N_28
    8  A    between atoms: C_16  and  C_36
    9  A    between atoms: C_20  and  C_34
   10  A    between atoms: N_22  and  C_24
   11  A    between atoms: N_22  and  C_35
   12  A    between atoms: C_25  and  C_27
   13  A    between atoms: C_33  and  N_40
   14  A    between atoms: C_36  and  O_42
   15  A    between atoms: C_39  and  O_42
   16  A    between atoms: N_40  and  C_41
                            x       y       z     vdW  Elec       q    Type
                         _______ _______ _______ _____ _____    ______ ____

>  <TORSDO>
F 16

$$$$
=
 OpenBabel11042417463D

 48 54  0  0  1  0  0  0  0  0999 V2000
  190.7720  177.9580  143.4760 C   0  0  0  0  0  2  0  0  0  0  0  0
  190.2360  175.1030  142.8110 C   0  0  0  0  0  0  0  0  0  0  0  0
  187.6260  174.3480  142.2330 C   0  0  0  0  0  3  0  0  0  0  0  0
  191.6830  175.1910  143.0420 C   0  0  0  0  0  0  0  0  0  0  0  0
  189.2640  176.1070  142.6670 C   0  0  0  0  0  0  0  0  0  0  0  0
  187.9540  175.7140  142.3520 C   0  0  0  0  0  3  0  0  0  0  0  0
  189.5610  177.4950  142.8270 N   0  0  0  0  0  2  0  0  0  0  0  0
  192.4370  176.2350  142.6480 C   0  0  2  0  0  3  0  0  0  0  0  0
  191.9300  177.5750  142.6850 N   0  0  0  0  0  2  0  0  0  0  0  0
  192.1330  173.7870  143.2280 C   0  0  0  0  0  0  0  0  0  0  0  0
  189.9100  173.7690  142.6850 C   0  0  0  0  0  0  0  0  0  0  0  0
  191.1030  172.9690  142.9680 C   0  0  0  0  0  0  0  0  0  0  0  0
  188.6070  173.3610  142.4150 C   0  0  0  0  0  2  0  0  0  0  0  0
  194.1810  174.1840  144.6650 C   0  0  0  0  0  0  0  0  0  0  0  0
  194.9560  175.1230  145.3570 C   0  0  2  0  0  0  0  0  0  0  0  0
  195.8560  175.8700  144.5960 O   0  0  0  0  0  1  0  0  0  0  0  0
  195.6850  172.4870  145.7680 C   0  0  0  0  0  3  0  0  0  0  0  0
  193.3600  173.3640  143.9520 C   0  0  0  0  0  0  0  0  0  0  0  0
  193.7500  171.9950  144.1630 C   0  0  0  0  0  3  0  0  0  0  0  0
  195.2870  173.7700  145.5310 C   0  0  0  0  0  0  0  0  0  0  0  0
  195.1320  170.2100  145.1370 O   0  0  0  0  0  1  0  0  0  0  0  0
  194.8650  171.5700  145.0200 C   0  0  0  0  0  0  0  0  0  0  0  0
  194.3540  175.7650  146.5110 N   0  0  0  0  0  0  0  0  0  0  0  0
  193.1880  176.2680  146.4080 N   0  0  0  0  0  0  0  0  0  0  0  0
  192.5950  176.8990  147.5090 N   0  0  0  0  0  2  0  0  0  0  0  0
  191.1880  174.9790  147.9640 C   0  0  0  0  0  1  0  0  0  0  0  0
  191.2780  176.4910  147.9670 C   0  0  2  0  0  3  0  0  0  0  0  0
  190.2510  177.0460  147.0990 N   0  0  0  0  0  2  0  0  0  0  0  0
  189.6460  175.9320  146.3880 C   0  0  0  0  0  2  0  0  0  0  0  0
  188.1350  176.0740  146.3900 C   0  0  0  0  0  2  0  0  0  0  0  0
  187.7870  177.5460  146.3710 C   0  0  0  0  0  2  0  0  0  0  0  0
  187.0880  177.8720  145.1360 N   0  0  0  0  0  2  0  0  0  0  0  0
  185.7030  178.9080  146.9510 C   0  0  0  0  0  2  0  0  0  0  0  0
  184.8260  177.9240  146.1730 C   0  0  0  0  0  2  0  0  0  0  0  0
  185.4650  179.7720  144.5210 C   0  0  0  0  0  1  0  0  0  0  0  0
  185.9260  178.6860  145.4740 C   0  0  0  0  0  0  0  0  0  0  0  0
  193.8040  176.0100  142.1550 C   0  0  0  0  0  3  0  0  0  0  0  0
  194.0550  175.5550  140.9330 C   0  0  0  0  0  2  0  0  0  0  0  0
  191.1720  171.5760  143.0200 O   0  0  0  0  0  0  0  0  0  0  0  0
  190.9870  170.7530  141.8810 C   0  0  0  0  0  2  0  0  0  0  0  0
  192.1920  170.8790  140.9680 C   0  0  0  0  0  2  0  0  0  0  0  0
  191.7820  170.8710  139.5010 C   0  0  0  0  0  2  0  0  0  0  0  0
  190.4810  171.6630  139.2870 C   0  0  1  0  0  3  0  0  0  0  0  0
  190.4600  171.8640  136.9540 C   0  0  0  0  0  2  0  0  0  0  0  0
  190.8010  173.2970  137.3150 C   0  0  0  0  0  2  0  0  0  0  0  0
  189.6940  169.8310  137.9000 C   0  0  0  0  0  1  0  0  0  0  0  0
  190.8790  173.4270  139.1290 S   0  0  0  0  0  0  0  0  0  0  0  0
  189.7480  171.2770  138.0750 N   0  0  0  0  0  0  0  0  0  0  0  0
  2  4  1  0  0  0  0
  3  6  2  0  0  0  0
  3 13  1  0  0  0  0
  4 10  2  0  0  0  0
  5  2  2  0  0  0  0
  5  7  1  0  0  0  0
  6  5  1  0  0  0  0
  7  1  1  0  0  0  0
  8 37  1  6  0  0  0
  8  9  1  0  0  0  0
  8  4  1  0  0  0  0
  9  1  1  0  0  0  0
 10 18  1  0  0  0  0
 11  2  1  0  0  0  0
 11 12  2  0  0  0  0
 12 39  1  0  0  0  0
 12 10  1  0  0  0  0
 13 11  1  0  0  0  0
 14 15  1  0  0  0  0
 14 20  1  0  0  0  0
 15 16  1  6  0  0  0
 15 20  1  0  0  0  0
 15 23  1  0  0  0  0
 18 19  1  0  0  0  0
 18 14  2  0  0  0  0
 19 22  2  0  0  0  0
 20 17  2  0  0  0  0
 22 21  1  0  0  0  0
 22 17  1  0  0  0  0
 24 23  2  0  0  0  0
 24 25  1  0  0  0  0
 25 27  1  0  0  0  0
 27 26  1  6  0  0  0
 28 27  1  0  0  0  0
 29 30  1  0  0  0  0
 29 28  1  0  0  0  0
 31 30  1  0  0  0  0
 32 36  1  0  0  0  0
 32 31  1  0  0  0  0
 34 33  1  0  0  0  0
 35 36  1  0  0  0  0
 36 34  1  0  0  0  0
 36 33  1  0  0  0  0
 38 37  2  0  0  0  0
 40 39  1  0  0  0  0
 41 40  1  0  0  0  0
 42 41  1  0  0  0  0
 43 42  1  6  0  0  0
 44 45  1  0  0  0  0
 44 48  1  0  0  0  0
 45 47  1  0  0  0  0
 46 48  1  0  0  0  0
 47 43  1  0  0  0  0
 48 43  1  0  0  0  0
M  END
>  <MODEL>
6

>  <REMARK>
 VINA RESULT:      -6.1      2.427      8.030
  Name = 
  16 active torsions:
  status: ('A' for Active; 'I' for Inactive)
    1  A    between atoms: C_6  and  C_13
    2  A    between atoms: C_6  and  C_16
    3  A    between atoms: N_7  and  C_41
    4  A    between atoms: N_7  and  N_44
    5  A    between atoms: C_9  and  C_33
    6  A    between atoms: C_9  and  C_35
    7  A    between atoms: C_12  and  N_28
    8  A    between atoms: C_16  and  C_36
    9  A    between atoms: C_20  and  C_34
   10  A    between atoms: N_22  and  C_24
   11  A    between atoms: N_22  and  C_35
   12  A    between atoms: C_25  and  C_27
   13  A    between atoms: C_33  and  N_40
   14  A    between atoms: C_36  and  O_42
   15  A    between atoms: C_39  and  O_42
   16  A    between atoms: N_40  and  C_41
                            x       y       z     vdW  Elec       q    Type
                         _______ _______ _______ _____ _____    ______ ____

>  <TORSDO>
F 16

$$$$
=
 OpenBabel11042417463D

 48 54  0  0  1  0  0  0  0  0999 V2000
  185.4760  177.1370  145.9830 C   0  0  0  0  0  2  0  0  0  0  0  0
  186.3010  177.1570  143.1200 C   0  0  0  0  0  0  0  0  0  0  0  0
  184.5550  178.2370  141.2490 C   0  0  0  0  0  3  0  0  0  0  0  0
  187.4220  176.5540  143.8510 C   0  0  2  0  0  3  0  0  0  0  0  0
  185.1570  177.8290  143.5800 C   0  0  0  0  0  0  0  0  0  0  0  0
  184.2940  178.3910  142.6260 C   0  0  0  0  0  3  0  0  0  0  0  0
  184.8470  177.9600  144.9690 N   0  0  0  0  0  2  0  0  0  0  0  0
  187.8320  176.9760  145.0620 C   0  0  2  0  0  3  0  0  0  0  0  0
  186.8970  177.4360  146.0460 N   0  0  0  0  0  2  0  0  0  0  0  0
  188.2510  175.8880  142.8120 C   0  0  0  0  0  0  0  0  0  0  0  0
  186.5540  177.0180  141.7720 C   0  0  0  0  0  0  0  0  0  0  0  0
  187.7620  176.2080  141.6060 C   0  0  0  0  0  0  0  0  0  0  0  0
  185.6870  177.5320  140.8120 C   0  0  0  0  0  3  0  0  0  0  0  0
  190.5030  174.7350  142.6980 C   0  0  0  0  0  0  0  0  0  0  0  0
  191.8370  174.8190  142.2790 C   0  0  2  0  0  0  0  0  0  0  0  0
  192.0870  174.5330  140.9370 O   0  0  0  0  0  1  0  0  0  0  0  0
  191.2500  172.6190  143.8500 C   0  0  0  0  0  3  0  0  0  0  0  0
  189.1880  174.7600  143.0510 C   0  0  0  0  0  0  0  0  0  0  0  0
  188.8870  173.6090  143.8590 C   0  0  0  0  0  3  0  0  0  0  0  0
  191.4880  173.7190  143.0780 C   0  0  0  0  0  0  0  0  0  0  0  0
  189.4380  171.5160  145.0260 O   0  0  0  0  0  1  0  0  0  0  0  0
  189.8640  172.5780  144.2360 C   0  0  0  0  0  0  0  0  0  0  0  0
  192.6790  175.8100  142.9250 N   0  0  0  0  0  0  0  0  0  0  0  0
  192.8240  175.7770  144.1900 N   0  0  0  0  0  0  0  0  0  0  0  0
  193.6250  176.7290  144.8320 N   0  0  0  0  0  2  0  0  0  0  0  0
  195.8060  176.4810  143.8040 C   0  0  0  0  0  1  0  0  0  0  0  0
  195.0250  176.4480  145.1020 C   0  0  2  0  0  3  0  0  0  0  0  0
  195.1630  175.1420  145.7260 N   0  0  0  0  0  2  0  0  0  0  0  0
  196.1830  174.4200  144.9840 C   0  0  0  0  0  2  0  0  0  0  0  0
  197.1780  173.7950  145.9430 C   0  0  0  0  0  2  0  0  0  0  0  0
  196.8150  172.3390  146.1360 C   0  0  0  0  0  2  0  0  0  0  0  0
  197.5420  171.5180  145.1780 N   0  0  0  0  0  2  0  0  0  0  0  0
  195.9560  169.8970  146.2480 C   0  0  0  0  0  2  0  0  0  0  0  0
  197.3330  169.2360  146.1490 C   0  0  0  0  0  2  0  0  0  0  0  0
  196.5530  169.6250  143.7420 C   0  0  0  0  0  1  0  0  0  0  0  0
  196.8810  170.2210  145.0980 C   0  0  0  0  0  0  0  0  0  0  0  0
  189.2650  176.9820  145.3930 C   0  0  0  0  0  3  0  0  0  0  0  0
  190.0940  177.9190  144.9490 C   0  0  0  0  0  2  0  0  0  0  0  0
  188.3090  175.7760  140.3960 O   0  0  0  0  0  0  0  0  0  0  0  0
  187.8200  174.6490  139.6890 C   0  0  0  0  0  2  0  0  0  0  0  0
  188.9860  173.8900  139.0820 C   0  0  0  0  0  2  0  0  0  0  0  0
  189.3370  172.6580  139.9060 C   0  0  0  0  0  2  0  0  0  0  0  0
  189.6860  171.4660  138.9980 C   0  0  1  0  0  3  0  0  0  0  0  0
  192.0240  171.4730  139.1310 C   0  0  0  0  0  2  0  0  0  0  0  0
  191.8620  171.9900  137.7140 C   0  0  0  0  0  2  0  0  0  0  0  0
  190.8150  170.4580  140.8980 C   0  0  0  0  0  1  0  0  0  0  0  0
  190.0840  172.0810  137.3370 S   0  0  0  0  0  0  0  0  0  0  0  0
  190.8440  170.6920  139.4600 N   0  0  0  0  0  0  0  0  0  0  0  0
  1  9  1  0  0  0  0
  2  5  1  0  0  0  0
  2  4  1  0  0  0  0
  3  6  1  0  0  0  0
  4 10  1  6  0  0  0
  4  8  1  0  0  0  0
  5  7  1  0  0  0  0
  6  5  2  0  0  0  0
  7  1  1  0  0  0  0
  8 37  1  6  0  0  0
  8  9  1  0  0  0  0
 10 18  1  0  0  0  0
 11  2  2  0  0  0  0
 12 11  1  0  0  0  0
 12 10  2  0  0  0  0
 13  3  2  0  0  0  0
 13 11  1  0  0  0  0
 14 18  2  0  0  0  0
 14 20  1  0  0  0  0
 15 16  1  6  0  0  0
 15 14  1  0  0  0  0
 15 23  1  0  0  0  0
 15 20  1  0  0  0  0
 17 22  1  0  0  0  0
 18 19  1  0  0  0  0
 19 22  2  0  0  0  0
 20 17  2  0  0  0  0
 22 21  1  0  0  0  0
 23 24  2  0  0  0  0
 24 25  1  0  0  0  0
 25 27  1  0  0  0  0
 27 26  1  6  0  0  0
 27 28  1  0  0  0  0
 29 28  1  0  0  0  0
 29 30  1  0  0  0  0
 30 31  1  0  0  0  0
 32 31  1  0  0  0  0
 34 33  1  0  0  0  0
 35 36  1  0  0  0  0
 36 32  1  0  0  0  0
 36 34  1  0  0  0  0
 36 33  1  0  0  0  0
 38 37  2  0  0  0  0
 39 12  1  0  0  0  0
 40 39  1  0  0  0  0
 41 40  1  0  0  0  0
 41 42  1  0  0  0  0
 43 48  1  0  0  0  0
 43 42  1  1  0  0  0
 44 48  1  0  0  0  0
 45 44  1  0  0  0  0
 47 45  1  0  0  0  0
 47 43  1  0  0  0  0
 48 46  1  0  0  0  0
M  END
>  <MODEL>
7

>  <REMARK>
 VINA RESULT:      -6.0      2.868      6.398
  Name = 
  16 active torsions:
  status: ('A' for Active; 'I' for Inactive)
    1  A    between atoms: C_6  and  C_13
    2  A    between atoms: C_6  and  C_16
    3  A    between atoms: N_7  and  C_41
    4  A    between atoms: N_7  and  N_44
    5  A    between atoms: C_9  and  C_33
    6  A    between atoms: C_9  and  C_35
    7  A    between atoms: C_12  and  N_28
    8  A    between atoms: C_16  and  C_36
    9  A    between atoms: C_20  and  C_34
   10  A    between atoms: N_22  and  C_24
   11  A    between atoms: N_22  and  C_35
   12  A    between atoms: C_25  and  C_27
   13  A    between atoms: C_33  and  N_40
   14  A    between atoms: C_36  and  O_42
   15  A    between atoms: C_39  and  O_42
   16  A    between atoms: N_40  and  C_41
                            x       y       z     vdW  Elec       q    Type
                         _______ _______ _______ _____ _____    ______ ____

>  <TORSDO>
F 16

$$$$
=
 OpenBabel11042417463D

 48 54  0  0  1  0  0  0  0  0999 V2000
  191.7690  172.6880  136.4370 C   0  0  0  0  0  2  0  0  0  0  0  0
  189.4140  173.6880  137.9650 C   0  0  0  0  0  0  0  0  0  0  0  0
  187.7420  175.5450  136.7510 C   0  0  0  0  0  3  0  0  0  0  0  0
  190.0790  172.7220  138.8490 C   0  0  0  0  0  0  0  0  0  0  0  0
  189.6080  173.9760  136.6050 C   0  0  0  0  0  0  0  0  0  0  0  0
  188.7420  174.8980  135.9960 C   0  0  0  0  0  3  0  0  0  0  0  0
  190.6420  173.3680  135.8280 N   0  0  0  0  0  2  0  0  0  0  0  0
  190.6340  171.5760  138.4130 C   0  0  2  0  0  3  0  0  0  0  0  0
  191.3040  171.5080  137.1470 N   0  0  0  0  0  2  0  0  0  0  0  0
  189.5190  172.9830  140.2010 C   0  0  0  0  0  0  0  0  0  0  0  0
  188.4290  174.3180  138.6960 C   0  0  0  0  0  0  0  0  0  0  0  0
  188.5270  173.8770  140.0880 C   0  0  0  0  0  0  0  0  0  0  0  0
  187.5890  175.2660  138.1180 C   0  0  0  0  0  2  0  0  0  0  0  0
  191.5080  172.7780  141.7560 C   0  0  0  0  0  0  0  0  0  0  0  0
  192.8890  172.9500  141.9120 C   0  0  2  0  0  0  0  0  0  0  0  0
  193.7040  171.9370  141.4080 O   0  0  0  0  0  1  0  0  0  0  0  0
  191.5290  172.3070  144.2330 C   0  0  0  0  0  3  0  0  0  0  0  0
  190.1800  172.6420  141.4880 C   0  0  0  0  0  0  0  0  0  0  0  0
  189.4800  172.2980  142.6960 C   0  0  0  0  0  3  0  0  0  0  0  0
  192.1530  172.6210  143.0620 C   0  0  0  0  0  0  0  0  0  0  0  0
  189.3210  171.7960  145.0980 O   0  0  0  0  0  1  0  0  0  0  0  0
  190.1180  172.1270  144.0080 C   0  0  0  0  0  0  0  0  0  0  0  0
  193.4010  174.3080  141.8740 N   0  0  0  0  0  0  0  0  0  0  0  0
  194.1680  174.7120  142.8070 N   0  0  0  0  0  0  0  0  0  0  0  0
  194.6650  176.0220  142.7910 N   0  0  0  0  0  2  0  0  0  0  0  0
  196.4480  175.1660  144.1920 C   0  0  0  0  0  1  0  0  0  0  0  0
  195.7450  176.4080  143.6830 C   0  0  2  0  0  3  0  0  0  0  0  0
  195.2210  177.1710  144.8050 N   0  0  0  0  0  2  0  0  0  0  0  0
  194.7660  176.2110  145.7970 C   0  0  0  0  0  2  0  0  0  0  0  0
  193.9810  176.9220  146.8840 C   0  0  0  0  0  2  0  0  0  0  0  0
  192.6190  176.2750  147.0000 C   0  0  0  0  0  2  0  0  0  0  0  0
  192.3520  175.4710  145.8150 N   0  0  0  0  0  2  0  0  0  0  0  0
  190.8220  175.9760  143.8940 C   0  0  0  0  0  2  0  0  0  0  0  0
  190.7800  177.1540  144.8700 C   0  0  0  0  0  2  0  0  0  0  0  0
  189.8190  175.1440  146.1320 C   0  0  0  0  0  1  0  0  0  0  0  0
  190.9890  175.7470  145.3770 C   0  0  0  0  0  0  0  0  0  0  0  0
  190.5490  170.3590  139.2330 C   0  0  0  0  0  3  0  0  0  0  0  0
  190.9600  169.1740  138.7950 C   0  0  0  0  0  2  0  0  0  0  0  0
  187.7580  174.3390  141.1590 O   0  0  0  0  0  0  0  0  0  0  0  0
  187.9830  175.5920  141.7830 C   0  0  0  0  0  2  0  0  0  0  0  0
  186.7430  175.9980  142.5570 C   0  0  0  0  0  2  0  0  0  0  0  0
  187.0900  176.4250  143.9780 C   0  0  0  0  0  2  0  0  0  0  0  0
  186.9330  177.9450  144.1530 C   0  0  1  0  0  3  0  0  0  0  0  0
  184.9170  178.0530  145.3390 C   0  0  0  0  0  2  0  0  0  0  0  0
  184.4320  178.5620  143.9950 C   0  0  0  0  0  2  0  0  0  0  0  0
  186.8960  177.5800  146.5530 C   0  0  0  0  0  1  0  0  0  0  0  0
  185.8450  178.5840  142.8480 S   0  0  0  0  0  0  0  0  0  0  0  0
  186.3390  178.3340  145.4370 N   0  0  0  0  0  0  0  0  0  0  0  0
  1  9  1  0  0  0  0
  2 11  1  0  0  0  0
  2  4  1  0  0  0  0
  3 13  1  0  0  0  0
  4 10  2  0  0  0  0
  5  2  2  0  0  0  0
  6  5  1  0  0  0  0
  6  3  2  0  0  0  0
  7  1  1  0  0  0  0
  7  5  1  0  0  0  0
  8  4  1  0  0  0  0
  8 37  1  6  0  0  0
  9  8  1  0  0  0  0
 10 18  1  0  0  0  0
 11 12  2  0  0  0  0
 12 10  1  0  0  0  0
 12 39  1  0  0  0  0
 13 11  1  0  0  0  0
 14 15  1  0  0  0  0
 14 20  1  0  0  0  0
 15 16  1  6  0  0  0
 15 20  1  0  0  0  0
 18 14  2  0  0  0  0
 18 19  1  0  0  0  0
 19 22  2  0  0  0  0
 20 17  2  0  0  0  0
 22 17  1  0  0  0  0
 22 21  1  0  0  0  0
 23 15  1  0  0  0  0
 23 24  2  0  0  0  0
 25 24  1  0  0  0  0
 25 27  1  0  0  0  0
 27 26  1  1  0  0  0
 27 28  1  0  0  0  0
 28 29  1  0  0  0  0
 29 30  1  0  0  0  0
 30 31  1  0  0  0  0
 32 31  1  0  0  0  0
 33 34  1  0  0  0  0
 33 36  1  0  0  0  0
 34 36  1  0  0  0  0
 36 32  1  0  0  0  0
 36 35  1  0  0  0  0
 38 37  2  0  0  0  0
 39 40  1  0  0  0  0
 40 41  1  0  0  0  0
 41 42  1  0  0  0  0
 43 42  1  1  0  0  0
 43 48  1  0  0  0  0
 44 48  1  0  0  0  0
 45 44  1  0  0  0  0
 47 45  1  0  0  0  0
 47 43  1  0  0  0  0
 48 46  1  0  0  0  0
M  END
>  <MODEL>
8

>  <REMARK>
 VINA RESULT:      -6.0      2.697      7.815
  Name = 
  16 active torsions:
  status: ('A' for Active; 'I' for Inactive)
    1  A    between atoms: C_6  and  C_13
    2  A    between atoms: C_6  and  C_16
    3  A    between atoms: N_7  and  C_41
    4  A    between atoms: N_7  and  N_44
    5  A    between atoms: C_9  and  C_33
    6  A    between atoms: C_9  and  C_35
    7  A    between atoms: C_12  and  N_28
    8  A    between atoms: C_16  and  C_36
    9  A    between atoms: C_20  and  C_34
   10  A    between atoms: N_22  and  C_24
   11  A    between atoms: N_22  and  C_35
   12  A    between atoms: C_25  and  C_27
   13  A    between atoms: C_33  and  N_40
   14  A    between atoms: C_36  and  O_42
   15  A    between atoms: C_39  and  O_42
   16  A    between atoms: N_40  and  C_41
                            x       y       z     vdW  Elec       q    Type
                         _______ _______ _______ _____ _____    ______ ____

>  <TORSDO>
F 16

$$$$
=
 OpenBabel11042417463D

 48 54  0  0  1  0  0  0  0  0999 V2000
  197.2320  172.6590  141.3120 C   0  0  0  0  0  2  0  0  0  0  0  0
  195.0490  172.1810  143.2840 C   0  0  0  0  0  0  0  0  0  0  0  0
  195.7360  171.3220  145.8350 C   0  0  0  0  0  3  0  0  0  0  0  0
  194.3830  172.6380  142.0580 C   0  0  0  0  0  0  0  0  0  0  0  0
  196.4060  172.1660  143.6430 C   0  0  0  0  0  0  0  0  0  0  0  0
  196.7390  171.7530  144.9420 C   0  0  0  0  0  3  0  0  0  0  0  0
  197.4460  172.5540  142.7420 N   0  0  0  0  0  2  0  0  0  0  0  0
  194.8800  173.6010  141.2570 C   0  0  2  0  0  3  0  0  0  0  0  0
  196.2900  173.7300  141.0350 N   0  0  0  0  0  2  0  0  0  0  0  0
  192.9520  172.2770  142.2350 C   0  0  0  0  0  0  0  0  0  0  0  0
  194.0720  171.7670  144.1640 C   0  0  0  0  0  0  0  0  0  0  0  0
  192.7780  171.8170  143.4820 C   0  0  0  0  0  0  0  0  0  0  0  0
  194.3890  171.3140  145.4420 C   0  0  0  0  0  2  0  0  0  0  0  0
  190.7000  172.5540  141.1090 C   0  0  0  0  0  0  0  0  0  0  0  0
  189.4090  173.0890  141.1990 C   0  0  2  0  0  0  0  0  0  0  0  0
  188.4830  172.3600  141.9440 O   0  0  0  0  0  1  0  0  0  0  0  0
  190.0440  171.9980  138.7380 C   0  0  0  0  0  3  0  0  0  0  0  0
  191.9730  172.0720  141.1350 C   0  0  0  0  0  0  0  0  0  0  0  0
  192.2940  171.4980  139.8560 C   0  0  0  0  0  3  0  0  0  0  0  0
  189.7800  172.5210  139.9700 C   0  0  0  0  0  0  0  0  0  0  0  0
  191.8170  170.8650  137.5290 O   0  0  0  0  0  1  0  0  0  0  0  0
  191.3760  171.4490  138.7110 C   0  0  0  0  0  0  0  0  0  0  0  0
  189.2850  174.5360  141.1990 N   0  0  0  0  0  0  0  0  0  0  0  0
  188.1470  175.0650  141.4180 N   0  0  0  0  0  0  0  0  0  0  0  0
  188.0070  176.4580  141.4140 N   0  0  0  0  0  2  0  0  0  0  0  0
  186.2710  176.0950  143.0660 C   0  0  0  0  0  1  0  0  0  0  0  0
  187.1790  177.1160  142.4100 C   0  0  2  0  0  3  0  0  0  0  0  0
  186.3770  178.1580  141.7880 N   0  0  0  0  0  2  0  0  0  0  0  0
  185.2090  178.3570  142.6290 C   0  0  0  0  0  2  0  0  0  0  0  0
  185.4060  179.5740  143.5120 C   0  0  0  0  0  2  0  0  0  0  0  0
  185.2340  179.1590  144.9560 C   0  0  0  0  0  2  0  0  0  0  0  0
  186.5390  178.9490  145.5680 N   0  0  0  0  0  2  0  0  0  0  0  0
  186.6350  176.6320  146.5200 C   0  0  0  0  0  2  0  0  0  0  0  0
  185.1960  177.1440  146.6320 C   0  0  0  0  0  2  0  0  0  0  0  0
  186.6150  178.6650  148.1250 C   0  0  0  0  0  1  0  0  0  0  0  0
  186.3590  178.1010  146.7400 C   0  0  0  0  0  0  0  0  0  0  0  0
  193.9710  174.5530  140.6010 C   0  0  0  0  0  3  0  0  0  0  0  0
  194.3150  175.2310  139.5130 C   0  0  0  0  0  2  0  0  0  0  0  0
  191.5500  171.4060  144.0040 O   0  0  0  0  0  0  0  0  0  0  0  0
  190.6460  172.2960  144.6360 C   0  0  0  0  0  2  0  0  0  0  0  0
  191.3880  173.5470  145.0670 C   0  0  0  0  0  2  0  0  0  0  0  0
  190.7330  174.8030  144.5060 C   0  0  0  0  0  2  0  0  0  0  0  0
  191.6130  176.0410  144.7500 C   0  0  1  0  0  3  0  0  0  0  0  0
  190.0130  177.7490  144.6630 C   0  0  0  0  0  2  0  0  0  0  0  0
  190.7120  178.0080  143.3430 C   0  0  0  0  0  2  0  0  0  0  0  0
  190.2330  176.5350  146.6860 C   0  0  0  0  0  1  0  0  0  0  0  0
  192.0460  176.7850  143.1520 S   0  0  0  0  0  0  0  0  0  0  0  0
  190.9560  177.0840  145.5460 N   0  0  0  0  0  0  0  0  0  0  0  0
  1  7  1  0  0  0  0
  2  5  2  0  0  0  0
  2 11  1  0  0  0  0
  4 10  2  0  0  0  0
  4  2  1  0  0  0  0
  5  6  1  0  0  0  0
  6  3  2  0  0  0  0
  7  5  1  0  0  0  0
  8 37  1  1  0  0  0
  8  4  1  0  0  0  0
  9  8  1  0  0  0  0
  9  1  1  0  0  0  0
 10 12  1  0  0  0  0
 11 13  1  0  0  0  0
 12 39  1  0  0  0  0
 12 11  2  0  0  0  0
 13  3  1  0  0  0  0
 14 18  1  0  0  0  0
 14 15  1  0  0  0  0
 15 16  1  1  0  0  0
 17 20  1  0  0  0  0
 18 10  1  0  0  0  0
 19 18  2  0  0  0  0
 20 14  2  0  0  0  0
 20 15  1  0  0  0  0
 21 22  1  0  0  0  0
 22 17  2  0  0  0  0
 22 19  1  0  0  0  0
 23 15  1  0  0  0  0
 23 24  2  0  0  0  0
 25 24  1  0  0  0  0
 25 27  1  0  0  0  0
 27 26  1  6  0  0  0
 28 27  1  0  0  0  0
 28 29  1  0  0  0  0
 29 30  1  0  0  0  0
 30 31  1  0  0  0  0
 31 32  1  0  0  0  0
 32 36  1  0  0  0  0
 33 34  1  0  0  0  0
 33 36  1  0  0  0  0
 34 36  1  0  0  0  0
 36 35  1  0  0  0  0
 38 37  2  0  0  0  0
 39 40  1  0  0  0  0
 40 41  1  0  0  0  0
 42 41  1  0  0  0  0
 43 42  1  6  0  0  0
 43 48  1  0  0  0  0
 44 48  1  0  0  0  0
 45 44  1  0  0  0  0
 47 45  1  0  0  0  0
 47 43  1  0  0  0  0
 48 46  1  0  0  0  0
M  END
>  <MODEL>
9

>  <REMARK>
 VINA RESULT:      -5.9      2.536      8.360
  Name = 
  16 active torsions:
  status: ('A' for Active; 'I' for Inactive)
    1  A    between atoms: C_6  and  C_13
    2  A    between atoms: C_6  and  C_16
    3  A    between atoms: N_7  and  C_41
    4  A    between atoms: N_7  and  N_44
    5  A    between atoms: C_9  and  C_33
    6  A    between atoms: C_9  and  C_35
    7  A    between atoms: C_12  and  N_28
    8  A    between atoms: C_16  and  C_36
    9  A    between atoms: C_20  and  C_34
   10  A    between atoms: N_22  and  C_24
   11  A    between atoms: N_22  and  C_35
   12  A    between atoms: C_25  and  C_27
   13  A    between atoms: C_33  and  N_40
   14  A    between atoms: C_36  and  O_42
   15  A    between atoms: C_39  and  O_42
   16  A    between atoms: N_40  and  C_41
                            x       y       z     vdW  Elec       q    Type
                         _______ _______ _______ _____ _____    ______ ____

>  <TORSDO>
F 16

$$$$
