=
 OpenBabel11042414133D

 62 68  0  0  1  0  0  0  0  0999 V2000
  189.3450  175.4300  142.0600 C   0  0  1  0  0  3  0  0  0  0  0  0
  190.8100  174.8520  144.1480 C   0  0  2  0  0  3  0  0  0  0  0  0
  189.7320  172.5470  144.2690 N   0  0  0  0  0  2  0  0  0  0  0  0
  190.5930  176.3150  143.0630 S   0  0  0  0  0  0  0  0  0  0  0  0
  189.0340  174.1740  142.7250 N   0  0  0  0  0  0  0  0  0  0  0  0
  189.7700  173.8650  143.7380 C   0  0  0  0  0  0  0  0  0  0  0  0
  190.6390  171.5540  143.7030 C   0  0  0  0  0  2  0  0  0  0  0  0
  194.9850  171.1640  145.0830 N   0  0  0  0  0  0  0  0  0  0  0  0
  194.1190  172.0670  144.4790 N   0  0  0  0  0  0  0  0  0  0  0  0
  193.0820  171.4420  144.0470 C   0  0  0  0  0  0  0  0  0  0  0  0
  194.4980  169.8010  144.9600 C   0  0  0  0  0  3  0  0  0  0  0  0
  191.9480  172.1390  143.5250 N   0  0  0  0  0  2  0  0  0  0  0  0
  193.0950  169.9780  144.3690 C   0  0  0  0  0  3  0  0  0  0  0  0
  196.1980  171.5730  145.7570 C   0  0  0  0  0  2  0  0  0  0  0  0
  197.2980  171.9910  144.7880 C   0  0  1  0  0  3  0  0  0  0  0  0
  197.2000  171.3980  143.5150 O   0  0  0  0  0  1  0  0  0  0  0  0
  196.5920  174.1830  145.5900 O   0  0  0  0  0  0  0  0  0  0  0  0
  197.4210  173.5040  144.6750 C   0  0  2  0  0  3  0  0  0  0  0  0
  196.7490  175.4100  143.5300 C   0  0  1  0  0  3  0  0  0  0  0  0
  196.1990  175.3990  144.9700 C   0  0  1  0  0  3  0  0  0  0  0  0
  197.0980  173.9760  143.2760 C   0  0  0  0  0  2  0  0  0  0  0  0
  194.2380  175.9250  146.4820 C   0  0  0  0  0  1  0  0  0  0  0  0
  194.6670  175.5340  145.0690 C   0  0  0  0  0  2  0  0  0  0  0  0
  195.8430  175.9940  142.4450 C   0  0  0  0  0  2  0  0  0  0  0  0
  193.9830  175.4760  141.3640 C   0  0  0  0  0  1  0  0  0  0  0  0
  195.2410  174.9860  141.7060 O   0  0  0  0  0  0  0  0  0  0  0  0
  188.0970  176.2890  141.7710 C   0  0  1  0  0  3  0  0  0  0  0  0
  188.1430  174.9630  139.6290 N   0  0  0  0  0  2  0  0  0  0  0  0
  186.8180  176.8770  139.8230 O   0  0  0  0  0  0  0  0  0  0  0  0
  187.6180  176.0720  140.3710 C   0  0  0  0  0  0  0  0  0  0  0  0
  187.8290  174.6490  138.2560 C   0  0  0  0  0  2  0  0  0  0  0  0
  188.4790  173.3620  137.7870 C   0  0  0  0  0  2  0  0  0  0  0  0
  189.5960  173.7520  136.8480 C   0  0  0  0  0  2  0  0  0  0  0  0
  190.9680  173.7960  137.5170 C   0  0  0  0  0  2  0  0  0  0  0  0
  189.8330  170.0900  137.0100 C   0  0  0  0  0  2  0  0  0  0  0  0
  192.4360  170.1980  138.5110 C   0  0  2  0  0  3  0  0  0  0  0  0
  191.4970  172.8560  139.7550 C   0  0  0  0  0  3  0  0  0  0  0  0
  190.0590  169.3080  138.3550 C   0  0  0  0  0  2  0  0  0  0  0  0
  194.5500  171.5230  138.3840 O   0  0  0  0  0  1  0  0  0  0  0  0
  191.0540  170.0420  136.0510 C   0  0  0  0  0  2  0  0  0  0  0  0
  192.2180  171.5580  137.7940 C   0  0  2  0  0  0  0  0  0  0  0  0
  192.8690  172.2920  140.0590 C   0  0  0  0  0  3  0  0  0  0  0  0
  191.1620  169.8550  139.2860 C   0  0  0  0  0  2  0  0  0  0  0  0
  192.1260  171.1400  136.3150 C   0  0  0  0  0  2  0  0  0  0  0  0
  193.2490  171.4190  138.8770 C   0  0  1  0  0  0  0  0  0  0  0  0
  191.1380  172.5130  138.3280 C   0  0  2  0  0  3  0  0  0  0  0  0
  186.9520  176.0340  142.7720 C   0  0  0  0  0  2  0  0  0  0  0  0
  186.2540  177.3350  143.1850 C   0  0  0  0  0  2  0  0  0  0  0  0
  184.9270  177.4110  142.5890 N   0  0  0  0  0  2  0  0  0  0  0  0
  184.2220  178.5130  143.2120 C   0  0  0  0  0  1  0  0  0  0  0  0
  190.6330  175.2350  145.6140 C   0  0  0  0  0  2  0  0  0  0  0  0
  189.4670  176.0990  145.8220 N   0  0  0  0  0  2  0  0  0  0  0  0
  188.5390  174.8520  147.5670 O   0  0  0  0  0  0  0  0  0  0  0  0
  188.4440  175.8490  146.8000 C   0  0  0  0  0  0  0  0  0  0  0  0
  186.2720  180.1960  148.1820 C   0  0  0  0  0  1  0  0  0  0  0  0
  184.9820  178.3470  147.1260 C   0  0  0  0  0  3  0  0  0  0  0  0
  184.9030  177.1060  146.5010 C   0  0  0  0  0  3  0  0  0  0  0  0
  187.2660  176.7430  146.9270 C   0  0  0  0  0  0  0  0  0  0  0  0
  186.2070  178.8250  147.6050 C   0  0  0  0  0  0  0  0  0  0  0  0
  187.3580  178.0320  147.4980 C   0  0  0  0  0  0  0  0  0  0  0  0
  188.5670  178.5370  147.8720 F   0  0  0  0  0  0  0  0  0  0  0  0
  186.0430  176.3160  146.3890 C   0  0  0  0  0  3  0  0  0  0  0  0
  1 27  1  1  0  0  0
  1  5  1  0  0  0  0
  1  4  1  0  0  0  0
  2 51  1  1  0  0  0
  4  2  1  0  0  0  0
  5  6  2  0  0  0  0
  6  2  1  0  0  0  0
  6  3  1  0  0  0  0
  7  3  1  0  0  0  0
  8 14  1  0  0  0  0
  9  8  1  0  0  0  0
 10 13  1  0  0  0  0
 10  9  2  0  0  0  0
 11  8  1  0  0  0  0
 12  7  1  0  0  0  0
 12 10  1  0  0  0  0
 13 11  2  0  0  0  0
 15 16  1  6  0  0  0
 15 14  1  0  0  0  0
 18 15  1  6  0  0  0
 18 17  1  0  0  0  0
 19 24  1  6  0  0  0
 19 20  1  0  0  0  0
 20 23  1  6  0  0  0
 20 17  1  0  0  0  0
 21 19  1  0  0  0  0
 21 18  1  0  0  0  0
 23 22  1  0  0  0  0
 25 26  1  0  0  0  0
 26 24  1  0  0  0  0
 27 47  1  1  0  0  0
 28 30  1  0  0  0  0
 29 30  2  0  0  0  0
 30 27  1  0  0  0  0
 31 28  1  0  0  0  0
 32 31  1  0  0  0  0
 33 34  1  0  0  0  0
 33 32  1  0  0  0  0
 35 38  1  0  0  0  0
 36 45  1  0  0  0  0
 36 43  1  1  0  0  0
 37 42  2  0  0  0  0
 38 43  1  0  0  0  0
 40 44  1  0  0  0  0
 40 35  1  0  0  0  0
 41 44  1  6  0  0  0
 41 46  1  0  0  0  0
 41 36  1  0  0  0  0
 41 45  1  0  0  0  0
 45 39  1  6  0  0  0
 45 42  1  0  0  0  0
 46 34  1  6  0  0  0
 46 37  1  0  0  0  0
 47 48  1  0  0  0  0
 49 48  1  0  0  0  0
 49 50  1  0  0  0  0
 51 52  1  0  0  0  0
 52 54  1  0  0  0  0
 54 58  1  0  0  0  0
 54 53  2  0  0  0  0
 56 59  1  0  0  0  0
 57 56  2  0  0  0  0
 58 60  1  0  0  0  0
 59 55  1  0  0  0  0
 60 59  2  0  0  0  0
 60 61  1  0  0  0  0
 62 57  1  0  0  0  0
 62 58  2  0  0  0  0
M  END
>  <MODEL>
1

>  <REMARK>
 VINA RESULT:      -6.9      0.000      0.000
  Name = 
  21 active torsions:
  status: ('A' for Active; 'I' for Inactive)
    1  A    between atoms: N_1  and  C_54
    2  A    between atoms: C_3  and  C_60
    3  A    between atoms: C_3  and  C_62
    4  A    between atoms: C_5  and  C_18
    5  A    between atoms: C_5  and  C_20
    6  A    between atoms: C_6  and  C_44
    7  A    between atoms: C_6  and  C_60
    8  A    between atoms: C_7  and  C_47
    9  A    between atoms: C_8  and  C_54
   10  A    between atoms: N_11  and  C_20
   11  A    between atoms: C_14  and  C_38
   12  A    between atoms: N_15  and  C_44
   13  A    between atoms: C_19  and  N_24
   14  A    between atoms: C_19  and  N_55
   15  A    between atoms: N_21  and  C_46
   16  A    between atoms: O_26  and  C_31
   17  A    between atoms: C_30  and  C_53
   18  A    between atoms: C_31  and  C_36
   19  A    between atoms: C_39  and  C_46
   20  A    between atoms: C_39  and  C_47
   21  A    between atoms: C_47  and  C_49
                            x       y       z     vdW  Elec       q    Type
                         _______ _______ _______ _____ _____    ______ ____

>  <TORSDO>
F 21

$$$$
=
 OpenBabel11042414133D

 62 68  0  0  1  0  0  0  0  0999 V2000
  189.4990  174.9890  141.7300 C   0  0  1  0  0  3  0  0  0  0  0  0
  190.3890  174.5620  144.1510 C   0  0  2  0  0  3  0  0  0  0  0  0
  189.3850  172.2210  144.1110 N   0  0  0  0  0  2  0  0  0  0  0  0
  190.4180  175.9670  142.9730 S   0  0  0  0  0  0  0  0  0  0  0  0
  189.0640  173.7500  142.3570 N   0  0  0  0  0  0  0  0  0  0  0  0
  189.5200  173.5150  143.5390 C   0  0  0  0  0  0  0  0  0  0  0  0
  190.4370  171.2440  143.8490 C   0  0  0  0  0  2  0  0  0  0  0  0
  194.7660  170.5820  145.1770 N   0  0  0  0  0  0  0  0  0  0  0  0
  193.8790  171.6000  144.8520 N   0  0  0  0  0  0  0  0  0  0  0  0
  192.8760  171.1060  144.2170 C   0  0  0  0  0  0  0  0  0  0  0  0
  194.3340  169.3080  144.6300 C   0  0  0  0  0  3  0  0  0  0  0  0
  191.7260  171.8940  143.8990 N   0  0  0  0  0  2  0  0  0  0  0  0
  192.9380  169.6150  144.0770 C   0  0  0  0  0  3  0  0  0  0  0  0
  195.9490  170.8010  145.9810 C   0  0  0  0  0  2  0  0  0  0  0  0
  197.1430  171.2710  145.1580 C   0  0  1  0  0  3  0  0  0  0  0  0
  197.1900  170.7360  143.8560 O   0  0  0  0  0  1  0  0  0  0  0  0
  196.5030  173.4090  146.1420 O   0  0  0  0  0  0  0  0  0  0  0  0
  197.2580  172.7890  145.1260 C   0  0  2  0  0  3  0  0  0  0  0  0
  196.5010  174.7570  144.1520 C   0  0  1  0  0  3  0  0  0  0  0  0
  196.0650  174.6590  145.6270 C   0  0  1  0  0  3  0  0  0  0  0  0
  196.8270  173.3420  143.7870 C   0  0  0  0  0  2  0  0  0  0  0  0
  194.1960  176.0980  146.5460 C   0  0  0  0  0  1  0  0  0  0  0  0
  194.5450  174.7820  145.8540 C   0  0  0  0  0  2  0  0  0  0  0  0
  195.5130  175.4020  143.1790 C   0  0  0  0  0  2  0  0  0  0  0  0
  197.1160  176.9260  143.1010 C   0  0  0  0  0  1  0  0  0  0  0  0
  196.1640  176.2760  142.3190 O   0  0  0  0  0  0  0  0  0  0  0  0
  188.3430  175.7810  141.0850 C   0  0  1  0  0  3  0  0  0  0  0  0
  188.5690  173.9430  139.3760 N   0  0  0  0  0  2  0  0  0  0  0  0
  187.1510  175.7620  138.9980 O   0  0  0  0  0  0  0  0  0  0  0  0
  187.9540  175.1770  139.7740 C   0  0  0  0  0  0  0  0  0  0  0  0
  188.3470  173.2630  138.1230 C   0  0  0  0  0  2  0  0  0  0  0  0
  189.6210  173.0830  137.3220 C   0  0  0  0  0  2  0  0  0  0  0  0
  190.5710  172.2840  138.1820 C   0  0  0  0  0  2  0  0  0  0  0  0
  192.0410  172.4860  137.8210 C   0  0  0  0  0  2  0  0  0  0  0  0
  194.8490  170.1640  139.2370 C   0  0  0  0  0  2  0  0  0  0  0  0
  195.2140  172.9810  140.2230 C   0  0  2  0  0  3  0  0  0  0  0  0
  192.1500  173.2960  140.1670 C   0  0  0  0  0  3  0  0  0  0  0  0
  195.0570  170.5010  140.7580 C   0  0  0  0  0  2  0  0  0  0  0  0
  195.0180  175.2800  139.2630 O   0  0  0  0  0  1  0  0  0  0  0  0
  195.7560  170.9950  138.2880 C   0  0  0  0  0  2  0  0  0  0  0  0
  194.2840  173.0060  138.9790 C   0  0  2  0  0  0  0  0  0  0  0  0
  193.0470  174.4530  140.5500 C   0  0  0  0  0  3  0  0  0  0  0  0
  194.6820  171.9320  141.2000 C   0  0  0  0  0  2  0  0  0  0  0  0
  195.1750  172.3830  137.8890 C   0  0  0  0  0  2  0  0  0  0  0  0
  194.3870  174.2010  139.8830 C   0  0  1  0  0  0  0  0  0  0  0  0
  192.8510  172.4680  139.1150 C   0  0  2  0  0  3  0  0  0  0  0  0
  187.1110  175.8970  142.0060 C   0  0  0  0  0  2  0  0  0  0  0  0
  186.3610  177.2160  141.7940 C   0  0  0  0  0  2  0  0  0  0  0  0
  185.0460  177.1600  142.4190 N   0  0  0  0  0  2  0  0  0  0  0  0
  184.1840  178.0970  141.7270 C   0  0  0  0  0  1  0  0  0  0  0  0
  189.8270  174.9990  145.5000 C   0  0  0  0  0  2  0  0  0  0  0  0
  188.7080  175.9350  145.3560 N   0  0  0  0  0  2  0  0  0  0  0  0
  187.8970  175.6950  147.5340 O   0  0  0  0  0  0  0  0  0  0  0  0
  187.7660  176.2300  146.3990 C   0  0  0  0  0  0  0  0  0  0  0  0
  185.6590  180.2420  144.1650 C   0  0  0  0  0  1  0  0  0  0  0  0
  184.4250  178.8440  145.8150 C   0  0  0  0  0  3  0  0  0  0  0  0
  184.3160  177.7290  146.6420 C   0  0  0  0  0  3  0  0  0  0  0  0
  186.6280  177.1550  146.1700 C   0  0  0  0  0  0  0  0  0  0  0  0
  185.6100  179.0950  145.1130 C   0  0  0  0  0  0  0  0  0  0  0  0
  186.7130  178.2460  145.2770 C   0  0  0  0  0  0  0  0  0  0  0  0
  187.8310  178.4320  144.5200 F   0  0  0  0  0  0  0  0  0  0  0  0
  185.4070  176.8820  146.8050 C   0  0  0  0  0  3  0  0  0  0  0  0
  1 27  1  1  0  0  0
  1  5  1  0  0  0  0
  1  4  1  0  0  0  0
  2 51  1  1  0  0  0
  4  2  1  0  0  0  0
  5  6  2  0  0  0  0
  6  3  1  0  0  0  0
  6  2  1  0  0  0  0
  7 12  1  0  0  0  0
  7  3  1  0  0  0  0
  8 14  1  0  0  0  0
  9  8  1  0  0  0  0
 10  9  2  0  0  0  0
 11  8  1  0  0  0  0
 12 10  1  0  0  0  0
 13 10  1  0  0  0  0
 13 11  2  0  0  0  0
 15 16  1  6  0  0  0
 15 14  1  0  0  0  0
 18 15  1  6  0  0  0
 18 17  1  0  0  0  0
 19 24  1  6  0  0  0
 19 20  1  0  0  0  0
 20 23  1  6  0  0  0
 20 17  1  0  0  0  0
 21 19  1  0  0  0  0
 21 18  1  0  0  0  0
 23 22  1  0  0  0  0
 26 25  1  0  0  0  0
 26 24  1  0  0  0  0
 27 47  1  1  0  0  0
 28 30  1  0  0  0  0
 29 30  2  0  0  0  0
 30 27  1  0  0  0  0
 31 28  1  0  0  0  0
 32 31  1  0  0  0  0
 32 33  1  0  0  0  0
 34 33  1  0  0  0  0
 35 38  1  0  0  0  0
 36 43  1  1  0  0  0
 37 42  2  0  0  0  0
 38 43  1  0  0  0  0
 40 35  1  0  0  0  0
 41 44  1  6  0  0  0
 41 46  1  0  0  0  0
 41 45  1  0  0  0  0
 41 36  1  0  0  0  0
 44 40  1  0  0  0  0
 45 39  1  6  0  0  0
 45 36  1  0  0  0  0
 45 42  1  0  0  0  0
 46 34  1  6  0  0  0
 46 37  1  0  0  0  0
 48 47  1  0  0  0  0
 48 49  1  0  0  0  0
 50 49  1  0  0  0  0
 52 51  1  0  0  0  0
 52 54  1  0  0  0  0
 54 53  2  0  0  0  0
 55 59  1  0  0  0  0
 56 57  1  0  0  0  0
 57 62  2  0  0  0  0
 58 54  1  0  0  0  0
 58 62  1  0  0  0  0
 59 60  1  0  0  0  0
 59 56  2  0  0  0  0
 60 58  2  0  0  0  0
 61 60  1  0  0  0  0
M  END
>  <MODEL>
2

>  <REMARK>
 VINA RESULT:      -6.6      1.464      2.145
  Name = 
  21 active torsions:
  status: ('A' for Active; 'I' for Inactive)
    1  A    between atoms: N_1  and  C_54
    2  A    between atoms: C_3  and  C_60
    3  A    between atoms: C_3  and  C_62
    4  A    between atoms: C_5  and  C_18
    5  A    between atoms: C_5  and  C_20
    6  A    between atoms: C_6  and  C_44
    7  A    between atoms: C_6  and  C_60
    8  A    between atoms: C_7  and  C_47
    9  A    between atoms: C_8  and  C_54
   10  A    between atoms: N_11  and  C_20
   11  A    between atoms: C_14  and  C_38
   12  A    between atoms: N_15  and  C_44
   13  A    between atoms: C_19  and  N_24
   14  A    between atoms: C_19  and  N_55
   15  A    between atoms: N_21  and  C_46
   16  A    between atoms: O_26  and  C_31
   17  A    between atoms: C_30  and  C_53
   18  A    between atoms: C_31  and  C_36
   19  A    between atoms: C_39  and  C_46
   20  A    between atoms: C_39  and  C_47
   21  A    between atoms: C_47  and  C_49
                            x       y       z     vdW  Elec       q    Type
                         _______ _______ _______ _____ _____    ______ ____

>  <TORSDO>
F 21

$$$$
=
 OpenBabel11042414133D

 62 68  0  0  1  0  0  0  0  0999 V2000
  193.5110  169.5940  140.9680 C   0  0  1  0  0  3  0  0  0  0  0  0
  191.6600  171.4300  141.1710 C   0  0  2  0  0  3  0  0  0  0  0  0
  191.5170  171.5720  138.6310 N   0  0  0  0  0  2  0  0  0  0  0  0
  192.6840  170.4650  142.3470 S   0  0  0  0  0  0  0  0  0  0  0  0
  193.1040  170.2260  139.7210 N   0  0  0  0  0  0  0  0  0  0  0  0
  192.1720  171.1120  139.8060 C   0  0  0  0  0  0  0  0  0  0  0  0
  190.3470  170.8360  138.1670 C   0  0  0  0  0  2  0  0  0  0  0  0
  187.9800  174.3540  139.8900 N   0  0  0  0  0  0  0  0  0  0  0  0
  188.2000  172.9960  140.0900 N   0  0  0  0  0  0  0  0  0  0  0  0
  188.7290  172.4890  139.0340 C   0  0  0  0  0  0  0  0  0  0  0  0
  188.3300  174.7530  138.5380 C   0  0  0  0  0  3  0  0  0  0  0  0
  189.2140  171.1440  139.0100 N   0  0  0  0  0  2  0  0  0  0  0  0
  188.9960  173.5000  137.9600 C   0  0  0  0  0  3  0  0  0  0  0  0
  187.4850  175.2280  140.9310 C   0  0  0  0  0  2  0  0  0  0  0  0
  187.4730  176.6940  140.5130 C   0  0  1  0  0  3  0  0  0  0  0  0
  186.5390  176.9970  139.5050 O   0  0  0  0  0  1  0  0  0  0  0  0
  187.7520  177.0500  142.9100 O   0  0  0  0  0  0  0  0  0  0  0  0
  187.3110  177.6300  141.7030 C   0  0  2  0  0  3  0  0  0  0  0  0
  185.8550  178.4720  143.3060 C   0  0  1  0  0  3  0  0  0  0  0  0
  186.9390  177.5820  143.9460 C   0  0  1  0  0  3  0  0  0  0  0  0
  185.8730  178.0650  141.8650 C   0  0  0  0  0  2  0  0  0  0  0  0
  186.1240  176.8560  146.2310 C   0  0  0  0  0  1  0  0  0  0  0  0
  186.3890  176.4160  144.7920 C   0  0  0  0  0  2  0  0  0  0  0  0
  184.4550  178.4090  143.9170 C   0  0  0  0  0  2  0  0  0  0  0  0
  185.2060  180.4160  144.4710 C   0  0  0  0  0  1  0  0  0  0  0  0
  184.2560  179.4550  144.8070 O   0  0  0  0  0  0  0  0  0  0  0  0
  195.0410  169.5230  141.1410 C   0  0  1  0  0  3  0  0  0  0  0  0
  195.5350  171.9810  140.8860 N   0  0  0  0  0  2  0  0  0  0  0  0
  196.3630  170.4290  139.3490 O   0  0  0  0  0  0  0  0  0  0  0  0
  195.7090  170.6410  140.4060 C   0  0  0  0  0  0  0  0  0  0  0  0
  196.0620  173.1700  140.2630 C   0  0  0  0  0  2  0  0  0  0  0  0
  197.4610  173.5090  140.7400 C   0  0  0  0  0  2  0  0  0  0  0  0
  197.3960  173.6200  142.2450 C   0  0  0  0  0  2  0  0  0  0  0  0
  196.7660  174.9210  142.7350 C   0  0  0  0  0  2  0  0  0  0  0  0
  195.8470  172.0090  145.1760 C   0  0  0  0  0  2  0  0  0  0  0  0
  194.4180  174.5340  145.9640 C   0  0  2  0  0  3  0  0  0  0  0  0
  194.3220  175.2960  142.9800 C   0  0  0  0  0  3  0  0  0  0  0  0
  194.2980  172.0490  145.4430 C   0  0  0  0  0  2  0  0  0  0  0  0
  194.9740  176.9660  146.1050 O   0  0  0  0  0  1  0  0  0  0  0  0
  196.6720  172.8470  146.1910 C   0  0  0  0  0  2  0  0  0  0  0  0
  195.6090  174.9040  145.0390 C   0  0  2  0  0  0  0  0  0  0  0  0
  193.7810  176.2290  144.0430 C   0  0  0  0  0  3  0  0  0  0  0  0
  193.6130  173.4230  145.2880 C   0  0  0  0  0  2  0  0  0  0  0  0
  196.8160  174.3530  145.8200 C   0  0  0  0  0  2  0  0  0  0  0  0
  194.5230  175.9010  145.3250 C   0  0  1  0  0  0  0  0  0  0  0  0
  195.5190  174.5650  143.5430 C   0  0  2  0  0  3  0  0  0  0  0  0
  195.4760  169.5210  142.6200 C   0  0  0  0  0  2  0  0  0  0  0  0
  196.0560  168.1670  143.0440 C   0  0  0  0  0  2  0  0  0  0  0  0
  197.1360  168.3540  144.0040 N   0  0  0  0  0  2  0  0  0  0  0  0
  197.9380  169.4750  143.5580 C   0  0  0  0  0  1  0  0  0  0  0  0
  191.7800  172.9250  141.4500 C   0  0  0  0  0  2  0  0  0  0  0  0
  191.2770  173.2810  142.7800 N   0  0  0  0  0  2  0  0  0  0  0  0
  190.6510  175.4660  142.2350 O   0  0  0  0  0  0  0  0  0  0  0  0
  190.7410  174.5700  143.1190 C   0  0  0  0  0  0  0  0  0  0  0  0
  189.8200  177.7960  146.8960 C   0  0  0  0  0  1  0  0  0  0  0  0
  189.4250  175.3480  147.1190 C   0  0  0  0  0  3  0  0  0  0  0  0
  189.3650  174.0610  146.5910 C   0  0  0  0  0  3  0  0  0  0  0  0
  190.2900  174.8770  144.4990 C   0  0  0  0  0  0  0  0  0  0  0  0
  189.8590  176.4200  146.3300 C   0  0  0  0  0  0  0  0  0  0  0  0
  190.2830  176.1930  145.0130 C   0  0  0  0  0  0  0  0  0  0  0  0
  190.6100  177.2480  144.2150 F   0  0  0  0  0  0  0  0  0  0  0  0
  189.7810  173.8320  145.2840 C   0  0  0  0  0  3  0  0  0  0  0  0
  1 27  1  1  0  0  0
  1  4  1  0  0  0  0
  2 51  1  1  0  0  0
  2  4  1  0  0  0  0
  3  6  1  0  0  0  0
  5  6  2  0  0  0  0
  5  1  1  0  0  0  0
  6  2  1  0  0  0  0
  7  3  1  0  0  0  0
  7 12  1  0  0  0  0
  8  9  1  0  0  0  0
  8 14  1  0  0  0  0
 10  9  2  0  0  0  0
 11  8  1  0  0  0  0
 12 10  1  0  0  0  0
 13 11  2  0  0  0  0
 13 10  1  0  0  0  0
 15 16  1  6  0  0  0
 15 14  1  0  0  0  0
 17 20  1  0  0  0  0
 18 15  1  6  0  0  0
 18 21  1  0  0  0  0
 18 17  1  0  0  0  0
 19 24  1  1  0  0  0
 19 20  1  0  0  0  0
 20 23  1  6  0  0  0
 21 19  1  0  0  0  0
 23 22  1  0  0  0  0
 24 26  1  0  0  0  0
 25 26  1  0  0  0  0
 27 47  1  1  0  0  0
 29 30  2  0  0  0  0
 30 28  1  0  0  0  0
 30 27  1  0  0  0  0
 31 32  1  0  0  0  0
 31 28  1  0  0  0  0
 32 33  1  0  0  0  0
 33 34  1  0  0  0  0
 35 38  1  0  0  0  0
 35 40  1  0  0  0  0
 36 43  1  6  0  0  0
 37 46  1  0  0  0  0
 37 42  2  0  0  0  0
 41 45  1  0  0  0  0
 41 44  1  1  0  0  0
 41 36  1  0  0  0  0
 42 45  1  0  0  0  0
 43 38  1  0  0  0  0
 44 40  1  0  0  0  0
 45 36  1  0  0  0  0
 45 39  1  1  0  0  0
 46 34  1  6  0  0  0
 46 41  1  0  0  0  0
 47 48  1  0  0  0  0
 48 49  1  0  0  0  0
 50 49  1  0  0  0  0
 51 52  1  0  0  0  0
 52 54  1  0  0  0  0
 53 54  2  0  0  0  0
 54 58  1  0  0  0  0
 57 56  1  0  0  0  0
 58 60  2  0  0  0  0
 58 62  1  0  0  0  0
 59 55  1  0  0  0  0
 59 56  2  0  0  0  0
 60 59  1  0  0  0  0
 61 60  1  0  0  0  0
 62 57  2  0  0  0  0
M  END
>  <MODEL>
3

>  <REMARK>
 VINA RESULT:      -6.3      2.497      8.855
  Name = 
  21 active torsions:
  status: ('A' for Active; 'I' for Inactive)
    1  A    between atoms: N_1  and  C_54
    2  A    between atoms: C_3  and  C_60
    3  A    between atoms: C_3  and  C_62
    4  A    between atoms: C_5  and  C_18
    5  A    between atoms: C_5  and  C_20
    6  A    between atoms: C_6  and  C_44
    7  A    between atoms: C_6  and  C_60
    8  A    between atoms: C_7  and  C_47
    9  A    between atoms: C_8  and  C_54
   10  A    between atoms: N_11  and  C_20
   11  A    between atoms: C_14  and  C_38
   12  A    between atoms: N_15  and  C_44
   13  A    between atoms: C_19  and  N_24
   14  A    between atoms: C_19  and  N_55
   15  A    between atoms: N_21  and  C_46
   16  A    between atoms: O_26  and  C_31
   17  A    between atoms: C_30  and  C_53
   18  A    between atoms: C_31  and  C_36
   19  A    between atoms: C_39  and  C_46
   20  A    between atoms: C_39  and  C_47
   21  A    between atoms: C_47  and  C_49
                            x       y       z     vdW  Elec       q    Type
                         _______ _______ _______ _____ _____    ______ ____

>  <TORSDO>
F 21

$$$$
=
 OpenBabel11042414133D

 62 68  0  0  1  0  0  0  0  0999 V2000
  188.3640  176.5590  143.2590 C   0  0  1  0  0  3  0  0  0  0  0  0
  190.8500  176.1460  143.9590 C   0  0  2  0  0  3  0  0  0  0  0  0
  190.1020  174.2890  145.5350 N   0  0  0  0  0  2  0  0  0  0  0  0
  189.9790  177.3110  142.8420 S   0  0  0  0  0  0  0  0  0  0  0  0
  188.5690  175.6200  144.3520 N   0  0  0  0  0  0  0  0  0  0  0  0
  189.7920  175.3870  144.6860 C   0  0  0  0  0  0  0  0  0  0  0  0
  190.3520  172.9930  144.9140 C   0  0  0  0  0  2  0  0  0  0  0  0
  193.4620  170.0860  143.2340 N   0  0  0  0  0  0  0  0  0  0  0  0
  193.3650  171.3200  143.8640 N   0  0  0  0  0  0  0  0  0  0  0  0
  192.1580  171.7540  143.7720 C   0  0  0  0  0  0  0  0  0  0  0  0
  192.2090  169.7160  142.5990 C   0  0  0  0  0  3  0  0  0  0  0  0
  191.7250  172.9240  144.4690 N   0  0  0  0  0  2  0  0  0  0  0  0
  191.2340  170.7950  143.0830 C   0  0  0  0  0  3  0  0  0  0  0  0
  194.6710  169.2910  143.2500 C   0  0  0  0  0  2  0  0  0  0  0  0
  195.6700  169.7170  142.1820 C   0  0  1  0  0  3  0  0  0  0  0  0
  195.6910  168.8840  141.0470 O   0  0  0  0  0  1  0  0  0  0  0  0
  194.6030  171.3370  140.7030 O   0  0  0  0  0  0  0  0  0  0  0  0
  195.4970  171.1760  141.7800 C   0  0  2  0  0  3  0  0  0  0  0  0
  196.3730  172.9580  140.5740 C   0  0  1  0  0  3  0  0  0  0  0  0
  195.0490  172.4620  139.9600 C   0  0  1  0  0  3  0  0  0  0  0  0
  196.8220  171.8040  141.4160 C   0  0  0  0  0  2  0  0  0  0  0  0
  194.3090  170.8230  138.1770 C   0  0  0  0  0  1  0  0  0  0  0  0
  195.1440  172.0670  138.4720 C   0  0  0  0  0  2  0  0  0  0  0  0
  197.4540  173.4330  139.6040 C   0  0  0  0  0  2  0  0  0  0  0  0
  196.9060  175.5740  139.7200 C   0  0  0  0  0  1  0  0  0  0  0  0
  197.9410  174.6780  139.9760 O   0  0  0  0  0  0  0  0  0  0  0  0
  187.2770  177.6100  143.5580 C   0  0  1  0  0  3  0  0  0  0  0  0
  186.7000  177.1290  141.1530 N   0  0  0  0  0  2  0  0  0  0  0  0
  185.7360  178.9360  142.2770 O   0  0  0  0  0  0  0  0  0  0  0  0
  186.5020  177.9360  142.3220 C   0  0  0  0  0  0  0  0  0  0  0  0
  186.0750  177.3450  139.8700 C   0  0  0  0  0  2  0  0  0  0  0  0
  186.8430  176.7010  138.7320 C   0  0  0  0  0  2  0  0  0  0  0  0
  187.4840  175.4510  139.2860 C   0  0  0  0  0  2  0  0  0  0  0  0
  188.2420  174.6380  138.2400 C   0  0  0  0  0  2  0  0  0  0  0  0
  189.8720  171.3150  136.9800 C   0  0  0  0  0  2  0  0  0  0  0  0
  191.1010  172.1690  139.5880 C   0  0  2  0  0  3  0  0  0  0  0  0
  188.3730  173.3680  140.3710 C   0  0  0  0  0  3  0  0  0  0  0  0
  190.0180  170.3350  138.2000 C   0  0  0  0  0  2  0  0  0  0  0  0
  191.8380  174.3180  140.6290 O   0  0  0  0  0  1  0  0  0  0  0  0
  191.1130  172.2240  136.7630 C   0  0  0  0  0  2  0  0  0  0  0  0
  190.3830  173.3910  138.9530 C   0  0  2  0  0  0  0  0  0  0  0  0
  189.5750  173.4990  141.2820 C   0  0  0  0  0  3  0  0  0  0  0  0
  190.1280  170.9900  139.5940 C   0  0  0  0  0  2  0  0  0  0  0  0
  191.1090  173.5350  137.6020 C   0  0  0  0  0  2  0  0  0  0  0  0
  190.8030  173.4140  140.3950 C   0  0  1  0  0  0  0  0  0  0  0  0
  188.8460  173.4200  138.9360 C   0  0  2  0  0  3  0  0  0  0  0  0
  186.3210  177.1770  144.6880 C   0  0  0  0  0  2  0  0  0  0  0  0
  186.3320  178.1670  145.8580 C   0  0  0  0  0  2  0  0  0  0  0  0
  185.0140  178.2410  146.4740 N   0  0  0  0  0  2  0  0  0  0  0  0
  184.0880  178.7550  145.4840 C   0  0  0  0  0  1  0  0  0  0  0  0
  191.7360  176.9020  144.9440 C   0  0  0  0  0  2  0  0  0  0  0  0
  193.0660  176.2960  145.0690 N   0  0  0  0  0  2  0  0  0  0  0  0
  193.5800  176.3510  142.7900 O   0  0  0  0  0  0  0  0  0  0  0  0
  193.9350  176.0290  143.9570 C   0  0  0  0  0  0  0  0  0  0  0  0
  196.9340  172.6110  146.1580 C   0  0  0  0  0  1  0  0  0  0  0  0
  197.7790  174.2050  144.4420 C   0  0  0  0  0  3  0  0  0  0  0  0
  197.5830  175.2000  143.4890 C   0  0  0  0  0  3  0  0  0  0  0  0
  195.2520  175.3720  144.1500 C   0  0  0  0  0  0  0  0  0  0  0  0
  196.7080  173.7410  145.2160 C   0  0  0  0  0  0  0  0  0  0  0  0
  195.4370  174.3130  145.0660 C   0  0  0  0  0  0  0  0  0  0  0  0
  194.3760  173.7950  145.7460 F   0  0  0  0  0  0  0  0  0  0  0  0
  196.3220  175.7680  143.3340 C   0  0  0  0  0  3  0  0  0  0  0  0
  1 27  1  1  0  0  0
  1  5  1  0  0  0  0
  2  6  1  0  0  0  0
  2 51  1  1  0  0  0
  4  1  1  0  0  0  0
  4  2  1  0  0  0  0
  5  6  2  0  0  0  0
  6  3  1  0  0  0  0
  7  3  1  0  0  0  0
  8 14  1  0  0  0  0
  8  9  1  0  0  0  0
 10  9  2  0  0  0  0
 10 12  1  0  0  0  0
 11 13  2  0  0  0  0
 11  8  1  0  0  0  0
 12  7  1  0  0  0  0
 13 10  1  0  0  0  0
 15 16  1  6  0  0  0
 15 14  1  0  0  0  0
 17 18  1  0  0  0  0
 18 15  1  6  0  0  0
 19 24  1  6  0  0  0
 19 21  1  0  0  0  0
 20 23  1  6  0  0  0
 20 19  1  0  0  0  0
 20 17  1  0  0  0  0
 21 18  1  0  0  0  0
 22 23  1  0  0  0  0
 24 26  1  0  0  0  0
 25 26  1  0  0  0  0
 27 47  1  1  0  0  0
 28 30  1  0  0  0  0
 29 30  2  0  0  0  0
 30 27  1  0  0  0  0
 31 28  1  0  0  0  0
 32 33  1  0  0  0  0
 32 31  1  0  0  0  0
 34 33  1  0  0  0  0
 35 38  1  0  0  0  0
 36 43  1  1  0  0  0
 36 45  1  0  0  0  0
 37 42  2  0  0  0  0
 38 43  1  0  0  0  0
 40 35  1  0  0  0  0
 40 44  1  0  0  0  0
 41 44  1  6  0  0  0
 41 36  1  0  0  0  0
 41 45  1  0  0  0  0
 45 39  1  1  0  0  0
 45 42  1  0  0  0  0
 46 34  1  1  0  0  0
 46 41  1  0  0  0  0
 46 37  1  0  0  0  0
 47 48  1  0  0  0  0
 48 49  1  0  0  0  0
 50 49  1  0  0  0  0
 51 52  1  0  0  0  0
 53 54  2  0  0  0  0
 54 58  1  0  0  0  0
 54 52  1  0  0  0  0
 56 59  1  0  0  0  0
 57 56  2  0  0  0  0
 58 60  1  0  0  0  0
 59 55  1  0  0  0  0
 60 59  2  0  0  0  0
 60 61  1  0  0  0  0
 62 57  1  0  0  0  0
 62 58  2  0  0  0  0
M  END
>  <MODEL>
4

>  <REMARK>
 VINA RESULT:      -6.2      2.305      5.283
  Name = 
  21 active torsions:
  status: ('A' for Active; 'I' for Inactive)
    1  A    between atoms: N_1  and  C_54
    2  A    between atoms: C_3  and  C_60
    3  A    between atoms: C_3  and  C_62
    4  A    between atoms: C_5  and  C_18
    5  A    between atoms: C_5  and  C_20
    6  A    between atoms: C_6  and  C_44
    7  A    between atoms: C_6  and  C_60
    8  A    between atoms: C_7  and  C_47
    9  A    between atoms: C_8  and  C_54
   10  A    between atoms: N_11  and  C_20
   11  A    between atoms: C_14  and  C_38
   12  A    between atoms: N_15  and  C_44
   13  A    between atoms: C_19  and  N_24
   14  A    between atoms: C_19  and  N_55
   15  A    between atoms: N_21  and  C_46
   16  A    between atoms: O_26  and  C_31
   17  A    between atoms: C_30  and  C_53
   18  A    between atoms: C_31  and  C_36
   19  A    between atoms: C_39  and  C_46
   20  A    between atoms: C_39  and  C_47
   21  A    between atoms: C_47  and  C_49
                            x       y       z     vdW  Elec       q    Type
                         _______ _______ _______ _____ _____    ______ ____

>  <TORSDO>
F 21

$$$$
=
 OpenBabel11042414133D

 62 68  0  0  1  0  0  0  0  0999 V2000
  188.4590  173.2540  139.8610 C   0  0  1  0  0  3  0  0  0  0  0  0
  187.7580  174.4200  142.0950 C   0  0  2  0  0  3  0  0  0  0  0  0
  188.0420  176.7010  140.9970 N   0  0  0  0  0  2  0  0  0  0  0  0
  188.0010  172.6880  141.5400 S   0  0  0  0  0  0  0  0  0  0  0  0
  188.5890  174.7030  139.8890 N   0  0  0  0  0  0  0  0  0  0  0  0
  188.2190  175.2910  140.9750 C   0  0  0  0  0  0  0  0  0  0  0  0
  186.7330  177.2320  140.6320 C   0  0  0  0  0  2  0  0  0  0  0  0
  185.2570  178.3680  144.8120 N   0  0  0  0  0  0  0  0  0  0  0  0
  185.2270  177.3180  143.9030 N   0  0  0  0  0  0  0  0  0  0  0  0
  185.5510  177.7520  142.7380 C   0  0  0  0  0  0  0  0  0  0  0  0
  185.5540  179.6280  144.1550 C   0  0  0  0  0  3  0  0  0  0  0  0
  185.7630  176.8640  141.6370 N   0  0  0  0  0  2  0  0  0  0  0  0
  185.9100  179.2080  142.7250 C   0  0  0  0  0  3  0  0  0  0  0  0
  185.0360  178.1820  146.2300 C   0  0  0  0  0  2  0  0  0  0  0  0
  186.3350  178.0660  147.0190 C   0  0  1  0  0  3  0  0  0  0  0  0
  186.1570  177.7360  148.3760 O   0  0  0  0  0  1  0  0  0  0  0  0
  188.0420  176.3460  147.2930 O   0  0  0  0  0  0  0  0  0  0  0  0
  187.3280  177.1210  146.3570 C   0  0  2  0  0  3  0  0  0  0  0  0
  189.4410  176.8980  145.4180 C   0  0  1  0  0  3  0  0  0  0  0  0
  189.3310  176.1160  146.7420 C   0  0  1  0  0  3  0  0  0  0  0  0
  188.3120  177.8780  145.4940 C   0  0  0  0  0  2  0  0  0  0  0  0
  191.3920  175.3520  147.9990 C   0  0  0  0  0  1  0  0  0  0  0  0
  190.3940  176.4900  147.7950 C   0  0  0  0  0  2  0  0  0  0  0  0
  190.7820  177.5700  145.1180 C   0  0  0  0  0  2  0  0  0  0  0  0
  191.0140  177.6710  142.9200 C   0  0  0  0  0  1  0  0  0  0  0  0
  191.4140  176.9560  144.0460 O   0  0  0  0  0  0  0  0  0  0  0  0
  189.7130  172.5420  139.3150 C   0  0  1  0  0  3  0  0  0  0  0  0
  191.4830  173.3200  137.6980 N   0  0  0  0  0  2  0  0  0  0  0  0
  189.2180  173.4170  137.1320 O   0  0  0  0  0  0  0  0  0  0  0  0
  190.0940  173.0940  137.9790 C   0  0  0  0  0  0  0  0  0  0  0  0
  192.0090  173.8970  136.4850 C   0  0  0  0  0  2  0  0  0  0  0  0
  192.4820  175.3250  136.6750 C   0  0  0  0  0  2  0  0  0  0  0  0
  193.9560  175.2600  136.9960 C   0  0  0  0  0  2  0  0  0  0  0  0
  194.2550  175.2660  138.4930 C   0  0  0  0  0  2  0  0  0  0  0  0
  195.7870  173.0720  141.3440 C   0  0  0  0  0  2  0  0  0  0  0  0
  196.9360  172.2880  138.6780 C   0  0  2  0  0  3  0  0  0  0  0  0
  196.6390  175.2250  137.7950 C   0  0  0  0  0  3  0  0  0  0  0  0
  197.3350  172.9450  141.1010 C   0  0  0  0  0  2  0  0  0  0  0  0
  196.0760  171.9720  136.3530 O   0  0  0  0  0  1  0  0  0  0  0  0
  194.9590  171.9450  140.6670 C   0  0  0  0  0  2  0  0  0  0  0  0
  195.6220  173.0800  138.4400 C   0  0  2  0  0  0  0  0  0  0  0  0
  197.1520  174.1690  136.8380 C   0  0  0  0  0  3  0  0  0  0  0  0
  197.8120  173.0910  139.6410 C   0  0  0  0  0  2  0  0  0  0  0  0
  194.5800  172.2230  139.1830 C   0  0  0  0  0  2  0  0  0  0  0  0
  196.5880  172.8430  137.3140 C   0  0  1  0  0  0  0  0  0  0  0  0
  195.6110  174.5940  138.7050 C   0  0  2  0  0  3  0  0  0  0  0  0
  190.9110  172.6150  140.2840 C   0  0  0  0  0  2  0  0  0  0  0  0
  191.3340  171.2260  140.7750 C   0  0  0  0  0  2  0  0  0  0  0  0
  191.3150  170.2700  139.6750 N   0  0  0  0  0  2  0  0  0  0  0  0
  192.2970  169.2440  139.9610 C   0  0  0  0  0  1  0  0  0  0  0  0
  188.5680  174.7010  143.3570 C   0  0  0  0  0  2  0  0  0  0  0  0
  189.8590  174.0070  143.3510 N   0  0  0  0  0  2  0  0  0  0  0  0
  189.6380  173.0490  145.4710 O   0  0  0  0  0  0  0  0  0  0  0  0
  190.3490  173.2100  144.4420 C   0  0  0  0  0  0  0  0  0  0  0  0
  195.3700  173.3170  144.9910 C   0  0  0  0  0  1  0  0  0  0  0  0
  194.1620  171.2720  144.2460 C   0  0  0  0  0  3  0  0  0  0  0  0
  192.9930  170.5620  143.9890 C   0  0  0  0  0  3  0  0  0  0  0  0
  191.6870  172.5700  144.3870 C   0  0  0  0  0  0  0  0  0  0  0  0
  194.1070  172.6160  144.6320 C   0  0  0  0  0  0  0  0  0  0  0  0
  192.8700  173.2700  144.7170 C   0  0  0  0  0  0  0  0  0  0  0  0
  192.8080  174.5470  145.1880 F   0  0  0  0  0  0  0  0  0  0  0  0
  191.7620  171.2050  144.0750 C   0  0  0  0  0  3  0  0  0  0  0  0
  1 27  1  1  0  0  0
  1  5  1  0  0  0  0
  1  4  1  0  0  0  0
  2 51  1  1  0  0  0
  4  2  1  0  0  0  0
  5  6  2  0  0  0  0
  6  3  1  0  0  0  0
  6  2  1  0  0  0  0
  7  3  1  0  0  0  0
  7 12  1  0  0  0  0
  8 14  1  0  0  0  0
  9  8  1  0  0  0  0
 10  9  2  0  0  0  0
 11  8  1  0  0  0  0
 12 10  1  0  0  0  0
 13 10  1  0  0  0  0
 13 11  2  0  0  0  0
 14 15  1  0  0  0  0
 15 16  1  1  0  0  0
 18 15  1  1  0  0  0
 18 17  1  0  0  0  0
 19 24  1  1  0  0  0
 19 21  1  0  0  0  0
 19 20  1  0  0  0  0
 20 17  1  0  0  0  0
 20 23  1  1  0  0  0
 21 18  1  0  0  0  0
 23 22  1  0  0  0  0
 25 26  1  0  0  0  0
 26 24  1  0  0  0  0
 27 47  1  1  0  0  0
 28 30  1  0  0  0  0
 29 30  2  0  0  0  0
 30 27  1  0  0  0  0
 31 32  1  0  0  0  0
 31 28  1  0  0  0  0
 32 33  1  0  0  0  0
 33 34  1  0  0  0  0
 36 43  1  1  0  0  0
 37 46  1  0  0  0  0
 38 35  1  0  0  0  0
 40 35  1  0  0  0  0
 41 36  1  0  0  0  0
 41 46  1  0  0  0  0
 41 44  1  1  0  0  0
 42 45  1  0  0  0  0
 42 37  2  0  0  0  0
 43 38  1  0  0  0  0
 44 40  1  0  0  0  0
 45 39  1  6  0  0  0
 45 41  1  0  0  0  0
 45 36  1  0  0  0  0
 46 34  1  6  0  0  0
 47 48  1  0  0  0  0
 49 50  1  0  0  0  0
 49 48  1  0  0  0  0
 52 51  1  0  0  0  0
 52 54  1  0  0  0  0
 54 53  2  0  0  0  0
 56 59  1  0  0  0  0
 57 62  1  0  0  0  0
 57 56  2  0  0  0  0
 58 54  1  0  0  0  0
 58 60  1  0  0  0  0
 59 60  2  0  0  0  0
 59 55  1  0  0  0  0
 60 61  1  0  0  0  0
 62 58  2  0  0  0  0
M  END
>  <MODEL>
5

>  <REMARK>
 VINA RESULT:      -6.2      2.767      7.634
  Name = 
  21 active torsions:
  status: ('A' for Active; 'I' for Inactive)
    1  A    between atoms: N_1  and  C_54
    2  A    between atoms: C_3  and  C_60
    3  A    between atoms: C_3  and  C_62
    4  A    between atoms: C_5  and  C_18
    5  A    between atoms: C_5  and  C_20
    6  A    between atoms: C_6  and  C_44
    7  A    between atoms: C_6  and  C_60
    8  A    between atoms: C_7  and  C_47
    9  A    between atoms: C_8  and  C_54
   10  A    between atoms: N_11  and  C_20
   11  A    between atoms: C_14  and  C_38
   12  A    between atoms: N_15  and  C_44
   13  A    between atoms: C_19  and  N_24
   14  A    between atoms: C_19  and  N_55
   15  A    between atoms: N_21  and  C_46
   16  A    between atoms: O_26  and  C_31
   17  A    between atoms: C_30  and  C_53
   18  A    between atoms: C_31  and  C_36
   19  A    between atoms: C_39  and  C_46
   20  A    between atoms: C_39  and  C_47
   21  A    between atoms: C_47  and  C_49
                            x       y       z     vdW  Elec       q    Type
                         _______ _______ _______ _____ _____    ______ ____

>  <TORSDO>
F 21

$$$$
=
 OpenBabel11042414133D

 62 68  0  0  1  0  0  0  0  0999 V2000
  193.5740  173.0800  140.9140 C   0  0  1  0  0  3  0  0  0  0  0  0
  191.8280  171.4080  141.9110 C   0  0  2  0  0  3  0  0  0  0  0  0
  189.9540  173.0600  141.4110 N   0  0  0  0  0  2  0  0  0  0  0  0
  193.6490  171.4280  141.6970 S   0  0  0  0  0  0  0  0  0  0  0  0
  192.2150  173.5850  141.0460 N   0  0  0  0  0  0  0  0  0  0  0  0
  191.3400  172.7590  141.5100 C   0  0  0  0  0  0  0  0  0  0  0  0
  189.2490  172.6460  140.2030 C   0  0  0  0  0  2  0  0  0  0  0  0
  192.3180  171.0740  137.1940 N   0  0  0  0  0  0  0  0  0  0  0  0
  191.7930  172.2640  137.6820 N   0  0  0  0  0  0  0  0  0  0  0  0
  190.6890  172.0250  138.2940 C   0  0  0  0  0  0  0  0  0  0  0  0
  191.4230  169.9580  137.4470 C   0  0  0  0  0  3  0  0  0  0  0  0
  190.0080  173.0390  139.0380 N   0  0  0  0  0  2  0  0  0  0  0  0
  190.3410  170.5680  138.3450 C   0  0  0  0  0  3  0  0  0  0  0  0
  193.6070  170.9950  136.5420 C   0  0  0  0  0  2  0  0  0  0  0  0
  193.5220  171.2290  135.0380 C   0  0  1  0  0  3  0  0  0  0  0  0
  192.2130  171.4210  134.5590 O   0  0  0  0  0  1  0  0  0  0  0  0
  195.6310  172.4190  135.3280 O   0  0  0  0  0  0  0  0  0  0  0  0
  194.4400  172.3540  134.5780 C   0  0  2  0  0  3  0  0  0  0  0  0
  194.9120  174.6240  134.7020 C   0  0  1  0  0  3  0  0  0  0  0  0
  196.0120  173.7860  135.3820 C   0  0  1  0  0  3  0  0  0  0  0  0
  193.7420  173.6920  134.6490 C   0  0  0  0  0  2  0  0  0  0  0  0
  197.4900  173.4000  137.4010 C   0  0  0  0  0  1  0  0  0  0  0  0
  196.2880  174.1650  136.8510 C   0  0  0  0  0  2  0  0  0  0  0  0
  194.5650  175.9670  135.3460 C   0  0  0  0  0  2  0  0  0  0  0  0
  193.0600  177.5890  135.3950 C   0  0  0  0  0  1  0  0  0  0  0  0
  193.6980  176.6930  134.5410 O   0  0  0  0  0  0  0  0  0  0  0  0
  194.6380  174.0500  141.4660 C   0  0  1  0  0  3  0  0  0  0  0  0
  193.1940  175.9120  142.3590 N   0  0  0  0  0  2  0  0  0  0  0  0
  194.5280  176.2340  140.4680 O   0  0  0  0  0  0  0  0  0  0  0  0
  194.1540  175.4630  141.3930 C   0  0  0  0  0  0  0  0  0  0  0  0
  192.5880  177.2210  142.3920 C   0  0  0  0  0  2  0  0  0  0  0  0
  191.6270  177.3910  143.5520 C   0  0  0  0  0  2  0  0  0  0  0  0
  190.2440  177.5240  142.9610 C   0  0  0  0  0  2  0  0  0  0  0  0
  189.2550  178.2430  143.8750 C   0  0  0  0  0  2  0  0  0  0  0  0
  186.0380  178.3920  146.0900 C   0  0  0  0  0  2  0  0  0  0  0  0
  185.4140  177.1870  143.4070 C   0  0  2  0  0  3  0  0  0  0  0  0
  188.2650  176.0200  143.3760 C   0  0  0  0  0  3  0  0  0  0  0  0
  185.2630  177.0330  145.9400 C   0  0  0  0  0  2  0  0  0  0  0  0
  186.0510  177.6220  141.0300 O   0  0  0  0  0  1  0  0  0  0  0  0
  185.6030  179.4700  145.0600 C   0  0  0  0  0  2  0  0  0  0  0  0
  186.7570  177.9610  143.3050 C   0  0  2  0  0  0  0  0  0  0  0  0
  187.3310  175.8300  142.2010 C   0  0  0  0  0  3  0  0  0  0  0  0
  185.4850  176.2610  144.6220 C   0  0  0  0  0  2  0  0  0  0  0  0
  186.3420  179.3930  143.6920 C   0  0  0  0  0  2  0  0  0  0  0  0
  186.3500  176.9880  142.2360 C   0  0  1  0  0  0  0  0  0  0  0  0
  188.0030  177.3760  143.9890 C   0  0  2  0  0  3  0  0  0  0  0  0
  195.0690  173.7070  142.9060 C   0  0  0  0  0  2  0  0  0  0  0  0
  196.5000  174.1690  143.2000 C   0  0  0  0  0  2  0  0  0  0  0  0
  196.6140  174.6290  144.5780 N   0  0  0  0  0  2  0  0  0  0  0  0
  195.8030  175.8220  144.7170 C   0  0  0  0  0  1  0  0  0  0  0  0
  191.4580  171.1170  143.3620 C   0  0  0  0  0  2  0  0  0  0  0  0
  191.5030  172.3230  144.1960 N   0  0  0  0  0  2  0  0  0  0  0  0
  189.3100  172.1630  144.9870 O   0  0  0  0  0  0  0  0  0  0  0  0
  190.3950  172.8070  144.9720 C   0  0  0  0  0  0  0  0  0  0  0  0
  193.0450  176.6040  146.9900 C   0  0  0  0  0  1  0  0  0  0  0  0
  190.5780  176.4180  147.2650 C   0  0  0  0  0  3  0  0  0  0  0  0
  189.3540  175.8180  146.9850 C   0  0  0  0  0  3  0  0  0  0  0  0
  190.4960  174.0600  145.7600 C   0  0  0  0  0  0  0  0  0  0  0  0
  191.7650  175.8840  146.7500 C   0  0  0  0  0  0  0  0  0  0  0  0
  191.7300  174.7100  145.9850 C   0  0  0  0  0  0  0  0  0  0  0  0
  192.8710  174.2460  145.4010 F   0  0  0  0  0  0  0  0  0  0  0  0
  189.3130  174.6550  146.2240 C   0  0  0  0  0  3  0  0  0  0  0  0
  1  5  1  0  0  0  0
  1 27  1  1  0  0  0
  1  4  1  0  0  0  0
  2 51  1  1  0  0  0
  3  6  1  0  0  0  0
  4  2  1  0  0  0  0
  5  6  2  0  0  0  0
  6  2  1  0  0  0  0
  7  3  1  0  0  0  0
  8 11  1  0  0  0  0
  8  9  1  0  0  0  0
  9 10  2  0  0  0  0
 10 13  1  0  0  0  0
 10 12  1  0  0  0  0
 11 13  2  0  0  0  0
 12  7  1  0  0  0  0
 14  8  1  0  0  0  0
 15 16  1  1  0  0  0
 15 14  1  0  0  0  0
 17 20  1  0  0  0  0
 18 21  1  0  0  0  0
 18 15  1  1  0  0  0
 18 17  1  0  0  0  0
 19 24  1  1  0  0  0
 19 20  1  0  0  0  0
 20 23  1  1  0  0  0
 21 19  1  0  0  0  0
 23 22  1  0  0  0  0
 26 24  1  0  0  0  0
 26 25  1  0  0  0  0
 27 47  1  1  0  0  0
 28 31  1  0  0  0  0
 29 30  2  0  0  0  0
 30 27  1  0  0  0  0
 30 28  1  0  0  0  0
 31 32  1  0  0  0  0
 33 32  1  0  0  0  0
 33 34  1  0  0  0  0
 36 43  1  1  0  0  0
 37 46  1  0  0  0  0
 38 35  1  0  0  0  0
 40 35  1  0  0  0  0
 41 36  1  0  0  0  0
 41 44  1  6  0  0  0
 41 46  1  0  0  0  0
 42 45  1  0  0  0  0
 42 37  2  0  0  0  0
 43 38  1  0  0  0  0
 44 40  1  0  0  0  0
 45 39  1  6  0  0  0
 45 41  1  0  0  0  0
 45 36  1  0  0  0  0
 46 34  1  6  0  0  0
 47 48  1  0  0  0  0
 48 49  1  0  0  0  0
 49 50  1  0  0  0  0
 51 52  1  0  0  0  0
 52 54  1  0  0  0  0
 54 53  2  0  0  0  0
 54 58  1  0  0  0  0
 57 56  1  0  0  0  0
 58 60  2  0  0  0  0
 58 62  1  0  0  0  0
 59 55  1  0  0  0  0
 59 56  2  0  0  0  0
 60 59  1  0  0  0  0
 61 60  1  0  0  0  0
 62 57  2  0  0  0  0
M  END
>  <MODEL>
6

>  <REMARK>
 VINA RESULT:      -5.9      2.978      8.127
  Name = 
  21 active torsions:
  status: ('A' for Active; 'I' for Inactive)
    1  A    between atoms: N_1  and  C_54
    2  A    between atoms: C_3  and  C_60
    3  A    between atoms: C_3  and  C_62
    4  A    between atoms: C_5  and  C_18
    5  A    between atoms: C_5  and  C_20
    6  A    between atoms: C_6  and  C_44
    7  A    between atoms: C_6  and  C_60
    8  A    between atoms: C_7  and  C_47
    9  A    between atoms: C_8  and  C_54
   10  A    between atoms: N_11  and  C_20
   11  A    between atoms: C_14  and  C_38
   12  A    between atoms: N_15  and  C_44
   13  A    between atoms: C_19  and  N_24
   14  A    between atoms: C_19  and  N_55
   15  A    between atoms: N_21  and  C_46
   16  A    between atoms: O_26  and  C_31
   17  A    between atoms: C_30  and  C_53
   18  A    between atoms: C_31  and  C_36
   19  A    between atoms: C_39  and  C_46
   20  A    between atoms: C_39  and  C_47
   21  A    between atoms: C_47  and  C_49
                            x       y       z     vdW  Elec       q    Type
                         _______ _______ _______ _____ _____    ______ ____

>  <TORSDO>
F 21

$$$$
=
 OpenBabel11042414133D

 62 68  0  0  1  0  0  0  0  0999 V2000
  190.7010  175.5990  143.6000 C   0  0  1  0  0  3  0  0  0  0  0  0
  191.4200  174.3210  141.4350 C   0  0  2  0  0  3  0  0  0  0  0  0
  189.4690  172.7100  141.7350 N   0  0  0  0  0  2  0  0  0  0  0  0
  192.0630  175.7500  142.3880 S   0  0  0  0  0  0  0  0  0  0  0  0
  189.9740  174.3710  143.3180 N   0  0  0  0  0  0  0  0  0  0  0  0
  190.3010  173.7480  142.2370 C   0  0  0  0  0  0  0  0  0  0  0  0
  188.3890  173.0780  140.8260 C   0  0  0  0  0  2  0  0  0  0  0  0
  191.2080  172.1650  137.3380 N   0  0  0  0  0  0  0  0  0  0  0  0
  190.6170  173.2340  137.9990 N   0  0  0  0  0  0  0  0  0  0  0  0
  189.6350  172.8080  138.7100 C   0  0  0  0  0  0  0  0  0  0  0  0
  190.4860  170.9280  137.5810 C   0  0  0  0  0  3  0  0  0  0  0  0
  188.9430  173.6610  139.6250 N   0  0  0  0  0  2  0  0  0  0  0  0
  189.4660  171.3190  138.6550 C   0  0  0  0  0  3  0  0  0  0  0  0
  192.4030  172.3050  136.5340 C   0  0  0  0  0  2  0  0  0  0  0  0
  193.4860  171.3000  136.9090 C   0  0  1  0  0  3  0  0  0  0  0  0
  193.4810  170.1300  136.1270 O   0  0  0  0  0  1  0  0  0  0  0  0
  195.3940  172.0360  138.2390 O   0  0  0  0  0  0  0  0  0  0  0  0
  194.8720  171.9310  136.9340 C   0  0  2  0  0  3  0  0  0  0  0  0
  196.0860  173.9110  136.9050 C   0  0  1  0  0  3  0  0  0  0  0  0
  196.2080  173.2000  138.2670 C   0  0  1  0  0  3  0  0  0  0  0  0
  194.8600  173.3030  136.2990 C   0  0  0  0  0  2  0  0  0  0  0  0
  196.8070  173.9340  140.6150 C   0  0  0  0  0  1  0  0  0  0  0  0
  195.7960  174.0630  139.4770 C   0  0  0  0  0  2  0  0  0  0  0  0
  196.0370  175.4390  136.9220 C   0  0  0  0  0  2  0  0  0  0  0  0
  196.7840  176.6980  135.2620 C   0  0  0  0  0  1  0  0  0  0  0  0
  197.1960  175.9780  136.3810 O   0  0  0  0  0  0  0  0  0  0  0  0
  191.1900  175.6930  145.0600 C   0  0  1  0  0  3  0  0  0  0  0  0
  189.0760  176.2450  146.3150 N   0  0  0  0  0  2  0  0  0  0  0  0
  190.1180  174.1710  146.5800 O   0  0  0  0  0  0  0  0  0  0  0  0
  190.1050  175.2950  146.0080 C   0  0  0  0  0  0  0  0  0  0  0  0
  187.9950  176.0390  147.2490 C   0  0  0  0  0  2  0  0  0  0  0  0
  186.9800  177.1640  147.2260 C   0  0  0  0  0  2  0  0  0  0  0  0
  186.1580  176.9880  145.9700 C   0  0  0  0  0  2  0  0  0  0  0  0
  186.9000  176.2580  144.8530 C   0  0  0  0  0  2  0  0  0  0  0  0
  183.9760  178.6530  143.8540 C   0  0  0  0  0  2  0  0  0  0  0  0
  186.1150  178.6640  141.7410 C   0  0  2  0  0  3  0  0  0  0  0  0
  186.6830  175.7170  142.4380 C   0  0  0  0  0  3  0  0  0  0  0  0
  183.6530  178.4400  142.3310 C   0  0  0  0  0  2  0  0  0  0  0  0
  188.6140  178.6640  141.6880 O   0  0  0  0  0  1  0  0  0  0  0  0
  185.0390  179.7570  144.1140 C   0  0  0  0  0  2  0  0  0  0  0  0
  186.7170  178.0970  143.0560 C   0  0  2  0  0  0  0  0  0  0  0  0
  187.5080  176.4470  141.4000 C   0  0  0  0  0  3  0  0  0  0  0  0
  184.8100  177.9210  141.4520 C   0  0  0  0  0  2  0  0  0  0  0  0
  186.5140  179.2630  144.0410 C   0  0  0  0  0  2  0  0  0  0  0  0
  187.4340  177.9220  141.7470 C   0  0  1  0  0  0  0  0  0  0  0  0
  186.2930  176.6950  143.5210 C   0  0  2  0  0  3  0  0  0  0  0  0
  192.4590  174.8580  145.3200 C   0  0  0  0  0  2  0  0  0  0  0  0
  193.2880  175.4220  146.4790 C   0  0  0  0  0  2  0  0  0  0  0  0
  194.5650  175.9270  145.9930 N   0  0  0  0  0  2  0  0  0  0  0  0
  194.5630  177.3670  146.1540 C   0  0  0  0  0  1  0  0  0  0  0  0
  192.5120  173.2780  141.2230 C   0  0  0  0  0  2  0  0  0  0  0  0
  193.3370  173.0890  142.4200 N   0  0  0  0  0  2  0  0  0  0  0  0
  194.5420  171.2580  141.6100 O   0  0  0  0  0  0  0  0  0  0  0  0
  194.3220  172.0530  142.5640 C   0  0  0  0  0  0  0  0  0  0  0  0
  197.4480  173.7880  146.1330 C   0  0  0  0  0  1  0  0  0  0  0  0
  196.5080  171.4840  146.2020 C   0  0  0  0  0  3  0  0  0  0  0  0
  195.6640  170.4880  145.7200 C   0  0  0  0  0  3  0  0  0  0  0  0
  195.0910  171.8920  143.8230 C   0  0  0  0  0  0  0  0  0  0  0  0
  196.6100  172.7120  145.5380 C   0  0  0  0  0  0  0  0  0  0  0  0
  195.8940  172.9280  144.3520 C   0  0  0  0  0  0  0  0  0  0  0  0
  195.9150  174.1560  143.7610 F   0  0  0  0  0  0  0  0  0  0  0  0
  194.9480  170.6980  144.5460 C   0  0  0  0  0  3  0  0  0  0  0  0
  1 27  1  1  0  0  0
  2 51  1  1  0  0  0
  2  6  1  0  0  0  0
  2  4  1  0  0  0  0
  3  6  1  0  0  0  0
  4  1  1  0  0  0  0
  5  1  1  0  0  0  0
  6  5  2  0  0  0  0
  7  3  1  0  0  0  0
  8 11  1  0  0  0  0
  8  9  1  0  0  0  0
  9 10  2  0  0  0  0
 10 12  1  0  0  0  0
 11 13  2  0  0  0  0
 12  7  1  0  0  0  0
 13 10  1  0  0  0  0
 14 15  1  0  0  0  0
 14  8  1  0  0  0  0
 15 16  1  6  0  0  0
 17 20  1  0  0  0  0
 18 15  1  1  0  0  0
 18 17  1  0  0  0  0
 19 24  1  1  0  0  0
 19 20  1  0  0  0  0
 20 23  1  1  0  0  0
 21 19  1  0  0  0  0
 21 18  1  0  0  0  0
 23 22  1  0  0  0  0
 25 26  1  0  0  0  0
 26 24  1  0  0  0  0
 27 47  1  6  0  0  0
 27 30  1  0  0  0  0
 28 31  1  0  0  0  0
 30 28  1  0  0  0  0
 30 29  2  0  0  0  0
 32 31  1  0  0  0  0
 33 32  1  0  0  0  0
 34 33  1  0  0  0  0
 35 40  1  0  0  0  0
 36 43  1  6  0  0  0
 36 45  1  0  0  0  0
 36 41  1  0  0  0  0
 37 46  1  0  0  0  0
 38 35  1  0  0  0  0
 41 46  1  0  0  0  0
 41 44  1  1  0  0  0
 42 45  1  0  0  0  0
 42 37  2  0  0  0  0
 43 38  1  0  0  0  0
 44 40  1  0  0  0  0
 45 39  1  6  0  0  0
 45 41  1  0  0  0  0
 46 34  1  1  0  0  0
 47 48  1  0  0  0  0
 49 50  1  0  0  0  0
 49 48  1  0  0  0  0
 51 52  1  0  0  0  0
 52 54  1  0  0  0  0
 53 54  2  0  0  0  0
 54 58  1  0  0  0  0
 57 56  1  0  0  0  0
 58 60  2  0  0  0  0
 58 62  1  0  0  0  0
 59 55  1  0  0  0  0
 59 56  2  0  0  0  0
 60 59  1  0  0  0  0
 61 60  1  0  0  0  0
 62 57  2  0  0  0  0
M  END
>  <MODEL>
7

>  <REMARK>
 VINA RESULT:      -5.7      2.663      8.559
  Name = 
  21 active torsions:
  status: ('A' for Active; 'I' for Inactive)
    1  A    between atoms: N_1  and  C_54
    2  A    between atoms: C_3  and  C_60
    3  A    between atoms: C_3  and  C_62
    4  A    between atoms: C_5  and  C_18
    5  A    between atoms: C_5  and  C_20
    6  A    between atoms: C_6  and  C_44
    7  A    between atoms: C_6  and  C_60
    8  A    between atoms: C_7  and  C_47
    9  A    between atoms: C_8  and  C_54
   10  A    between atoms: N_11  and  C_20
   11  A    between atoms: C_14  and  C_38
   12  A    between atoms: N_15  and  C_44
   13  A    between atoms: C_19  and  N_24
   14  A    between atoms: C_19  and  N_55
   15  A    between atoms: N_21  and  C_46
   16  A    between atoms: O_26  and  C_31
   17  A    between atoms: C_30  and  C_53
   18  A    between atoms: C_31  and  C_36
   19  A    between atoms: C_39  and  C_46
   20  A    between atoms: C_39  and  C_47
   21  A    between atoms: C_47  and  C_49
                            x       y       z     vdW  Elec       q    Type
                         _______ _______ _______ _____ _____    ______ ____

>  <TORSDO>
F 21

$$$$
=
 OpenBabel11042414133D

 62 68  0  0  1  0  0  0  0  0999 V2000
  194.1710  171.0020  141.8340 C   0  0  1  0  0  3  0  0  0  0  0  0
  193.5710  172.7230  143.7100 C   0  0  2  0  0  3  0  0  0  0  0  0
  195.6920  174.0360  143.1880 N   0  0  0  0  0  2  0  0  0  0  0  0
  192.8230  171.1800  143.0580 S   0  0  0  0  0  0  0  0  0  0  0  0
  195.1890  171.9990  142.1300 N   0  0  0  0  0  0  0  0  0  0  0  0
  194.8920  172.8700  143.0330 C   0  0  0  0  0  0  0  0  0  0  0  0
  195.3540  175.2080  142.3890 C   0  0  0  0  0  2  0  0  0  0  0  0
  190.8110  175.6850  142.6580 N   0  0  0  0  0  0  0  0  0  0  0  0
  191.7850  174.9790  141.9630 N   0  0  0  0  0  0  0  0  0  0  0  0
  192.9230  175.5540  142.1200 C   0  0  0  0  0  0  0  0  0  0  0  0
  191.3590  176.8860  143.2640 C   0  0  0  0  0  3  0  0  0  0  0  0
  194.1360  174.9590  141.6520 N   0  0  0  0  0  2  0  0  0  0  0  0
  192.8660  176.7450  143.0280 C   0  0  0  0  0  3  0  0  0  0  0  0
  189.4390  175.2340  142.7590 C   0  0  0  0  0  2  0  0  0  0  0  0
  188.4440  176.2490  142.2110 C   0  0  1  0  0  3  0  0  0  0  0  0
  188.0550  176.0120  140.8790 O   0  0  0  0  0  1  0  0  0  0  0  0
  186.0160  176.4040  142.3890 O   0  0  0  0  0  0  0  0  0  0  0  0
  187.2260  176.4060  143.1120 C   0  0  2  0  0  3  0  0  0  0  0  0
  185.8680  177.8910  144.2710 C   0  0  1  0  0  3  0  0  0  0  0  0
  185.1140  177.2480  143.0910 C   0  0  1  0  0  3  0  0  0  0  0  0
  187.3090  177.6750  143.9270 C   0  0  0  0  0  2  0  0  0  0  0  0
  185.0800  178.0660  140.6950 C   0  0  0  0  0  1  0  0  0  0  0  0
  184.5050  178.2570  142.0970 C   0  0  0  0  0  2  0  0  0  0  0  0
  185.5510  179.3540  144.5830 C   0  0  0  0  0  2  0  0  0  0  0  0
  184.6260  178.4740  146.3910 C   0  0  0  0  0  1  0  0  0  0  0  0
  184.4480  179.4550  145.4190 O   0  0  0  0  0  0  0  0  0  0  0  0
  194.7290  169.5660  141.7690 C   0  0  1  0  0  3  0  0  0  0  0  0
  193.4030  169.2090  139.6560 N   0  0  0  0  0  2  0  0  0  0  0  0
  195.5660  168.3530  139.8700 O   0  0  0  0  0  0  0  0  0  0  0  0
  194.6260  169.0210  140.3800 C   0  0  0  0  0  0  0  0  0  0  0  0
  193.1240  168.6990  138.3360 C   0  0  0  0  0  2  0  0  0  0  0  0
  191.6850  168.2480  138.1760 C   0  0  0  0  0  2  0  0  0  0  0  0
  191.0850  169.0800  137.0680 C   0  0  0  0  0  2  0  0  0  0  0  0
  189.7250  169.6780  137.4200 C   0  0  0  0  0  2  0  0  0  0  0  0
  188.3230  172.9700  138.9960 C   0  0  0  0  0  2  0  0  0  0  0  0
  190.8160  173.5370  137.4140 C   0  0  2  0  0  3  0  0  0  0  0  0
  190.0180  171.2460  135.5160 C   0  0  0  0  0  3  0  0  0  0  0  0
  188.3910  174.1100  137.9160 C   0  0  0  0  0  2  0  0  0  0  0  0
  193.0370  172.4440  137.0730 O   0  0  0  0  0  1  0  0  0  0  0  0
  189.5990  172.8730  139.8760 C   0  0  0  0  0  2  0  0  0  0  0  0
  190.7620  172.0180  137.7290 C   0  0  2  0  0  0  0  0  0  0  0  0
  191.3140  172.0030  135.3240 C   0  0  0  0  0  3  0  0  0  0  0  0
  189.4680  173.9530  136.8220 C   0  0  0  0  0  2  0  0  0  0  0  0
  190.7380  172.0010  139.2690 C   0  0  0  0  0  2  0  0  0  0  0  0
  191.7020  172.5510  136.6860 C   0  0  1  0  0  0  0  0  0  0  0  0
  189.7310  171.1450  136.9960 C   0  0  2  0  0  3  0  0  0  0  0  0
  196.1820  169.4660  142.2750 C   0  0  0  0  0  2  0  0  0  0  0  0
  196.2540  168.9170  143.7040 C   0  0  0  0  0  2  0  0  0  0  0  0
  197.6400  168.7160  144.1030 N   0  0  0  0  0  2  0  0  0  0  0  0
  197.8690  169.4740  145.3170 C   0  0  0  0  0  1  0  0  0  0  0  0
  193.7540  172.6370  145.2220 C   0  0  0  0  0  2  0  0  0  0  0  0
  193.1940  173.8030  145.9130 N   0  0  0  0  0  2  0  0  0  0  0  0
  190.9750  173.4230  145.2840 O   0  0  0  0  0  0  0  0  0  0  0  0
  191.8010  174.1560  145.8950 C   0  0  0  0  0  0  0  0  0  0  0  0
  188.1110  177.3350  147.2350 C   0  0  0  0  0  1  0  0  0  0  0  0
  190.4810  177.7010  147.9010 C   0  0  0  0  0  3  0  0  0  0  0  0
  191.8110  177.2980  147.9780 C   0  0  0  0  0  3  0  0  0  0  0  0
  191.3080  175.3760  146.5800 C   0  0  0  0  0  0  0  0  0  0  0  0
  189.5410  176.9220  147.2170 C   0  0  0  0  0  0  0  0  0  0  0  0
  189.9450  175.7500  146.5630 C   0  0  0  0  0  0  0  0  0  0  0  0
  189.0150  174.9410  145.9830 F   0  0  0  0  0  0  0  0  0  0  0  0
  192.2180  176.1330  147.3340 C   0  0  0  0  0  3  0  0  0  0  0  0
  1 27  1  1  0  0  0
  1  5  1  0  0  0  0
  1  4  1  0  0  0  0
  2 51  1  1  0  0  0
  4  2  1  0  0  0  0
  5  6  2  0  0  0  0
  6  3  1  0  0  0  0
  6  2  1  0  0  0  0
  7  3  1  0  0  0  0
  8 14  1  0  0  0  0
  8 11  1  0  0  0  0
  9 10  2  0  0  0  0
  9  8  1  0  0  0  0
 10 13  1  0  0  0  0
 12 10  1  0  0  0  0
 12  7  1  0  0  0  0
 13 11  2  0  0  0  0
 15 16  1  6  0  0  0
 15 14  1  0  0  0  0
 17 20  1  0  0  0  0
 17 18  1  0  0  0  0
 18 15  1  6  0  0  0
 18 21  1  0  0  0  0
 19 24  1  6  0  0  0
 20 23  1  6  0  0  0
 20 19  1  0  0  0  0
 21 19  1  0  0  0  0
 22 23  1  0  0  0  0
 24 26  1  0  0  0  0
 26 25  1  0  0  0  0
 27 47  1  6  0  0  0
 28 30  1  0  0  0  0
 29 30  2  0  0  0  0
 30 27  1  0  0  0  0
 31 28  1  0  0  0  0
 32 31  1  0  0  0  0
 33 34  1  0  0  0  0
 33 32  1  0  0  0  0
 35 40  1  0  0  0  0
 36 43  1  6  0  0  0
 36 41  1  0  0  0  0
 37 46  1  0  0  0  0
 38 35  1  0  0  0  0
 41 44  1  1  0  0  0
 42 37  2  0  0  0  0
 42 45  1  0  0  0  0
 43 38  1  0  0  0  0
 44 40  1  0  0  0  0
 45 39  1  1  0  0  0
 45 36  1  0  0  0  0
 45 41  1  0  0  0  0
 46 34  1  1  0  0  0
 46 41  1  0  0  0  0
 47 48  1  0  0  0  0
 48 49  1  0  0  0  0
 49 50  1  0  0  0  0
 51 52  1  0  0  0  0
 53 54  2  0  0  0  0
 54 52  1  0  0  0  0
 54 58  1  0  0  0  0
 56 57  1  0  0  0  0
 58 62  1  0  0  0  0
 59 55  1  0  0  0  0
 59 56  2  0  0  0  0
 60 58  2  0  0  0  0
 60 59  1  0  0  0  0
 61 60  1  0  0  0  0
 62 57  2  0  0  0  0
M  END
>  <MODEL>
8

>  <REMARK>
 VINA RESULT:      -5.7      2.616      7.796
  Name = 
  21 active torsions:
  status: ('A' for Active; 'I' for Inactive)
    1  A    between atoms: N_1  and  C_54
    2  A    between atoms: C_3  and  C_60
    3  A    between atoms: C_3  and  C_62
    4  A    between atoms: C_5  and  C_18
    5  A    between atoms: C_5  and  C_20
    6  A    between atoms: C_6  and  C_44
    7  A    between atoms: C_6  and  C_60
    8  A    between atoms: C_7  and  C_47
    9  A    between atoms: C_8  and  C_54
   10  A    between atoms: N_11  and  C_20
   11  A    between atoms: C_14  and  C_38
   12  A    between atoms: N_15  and  C_44
   13  A    between atoms: C_19  and  N_24
   14  A    between atoms: C_19  and  N_55
   15  A    between atoms: N_21  and  C_46
   16  A    between atoms: O_26  and  C_31
   17  A    between atoms: C_30  and  C_53
   18  A    between atoms: C_31  and  C_36
   19  A    between atoms: C_39  and  C_46
   20  A    between atoms: C_39  and  C_47
   21  A    between atoms: C_47  and  C_49
                            x       y       z     vdW  Elec       q    Type
                         _______ _______ _______ _____ _____    ______ ____

>  <TORSDO>
F 21

$$$$
=
 OpenBabel11042414133D

 62 68  0  0  1  0  0  0  0  0999 V2000
  190.0050  174.8220  142.2530 C   0  0  1  0  0  3  0  0  0  0  0  0
  191.2210  176.2530  144.0730 C   0  0  2  0  0  3  0  0  0  0  0  0
  190.4420  174.6290  145.8750 N   0  0  0  0  0  2  0  0  0  0  0  0
  190.9740  176.3740  142.2590 S   0  0  0  0  0  0  0  0  0  0  0  0
  189.7680  174.4280  143.6330 N   0  0  0  0  0  0  0  0  0  0  0  0
  190.3850  175.1080  144.5370 C   0  0  0  0  0  0  0  0  0  0  0  0
  191.5410  173.7390  146.2360 C   0  0  0  0  0  2  0  0  0  0  0  0
  194.4000  171.1830  143.7390 N   0  0  0  0  0  0  0  0  0  0  0  0
  194.2280  172.4860  144.1900 N   0  0  0  0  0  0  0  0  0  0  0  0
  193.0140  172.6450  144.5820 C   0  0  0  0  0  0  0  0  0  0  0  0
  193.1500  170.4430  143.7680 C   0  0  0  0  0  3  0  0  0  0  0  0
  192.5900  173.8380  145.2480 N   0  0  0  0  0  2  0  0  0  0  0  0
  192.1920  171.3950  144.4920 C   0  0  0  0  0  3  0  0  0  0  0  0
  195.6840  170.6620  143.3230 C   0  0  0  0  0  2  0  0  0  0  0  0
  196.2010  171.3170  142.0480 C   0  0  1  0  0  3  0  0  0  0  0  0
  195.1910  171.6850  141.1390 O   0  0  0  0  0  1  0  0  0  0  0  0
  197.6610  172.4480  143.6410 O   0  0  0  0  0  0  0  0  0  0  0  0
  197.1240  172.4930  142.3390 C   0  0  2  0  0  3  0  0  0  0  0  0
  197.2580  174.7220  142.9780 C   0  0  1  0  0  3  0  0  0  0  0  0
  197.8320  173.7930  144.0650 C   0  0  1  0  0  3  0  0  0  0  0  0
  196.4070  173.8100  142.1490 C   0  0  0  0  0  2  0  0  0  0  0  0
  196.9580  172.6060  146.1240 C   0  0  0  0  0  1  0  0  0  0  0  0
  197.1850  173.9600  145.4550 C   0  0  0  0  0  2  0  0  0  0  0  0
  196.4990  175.9610  143.4530 C   0  0  0  0  0  2  0  0  0  0  0  0
  196.2410  176.8050  141.4240 C   0  0  0  0  0  1  0  0  0  0  0  0
  196.8090  177.0640  142.6690 O   0  0  0  0  0  0  0  0  0  0  0  0
  188.7110  174.9320  141.4220 C   0  0  1  0  0  3  0  0  0  0  0  0
  188.8250  173.8200  139.1640 N   0  0  0  0  0  2  0  0  0  0  0  0
  188.0650  172.6490  141.0370 O   0  0  0  0  0  0  0  0  0  0  0  0
  188.5290  173.7220  140.5640 C   0  0  0  0  0  0  0  0  0  0  0  0
  188.6490  172.7660  138.1940 C   0  0  0  0  0  2  0  0  0  0  0  0
  189.0240  173.1960  136.7890 C   0  0  0  0  0  2  0  0  0  0  0  0
  189.8420  174.4590  136.9210 C   0  0  0  0  0  2  0  0  0  0  0  0
  191.0700  174.4890  136.0150 C   0  0  0  0  0  2  0  0  0  0  0  0
  192.1810  173.4260  139.6090 C   0  0  0  0  0  2  0  0  0  0  0  0
  194.5800  173.8440  137.8460 C   0  0  2  0  0  3  0  0  0  0  0  0
  192.9890  176.0270  136.3640 C   0  0  0  0  0  3  0  0  0  0  0  0
  193.3960  174.3230  140.0440 C   0  0  0  0  0  2  0  0  0  0  0  0
  195.2080  173.3290  135.4830 O   0  0  0  0  0  1  0  0  0  0  0  0
  192.6040  172.1160  138.8900 C   0  0  0  0  0  2  0  0  0  0  0  0
  193.3270  173.6620  136.9470 C   0  0  2  0  0  0  0  0  0  0  0  0
  194.3860  175.6430  135.9230 C   0  0  0  0  0  3  0  0  0  0  0  0
  194.2610  174.9020  138.9050 C   0  0  0  0  0  2  0  0  0  0  0  0
  192.8280  172.2640  137.3560 C   0  0  0  0  0  2  0  0  0  0  0  0
  194.6050  174.2120  136.3790 C   0  0  1  0  0  0  0  0  0  0  0  0
  192.2890  174.7930  136.8840 C   0  0  2  0  0  3  0  0  0  0  0  0
  187.4590  175.1620  142.2930 C   0  0  0  0  0  2  0  0  0  0  0  0
  186.7760  176.4960  141.9730 C   0  0  0  0  0  2  0  0  0  0  0  0
  187.0840  176.9110  140.6110 N   0  0  0  0  0  2  0  0  0  0  0  0
  186.1030  177.9010  140.2150 C   0  0  0  0  0  1  0  0  0  0  0  0
  190.7890  177.5430  144.7640 C   0  0  0  0  0  2  0  0  0  0  0  0
  189.3300  177.6750  144.8270 N   0  0  0  0  0  2  0  0  0  0  0  0
  189.1690  177.5600  147.1560 O   0  0  0  0  0  0  0  0  0  0  0  0
  188.5730  177.6590  146.0480 C   0  0  0  0  0  0  0  0  0  0  0  0
  184.2170  179.1890  143.9980 C   0  0  0  0  0  1  0  0  0  0  0  0
  184.2970  177.8750  146.1110 C   0  0  0  0  0  3  0  0  0  0  0  0
  184.9840  177.1470  147.0780 C   0  0  0  0  0  3  0  0  0  0  0  0
  187.0920  177.7520  146.0360 C   0  0  0  0  0  0  0  0  0  0  0  0
  184.9900  178.4990  145.0660 C   0  0  0  0  0  0  0  0  0  0  0  0
  186.3890  178.4310  145.0160 C   0  0  0  0  0  0  0  0  0  0  0  0
  187.0550  178.9520  143.9480 F   0  0  0  0  0  0  0  0  0  0  0  0
  186.3720  177.0730  147.0310 C   0  0  0  0  0  3  0  0  0  0  0  0
  1 27  1  1  0  0  0
  1  4  1  0  0  0  0
  1  5  1  0  0  0  0
  2  6  1  0  0  0  0
  2 51  1  1  0  0  0
  3  7  1  0  0  0  0
  4  2  1  0  0  0  0
  5  6  2  0  0  0  0
  6  3  1  0  0  0  0
  8 11  1  0  0  0  0
  8  9  1  0  0  0  0
  9 10  2  0  0  0  0
 10 12  1  0  0  0  0
 11 13  2  0  0  0  0
 12  7  1  0  0  0  0
 13 10  1  0  0  0  0
 14  8  1  0  0  0  0
 15 16  1  6  0  0  0
 15 14  1  0  0  0  0
 17 20  1  0  0  0  0
 18 15  1  1  0  0  0
 18 17  1  0  0  0  0
 19 24  1  1  0  0  0
 19 20  1  0  0  0  0
 20 23  1  1  0  0  0
 21 18  1  0  0  0  0
 21 19  1  0  0  0  0
 23 22  1  0  0  0  0
 25 26  1  0  0  0  0
 26 24  1  0  0  0  0
 27 47  1  1  0  0  0
 28 30  1  0  0  0  0
 30 29  2  0  0  0  0
 30 27  1  0  0  0  0
 31 28  1  0  0  0  0
 32 33  1  0  0  0  0
 32 31  1  0  0  0  0
 34 33  1  0  0  0  0
 35 38  1  0  0  0  0
 36 43  1  1  0  0  0
 37 46  1  0  0  0  0
 40 35  1  0  0  0  0
 41 44  1  6  0  0  0
 41 36  1  0  0  0  0
 42 37  2  0  0  0  0
 42 45  1  0  0  0  0
 43 38  1  0  0  0  0
 44 40  1  0  0  0  0
 45 39  1  6  0  0  0
 45 41  1  0  0  0  0
 45 36  1  0  0  0  0
 46 34  1  6  0  0  0
 46 41  1  0  0  0  0
 48 47  1  0  0  0  0
 49 48  1  0  0  0  0
 50 49  1  0  0  0  0
 51 52  1  0  0  0  0
 52 54  1  0  0  0  0
 54 53  2  0  0  0  0
 55 59  1  0  0  0  0
 56 57  1  0  0  0  0
 58 54  1  0  0  0  0
 58 62  1  0  0  0  0
 59 56  2  0  0  0  0
 60 59  1  0  0  0  0
 60 58  2  0  0  0  0
 61 60  1  0  0  0  0
 62 57  2  0  0  0  0
M  END
>  <MODEL>
9

>  <REMARK>
 VINA RESULT:      -5.7      2.012      2.885
  Name = 
  21 active torsions:
  status: ('A' for Active; 'I' for Inactive)
    1  A    between atoms: N_1  and  C_54
    2  A    between atoms: C_3  and  C_60
    3  A    between atoms: C_3  and  C_62
    4  A    between atoms: C_5  and  C_18
    5  A    between atoms: C_5  and  C_20
    6  A    between atoms: C_6  and  C_44
    7  A    between atoms: C_6  and  C_60
    8  A    between atoms: C_7  and  C_47
    9  A    between atoms: C_8  and  C_54
   10  A    between atoms: N_11  and  C_20
   11  A    between atoms: C_14  and  C_38
   12  A    between atoms: N_15  and  C_44
   13  A    between atoms: C_19  and  N_24
   14  A    between atoms: C_19  and  N_55
   15  A    between atoms: N_21  and  C_46
   16  A    between atoms: O_26  and  C_31
   17  A    between atoms: C_30  and  C_53
   18  A    between atoms: C_31  and  C_36
   19  A    between atoms: C_39  and  C_46
   20  A    between atoms: C_39  and  C_47
   21  A    between atoms: C_47  and  C_49
                            x       y       z     vdW  Elec       q    Type
                         _______ _______ _______ _____ _____    ______ ____

>  <TORSDO>
F 21

$$$$
