=
 OpenBabel11042419203D

 42 48  0  0  1  0  0  0  0  0999 V2000
  191.2770  176.4280  143.6260 N   0  0  2  0  0  0  0  0  0  0  0  0
  192.9340  176.0650  145.2200 C   0  0  1  0  0  3  0  0  0  0  0  0
  191.7130  176.7750  145.7950 C   0  0  0  0  0  2  0  0  0  0  0  0
  190.6790  176.0990  144.9530 C   0  0  2  0  0  0  0  0  0  0  0  0
  189.8450  176.1860  143.7660 C   0  0  1  0  0  0  0  0  0  0  0  0
  189.3180  176.7190  145.1010 C   0  0  1  0  0  3  0  0  0  0  0  0
  192.3990  175.5480  143.8810 C   0  0  0  0  0  2  0  0  0  0  0  0
  194.0010  177.0360  144.9910 N   0  0  0  0  0  2  0  0  0  0  0  0
  195.2680  175.0520  145.7680 C   0  0  0  0  0  2  0  0  0  0  0  0
  196.4510  174.4310  143.7300 C   0  0  0  0  0  2  0  0  0  0  0  0
  196.0430  176.1690  143.3830 S   0  0  0  0  0  0  0  0  0  0  0  0
  195.3130  176.3870  145.0440 C   0  0  1  0  0  3  0  0  0  0  0  0
  196.4170  174.2270  145.2330 C   0  0  2  0  0  3  0  0  0  0  0  0
  194.9390  172.4730  145.8710 F   0  0  0  0  0  0  0  0  0  0  0  0
  196.6890  171.9480  144.5520 F   0  0  0  0  0  0  0  0  0  0  0  0
  196.2650  172.7510  145.5950 C   0  0  0  0  0  0  0  0  0  0  0  0
  197.0190  172.4680  146.7200 F   0  0  0  0  0  0  0  0  0  0  0  0
  189.4700  174.8150  143.4290 N   0  0  0  0  0  2  0  0  0  0  0  0
  188.3530  174.4620  139.8730 C   0  0  0  0  0  3  0  0  0  0  0  0
  189.1390  173.3830  139.4560 C   0  0  0  0  0  0  0  0  0  0  0  0
  190.1370  173.2690  141.6640 C   0  0  0  0  0  3  0  0  0  0  0  0
  190.8310  171.7140  139.9610 O   0  0  0  0  0  1  0  0  0  0  0  0
  188.4540  174.9390  141.1830 C   0  0  0  0  0  3  0  0  0  0  0  0
  189.3480  174.3440  142.0840 C   0  0  0  0  0  0  0  0  0  0  0  0
  190.0380  172.7870  140.3550 C   0  0  0  0  0  0  0  0  0  0  0  0
  189.0340  172.9050  138.0480 C   0  0  0  0  0  2  0  0  0  0  0  0
  189.5710  173.9090  137.1450 N   0  0  0  0  0  2  0  0  0  0  0  0
  190.8930  173.4560  136.7570 C   0  0  0  0  0  1  0  0  0  0  0  0
  188.3940  175.7500  145.8210 C   0  0  0  0  0  2  0  0  0  0  0  0
  187.5450  176.5080  146.8220 C   0  0  0  0  0  2  0  0  0  0  0  0
  185.9450  178.0200  145.7510 C   0  0  1  0  0  3  0  0  0  0  0  0
  185.2680  177.6390  147.0000 N   0  0  0  0  0  0  0  0  0  0  0  0
  186.1310  176.6710  146.2670 C   0  0  2  0  0  3  0  0  0  0  0  0
  186.0450  179.7090  147.7420 O   0  0  0  0  0  1  0  0  0  0  0  0
  185.9530  178.3570  148.0710 C   0  0  0  0  0  2  0  0  0  0  0  0
  184.9440  177.9930  144.6130 C   0  0  0  0  0  2  0  0  0  0  0  0
  185.6310  177.5360  143.3440 C   0  0  1  0  0  3  0  0  0  0  0  0
  185.6850  178.6570  142.3770 C   0  0  1  0  0  3  0  0  0  0  0  0
  186.7990  178.2950  143.1570 O   0  0  0  0  0  0  0  0  0  0  0  0
  185.8530  178.1360  140.9900 C   0  0  0  0  0  0  0  0  0  0  0  0
  184.7120  177.9250  140.1640 N   0  0  0  0  0  1  0  0  0  0  0  0
  187.0050  177.9140  140.5310 O   0  0  0  0  0  0  0  0  0  0  0  0
  1  5  1  0  0  0  0
  1  7  1  6  0  0  0
  1  4  1  0  0  0  0
  2  8  1  6  0  0  0
  2  3  1  0  0  0  0
  4  6  1  0  0  0  0
  4  3  1  1  0  0  0
  5 18  1  6  0  0  0
  5  4  1  0  0  0  0
  5  6  1  0  0  0  0
  6 29  1  1  0  0  0
  7  2  1  0  0  0  0
 10 13  1  0  0  0  0
 11 10  1  0  0  0  0
 11 12  1  0  0  0  0
 12  8  1  6  0  0  0
 12  9  1  0  0  0  0
 13 16  1  6  0  0  0
 13  9  1  0  0  0  0
 15 16  1  0  0  0  0
 16 14  1  0  0  0  0
 16 17  1  0  0  0  0
 19 23  1  0  0  0  0
 20 19  2  0  0  0  0
 20 25  1  0  0  0  0
 21 24  1  0  0  0  0
 22 25  1  0  0  0  0
 23 24  2  0  0  0  0
 24 18  1  0  0  0  0
 25 21  2  0  0  0  0
 26 20  1  0  0  0  0
 27 26  1  0  0  0  0
 28 27  1  0  0  0  0
 29 30  1  0  0  0  0
 31 36  1  6  0  0  0
 31 33  1  0  0  0  0
 31 32  1  0  0  0  0
 32 35  1  0  0  0  0
 33 30  1  1  0  0  0
 33 32  1  0  0  0  0
 34 35  1  0  0  0  0
 37 36  1  1  0  0  0
 38 40  1  6  0  0  0
 38 39  1  0  0  0  0
 38 37  1  0  0  0  0
 39 37  1  0  0  0  0
 41 40  1  0  0  0  0
 42 40  2  0  0  0  0
M  END
>  <MODEL>
1

>  <REMARK>
 VINA RESULT:      -7.0      0.000      0.000
  Name = 
  14 active torsions:
  status: ('A' for Active; 'I' for Inactive)
    1  A    between atoms: C_1  and  C_24
    2  A    between atoms: C_5  and  C_8
    3  A    between atoms: C_5  and  N_23
    4  A    between atoms: C_10  and  C_25
    5  A    between atoms: C_12  and  N_36
    6  A    between atoms: C_19  and  C_27
    7  A    between atoms: C_19  and  C_41
    8  A    between atoms: C_21  and  C_25
    9  A    between atoms: C_22  and  N_36
   10  A    between atoms: N_26  and  C_30
   11  A    between atoms: C_31  and  C_34
   12  A    between atoms: C_32  and  N_40
   13  A    between atoms: C_33  and  N_40
   14  A    between atoms: C_37  and  C_41
                            x       y       z     vdW  Elec       q    Type
                         _______ _______ _______ _____ _____    ______ ____

>  <TORSDO>
F 14

$$$$
=
 OpenBabel11042419203D

 42 48  0  0  1  0  0  0  0  0999 V2000
  190.6430  174.2250  143.5660 N   0  0  2  0  0  0  0  0  0  0  0  0
  189.3880  174.9940  141.7630 C   0  0  1  0  0  3  0  0  0  0  0  0
  188.6600  175.1510  143.0940 C   0  0  0  0  0  2  0  0  0  0  0  0
  189.8600  175.4380  143.9400 C   0  0  2  0  0  0  0  0  0  0  0  0
  190.8540  174.8910  144.8470 C   0  0  1  0  0  0  0  0  0  0  0  0
  189.5410  175.4450  145.4090 C   0  0  1  0  0  3  0  0  0  0  0  0
  190.8260  174.7220  142.2180 C   0  0  0  0  0  2  0  0  0  0  0  0
  188.8600  173.8320  141.0530 N   0  0  0  0  0  2  0  0  0  0  0  0
  190.0060  172.3020  139.4750 C   0  0  0  0  0  2  0  0  0  0  0  0
  188.7320  172.6990  137.4360 C   0  0  0  0  0  2  0  0  0  0  0  0
  188.3530  174.2040  138.3850 S   0  0  0  0  0  0  0  0  0  0  0  0
  189.4820  173.7050  139.7320 C   0  0  1  0  0  3  0  0  0  0  0  0
  190.0230  172.1120  137.9750 C   0  0  2  0  0  3  0  0  0  0  0  0
  189.2410  169.8860  138.2920 F   0  0  0  0  0  0  0  0  0  0  0  0
  189.9710  170.4630  136.2390 F   0  0  0  0  0  0  0  0  0  0  0  0
  190.1700  170.6390  137.5970 C   0  0  0  0  0  0  0  0  0  0  0  0
  191.4370  170.1960  137.9310 F   0  0  0  0  0  0  0  0  0  0  0  0
  191.9840  175.8170  144.8230 N   0  0  0  0  0  2  0  0  0  0  0  0
  195.0610  173.8310  145.5970 C   0  0  0  0  0  3  0  0  0  0  0  0
  196.0370  174.5940  144.9480 C   0  0  0  0  0  0  0  0  0  0  0  0
  194.3240  176.1490  144.2200 C   0  0  0  0  0  3  0  0  0  0  0  0
  196.6190  176.5290  143.6000 O   0  0  0  0  0  1  0  0  0  0  0  0
  193.7210  174.2290  145.5630 C   0  0  0  0  0  3  0  0  0  0  0  0
  193.3480  175.3900  144.8730 C   0  0  0  0  0  0  0  0  0  0  0  0
  195.6650  175.7560  144.2540 C   0  0  0  0  0  0  0  0  0  0  0  0
  197.4570  174.1400  144.9770 C   0  0  0  0  0  2  0  0  0  0  0  0
  197.7180  173.2660  143.8460 N   0  0  0  0  0  2  0  0  0  0  0  0
  197.9400  171.9390  144.3880 C   0  0  0  0  0  1  0  0  0  0  0  0
  189.6600  176.8620  145.9480 C   0  0  0  0  0  2  0  0  0  0  0  0
  188.5590  177.1130  146.9570 C   0  0  0  0  0  2  0  0  0  0  0  0
  186.5420  177.7260  145.7120 C   0  0  1  0  0  3  0  0  0  0  0  0
  186.0130  177.2410  146.9960 N   0  0  0  0  0  0  0  0  0  0  0  0
  187.2270  176.6310  146.3840 C   0  0  2  0  0  3  0  0  0  0  0  0
  185.7900  179.5010  147.5240 O   0  0  0  0  0  1  0  0  0  0  0  0
  186.2990  178.2850  147.9750 C   0  0  0  0  0  2  0  0  0  0  0  0
  185.6940  177.1760  144.5830 C   0  0  0  0  0  2  0  0  0  0  0  0
  185.9460  177.9750  143.3220 C   0  0  1  0  0  3  0  0  0  0  0  0
  185.0540  177.4940  142.2420 C   0  0  1  0  0  3  0  0  0  0  0  0
  184.7720  178.6640  142.9740 O   0  0  0  0  0  0  0  0  0  0  0  0
  185.6130  177.8600  140.9090 C   0  0  0  0  0  0  0  0  0  0  0  0
  186.7970  177.2270  140.4340 N   0  0  0  0  0  1  0  0  0  0  0  0
  185.0210  178.7020  140.1830 O   0  0  0  0  0  0  0  0  0  0  0  0
  1  7  1  6  0  0  0
  1  4  1  0  0  0  0
  1  5  1  0  0  0  0
  2  8  1  1  0  0  0
  2  7  1  0  0  0  0
  2  3  1  0  0  0  0
  4  3  1  6  0  0  0
  4  5  1  0  0  0  0
  4  6  1  0  0  0  0
  5 18  1  1  0  0  0
  5  6  1  0  0  0  0
  6 29  1  1  0  0  0
  9 12  1  0  0  0  0
 10 13  1  0  0  0  0
 10 11  1  0  0  0  0
 11 12  1  0  0  0  0
 12  8  1  1  0  0  0
 13 16  1  1  0  0  0
 13  9  1  0  0  0  0
 15 16  1  0  0  0  0
 16 17  1  0  0  0  0
 16 14  1  0  0  0  0
 18 24  1  0  0  0  0
 20 26  1  0  0  0  0
 20 19  2  0  0  0  0
 21 25  2  0  0  0  0
 21 24  1  0  0  0  0
 22 25  1  0  0  0  0
 23 19  1  0  0  0  0
 24 23  2  0  0  0  0
 25 20  1  0  0  0  0
 27 28  1  0  0  0  0
 27 26  1  0  0  0  0
 29 30  1  0  0  0  0
 31 36  1  6  0  0  0
 31 33  1  0  0  0  0
 31 32  1  0  0  0  0
 32 35  1  0  0  0  0
 33 30  1  1  0  0  0
 33 32  1  0  0  0  0
 34 35  1  0  0  0  0
 37 36  1  1  0  0  0
 38 40  1  6  0  0  0
 38 39  1  0  0  0  0
 38 37  1  0  0  0  0
 39 37  1  0  0  0  0
 41 40  1  0  0  0  0
 42 40  2  0  0  0  0
M  END
>  <MODEL>
2

>  <REMARK>
 VINA RESULT:      -6.9      3.587      6.444
  Name = 
  14 active torsions:
  status: ('A' for Active; 'I' for Inactive)
    1  A    between atoms: C_1  and  C_24
    2  A    between atoms: C_5  and  C_8
    3  A    between atoms: C_5  and  N_23
    4  A    between atoms: C_10  and  C_25
    5  A    between atoms: C_12  and  N_36
    6  A    between atoms: C_19  and  C_27
    7  A    between atoms: C_19  and  C_41
    8  A    between atoms: C_21  and  C_25
    9  A    between atoms: C_22  and  N_36
   10  A    between atoms: N_26  and  C_30
   11  A    between atoms: C_31  and  C_34
   12  A    between atoms: C_32  and  N_40
   13  A    between atoms: C_33  and  N_40
   14  A    between atoms: C_37  and  C_41
                            x       y       z     vdW  Elec       q    Type
                         _______ _______ _______ _____ _____    ______ ____

>  <TORSDO>
F 14

$$$$
=
 OpenBabel11042419203D

 42 48  0  0  1  0  0  0  0  0999 V2000
  191.4710  173.9190  145.1030 N   0  0  2  0  0  0  0  0  0  0  0  0
  190.0600  173.5280  143.2930 C   0  0  1  0  0  3  0  0  0  0  0  0
  189.3370  174.1700  144.4730 C   0  0  0  0  0  2  0  0  0  0  0  0
  190.4700  175.0160  144.9590 C   0  0  2  0  0  0  0  0  0  0  0  0
  191.5670  175.1340  145.9050 C   0  0  1  0  0  0  0  0  0  0  0  0
  190.1810  175.6610  146.2860 C   0  0  1  0  0  3  0  0  0  0  0  0
  191.5300  173.7450  143.6650 C   0  0  0  0  0  2  0  0  0  0  0  0
  189.7580  172.0990  143.2560 N   0  0  0  0  0  2  0  0  0  0  0  0
  188.9000  172.7220  141.0160 C   0  0  0  0  0  2  0  0  0  0  0  0
  190.7690  172.0530  139.6010 C   0  0  0  0  0  2  0  0  0  0  0  0
  191.0870  171.0650  141.0940 S   0  0  0  0  0  0  0  0  0  0  0  0
  189.5440  171.6500  141.8780 C   0  0  1  0  0  3  0  0  0  0  0  0
  189.2990  172.4290  139.5870 C   0  0  2  0  0  3  0  0  0  0  0  0
  188.4060  174.6270  139.3890 F   0  0  0  0  0  0  0  0  0  0  0  0
  190.2210  174.1120  138.1550 F   0  0  0  0  0  0  0  0  0  0  0  0
  189.0340  173.6240  138.6730 C   0  0  0  0  0  0  0  0  0  0  0  0
  188.2090  173.2410  137.6310 F   0  0  0  0  0  0  0  0  0  0  0  0
  192.4920  176.1120  145.3380 N   0  0  0  0  0  2  0  0  0  0  0  0
  195.9650  174.7160  145.3870 C   0  0  0  0  0  3  0  0  0  0  0  0
  196.4600  175.1970  144.1710 C   0  0  0  0  0  0  0  0  0  0  0  0
  194.3270  176.2690  143.7380 C   0  0  0  0  0  3  0  0  0  0  0  0
  196.1060  176.4610  142.1270 O   0  0  0  0  0  1  0  0  0  0  0  0
  194.6580  175.0150  145.7810 C   0  0  0  0  0  3  0  0  0  0  0  0
  193.8340  175.7930  144.9570 C   0  0  0  0  0  0  0  0  0  0  0  0
  195.6350  175.9740  143.3410 C   0  0  0  0  0  0  0  0  0  0  0  0
  197.8490  174.8460  143.7580 C   0  0  0  0  0  2  0  0  0  0  0  0
  197.9410  173.4200  143.5000 N   0  0  0  0  0  2  0  0  0  0  0  0
  197.8480  173.2500  142.0620 C   0  0  0  0  0  1  0  0  0  0  0  0
  190.0280  177.1620  146.0990 C   0  0  0  0  0  2  0  0  0  0  0  0
  188.7150  177.6160  146.7030 C   0  0  0  0  0  2  0  0  0  0  0  0
  186.5330  178.4300  145.9490 C   0  0  1  0  0  3  0  0  0  0  0  0
  186.2990  176.9950  146.1770 N   0  0  0  0  0  0  0  0  0  0  0  0
  187.6060  177.4900  145.6600 C   0  0  2  0  0  3  0  0  0  0  0  0
  185.5080  177.8330  148.2040 O   0  0  0  0  0  1  0  0  0  0  0  0
  186.2610  176.8130  147.6240 C   0  0  0  0  0  2  0  0  0  0  0  0
  185.8610  178.8460  144.6560 C   0  0  0  0  0  2  0  0  0  0  0  0
  186.6980  178.3900  143.4800 C   0  0  1  0  0  3  0  0  0  0  0  0
  185.8320  177.7150  142.4860 C   0  0  1  0  0  3  0  0  0  0  0  0
  186.2530  179.0480  142.3200 O   0  0  0  0  0  0  0  0  0  0  0  0
  186.6460  176.8190  141.6150 C   0  0  0  0  0  0  0  0  0  0  0  0
  186.9700  177.2180  140.2860 N   0  0  0  0  0  1  0  0  0  0  0  0
  187.0810  175.7240  142.0610 O   0  0  0  0  0  0  0  0  0  0  0  0
  1  7  1  6  0  0  0
  1  5  1  0  0  0  0
  2  8  1  1  0  0  0
  2  7  1  0  0  0  0
  2  3  1  0  0  0  0
  4  3  1  6  0  0  0
  4  1  1  0  0  0  0
  4  5  1  0  0  0  0
  4  6  1  0  0  0  0
  5 18  1  6  0  0  0
  5  6  1  0  0  0  0
  6 29  1  6  0  0  0
  9 12  1  0  0  0  0
 10 11  1  0  0  0  0
 11 12  1  0  0  0  0
 12  8  1  1  0  0  0
 13 16  1  6  0  0  0
 13 10  1  0  0  0  0
 13  9  1  0  0  0  0
 15 16  1  0  0  0  0
 16 14  1  0  0  0  0
 17 16  1  0  0  0  0
 19 23  1  0  0  0  0
 20 19  2  0  0  0  0
 21 24  1  0  0  0  0
 22 25  1  0  0  0  0
 24 18  1  0  0  0  0
 24 23  2  0  0  0  0
 25 21  2  0  0  0  0
 25 20  1  0  0  0  0
 26 20  1  0  0  0  0
 27 26  1  0  0  0  0
 28 27  1  0  0  0  0
 29 30  1  0  0  0  0
 31 36  1  6  0  0  0
 31 32  1  0  0  0  0
 32 35  1  0  0  0  0
 33 31  1  0  0  0  0
 33 32  1  0  0  0  0
 33 30  1  1  0  0  0
 35 34  1  0  0  0  0
 37 36  1  1  0  0  0
 38 40  1  6  0  0  0
 38 37  1  0  0  0  0
 39 38  1  0  0  0  0
 39 37  1  0  0  0  0
 40 42  2  0  0  0  0
 41 40  1  0  0  0  0
M  END
>  <MODEL>
3

>  <REMARK>
 VINA RESULT:      -6.6      3.541      6.219
  Name = 
  14 active torsions:
  status: ('A' for Active; 'I' for Inactive)
    1  A    between atoms: C_1  and  C_24
    2  A    between atoms: C_5  and  C_8
    3  A    between atoms: C_5  and  N_23
    4  A    between atoms: C_10  and  C_25
    5  A    between atoms: C_12  and  N_36
    6  A    between atoms: C_19  and  C_27
    7  A    between atoms: C_19  and  C_41
    8  A    between atoms: C_21  and  C_25
    9  A    between atoms: C_22  and  N_36
   10  A    between atoms: N_26  and  C_30
   11  A    between atoms: C_31  and  C_34
   12  A    between atoms: C_32  and  N_40
   13  A    between atoms: C_33  and  N_40
   14  A    between atoms: C_37  and  C_41
                            x       y       z     vdW  Elec       q    Type
                         _______ _______ _______ _____ _____    ______ ____

>  <TORSDO>
F 14

$$$$
=
 OpenBabel11042419203D

 42 48  0  0  1  0  0  0  0  0999 V2000
  193.0690  175.1710  144.2790 N   0  0  2  0  0  0  0  0  0  0  0  0
  194.8280  174.3580  145.5690 C   0  0  1  0  0  3  0  0  0  0  0  0
  193.9650  175.3650  146.3220 C   0  0  0  0  0  2  0  0  0  0  0  0
  192.6530  175.0010  145.7020 C   0  0  2  0  0  0  0  0  0  0  0  0
  191.6740  175.3230  144.6780 C   0  0  1  0  0  0  0  0  0  0  0  0
  191.5570  175.9640  146.0640 C   0  0  1  0  0  3  0  0  0  0  0  0
  193.9420  174.0180  144.3660 C   0  0  0  0  0  2  0  0  0  0  0  0
  196.0560  175.0080  145.1190 N   0  0  0  0  0  2  0  0  0  0  0  0
  196.8190  172.7230  145.7040 C   0  0  0  0  0  2  0  0  0  0  0  0
  197.5990  171.9260  143.5370 C   0  0  0  0  0  2  0  0  0  0  0  0
  197.6360  173.7260  143.2820 S   0  0  0  0  0  0  0  0  0  0  0  0
  197.1480  174.0370  145.0160 C   0  0  1  0  0  3  0  0  0  0  0  0
  197.6540  171.6570  145.0290 C   0  0  2  0  0  3  0  0  0  0  0  0
  197.9410  169.3130  144.7290 F   0  0  0  0  0  0  0  0  0  0  0  0
  197.1950  170.0350  146.7300 F   0  0  0  0  0  0  0  0  0  0  0  0
  197.1510  170.2540  145.3650 C   0  0  0  0  0  0  0  0  0  0  0  0
  195.8480  170.1080  144.9250 F   0  0  0  0  0  0  0  0  0  0  0  0
  190.8910  174.1070  144.4650 N   0  0  0  0  0  2  0  0  0  0  0  0
  189.6930  172.2400  141.4500 C   0  0  0  0  0  3  0  0  0  0  0  0
  188.9640  173.2380  140.7950 C   0  0  0  0  0  0  0  0  0  0  0  0
  189.5110  174.7930  142.5740 C   0  0  0  0  0  3  0  0  0  0  0  0
  188.1490  175.5250  140.7280 O   0  0  0  0  0  1  0  0  0  0  0  0
  190.3350  172.5190  142.6600 C   0  0  0  0  0  3  0  0  0  0  0  0
  190.2450  173.7980  143.2270 C   0  0  0  0  0  0  0  0  0  0  0  0
  188.8700  174.5190  141.3620 C   0  0  0  0  0  0  0  0  0  0  0  0
  188.2680  172.9120  139.5170 C   0  0  0  0  0  2  0  0  0  0  0  0
  189.2080  172.3220  138.5800 N   0  0  0  0  0  2  0  0  0  0  0  0
  189.2510  173.2000  137.4260 C   0  0  0  0  0  1  0  0  0  0  0  0
  190.5530  175.2720  146.9720 C   0  0  0  0  0  2  0  0  0  0  0  0
  189.3470  176.1690  147.1680 C   0  0  0  0  0  2  0  0  0  0  0  0
  188.0290  177.5840  145.6670 C   0  0  1  0  0  3  0  0  0  0  0  0
  187.0940  176.5070  146.0260 N   0  0  0  0  0  0  0  0  0  0  0  0
  188.5510  176.2390  145.8670 C   0  0  2  0  0  3  0  0  0  0  0  0
  185.7720  177.8210  147.4270 O   0  0  0  0  0  1  0  0  0  0  0  0
  186.6820  176.7650  147.4020 C   0  0  0  0  0  2  0  0  0  0  0  0
  187.9160  177.8690  144.1830 C   0  0  0  0  0  2  0  0  0  0  0  0
  186.5130  177.5540  143.7120 C   0  0  1  0  0  3  0  0  0  0  0  0
  185.9190  178.7560  143.0830 C   0  0  1  0  0  3  0  0  0  0  0  0
  186.4550  177.7050  142.3150 O   0  0  0  0  0  0  0  0  0  0  0  0
  184.4300  178.6620  143.0910 C   0  0  0  0  0  0  0  0  0  0  0  0
  183.7570  177.9170  142.0820 N   0  0  0  0  0  1  0  0  0  0  0  0
  183.7660  179.2110  144.0100 O   0  0  0  0  0  0  0  0  0  0  0  0
  1  7  1  6  0  0  0
  1  5  1  0  0  0  0
  1  4  1  0  0  0  0
  2  8  1  6  0  0  0
  2  3  1  0  0  0  0
  4  6  1  0  0  0  0
  4  3  1  1  0  0  0
  5 18  1  6  0  0  0
  5  4  1  0  0  0  0
  5  6  1  0  0  0  0
  6 29  1  1  0  0  0
  7  2  1  0  0  0  0
 10 13  1  0  0  0  0
 11 10  1  0  0  0  0
 11 12  1  0  0  0  0
 12  8  1  6  0  0  0
 12  9  1  0  0  0  0
 13 16  1  6  0  0  0
 13  9  1  0  0  0  0
 14 16  1  0  0  0  0
 16 15  1  0  0  0  0
 17 16  1  0  0  0  0
 19 23  1  0  0  0  0
 20 25  1  0  0  0  0
 20 19  2  0  0  0  0
 21 24  1  0  0  0  0
 22 25  1  0  0  0  0
 23 24  2  0  0  0  0
 24 18  1  0  0  0  0
 25 21  2  0  0  0  0
 26 20  1  0  0  0  0
 27 26  1  0  0  0  0
 28 27  1  0  0  0  0
 29 30  1  0  0  0  0
 31 36  1  6  0  0  0
 31 33  1  0  0  0  0
 31 32  1  0  0  0  0
 32 35  1  0  0  0  0
 33 32  1  0  0  0  0
 33 30  1  1  0  0  0
 35 34  1  0  0  0  0
 37 36  1  1  0  0  0
 38 40  1  6  0  0  0
 38 37  1  0  0  0  0
 39 38  1  0  0  0  0
 39 37  1  0  0  0  0
 40 42  2  0  0  0  0
 41 40  1  0  0  0  0
M  END
>  <MODEL>
4

>  <REMARK>
 VINA RESULT:      -6.5      1.823      2.618
  Name = 
  14 active torsions:
  status: ('A' for Active; 'I' for Inactive)
    1  A    between atoms: C_1  and  C_24
    2  A    between atoms: C_5  and  C_8
    3  A    between atoms: C_5  and  N_23
    4  A    between atoms: C_10  and  C_25
    5  A    between atoms: C_12  and  N_36
    6  A    between atoms: C_19  and  C_27
    7  A    between atoms: C_19  and  C_41
    8  A    between atoms: C_21  and  C_25
    9  A    between atoms: C_22  and  N_36
   10  A    between atoms: N_26  and  C_30
   11  A    between atoms: C_31  and  C_34
   12  A    between atoms: C_32  and  N_40
   13  A    between atoms: C_33  and  N_40
   14  A    between atoms: C_37  and  C_41
                            x       y       z     vdW  Elec       q    Type
                         _______ _______ _______ _____ _____    ______ ____

>  <TORSDO>
F 14

$$$$
=
 OpenBabel11042419203D

 42 48  0  0  1  0  0  0  0  0999 V2000
  190.1520  175.4790  142.7930 N   0  0  2  0  0  0  0  0  0  0  0  0
  188.4070  176.6910  143.7440 C   0  0  1  0  0  3  0  0  0  0  0  0
  189.0560  175.7250  144.7300 C   0  0  0  0  0  2  0  0  0  0  0  0
  190.4560  175.8270  144.2110 C   0  0  2  0  0  0  0  0  0  0  0  0
  191.4720  175.2320  143.3620 C   0  0  1  0  0  0  0  0  0  0  0  0
  191.3760  174.8140  144.8310 C   0  0  1  0  0  3  0  0  0  0  0  0
  189.4360  176.7250  142.6090 C   0  0  0  0  0  2  0  0  0  0  0  0
  187.1500  176.1250  143.2630 N   0  0  0  0  0  2  0  0  0  0  0  0
  185.9070  176.8880  145.2680 C   0  0  0  0  0  2  0  0  0  0  0  0
  185.7270  179.2770  144.8200 C   0  0  0  0  0  2  0  0  0  0  0  0
  186.0430  178.6300  143.1500 S   0  0  0  0  0  0  0  0  0  0  0  0
  186.0100  176.9050  143.7520 C   0  0  1  0  0  3  0  0  0  0  0  0
  185.1730  178.1480  145.6680 C   0  0  2  0  0  3  0  0  0  0  0  0
  184.0810  178.5240  147.7500 F   0  0  0  0  0  0  0  0  0  0  0  0
  186.0570  177.4380  147.7780 F   0  0  0  0  0  0  0  0  0  0  0  0
  185.3290  178.4400  147.1600 C   0  0  0  0  0  0  0  0  0  0  0  0
  185.9820  179.6470  147.3330 F   0  0  0  0  0  0  0  0  0  0  0  0
  192.4260  176.2960  143.0570 N   0  0  0  0  0  2  0  0  0  0  0  0
  195.0140  175.1640  140.6010 C   0  0  0  0  0  3  0  0  0  0  0  0
  196.1820  175.6220  141.2190 C   0  0  0  0  0  0  0  0  0  0  0  0
  194.8540  176.5240  143.0380 C   0  0  0  0  0  3  0  0  0  0  0  0
  197.2490  176.7740  143.0720 O   0  0  0  0  0  1  0  0  0  0  0  0
  193.7700  175.3800  141.2010 C   0  0  0  0  0  3  0  0  0  0  0  0
  193.6860  176.0620  142.4230 C   0  0  0  0  0  0  0  0  0  0  0  0
  196.1000  176.3080  142.4410 C   0  0  0  0  0  0  0  0  0  0  0  0
  197.4960  175.4030  140.5490 C   0  0  0  0  0  2  0  0  0  0  0  0
  197.5850  174.0320  140.0760 N   0  0  0  0  0  2  0  0  0  0  0  0
  197.9410  173.2180  141.2240 C   0  0  0  0  0  1  0  0  0  0  0  0
  192.3770  175.5210  145.7320 C   0  0  0  0  0  2  0  0  0  0  0  0
  193.3720  174.5140  146.2710 C   0  0  0  0  0  2  0  0  0  0  0  0
  194.4700  172.3860  145.7630 C   0  0  1  0  0  3  0  0  0  0  0  0
  195.0570  173.3130  144.7820 N   0  0  0  0  0  0  0  0  0  0  0  0
  193.6360  173.4450  145.2120 C   0  0  2  0  0  3  0  0  0  0  0  0
  196.9060  173.3600  146.2020 O   0  0  0  0  0  1  0  0  0  0  0  0
  195.9860  174.1590  145.5260 C   0  0  0  0  0  2  0  0  0  0  0  0
  194.1440  171.0750  145.0760 C   0  0  0  0  0  2  0  0  0  0  0  0
  192.9240  171.2530  144.1980 C   0  0  1  0  0  3  0  0  0  0  0  0
  193.1490  170.5860  142.8940 C   0  0  1  0  0  3  0  0  0  0  0  0
  192.3790  169.9900  143.9110 O   0  0  0  0  0  0  0  0  0  0  0  0
  192.2480  171.1630  141.8550 C   0  0  0  0  0  0  0  0  0  0  0  0
  190.8930  170.7340  141.7690 N   0  0  0  0  0  1  0  0  0  0  0  0
  192.6710  172.0560  141.0750 O   0  0  0  0  0  0  0  0  0  0  0  0
  1  7  1  6  0  0  0
  1  5  1  0  0  0  0
  1  4  1  0  0  0  0
  2  8  1  6  0  0  0
  2  3  1  0  0  0  0
  4  3  1  1  0  0  0
  4  6  1  0  0  0  0
  5 18  1  6  0  0  0
  5  4  1  0  0  0  0
  5  6  1  0  0  0  0
  6 29  1  1  0  0  0
  7  2  1  0  0  0  0
  9 13  1  0  0  0  0
 10 13  1  0  0  0  0
 11 12  1  0  0  0  0
 11 10  1  0  0  0  0
 12  8  1  1  0  0  0
 12  9  1  0  0  0  0
 13 16  1  1  0  0  0
 16 17  1  0  0  0  0
 16 14  1  0  0  0  0
 16 15  1  0  0  0  0
 19 23  2  0  0  0  0
 19 20  1  0  0  0  0
 20 25  2  0  0  0  0
 23 24  1  0  0  0  0
 24 21  2  0  0  0  0
 24 18  1  0  0  0  0
 25 21  1  0  0  0  0
 25 22  1  0  0  0  0
 26 20  1  0  0  0  0
 27 26  1  0  0  0  0
 27 28  1  0  0  0  0
 29 30  1  0  0  0  0
 31 36  1  6  0  0  0
 32 33  1  0  0  0  0
 32 35  1  0  0  0  0
 32 31  1  0  0  0  0
 33 31  1  0  0  0  0
 33 30  1  1  0  0  0
 35 34  1  0  0  0  0
 37 36  1  1  0  0  0
 38 40  1  6  0  0  0
 38 39  1  0  0  0  0
 38 37  1  0  0  0  0
 39 37  1  0  0  0  0
 41 40  1  0  0  0  0
 42 40  2  0  0  0  0
M  END
>  <MODEL>
5

>  <REMARK>
 VINA RESULT:      -6.5      5.021      8.731
  Name = 
  14 active torsions:
  status: ('A' for Active; 'I' for Inactive)
    1  A    between atoms: C_1  and  C_24
    2  A    between atoms: C_5  and  C_8
    3  A    between atoms: C_5  and  N_23
    4  A    between atoms: C_10  and  C_25
    5  A    between atoms: C_12  and  N_36
    6  A    between atoms: C_19  and  C_27
    7  A    between atoms: C_19  and  C_41
    8  A    between atoms: C_21  and  C_25
    9  A    between atoms: C_22  and  N_36
   10  A    between atoms: N_26  and  C_30
   11  A    between atoms: C_31  and  C_34
   12  A    between atoms: C_32  and  N_40
   13  A    between atoms: C_33  and  N_40
   14  A    between atoms: C_37  and  C_41
                            x       y       z     vdW  Elec       q    Type
                         _______ _______ _______ _____ _____    ______ ____

>  <TORSDO>
F 14

$$$$
=
 OpenBabel11042419203D

 42 48  0  0  1  0  0  0  0  0999 V2000
  189.6070  173.5550  141.8700 N   0  0  2  0  0  0  0  0  0  0  0  0
  188.4060  175.5460  141.9870 C   0  0  1  0  0  3  0  0  0  0  0  0
  189.6230  175.5400  142.9070 C   0  0  0  0  0  2  0  0  0  0  0  0
  190.5220  174.7220  142.0350 C   0  0  2  0  0  0  0  0  0  0  0  0
  191.0540  173.3990  141.7570 C   0  0  1  0  0  0  0  0  0  0  0  0
  191.7920  174.3190  142.7330 C   0  0  1  0  0  3  0  0  0  0  0  0
  188.6920  174.3490  141.0750 C   0  0  0  0  0  2  0  0  0  0  0  0
  187.2000  175.3000  142.7730 N   0  0  0  0  0  2  0  0  0  0  0  0
  185.8460  177.0760  143.8490 C   0  0  0  0  0  2  0  0  0  0  0  0
  186.3320  178.9720  142.3970 C   0  0  0  0  0  2  0  0  0  0  0  0
  186.7710  177.5800  141.3130 S   0  0  0  0  0  0  0  0  0  0  0  0
  186.2150  176.3630  142.5580 C   0  0  1  0  0  3  0  0  0  0  0  0
  185.3800  178.4610  143.4620 C   0  0  2  0  0  3  0  0  0  0  0  0
  184.0890  179.3280  145.2660 F   0  0  0  0  0  0  0  0  0  0  0  0
  186.3010  179.0420  145.5950 F   0  0  0  0  0  0  0  0  0  0  0  0
  185.3360  179.3960  144.6700 C   0  0  0  0  0  0  0  0  0  0  0  0
  185.5590  180.6980  144.2590 F   0  0  0  0  0  0  0  0  0  0  0  0
  191.5170  173.4270  140.3720 N   0  0  0  0  0  2  0  0  0  0  0  0
  193.0790  170.4350  138.7540 C   0  0  0  0  0  3  0  0  0  0  0  0
  192.0010  169.9450  138.0100 C   0  0  0  0  0  0  0  0  0  0  0  0
  190.6170  171.7550  138.8410 C   0  0  0  0  0  3  0  0  0  0  0  0
  189.6780  170.1350  137.3270 O   0  0  0  0  0  1  0  0  0  0  0  0
  192.9290  171.5850  139.5340 C   0  0  0  0  0  3  0  0  0  0  0  0
  191.6960  172.2490  139.5810 C   0  0  0  0  0  0  0  0  0  0  0  0
  190.7640  170.6060  138.0580 C   0  0  0  0  0  0  0  0  0  0  0  0
  192.1760  168.7030  137.2040 C   0  0  0  0  0  2  0  0  0  0  0  0
  192.9050  169.0060  135.9840 N   0  0  0  0  0  2  0  0  0  0  0  0
  191.9610  168.8770  134.8910 C   0  0  0  0  0  1  0  0  0  0  0  0
  192.9690  175.0500  142.1080 C   0  0  0  0  0  2  0  0  0  0  0  0
  193.5380  176.0390  143.1060 C   0  0  0  0  0  2  0  0  0  0  0  0
  193.7770  176.4920  145.5000 C   0  0  1  0  0  3  0  0  0  0  0  0
  194.5140  175.2310  145.3190 N   0  0  0  0  0  0  0  0  0  0  0  0
  193.2880  175.5280  144.5240 C   0  0  2  0  0  3  0  0  0  0  0  0
  196.5570  174.4450  144.5150 O   0  0  0  0  0  1  0  0  0  0  0  0
  195.7600  175.5810  144.6450 C   0  0  0  0  0  2  0  0  0  0  0  0
  192.9410  176.4040  146.7610 C   0  0  0  0  0  2  0  0  0  0  0  0
  191.4760  176.3120  146.3930 C   0  0  1  0  0  3  0  0  0  0  0  0
  190.7710  175.4490  147.3700 C   0  0  1  0  0  3  0  0  0  0  0  0
  190.7070  176.8530  147.4380 O   0  0  0  0  0  0  0  0  0  0  0  0
  189.5110  174.9170  146.7750 C   0  0  0  0  0  0  0  0  0  0  0  0
  188.3020  175.6630  146.8810 N   0  0  0  0  0  1  0  0  0  0  0  0
  189.5170  173.8250  146.1480 O   0  0  0  0  0  0  0  0  0  0  0  0
  1  7  1  6  0  0  0
  1  4  1  0  0  0  0
  2  8  1  1  0  0  0
  2  3  1  0  0  0  0
  4  6  1  0  0  0  0
  4  3  1  6  0  0  0
  5 18  1  6  0  0  0
  5  1  1  0  0  0  0
  5  4  1  0  0  0  0
  5  6  1  0  0  0  0
  6 29  1  6  0  0  0
  7  2  1  0  0  0  0
 10 13  1  0  0  0  0
 11 10  1  0  0  0  0
 11 12  1  0  0  0  0
 12  8  1  1  0  0  0
 12  9  1  0  0  0  0
 13  9  1  0  0  0  0
 13 16  1  1  0  0  0
 16 14  1  0  0  0  0
 16 15  1  0  0  0  0
 17 16  1  0  0  0  0
 19 23  1  0  0  0  0
 20 25  1  0  0  0  0
 20 19  2  0  0  0  0
 21 24  1  0  0  0  0
 22 25  1  0  0  0  0
 23 24  2  0  0  0  0
 24 18  1  0  0  0  0
 25 21  2  0  0  0  0
 26 20  1  0  0  0  0
 27 26  1  0  0  0  0
 28 27  1  0  0  0  0
 29 30  1  0  0  0  0
 31 36  1  1  0  0  0
 32 31  1  0  0  0  0
 33 30  1  6  0  0  0
 33 32  1  0  0  0  0
 33 31  1  0  0  0  0
 34 35  1  0  0  0  0
 35 32  1  0  0  0  0
 37 36  1  1  0  0  0
 37 38  1  0  0  0  0
 37 39  1  0  0  0  0
 38 40  1  6  0  0  0
 38 39  1  0  0  0  0
 40 41  1  0  0  0  0
 42 40  2  0  0  0  0
M  END
>  <MODEL>
6

>  <REMARK>
 VINA RESULT:      -6.5      4.608      7.895
  Name = 
  14 active torsions:
  status: ('A' for Active; 'I' for Inactive)
    1  A    between atoms: C_1  and  C_24
    2  A    between atoms: C_5  and  C_8
    3  A    between atoms: C_5  and  N_23
    4  A    between atoms: C_10  and  C_25
    5  A    between atoms: C_12  and  N_36
    6  A    between atoms: C_19  and  C_27
    7  A    between atoms: C_19  and  C_41
    8  A    between atoms: C_21  and  C_25
    9  A    between atoms: C_22  and  N_36
   10  A    between atoms: N_26  and  C_30
   11  A    between atoms: C_31  and  C_34
   12  A    between atoms: C_32  and  N_40
   13  A    between atoms: C_33  and  N_40
   14  A    between atoms: C_37  and  C_41
                            x       y       z     vdW  Elec       q    Type
                         _______ _______ _______ _____ _____    ______ ____

>  <TORSDO>
F 14

$$$$
=
 OpenBabel11042419203D

 42 48  0  0  1  0  0  0  0  0999 V2000
  190.1750  176.1630  144.0050 N   0  0  2  0  0  0  0  0  0  0  0  0
  192.4700  175.8560  143.7690 C   0  0  1  0  0  3  0  0  0  0  0  0
  191.7630  174.6100  144.2940 C   0  0  0  0  0  2  0  0  0  0  0  0
  190.4830  174.7800  143.5380 C   0  0  2  0  0  0  0  0  0  0  0  0
  189.1120  175.2580  143.5820 C   0  0  1  0  0  0  0  0  0  0  0  0
  189.4210  173.8110  143.9780 C   0  0  1  0  0  3  0  0  0  0  0  0
  191.2950  176.6970  143.2580 C   0  0  0  0  0  2  0  0  0  0  0  0
  193.1330  176.5420  144.8740 N   0  0  0  0  0  2  0  0  0  0  0  0
  195.0660  175.2430  145.7240 C   0  0  0  0  0  2  0  0  0  0  0  0
  196.1610  174.6220  143.6370 C   0  0  0  0  0  2  0  0  0  0  0  0
  195.1620  176.0430  143.1000 S   0  0  0  0  0  0  0  0  0  0  0  0
  194.5850  176.3530  144.8050 C   0  0  1  0  0  3  0  0  0  0  0  0
  196.3600  174.7230  145.1380 C   0  0  2  0  0  3  0  0  0  0  0  0
  197.1890  173.5600  147.0420 F   0  0  0  0  0  0  0  0  0  0  0  0
  195.6680  172.5130  145.7490 F   0  0  0  0  0  0  0  0  0  0  0  0
  196.7500  173.3760  145.7440 C   0  0  0  0  0  0  0  0  0  0  0  0
  197.7750  172.8130  145.0060 F   0  0  0  0  0  0  0  0  0  0  0  0
  188.7090  175.4720  142.1940 N   0  0  0  0  0  2  0  0  0  0  0  0
  186.3440  177.5390  140.1570 C   0  0  0  0  0  3  0  0  0  0  0  0
  185.3950  177.8840  141.1250 C   0  0  0  0  0  0  0  0  0  0  0  0
  186.6430  176.6270  142.7830 C   0  0  0  0  0  3  0  0  0  0  0  0
  184.6120  177.7530  143.4200 O   0  0  0  0  0  1  0  0  0  0  0  0
  187.4420  176.7450  140.5020 C   0  0  0  0  0  3  0  0  0  0  0  0
  187.5940  176.2860  141.8170 C   0  0  0  0  0  0  0  0  0  0  0  0
  185.5440  177.4230  142.4430 C   0  0  0  0  0  0  0  0  0  0  0  0
  184.2190  178.7110  140.7310 C   0  0  0  0  0  2  0  0  0  0  0  0
  183.1540  177.8530  140.2410 N   0  0  0  0  0  2  0  0  0  0  0  0
  181.9340  178.2890  140.8940 C   0  0  0  0  0  1  0  0  0  0  0  0
  189.1580  172.8070  142.8670 C   0  0  0  0  0  2  0  0  0  0  0  0
  190.2000  171.7090  142.9210 C   0  0  0  0  0  2  0  0  0  0  0  0
  190.4230  171.3800  140.5050 C   0  0  1  0  0  3  0  0  0  0  0  0
  191.4850  170.5280  141.0620 N   0  0  0  0  0  0  0  0  0  0  0  0
  191.1190  171.8220  141.7050 C   0  0  2  0  0  3  0  0  0  0  0  0
  190.4860  168.4670  140.6250 O   0  0  0  0  0  1  0  0  0  0  0  0
  190.8160  169.3660  141.6380 C   0  0  0  0  0  2  0  0  0  0  0  0
  190.9620  172.1270  139.3020 C   0  0  0  0  0  2  0  0  0  0  0  0
  189.9890  173.2170  138.9040 C   0  0  1  0  0  3  0  0  0  0  0  0
  189.4360  172.9220  137.5620 C   0  0  1  0  0  3  0  0  0  0  0  0
  188.7130  172.6520  138.7380 O   0  0  0  0  0  0  0  0  0  0  0  0
  188.9190  174.1700  136.9300 C   0  0  0  0  0  0  0  0  0  0  0  0
  187.8160  174.8590  137.5110 N   0  0  0  0  0  1  0  0  0  0  0  0
  189.4760  174.6380  135.9020 O   0  0  0  0  0  0  0  0  0  0  0  0
  1  7  1  6  0  0  0
  2  3  1  0  0  0  0
  2  8  1  1  0  0  0
  4  5  1  0  0  0  0
  4  6  1  0  0  0  0
  4  1  1  0  0  0  0
  4  3  1  6  0  0  0
  5 18  1  6  0  0  0
  5  6  1  0  0  0  0
  5  1  1  0  0  0  0
  6 29  1  6  0  0  0
  7  2  1  0  0  0  0
 10 13  1  0  0  0  0
 11 10  1  0  0  0  0
 11 12  1  0  0  0  0
 12  8  1  6  0  0  0
 12  9  1  0  0  0  0
 13  9  1  0  0  0  0
 13 16  1  1  0  0  0
 16 15  1  0  0  0  0
 16 14  1  0  0  0  0
 17 16  1  0  0  0  0
 19 23  2  0  0  0  0
 19 20  1  0  0  0  0
 20 25  2  0  0  0  0
 23 24  1  0  0  0  0
 24 18  1  0  0  0  0
 24 21  2  0  0  0  0
 25 21  1  0  0  0  0
 25 22  1  0  0  0  0
 26 20  1  0  0  0  0
 27 26  1  0  0  0  0
 27 28  1  0  0  0  0
 29 30  1  0  0  0  0
 31 36  1  6  0  0  0
 31 32  1  0  0  0  0
 31 33  1  0  0  0  0
 32 35  1  0  0  0  0
 32 33  1  0  0  0  0
 33 30  1  1  0  0  0
 34 35  1  0  0  0  0
 37 36  1  1  0  0  0
 38 40  1  6  0  0  0
 38 39  1  0  0  0  0
 38 37  1  0  0  0  0
 39 37  1  0  0  0  0
 40 41  1  0  0  0  0
 42 40  2  0  0  0  0
M  END
>  <MODEL>
7

>  <REMARK>
 VINA RESULT:      -6.4      2.316      6.170
  Name = 
  14 active torsions:
  status: ('A' for Active; 'I' for Inactive)
    1  A    between atoms: C_1  and  C_24
    2  A    between atoms: C_5  and  C_8
    3  A    between atoms: C_5  and  N_23
    4  A    between atoms: C_10  and  C_25
    5  A    between atoms: C_12  and  N_36
    6  A    between atoms: C_19  and  C_27
    7  A    between atoms: C_19  and  C_41
    8  A    between atoms: C_21  and  C_25
    9  A    between atoms: C_22  and  N_36
   10  A    between atoms: N_26  and  C_30
   11  A    between atoms: C_31  and  C_34
   12  A    between atoms: C_32  and  N_40
   13  A    between atoms: C_33  and  N_40
   14  A    between atoms: C_37  and  C_41
                            x       y       z     vdW  Elec       q    Type
                         _______ _______ _______ _____ _____    ______ ____

>  <TORSDO>
F 14

$$$$
=
 OpenBabel11042419203D

 42 48  0  0  1  0  0  0  0  0999 V2000
  190.8810  174.7640  146.4740 N   0  0  2  0  0  0  0  0  0  0  0  0
  189.1770  176.1520  145.7050 C   0  0  1  0  0  3  0  0  0  0  0  0
  190.4550  176.9180  146.0330 C   0  0  0  0  0  2  0  0  0  0  0  0
  191.4290  175.8590  145.6220 C   0  0  2  0  0  0  0  0  0  0  0  0
  192.2810  174.7690  146.0630 C   0  0  1  0  0  0  0  0  0  0  0  0
  192.8420  176.1920  146.0120 C   0  0  1  0  0  3  0  0  0  0  0  0
  189.6760  174.7030  145.6720 C   0  0  0  0  0  2  0  0  0  0  0  0
  188.2130  176.3250  146.7870 N   0  0  0  0  0  2  0  0  0  0  0  0
  186.9750  177.8050  145.2310 C   0  0  0  0  0  2  0  0  0  0  0  0
  184.9710  178.2760  146.5350 C   0  0  0  0  0  2  0  0  0  0  0  0
  186.1230  177.7520  147.8410 S   0  0  0  0  0  0  0  0  0  0  0  0
  187.4940  177.5940  146.6430 C   0  0  1  0  0  3  0  0  0  0  0  0
  185.7850  178.7320  145.3390 C   0  0  2  0  0  3  0  0  0  0  0  0
  185.5240  179.5760  143.1280 F   0  0  0  0  0  0  0  0  0  0  0  0
  184.8810  177.4520  143.5280 F   0  0  0  0  0  0  0  0  0  0  0  0
  184.9510  178.7280  144.0590 C   0  0  0  0  0  0  0  0  0  0  0  0
  183.6710  179.1740  144.3350 F   0  0  0  0  0  0  0  0  0  0  0  0
  192.5260  173.9390  144.8860 N   0  0  0  0  0  2  0  0  0  0  0  0
  194.9970  171.2600  145.7370 C   0  0  0  0  0  3  0  0  0  0  0  0
  194.4740  170.1810  145.0180 C   0  0  0  0  0  0  0  0  0  0  0  0
  192.6680  171.5950  144.2280 C   0  0  0  0  0  3  0  0  0  0  0  0
  192.7640  169.2880  143.5420 O   0  0  0  0  0  1  0  0  0  0  0  0
  194.3620  172.5050  145.6970 C   0  0  0  0  0  3  0  0  0  0  0  0
  193.1940  172.6760  144.9420 C   0  0  0  0  0  0  0  0  0  0  0  0
  193.3020  170.3490  144.2630 C   0  0  0  0  0  0  0  0  0  0  0  0
  195.1530  168.8560  145.0940 C   0  0  0  0  0  2  0  0  0  0  0  0
  195.4020  168.5080  146.4830 N   0  0  0  0  0  2  0  0  0  0  0  0
  196.8120  168.1810  146.5840 C   0  0  0  0  0  1  0  0  0  0  0  0
  193.6590  176.4800  144.7620 C   0  0  0  0  0  2  0  0  0  0  0  0
  195.1350  176.4310  145.1010 C   0  0  0  0  0  2  0  0  0  0  0  0
  195.7750  175.7330  142.8440 C   0  0  1  0  0  3  0  0  0  0  0  0
  197.0630  175.8200  143.5500 N   0  0  0  0  0  0  0  0  0  0  0  0
  195.9520  176.7660  143.8550 C   0  0  2  0  0  3  0  0  0  0  0  0
  197.2420  173.4990  143.6800 O   0  0  0  0  0  1  0  0  0  0  0  0
  197.1210  174.6630  144.4370 C   0  0  0  0  0  2  0  0  0  0  0  0
  195.9190  176.3430  141.4650 C   0  0  0  0  0  2  0  0  0  0  0  0
  194.7250  175.9650  140.6150 C   0  0  1  0  0  3  0  0  0  0  0  0
  195.0910  174.8520  139.7090 C   0  0  1  0  0  3  0  0  0  0  0  0
  194.3660  174.6360  140.8960 O   0  0  0  0  0  0  0  0  0  0  0  0
  194.1660  174.8100  138.5410 C   0  0  0  0  0  0  0  0  0  0  0  0
  194.5610  175.3820  137.2980 N   0  0  0  0  0  1  0  0  0  0  0  0
  193.0480  174.2370  138.6370 O   0  0  0  0  0  0  0  0  0  0  0  0
  1  7  1  6  0  0  0
  2  3  1  0  0  0  0
  2  8  1  1  0  0  0
  4  6  1  0  0  0  0
  4  3  1  6  0  0  0
  4  5  1  0  0  0  0
  4  1  1  0  0  0  0
  5 18  1  6  0  0  0
  5  1  1  0  0  0  0
  6 29  1  6  0  0  0
  6  5  1  0  0  0  0
  7  2  1  0  0  0  0
  9 13  1  0  0  0  0
  9 12  1  0  0  0  0
 10 11  1  0  0  0  0
 12  8  1  6  0  0  0
 12 11  1  0  0  0  0
 13 16  1  6  0  0  0
 13 10  1  0  0  0  0
 14 16  1  0  0  0  0
 15 16  1  0  0  0  0
 16 17  1  0  0  0  0
 18 24  1  0  0  0  0
 20 26  1  0  0  0  0
 20 19  2  0  0  0  0
 21 25  2  0  0  0  0
 21 24  1  0  0  0  0
 22 25  1  0  0  0  0
 23 19  1  0  0  0  0
 24 23  2  0  0  0  0
 25 20  1  0  0  0  0
 26 27  1  0  0  0  0
 27 28  1  0  0  0  0
 29 30  1  0  0  0  0
 31 36  1  6  0  0  0
 31 32  1  0  0  0  0
 31 33  1  0  0  0  0
 32 33  1  0  0  0  0
 32 35  1  0  0  0  0
 33 30  1  1  0  0  0
 34 35  1  0  0  0  0
 37 39  1  0  0  0  0
 37 36  1  1  0  0  0
 38 40  1  6  0  0  0
 38 37  1  0  0  0  0
 38 39  1  0  0  0  0
 40 42  2  0  0  0  0
 41 40  1  0  0  0  0
M  END
>  <MODEL>
8

>  <REMARK>
 VINA RESULT:      -6.4      5.449      9.205
  Name = 
  14 active torsions:
  status: ('A' for Active; 'I' for Inactive)
    1  A    between atoms: C_1  and  C_24
    2  A    between atoms: C_5  and  C_8
    3  A    between atoms: C_5  and  N_23
    4  A    between atoms: C_10  and  C_25
    5  A    between atoms: C_12  and  N_36
    6  A    between atoms: C_19  and  C_27
    7  A    between atoms: C_19  and  C_41
    8  A    between atoms: C_21  and  C_25
    9  A    between atoms: C_22  and  N_36
   10  A    between atoms: N_26  and  C_30
   11  A    between atoms: C_31  and  C_34
   12  A    between atoms: C_32  and  N_40
   13  A    between atoms: C_33  and  N_40
   14  A    between atoms: C_37  and  C_41
                            x       y       z     vdW  Elec       q    Type
                         _______ _______ _______ _____ _____    ______ ____

>  <TORSDO>
F 14

$$$$
=
 OpenBabel11042419203D

 42 48  0  0  1  0  0  0  0  0999 V2000
  191.0060  175.0730  142.7490 N   0  0  2  0  0  0  0  0  0  0  0  0
  191.5500  175.4520  144.9810 C   0  0  1  0  0  3  0  0  0  0  0  0
  190.4750  176.4060  144.4680 C   0  0  0  0  0  2  0  0  0  0  0  0
  189.7960  175.4530  143.5360 C   0  0  2  0  0  0  0  0  0  0  0  0
  189.6720  174.9920  142.1640 C   0  0  1  0  0  0  0  0  0  0  0  0
  188.7740  176.1270  142.6640 C   0  0  1  0  0  3  0  0  0  0  0  0
  191.5650  174.3760  143.8900 C   0  0  0  0  0  2  0  0  0  0  0  0
  192.8350  176.1430  145.0200 N   0  0  0  0  0  2  0  0  0  0  0  0
  194.5870  176.0400  143.2690 C   0  0  0  0  0  2  0  0  0  0  0  0
  196.4950  175.2570  144.5680 C   0  0  0  0  0  2  0  0  0  0  0  0
  195.1120  174.7460  145.6330 S   0  0  0  0  0  0  0  0  0  0  0  0
  193.8840  175.3220  144.4090 C   0  0  1  0  0  3  0  0  0  0  0  0
  195.9670  175.4300  143.1570 C   0  0  2  0  0  3  0  0  0  0  0  0
  197.7420  175.4930  141.5720 F   0  0  0  0  0  0  0  0  0  0  0  0
  196.1680  177.1020  141.4540 F   0  0  0  0  0  0  0  0  0  0  0  0
  196.8980  176.2990  142.3130 C   0  0  0  0  0  0  0  0  0  0  0  0
  197.6640  177.1010  143.1400 F   0  0  0  0  0  0  0  0  0  0  0  0
  189.1050  173.6470  142.2340 N   0  0  0  0  0  2  0  0  0  0  0  0
  190.6500  170.3010  141.5820 C   0  0  0  0  0  3  0  0  0  0  0  0
  190.7810  170.3380  140.1900 C   0  0  0  0  0  0  0  0  0  0  0  0
  189.7980  172.5550  140.1660 C   0  0  0  0  0  3  0  0  0  0  0  0
  190.4690  171.5270  138.0950 O   0  0  0  0  0  1  0  0  0  0  0  0
  190.1010  171.3900  142.2650 C   0  0  0  0  0  3  0  0  0  0  0  0
  189.6720  172.5210  141.5580 C   0  0  0  0  0  0  0  0  0  0  0  0
  190.3500  171.4690  139.4790 C   0  0  0  0  0  0  0  0  0  0  0  0
  191.3480  169.1560  139.4790 C   0  0  0  0  0  2  0  0  0  0  0  0
  192.7640  169.0310  139.7810 N   0  0  0  0  0  2  0  0  0  0  0  0
  193.4820  169.5830  138.6470 C   0  0  0  0  0  1  0  0  0  0  0  0
  187.3820  175.6700  143.0670 C   0  0  0  0  0  2  0  0  0  0  0  0
  186.3490  176.3910  142.2250 C   0  0  0  0  0  2  0  0  0  0  0  0
  184.5780  177.9160  142.9520 C   0  0  1  0  0  3  0  0  0  0  0  0
  185.3360  178.7170  141.9780 N   0  0  0  0  0  0  0  0  0  0  0  0
  186.0200  177.7370  142.8680 C   0  0  2  0  0  3  0  0  0  0  0  0
  183.6370  178.3920  140.4140 O   0  0  0  0  0  1  0  0  0  0  0  0
  184.9930  178.1880  140.6610 C   0  0  0  0  0  2  0  0  0  0  0  0
  184.2430  178.7770  144.1530 C   0  0  0  0  0  2  0  0  0  0  0  0
  184.6350  178.0520  145.4220 C   0  0  1  0  0  3  0  0  0  0  0  0
  185.6120  178.8680  146.1790 C   0  0  1  0  0  3  0  0  0  0  0  0
  184.2490  178.8270  146.5300 O   0  0  0  0  0  0  0  0  0  0  0  0
  186.3960  178.0050  147.1100 C   0  0  0  0  0  0  0  0  0  0  0  0
  187.6850  177.5330  146.7310 N   0  0  0  0  0  1  0  0  0  0  0  0
  185.9370  177.7190  148.2480 O   0  0  0  0  0  0  0  0  0  0  0  0
  1  4  1  0  0  0  0
  1  7  1  1  0  0  0
  2  8  1  6  0  0  0
  3  2  1  0  0  0  0
  4  3  1  1  0  0  0
  5 18  1  6  0  0  0
  5  6  1  0  0  0  0
  5  1  1  0  0  0  0
  5  4  1  0  0  0  0
  6 29  1  1  0  0  0
  6  4  1  0  0  0  0
  7  2  1  0  0  0  0
  9 12  1  0  0  0  0
 10 11  1  0  0  0  0
 12  8  1  1  0  0  0
 12 11  1  0  0  0  0
 13 16  1  6  0  0  0
 13  9  1  0  0  0  0
 13 10  1  0  0  0  0
 14 16  1  0  0  0  0
 15 16  1  0  0  0  0
 16 17  1  0  0  0  0
 19 23  1  0  0  0  0
 20 19  2  0  0  0  0
 21 24  1  0  0  0  0
 22 25  1  0  0  0  0
 24 18  1  0  0  0  0
 24 23  2  0  0  0  0
 25 21  2  0  0  0  0
 25 20  1  0  0  0  0
 26 27  1  0  0  0  0
 26 20  1  0  0  0  0
 28 27  1  0  0  0  0
 30 29  1  0  0  0  0
 31 36  1  1  0  0  0
 32 33  1  0  0  0  0
 32 31  1  0  0  0  0
 33 30  1  6  0  0  0
 33 31  1  0  0  0  0
 34 35  1  0  0  0  0
 35 32  1  0  0  0  0
 37 36  1  6  0  0  0
 37 38  1  0  0  0  0
 37 39  1  0  0  0  0
 38 39  1  0  0  0  0
 38 40  1  1  0  0  0
 40 42  2  0  0  0  0
 41 40  1  0  0  0  0
M  END
>  <MODEL>
9

>  <REMARK>
 VINA RESULT:      -6.4      2.582      4.165
  Name = 
  14 active torsions:
  status: ('A' for Active; 'I' for Inactive)
    1  A    between atoms: C_1  and  C_24
    2  A    between atoms: C_5  and  C_8
    3  A    between atoms: C_5  and  N_23
    4  A    between atoms: C_10  and  C_25
    5  A    between atoms: C_12  and  N_36
    6  A    between atoms: C_19  and  C_27
    7  A    between atoms: C_19  and  C_41
    8  A    between atoms: C_21  and  C_25
    9  A    between atoms: C_22  and  N_36
   10  A    between atoms: N_26  and  C_30
   11  A    between atoms: C_31  and  C_34
   12  A    between atoms: C_32  and  N_40
   13  A    between atoms: C_33  and  N_40
   14  A    between atoms: C_37  and  C_41
                            x       y       z     vdW  Elec       q    Type
                         _______ _______ _______ _____ _____    ______ ____

>  <TORSDO>
F 14

$$$$
