=
 OpenBabel11042416473D

 37 42  0  0  1  0  0  0  0  0999 V2000
  189.2200  175.2290  142.0850 C   0  0  2  0  0  3  0  0  0  0  0  0
  191.4030  176.3180  142.5000 C   0  0  0  0  0  2  0  0  0  0  0  0
  191.1370  177.2900  143.6610 C   0  0  0  0  0  2  0  0  0  0  0  0
  192.4280  175.6140  145.1630 C   0  0  2  0  0  3  0  0  0  0  0  0
  190.6510  174.3380  143.8000 C   0  0  0  0  0  2  0  0  0  0  0  0
  190.6170  175.0660  142.5240 N   0  0  0  0  0  0  0  0  0  0  0  0
  192.0520  174.3130  144.4230 C   0  0  2  0  0  3  0  0  0  0  0  0
  191.3490  176.7110  145.0660 C   0  0  0  0  0  2  0  0  0  0  0  0
  192.1350  173.2570  145.3100 F   0  0  0  0  0  0  0  0  0  0  0  0
  195.6680  174.4760  144.8850 C   0  0  1  0  0  3  0  0  0  0  0  0
  194.5810  175.0480  143.9700 C   0  0  0  0  0  2  0  0  0  0  0  0
  197.0010  174.4910  144.1690 C   0  0  0  0  0  1  0  0  0  0  0  0
  195.7190  175.3340  146.0080 O   0  0  0  0  0  0  0  0  0  0  0  0
  194.5630  177.1540  146.8430 O   0  0  0  0  0  0  0  0  0  0  0  0
  194.6990  176.2570  145.9700 C   0  0  0  0  0  0  0  0  0  0  0  0
  193.8300  176.1160  144.7750 C   0  0  2  0  0  3  0  0  0  0  0  0
  188.1950  172.5760  139.5960 C   0  0  0  0  0  2  0  0  0  0  0  0
  187.8520  172.6060  141.9740 N   0  0  0  0  0  1  0  0  0  0  0  0
  189.6490  172.6180  139.4380 N   0  0  0  0  0  2  0  0  0  0  0  0
  187.8190  173.4360  140.7790 C   0  0  1  0  0  3  0  0  0  0  0  0
  190.1350  173.7510  140.2220 C   0  0  0  0  0  2  0  0  0  0  0  0
  188.9270  174.4710  140.7790 C   0  0  2  0  0  3  0  0  0  0  0  0
  188.7830  176.6250  142.0470 N   0  0  0  0  0  2  0  0  0  0  0  0
  187.6870  176.0940  144.1720 C   0  0  0  0  0  2  0  0  0  0  0  0
  186.7580  178.1350  145.3060 C   0  0  2  0  0  3  0  0  0  0  0  0
  188.9740  176.7050  147.5120 C   0  0  0  0  0  2  0  0  0  0  0  0
  187.5270  176.7140  142.7750 C   0  0  1  0  0  3  0  0  0  0  0  0
  188.5570  175.3110  147.0530 C   0  0  0  0  0  2  0  0  0  0  0  0
  185.5430  179.8140  143.9110 C   0  0  0  0  0  1  0  0  0  0  0  0
  186.0640  178.3900  143.9570 C   0  0  1  0  0  3  0  0  0  0  0  0
  185.2590  178.6590  147.0790 F   0  0  0  0  0  0  0  0  0  0  0  0
  187.0340  178.1670  142.8010 C   0  0  0  0  0  2  0  0  0  0  0  0
  187.9080  177.1500  145.2600 C   0  0  1  0  0  3  0  0  0  0  0  0
  187.7670  176.5270  146.6210 C   0  0  0  0  0  0  0  0  0  0  0  0
  186.5630  176.7980  147.2870 O   0  0  0  0  0  0  0  0  0  0  0  0
  185.8200  177.5960  146.3920 C   0  0  0  0  0  0  0  0  0  0  0  0
  184.8090  176.8240  145.8390 F   0  0  0  0  0  0  0  0  0  0  0  0
  1 23  1  6  0  0  0
  1  6  1  0  0  0  0
  2  6  1  0  0  0  0
  2  3  1  0  0  0  0
  3  8  1  0  0  0  0
  4  8  1  6  0  0  0
  5  7  1  0  0  0  0
  6  5  1  0  0  0  0
  7  4  1  0  0  0  0
  7  9  1  1  0  0  0
 10 12  1  6  0  0  0
 10 13  1  0  0  0  0
 11 10  1  0  0  0  0
 15 13  1  0  0  0  0
 15 14  2  0  0  0  0
 16 11  1  6  0  0  0
 16  4  1  0  0  0  0
 16 15  1  0  0  0  0
 17 20  1  0  0  0  0
 19 17  1  0  0  0  0
 19 21  1  0  0  0  0
 20 18  1  1  0  0  0
 21 22  1  0  0  0  0
 22 20  1  0  0  0  0
 22  1  1  1  0  0  0
 25 36  1  1  0  0  0
 27 23  1  1  0  0  0
 27 32  1  0  0  0  0
 27 24  1  0  0  0  0
 28 26  1  0  0  0  0
 30 29  1  1  0  0  0
 30 25  1  0  0  0  0
 32 30  1  0  0  0  0
 33 24  1  6  0  0  0
 33 25  1  0  0  0  0
 33 34  1  0  0  0  0
 34 28  1  0  0  0  0
 34 35  1  0  0  0  0
 34 26  1  0  0  0  0
 36 31  1  0  0  0  0
 36 35  1  0  0  0  0
 37 36  1  0  0  0  0
M  END
>  <MODEL>
1

>  <REMARK>
 VINA RESULT:      -8.6      0.000      0.000
  Name = 
  5 active torsions:
  status: ('A' for Active; 'I' for Inactive)
    1  A    between atoms: N_3  and  C_7
    2  A    between atoms: N_3  and  C_10
    3  A    between atoms: C_10  and  N_26
    4  A    between atoms: C_10  and  C_32
    5  A    between atoms: C_22  and  C_37
                            x       y       z     vdW  Elec       q    Type
                         _______ _______ _______ _____ _____    ______ ____

>  <TORSDO>
F 5

$$$$
=
 OpenBabel11042416473D

 37 42  0  0  1  0  0  0  0  0999 V2000
  190.2430  175.3960  144.8030 C   0  0  2  0  0  3  0  0  0  0  0  0
  189.5160  173.4340  143.4840 C   0  0  0  0  0  2  0  0  0  0  0  0
  188.4090  173.9730  142.5630 C   0  0  0  0  0  2  0  0  0  0  0  0
  190.1370  173.8040  140.6350 C   0  0  2  0  0  3  0  0  0  0  0  0
  191.2060  175.0410  142.6280 C   0  0  0  0  0  2  0  0  0  0  0  0
  190.6050  174.3830  143.7960 N   0  0  0  0  0  0  0  0  0  0  0  0
  191.4160  174.0760  141.4550 C   0  0  2  0  0  3  0  0  0  0  0  0
  188.8830  174.5000  141.2030 C   0  0  0  0  0  2  0  0  0  0  0  0
  192.3830  174.5890  140.6130 F   0  0  0  0  0  0  0  0  0  0  0  0
  191.6930  171.1310  139.1200 C   0  0  1  0  0  3  0  0  0  0  0  0
  191.2440  171.5380  140.5270 C   0  0  0  0  0  2  0  0  0  0  0  0
  192.0230  169.6530  139.0940 C   0  0  0  0  0  1  0  0  0  0  0  0
  190.5900  171.3890  138.2730 O   0  0  0  0  0  0  0  0  0  0  0  0
  188.4920  172.3490  138.4160 O   0  0  0  0  0  0  0  0  0  0  0  0
  189.5900  172.0470  138.9520 C   0  0  0  0  0  0  0  0  0  0  0  0
  189.9240  172.3040  140.3750 C   0  0  2  0  0  3  0  0  0  0  0  0
  193.3830  176.5140  146.5860 C   0  0  0  0  0  2  0  0  0  0  0  0
  192.4700  177.3250  144.5170 N   0  0  0  0  0  1  0  0  0  0  0  0
  193.6440  175.0950  146.3370 N   0  0  0  0  0  2  0  0  0  0  0  0
  192.1160  176.8990  145.8620 C   0  0  1  0  0  3  0  0  0  0  0  0
  192.4080  174.5150  145.8170 C   0  0  0  0  0  2  0  0  0  0  0  0
  191.3470  175.5920  145.8560 C   0  0  2  0  0  3  0  0  0  0  0  0
  188.9210  175.1820  145.3930 N   0  0  0  0  0  2  0  0  0  0  0  0
  188.2030  177.1790  144.1680 C   0  0  0  0  0  2  0  0  0  0  0  0
  185.7420  177.6220  144.4190 C   0  0  2  0  0  3  0  0  0  0  0  0
  186.3440  177.2850  141.0500 C   0  0  0  0  0  2  0  0  0  0  0  0
  188.2860  176.4840  145.5360 C   0  0  1  0  0  3  0  0  0  0  0  0
  187.6950  177.9760  141.2060 C   0  0  0  0  0  2  0  0  0  0  0  0
  184.7210  177.3810  146.6860 C   0  0  0  0  0  1  0  0  0  0  0  0
  186.0270  177.5260  145.9280 C   0  0  1  0  0  3  0  0  0  0  0  0
  184.2020  179.3910  144.0140 F   0  0  0  0  0  0  0  0  0  0  0  0
  186.9270  176.3330  146.2330 C   0  0  0  0  0  2  0  0  0  0  0  0
  186.8190  177.0430  143.5250 C   0  0  1  0  0  3  0  0  0  0  0  0
  186.7030  177.9710  142.3480 C   0  0  0  0  0  0  0  0  0  0  0  0
  185.9480  179.1320  142.5680 O   0  0  0  0  0  0  0  0  0  0  0  0
  185.5420  179.0560  143.9170 C   0  0  0  0  0  0  0  0  0  0  0  0
  186.2930  179.9540  144.6600 F   0  0  0  0  0  0  0  0  0  0  0  0
  1 23  1  1  0  0  0
  2  6  1  0  0  0  0
  3  2  1  0  0  0  0
  4  8  1  1  0  0  0
  4  7  1  0  0  0  0
  5  6  1  0  0  0  0
  6  1  1  0  0  0  0
  7  9  1  6  0  0  0
  7  5  1  0  0  0  0
  8  3  1  0  0  0  0
 10 12  1  1  0  0  0
 10 11  1  0  0  0  0
 13 15  1  0  0  0  0
 13 10  1  0  0  0  0
 14 15  2  0  0  0  0
 15 16  1  0  0  0  0
 16 11  1  6  0  0  0
 16  4  1  0  0  0  0
 19 17  1  0  0  0  0
 20 18  1  6  0  0  0
 20 17  1  0  0  0  0
 21 22  1  0  0  0  0
 21 19  1  0  0  0  0
 22  1  1  6  0  0  0
 22 20  1  0  0  0  0
 24 27  1  0  0  0  0
 25 36  1  6  0  0  0
 25 30  1  0  0  0  0
 26 28  1  0  0  0  0
 26 34  1  0  0  0  0
 27 23  1  6  0  0  0
 27 32  1  0  0  0  0
 28 34  1  0  0  0  0
 30 32  1  0  0  0  0
 30 29  1  1  0  0  0
 33 24  1  1  0  0  0
 33 25  1  0  0  0  0
 34 35  1  0  0  0  0
 34 33  1  0  0  0  0
 35 36  1  0  0  0  0
 36 31  1  0  0  0  0
 36 37  1  0  0  0  0
M  END
>  <MODEL>
2

>  <REMARK>
 VINA RESULT:      -8.1      3.309      5.816
  Name = 
  5 active torsions:
  status: ('A' for Active; 'I' for Inactive)
    1  A    between atoms: N_3  and  C_7
    2  A    between atoms: N_3  and  C_10
    3  A    between atoms: C_10  and  N_26
    4  A    between atoms: C_10  and  C_32
    5  A    between atoms: C_22  and  C_37
                            x       y       z     vdW  Elec       q    Type
                         _______ _______ _______ _____ _____    ______ ____

>  <TORSDO>
F 5

$$$$
=
 OpenBabel11042416473D

 37 42  0  0  1  0  0  0  0  0999 V2000
  190.8220  175.1750  143.2680 C   0  0  2  0  0  3  0  0  0  0  0  0
  193.2900  175.3220  143.3440 C   0  0  0  0  0  2  0  0  0  0  0  0
  193.6020  175.8860  144.7400 C   0  0  0  0  0  2  0  0  0  0  0  0
  194.3810  173.4920  145.3700 C   0  0  2  0  0  3  0  0  0  0  0  0
  192.0590  173.3650  144.2550 C   0  0  0  0  0  2  0  0  0  0  0  0
  192.1020  174.4460  143.2620 N   0  0  0  0  0  0  0  0  0  0  0  0
  193.4250  172.6970  144.4540 C   0  0  2  0  0  3  0  0  0  0  0  0
  193.7990  174.8390  145.8440 C   0  0  0  0  0  2  0  0  0  0  0  0
  193.2410  171.4380  144.9910 F   0  0  0  0  0  0  0  0  0  0  0  0
  196.8370  171.5620  143.9190 C   0  0  1  0  0  3  0  0  0  0  0  0
  195.9270  172.7290  143.5250 C   0  0  0  0  0  2  0  0  0  0  0  0
  197.9410  171.4040  142.8940 C   0  0  0  0  0  1  0  0  0  0  0  0
  197.3940  171.9110  145.1710 O   0  0  0  0  0  0  0  0  0  0  0  0
  197.1810  173.5890  146.7460 O   0  0  0  0  0  0  0  0  0  0  0  0
  196.8190  173.0610  145.6630 C   0  0  0  0  0  0  0  0  0  0  0  0
  195.7870  173.6280  144.7610 C   0  0  2  0  0  3  0  0  0  0  0  0
  188.4130  173.3420  141.0040 C   0  0  0  0  0  2  0  0  0  0  0  0
  188.9480  172.8830  143.3010 N   0  0  0  0  0  1  0  0  0  0  0  0
  189.6870  173.1990  140.2990 N   0  0  0  0  0  2  0  0  0  0  0  0
  188.6830  173.9570  142.3560 C   0  0  1  0  0  3  0  0  0  0  0  0
  190.6600  174.0380  140.9940 C   0  0  0  0  0  2  0  0  0  0  0  0
  189.9230  174.7870  142.0820 C   0  0  2  0  0  3  0  0  0  0  0  0
  190.9790  176.6230  143.4170 N   0  0  0  0  0  2  0  0  0  0  0  0
  189.0110  177.7690  144.3190 C   0  0  0  0  0  2  0  0  0  0  0  0
  187.6360  176.2840  145.8080 C   0  0  2  0  0  3  0  0  0  0  0  0
  185.5580  177.3360  143.2800 C   0  0  0  0  0  2  0  0  0  0  0  0
  190.3070  177.0140  144.6470 C   0  0  1  0  0  3  0  0  0  0  0  0
  186.2360  178.7030  143.2690 C   0  0  0  0  0  2  0  0  0  0  0  0
  188.8280  174.8320  147.4560 C   0  0  0  0  0  1  0  0  0  0  0  0
  188.9670  176.0340  146.5410 C   0  0  1  0  0  3  0  0  0  0  0  0
  185.8820  176.4950  147.4030 F   0  0  0  0  0  0  0  0  0  0  0  0
  190.0940  175.7870  145.5440 C   0  0  0  0  0  2  0  0  0  0  0  0
  187.7710  176.8760  144.4210 C   0  0  1  0  0  3  0  0  0  0  0  0
  186.5240  177.7150  144.3790 C   0  0  0  0  0  0  0  0  0  0  0  0
  185.8850  177.9100  145.6120 O   0  0  0  0  0  0  0  0  0  0  0  0
  186.6890  177.2310  146.5530 C   0  0  0  0  0  0  0  0  0  0  0  0
  187.3970  178.1670  147.2910 F   0  0  0  0  0  0  0  0  0  0  0  0
  1 23  1  6  0  0  0
  2  3  1  0  0  0  0
  3  8  1  0  0  0  0
  4  8  1  6  0  0  0
  5  7  1  0  0  0  0
  6  1  1  0  0  0  0
  6  2  1  0  0  0  0
  6  5  1  0  0  0  0
  7  9  1  1  0  0  0
  7  4  1  0  0  0  0
 10 12  1  6  0  0  0
 10 13  1  0  0  0  0
 11 10  1  0  0  0  0
 13 15  1  0  0  0  0
 15 14  2  0  0  0  0
 16 11  1  6  0  0  0
 16  4  1  0  0  0  0
 16 15  1  0  0  0  0
 17 20  1  0  0  0  0
 19 21  1  0  0  0  0
 19 17  1  0  0  0  0
 20 18  1  1  0  0  0
 21 22  1  0  0  0  0
 22 20  1  0  0  0  0
 22  1  1  1  0  0  0
 24 27  1  0  0  0  0
 25 30  1  0  0  0  0
 25 36  1  1  0  0  0
 26 34  1  0  0  0  0
 27 23  1  6  0  0  0
 27 32  1  0  0  0  0
 28 26  1  0  0  0  0
 28 34  1  0  0  0  0
 30 29  1  1  0  0  0
 32 30  1  0  0  0  0
 33 24  1  1  0  0  0
 33 25  1  0  0  0  0
 34 33  1  0  0  0  0
 34 35  1  0  0  0  0
 35 36  1  0  0  0  0
 36 37  1  0  0  0  0
 36 31  1  0  0  0  0
M  END
>  <MODEL>
3

>  <REMARK>
 VINA RESULT:      -8.0      1.733      3.144
  Name = 
  5 active torsions:
  status: ('A' for Active; 'I' for Inactive)
    1  A    between atoms: N_3  and  C_7
    2  A    between atoms: N_3  and  C_10
    3  A    between atoms: C_10  and  N_26
    4  A    between atoms: C_10  and  C_32
    5  A    between atoms: C_22  and  C_37
                            x       y       z     vdW  Elec       q    Type
                         _______ _______ _______ _____ _____    ______ ____

>  <TORSDO>
F 5

$$$$
=
 OpenBabel11042416473D

 37 42  0  0  1  0  0  0  0  0999 V2000
  190.9170  173.7140  142.1610 C   0  0  2  0  0  3  0  0  0  0  0  0
  189.0240  174.1270  143.6980 C   0  0  0  0  0  2  0  0  0  0  0  0
  189.6840  174.4380  145.0520 C   0  0  0  0  0  2  0  0  0  0  0  0
  189.0300  176.9140  144.6330 C   0  0  2  0  0  3  0  0  0  0  0  0
  190.2050  175.9790  142.5380 C   0  0  0  0  0  2  0  0  0  0  0  0
  189.7730  174.5760  142.5060 N   0  0  0  0  0  0  0  0  0  0  0  0
  189.1230  176.9140  143.0920 C   0  0  2  0  0  3  0  0  0  0  0  0
  189.9950  175.9180  145.3080 C   0  0  0  0  0  2  0  0  0  0  0  0
  189.3710  178.2020  142.6610 F   0  0  0  0  0  0  0  0  0  0  0  0
  185.9470  178.4060  144.2650 C   0  0  1  0  0  3  0  0  0  0  0  0
  186.5940  177.0460  143.9830 C   0  0  0  0  0  2  0  0  0  0  0  0
  184.4410  178.2870  144.1690 C   0  0  0  0  0  1  0  0  0  0  0  0
  186.3170  178.7430  145.5880 O   0  0  0  0  0  0  0  0  0  0  0  0
  187.6780  177.9150  147.2630 O   0  0  0  0  0  0  0  0  0  0  0  0
  187.2320  177.8440  146.0880 C   0  0  0  0  0  0  0  0  0  0  0  0
  187.5800  176.7700  145.1260 C   0  0  2  0  0  3  0  0  0  0  0  0
  191.2870  172.7340  138.5290 C   0  0  0  0  0  2  0  0  0  0  0  0
  192.7010  174.1660  139.8430 N   0  0  0  0  0  1  0  0  0  0  0  0
  189.9810  173.3940  138.5510 N   0  0  0  0  0  2  0  0  0  0  0  0
  191.9400  172.9260  139.8770 C   0  0  1  0  0  3  0  0  0  0  0  0
  189.6500  173.6470  139.9520 C   0  0  0  0  0  2  0  0  0  0  0  0
  190.7400  173.0250  140.7970 C   0  0  2  0  0  3  0  0  0  0  0  0
  191.2840  172.7820  143.2290 N   0  0  0  0  0  2  0  0  0  0  0  0
  193.2410  174.1660  143.7340 C   0  0  0  0  0  2  0  0  0  0  0  0
  194.6050  173.2400  145.6300 C   0  0  2  0  0  3  0  0  0  0  0  0
  193.6620  176.4140  146.5560 C   0  0  0  0  0  2  0  0  0  0  0  0
  192.7360  172.7740  143.3260 C   0  0  1  0  0  3  0  0  0  0  0  0
  193.8070  176.8940  145.1150 C   0  0  0  0  0  2  0  0  0  0  0  0
  195.0430  170.7800  145.6810 C   0  0  0  0  0  1  0  0  0  0  0  0
  194.5920  171.9380  144.8100 C   0  0  1  0  0  3  0  0  0  0  0  0
  196.7610  173.5500  146.5890 F   0  0  0  0  0  0  0  0  0  0  0  0
  193.1940  171.6530  144.2700 C   0  0  0  0  0  2  0  0  0  0  0  0
  193.5590  174.2590  145.2300 C   0  0  1  0  0  3  0  0  0  0  0  0
  194.3140  175.5270  145.5200 C   0  0  0  0  0  0  0  0  0  0  0  0
  195.6910  175.3750  145.7330 O   0  0  0  0  0  0  0  0  0  0  0  0
  195.9380  173.9950  145.5700 C   0  0  0  0  0  0  0  0  0  0  0  0
  196.5690  173.7970  144.3510 F   0  0  0  0  0  0  0  0  0  0  0  0
  1  6  1  0  0  0  0
  1 23  1  1  0  0  0
  2  3  1  0  0  0  0
  3  8  1  0  0  0  0
  4 16  1  0  0  0  0
  4  8  1  1  0  0  0
  5  7  1  0  0  0  0
  6  5  1  0  0  0  0
  6  2  1  0  0  0  0
  7  9  1  1  0  0  0
  7  4  1  0  0  0  0
 10 12  1  1  0  0  0
 10 13  1  0  0  0  0
 11 10  1  0  0  0  0
 13 15  1  0  0  0  0
 15 14  2  0  0  0  0
 16 11  1  6  0  0  0
 16 15  1  0  0  0  0
 17 19  1  0  0  0  0
 17 20  1  0  0  0  0
 19 21  1  0  0  0  0
 20 18  1  6  0  0  0
 20 22  1  0  0  0  0
 21 22  1  0  0  0  0
 22  1  1  1  0  0  0
 25 36  1  6  0  0  0
 27 23  1  1  0  0  0
 27 24  1  0  0  0  0
 27 32  1  0  0  0  0
 28 34  1  0  0  0  0
 28 26  1  0  0  0  0
 30 25  1  0  0  0  0
 30 29  1  1  0  0  0
 32 30  1  0  0  0  0
 33 24  1  6  0  0  0
 33 34  1  0  0  0  0
 33 25  1  0  0  0  0
 34 35  1  0  0  0  0
 34 26  1  0  0  0  0
 36 35  1  0  0  0  0
 36 31  1  0  0  0  0
 37 36  1  0  0  0  0
M  END
>  <MODEL>
4

>  <REMARK>
 VINA RESULT:      -7.7      2.248      7.320
  Name = 
  5 active torsions:
  status: ('A' for Active; 'I' for Inactive)
    1  A    between atoms: N_3  and  C_7
    2  A    between atoms: N_3  and  C_10
    3  A    between atoms: C_10  and  N_26
    4  A    between atoms: C_10  and  C_32
    5  A    between atoms: C_22  and  C_37
                            x       y       z     vdW  Elec       q    Type
                         _______ _______ _______ _____ _____    ______ ____

>  <TORSDO>
F 5

$$$$
=
 OpenBabel11042416473D

 37 42  0  0  1  0  0  0  0  0999 V2000
  190.2890  174.1810  141.4740 C   0  0  2  0  0  3  0  0  0  0  0  0
  189.0960  174.2950  143.6380 C   0  0  0  0  0  2  0  0  0  0  0  0
  190.1450  174.8250  144.6310 C   0  0  0  0  0  2  0  0  0  0  0  0
  188.8610  177.0790  144.5520 C   0  0  2  0  0  3  0  0  0  0  0  0
  189.3060  176.2700  142.1450 C   0  0  0  0  0  2  0  0  0  0  0  0
  189.2100  174.8090  142.2570 N   0  0  0  0  0  0  0  0  0  0  0  0
  188.3490  176.9960  143.0980 C   0  0  2  0  0  3  0  0  0  0  0  0
  190.2020  176.3510  144.7740 C   0  0  0  0  0  2  0  0  0  0  0  0
  188.1260  178.2760  142.6310 F   0  0  0  0  0  0  0  0  0  0  0  0
  185.8280  178.1610  145.7730 C   0  0  1  0  0  3  0  0  0  0  0  0
  186.3820  176.9530  145.0120 C   0  0  0  0  0  2  0  0  0  0  0  0
  184.4410  177.8470  146.2950 C   0  0  0  0  0  1  0  0  0  0  0  0
  186.7100  178.3720  146.8580 O   0  0  0  0  0  0  0  0  0  0  0  0
  188.7180  177.5340  147.6380 O   0  0  0  0  0  0  0  0  0  0  0  0
  187.8120  177.5540  146.7640 C   0  0  0  0  0  0  0  0  0  0  0  0
  187.7830  176.6720  145.5710 C   0  0  2  0  0  3  0  0  0  0  0  0
  189.5180  171.8620  138.5900 C   0  0  0  0  0  2  0  0  0  0  0  0
  190.9520  173.7900  138.6160 N   0  0  0  0  0  1  0  0  0  0  0  0
  188.1970  172.3870  138.9410 N   0  0  0  0  0  2  0  0  0  0  0  0
  190.5570  172.6180  139.3830 C   0  0  1  0  0  3  0  0  0  0  0  0
  188.3530  173.1540  140.1740 C   0  0  0  0  0  2  0  0  0  0  0  0
  189.7860  172.9950  140.6330 C   0  0  2  0  0  3  0  0  0  0  0  0
  191.4710  173.8540  142.2720 N   0  0  0  0  0  2  0  0  0  0  0  0
  193.0400  175.6480  142.8380 C   0  0  0  0  0  2  0  0  0  0  0  0
  195.4370  174.9210  142.6440 C   0  0  2  0  0  3  0  0  0  0  0  0
  194.9880  175.9730  145.8860 C   0  0  0  0  0  2  0  0  0  0  0  0
  192.5790  174.6510  141.7660 C   0  0  1  0  0  3  0  0  0  0  0  0
  194.0410  177.0720  145.4150 C   0  0  0  0  0  2  0  0  0  0  0  0
  196.1030  173.5590  140.6580 C   0  0  0  0  0  1  0  0  0  0  0  0
  195.0330  174.4710  141.2290 C   0  0  1  0  0  3  0  0  0  0  0  0
  197.5990  175.9150  142.5710 F   0  0  0  0  0  0  0  0  0  0  0  0
  193.6990  173.7320  141.2580 C   0  0  0  0  0  2  0  0  0  0  0  0
  194.2820  175.1650  143.5930 C   0  0  1  0  0  3  0  0  0  0  0  0
  194.8580  176.2860  144.4130 C   0  0  0  0  0  0  0  0  0  0  0  0
  196.0100  176.8880  143.8880 O   0  0  0  0  0  0  0  0  0  0  0  0
  196.2520  176.2190  142.6700 C   0  0  0  0  0  0  0  0  0  0  0  0
  195.8930  177.0550  141.6240 F   0  0  0  0  0  0  0  0  0  0  0  0
  1  6  1  0  0  0  0
  1 23  1  1  0  0  0
  2  3  1  0  0  0  0
  3  8  1  0  0  0  0
  4  8  1  6  0  0  0
  4 16  1  0  0  0  0
  5  6  1  0  0  0  0
  5  7  1  0  0  0  0
  6  2  1  0  0  0  0
  7  9  1  6  0  0  0
  7  4  1  0  0  0  0
 10 12  1  1  0  0  0
 10 13  1  0  0  0  0
 11 10  1  0  0  0  0
 15 13  1  0  0  0  0
 15 14  2  0  0  0  0
 16 11  1  6  0  0  0
 16 15  1  0  0  0  0
 17 19  1  0  0  0  0
 17 20  1  0  0  0  0
 19 21  1  0  0  0  0
 20 18  1  6  0  0  0
 20 22  1  0  0  0  0
 21 22  1  0  0  0  0
 22  1  1  6  0  0  0
 25 36  1  6  0  0  0
 25 33  1  0  0  0  0
 27 23  1  1  0  0  0
 27 24  1  0  0  0  0
 28 26  1  0  0  0  0
 30 29  1  1  0  0  0
 30 32  1  0  0  0  0
 30 25  1  0  0  0  0
 31 36  1  0  0  0  0
 32 27  1  0  0  0  0
 33 24  1  6  0  0  0
 33 34  1  0  0  0  0
 34 28  1  0  0  0  0
 34 26  1  0  0  0  0
 35 34  1  0  0  0  0
 36 35  1  0  0  0  0
 37 36  1  0  0  0  0
M  END
>  <MODEL>
5

>  <REMARK>
 VINA RESULT:      -7.4      2.380      7.275
  Name = 
  5 active torsions:
  status: ('A' for Active; 'I' for Inactive)
    1  A    between atoms: N_3  and  C_7
    2  A    between atoms: N_3  and  C_10
    3  A    between atoms: C_10  and  N_26
    4  A    between atoms: C_10  and  C_32
    5  A    between atoms: C_22  and  C_37
                            x       y       z     vdW  Elec       q    Type
                         _______ _______ _______ _____ _____    ______ ____

>  <TORSDO>
F 5

$$$$
=
 OpenBabel11042416473D

 37 42  0  0  1  0  0  0  0  0999 V2000
  191.6410  175.0900  144.8470 C   0  0  2  0  0  3  0  0  0  0  0  0
  190.0870  176.9260  145.4250 C   0  0  0  0  0  2  0  0  0  0  0  0
  190.4040  178.0370  144.4100 C   0  0  0  0  0  2  0  0  0  0  0  0
  188.1750  177.3990  143.2440 C   0  0  2  0  0  3  0  0  0  0  0  0
  189.5600  175.2640  143.6560 C   0  0  0  0  0  2  0  0  0  0  0  0
  190.2410  175.5440  144.9260 N   0  0  0  0  0  0  0  0  0  0  0  0
  188.1640  175.8940  143.5880 C   0  0  2  0  0  3  0  0  0  0  0  0
  189.5940  177.9880  143.1080 C   0  0  0  0  0  2  0  0  0  0  0  0
  187.4090  175.2280  142.6430 F   0  0  0  0  0  0  0  0  0  0  0  0
  185.4010  177.0170  145.2490 C   0  0  1  0  0  3  0  0  0  0  0  0
  186.8800  177.3810  145.4110 C   0  0  0  0  0  2  0  0  0  0  0  0
  184.6460  177.3610  146.5150 C   0  0  0  0  0  1  0  0  0  0  0  0
  184.9230  177.8080  144.1780 O   0  0  0  0  0  0  0  0  0  0  0  0
  185.7680  179.2840  142.6120 O   0  0  0  0  0  0  0  0  0  0  0  0
  185.9540  178.4850  143.5670 C   0  0  0  0  0  0  0  0  0  0  0  0
  187.2750  178.2160  144.1860 C   0  0  2  0  0  3  0  0  0  0  0  0
  191.8730  171.4940  143.7070 C   0  0  0  0  0  2  0  0  0  0  0  0
  192.0030  173.4940  142.3810 N   0  0  0  0  0  1  0  0  0  0  0  0
  190.5450  171.5500  144.3200 N   0  0  0  0  0  2  0  0  0  0  0  0
  192.4260  172.8970  143.6390 C   0  0  1  0  0  3  0  0  0  0  0  0
  190.4250  172.8540  144.9680 C   0  0  0  0  0  2  0  0  0  0  0  0
  191.7580  173.5570  144.8300 C   0  0  2  0  0  3  0  0  0  0  0  0
  192.5120  175.7190  145.8410 N   0  0  0  0  0  2  0  0  0  0  0  0
  194.9460  175.5570  145.6170 C   0  0  0  0  0  2  0  0  0  0  0  0
  195.6560  175.0060  143.2700 C   0  0  2  0  0  3  0  0  0  0  0  0
  196.9180  172.5250  145.2880 C   0  0  0  0  0  2  0  0  0  0  0  0
  193.6660  176.2580  145.1380 C   0  0  1  0  0  3  0  0  0  0  0  0
  197.1780  173.5380  146.3990 C   0  0  0  0  0  2  0  0  0  0  0  0
  194.5240  176.1890  141.3830 C   0  0  0  0  0  1  0  0  0  0  0  0
  194.7790  176.2080  142.8790 C   0  0  1  0  0  3  0  0  0  0  0  0
  197.6450  175.0200  141.9630 F   0  0  0  0  0  0  0  0  0  0  0  0
  193.4470  176.1690  143.6210 C   0  0  0  0  0  2  0  0  0  0  0  0
  195.4040  174.4540  144.6570 C   0  0  1  0  0  3  0  0  0  0  0  0
  196.7950  174.0060  145.0120 C   0  0  0  0  0  0  0  0  0  0  0  0
  197.8140  174.4820  144.1750 O   0  0  0  0  0  0  0  0  0  0  0  0
  197.1600  175.3000  143.2290 C   0  0  0  0  0  0  0  0  0  0  0  0
  197.4180  176.6280  143.5350 F   0  0  0  0  0  0  0  0  0  0  0  0
  1  6  1  0  0  0  0
  1 23  1  1  0  0  0
  3  2  1  0  0  0  0
  4  8  1  1  0  0  0
  4  7  1  0  0  0  0
  4 16  1  0  0  0  0
  5  6  1  0  0  0  0
  6  2  1  0  0  0  0
  7  9  1  6  0  0  0
  7  5  1  0  0  0  0
  8  3  1  0  0  0  0
 10 11  1  0  0  0  0
 10 12  1  1  0  0  0
 13 10  1  0  0  0  0
 14 15  2  0  0  0  0
 15 13  1  0  0  0  0
 15 16  1  0  0  0  0
 16 11  1  1  0  0  0
 17 19  1  0  0  0  0
 19 21  1  0  0  0  0
 20 18  1  6  0  0  0
 20 17  1  0  0  0  0
 20 22  1  0  0  0  0
 22  1  1  6  0  0  0
 22 21  1  0  0  0  0
 25 36  1  1  0  0  0
 25 33  1  0  0  0  0
 26 28  1  0  0  0  0
 27 24  1  0  0  0  0
 27 23  1  1  0  0  0
 30 29  1  6  0  0  0
 30 25  1  0  0  0  0
 30 32  1  0  0  0  0
 31 36  1  0  0  0  0
 32 27  1  0  0  0  0
 33 34  1  0  0  0  0
 33 24  1  1  0  0  0
 34 26  1  0  0  0  0
 34 28  1  0  0  0  0
 35 34  1  0  0  0  0
 36 37  1  0  0  0  0
 36 35  1  0  0  0  0
M  END
>  <MODEL>
6

>  <REMARK>
 VINA RESULT:      -7.4      2.789      8.034
  Name = 
  5 active torsions:
  status: ('A' for Active; 'I' for Inactive)
    1  A    between atoms: N_3  and  C_7
    2  A    between atoms: N_3  and  C_10
    3  A    between atoms: C_10  and  N_26
    4  A    between atoms: C_10  and  C_32
    5  A    between atoms: C_22  and  C_37
                            x       y       z     vdW  Elec       q    Type
                         _______ _______ _______ _____ _____    ______ ____

>  <TORSDO>
F 5

$$$$
=
 OpenBabel11042416473D

 37 42  0  0  1  0  0  0  0  0999 V2000
  191.4880  174.1300  143.4440 C   0  0  2  0  0  3  0  0  0  0  0  0
  189.1770  174.5830  144.2030 C   0  0  0  0  0  2  0  0  0  0  0  0
  189.3470  175.3450  145.5280 C   0  0  0  0  0  2  0  0  0  0  0  0
  188.6350  177.4720  144.2240 C   0  0  2  0  0  3  0  0  0  0  0  0
  190.4900  176.2520  142.9130 C   0  0  0  0  0  2  0  0  0  0  0  0
  190.2190  174.8340  143.1860 N   0  0  0  0  0  0  0  0  0  0  0  0
  189.2080  177.0900  142.8410 C   0  0  2  0  0  3  0  0  0  0  0  0
  189.4250  176.8720  145.4040 C   0  0  0  0  0  2  0  0  0  0  0  0
  189.4600  178.2460  142.1300 F   0  0  0  0  0  0  0  0  0  0  0  0
  185.6610  178.5800  142.8850 C   0  0  1  0  0  3  0  0  0  0  0  0
  186.4750  177.2840  142.9290 C   0  0  0  0  0  2  0  0  0  0  0  0
  184.2570  178.2890  142.3980 C   0  0  0  0  0  1  0  0  0  0  0  0
  185.6160  179.0540  144.2170 O   0  0  0  0  0  0  0  0  0  0  0  0
  186.5210  178.5100  146.2730 O   0  0  0  0  0  0  0  0  0  0  0  0
  186.4280  178.3020  145.0350 C   0  0  0  0  0  0  0  0  0  0  0  0
  187.1230  177.2050  144.3180 C   0  0  2  0  0  3  0  0  0  0  0  0
  192.8600  172.7760  140.1930 C   0  0  0  0  0  2  0  0  0  0  0  0
  193.1950  174.9460  141.1680 N   0  0  0  0  0  1  0  0  0  0  0  0
  191.4140  172.6880  139.9910 N   0  0  0  0  0  2  0  0  0  0  0  0
  193.1170  173.5260  141.4770 C   0  0  1  0  0  3  0  0  0  0  0  0
  190.7800  173.0110  141.2670 C   0  0  0  0  0  2  0  0  0  0  0  0
  191.8800  173.1930  142.2890 C   0  0  2  0  0  3  0  0  0  0  0  0
  191.5320  173.4750  144.7520 N   0  0  0  0  0  2  0  0  0  0  0  0
  193.6760  172.7750  145.7060 C   0  0  0  0  0  2  0  0  0  0  0  0
  195.6240  173.9780  144.6700 C   0  0  2  0  0  3  0  0  0  0  0  0
  196.1600  170.6190  144.1650 C   0  0  0  0  0  2  0  0  0  0  0  0
  192.7220  173.9490  145.4420 C   0  0  1  0  0  3  0  0  0  0  0  0
  195.5520  170.3010  145.5280 C   0  0  0  0  0  2  0  0  0  0  0  0
  195.4240  176.4370  144.2800 C   0  0  0  0  0  1  0  0  0  0  0  0
  194.8370  175.2520  145.0230 C   0  0  1  0  0  3  0  0  0  0  0  0
  197.9370  174.3290  145.1080 F   0  0  0  0  0  0  0  0  0  0  0  0
  193.3660  175.0980  144.6530 C   0  0  0  0  0  2  0  0  0  0  0  0
  194.8120  172.7000  144.6810 C   0  0  1  0  0  3  0  0  0  0  0  0
  195.8640  171.7310  145.1450 C   0  0  0  0  0  0  0  0  0  0  0  0
  197.0300  172.3110  145.6670 O   0  0  0  0  0  0  0  0  0  0  0  0
  196.8070  173.7030  145.6050 C   0  0  0  0  0  0  0  0  0  0  0  0
  196.5500  174.1700  146.8850 F   0  0  0  0  0  0  0  0  0  0  0  0
  1 23  1  1  0  0  0
  2  3  1  0  0  0  0
  4 16  1  0  0  0  0
  4  8  1  1  0  0  0
  5  6  1  0  0  0  0
  6  1  1  0  0  0  0
  6  2  1  0  0  0  0
  7  9  1  6  0  0  0
  7  5  1  0  0  0  0
  7  4  1  0  0  0  0
  8  3  1  0  0  0  0
 10 12  1  1  0  0  0
 10 11  1  0  0  0  0
 10 13  1  0  0  0  0
 13 15  1  0  0  0  0
 15 14  2  0  0  0  0
 16 11  1  6  0  0  0
 16 15  1  0  0  0  0
 17 20  1  0  0  0  0
 19 17  1  0  0  0  0
 19 21  1  0  0  0  0
 20 18  1  6  0  0  0
 20 22  1  0  0  0  0
 21 22  1  0  0  0  0
 22  1  1  1  0  0  0
 25 33  1  0  0  0  0
 25 30  1  0  0  0  0
 25 36  1  1  0  0  0
 26 34  1  0  0  0  0
 26 28  1  0  0  0  0
 27 23  1  6  0  0  0
 27 24  1  0  0  0  0
 30 29  1  6  0  0  0
 31 36  1  0  0  0  0
 32 30  1  0  0  0  0
 32 27  1  0  0  0  0
 33 34  1  0  0  0  0
 33 24  1  1  0  0  0
 34 28  1  0  0  0  0
 34 35  1  0  0  0  0
 36 35  1  0  0  0  0
 36 37  1  0  0  0  0
M  END
>  <MODEL>
7

>  <REMARK>
 VINA RESULT:      -7.3      2.639      7.875
  Name = 
  5 active torsions:
  status: ('A' for Active; 'I' for Inactive)
    1  A    between atoms: N_3  and  C_7
    2  A    between atoms: N_3  and  C_10
    3  A    between atoms: C_10  and  N_26
    4  A    between atoms: C_10  and  C_32
    5  A    between atoms: C_22  and  C_37
                            x       y       z     vdW  Elec       q    Type
                         _______ _______ _______ _____ _____    ______ ____

>  <TORSDO>
F 5

$$$$
=
 OpenBabel11042416473D

 37 42  0  0  1  0  0  0  0  0999 V2000
  190.6890  174.8750  142.2740 C   0  0  2  0  0  3  0  0  0  0  0  0
  189.9440  176.6850  143.7870 C   0  0  0  0  0  2  0  0  0  0  0  0
  189.8010  177.9170  142.8770 C   0  0  0  0  0  2  0  0  0  0  0  0
  187.2360  177.5840  143.0820 C   0  0  2  0  0  3  0  0  0  0  0  0
  188.3360  175.3390  142.4540 C   0  0  0  0  0  2  0  0  0  0  0  0
  189.6250  175.3870  143.1560 N   0  0  0  0  0  0  0  0  0  0  0  0
  187.2190  176.0470  143.2290 C   0  0  2  0  0  3  0  0  0  0  0  0
  188.4180  178.1080  142.2420 C   0  0  0  0  0  2  0  0  0  0  0  0
  185.9960  175.5730  142.7990 F   0  0  0  0  0  0  0  0  0  0  0  0
  185.4890  177.3430  146.0400 C   0  0  1  0  0  3  0  0  0  0  0  0
  186.9450  177.2760  145.5710 C   0  0  0  0  0  2  0  0  0  0  0  0
  185.4420  177.4910  147.5460 C   0  0  0  0  0  1  0  0  0  0  0  0
  184.9380  178.4930  145.4300 O   0  0  0  0  0  0  0  0  0  0  0  0
  185.5670  180.0970  143.8880 O   0  0  0  0  0  0  0  0  0  0  0  0
  185.8200  179.0420  144.5270 C   0  0  0  0  0  0  0  0  0  0  0  0
  187.1010  178.2980  144.4370 C   0  0  2  0  0  3  0  0  0  0  0  0
  190.4500  171.1580  141.6290 C   0  0  0  0  0  2  0  0  0  0  0  0
  189.7550  172.9690  140.2100 N   0  0  0  0  0  1  0  0  0  0  0  0
  189.6540  171.3240  142.8450 N   0  0  0  0  0  2  0  0  0  0  0  0
  190.8130  172.5280  141.1070 C   0  0  1  0  0  3  0  0  0  0  0  0
  189.8350  172.7020  143.2940 C   0  0  0  0  0  2  0  0  0  0  0  0
  190.8520  173.3490  142.3810 C   0  0  2  0  0  3  0  0  0  0  0  0
  191.9550  175.5970  142.4110 N   0  0  0  0  0  2  0  0  0  0  0  0
  194.0980  174.4110  142.4310 C   0  0  0  0  0  2  0  0  0  0  0  0
  195.6290  175.2310  144.2470 C   0  0  2  0  0  3  0  0  0  0  0  0
  197.3050  175.6650  141.2760 C   0  0  0  0  0  2  0  0  0  0  0  0
  192.8400  174.7820  143.2300 C   0  0  1  0  0  3  0  0  0  0  0  0
  196.6990  174.3760  140.7280 C   0  0  0  0  0  2  0  0  0  0  0  0
  194.6610  175.6480  146.5120 C   0  0  0  0  0  1  0  0  0  0  0  0
  194.4300  174.9700  145.1750 C   0  0  1  0  0  3  0  0  0  0  0  0
  197.6330  174.5430  145.3310 F   0  0  0  0  0  0  0  0  0  0  0  0
  193.1410  175.4990  144.5540 C   0  0  0  0  0  2  0  0  0  0  0  0
  195.2940  175.3060  142.7720 C   0  0  1  0  0  3  0  0  0  0  0  0
  196.5540  174.7260  142.1930 C   0  0  0  0  0  0  0  0  0  0  0  0
  197.3980  174.0820  143.1080 O   0  0  0  0  0  0  0  0  0  0  0  0
  196.7320  174.1710  144.3490 C   0  0  0  0  0  0  0  0  0  0  0  0
  196.2020  172.9280  144.6600 F   0  0  0  0  0  0  0  0  0  0  0  0
  1 23  1  1  0  0  0
  1  6  1  0  0  0  0
  3  2  1  0  0  0  0
  4  8  1  1  0  0  0
  4  7  1  0  0  0  0
  4 16  1  0  0  0  0
  5  6  1  0  0  0  0
  5  7  1  0  0  0  0
  6  2  1  0  0  0  0
  7  9  1  6  0  0  0
  8  3  1  0  0  0  0
 10 12  1  1  0  0  0
 11 10  1  0  0  0  0
 13 10  1  0  0  0  0
 14 15  2  0  0  0  0
 15 13  1  0  0  0  0
 16 15  1  0  0  0  0
 16 11  1  1  0  0  0
 17 19  1  0  0  0  0
 19 21  1  0  0  0  0
 20 18  1  6  0  0  0
 20 17  1  0  0  0  0
 20 22  1  0  0  0  0
 22  1  1  6  0  0  0
 22 21  1  0  0  0  0
 24 27  1  0  0  0  0
 25 36  1  6  0  0  0
 25 30  1  0  0  0  0
 26 34  1  0  0  0  0
 27 23  1  6  0  0  0
 27 32  1  0  0  0  0
 28 26  1  0  0  0  0
 28 34  1  0  0  0  0
 30 29  1  1  0  0  0
 32 30  1  0  0  0  0
 33 24  1  1  0  0  0
 33 25  1  0  0  0  0
 34 33  1  0  0  0  0
 34 35  1  0  0  0  0
 35 36  1  0  0  0  0
 36 37  1  0  0  0  0
 36 31  1  0  0  0  0
M  END
>  <MODEL>
8

>  <REMARK>
 VINA RESULT:      -7.2      2.260      7.884
  Name = 
  5 active torsions:
  status: ('A' for Active; 'I' for Inactive)
    1  A    between atoms: N_3  and  C_7
    2  A    between atoms: N_3  and  C_10
    3  A    between atoms: C_10  and  N_26
    4  A    between atoms: C_10  and  C_32
    5  A    between atoms: C_22  and  C_37
                            x       y       z     vdW  Elec       q    Type
                         _______ _______ _______ _____ _____    ______ ____

>  <TORSDO>
F 5

$$$$
=
 OpenBabel11042416473D

 37 42  0  0  1  0  0  0  0  0999 V2000
  192.2780  175.3950  143.7250 C   0  0  2  0  0  3  0  0  0  0  0  0
  190.4330  177.0340  143.5510 C   0  0  0  0  0  2  0  0  0  0  0  0
  189.4520  176.4080  142.5450 C   0  0  0  0  0  2  0  0  0  0  0  0
  187.9270  175.8930  144.5800 C   0  0  2  0  0  3  0  0  0  0  0  0
  190.3210  175.0840  145.0870 C   0  0  0  0  0  2  0  0  0  0  0  0
  191.1640  176.0760  144.4080 N   0  0  0  0  0  0  0  0  0  0  0  0
  189.0290  175.6930  145.6430 C   0  0  2  0  0  3  0  0  0  0  0  0
  188.3700  175.5080  143.1550 C   0  0  0  0  0  2  0  0  0  0  0  0
  188.5370  174.8810  146.6450 F   0  0  0  0  0  0  0  0  0  0  0  0
  185.9180  177.7910  146.6360 C   0  0  1  0  0  3  0  0  0  0  0  0
  187.3480  177.8330  146.0900 C   0  0  0  0  0  2  0  0  0  0  0  0
  185.5580  179.1350  147.2340 C   0  0  0  0  0  1  0  0  0  0  0  0
  185.0870  177.5260  145.5230 O   0  0  0  0  0  0  0  0  0  0  0  0
  185.3170  177.0120  143.2810 O   0  0  0  0  0  0  0  0  0  0  0  0
  185.8370  177.2420  144.4040 C   0  0  0  0  0  0  0  0  0  0  0  0
  187.2980  177.2950  144.6540 C   0  0  2  0  0  3  0  0  0  0  0  0
  195.3140  175.1180  145.9600 C   0  0  0  0  0  2  0  0  0  0  0  0
  193.5620  173.5110  145.6120 N   0  0  0  0  0  1  0  0  0  0  0  0
  194.6270  176.2930  146.4980 N   0  0  0  0  0  2  0  0  0  0  0  0
  194.4180  174.4710  144.9320 C   0  0  1  0  0  3  0  0  0  0  0  0
  193.5310  176.6070  145.5840 C   0  0  0  0  0  2  0  0  0  0  0  0
  193.6300  175.6580  144.4100 C   0  0  2  0  0  3  0  0  0  0  0  0
  192.3110  175.6400  142.2820 N   0  0  0  0  0  2  0  0  0  0  0  0
  191.2290  173.6420  141.3660 C   0  0  0  0  0  2  0  0  0  0  0  0
  191.7650  173.2930  138.9360 C   0  0  2  0  0  3  0  0  0  0  0  0
  188.3420  173.5290  139.1660 C   0  0  0  0  0  2  0  0  0  0  0  0
  192.5590  174.3650  141.6260 C   0  0  1  0  0  3  0  0  0  0  0  0
  188.3650  172.7940  140.5020 C   0  0  0  0  0  2  0  0  0  0  0  0
  194.1250  173.6230  138.1850 C   0  0  0  0  0  1  0  0  0  0  0  0
  193.2290  173.4130  139.3920 C   0  0  1  0  0  3  0  0  0  0  0  0
  191.5830  171.5710  137.3030 F   0  0  0  0  0  0  0  0  0  0  0  0
  193.4000  174.5800  140.3590 C   0  0  0  0  0  2  0  0  0  0  0  0
  190.7410  173.8120  139.9240 C   0  0  1  0  0  3  0  0  0  0  0  0
  189.6100  172.8620  139.6450 C   0  0  0  0  0  0  0  0  0  0  0  0
  189.9440  171.7330  138.8830 O   0  0  0  0  0  0  0  0  0  0  0  0
  191.3280  171.8550  138.6330 C   0  0  0  0  0  0  0  0  0  0  0  0
  192.0060  170.9480  139.4330 F   0  0  0  0  0  0  0  0  0  0  0  0
  1 23  1  6  0  0  0
  1  6  1  0  0  0  0
  2  6  1  0  0  0  0
  3  8  1  0  0  0  0
  3  2  1  0  0  0  0
  4  8  1  6  0  0  0
  4 16  1  0  0  0  0
  4  7  1  0  0  0  0
  5  7  1  0  0  0  0
  6  5  1  0  0  0  0
  7  9  1  1  0  0  0
 10 12  1  6  0  0  0
 11 10  1  0  0  0  0
 13 10  1  0  0  0  0
 14 15  2  0  0  0  0
 15 16  1  0  0  0  0
 15 13  1  0  0  0  0
 16 11  1  1  0  0  0
 17 19  1  0  0  0  0
 20 18  1  1  0  0  0
 20 17  1  0  0  0  0
 21 19  1  0  0  0  0
 22  1  1  1  0  0  0
 22 20  1  0  0  0  0
 22 21  1  0  0  0  0
 24 27  1  0  0  0  0
 25 36  1  1  0  0  0
 25 30  1  0  0  0  0
 25 33  1  0  0  0  0
 26 34  1  0  0  0  0
 26 28  1  0  0  0  0
 27 23  1  6  0  0  0
 30 29  1  6  0  0  0
 30 32  1  0  0  0  0
 31 36  1  0  0  0  0
 32 27  1  0  0  0  0
 33 24  1  1  0  0  0
 34 33  1  0  0  0  0
 34 28  1  0  0  0  0
 35 34  1  0  0  0  0
 36 35  1  0  0  0  0
 36 37  1  0  0  0  0
M  END
>  <MODEL>
9

>  <REMARK>
 VINA RESULT:      -7.1      3.267      8.050
  Name = 
  5 active torsions:
  status: ('A' for Active; 'I' for Inactive)
    1  A    between atoms: N_3  and  C_7
    2  A    between atoms: N_3  and  C_10
    3  A    between atoms: C_10  and  N_26
    4  A    between atoms: C_10  and  C_32
    5  A    between atoms: C_22  and  C_37
                            x       y       z     vdW  Elec       q    Type
                         _______ _______ _______ _____ _____    ______ ____

>  <TORSDO>
F 5

$$$$
