=
 OpenBabel11042416073D

 34 36  0  0  0  0  0  0  0  0999 V2000
  187.1090  176.3010  141.5720 O   0  0  0  0  0  0  0  0  0  0  0  0
  184.9570  178.6990  146.8870 C   0  0  0  0  0  3  0  0  0  0  0  0
  186.7430  177.8670  145.4210 C   0  0  0  0  0  0  0  0  0  0  0  0
  184.0820  178.8140  145.7950 C   0  0  0  0  0  3  0  0  0  0  0  0
  185.8490  178.0220  144.3430 C   0  0  0  0  0  0  0  0  0  0  0  0
  183.8820  178.4770  143.3820 N   0  0  0  0  0  0  0  0  0  0  0  0
  184.5660  178.4620  144.5390 C   0  0  0  0  0  0  0  0  0  0  0  0
  186.0050  177.7500  143.0290 N   0  0  0  0  0  0  0  0  0  0  0  0
  188.4260  178.1160  142.3510 C   0  0  0  0  0  1  0  0  0  0  0  0
  184.7940  178.0340  142.4810 C   0  0  0  0  0  0  0  0  0  0  0  0
  187.1700  177.3150  142.3150 C   0  0  0  0  0  0  0  0  0  0  0  0
  186.2720  178.2270  146.7030 C   0  0  0  0  0  3  0  0  0  0  0  0
  188.1050  177.3390  145.2420 C   0  0  0  0  0  3  0  0  0  0  0  0
  188.9580  177.1700  146.2510 C   0  0  0  0  0  3  0  0  0  0  0  0
  192.2510  175.5060  146.9600 C   0  0  0  0  0  3  0  0  0  0  0  0
  190.3230  176.6670  146.0560 C   0  0  0  0  0  0  0  0  0  0  0  0
  192.3370  176.4200  144.7120 C   0  0  0  0  0  0  0  0  0  0  0  0
  190.9450  175.9800  147.1030 C   0  0  0  0  0  3  0  0  0  0  0  0
  191.0260  176.8850  144.8600 C   0  0  0  0  0  3  0  0  0  0  0  0
  192.9480  175.7290  145.7690 C   0  0  0  0  0  3  0  0  0  0  0  0
  193.0130  176.6560  143.5130 O   0  0  0  0  0  0  0  0  0  0  0  0
  194.0850  175.8810  143.1270 N   0  0  0  0  0  2  0  0  0  0  0  0
  194.2210  176.0410  141.6910 C   0  0  0  0  0  1  0  0  0  0  0  0
  184.4810  177.8810  141.0310 C   0  0  0  0  0  2  0  0  0  0  0  0
  183.4430  178.8220  140.6500 N   0  0  0  0  0  2  0  0  0  0  0  0
  182.2070  178.0660  140.5640 C   0  0  0  0  0  2  0  0  0  0  0  0
  181.0750  178.9060  141.0360 C   0  0  0  0  0  0  0  0  0  0  0  0
  180.9770  179.1800  142.2630 O   0  0  0  0  0  0  0  0  0  0  0  0
  180.1210  179.3600  140.1140 O   0  0  0  0  0  0  0  0  0  0  0  0
  178.0400  179.3690  138.8500 C   0  0  0  0  0  1  0  0  0  0  0  0
  178.7250  179.0440  140.1700 C   0  0  0  0  0  0  0  0  0  0  0  0
  178.0530  179.8200  141.2900 C   0  0  0  0  0  1  0  0  0  0  0  0
  178.5140  176.8170  139.2860 O   0  0  0  0  0  1  0  0  0  0  0  0
  178.5620  177.5590  140.4690 C   0  0  0  0  0  2  0  0  0  0  0  0
  1 11  2  0  0  0  0
  3 12  2  0  0  0  0
  4  2  2  0  0  0  0
  5  7  2  0  0  0  0
  5  3  1  0  0  0  0
  6  7  1  0  0  0  0
  7  4  1  0  0  0  0
  8  5  1  0  0  0  0
 10  8  1  0  0  0  0
 10  6  2  0  0  0  0
 11  9  1  0  0  0  0
 11  8  1  0  0  0  0
 12  2  1  0  0  0  0
 13  3  1  0  0  0  0
 13 14  2  0  0  0  0
 15 18  1  0  0  0  0
 16 14  1  0  0  0  0
 16 18  2  0  0  0  0
 17 19  2  0  0  0  0
 17 20  1  0  0  0  0
 19 16  1  0  0  0  0
 20 15  2  0  0  0  0
 21 17  1  0  0  0  0
 22 21  1  0  0  0  0
 23 22  1  0  0  0  0
 24 10  1  0  0  0  0
 25 24  1  0  0  0  0
 26 25  1  0  0  0  0
 26 27  1  0  0  0  0
 27 28  2  0  0  0  0
 29 31  1  0  0  0  0
 29 27  1  0  0  0  0
 30 31  1  0  0  0  0
 31 34  1  0  0  0  0
 31 32  1  0  0  0  0
 33 34  1  0  0  0  0
M  END
>  <MODEL>
1

>  <REMARK>
 VINA RESULT:      -7.5      0.000      0.000
  Name = 
  11 active torsions:
  status: ('A' for Active; 'I' for Inactive)
    1  A    between atoms: O_1  and  C_9
    2  A    between atoms: O_1  and  N_22
    3  A    between atoms: C_4  and  C_6
    4  A    between atoms: C_4  and  O_24
    5  A    between atoms: C_6  and  N_18
    6  A    between atoms: C_7  and  C_28
    7  A    between atoms: C_8  and  C_29
    8  A    between atoms: C_11  and  N_18
    9  A    between atoms: C_11  and  C_30
   10  A    between atoms: C_14  and  C_17
   11  A    between atoms: O_24  and  C_28
                            x       y       z     vdW  Elec       q    Type
                         _______ _______ _______ _____ _____    ______ ____

>  <TORSDO>
F 11

$$$$
=
 OpenBabel11042416073D

 34 36  0  0  0  0  0  0  0  0999 V2000
  186.6750  175.8950  142.0900 O   0  0  0  0  0  0  0  0  0  0  0  0
  185.0180  178.3710  147.5450 C   0  0  0  0  0  3  0  0  0  0  0  0
  186.6110  177.2880  146.0220 C   0  0  0  0  0  0  0  0  0  0  0  0
  184.1840  178.7130  146.4680 C   0  0  0  0  0  3  0  0  0  0  0  0
  185.7680  177.6730  144.9610 C   0  0  0  0  0  0  0  0  0  0  0  0
  183.9290  178.5540  144.0420 N   0  0  0  0  0  0  0  0  0  0  0  0
  184.5940  178.3430  145.1910 C   0  0  0  0  0  0  0  0  0  0  0  0
  185.8710  177.4490  143.6330 N   0  0  0  0  0  0  0  0  0  0  0  0
  188.3190  177.3730  142.9560 C   0  0  0  0  0  1  0  0  0  0  0  0
  184.7400  177.9920  143.1110 C   0  0  0  0  0  0  0  0  0  0  0  0
  186.9310  176.8350  142.8870 C   0  0  0  0  0  0  0  0  0  0  0  0
  186.2160  177.6630  147.3250 C   0  0  0  0  0  3  0  0  0  0  0  0
  187.8450  176.5160  145.8030 C   0  0  0  0  0  3  0  0  0  0  0  0
  188.9010  176.5910  146.6110 C   0  0  0  0  0  3  0  0  0  0  0  0
  192.4790  175.4750  146.8810 C   0  0  0  0  0  3  0  0  0  0  0  0
  190.1370  175.8350  146.3670 C   0  0  0  0  0  0  0  0  0  0  0  0
  191.4000  174.1350  145.1680 C   0  0  0  0  0  0  0  0  0  0  0  0
  191.2820  176.1590  147.1010 C   0  0  0  0  0  3  0  0  0  0  0  0
  190.2020  174.8190  145.3990 C   0  0  0  0  0  3  0  0  0  0  0  0
  192.5400  174.4680  145.9140 C   0  0  0  0  0  3  0  0  0  0  0  0
  191.4360  173.1330  144.1950 O   0  0  0  0  0  0  0  0  0  0  0  0
  190.4290  172.9950  143.2660 N   0  0  0  0  0  2  0  0  0  0  0  0
  191.0400  172.4570  142.0640 C   0  0  0  0  0  1  0  0  0  0  0  0
  184.4070  177.9820  141.6570 C   0  0  0  0  0  2  0  0  0  0  0  0
  183.2340  178.8040  141.4170 N   0  0  0  0  0  2  0  0  0  0  0  0
  182.3170  177.9990  140.6300 C   0  0  0  0  0  2  0  0  0  0  0  0
  180.9400  178.5460  140.7550 C   0  0  0  0  0  0  0  0  0  0  0  0
  180.7530  179.7870  140.6270 O   0  0  0  0  0  0  0  0  0  0  0  0
  179.8750  177.6780  141.0380 O   0  0  0  0  0  0  0  0  0  0  0  0
  177.8450  176.8430  142.0910 C   0  0  0  0  0  1  0  0  0  0  0  0
  178.6740  178.0640  141.7170 C   0  0  0  0  0  0  0  0  0  0  0  0
  177.8440  178.9860  140.8390 C   0  0  0  0  0  1  0  0  0  0  0  0
  178.3520  178.3210  144.0860 O   0  0  0  0  0  1  0  0  0  0  0  0
  179.0400  178.8290  142.9810 C   0  0  0  0  0  2  0  0  0  0  0  0
  1 11  2  0  0  0  0
  3 12  2  0  0  0  0
  4  2  2  0  0  0  0
  5  7  2  0  0  0  0
  5  3  1  0  0  0  0
  6  7  1  0  0  0  0
  7  4  1  0  0  0  0
  8  5  1  0  0  0  0
 10  8  1  0  0  0  0
 10  6  2  0  0  0  0
 11  9  1  0  0  0  0
 11  8  1  0  0  0  0
 12  2  1  0  0  0  0
 13  3  1  0  0  0  0
 13 14  2  0  0  0  0
 15 18  1  0  0  0  0
 16 14  1  0  0  0  0
 16 18  2  0  0  0  0
 17 19  2  0  0  0  0
 17 20  1  0  0  0  0
 19 16  1  0  0  0  0
 20 15  2  0  0  0  0
 21 17  1  0  0  0  0
 22 21  1  0  0  0  0
 23 22  1  0  0  0  0
 24 10  1  0  0  0  0
 25 24  1  0  0  0  0
 26 27  1  0  0  0  0
 26 25  1  0  0  0  0
 27 29  1  0  0  0  0
 28 27  2  0  0  0  0
 29 31  1  0  0  0  0
 31 30  1  0  0  0  0
 31 34  1  0  0  0  0
 32 31  1  0  0  0  0
 34 33  1  0  0  0  0
M  END
>  <MODEL>
2

>  <REMARK>
 VINA RESULT:      -7.2      1.787      2.071
  Name = 
  11 active torsions:
  status: ('A' for Active; 'I' for Inactive)
    1  A    between atoms: O_1  and  C_9
    2  A    between atoms: O_1  and  N_22
    3  A    between atoms: C_4  and  C_6
    4  A    between atoms: C_4  and  O_24
    5  A    between atoms: C_6  and  N_18
    6  A    between atoms: C_7  and  C_28
    7  A    between atoms: C_8  and  C_29
    8  A    between atoms: C_11  and  N_18
    9  A    between atoms: C_11  and  C_30
   10  A    between atoms: C_14  and  C_17
   11  A    between atoms: O_24  and  C_28
                            x       y       z     vdW  Elec       q    Type
                         _______ _______ _______ _____ _____    ______ ____

>  <TORSDO>
F 11

$$$$
=
 OpenBabel11042416073D

 34 36  0  0  0  0  0  0  0  0999 V2000
  190.4910  177.2650  146.2120 O   0  0  0  0  0  0  0  0  0  0  0  0
  190.5150  171.7600  143.3260 C   0  0  0  0  0  3  0  0  0  0  0  0
  189.7600  174.0780  143.6200 C   0  0  0  0  0  0  0  0  0  0  0  0
  191.6180  171.9880  144.1650 C   0  0  0  0  0  3  0  0  0  0  0  0
  190.8930  174.2810  144.4330 C   0  0  0  0  0  0  0  0  0  0  0  0
  192.7380  173.6700  145.5400 N   0  0  0  0  0  0  0  0  0  0  0  0
  191.7700  173.2620  144.7010 C   0  0  0  0  0  0  0  0  0  0  0  0
  191.3040  175.3780  145.1080 N   0  0  0  0  0  0  0  0  0  0  0  0
  190.6140  177.4760  143.8500 C   0  0  0  0  0  1  0  0  0  0  0  0
  192.4180  174.9680  145.7670 C   0  0  0  0  0  0  0  0  0  0  0  0
  190.7590  176.7050  145.1170 C   0  0  0  0  0  0  0  0  0  0  0  0
  189.5940  172.7930  143.0590 C   0  0  0  0  0  3  0  0  0  0  0  0
  188.7740  175.1410  143.3680 C   0  0  0  0  0  3  0  0  0  0  0  0
  187.9430  175.1300  142.3280 C   0  0  0  0  0  3  0  0  0  0  0  0
  186.1450  177.9280  140.5790 C   0  0  0  0  0  3  0  0  0  0  0  0
  186.9810  176.2100  142.0720 C   0  0  0  0  0  0  0  0  0  0  0  0
  185.1530  177.6520  142.7780 C   0  0  0  0  0  0  0  0  0  0  0  0
  187.0310  176.8810  140.8470 C   0  0  0  0  0  3  0  0  0  0  0  0
  186.0380  176.6010  143.0370 C   0  0  0  0  0  3  0  0  0  0  0  0
  185.2100  178.3150  141.5430 C   0  0  0  0  0  3  0  0  0  0  0  0
  184.2280  178.0230  143.7570 O   0  0  0  0  0  0  0  0  0  0  0  0
  184.3910  179.1690  144.5040 N   0  0  0  0  0  2  0  0  0  0  0  0
  184.1970  178.7940  145.8930 C   0  0  0  0  0  1  0  0  0  0  0  0
  193.2270  175.8500  146.6600 C   0  0  0  0  0  2  0  0  0  0  0  0
  194.6150  175.8400  146.2330 N   0  0  0  0  0  2  0  0  0  0  0  0
  194.7320  176.8280  145.1770 C   0  0  0  0  0  2  0  0  0  0  0  0
  195.6410  176.3190  144.1160 C   0  0  0  0  0  0  0  0  0  0  0  0
  196.5220  177.0830  143.6360 O   0  0  0  0  0  0  0  0  0  0  0  0
  195.4880  175.0060  143.6480 O   0  0  0  0  0  0  0  0  0  0  0  0
  193.5960  175.4380  142.1780 C   0  0  0  0  0  1  0  0  0  0  0  0
  194.8840  174.6560  142.3970 C   0  0  0  0  0  0  0  0  0  0  0  0
  194.5830  173.1670  142.3540 C   0  0  0  0  0  1  0  0  0  0  0  0
  195.4220  176.0670  140.5250 O   0  0  0  0  0  1  0  0  0  0  0  0
  195.8590  174.9670  141.2690 C   0  0  0  0  0  2  0  0  0  0  0  0
  2  4  1  0  0  0  0
  3  5  2  0  0  0  0
  4  7  2  0  0  0  0
  5  7  1  0  0  0  0
  5  8  1  0  0  0  0
  6 10  2  0  0  0  0
  7  6  1  0  0  0  0
  8 11  1  0  0  0  0
  8 10  1  0  0  0  0
  9 11  1  0  0  0  0
 10 24  1  0  0  0  0
 11  1  2  0  0  0  0
 12  2  2  0  0  0  0
 12  3  1  0  0  0  0
 13  3  1  0  0  0  0
 14 13  2  0  0  0  0
 15 18  2  0  0  0  0
 15 20  1  0  0  0  0
 16 14  1  0  0  0  0
 16 19  2  0  0  0  0
 17 19  1  0  0  0  0
 17 21  1  0  0  0  0
 18 16  1  0  0  0  0
 20 17  2  0  0  0  0
 21 22  1  0  0  0  0
 22 23  1  0  0  0  0
 25 24  1  0  0  0  0
 26 25  1  0  0  0  0
 27 26  1  0  0  0  0
 28 27  2  0  0  0  0
 29 27  1  0  0  0  0
 30 31  1  0  0  0  0
 31 29  1  0  0  0  0
 32 31  1  0  0  0  0
 33 34  1  0  0  0  0
 34 31  1  0  0  0  0
M  END
>  <MODEL>
3

>  <REMARK>
 VINA RESULT:      -7.1      3.609     10.882
  Name = 
  11 active torsions:
  status: ('A' for Active; 'I' for Inactive)
    1  A    between atoms: O_1  and  C_9
    2  A    between atoms: O_1  and  N_22
    3  A    between atoms: C_4  and  C_6
    4  A    between atoms: C_4  and  O_24
    5  A    between atoms: C_6  and  N_18
    6  A    between atoms: C_7  and  C_28
    7  A    between atoms: C_8  and  C_29
    8  A    between atoms: C_11  and  N_18
    9  A    between atoms: C_11  and  C_30
   10  A    between atoms: C_14  and  C_17
   11  A    between atoms: O_24  and  C_28
                            x       y       z     vdW  Elec       q    Type
                         _______ _______ _______ _____ _____    ______ ____

>  <TORSDO>
F 11

$$$$
=
 OpenBabel11042416073D

 34 36  0  0  0  0  0  0  0  0999 V2000
  191.2620  177.7670  142.7820 O   0  0  0  0  0  0  0  0  0  0  0  0
  188.8100  172.0610  142.5430 C   0  0  0  0  0  3  0  0  0  0  0  0
  190.4280  173.7200  143.3550 C   0  0  0  0  0  0  0  0  0  0  0  0
  187.9750  173.0800  142.0550 C   0  0  0  0  0  3  0  0  0  0  0  0
  189.5540  174.7180  142.8810 C   0  0  0  0  0  0  0  0  0  0  0  0
  187.7430  175.5030  141.8280 N   0  0  0  0  0  0  0  0  0  0  0  0
  188.3840  174.3960  142.2410 C   0  0  0  0  0  0  0  0  0  0  0  0
  189.6720  176.0640  142.8880 N   0  0  0  0  0  0  0  0  0  0  0  0
  190.9830  176.8060  144.9350 C   0  0  0  0  0  1  0  0  0  0  0  0
  188.5620  176.5020  142.2400 C   0  0  0  0  0  0  0  0  0  0  0  0
  190.6850  176.8910  143.4770 C   0  0  0  0  0  0  0  0  0  0  0  0
  190.0250  172.3770  143.1830 C   0  0  0  0  0  3  0  0  0  0  0  0
  191.7160  174.0420  143.9900 C   0  0  0  0  0  3  0  0  0  0  0  0
  192.6290  173.1200  144.2910 C   0  0  0  0  0  3  0  0  0  0  0  0
  195.3340  175.1250  145.9590 C   0  0  0  0  0  3  0  0  0  0  0  0
  193.9000  173.4510  144.9490 C   0  0  0  0  0  0  0  0  0  0  0  0
  196.1100  172.8330  145.7580 C   0  0  0  0  0  0  0  0  0  0  0  0
  194.1280  174.7710  145.3500 C   0  0  0  0  0  3  0  0  0  0  0  0
  194.8970  172.4840  145.1550 C   0  0  0  0  0  3  0  0  0  0  0  0
  196.3250  174.1600  146.1590 C   0  0  0  0  0  3  0  0  0  0  0  0
  197.0860  171.8510  145.9460 O   0  0  0  0  0  0  0  0  0  0  0  0
  196.7790  170.5090  145.8830 N   0  0  0  0  0  2  0  0  0  0  0  0
  197.8490  169.8700  145.1400 C   0  0  0  0  0  1  0  0  0  0  0  0
  188.2550  177.9420  141.9970 C   0  0  0  0  0  2  0  0  0  0  0  0
  186.9110  178.0740  141.4610 N   0  0  0  0  0  2  0  0  0  0  0  0
  186.1590  178.8660  142.4180 C   0  0  0  0  0  2  0  0  0  0  0  0
  185.1540  178.0050  143.0960 C   0  0  0  0  0  0  0  0  0  0  0  0
  183.9580  178.0170  142.6970 O   0  0  0  0  0  0  0  0  0  0  0  0
  185.5470  177.2110  144.1830 O   0  0  0  0  0  0  0  0  0  0  0  0
  185.4300  179.1610  145.6370 C   0  0  0  0  0  1  0  0  0  0  0  0
  185.9060  177.7240  145.4720 C   0  0  0  0  0  0  0  0  0  0  0  0
  187.4130  177.6680  145.6600 C   0  0  0  0  0  1  0  0  0  0  0  0
  186.1430  176.6790  147.6250 O   0  0  0  0  0  1  0  0  0  0  0  0
  185.2690  176.8560  146.5490 C   0  0  0  0  0  2  0  0  0  0  0  0
  1 11  2  0  0  0  0
  2 12  1  0  0  0  0
  3 13  1  0  0  0  0
  4  7  1  0  0  0  0
  4  2  2  0  0  0  0
  5  8  1  0  0  0  0
  5  3  1  0  0  0  0
  6 10  2  0  0  0  0
  6  7  1  0  0  0  0
  7  5  2  0  0  0  0
  8 11  1  0  0  0  0
 10  8  1  0  0  0  0
 11  9  1  0  0  0  0
 12  3  2  0  0  0  0
 13 14  2  0  0  0  0
 14 16  1  0  0  0  0
 15 20  1  0  0  0  0
 16 19  2  0  0  0  0
 16 18  1  0  0  0  0
 17 21  1  0  0  0  0
 17 20  2  0  0  0  0
 18 15  2  0  0  0  0
 19 17  1  0  0  0  0
 22 21  1  0  0  0  0
 23 22  1  0  0  0  0
 24 10  1  0  0  0  0
 25 24  1  0  0  0  0
 25 26  1  0  0  0  0
 26 27  1  0  0  0  0
 27 29  1  0  0  0  0
 28 27  2  0  0  0  0
 29 31  1  0  0  0  0
 31 30  1  0  0  0  0
 31 32  1  0  0  0  0
 31 34  1  0  0  0  0
 34 33  1  0  0  0  0
M  END
>  <MODEL>
4

>  <REMARK>
 VINA RESULT:      -7.1      3.681      6.371
  Name = 
  11 active torsions:
  status: ('A' for Active; 'I' for Inactive)
    1  A    between atoms: O_1  and  C_9
    2  A    between atoms: O_1  and  N_22
    3  A    between atoms: C_4  and  C_6
    4  A    between atoms: C_4  and  O_24
    5  A    between atoms: C_6  and  N_18
    6  A    between atoms: C_7  and  C_28
    7  A    between atoms: C_8  and  C_29
    8  A    between atoms: C_11  and  N_18
    9  A    between atoms: C_11  and  C_30
   10  A    between atoms: C_14  and  C_17
   11  A    between atoms: O_24  and  C_28
                            x       y       z     vdW  Elec       q    Type
                         _______ _______ _______ _____ _____    ______ ____

>  <TORSDO>
F 11

$$$$
=
 OpenBabel11042416073D

 34 36  0  0  0  0  0  0  0  0999 V2000
  190.6390  178.1830  142.5090 O   0  0  0  0  0  0  0  0  0  0  0  0
  191.3910  175.2050  147.9120 C   0  0  0  0  0  3  0  0  0  0  0  0
  190.0400  176.3300  146.1990 C   0  0  0  0  0  0  0  0  0  0  0  0
  192.4600  175.0660  147.0120 C   0  0  0  0  0  3  0  0  0  0  0  0
  191.1200  176.1480  145.3120 C   0  0  0  0  0  0  0  0  0  0  0  0
  193.1910  175.5400  144.7280 N   0  0  0  0  0  0  0  0  0  0  0  0
  192.2850  175.5540  145.7210 C   0  0  0  0  0  0  0  0  0  0  0  0
  191.2690  176.5240  144.0230 N   0  0  0  0  0  0  0  0  0  0  0  0
  189.0190  176.4800  142.8430 C   0  0  0  0  0  1  0  0  0  0  0  0
  192.5340  176.1420  143.7070 C   0  0  0  0  0  0  0  0  0  0  0  0
  190.3260  177.1350  143.1310 C   0  0  0  0  0  0  0  0  0  0  0  0
  190.1950  175.8340  147.5120 C   0  0  0  0  0  3  0  0  0  0  0  0
  188.8030  177.0190  145.7970 C   0  0  0  0  0  3  0  0  0  0  0  0
  187.6440  176.8620  146.4340 C   0  0  0  0  0  3  0  0  0  0  0  0
  184.2400  178.4450  146.5940 C   0  0  0  0  0  3  0  0  0  0  0  0
  186.4100  177.5350  146.0090 C   0  0  0  0  0  0  0  0  0  0  0  0
  184.9790  178.4790  144.2810 C   0  0  0  0  0  0  0  0  0  0  0  0
  185.4340  177.8250  146.9670 C   0  0  0  0  0  3  0  0  0  0  0  0
  186.1760  177.8640  144.6640 C   0  0  0  0  0  3  0  0  0  0  0  0
  184.0100  178.7680  145.2540 C   0  0  0  0  0  3  0  0  0  0  0  0
  184.7710  178.7910  142.9360 O   0  0  0  0  0  0  0  0  0  0  0  0
  184.3240  177.8460  142.0380 N   0  0  0  0  0  2  0  0  0  0  0  0
  184.4820  178.4200  140.7140 C   0  0  0  0  0  1  0  0  0  0  0  0
  193.1570  176.3570  142.3680 C   0  0  0  0  0  2  0  0  0  0  0  0
  193.8380  175.1470  141.9430 N   0  0  0  0  0  2  0  0  0  0  0  0
  193.0220  174.5550  140.8990 C   0  0  0  0  0  2  0  0  0  0  0  0
  192.6240  173.1780  141.2970 C   0  0  0  0  0  0  0  0  0  0  0  0
  193.4300  172.4670  141.9560 O   0  0  0  0  0  0  0  0  0  0  0  0
  191.3690  172.6850  140.9130 O   0  0  0  0  0  0  0  0  0  0  0  0
  190.4520  173.1100  143.1280 C   0  0  0  0  0  1  0  0  0  0  0  0
  190.3240  172.3300  141.8270 C   0  0  0  0  0  0  0  0  0  0  0  0
  190.3690  170.8410  142.1270 C   0  0  0  0  0  1  0  0  0  0  0  0
  188.0540  173.0560  142.1490 O   0  0  0  0  0  1  0  0  0  0  0  0
  188.9770  172.6350  141.1860 C   0  0  0  0  0  2  0  0  0  0  0  0
  1 11  2  0  0  0  0
  3 12  2  0  0  0  0
  4  2  2  0  0  0  0
  5  7  2  0  0  0  0
  5  3  1  0  0  0  0
  6  7  1  0  0  0  0
  7  4  1  0  0  0  0
  8  5  1  0  0  0  0
  9 11  1  0  0  0  0
 10  8  1  0  0  0  0
 10  6  2  0  0  0  0
 11  8  1  0  0  0  0
 12  2  1  0  0  0  0
 13  3  1  0  0  0  0
 13 14  2  0  0  0  0
 15 18  1  0  0  0  0
 16 14  1  0  0  0  0
 16 18  2  0  0  0  0
 17 19  2  0  0  0  0
 17 20  1  0  0  0  0
 19 16  1  0  0  0  0
 20 15  2  0  0  0  0
 21 17  1  0  0  0  0
 22 21  1  0  0  0  0
 23 22  1  0  0  0  0
 24 10  1  0  0  0  0
 25 24  1  0  0  0  0
 26 27  1  0  0  0  0
 26 25  1  0  0  0  0
 27 28  2  0  0  0  0
 29 27  1  0  0  0  0
 29 31  1  0  0  0  0
 31 32  1  0  0  0  0
 31 30  1  0  0  0  0
 34 31  1  0  0  0  0
 34 33  1  0  0  0  0
M  END
>  <MODEL>
5

>  <REMARK>
 VINA RESULT:      -7.0      3.121      9.103
  Name = 
  11 active torsions:
  status: ('A' for Active; 'I' for Inactive)
    1  A    between atoms: O_1  and  C_9
    2  A    between atoms: O_1  and  N_22
    3  A    between atoms: C_4  and  C_6
    4  A    between atoms: C_4  and  O_24
    5  A    between atoms: C_6  and  N_18
    6  A    between atoms: C_7  and  C_28
    7  A    between atoms: C_8  and  C_29
    8  A    between atoms: C_11  and  N_18
    9  A    between atoms: C_11  and  C_30
   10  A    between atoms: C_14  and  C_17
   11  A    between atoms: O_24  and  C_28
                            x       y       z     vdW  Elec       q    Type
                         _______ _______ _______ _____ _____    ______ ____

>  <TORSDO>
F 11

$$$$
=
 OpenBabel11042416073D

 34 36  0  0  0  0  0  0  0  0999 V2000
  190.0540  177.7770  142.4590 O   0  0  0  0  0  0  0  0  0  0  0  0
  191.1850  175.1440  147.9740 C   0  0  0  0  0  3  0  0  0  0  0  0
  189.6990  175.9810  146.2080 C   0  0  0  0  0  0  0  0  0  0  0  0
  192.2770  175.1460  147.0900 C   0  0  0  0  0  3  0  0  0  0  0  0
  190.8080  175.9420  145.3390 C   0  0  0  0  0  0  0  0  0  0  0  0
  192.9580  175.6510  144.7970 N   0  0  0  0  0  0  0  0  0  0  0  0
  192.0470  175.5550  145.7800 C   0  0  0  0  0  0  0  0  0  0  0  0
  190.9160  176.2920  144.0380 N   0  0  0  0  0  0  0  0  0  0  0  0
  188.7190  175.8510  142.8390 C   0  0  0  0  0  1  0  0  0  0  0  0
  192.2300  176.1060  143.7480 C   0  0  0  0  0  0  0  0  0  0  0  0
  189.9010  176.7140  143.1160 C   0  0  0  0  0  0  0  0  0  0  0  0
  189.9110  175.5600  147.5390 C   0  0  0  0  0  3  0  0  0  0  0  0
  188.3750  176.4500  145.7700 C   0  0  0  0  0  3  0  0  0  0  0  0
  187.8060  177.5600  146.2380 C   0  0  0  0  0  3  0  0  0  0  0  0
  184.2300  178.6990  146.4200 C   0  0  0  0  0  3  0  0  0  0  0  0
  186.4730  178.0040  145.8120 C   0  0  0  0  0  0  0  0  0  0  0  0
  184.8430  178.5120  144.0780 C   0  0  0  0  0  0  0  0  0  0  0  0
  185.5150  178.2940  146.7890 C   0  0  0  0  0  3  0  0  0  0  0  0
  186.1300  178.1150  144.4550 C   0  0  0  0  0  3  0  0  0  0  0  0
  183.8930  178.8050  145.0680 C   0  0  0  0  0  3  0  0  0  0  0  0
  184.5290  178.6090  142.7200 O   0  0  0  0  0  0  0  0  0  0  0  0
  185.1320  177.8000  141.7820 N   0  0  0  0  0  2  0  0  0  0  0  0
  184.6980  178.2740  140.4810 C   0  0  0  0  0  1  0  0  0  0  0  0
  192.8310  176.3710  142.4080 C   0  0  0  0  0  2  0  0  0  0  0  0
  193.7580  175.3060  142.0670 N   0  0  0  0  0  2  0  0  0  0  0  0
  195.0920  175.8240  142.3100 C   0  0  0  0  0  2  0  0  0  0  0  0
  195.9970  174.7080  142.6920 C   0  0  0  0  0  0  0  0  0  0  0  0
  197.2160  174.7630  142.3750 O   0  0  0  0  0  0  0  0  0  0  0  0
  195.4770  173.6010  143.3780 O   0  0  0  0  0  0  0  0  0  0  0  0
  194.6400  172.5530  145.4110 C   0  0  0  0  0  1  0  0  0  0  0  0
  195.8050  173.2580  144.7300 C   0  0  0  0  0  0  0  0  0  0  0  0
  196.1670  174.5060  145.5170 C   0  0  0  0  0  1  0  0  0  0  0  0
  196.6340  171.0080  144.9190 O   0  0  0  0  0  1  0  0  0  0  0  0
  197.0190  172.3390  144.7300 C   0  0  0  0  0  2  0  0  0  0  0  0
  1 11  2  0  0  0  0
  3 12  2  0  0  0  0
  4  2  2  0  0  0  0
  5  7  2  0  0  0  0
  5  3  1  0  0  0  0
  6  7  1  0  0  0  0
  7  4  1  0  0  0  0
  8  5  1  0  0  0  0
  9 11  1  0  0  0  0
 10  8  1  0  0  0  0
 10  6  2  0  0  0  0
 11  8  1  0  0  0  0
 12  2  1  0  0  0  0
 13  3  1  0  0  0  0
 13 14  2  0  0  0  0
 15 18  1  0  0  0  0
 16 14  1  0  0  0  0
 16 18  2  0  0  0  0
 17 19  2  0  0  0  0
 17 20  1  0  0  0  0
 19 16  1  0  0  0  0
 20 15  2  0  0  0  0
 21 17  1  0  0  0  0
 22 21  1  0  0  0  0
 23 22  1  0  0  0  0
 24 10  1  0  0  0  0
 25 26  1  0  0  0  0
 25 24  1  0  0  0  0
 26 27  1  0  0  0  0
 27 29  1  0  0  0  0
 28 27  2  0  0  0  0
 29 31  1  0  0  0  0
 31 30  1  0  0  0  0
 31 32  1  0  0  0  0
 34 31  1  0  0  0  0
 34 33  1  0  0  0  0
M  END
>  <MODEL>
6

>  <REMARK>
 VINA RESULT:      -7.0      3.169     10.951
  Name = 
  11 active torsions:
  status: ('A' for Active; 'I' for Inactive)
    1  A    between atoms: O_1  and  C_9
    2  A    between atoms: O_1  and  N_22
    3  A    between atoms: C_4  and  C_6
    4  A    between atoms: C_4  and  O_24
    5  A    between atoms: C_6  and  N_18
    6  A    between atoms: C_7  and  C_28
    7  A    between atoms: C_8  and  C_29
    8  A    between atoms: C_11  and  N_18
    9  A    between atoms: C_11  and  C_30
   10  A    between atoms: C_14  and  C_17
   11  A    between atoms: O_24  and  C_28
                            x       y       z     vdW  Elec       q    Type
                         _______ _______ _______ _____ _____    ______ ____

>  <TORSDO>
F 11

$$$$
=
 OpenBabel11042416073D

 34 36  0  0  0  0  0  0  0  0999 V2000
  189.6700  176.7840  146.8700 O   0  0  0  0  0  0  0  0  0  0  0  0
  189.8340  172.8730  142.0430 C   0  0  0  0  0  3  0  0  0  0  0  0
  189.1200  174.9330  143.1730 C   0  0  0  0  0  0  0  0  0  0  0  0
  190.8520  172.6780  142.9910 C   0  0  0  0  0  3  0  0  0  0  0  0
  190.1690  174.7230  144.0900 C   0  0  0  0  0  0  0  0  0  0  0  0
  191.8720  173.6040  145.0110 N   0  0  0  0  0  0  0  0  0  0  0  0
  190.9840  173.6250  144.0010 C   0  0  0  0  0  0  0  0  0  0  0  0
  190.5390  175.4350  145.1770 N   0  0  0  0  0  0  0  0  0  0  0  0
  190.0410  177.9000  144.8070 C   0  0  0  0  0  1  0  0  0  0  0  0
  191.5680  174.7260  145.7090 C   0  0  0  0  0  0  0  0  0  0  0  0
  190.0340  176.6840  145.6700 C   0  0  0  0  0  0  0  0  0  0  0  0
  188.9750  173.9860  142.1340 C   0  0  0  0  0  3  0  0  0  0  0  0
  188.1950  176.0720  143.2850 C   0  0  0  0  0  3  0  0  0  0  0  0
  187.1590  176.0880  144.1210 C   0  0  0  0  0  3  0  0  0  0  0  0
  185.3990  179.1320  145.4460 C   0  0  0  0  0  3  0  0  0  0  0  0
  186.2280  177.2210  144.2050 C   0  0  0  0  0  0  0  0  0  0  0  0
  184.3750  178.5320  143.3280 C   0  0  0  0  0  0  0  0  0  0  0  0
  186.2840  178.0590  145.3230 C   0  0  0  0  0  3  0  0  0  0  0  0
  185.2690  177.4620  143.2090 C   0  0  0  0  0  3  0  0  0  0  0  0
  184.4440  179.3670  144.4530 C   0  0  0  0  0  3  0  0  0  0  0  0
  183.4280  178.7450  142.3240 O   0  0  0  0  0  0  0  0  0  0  0  0
  183.6190  178.2770  141.0420 N   0  0  0  0  0  2  0  0  0  0  0  0
  182.3050  177.9600  140.5130 C   0  0  0  0  0  1  0  0  0  0  0  0
  192.3050  175.1280  146.9420 C   0  0  0  0  0  2  0  0  0  0  0  0
  193.1370  176.2850  146.6610 N   0  0  0  0  0  2  0  0  0  0  0  0
  194.3940  175.7760  146.1410 C   0  0  0  0  0  2  0  0  0  0  0  0
  194.9380  176.7260  145.1350 C   0  0  0  0  0  0  0  0  0  0  0  0
  194.9450  177.9610  145.3910 O   0  0  0  0  0  0  0  0  0  0  0  0
  195.4130  176.2370  143.9100 O   0  0  0  0  0  0  0  0  0  0  0  0
  193.1810  176.4520  142.9610 C   0  0  0  0  0  1  0  0  0  0  0  0
  194.5760  175.8630  142.8090 C   0  0  0  0  0  0  0  0  0  0  0  0
  194.4760  174.3490  142.7130 C   0  0  0  0  0  1  0  0  0  0  0  0
  196.5150  176.7880  141.7280 O   0  0  0  0  0  1  0  0  0  0  0  0
  195.1980  176.3710  141.5150 C   0  0  0  0  0  2  0  0  0  0  0  0
  2 12  2  0  0  0  0
  2  4  1  0  0  0  0
  3 13  1  0  0  0  0
  3  5  2  0  0  0  0
  4  7  2  0  0  0  0
  5  8  1  0  0  0  0
  6 10  2  0  0  0  0
  7  5  1  0  0  0  0
  7  6  1  0  0  0  0
  8 11  1  0  0  0  0
  8 10  1  0  0  0  0
  9 11  1  0  0  0  0
 10 24  1  0  0  0  0
 11  1  2  0  0  0  0
 12  3  1  0  0  0  0
 13 14  2  0  0  0  0
 14 16  1  0  0  0  0
 16 18  2  0  0  0  0
 17 20  1  0  0  0  0
 18 15  1  0  0  0  0
 19 17  2  0  0  0  0
 19 16  1  0  0  0  0
 20 15  2  0  0  0  0
 21 17  1  0  0  0  0
 22 21  1  0  0  0  0
 23 22  1  0  0  0  0
 25 24  1  0  0  0  0
 26 25  1  0  0  0  0
 27 28  2  0  0  0  0
 27 26  1  0  0  0  0
 29 27  1  0  0  0  0
 31 30  1  0  0  0  0
 31 29  1  0  0  0  0
 32 31  1  0  0  0  0
 34 33  1  0  0  0  0
 34 31  1  0  0  0  0
M  END
>  <MODEL>
7

>  <REMARK>
 VINA RESULT:      -6.9      2.609     10.579
  Name = 
  11 active torsions:
  status: ('A' for Active; 'I' for Inactive)
    1  A    between atoms: O_1  and  C_9
    2  A    between atoms: O_1  and  N_22
    3  A    between atoms: C_4  and  C_6
    4  A    between atoms: C_4  and  O_24
    5  A    between atoms: C_6  and  N_18
    6  A    between atoms: C_7  and  C_28
    7  A    between atoms: C_8  and  C_29
    8  A    between atoms: C_11  and  N_18
    9  A    between atoms: C_11  and  C_30
   10  A    between atoms: C_14  and  C_17
   11  A    between atoms: O_24  and  C_28
                            x       y       z     vdW  Elec       q    Type
                         _______ _______ _______ _____ _____    ______ ____

>  <TORSDO>
F 11

$$$$
=
 OpenBabel11042416073D

 34 36  0  0  0  0  0  0  0  0999 V2000
  190.9690  177.8910  144.0590 O   0  0  0  0  0  0  0  0  0  0  0  0
  188.8990  172.5840  141.5730 C   0  0  0  0  0  3  0  0  0  0  0  0
  188.6120  174.8840  142.3840 C   0  0  0  0  0  0  0  0  0  0  0  0
  190.2930  172.7490  141.5270 C   0  0  0  0  0  3  0  0  0  0  0  0
  190.0110  175.0260  142.2980 C   0  0  0  0  0  0  0  0  0  0  0  0
  192.1080  174.3310  141.9500 N   0  0  0  0  0  0  0  0  0  0  0  0
  190.8100  173.9850  141.9010 C   0  0  0  0  0  0  0  0  0  0  0  0
  190.8070  176.0740  142.6060 N   0  0  0  0  0  0  0  0  0  0  0  0
  189.5750  178.2530  142.1710 C   0  0  0  0  0  1  0  0  0  0  0  0
  192.0660  175.6140  142.3870 C   0  0  0  0  0  0  0  0  0  0  0  0
  190.4550  177.4010  143.0200 C   0  0  0  0  0  0  0  0  0  0  0  0
  188.0670  173.6390  142.0000 C   0  0  0  0  0  3  0  0  0  0  0  0
  187.7410  175.9680  142.8660 C   0  0  0  0  0  3  0  0  0  0  0  0
  186.4470  175.7980  143.1330 C   0  0  0  0  0  3  0  0  0  0  0  0
  184.1770  178.7900  143.0320 C   0  0  0  0  0  3  0  0  0  0  0  0
  185.5830  176.8940  143.5880 C   0  0  0  0  0  0  0  0  0  0  0  0
  184.5590  178.2120  145.3590 C   0  0  0  0  0  0  0  0  0  0  0  0
  184.9880  177.7250  142.6330 C   0  0  0  0  0  3  0  0  0  0  0  0
  185.3640  177.1430  144.9530 C   0  0  0  0  0  3  0  0  0  0  0  0
  183.9660  179.0360  144.3910 C   0  0  0  0  0  3  0  0  0  0  0  0
  184.3630  178.4400  146.7230 O   0  0  0  0  0  0  0  0  0  0  0  0
  185.3670  178.2200  147.6410 N   0  0  0  0  0  2  0  0  0  0  0  0
  186.1790  179.4230  147.6690 C   0  0  0  0  0  1  0  0  0  0  0  0
  193.2970  176.4300  142.5990 C   0  0  0  0  0  2  0  0  0  0  0  0
  194.0870  175.8550  143.6740 N   0  0  0  0  0  2  0  0  0  0  0  0
  193.9580  176.7510  144.8090 C   0  0  0  0  0  2  0  0  0  0  0  0
  193.3220  176.0290  145.9430 C   0  0  0  0  0  0  0  0  0  0  0  0
  193.6860  174.8510  146.2100 O   0  0  0  0  0  0  0  0  0  0  0  0
  192.3120  176.6600  146.6830 O   0  0  0  0  0  0  0  0  0  0  0  0
  191.2560  175.2830  148.3910 C   0  0  0  0  0  1  0  0  0  0  0  0
  191.0850  176.0330  147.0780 C   0  0  0  0  0  0  0  0  0  0  0  0
  190.6180  175.0660  146.0030 C   0  0  0  0  0  1  0  0  0  0  0  0
  188.9470  176.8740  146.3650 O   0  0  0  0  0  1  0  0  0  0  0  0
  190.0110  177.1000  147.2440 C   0  0  0  0  0  2  0  0  0  0  0  0
  2 12  1  0  0  0  0
  3 13  1  0  0  0  0
  4  2  2  0  0  0  0
  4  7  1  0  0  0  0
  5  3  1  0  0  0  0
  5  8  1  0  0  0  0
  6 10  2  0  0  0  0
  7  6  1  0  0  0  0
  7  5  2  0  0  0  0
  8 11  1  0  0  0  0
  9 11  1  0  0  0  0
 10 24  1  0  0  0  0
 10  8  1  0  0  0  0
 11  1  2  0  0  0  0
 12  3  2  0  0  0  0
 13 14  2  0  0  0  0
 14 16  1  0  0  0  0
 15 20  1  0  0  0  0
 16 19  2  0  0  0  0
 17 21  1  0  0  0  0
 18 15  2  0  0  0  0
 18 16  1  0  0  0  0
 19 17  1  0  0  0  0
 20 17  2  0  0  0  0
 21 22  1  0  0  0  0
 22 23  1  0  0  0  0
 24 25  1  0  0  0  0
 25 26  1  0  0  0  0
 26 27  1  0  0  0  0
 27 28  2  0  0  0  0
 27 29  1  0  0  0  0
 29 31  1  0  0  0  0
 31 34  1  0  0  0  0
 31 30  1  0  0  0  0
 32 31  1  0  0  0  0
 33 34  1  0  0  0  0
M  END
>  <MODEL>
8

>  <REMARK>
 VINA RESULT:      -6.8      4.021      9.735
  Name = 
  11 active torsions:
  status: ('A' for Active; 'I' for Inactive)
    1  A    between atoms: O_1  and  C_9
    2  A    between atoms: O_1  and  N_22
    3  A    between atoms: C_4  and  C_6
    4  A    between atoms: C_4  and  O_24
    5  A    between atoms: C_6  and  N_18
    6  A    between atoms: C_7  and  C_28
    7  A    between atoms: C_8  and  C_29
    8  A    between atoms: C_11  and  N_18
    9  A    between atoms: C_11  and  C_30
   10  A    between atoms: C_14  and  C_17
   11  A    between atoms: O_24  and  C_28
                            x       y       z     vdW  Elec       q    Type
                         _______ _______ _______ _____ _____    ______ ____

>  <TORSDO>
F 11

$$$$
=
 OpenBabel11042416073D

 34 36  0  0  0  0  0  0  0  0999 V2000
  191.2070  177.2340  144.7190 O   0  0  0  0  0  0  0  0  0  0  0  0
  189.2070  172.4800  141.2530 C   0  0  0  0  0  3  0  0  0  0  0  0
  188.8860  174.5660  142.5070 C   0  0  0  0  0  0  0  0  0  0  0  0
  190.5970  172.6820  141.2250 C   0  0  0  0  0  3  0  0  0  0  0  0
  190.2810  174.7540  142.4350 C   0  0  0  0  0  0  0  0  0  0  0  0
  192.3860  174.1890  141.9340 N   0  0  0  0  0  0  0  0  0  0  0  0
  191.0950  173.8300  141.8310 C   0  0  0  0  0  0  0  0  0  0  0  0
  191.0600  175.7370  142.9370 N   0  0  0  0  0  0  0  0  0  0  0  0
  189.7790  177.9310  142.9560 C   0  0  0  0  0  1  0  0  0  0  0  0
  192.3250  175.3590  142.6170 C   0  0  0  0  0  0  0  0  0  0  0  0
  190.6880  176.9480  143.6090 C   0  0  0  0  0  0  0  0  0  0  0  0
  188.3610  173.4090  141.8890 C   0  0  0  0  0  3  0  0  0  0  0  0
  188.0010  175.5130  143.2030 C   0  0  0  0  0  3  0  0  0  0  0  0
  186.7990  175.8580  142.7430 C   0  0  0  0  0  3  0  0  0  0  0  0
  184.2640  178.5750  143.2950 C   0  0  0  0  0  3  0  0  0  0  0  0
  185.9360  176.8240  143.4330 C   0  0  0  0  0  0  0  0  0  0  0  0
  185.1570  177.9270  145.4580 C   0  0  0  0  0  0  0  0  0  0  0  0
  185.0830  177.6300  142.6730 C   0  0  0  0  0  3  0  0  0  0  0  0
  185.9690  176.9780  144.8290 C   0  0  0  0  0  3  0  0  0  0  0  0
  184.3030  178.7270  144.6840 C   0  0  0  0  0  3  0  0  0  0  0  0
  185.2140  178.0610  146.8470 O   0  0  0  0  0  0  0  0  0  0  0  0
  186.3650  177.7820  147.5510 N   0  0  0  0  0  2  0  0  0  0  0  0
  186.6970  178.9790  148.3010 C   0  0  0  0  0  1  0  0  0  0  0  0
  193.5430  176.1440  142.9740 C   0  0  0  0  0  2  0  0  0  0  0  0
  194.6720  175.6840  142.1850 N   0  0  0  0  0  2  0  0  0  0  0  0
  195.8620  176.2550  142.7900 C   0  0  0  0  0  2  0  0  0  0  0  0
  196.6380  175.1850  143.4700 C   0  0  0  0  0  0  0  0  0  0  0  0
  197.8860  175.3090  143.5940 O   0  0  0  0  0  0  0  0  0  0  0  0
  195.9720  174.0440  143.9420 O   0  0  0  0  0  0  0  0  0  0  0  0
  195.3180  175.1180  146.0280 C   0  0  0  0  0  1  0  0  0  0  0  0
  195.6410  173.8110  145.3170 C   0  0  0  0  0  0  0  0  0  0  0  0
  196.7940  173.1220  146.0280 C   0  0  0  0  0  1  0  0  0  0  0  0
  193.2530  173.6240  145.5350 O   0  0  0  0  0  1  0  0  0  0  0  0
  194.4320  172.8870  145.3880 C   0  0  0  0  0  2  0  0  0  0  0  0
  2 12  1  0  0  0  0
  3 13  1  0  0  0  0
  4  2  2  0  0  0  0
  4  7  1  0  0  0  0
  5  3  1  0  0  0  0
  5  8  1  0  0  0  0
  6 10  2  0  0  0  0
  7  6  1  0  0  0  0
  7  5  2  0  0  0  0
  8 11  1  0  0  0  0
  9 11  1  0  0  0  0
 10  8  1  0  0  0  0
 10 24  1  0  0  0  0
 11  1  2  0  0  0  0
 12  3  2  0  0  0  0
 14 13  2  0  0  0  0
 14 16  1  0  0  0  0
 15 20  1  0  0  0  0
 16 19  2  0  0  0  0
 17 21  1  0  0  0  0
 18 15  2  0  0  0  0
 18 16  1  0  0  0  0
 19 17  1  0  0  0  0
 20 17  2  0  0  0  0
 21 22  1  0  0  0  0
 22 23  1  0  0  0  0
 25 26  1  0  0  0  0
 25 24  1  0  0  0  0
 26 27  1  0  0  0  0
 27 28  2  0  0  0  0
 27 29  1  0  0  0  0
 29 31  1  0  0  0  0
 31 34  1  0  0  0  0
 31 30  1  0  0  0  0
 31 32  1  0  0  0  0
 34 33  1  0  0  0  0
M  END
>  <MODEL>
9

>  <REMARK>
 VINA RESULT:      -6.8      4.347     11.112
  Name = 
  11 active torsions:
  status: ('A' for Active; 'I' for Inactive)
    1  A    between atoms: O_1  and  C_9
    2  A    between atoms: O_1  and  N_22
    3  A    between atoms: C_4  and  C_6
    4  A    between atoms: C_4  and  O_24
    5  A    between atoms: C_6  and  N_18
    6  A    between atoms: C_7  and  C_28
    7  A    between atoms: C_8  and  C_29
    8  A    between atoms: C_11  and  N_18
    9  A    between atoms: C_11  and  C_30
   10  A    between atoms: C_14  and  C_17
   11  A    between atoms: O_24  and  C_28
                            x       y       z     vdW  Elec       q    Type
                         _______ _______ _______ _____ _____    ______ ____

>  <TORSDO>
F 11

$$$$
