=
 OpenBabel11042415563D

 52 56  0  0  1  0  0  0  0  0999 V2000
  189.4320  173.7760  138.9310 C   0  0  0  0  0  3  0  0  0  0  0  0
  188.6210  173.5030  139.9420 C   0  0  0  0  0  3  0  0  0  0  0  0
  191.5130  171.4630  143.9710 C   0  0  0  0  0  1  0  0  0  0  0  0
  188.8430  175.5480  144.0120 C   0  0  0  0  0  3  0  0  0  0  0  0
  189.4640  173.8270  142.2630 C   0  0  0  0  0  0  0  0  0  0  0  0
  188.7040  174.2690  141.1400 N   0  0  0  0  0  2  0  0  0  0  0  0
  190.4420  173.8400  145.6350 C   0  0  0  0  0  3  0  0  0  0  0  0
  190.2110  172.6950  142.2930 N   0  0  0  0  0  0  0  0  0  0  0  0
  190.2320  173.5910  144.2800 C   0  0  0  0  0  0  0  0  0  0  0  0
  189.0280  175.8320  145.3810 C   0  0  0  0  0  0  0  0  0  0  0  0
  190.6810  172.5690  143.5280 N   0  0  0  0  0  0  0  0  0  0  0  0
  189.8290  174.9840  146.1840 C   0  0  0  0  0  3  0  0  0  0  0  0
  189.4630  174.4120  143.5070 C   0  0  0  0  0  0  0  0  0  0  0  0
  188.4130  177.0490  145.9900 C   0  0  0  0  0  2  0  0  0  0  0  0
  188.0430  178.0130  144.9600 N   0  0  0  0  0  2  0  0  0  0  0  0
  183.1260  178.3520  141.3220 C   0  0  0  0  0  0  0  0  0  0  0  0
  180.7870  178.6720  140.9140 N   0  0  0  0  0  1  0  0  0  0  0  0
  182.1170  178.4310  140.4650 C   0  0  0  0  0  3  0  0  0  0  0  0
  185.2470  178.1780  142.5210 C   0  0  0  0  0  0  0  0  0  0  0  0
  184.1630  178.3840  143.3570 C   0  0  0  0  0  0  0  0  0  0  0  0
  184.3210  178.4720  144.7390 C   0  0  0  0  0  3  0  0  0  0  0  0
  186.7220  178.1420  144.4290 C   0  0  0  0  0  0  0  0  0  0  0  0
  182.9550  178.4900  142.6970 O   0  0  0  0  0  0  0  0  0  0  0  0
  186.5350  178.0590  143.0400 C   0  0  0  0  0  3  0  0  0  0  0  0
  184.8220  178.0650  140.7870 S   0  0  0  0  0  0  0  0  0  0  0  0
  185.6110  178.3490  145.2750 C   0  0  0  0  0  3  0  0  0  0  0  0
  189.3190  172.8600  137.4000 S   0  0  0  0  0  0  0  0  0  0  0  0
  190.8960  171.9860  137.7200 C   0  0  1  0  0  3  0  0  0  0  0  0
  190.3830  170.8530  135.4560 C   0  0  0  0  0  1  0  0  0  0  0  0
  191.2830  170.9060  136.6830 C   0  0  2  0  0  3  0  0  0  0  0  0
  192.7810  169.2010  137.8480 C   0  0  0  0  0  1  0  0  0  0  0  0
  191.3990  169.4980  137.2920 C   0  0  1  0  0  3  0  0  0  0  0  0
  190.2700  169.1100  138.2560 C   0  0  0  0  0  2  0  0  0  0  0  0
  190.7720  168.7200  139.6360 C   0  0  0  0  0  2  0  0  0  0  0  0
  190.6550  169.8100  140.5000 O   0  0  0  0  0  1  0  0  0  0  0  0
  192.0230  172.9980  137.9040 C   0  0  0  0  0  2  0  0  0  0  0  0
  192.5810  172.9060  139.2460 N   0  0  0  0  0  2  0  0  0  0  0  0
  194.3610  174.3520  138.7990 O   0  0  0  0  0  0  0  0  0  0  0  0
  193.7400  173.6460  139.6380 C   0  0  0  0  0  0  0  0  0  0  0  0
  194.2180  173.5980  141.0480 C   0  0  2  0  0  3  0  0  0  0  0  0
  193.8430  172.3880  141.6360 O   0  0  0  0  0  1  0  0  0  0  0  0
  193.6310  174.7620  141.8340 C   0  0  0  0  0  2  0  0  0  0  0  0
  196.4220  176.8240  142.9690 O   0  0  0  0  0  1  0  0  0  0  0  0
  195.6270  176.2250  142.1980 C   0  0  0  0  0  0  0  0  0  0  0  0
  194.6290  175.3370  142.7300 N   0  0  0  0  0  0  0  0  0  0  0  0
  195.7190  176.4360  140.8250 O   0  0  0  0  0  0  0  0  0  0  0  0
  194.4210  175.2230  144.1730 C   0  0  0  0  0  0  0  0  0  0  0  0
  194.0900  173.8260  144.6620 C   0  0  0  0  0  2  0  0  0  0  0  0
  195.4660  174.4240  144.9230 C   0  0  0  0  0  2  0  0  0  0  0  0
  193.7520  176.3520  144.8900 C   0  0  0  0  0  0  0  0  0  0  0  0
  192.5690  176.5830  144.7010 O   0  0  0  0  0  0  0  0  0  0  0  0
  194.5340  177.2400  145.7930 C   0  0  0  0  0  1  0  0  0  0  0  0
  1  2  2  0  0  0  0
  2  6  1  0  0  0  0
  4 10  1  0  0  0  0
  5  8  2  0  0  0  0
  5 13  1  0  0  0  0
  6  5  1  0  0  0  0
  7 12  1  0  0  0  0
  8 11  1  0  0  0  0
  9  7  2  0  0  0  0
 10 14  1  0  0  0  0
 10 12  2  0  0  0  0
 11  3  1  0  0  0  0
 11  9  1  0  0  0  0
 13  4  2  0  0  0  0
 13  9  1  0  0  0  0
 15 14  1  0  0  0  0
 16 23  1  0  0  0  0
 18 17  1  0  0  0  0
 18 16  2  0  0  0  0
 19 24  2  0  0  0  0
 19 20  1  0  0  0  0
 20 21  2  0  0  0  0
 21 26  1  0  0  0  0
 22 15  1  0  0  0  0
 22 26  2  0  0  0  0
 23 20  1  0  0  0  0
 24 22  1  0  0  0  0
 25 16  1  0  0  0  0
 25 19  1  0  0  0  0
 27 28  1  0  0  0  0
 27  1  1  0  0  0  0
 28 36  1  6  0  0  0
 30 29  1  6  0  0  0
 30 32  1  0  0  0  0
 30 28  1  0  0  0  0
 32 31  1  1  0  0  0
 32 33  1  0  0  0  0
 33 34  1  0  0  0  0
 34 35  1  0  0  0  0
 36 37  1  0  0  0  0
 37 39  1  0  0  0  0
 38 39  2  0  0  0  0
 39 40  1  0  0  0  0
 40 41  1  1  0  0  0
 40 42  1  0  0  0  0
 42 45  1  0  0  0  0
 44 45  1  0  0  0  0
 44 43  1  0  0  0  0
 45 47  1  0  0  0  0
 46 44  2  0  0  0  0
 47 48  1  0  0  0  0
 47 50  1  0  0  0  0
 47 49  1  0  0  0  0
 48 49  1  0  0  0  0
 50 52  1  0  0  0  0
 51 50  2  0  0  0  0
M  END
>  <MODEL>
1

>  <REMARK>
 VINA RESULT:      -6.7      0.000      0.000
  Name = 
  17 active torsions:
  status: ('A' for Active; 'I' for Inactive)
    1  A    between atoms: C_1  and  C_3
    2  A    between atoms: C_1  and  C_12
    3  A    between atoms: C_1  and  S_40
    4  A    between atoms: C_2  and  C_10
    5  A    between atoms: C_2  and  N_37
    6  A    between atoms: C_3  and  N_4
    7  A    between atoms: C_5  and  S_40
    8  A    between atoms: C_7  and  C_16
    9  A    between atoms: C_9  and  N_20
   10  A    between atoms: C_9  and  C_34
   11  A    between atoms: C_12  and  C_49
   12  A    between atoms: C_13  and  C_27
   13  A    between atoms: C_13  and  C_36
   14  A    between atoms: C_16  and  C_49
   15  A    between atoms: N_18  and  C_19
   16  A    between atoms: N_20  and  C_39
   17  A    between atoms: C_27  and  N_37
                            x       y       z     vdW  Elec       q    Type
                         _______ _______ _______ _____ _____    ______ ____

>  <TORSDO>
F 17

$$$$
=
 OpenBabel11042415563D

 52 56  0  0  1  0  0  0  0  0999 V2000
  193.3380  169.7740  144.7180 C   0  0  0  0  0  3  0  0  0  0  0  0
  193.3670  170.9820  144.1750 C   0  0  0  0  0  3  0  0  0  0  0  0
  194.8200  176.1270  143.7500 C   0  0  0  0  0  1  0  0  0  0  0  0
  190.7040  174.3610  145.6870 C   0  0  0  0  0  3  0  0  0  0  0  0
  192.7010  173.3600  144.4960 C   0  0  0  0  0  0  0  0  0  0  0  0
  192.4220  171.9640  144.5870 N   0  0  0  0  0  2  0  0  0  0  0  0
  192.1760  176.7540  145.2270 C   0  0  0  0  0  3  0  0  0  0  0  0
  193.8350  173.8880  143.9730 N   0  0  0  0  0  0  0  0  0  0  0  0
  192.6330  175.5090  144.7980 C   0  0  0  0  0  0  0  0  0  0  0  0
  190.2090  175.6010  146.1410 C   0  0  0  0  0  0  0  0  0  0  0  0
  193.7760  175.2020  144.1570 N   0  0  0  0  0  0  0  0  0  0  0  0
  190.9410  176.7900  145.9050 C   0  0  0  0  0  3  0  0  0  0  0  0
  191.9240  174.3650  145.0230 C   0  0  0  0  0  0  0  0  0  0  0  0
  188.8930  175.6800  146.8410 C   0  0  0  0  0  2  0  0  0  0  0  0
  188.2860  176.9930  146.6570 N   0  0  0  0  0  2  0  0  0  0  0  0
  184.8260  178.0460  141.7120 C   0  0  0  0  0  0  0  0  0  0  0  0
  182.7470  178.5220  140.6200 N   0  0  0  0  0  1  0  0  0  0  0  0
  184.1520  178.2860  140.5950 C   0  0  0  0  0  3  0  0  0  0  0  0
  186.4390  177.6150  143.4950 C   0  0  0  0  0  0  0  0  0  0  0  0
  185.1410  177.7520  143.9550 C   0  0  0  0  0  0  0  0  0  0  0  0
  184.8390  177.6420  145.3120 C   0  0  0  0  0  3  0  0  0  0  0  0
  187.2100  177.2520  145.7510 C   0  0  0  0  0  0  0  0  0  0  0  0
  184.2140  178.0010  142.9630 O   0  0  0  0  0  0  0  0  0  0  0  0
  187.4880  177.3690  144.3800 C   0  0  0  0  0  3  0  0  0  0  0  0
  186.6040  177.7610  141.7190 S   0  0  0  0  0  0  0  0  0  0  0  0
  185.8840  177.3900  146.2120 C   0  0  0  0  0  3  0  0  0  0  0  0
  194.5410  168.5360  144.2520 S   0  0  0  0  0  0  0  0  0  0  0  0
  195.2440  169.6050  142.9430 C   0  0  1  0  0  3  0  0  0  0  0  0
  197.4780  169.0380  144.1100 C   0  0  0  0  0  1  0  0  0  0  0  0
  196.7780  169.8000  142.9930 C   0  0  2  0  0  3  0  0  0  0  0  0
  196.1760  172.2100  142.4120 C   0  0  0  0  0  1  0  0  0  0  0  0
  197.1980  171.2780  143.0420 C   0  0  1  0  0  3  0  0  0  0  0  0
  197.6940  171.7700  144.4080 C   0  0  0  0  0  2  0  0  0  0  0  0
  196.6280  172.5110  145.1990 C   0  0  0  0  0  2  0  0  0  0  0  0
  197.2190  173.1540  146.2870 O   0  0  0  0  0  1  0  0  0  0  0  0
  194.8000  169.1080  141.5700 C   0  0  0  0  0  2  0  0  0  0  0  0
  193.4050  169.4480  141.3290 N   0  0  0  0  0  2  0  0  0  0  0  0
  193.8890  171.0070  139.6560 O   0  0  0  0  0  0  0  0  0  0  0  0
  193.0170  170.3860  140.3210 C   0  0  0  0  0  0  0  0  0  0  0  0
  191.5740  170.6310  140.0410 C   0  0  2  0  0  3  0  0  0  0  0  0
  191.0830  169.6450  139.1830 O   0  0  0  0  0  1  0  0  0  0  0  0
  191.3940  172.0040  139.4120 C   0  0  0  0  0  2  0  0  0  0  0  0
  191.0660  174.8330  141.6960 O   0  0  0  0  0  1  0  0  0  0  0  0
  191.5940  173.9510  140.9690 C   0  0  0  0  0  0  0  0  0  0  0  0
  190.7850  172.9320  140.3580 N   0  0  0  0  0  0  0  0  0  0  0  0
  192.9700  173.9740  140.7590 O   0  0  0  0  0  0  0  0  0  0  0  0
  189.3250  172.9830  140.4450 C   0  0  0  0  0  0  0  0  0  0  0  0
  188.6640  173.9690  139.5030 C   0  0  0  0  0  2  0  0  0  0  0  0
  188.5780  172.4730  139.2310 C   0  0  0  0  0  2  0  0  0  0  0  0
  188.6840  172.8160  141.7870 C   0  0  0  0  0  0  0  0  0  0  0  0
  187.6930  173.4650  142.0770 O   0  0  0  0  0  0  0  0  0  0  0  0
  189.2820  171.9030  142.7980 C   0  0  0  0  0  1  0  0  0  0  0  0
  2  6  1  0  0  0  0
  2  1  2  0  0  0  0
  3 11  1  0  0  0  0
  4 10  1  0  0  0  0
  5  6  1  0  0  0  0
  5 13  1  0  0  0  0
  7 12  1  0  0  0  0
  8 11  1  0  0  0  0
  8  5  2  0  0  0  0
  9 13  1  0  0  0  0
  9  7  2  0  0  0  0
 10 14  1  0  0  0  0
 11  9  1  0  0  0  0
 12 10  2  0  0  0  0
 13  4  2  0  0  0  0
 15 14  1  0  0  0  0
 16 25  1  0  0  0  0
 16 23  1  0  0  0  0
 18 17  1  0  0  0  0
 18 16  2  0  0  0  0
 19 20  2  0  0  0  0
 19 24  1  0  0  0  0
 20 21  1  0  0  0  0
 21 26  2  0  0  0  0
 22 26  1  0  0  0  0
 22 15  1  0  0  0  0
 23 20  1  0  0  0  0
 24 22  2  0  0  0  0
 25 19  1  0  0  0  0
 27  1  1  0  0  0  0
 28 36  1  6  0  0  0
 28 30  1  0  0  0  0
 28 27  1  0  0  0  0
 30 32  1  0  0  0  0
 30 29  1  1  0  0  0
 32 31  1  1  0  0  0
 32 33  1  0  0  0  0
 33 34  1  0  0  0  0
 34 35  1  0  0  0  0
 37 36  1  0  0  0  0
 38 39  2  0  0  0  0
 39 37  1  0  0  0  0
 40 41  1  6  0  0  0
 40 39  1  0  0  0  0
 42 40  1  0  0  0  0
 42 45  1  0  0  0  0
 44 43  1  0  0  0  0
 45 47  1  0  0  0  0
 45 44  1  0  0  0  0
 46 44  2  0  0  0  0
 47 50  1  0  0  0  0
 48 47  1  0  0  0  0
 49 48  1  0  0  0  0
 49 47  1  0  0  0  0
 50 51  2  0  0  0  0
 50 52  1  0  0  0  0
M  END
>  <MODEL>
2

>  <REMARK>
 VINA RESULT:      -6.6      2.840      5.544
  Name = 
  17 active torsions:
  status: ('A' for Active; 'I' for Inactive)
    1  A    between atoms: C_1  and  C_3
    2  A    between atoms: C_1  and  C_12
    3  A    between atoms: C_1  and  S_40
    4  A    between atoms: C_2  and  C_10
    5  A    between atoms: C_2  and  N_37
    6  A    between atoms: C_3  and  N_4
    7  A    between atoms: C_5  and  S_40
    8  A    between atoms: C_7  and  C_16
    9  A    between atoms: C_9  and  N_20
   10  A    between atoms: C_9  and  C_34
   11  A    between atoms: C_12  and  C_49
   12  A    between atoms: C_13  and  C_27
   13  A    between atoms: C_13  and  C_36
   14  A    between atoms: C_16  and  C_49
   15  A    between atoms: N_18  and  C_19
   16  A    between atoms: N_20  and  C_39
   17  A    between atoms: C_27  and  N_37
                            x       y       z     vdW  Elec       q    Type
                         _______ _______ _______ _____ _____    ______ ____

>  <TORSDO>
F 17

$$$$
=
 OpenBabel11042415563D

 52 56  0  0  1  0  0  0  0  0999 V2000
  188.5900  175.4550  146.4910 C   0  0  0  0  0  3  0  0  0  0  0  0
  189.6580  175.1270  147.2020 C   0  0  0  0  0  3  0  0  0  0  0  0
  194.4770  177.4200  146.6670 C   0  0  0  0  0  1  0  0  0  0  0  0
  193.0930  173.0210  145.0680 C   0  0  0  0  0  3  0  0  0  0  0  0
  192.0120  174.8550  146.4380 C   0  0  0  0  0  0  0  0  0  0  0  0
  190.6900  174.3470  146.6080 N   0  0  0  0  0  2  0  0  0  0  0  0
  195.2510  174.8790  145.0830 C   0  0  0  0  0  3  0  0  0  0  0  0
  192.4310  176.0730  146.8600 N   0  0  0  0  0  0  0  0  0  0  0  0
  194.0480  175.1350  145.7390 C   0  0  0  0  0  0  0  0  0  0  0  0
  194.2930  172.7270  144.3880 C   0  0  0  0  0  0  0  0  0  0  0  0
  193.6800  176.2270  146.4340 N   0  0  0  0  0  0  0  0  0  0  0  0
  195.3660  173.6500  144.4020 C   0  0  0  0  0  3  0  0  0  0  0  0
  193.0170  174.2410  145.7280 C   0  0  0  0  0  0  0  0  0  0  0  0
  194.4590  171.4240  143.6770 C   0  0  0  0  0  2  0  0  0  0  0  0
  195.4930  171.5210  142.6530 N   0  0  0  0  0  2  0  0  0  0  0  0
  195.5260  174.6360  137.3780 C   0  0  0  0  0  0  0  0  0  0  0  0
  194.7730  175.0640  135.1440 N   0  0  0  0  0  1  0  0  0  0  0  0
  195.5790  175.3740  136.2770 C   0  0  0  0  0  3  0  0  0  0  0  0
  195.7130  173.5950  139.5800 C   0  0  0  0  0  0  0  0  0  0  0  0
  194.8230  172.9450  138.7430 C   0  0  0  0  0  0  0  0  0  0  0  0
  194.1310  171.8100  139.1640 C   0  0  0  0  0  3  0  0  0  0  0  0
  195.2560  171.9940  141.3250 C   0  0  0  0  0  0  0  0  0  0  0  0
  194.6990  173.5210  137.4950 O   0  0  0  0  0  0  0  0  0  0  0  0
  195.9390  173.1360  140.8770 C   0  0  0  0  0  3  0  0  0  0  0  0
  196.5170  175.0090  138.8350 S   0  0  0  0  0  0  0  0  0  0  0  0
  194.3520  171.3350  140.4650 C   0  0  0  0  0  3  0  0  0  0  0  0
  187.2990  176.4710  147.1970 S   0  0  0  0  0  0  0  0  0  0  0  0
  186.9870  177.3140  145.6020 C   0  0  1  0  0  3  0  0  0  0  0  0
  185.9170  179.1160  147.1130 C   0  0  0  0  0  1  0  0  0  0  0  0
  186.3170  178.7040  145.7020 C   0  0  2  0  0  3  0  0  0  0  0  0
  185.0380  180.2310  144.1070 C   0  0  0  0  0  1  0  0  0  0  0  0
  185.1100  178.8620  144.7630 C   0  0  1  0  0  3  0  0  0  0  0  0
  184.9030  177.7110  143.7690 C   0  0  0  0  0  2  0  0  0  0  0  0
  184.0700  178.1070  142.5620 C   0  0  0  0  0  2  0  0  0  0  0  0
  184.8970  178.2340  141.4460 O   0  0  0  0  0  1  0  0  0  0  0  0
  188.2770  177.3840  144.7900 C   0  0  0  0  0  2  0  0  0  0  0  0
  188.2000  176.5070  143.6300 N   0  0  0  0  0  2  0  0  0  0  0  0
  188.2430  178.2560  142.0810 O   0  0  0  0  0  0  0  0  0  0  0  0
  188.2270  177.0140  142.2930 C   0  0  0  0  0  0  0  0  0  0  0  0
  188.2460  176.0760  141.1360 C   0  0  2  0  0  3  0  0  0  0  0  0
  187.2790  176.4540  140.2020 O   0  0  0  0  0  1  0  0  0  0  0  0
  187.9790  174.6570  141.6150 C   0  0  0  0  0  2  0  0  0  0  0  0
  190.1460  172.6760  139.4450 O   0  0  0  0  0  1  0  0  0  0  0  0
  189.1580  173.3500  139.8380 C   0  0  0  0  0  0  0  0  0  0  0  0
  189.0580  173.7620  141.2120 N   0  0  0  0  0  0  0  0  0  0  0  0
  188.1640  173.6970  138.9270 O   0  0  0  0  0  0  0  0  0  0  0  0
  190.1640  173.5360  142.1420 C   0  0  0  0  0  0  0  0  0  0  0  0
  189.7460  173.1990  143.5600 C   0  0  0  0  0  2  0  0  0  0  0  0
  190.3120  172.1170  142.6500 C   0  0  0  0  0  2  0  0  0  0  0  0
  191.4030  174.3620  141.9950 C   0  0  0  0  0  0  0  0  0  0  0  0
  192.3140  173.9790  141.2810 O   0  0  0  0  0  0  0  0  0  0  0  0
  191.5590  175.6270  142.7640 C   0  0  0  0  0  1  0  0  0  0  0  0
  1 27  1  0  0  0  0
  1  2  2  0  0  0  0
  4 13  1  0  0  0  0
  5  6  1  0  0  0  0
  5  8  2  0  0  0  0
  6  2  1  0  0  0  0
  7  9  1  0  0  0  0
  9 11  1  0  0  0  0
 10 12  1  0  0  0  0
 10  4  2  0  0  0  0
 11  3  1  0  0  0  0
 11  8  1  0  0  0  0
 12  7  2  0  0  0  0
 13  9  2  0  0  0  0
 13  5  1  0  0  0  0
 14 10  1  0  0  0  0
 15 14  1  0  0  0  0
 16 23  1  0  0  0  0
 16 25  1  0  0  0  0
 17 18  1  0  0  0  0
 18 16  2  0  0  0  0
 19 24  1  0  0  0  0
 20 21  1  0  0  0  0
 20 19  2  0  0  0  0
 21 26  2  0  0  0  0
 22 15  1  0  0  0  0
 23 20  1  0  0  0  0
 24 22  2  0  0  0  0
 25 19  1  0  0  0  0
 26 22  1  0  0  0  0
 28 36  1  1  0  0  0
 28 30  1  0  0  0  0
 28 27  1  0  0  0  0
 30 29  1  1  0  0  0
 32 31  1  6  0  0  0
 32 30  1  0  0  0  0
 33 32  1  0  0  0  0
 34 33  1  0  0  0  0
 35 34  1  0  0  0  0
 37 36  1  0  0  0  0
 38 39  2  0  0  0  0
 39 37  1  0  0  0  0
 40 41  1  6  0  0  0
 40 42  1  0  0  0  0
 40 39  1  0  0  0  0
 43 44  1  0  0  0  0
 44 45  1  0  0  0  0
 45 42  1  0  0  0  0
 45 47  1  0  0  0  0
 46 44  2  0  0  0  0
 47 49  1  0  0  0  0
 47 48  1  0  0  0  0
 49 48  1  0  0  0  0
 50 47  1  0  0  0  0
 50 52  1  0  0  0  0
 51 50  2  0  0  0  0
M  END
>  <MODEL>
3

>  <REMARK>
 VINA RESULT:      -6.6      3.124      9.414
  Name = 
  17 active torsions:
  status: ('A' for Active; 'I' for Inactive)
    1  A    between atoms: C_1  and  C_3
    2  A    between atoms: C_1  and  C_12
    3  A    between atoms: C_1  and  S_40
    4  A    between atoms: C_2  and  C_10
    5  A    between atoms: C_2  and  N_37
    6  A    between atoms: C_3  and  N_4
    7  A    between atoms: C_5  and  S_40
    8  A    between atoms: C_7  and  C_16
    9  A    between atoms: C_9  and  N_20
   10  A    between atoms: C_9  and  C_34
   11  A    between atoms: C_12  and  C_49
   12  A    between atoms: C_13  and  C_27
   13  A    between atoms: C_13  and  C_36
   14  A    between atoms: C_16  and  C_49
   15  A    between atoms: N_18  and  C_19
   16  A    between atoms: N_20  and  C_39
   17  A    between atoms: C_27  and  N_37
                            x       y       z     vdW  Elec       q    Type
                         _______ _______ _______ _____ _____    ______ ____

>  <TORSDO>
F 17

$$$$
=
 OpenBabel11042415563D

 52 56  0  0  1  0  0  0  0  0999 V2000
  193.9270  170.5330  142.6380 C   0  0  0  0  0  3  0  0  0  0  0  0
  194.3690  171.7560  142.8930 C   0  0  0  0  0  3  0  0  0  0  0  0
  196.3270  176.6680  143.7840 C   0  0  0  0  0  1  0  0  0  0  0  0
  192.5340  174.5430  146.0020 C   0  0  0  0  0  3  0  0  0  0  0  0
  194.0890  173.9130  144.1050 C   0  0  0  0  0  0  0  0  0  0  0  0
  193.6640  172.5830  143.8130 N   0  0  0  0  0  2  0  0  0  0  0  0
  194.1610  176.8800  145.9810 C   0  0  0  0  0  3  0  0  0  0  0  0
  195.1410  174.5340  143.5170 N   0  0  0  0  0  0  0  0  0  0  0  0
  194.3570  175.8330  145.0820 C   0  0  0  0  0  0  0  0  0  0  0  0
  192.3080  175.5780  146.9320 C   0  0  0  0  0  0  0  0  0  0  0  0
  195.2870  175.7090  144.1180 N   0  0  0  0  0  0  0  0  0  0  0  0
  193.1140  176.7420  146.9150 C   0  0  0  0  0  3  0  0  0  0  0  0
  193.5750  174.7150  145.0960 C   0  0  0  0  0  0  0  0  0  0  0  0
  191.1930  175.4760  147.9190 C   0  0  0  0  0  2  0  0  0  0  0  0
  190.0310  174.8240  147.3240 N   0  0  0  0  0  2  0  0  0  0  0  0
  185.1630  178.0740  145.5140 C   0  0  0  0  0  0  0  0  0  0  0  0
  183.7370  179.0390  143.8490 N   0  0  0  0  0  1  0  0  0  0  0  0
  184.0780  178.7700  145.2050 C   0  0  0  0  0  3  0  0  0  0  0  0
  187.0050  176.8210  146.5170 C   0  0  0  0  0  0  0  0  0  0  0  0
  187.0690  176.8720  145.1350 C   0  0  0  0  0  0  0  0  0  0  0  0
  188.1050  176.2560  144.4340 C   0  0  0  0  0  3  0  0  0  0  0  0
  189.0320  175.5140  146.5690 C   0  0  0  0  0  0  0  0  0  0  0  0
  186.0330  177.5720  144.5490 O   0  0  0  0  0  0  0  0  0  0  0  0
  187.9770  176.1420  147.2500 C   0  0  0  0  0  3  0  0  0  0  0  0
  185.6140  177.7010  147.2180 S   0  0  0  0  0  0  0  0  0  0  0  0
  189.0910  175.5740  145.1600 C   0  0  0  0  0  3  0  0  0  0  0  0
  194.8170  169.4570  141.5210 S   0  0  0  0  0  0  0  0  0  0  0  0
  194.7260  170.6740  140.1560 C   0  0  1  0  0  3  0  0  0  0  0  0
  197.3020  170.5080  140.2290 C   0  0  0  0  0  1  0  0  0  0  0  0
  196.0770  171.0480  139.5040 C   0  0  2  0  0  3  0  0  0  0  0  0
  197.4510  173.1420  139.9950 C   0  0  0  0  0  1  0  0  0  0  0  0
  196.2420  172.5610  139.2810 C   0  0  1  0  0  3  0  0  0  0  0  0
  196.1320  173.0200  137.8210 C   0  0  0  0  0  2  0  0  0  0  0  0
  196.0850  174.5310  137.6720 C   0  0  0  0  0  2  0  0  0  0  0  0
  197.3260  174.9950  137.2340 O   0  0  0  0  0  1  0  0  0  0  0  0
  193.7230  170.2050  139.1070 C   0  0  0  0  0  2  0  0  0  0  0  0
  192.5780  171.1030  139.0540 N   0  0  0  0  0  2  0  0  0  0  0  0
  192.7480  171.4750  136.7530 O   0  0  0  0  0  0  0  0  0  0  0  0
  192.1190  171.6760  137.8270 C   0  0  0  0  0  0  0  0  0  0  0  0
  190.8850  172.5110  137.8040 C   0  0  2  0  0  3  0  0  0  0  0  0
  191.2220  173.8600  137.9300 O   0  0  0  0  0  1  0  0  0  0  0  0
  189.9600  172.0980  138.9390 C   0  0  0  0  0  2  0  0  0  0  0  0
  188.3450  175.0310  140.3950 O   0  0  0  0  0  1  0  0  0  0  0  0
  188.6440  174.1300  139.5680 C   0  0  0  0  0  0  0  0  0  0  0  0
  189.7200  173.2170  139.8430 N   0  0  0  0  0  0  0  0  0  0  0  0
  187.9190  174.0240  138.3840 O   0  0  0  0  0  0  0  0  0  0  0  0
  190.3890  173.2200  141.1440 C   0  0  0  0  0  0  0  0  0  0  0  0
  189.4850  172.9300  142.3270 C   0  0  0  0  0  2  0  0  0  0  0  0
  190.4740  171.8780  141.8400 C   0  0  0  0  0  2  0  0  0  0  0  0
  191.4910  174.2040  141.3780 C   0  0  0  0  0  0  0  0  0  0  0  0
  192.5760  174.0470  140.8450 O   0  0  0  0  0  0  0  0  0  0  0  0
  191.2930  175.3480  142.3100 C   0  0  0  0  0  1  0  0  0  0  0  0
  1  2  2  0  0  0  0
  2  6  1  0  0  0  0
  3 11  1  0  0  0  0
  4 10  1  0  0  0  0
  5 13  1  0  0  0  0
  6  5  1  0  0  0  0
  7 12  1  0  0  0  0
  8  5  2  0  0  0  0
  8 11  1  0  0  0  0
  9 13  1  0  0  0  0
  9  7  2  0  0  0  0
 10 14  1  0  0  0  0
 11  9  1  0  0  0  0
 12 10  2  0  0  0  0
 13  4  2  0  0  0  0
 15 14  1  0  0  0  0
 16 25  1  0  0  0  0
 17 18  1  0  0  0  0
 18 16  2  0  0  0  0
 19 25  1  0  0  0  0
 19 24  1  0  0  0  0
 20 19  2  0  0  0  0
 21 20  1  0  0  0  0
 21 26  2  0  0  0  0
 22 24  2  0  0  0  0
 22 15  1  0  0  0  0
 23 20  1  0  0  0  0
 23 16  1  0  0  0  0
 26 22  1  0  0  0  0
 27  1  1  0  0  0  0
 28 36  1  6  0  0  0
 28 27  1  0  0  0  0
 30 28  1  0  0  0  0
 30 29  1  1  0  0  0
 32 30  1  0  0  0  0
 32 31  1  6  0  0  0
 33 32  1  0  0  0  0
 34 33  1  0  0  0  0
 35 34  1  0  0  0  0
 37 36  1  0  0  0  0
 38 39  2  0  0  0  0
 39 37  1  0  0  0  0
 40 39  1  0  0  0  0
 40 41  1  1  0  0  0
 40 42  1  0  0  0  0
 42 45  1  0  0  0  0
 44 45  1  0  0  0  0
 44 43  1  0  0  0  0
 45 47  1  0  0  0  0
 46 44  2  0  0  0  0
 47 50  1  0  0  0  0
 47 49  1  0  0  0  0
 47 48  1  0  0  0  0
 49 48  1  0  0  0  0
 50 52  1  0  0  0  0
 51 50  2  0  0  0  0
M  END
>  <MODEL>
4

>  <REMARK>
 VINA RESULT:      -6.5      2.896      5.593
  Name = 
  17 active torsions:
  status: ('A' for Active; 'I' for Inactive)
    1  A    between atoms: C_1  and  C_3
    2  A    between atoms: C_1  and  C_12
    3  A    between atoms: C_1  and  S_40
    4  A    between atoms: C_2  and  C_10
    5  A    between atoms: C_2  and  N_37
    6  A    between atoms: C_3  and  N_4
    7  A    between atoms: C_5  and  S_40
    8  A    between atoms: C_7  and  C_16
    9  A    between atoms: C_9  and  N_20
   10  A    between atoms: C_9  and  C_34
   11  A    between atoms: C_12  and  C_49
   12  A    between atoms: C_13  and  C_27
   13  A    between atoms: C_13  and  C_36
   14  A    between atoms: C_16  and  C_49
   15  A    between atoms: N_18  and  C_19
   16  A    between atoms: N_20  and  C_39
   17  A    between atoms: C_27  and  N_37
                            x       y       z     vdW  Elec       q    Type
                         _______ _______ _______ _____ _____    ______ ____

>  <TORSDO>
F 17

$$$$
=
 OpenBabel11042415563D

 52 56  0  0  1  0  0  0  0  0999 V2000
  191.4280  176.5280  145.0300 C   0  0  0  0  0  3  0  0  0  0  0  0
  192.6850  176.7230  145.4000 C   0  0  0  0  0  3  0  0  0  0  0  0
  197.4680  176.6320  142.9750 C   0  0  0  0  0  1  0  0  0  0  0  0
  195.4930  173.1480  145.7650 C   0  0  0  0  0  3  0  0  0  0  0  0
  194.8260  175.4930  145.0790 C   0  0  0  0  0  0  0  0  0  0  0  0
  193.5270  175.6040  145.6580 N   0  0  0  0  0  2  0  0  0  0  0  0
  197.7430  173.7790  144.1370 C   0  0  0  0  0  3  0  0  0  0  0  0
  195.4050  176.4340  144.2930 N   0  0  0  0  0  0  0  0  0  0  0  0
  196.7080  174.6870  144.3550 C   0  0  0  0  0  0  0  0  0  0  0  0
  196.5180  172.2000  145.5650 C   0  0  0  0  0  0  0  0  0  0  0  0
  196.5570  175.9320  143.8660 N   0  0  0  0  0  0  0  0  0  0  0  0
  197.6380  172.5190  144.7600 C   0  0  0  0  0  3  0  0  0  0  0  0
  195.6310  174.3790  145.1350 C   0  0  0  0  0  0  0  0  0  0  0  0
  196.4510  170.8650  146.2290 C   0  0  0  0  0  2  0  0  0  0  0  0
  196.6640  169.7940  145.2620 N   0  0  0  0  0  2  0  0  0  0  0  0
  193.9160  168.7610  139.8840 C   0  0  0  0  0  0  0  0  0  0  0  0
  192.0350  168.1660  138.5250 N   0  0  0  0  0  1  0  0  0  0  0  0
  193.3900  168.5780  138.6810 C   0  0  0  0  0  3  0  0  0  0  0  0
  195.2540  169.2510  141.8690 C   0  0  0  0  0  0  0  0  0  0  0  0
  193.9680  168.8360  142.1670 C   0  0  0  0  0  0  0  0  0  0  0  0
  193.5320  168.7230  143.4860 C   0  0  0  0  0  3  0  0  0  0  0  0
  195.7390  169.4680  144.2210 C   0  0  0  0  0  0  0  0  0  0  0  0
  193.1930  168.5590  141.0580 O   0  0  0  0  0  0  0  0  0  0  0  0
  196.1530  169.5750  142.8840 C   0  0  0  0  0  3  0  0  0  0  0  0
  195.6190  169.2980  140.1180 S   0  0  0  0  0  0  0  0  0  0  0  0
  194.4270  169.0410  144.5180 C   0  0  0  0  0  3  0  0  0  0  0  0
  190.3620  177.9140  144.6570 S   0  0  0  0  0  0  0  0  0  0  0  0
  188.8590  176.8700  144.7190 C   0  0  1  0  0  3  0  0  0  0  0  0
  187.7900  176.0700  146.9300 C   0  0  0  0  0  1  0  0  0  0  0  0
  187.8860  177.1710  145.8830 C   0  0  2  0  0  3  0  0  0  0  0  0
  185.3830  176.6970  146.0400 C   0  0  0  0  0  1  0  0  0  0  0  0
  186.4730  177.5460  145.4060 C   0  0  1  0  0  3  0  0  0  0  0  0
  186.1530  179.0470  145.4330 C   0  0  0  0  0  2  0  0  0  0  0  0
  185.4840  179.5370  144.1600 C   0  0  0  0  0  2  0  0  0  0  0  0
  184.1050  179.3430  144.2540 O   0  0  0  0  0  1  0  0  0  0  0  0
  188.1380  176.9160  143.3750 C   0  0  0  0  0  2  0  0  0  0  0  0
  188.8740  176.1610  142.3720 N   0  0  0  0  0  2  0  0  0  0  0  0
  187.1660  174.6020  142.0320 O   0  0  0  0  0  0  0  0  0  0  0  0
  188.3080  175.0280  141.7080 C   0  0  0  0  0  0  0  0  0  0  0  0
  189.0590  174.3450  140.6180 C   0  0  2  0  0  3  0  0  0  0  0  0
  188.2760  174.2920  139.4620 O   0  0  0  0  0  1  0  0  0  0  0  0
  189.4370  172.9370  141.0530 C   0  0  0  0  0  2  0  0  0  0  0  0
  191.7140  172.4580  143.8670 O   0  0  0  0  0  1  0  0  0  0  0  0
  190.6430  172.5680  143.2130 C   0  0  0  0  0  0  0  0  0  0  0  0
  190.6730  172.9490  141.8260 N   0  0  0  0  0  0  0  0  0  0  0  0
  189.4290  172.3130  143.8440 O   0  0  0  0  0  0  0  0  0  0  0  0
  191.9440  173.0720  141.1120 C   0  0  0  0  0  0  0  0  0  0  0  0
  192.4000  171.8130  140.4010 C   0  0  0  0  0  2  0  0  0  0  0  0
  191.8580  172.9920  139.6030 C   0  0  0  0  0  2  0  0  0  0  0  0
  193.0200  173.9230  141.7100 C   0  0  0  0  0  0  0  0  0  0  0  0
  192.7900  175.0830  142.0070 O   0  0  0  0  0  0  0  0  0  0  0  0
  194.3940  173.3810  141.8910 C   0  0  0  0  0  1  0  0  0  0  0  0
  1  2  2  0  0  0  0
  2  6  1  0  0  0  0
  3 11  1  0  0  0  0
  5 13  1  0  0  0  0
  5  6  1  0  0  0  0
  7  9  2  0  0  0  0
  7 12  1  0  0  0  0
  8  5  2  0  0  0  0
  9 13  1  0  0  0  0
 10  4  1  0  0  0  0
 10 14  1  0  0  0  0
 11  8  1  0  0  0  0
 11  9  1  0  0  0  0
 12 10  2  0  0  0  0
 13  4  2  0  0  0  0
 15 14  1  0  0  0  0
 16 25  1  0  0  0  0
 16 23  1  0  0  0  0
 17 18  1  0  0  0  0
 18 16  2  0  0  0  0
 19 20  2  0  0  0  0
 19 24  1  0  0  0  0
 20 21  1  0  0  0  0
 21 26  2  0  0  0  0
 22 26  1  0  0  0  0
 22 15  1  0  0  0  0
 23 20  1  0  0  0  0
 24 22  2  0  0  0  0
 25 19  1  0  0  0  0
 27 28  1  0  0  0  0
 27  1  1  0  0  0  0
 28 36  1  6  0  0  0
 28 30  1  0  0  0  0
 30 29  1  1  0  0  0
 32 33  1  0  0  0  0
 32 30  1  0  0  0  0
 32 31  1  1  0  0  0
 34 35  1  0  0  0  0
 34 33  1  0  0  0  0
 37 36  1  0  0  0  0
 39 38  2  0  0  0  0
 39 37  1  0  0  0  0
 40 41  1  6  0  0  0
 40 42  1  0  0  0  0
 40 39  1  0  0  0  0
 42 45  1  0  0  0  0
 44 46  2  0  0  0  0
 44 43  1  0  0  0  0
 45 44  1  0  0  0  0
 47 50  1  0  0  0  0
 47 45  1  0  0  0  0
 48 47  1  0  0  0  0
 49 48  1  0  0  0  0
 49 47  1  0  0  0  0
 50 52  1  0  0  0  0
 50 51  2  0  0  0  0
M  END
>  <MODEL>
5

>  <REMARK>
 VINA RESULT:      -6.4      3.143      9.710
  Name = 
  17 active torsions:
  status: ('A' for Active; 'I' for Inactive)
    1  A    between atoms: C_1  and  C_3
    2  A    between atoms: C_1  and  C_12
    3  A    between atoms: C_1  and  S_40
    4  A    between atoms: C_2  and  C_10
    5  A    between atoms: C_2  and  N_37
    6  A    between atoms: C_3  and  N_4
    7  A    between atoms: C_5  and  S_40
    8  A    between atoms: C_7  and  C_16
    9  A    between atoms: C_9  and  N_20
   10  A    between atoms: C_9  and  C_34
   11  A    between atoms: C_12  and  C_49
   12  A    between atoms: C_13  and  C_27
   13  A    between atoms: C_13  and  C_36
   14  A    between atoms: C_16  and  C_49
   15  A    between atoms: N_18  and  C_19
   16  A    between atoms: N_20  and  C_39
   17  A    between atoms: C_27  and  N_37
                            x       y       z     vdW  Elec       q    Type
                         _______ _______ _______ _____ _____    ______ ____

>  <TORSDO>
F 17

$$$$
=
 OpenBabel11042415563D

 52 56  0  0  1  0  0  0  0  0999 V2000
  190.4400  176.7720  147.0350 C   0  0  0  0  0  3  0  0  0  0  0  0
  190.4140  175.5070  147.4250 C   0  0  0  0  0  3  0  0  0  0  0  0
  194.9420  177.7160  145.5870 C   0  0  0  0  0  1  0  0  0  0  0  0
  193.8190  172.9690  145.7620 C   0  0  0  0  0  3  0  0  0  0  0  0
  192.7050  175.1080  146.5350 C   0  0  0  0  0  0  0  0  0  0  0  0
  191.4540  174.6230  147.0190 N   0  0  0  0  0  2  0  0  0  0  0  0
  195.7950  174.8250  144.8910 C   0  0  0  0  0  3  0  0  0  0  0  0
  193.0500  176.4170  146.4630 N   0  0  0  0  0  0  0  0  0  0  0  0
  194.6370  175.2320  145.5540 C   0  0  0  0  0  0  0  0  0  0  0  0
  194.9740  172.5190  145.0910 C   0  0  0  0  0  0  0  0  0  0  0  0
  194.2370  176.4770  145.8700 N   0  0  0  0  0  0  0  0  0  0  0  0
  195.9580  173.4440  144.6640 C   0  0  0  0  0  3  0  0  0  0  0  0
  193.6930  174.3380  145.9680 C   0  0  0  0  0  0  0  0  0  0  0  0
  195.1910  171.0610  144.8550 C   0  0  0  0  0  2  0  0  0  0  0  0
  195.4490  170.7970  143.4430 N   0  0  0  0  0  2  0  0  0  0  0  0
  192.0200  170.2140  138.4000 C   0  0  0  0  0  0  0  0  0  0  0  0
  190.0650  169.4960  137.2160 N   0  0  0  0  0  1  0  0  0  0  0  0
  191.3300  170.1490  137.2690 C   0  0  0  0  0  3  0  0  0  0  0  0
  193.5800  170.6020  140.2400 C   0  0  0  0  0  0  0  0  0  0  0  0
  192.4620  169.8780  140.6160 C   0  0  0  0  0  0  0  0  0  0  0  0
  192.2940  169.4340  141.9270 C   0  0  0  0  0  3  0  0  0  0  0  0
  194.4280  170.4800  142.4940 C   0  0  0  0  0  0  0  0  0  0  0  0
  191.5650  169.6520  139.5900 O   0  0  0  0  0  0  0  0  0  0  0  0
  194.5710  170.9160  141.1680 C   0  0  0  0  0  3  0  0  0  0  0  0
  193.6140  171.0460  138.5070 S   0  0  0  0  0  0  0  0  0  0  0  0
  193.2860  169.7390  142.8690 C   0  0  0  0  0  3  0  0  0  0  0  0
  189.1710  177.9160  147.5660 S   0  0  0  0  0  0  0  0  0  0  0  0
  188.1240  177.5450  146.1110 C   0  0  1  0  0  3  0  0  0  0  0  0
  186.3850  178.9820  147.3690 C   0  0  0  0  0  1  0  0  0  0  0  0
  186.7430  178.2420  146.0880 C   0  0  2  0  0  3  0  0  0  0  0  0
  184.3280  177.5360  146.5130 C   0  0  0  0  0  1  0  0  0  0  0  0
  185.5940  177.2940  145.7080 C   0  0  1  0  0  3  0  0  0  0  0  0
  185.3290  177.1620  144.2020 C   0  0  0  0  0  2  0  0  0  0  0  0
  184.6970  178.4050  143.5970 C   0  0  0  0  0  2  0  0  0  0  0  0
  185.2660  178.6560  142.3480 O   0  0  0  0  0  1  0  0  0  0  0  0
  188.9000  177.8230  144.8270 C   0  0  0  0  0  2  0  0  0  0  0  0
  188.6000  176.8150  143.8190 N   0  0  0  0  0  2  0  0  0  0  0  0
  188.6610  178.3240  142.0360 O   0  0  0  0  0  0  0  0  0  0  0  0
  188.5330  177.1320  142.4260 C   0  0  0  0  0  0  0  0  0  0  0  0
  188.3220  176.0530  141.4210 C   0  0  2  0  0  3  0  0  0  0  0  0
  187.2040  176.3480  140.6370 O   0  0  0  0  0  1  0  0  0  0  0  0
  188.1250  174.7200  142.1260 C   0  0  0  0  0  2  0  0  0  0  0  0
  190.5120  172.6950  140.2470 O   0  0  0  0  0  1  0  0  0  0  0  0
  189.4850  173.3710  140.5180 C   0  0  0  0  0  0  0  0  0  0  0  0
  189.2450  173.8240  141.8610 N   0  0  0  0  0  0  0  0  0  0  0  0
  188.5860  173.6820  139.5010 O   0  0  0  0  0  0  0  0  0  0  0  0
  190.2520  173.6360  142.9050 C   0  0  0  0  0  0  0  0  0  0  0  0
  189.6950  173.3510  144.2860 C   0  0  0  0  0  2  0  0  0  0  0  0
  190.3490  172.2380  143.4780 C   0  0  0  0  0  2  0  0  0  0  0  0
  191.4990  174.4610  142.8510 C   0  0  0  0  0  0  0  0  0  0  0  0
  191.4760  175.6300  143.1980 O   0  0  0  0  0  0  0  0  0  0  0  0
  192.7630  173.8820  142.3200 C   0  0  0  0  0  1  0  0  0  0  0  0
  1  2  2  0  0  0  0
  1 27  1  0  0  0  0
  3 11  1  0  0  0  0
  4 13  1  0  0  0  0
  5  6  1  0  0  0  0
  6  2  1  0  0  0  0
  7  9  1  0  0  0  0
  8  5  2  0  0  0  0
  9 11  1  0  0  0  0
  9 13  2  0  0  0  0
 10  4  2  0  0  0  0
 11  8  1  0  0  0  0
 12  7  2  0  0  0  0
 12 10  1  0  0  0  0
 13  5  1  0  0  0  0
 14 10  1  0  0  0  0
 15 14  1  0  0  0  0
 16 25  1  0  0  0  0
 16 23  1  0  0  0  0
 17 18  1  0  0  0  0
 18 16  2  0  0  0  0
 19 20  2  0  0  0  0
 19 24  1  0  0  0  0
 20 21  1  0  0  0  0
 21 26  2  0  0  0  0
 22 26  1  0  0  0  0
 22 15  1  0  0  0  0
 23 20  1  0  0  0  0
 24 22  2  0  0  0  0
 25 19  1  0  0  0  0
 28 36  1  6  0  0  0
 28 27  1  0  0  0  0
 30 28  1  0  0  0  0
 30 29  1  1  0  0  0
 32 30  1  0  0  0  0
 32 31  1  1  0  0  0
 33 32  1  0  0  0  0
 34 33  1  0  0  0  0
 35 34  1  0  0  0  0
 37 36  1  0  0  0  0
 38 39  2  0  0  0  0
 39 37  1  0  0  0  0
 40 41  1  1  0  0  0
 40 42  1  0  0  0  0
 40 39  1  0  0  0  0
 43 44  1  0  0  0  0
 44 45  1  0  0  0  0
 45 42  1  0  0  0  0
 45 47  1  0  0  0  0
 46 44  2  0  0  0  0
 47 49  1  0  0  0  0
 47 48  1  0  0  0  0
 49 48  1  0  0  0  0
 50 47  1  0  0  0  0
 50 51  2  0  0  0  0
 52 50  1  0  0  0  0
M  END
>  <MODEL>
6

>  <REMARK>
 VINA RESULT:      -6.3      2.824      9.216
  Name = 
  17 active torsions:
  status: ('A' for Active; 'I' for Inactive)
    1  A    between atoms: C_1  and  C_3
    2  A    between atoms: C_1  and  C_12
    3  A    between atoms: C_1  and  S_40
    4  A    between atoms: C_2  and  C_10
    5  A    between atoms: C_2  and  N_37
    6  A    between atoms: C_3  and  N_4
    7  A    between atoms: C_5  and  S_40
    8  A    between atoms: C_7  and  C_16
    9  A    between atoms: C_9  and  N_20
   10  A    between atoms: C_9  and  C_34
   11  A    between atoms: C_12  and  C_49
   12  A    between atoms: C_13  and  C_27
   13  A    between atoms: C_13  and  C_36
   14  A    between atoms: C_16  and  C_49
   15  A    between atoms: N_18  and  C_19
   16  A    between atoms: N_20  and  C_39
   17  A    between atoms: C_27  and  N_37
                            x       y       z     vdW  Elec       q    Type
                         _______ _______ _______ _____ _____    ______ ____

>  <TORSDO>
F 17

$$$$
=
 OpenBabel11042415563D

 52 56  0  0  1  0  0  0  0  0999 V2000
  189.3240  176.7600  144.1180 C   0  0  0  0  0  3  0  0  0  0  0  0
  189.5130  176.1130  145.2580 C   0  0  0  0  0  3  0  0  0  0  0  0
  194.5800  177.5320  146.2950 C   0  0  0  0  0  1  0  0  0  0  0  0
  192.9090  173.0690  145.2440 C   0  0  0  0  0  3  0  0  0  0  0  0
  191.8520  175.3390  145.6170 C   0  0  0  0  0  0  0  0  0  0  0  0
  190.4820  175.0710  145.3270 N   0  0  0  0  0  2  0  0  0  0  0  0
  195.2750  174.5670  145.7560 C   0  0  0  0  0  3  0  0  0  0  0  0
  192.3560  176.5650  145.9050 N   0  0  0  0  0  0  0  0  0  0  0  0
  194.0090  175.1500  145.7830 C   0  0  0  0  0  0  0  0  0  0  0  0
  194.1720  172.4440  145.2020 C   0  0  0  0  0  0  0  0  0  0  0  0
  193.6730  176.4320  146.0130 N   0  0  0  0  0  0  0  0  0  0  0  0
  195.3470  173.1900  145.4630 C   0  0  0  0  0  3  0  0  0  0  0  0
  192.8780  174.4270  145.5360 C   0  0  0  0  0  0  0  0  0  0  0  0
  194.2830  170.9820  144.9200 C   0  0  0  0  0  2  0  0  0  0  0  0
  195.5460  170.6770  144.2560 N   0  0  0  0  0  2  0  0  0  0  0  0
  196.3210  171.7290  138.2700 C   0  0  0  0  0  0  0  0  0  0  0  0
  196.4580  171.0410  135.9800 N   0  0  0  0  0  1  0  0  0  0  0  0
  196.4780  172.0430  136.9910 C   0  0  0  0  0  3  0  0  0  0  0  0
  196.0350  171.6080  140.6940 C   0  0  0  0  0  0  0  0  0  0  0  0
  195.9830  170.3710  140.0750 C   0  0  0  0  0  0  0  0  0  0  0  0
  195.7880  169.2020  140.8100 C   0  0  0  0  0  3  0  0  0  0  0  0
  195.6910  170.5600  142.8390 C   0  0  0  0  0  0  0  0  0  0  0  0
  196.1370  170.4180  138.7040 O   0  0  0  0  0  0  0  0  0  0  0  0
  195.8870  171.7210  142.0750 C   0  0  0  0  0  3  0  0  0  0  0  0
  196.3240  172.9730  139.5730 S   0  0  0  0  0  0  0  0  0  0  0  0
  195.6420  169.3010  142.2010 C   0  0  0  0  0  3  0  0  0  0  0  0
  188.1460  178.1010  144.0150 S   0  0  0  0  0  0  0  0  0  0  0  0
  186.7300  176.9470  143.9020 C   0  0  1  0  0  3  0  0  0  0  0  0
  185.0300  178.8910  143.8510 C   0  0  0  0  0  1  0  0  0  0  0  0
  185.3720  177.5080  144.3870 C   0  0  2  0  0  3  0  0  0  0  0  0
  186.0780  176.4410  146.5940 C   0  0  0  0  0  1  0  0  0  0  0  0
  185.2290  177.5040  145.9180 C   0  0  1  0  0  3  0  0  0  0  0  0
  185.3490  178.8800  146.5870 C   0  0  0  0  0  2  0  0  0  0  0  0
  186.3590  178.9060  147.7220 C   0  0  0  0  0  2  0  0  0  0  0  0
  186.3240  180.1520  148.3480 O   0  0  0  0  0  1  0  0  0  0  0  0
  186.6200  176.3960  142.4840 C   0  0  0  0  0  2  0  0  0  0  0  0
  187.0500  175.0060  142.4390 N   0  0  0  0  0  2  0  0  0  0  0  0
  188.3740  175.2890  140.5340 O   0  0  0  0  0  0  0  0  0  0  0  0
  187.9660  174.5260  141.4510 C   0  0  0  0  0  0  0  0  0  0  0  0
  188.4560  173.1200  141.5020 C   0  0  2  0  0  3  0  0  0  0  0  0
  187.4580  172.2880  142.0150 O   0  0  0  0  0  1  0  0  0  0  0  0
  189.7010  173.0370  142.3730 C   0  0  0  0  0  2  0  0  0  0  0  0
  192.9610  173.6900  140.8660 O   0  0  0  0  0  0  0  0  0  0  0  0
  191.8730  173.8850  141.4680 C   0  0  0  0  0  0  0  0  0  0  0  0
  190.8920  172.8360  141.5560 N   0  0  0  0  0  0  0  0  0  0  0  0
  191.6290  175.1240  142.0530 O   0  0  0  0  0  1  0  0  0  0  0  0
  191.1950  171.4870  141.0800 C   0  0  0  0  0  0  0  0  0  0  0  0
  192.2380  170.7440  141.8910 C   0  0  0  0  0  2  0  0  0  0  0  0
  190.7690  170.3590  141.9950 C   0  0  0  0  0  2  0  0  0  0  0  0
  191.1970  171.2330  139.6050 C   0  0  0  0  0  0  0  0  0  0  0  0
  190.1570  171.2920  138.9720 O   0  0  0  0  0  0  0  0  0  0  0  0
  192.4550  170.8480  138.9100 C   0  0  0  0  0  1  0  0  0  0  0  0
  1  2  2  0  0  0  0
  2  6  1  0  0  0  0
  4 13  1  0  0  0  0
  5  8  2  0  0  0  0
  6  5  1  0  0  0  0
  7  9  1  0  0  0  0
  8 11  1  0  0  0  0
  9 11  1  0  0  0  0
 10  4  2  0  0  0  0
 10 12  1  0  0  0  0
 11  3  1  0  0  0  0
 12  7  2  0  0  0  0
 13  5  1  0  0  0  0
 13  9  2  0  0  0  0
 14 10  1  0  0  0  0
 15 14  1  0  0  0  0
 16 23  1  0  0  0  0
 16 25  1  0  0  0  0
 17 18  1  0  0  0  0
 18 16  2  0  0  0  0
 19 24  1  0  0  0  0
 20 19  2  0  0  0  0
 20 21  1  0  0  0  0
 21 26  2  0  0  0  0
 22 15  1  0  0  0  0
 23 20  1  0  0  0  0
 24 22  2  0  0  0  0
 25 19  1  0  0  0  0
 26 22  1  0  0  0  0
 27  1  1  0  0  0  0
 28 36  1  6  0  0  0
 28 27  1  0  0  0  0
 28 30  1  0  0  0  0
 30 29  1  1  0  0  0
 30 32  1  0  0  0  0
 32 33  1  0  0  0  0
 32 31  1  1  0  0  0
 33 34  1  0  0  0  0
 34 35  1  0  0  0  0
 37 36  1  0  0  0  0
 38 39  2  0  0  0  0
 39 40  1  0  0  0  0
 39 37  1  0  0  0  0
 40 41  1  1  0  0  0
 40 42  1  0  0  0  0
 43 44  2  0  0  0  0
 44 45  1  0  0  0  0
 44 46  1  0  0  0  0
 45 42  1  0  0  0  0
 47 45  1  0  0  0  0
 47 48  1  0  0  0  0
 47 49  1  0  0  0  0
 48 49  1  0  0  0  0
 50 47  1  0  0  0  0
 51 50  2  0  0  0  0
 52 50  1  0  0  0  0
M  END
>  <MODEL>
7

>  <REMARK>
 VINA RESULT:      -6.2      3.134      9.729
  Name = 
  17 active torsions:
  status: ('A' for Active; 'I' for Inactive)
    1  A    between atoms: C_1  and  C_3
    2  A    between atoms: C_1  and  C_12
    3  A    between atoms: C_1  and  S_40
    4  A    between atoms: C_2  and  C_10
    5  A    between atoms: C_2  and  N_37
    6  A    between atoms: C_3  and  N_4
    7  A    between atoms: C_5  and  S_40
    8  A    between atoms: C_7  and  C_16
    9  A    between atoms: C_9  and  N_20
   10  A    between atoms: C_9  and  C_34
   11  A    between atoms: C_12  and  C_49
   12  A    between atoms: C_13  and  C_27
   13  A    between atoms: C_13  and  C_36
   14  A    between atoms: C_16  and  C_49
   15  A    between atoms: N_18  and  C_19
   16  A    between atoms: N_20  and  C_39
   17  A    between atoms: C_27  and  N_37
                            x       y       z     vdW  Elec       q    Type
                         _______ _______ _______ _____ _____    ______ ____

>  <TORSDO>
F 17

$$$$
=
 OpenBabel11042415563D

 52 56  0  0  1  0  0  0  0  0999 V2000
  190.1180  172.3250  142.6080 C   0  0  0  0  0  3  0  0  0  0  0  0
  190.4090  172.6250  143.8650 C   0  0  0  0  0  3  0  0  0  0  0  0
  193.4480  176.7390  145.4790 C   0  0  0  0  0  1  0  0  0  0  0  0
  194.7020  172.0270  145.2820 C   0  0  0  0  0  3  0  0  0  0  0  0
  192.5790  173.3390  144.8570 C   0  0  0  0  0  0  0  0  0  0  0  0
  191.7000  172.3200  144.3810 N   0  0  0  0  0  2  0  0  0  0  0  0
  195.6860  174.6380  145.8510 C   0  0  0  0  0  3  0  0  0  0  0  0
  192.2700  174.6580  144.9180 N   0  0  0  0  0  0  0  0  0  0  0  0
  194.3610  174.4090  145.4830 C   0  0  0  0  0  0  0  0  0  0  0  0
  196.0510  172.2180  145.6470 C   0  0  0  0  0  0  0  0  0  0  0  0
  193.3650  175.2980  145.3110 N   0  0  0  0  0  0  0  0  0  0  0  0
  196.5360  173.5160  145.9350 C   0  0  0  0  0  3  0  0  0  0  0  0
  193.8950  173.1560  145.2100 C   0  0  0  0  0  0  0  0  0  0  0  0
  196.9730  171.0490  145.7700 C   0  0  0  0  0  2  0  0  0  0  0  0
  197.9380  171.0350  144.6760 N   0  0  0  0  0  2  0  0  0  0  0  0
  196.9210  173.1540  139.0180 C   0  0  0  0  0  0  0  0  0  0  0  0
  196.1480  172.9350  136.7610 N   0  0  0  0  0  1  0  0  0  0  0  0
  196.7140  173.6940  137.8250 C   0  0  0  0  0  3  0  0  0  0  0  0
  197.4240  172.5860  141.3400 C   0  0  0  0  0  0  0  0  0  0  0  0
  196.9070  171.5240  140.6190 C   0  0  0  0  0  0  0  0  0  0  0  0
  196.7150  170.2740  141.2070 C   0  0  0  0  0  3  0  0  0  0  0  0
  197.5830  171.1880  143.3000 C   0  0  0  0  0  0  0  0  0  0  0  0
  196.6100  171.8260  139.3050 O   0  0  0  0  0  0  0  0  0  0  0  0
  197.7640  172.4360  142.6840 C   0  0  0  0  0  3  0  0  0  0  0  0
  197.6180  174.0890  140.3900 S   0  0  0  0  0  0  0  0  0  0  0  0
  197.0570  170.1090  142.5570 C   0  0  0  0  0  3  0  0  0  0  0  0
  188.5190  172.7370  141.9200 S   0  0  0  0  0  0  0  0  0  0  0  0
  189.2320  174.0460  140.8570 C   0  0  1  0  0  3  0  0  0  0  0  0
  188.1910  172.8680  138.8070 C   0  0  0  0  0  1  0  0  0  0  0  0
  189.3450  173.6970  139.3540 C   0  0  2  0  0  3  0  0  0  0  0  0
  190.7360  172.5600  137.5430 C   0  0  0  0  0  1  0  0  0  0  0  0
  190.6770  173.0220  138.9890 C   0  0  1  0  0  3  0  0  0  0  0  0
  191.9350  173.7850  139.4250 C   0  0  0  0  0  2  0  0  0  0  0  0
  192.8030  173.0010  140.3940 C   0  0  0  0  0  2  0  0  0  0  0  0
  193.1610  171.7810  139.8180 O   0  0  0  0  0  1  0  0  0  0  0  0
  188.4710  175.3530  141.0600 C   0  0  0  0  0  2  0  0  0  0  0  0
  188.7930  175.9380  142.3540 N   0  0  0  0  0  2  0  0  0  0  0  0
  188.4340  178.1370  141.6500 O   0  0  0  0  0  0  0  0  0  0  0  0
  188.7160  177.3460  142.5900 C   0  0  0  0  0  0  0  0  0  0  0  0
  188.9580  177.8920  143.9550 C   0  0  2  0  0  3  0  0  0  0  0  0
  190.3050  178.2350  144.0970 O   0  0  0  0  0  1  0  0  0  0  0  0
  188.5730  176.8570  145.0030 C   0  0  0  0  0  2  0  0  0  0  0  0
  187.2700  178.5390  147.9700 O   0  0  0  0  0  1  0  0  0  0  0  0
  188.0700  177.9520  147.1950 C   0  0  0  0  0  0  0  0  0  0  0  0
  187.6080  177.4100  145.9450 N   0  0  0  0  0  0  0  0  0  0  0  0
  189.4090  177.8370  147.5560 O   0  0  0  0  0  0  0  0  0  0  0  0
  186.2410  177.6550  145.4840 C   0  0  0  0  0  0  0  0  0  0  0  0
  185.6110  176.5080  144.7190 C   0  0  0  0  0  2  0  0  0  0  0  0
  185.1670  176.8150  146.1440 C   0  0  0  0  0  2  0  0  0  0  0  0
  185.8760  179.0330  145.0320 C   0  0  0  0  0  0  0  0  0  0  0  0
  185.5650  179.8840  145.8490 O   0  0  0  0  0  0  0  0  0  0  0  0
  185.8310  179.3620  143.5810 C   0  0  0  0  0  1  0  0  0  0  0  0
  1  2  2  0  0  0  0
  2  6  1  0  0  0  0
  4 10  1  0  0  0  0
  5  8  2  0  0  0  0
  5 13  1  0  0  0  0
  6  5  1  0  0  0  0
  7 12  1  0  0  0  0
  8 11  1  0  0  0  0
  9  7  2  0  0  0  0
 10 14  1  0  0  0  0
 10 12  2  0  0  0  0
 11  3  1  0  0  0  0
 11  9  1  0  0  0  0
 13  4  2  0  0  0  0
 13  9  1  0  0  0  0
 15 14  1  0  0  0  0
 16 23  1  0  0  0  0
 16 25  1  0  0  0  0
 17 18  1  0  0  0  0
 18 16  2  0  0  0  0
 19 24  1  0  0  0  0
 20 21  1  0  0  0  0
 20 19  2  0  0  0  0
 21 26  2  0  0  0  0
 22 15  1  0  0  0  0
 23 20  1  0  0  0  0
 24 22  2  0  0  0  0
 25 19  1  0  0  0  0
 26 22  1  0  0  0  0
 27  1  1  0  0  0  0
 28 36  1  6  0  0  0
 28 27  1  0  0  0  0
 30 29  1  1  0  0  0
 30 28  1  0  0  0  0
 32 31  1  6  0  0  0
 32 30  1  0  0  0  0
 32 33  1  0  0  0  0
 33 34  1  0  0  0  0
 35 34  1  0  0  0  0
 36 37  1  0  0  0  0
 37 39  1  0  0  0  0
 38 39  2  0  0  0  0
 39 40  1  0  0  0  0
 40 41  1  6  0  0  0
 40 42  1  0  0  0  0
 42 45  1  0  0  0  0
 44 46  2  0  0  0  0
 44 43  1  0  0  0  0
 45 44  1  0  0  0  0
 47 45  1  0  0  0  0
 47 49  1  0  0  0  0
 48 47  1  0  0  0  0
 48 49  1  0  0  0  0
 50 47  1  0  0  0  0
 50 51  2  0  0  0  0
 52 50  1  0  0  0  0
M  END
>  <MODEL>
8

>  <REMARK>
 VINA RESULT:      -6.2      3.120      9.068
  Name = 
  17 active torsions:
  status: ('A' for Active; 'I' for Inactive)
    1  A    between atoms: C_1  and  C_3
    2  A    between atoms: C_1  and  C_12
    3  A    between atoms: C_1  and  S_40
    4  A    between atoms: C_2  and  C_10
    5  A    between atoms: C_2  and  N_37
    6  A    between atoms: C_3  and  N_4
    7  A    between atoms: C_5  and  S_40
    8  A    between atoms: C_7  and  C_16
    9  A    between atoms: C_9  and  N_20
   10  A    between atoms: C_9  and  C_34
   11  A    between atoms: C_12  and  C_49
   12  A    between atoms: C_13  and  C_27
   13  A    between atoms: C_13  and  C_36
   14  A    between atoms: C_16  and  C_49
   15  A    between atoms: N_18  and  C_19
   16  A    between atoms: N_20  and  C_39
   17  A    between atoms: C_27  and  N_37
                            x       y       z     vdW  Elec       q    Type
                         _______ _______ _______ _____ _____    ______ ____

>  <TORSDO>
F 17

$$$$
=
 OpenBabel11042415563D

 52 56  0  0  1  0  0  0  0  0999 V2000
  190.8310  176.5140  146.3500 C   0  0  0  0  0  3  0  0  0  0  0  0
  191.1320  175.2310  146.4810 C   0  0  0  0  0  3  0  0  0  0  0  0
  195.4040  178.3720  145.6780 C   0  0  0  0  0  1  0  0  0  0  0  0
  194.6440  173.8920  143.8980 C   0  0  0  0  0  3  0  0  0  0  0  0
  193.4080  175.4250  145.4890 C   0  0  0  0  0  0  0  0  0  0  0  0
  192.2170  174.6810  145.7410 N   0  0  0  0  0  2  0  0  0  0  0  0
  196.4390  176.1020  143.8510 C   0  0  0  0  0  3  0  0  0  0  0  0
  193.6520  176.6740  145.9590 N   0  0  0  0  0  0  0  0  0  0  0  0
  195.2830  176.1030  144.6300 C   0  0  0  0  0  0  0  0  0  0  0  0
  195.8000  173.8550  143.0920 C   0  0  0  0  0  0  0  0  0  0  0  0
  194.8050  177.0710  145.4330 N   0  0  0  0  0  0  0  0  0  0  0  0
  196.6940  174.9530  143.0750 C   0  0  0  0  0  3  0  0  0  0  0  0
  194.4260  175.0410  144.6480 C   0  0  0  0  0  0  0  0  0  0  0  0
  196.1140  172.6440  142.2770 C   0  0  0  0  0  2  0  0  0  0  0  0
  196.2450  172.9900  140.8650 N   0  0  0  0  0  2  0  0  0  0  0  0
  191.4750  172.7640  137.0270 C   0  0  0  0  0  0  0  0  0  0  0  0
  189.7470  173.7660  135.7050 N   0  0  0  0  0  1  0  0  0  0  0  0
  190.4640  172.6300  136.1800 C   0  0  0  0  0  3  0  0  0  0  0  0
  193.3910  172.5550  138.5290 C   0  0  0  0  0  0  0  0  0  0  0  0
  192.9710  173.8620  138.3580 C   0  0  0  0  0  0  0  0  0  0  0  0
  193.6120  174.9190  139.0060 C   0  0  0  0  0  3  0  0  0  0  0  0
  195.1370  173.3000  140.0170 C   0  0  0  0  0  0  0  0  0  0  0  0
  191.8920  174.0030  137.5090 O   0  0  0  0  0  0  0  0  0  0  0  0
  194.4750  172.2550  139.3520 C   0  0  0  0  0  3  0  0  0  0  0  0
  192.4150  171.3520  137.6330 S   0  0  0  0  0  0  0  0  0  0  0  0
  194.7010  174.6310  139.8400 C   0  0  0  0  0  3  0  0  0  0  0  0
  189.5030  177.2420  147.3000 S   0  0  0  0  0  0  0  0  0  0  0  0
  188.3310  177.1120  145.9010 C   0  0  1  0  0  3  0  0  0  0  0  0
  186.7820  178.5170  147.4180 C   0  0  0  0  0  1  0  0  0  0  0  0
  187.0490  177.9690  146.0230 C   0  0  2  0  0  3  0  0  0  0  0  0
  184.6580  177.2290  146.5200 C   0  0  0  0  0  1  0  0  0  0  0  0
  185.7910  177.2510  145.5070 C   0  0  1  0  0  3  0  0  0  0  0  0
  185.3310  177.6700  144.1040 C   0  0  0  0  0  2  0  0  0  0  0  0
  184.5840  178.9930  144.0910 C   0  0  0  0  0  2  0  0  0  0  0  0
  185.4780  180.0360  144.3360 O   0  0  0  0  0  1  0  0  0  0  0  0
  189.0550  177.3940  144.5880 C   0  0  0  0  0  2  0  0  0  0  0  0
  188.5730  176.5090  143.5360 N   0  0  0  0  0  2  0  0  0  0  0  0
  188.9950  178.0310  141.8140 O   0  0  0  0  0  0  0  0  0  0  0  0
  188.6080  176.8820  142.1560 C   0  0  0  0  0  0  0  0  0  0  0  0
  188.1970  175.9080  141.1060 C   0  0  2  0  0  3  0  0  0  0  0  0
  187.1470  176.4380  140.3530 O   0  0  0  0  0  1  0  0  0  0  0  0
  187.7640  174.6010  141.7530 C   0  0  0  0  0  2  0  0  0  0  0  0
  189.6480  172.2010  139.7470 O   0  0  0  0  0  1  0  0  0  0  0  0
  188.7690  173.0420  140.0750 C   0  0  0  0  0  0  0  0  0  0  0  0
  188.6970  173.5280  141.4260 N   0  0  0  0  0  0  0  0  0  0  0  0
  187.8720  173.5000  139.1150 O   0  0  0  0  0  0  0  0  0  0  0  0
  189.7240  173.1720  142.4060 C   0  0  0  0  0  0  0  0  0  0  0  0
  189.2760  173.2380  143.8520 C   0  0  0  0  0  2  0  0  0  0  0  0
  189.4800  171.8900  143.1730 C   0  0  0  0  0  2  0  0  0  0  0  0
  191.1400  173.5690  142.1320 C   0  0  0  0  0  0  0  0  0  0  0  0
  191.4230  174.7400  141.9450 O   0  0  0  0  0  0  0  0  0  0  0  0
  192.2040  172.5330  142.0240 C   0  0  0  0  0  1  0  0  0  0  0  0
  1  2  2  0  0  0  0
  1 27  1  0  0  0  0
  4 13  1  0  0  0  0
  5  6  1  0  0  0  0
  5  8  2  0  0  0  0
  6  2  1  0  0  0  0
  7  9  1  0  0  0  0
  9 13  2  0  0  0  0
  9 11  1  0  0  0  0
 10  4  2  0  0  0  0
 11  3  1  0  0  0  0
 11  8  1  0  0  0  0
 12 10  1  0  0  0  0
 12  7  2  0  0  0  0
 13  5  1  0  0  0  0
 14 10  1  0  0  0  0
 15 14  1  0  0  0  0
 16 23  1  0  0  0  0
 16 25  1  0  0  0  0
 17 18  1  0  0  0  0
 18 16  2  0  0  0  0
 19 24  1  0  0  0  0
 20 19  2  0  0  0  0
 20 21  1  0  0  0  0
 21 26  2  0  0  0  0
 22 15  1  0  0  0  0
 23 20  1  0  0  0  0
 24 22  2  0  0  0  0
 25 19  1  0  0  0  0
 26 22  1  0  0  0  0
 28 36  1  6  0  0  0
 28 30  1  0  0  0  0
 28 27  1  0  0  0  0
 30 29  1  1  0  0  0
 32 30  1  0  0  0  0
 32 31  1  1  0  0  0
 33 32  1  0  0  0  0
 34 33  1  0  0  0  0
 34 35  1  0  0  0  0
 37 36  1  0  0  0  0
 38 39  2  0  0  0  0
 39 37  1  0  0  0  0
 40 41  1  1  0  0  0
 40 42  1  0  0  0  0
 40 39  1  0  0  0  0
 43 44  1  0  0  0  0
 44 45  1  0  0  0  0
 45 42  1  0  0  0  0
 45 47  1  0  0  0  0
 46 44  2  0  0  0  0
 47 49  1  0  0  0  0
 47 48  1  0  0  0  0
 49 48  1  0  0  0  0
 50 47  1  0  0  0  0
 51 50  2  0  0  0  0
 52 50  1  0  0  0  0
M  END
>  <MODEL>
9

>  <REMARK>
 VINA RESULT:      -6.1      2.940      9.077
  Name = 
  17 active torsions:
  status: ('A' for Active; 'I' for Inactive)
    1  A    between atoms: C_1  and  C_3
    2  A    between atoms: C_1  and  C_12
    3  A    between atoms: C_1  and  S_40
    4  A    between atoms: C_2  and  C_10
    5  A    between atoms: C_2  and  N_37
    6  A    between atoms: C_3  and  N_4
    7  A    between atoms: C_5  and  S_40
    8  A    between atoms: C_7  and  C_16
    9  A    between atoms: C_9  and  N_20
   10  A    between atoms: C_9  and  C_34
   11  A    between atoms: C_12  and  C_49
   12  A    between atoms: C_13  and  C_27
   13  A    between atoms: C_13  and  C_36
   14  A    between atoms: C_16  and  C_49
   15  A    between atoms: N_18  and  C_19
   16  A    between atoms: N_20  and  C_39
   17  A    between atoms: C_27  and  N_37
                            x       y       z     vdW  Elec       q    Type
                         _______ _______ _______ _____ _____    ______ ____

>  <TORSDO>
F 17

$$$$
