=
 OpenBabel11042417133D

 49 56  0  0  0  0  0  0  0  0999 V2000
  189.5840  172.6780  136.0680 S   0  0  0  0  0  0  0  0  0  0  0  0
  191.2340  172.1050  142.1210 N   0  0  0  0  0  0  0  0  0  0  0  0
  192.2370  170.3770  137.6850 C   0  0  0  0  0  1  0  0  0  0  0  0
  187.5370  175.9970  144.2690 C   0  0  0  0  0  0  0  0  0  0  0  0
  187.1840  176.5270  145.5990 C   0  0  0  0  0  3  0  0  0  0  0  0
  191.6820  171.8760  143.4770 C   0  0  0  0  0  0  0  0  0  0  0  0
  190.6620  172.2300  139.6820 C   0  0  0  0  0  0  0  0  0  0  0  0
  191.1670  171.3530  137.3420 C   0  0  0  0  0  0  0  0  0  0  0  0
  191.1180  172.5760  144.4820 C   0  0  0  0  0  3  0  0  0  0  0  0
  189.5370  172.9940  137.7000 C   0  0  0  0  0  0  0  0  0  0  0  0
  188.4650  175.0630  144.0090 C   0  0  0  0  0  0  0  0  0  0  0  0
  188.7390  175.2920  147.1650 C   0  0  0  0  0  3  0  0  0  0  0  0
  189.6530  173.7370  142.8360 C   0  0  0  0  0  0  0  0  0  0  0  0
  190.0610  173.5450  144.1270 C   0  0  0  0  0  0  0  0  0  0  0  0
  189.8800  173.1200  140.4230 C   0  0  0  0  0  0  0  0  0  0  0  0
  189.4380  174.5020  146.3600 C   0  0  0  0  0  3  0  0  0  0  0  0
  187.5520  174.9110  137.6460 Cl  0  0  0  0  0  0  0  0  0  0  0  0
  188.7060  174.6390  142.7780 O   0  0  0  0  0  0  0  0  0  0  0  0
  187.6780  176.2380  146.8020 C   0  0  0  0  0  3  0  0  0  0  0  0
  190.4900  172.1670  138.2890 C   0  0  0  0  0  0  0  0  0  0  0  0
  188.9220  173.9500  139.8170 C   0  0  0  0  0  3  0  0  0  0  0  0
  189.3070  174.3940  144.9060 C   0  0  0  0  0  0  0  0  0  0  0  0
  188.7430  173.8880  138.4270 C   0  0  0  0  0  0  0  0  0  0  0  0
  191.8220  171.2600  140.6770 S   0  0  0  0  0  0  0  0  0  0  0  0
  190.2010  173.0510  141.8330 C   0  0  0  0  0  0  0  0  0  0  0  0
  190.7790  171.5160  136.0470 N   0  0  0  0  0  0  0  0  0  0  0  0
  186.5090  178.0480  143.3430 C   0  0  0  0  0  1  0  0  0  0  0  0
  186.7510  176.5650  143.1300 C   0  0  0  0  0  2  0  0  0  0  0  0
  192.7620  170.8860  143.7730 C   0  0  0  0  0  2  0  0  0  0  0  0
  193.6900  171.3990  144.8660 C   0  0  0  0  0  2  0  0  0  0  0  0
  195.1040  171.6090  144.3420 C   0  0  0  0  0  2  0  0  0  0  0  0
  195.9410  173.7970  145.3840 N   0  0  0  0  0  2  0  0  0  0  0  0
  196.6050  171.7200  146.1780 O   0  0  0  0  0  0  0  0  0  0  0  0
  194.6850  174.2450  143.4610 O   0  0  0  0  0  0  0  0  0  0  0  0
  195.2950  174.6930  144.4690 C   0  0  0  0  0  0  0  0  0  0  0  0
  195.9260  172.3640  145.3370 C   0  0  0  0  0  0  0  0  0  0  0  0
  196.1550  176.8350  143.9950 O   0  0  0  0  0  0  0  0  0  0  0  0
  195.3460  176.1540  144.6830 C   0  0  0  0  0  0  0  0  0  0  0  0
  194.9640  177.7300  146.4330 O   0  0  0  0  0  0  0  0  0  0  0  0
  194.4850  176.8480  145.6710 C   0  0  0  0  0  0  0  0  0  0  0  0
  192.7820  175.1050  146.4150 C   0  0  0  0  0  2  0  0  0  0  0  0
  193.0390  176.4760  145.8170 C   0  0  0  0  0  0  0  0  0  0  0  0
  192.5200  176.3580  147.2370 C   0  0  0  0  0  2  0  0  0  0  0  0
  192.1830  176.4770  143.4550 C   0  0  0  0  0  3  0  0  0  0  0  0
  191.0320  177.8160  145.1130 C   0  0  0  0  0  3  0  0  0  0  0  0
  190.1340  178.2540  144.1360 C   0  0  0  0  0  3  0  0  0  0  0  0
  192.0540  176.9170  144.7800 C   0  0  0  0  0  0  0  0  0  0  0  0
  190.2580  177.8020  142.8190 C   0  0  0  0  0  3  0  0  0  0  0  0
  191.2830  176.9150  142.4790 C   0  0  0  0  0  3  0  0  0  0  0  0
  1 10  1  0  0  0  0
  2  6  1  0  0  0  0
  4  5  1  0  0  0  0
  5 19  2  0  0  0  0
  6 29  1  0  0  0  0
  6  9  2  0  0  0  0
  7 15  1  0  0  0  0
  7 24  1  0  0  0  0
  8  3  1  0  0  0  0
  8 20  1  0  0  0  0
 10 20  1  0  0  0  0
 10 23  2  0  0  0  0
 11  4  2  0  0  0  0
 11 22  1  0  0  0  0
 13 14  1  0  0  0  0
 14  9  1  0  0  0  0
 14 22  2  0  0  0  0
 15 25  1  0  0  0  0
 16 12  2  0  0  0  0
 17 23  1  0  0  0  0
 18 13  1  0  0  0  0
 18 11  1  0  0  0  0
 19 12  1  0  0  0  0
 20  7  2  0  0  0  0
 21 15  2  0  0  0  0
 22 16  1  0  0  0  0
 23 21  1  0  0  0  0
 24  2  1  0  0  0  0
 25  2  1  0  0  0  0
 25 13  2  0  0  0  0
 26  1  1  0  0  0  0
 26  8  2  0  0  0  0
 28 27  1  0  0  0  0
 28  4  1  0  0  0  0
 29 30  1  0  0  0  0
 31 30  1  0  0  0  0
 31 36  1  0  0  0  0
 34 35  2  0  0  0  0
 35 38  1  0  0  0  0
 35 32  1  0  0  0  0
 36 32  1  0  0  0  0
 36 33  2  0  0  0  0
 37 38  2  0  0  0  0
 38 40  1  0  0  0  0
 40 42  1  0  0  0  0
 40 39  2  0  0  0  0
 41 43  1  0  0  0  0
 42 41  1  0  0  0  0
 42 43  1  0  0  0  0
 44 47  1  0  0  0  0
 46 45  1  0  0  0  0
 47 45  2  0  0  0  0
 47 42  1  0  0  0  0
 48 46  2  0  0  0  0
 49 48  1  0  0  0  0
 49 44  2  0  0  0  0
M  END
>  <MODEL>
1

>  <REMARK>
 VINA RESULT:      -8.1      0.000      0.000
  Name = 
  9 active torsions:
  status: ('A' for Active; 'I' for Inactive)
    1  A    between atoms: C_2  and  C_29
    2  A    between atoms: C_2  and  C_48
    3  A    between atoms: C_6  and  C_32
    4  A    between atoms: C_9  and  C_48
    5  A    between atoms: C_25  and  C_44
    6  A    between atoms: C_26  and  C_38
    7  A    between atoms: C_26  and  C_45
    8  A    between atoms: C_29  and  C_41
    9  A    between atoms: C_44  and  C_45
                            x       y       z     vdW  Elec       q    Type
                         _______ _______ _______ _____ _____    ______ ____

>  <TORSDO>
F 9

$$$$
=
 OpenBabel11042417133D

 49 56  0  0  0  0  0  0  0  0999 V2000
  184.0470  179.0950  144.2260 S   0  0  0  0  0  0  0  0  0  0  0  0
  189.1260  175.4290  144.8850 N   0  0  0  0  0  0  0  0  0  0  0  0
  186.1760  178.3890  147.3750 C   0  0  0  0  0  1  0  0  0  0  0  0
  189.4680  173.6400  139.3970 C   0  0  0  0  0  0  0  0  0  0  0  0
  190.3560  172.7730  138.6010 C   0  0  0  0  0  3  0  0  0  0  0  0
  190.3060  174.6330  145.1510 C   0  0  0  0  0  0  0  0  0  0  0  0
  187.1200  176.9270  144.7530 C   0  0  0  0  0  0  0  0  0  0  0  0
  185.5490  178.4790  146.0280 C   0  0  0  0  0  0  0  0  0  0  0  0
  190.8660  173.9340  144.1450 C   0  0  0  0  0  3  0  0  0  0  0  0
  185.2480  178.0500  143.7470 C   0  0  0  0  0  0  0  0  0  0  0  0
  189.5930  173.9140  140.7050 C   0  0  0  0  0  0  0  0  0  0  0  0
  192.0580  171.9580  140.2830 C   0  0  0  0  0  3  0  0  0  0  0  0
  189.1210  174.7930  142.5900 C   0  0  0  0  0  0  0  0  0  0  0  0
  190.2310  174.0280  142.8140 C   0  0  0  0  0  0  0  0  0  0  0  0
  187.3960  176.3550  143.5090 C   0  0  0  0  0  0  0  0  0  0  0  0
  191.6900  172.5420  141.4160 C   0  0  0  0  0  3  0  0  0  0  0  0
  184.5160  177.8400  141.0940 Cl  0  0  0  0  0  0  0  0  0  0  0  0
  188.7510  174.7180  141.3360 O   0  0  0  0  0  0  0  0  0  0  0  0
  191.4300  172.0740  138.9630 C   0  0  0  0  0  3  0  0  0  0  0  0
  186.0200  177.7930  144.8770 C   0  0  0  0  0  0  0  0  0  0  0  0
  186.6100  176.6220  142.3760 C   0  0  0  0  0  3  0  0  0  0  0  0
  190.5560  173.4470  141.6080 C   0  0  0  0  0  0  0  0  0  0  0  0
  185.5120  177.4880  142.4930 C   0  0  0  0  0  0  0  0  0  0  0  0
  188.2720  176.4430  146.0620 S   0  0  0  0  0  0  0  0  0  0  0  0
  188.5560  175.4910  143.5760 C   0  0  0  0  0  0  0  0  0  0  0  0
  184.4470  179.2550  145.8360 N   0  0  0  0  0  0  0  0  0  0  0  0
  188.5820  174.1390  137.1420 C   0  0  0  0  0  1  0  0  0  0  0  0
  188.3470  174.2730  138.6360 C   0  0  0  0  0  2  0  0  0  0  0  0
  190.8990  174.5720  146.5220 C   0  0  0  0  0  2  0  0  0  0  0  0
  192.4200  174.6300  146.4640 C   0  0  0  0  0  2  0  0  0  0  0  0
  192.9250  176.0640  146.5440 C   0  0  0  0  0  2  0  0  0  0  0  0
  194.1090  176.5440  144.3210 N   0  0  0  0  0  2  0  0  0  0  0  0
  191.9690  177.3200  144.7710 O   0  0  0  0  0  0  0  0  0  0  0  0
  195.5740  175.4820  145.8050 O   0  0  0  0  0  0  0  0  0  0  0  0
  195.3600  175.9210  144.6430 C   0  0  0  0  0  0  0  0  0  0  0  0
  192.9720  176.6820  145.1830 C   0  0  0  0  0  0  0  0  0  0  0  0
  197.0910  176.8220  143.3230 O   0  0  0  0  0  0  0  0  0  0  0  0
  196.4230  175.7950  143.6240 C   0  0  0  0  0  0  0  0  0  0  0  0
  197.9090  174.0610  142.9350 O   0  0  0  0  0  0  0  0  0  0  0  0
  196.7330  174.5140  142.9460 C   0  0  0  0  0  0  0  0  0  0  0  0
  194.7260  174.6130  141.3800 C   0  0  0  0  0  2  0  0  0  0  0  0
  195.6620  173.7600  142.2150 C   0  0  0  0  0  0  0  0  0  0  0  0
  195.7730  173.7410  140.7030 C   0  0  0  0  0  2  0  0  0  0  0  0
  195.1450  171.3010  142.2450 C   0  0  0  0  0  3  0  0  0  0  0  0
  194.2900  172.6950  144.0330 C   0  0  0  0  0  3  0  0  0  0  0  0
  193.6770  171.5790  144.6090 C   0  0  0  0  0  3  0  0  0  0  0  0
  195.0360  172.5590  142.8540 C   0  0  0  0  0  0  0  0  0  0  0  0
  193.7990  170.3240  144.0060 C   0  0  0  0  0  3  0  0  0  0  0  0
  194.5310  170.1860  142.8240 C   0  0  0  0  0  3  0  0  0  0  0  0
  1 26  1  0  0  0  0
  2  6  1  0  0  0  0
  2 24  1  0  0  0  0
  4 11  2  0  0  0  0
  5 19  2  0  0  0  0
  5  4  1  0  0  0  0
  6 29  1  0  0  0  0
  7 20  2  0  0  0  0
  7 24  1  0  0  0  0
  8  3  1  0  0  0  0
  9  6  2  0  0  0  0
 10  1  1  0  0  0  0
 10 20  1  0  0  0  0
 11 18  1  0  0  0  0
 11 22  1  0  0  0  0
 12 16  2  0  0  0  0
 13 14  1  0  0  0  0
 13 25  2  0  0  0  0
 14  9  1  0  0  0  0
 15 25  1  0  0  0  0
 15  7  1  0  0  0  0
 16 22  1  0  0  0  0
 17 23  1  0  0  0  0
 18 13  1  0  0  0  0
 19 12  1  0  0  0  0
 20  8  1  0  0  0  0
 21 23  1  0  0  0  0
 21 15  2  0  0  0  0
 22 14  2  0  0  0  0
 23 10  2  0  0  0  0
 25  2  1  0  0  0  0
 26  8  2  0  0  0  0
 27 28  1  0  0  0  0
 28  4  1  0  0  0  0
 30 29  1  0  0  0  0
 30 31  1  0  0  0  0
 32 35  1  0  0  0  0
 32 36  1  0  0  0  0
 33 36  2  0  0  0  0
 35 34  2  0  0  0  0
 36 31  1  0  0  0  0
 37 38  2  0  0  0  0
 38 35  1  0  0  0  0
 39 40  2  0  0  0  0
 40 38  1  0  0  0  0
 41 42  1  0  0  0  0
 42 47  1  0  0  0  0
 42 40  1  0  0  0  0
 43 41  1  0  0  0  0
 43 42  1  0  0  0  0
 44 49  2  0  0  0  0
 44 47  1  0  0  0  0
 45 46  1  0  0  0  0
 47 45  2  0  0  0  0
 48 46  2  0  0  0  0
 49 48  1  0  0  0  0
M  END
>  <MODEL>
2

>  <REMARK>
 VINA RESULT:      -7.6      3.209      6.716
  Name = 
  9 active torsions:
  status: ('A' for Active; 'I' for Inactive)
    1  A    between atoms: C_2  and  C_29
    2  A    between atoms: C_2  and  C_48
    3  A    between atoms: C_6  and  C_32
    4  A    between atoms: C_9  and  C_48
    5  A    between atoms: C_25  and  C_44
    6  A    between atoms: C_26  and  C_38
    7  A    between atoms: C_26  and  C_45
    8  A    between atoms: C_29  and  C_41
    9  A    between atoms: C_44  and  C_45
                            x       y       z     vdW  Elec       q    Type
                         _______ _______ _______ _____ _____    ______ ____

>  <TORSDO>
F 9

$$$$
=
 OpenBabel11042417133D

 49 56  0  0  0  0  0  0  0  0999 V2000
  184.2050  178.9940  144.6100 S   0  0  0  0  0  0  0  0  0  0  0  0
  189.5920  175.7720  145.1330 N   0  0  0  0  0  0  0  0  0  0  0  0
  186.5830  178.6600  147.6390 C   0  0  0  0  0  1  0  0  0  0  0  0
  189.7180  173.6560  139.7540 C   0  0  0  0  0  0  0  0  0  0  0  0
  190.6180  172.8070  138.9520 C   0  0  0  0  0  3  0  0  0  0  0  0
  190.8450  175.0870  145.3640 C   0  0  0  0  0  0  0  0  0  0  0  0
  187.4680  177.1030  145.0510 C   0  0  0  0  0  0  0  0  0  0  0  0
  185.8650  178.6130  146.3360 C   0  0  0  0  0  0  0  0  0  0  0  0
  191.3930  174.3660  144.3650 C   0  0  0  0  0  3  0  0  0  0  0  0
  185.4510  178.0130  144.1120 C   0  0  0  0  0  0  0  0  0  0  0  0
  189.9050  174.0240  141.0310 C   0  0  0  0  0  0  0  0  0  0  0  0
  192.4860  172.2350  140.5570 C   0  0  0  0  0  3  0  0  0  0  0  0
  189.4880  174.9870  142.8870 C   0  0  0  0  0  0  0  0  0  0  0  0
  190.6680  174.3250  143.0790 C   0  0  0  0  0  0  0  0  0  0  0  0
  187.7080  176.4720  143.8270 C   0  0  0  0  0  0  0  0  0  0  0  0
  192.1460  172.8630  141.6760 C   0  0  0  0  0  3  0  0  0  0  0  0
  184.5680  177.5740  141.5340 Cl  0  0  0  0  0  0  0  0  0  0  0  0
  189.0440  174.8020  141.6690 O   0  0  0  0  0  0  0  0  0  0  0  0
  191.7660  172.2170  139.2800 C   0  0  0  0  0  3  0  0  0  0  0  0
  186.3130  177.8900  145.1990 C   0  0  0  0  0  0  0  0  0  0  0  0
  186.8310  176.6040  142.7380 C   0  0  0  0  0  3  0  0  0  0  0  0
  190.9580  173.6920  141.8910 C   0  0  0  0  0  0  0  0  0  0  0  0
  185.6780  177.3910  142.8790 C   0  0  0  0  0  0  0  0  0  0  0  0
  188.7380  176.7950  146.3040 S   0  0  0  0  0  0  0  0  0  0  0  0
  188.9350  175.7050  143.8660 C   0  0  0  0  0  0  0  0  0  0  0  0
  184.6940  179.2900  146.1750 N   0  0  0  0  0  0  0  0  0  0  0  0
  188.6990  174.0480  137.5340 C   0  0  0  0  0  1  0  0  0  0  0  0
  188.5020  174.1510  139.0360 C   0  0  0  0  0  2  0  0  0  0  0  0
  191.5290  175.1610  146.6910 C   0  0  0  0  0  2  0  0  0  0  0  0
  192.4040  176.4040  146.7880 C   0  0  0  0  0  2  0  0  0  0  0  0
  193.8790  176.0400  146.8880 C   0  0  0  0  0  2  0  0  0  0  0  0
  195.1380  175.9260  144.6570 N   0  0  0  0  0  2  0  0  0  0  0  0
  194.8610  177.9170  145.8160 O   0  0  0  0  0  0  0  0  0  0  0  0
  194.5870  173.7720  145.3860 O   0  0  0  0  0  0  0  0  0  0  0  0
  195.0610  174.5040  144.4770 C   0  0  0  0  0  0  0  0  0  0  0  0
  194.6530  176.6760  145.7780 C   0  0  0  0  0  0  0  0  0  0  0  0
  195.4490  172.6230  143.1130 O   0  0  0  0  0  0  0  0  0  0  0  0
  195.5480  173.8750  143.2320 C   0  0  0  0  0  0  0  0  0  0  0  0
  197.3870  174.8740  142.0870 O   0  0  0  0  0  0  0  0  0  0  0  0
  196.1470  174.6550  142.1230 C   0  0  0  0  0  0  0  0  0  0  0  0
  194.0230  175.9350  141.5400 C   0  0  0  0  0  2  0  0  0  0  0  0
  195.2790  175.2410  141.0490 C   0  0  0  0  0  0  0  0  0  0  0  0
  195.1920  176.7550  141.0140 C   0  0  0  0  0  2  0  0  0  0  0  0
  194.2840  175.0350  138.7510 C   0  0  0  0  0  3  0  0  0  0  0  0
  195.8410  173.3390  139.5040 C   0  0  0  0  0  3  0  0  0  0  0  0
  195.6910  172.6620  138.2910 C   0  0  0  0  0  3  0  0  0  0  0  0
  195.1480  174.5340  139.7360 C   0  0  0  0  0  0  0  0  0  0  0  0
  194.8390  173.1720  137.3060 C   0  0  0  0  0  3  0  0  0  0  0  0
  194.1350  174.3560  137.5380 C   0  0  0  0  0  3  0  0  0  0  0  0
  1 26  1  0  0  0  0
  2  6  1  0  0  0  0
  2 24  1  0  0  0  0
  4 11  2  0  0  0  0
  5 19  2  0  0  0  0
  5  4  1  0  0  0  0
  6 29  1  0  0  0  0
  7 20  2  0  0  0  0
  7 24  1  0  0  0  0
  8  3  1  0  0  0  0
  9  6  2  0  0  0  0
 10  1  1  0  0  0  0
 10 20  1  0  0  0  0
 11 18  1  0  0  0  0
 11 22  1  0  0  0  0
 12 16  2  0  0  0  0
 13 14  1  0  0  0  0
 13 25  2  0  0  0  0
 14  9  1  0  0  0  0
 15 25  1  0  0  0  0
 15  7  1  0  0  0  0
 16 22  1  0  0  0  0
 17 23  1  0  0  0  0
 18 13  1  0  0  0  0
 19 12  1  0  0  0  0
 20  8  1  0  0  0  0
 21 23  1  0  0  0  0
 21 15  2  0  0  0  0
 22 14  2  0  0  0  0
 23 10  2  0  0  0  0
 25  2  1  0  0  0  0
 26  8  2  0  0  0  0
 27 28  1  0  0  0  0
 28  4  1  0  0  0  0
 29 30  1  0  0  0  0
 30 31  1  0  0  0  0
 32 36  1  0  0  0  0
 35 32  1  0  0  0  0
 35 34  2  0  0  0  0
 36 33  2  0  0  0  0
 36 31  1  0  0  0  0
 37 38  2  0  0  0  0
 38 35  1  0  0  0  0
 39 40  2  0  0  0  0
 40 38  1  0  0  0  0
 42 41  1  0  0  0  0
 42 40  1  0  0  0  0
 43 42  1  0  0  0  0
 43 41  1  0  0  0  0
 44 47  1  0  0  0  0
 45 47  2  0  0  0  0
 46 45  1  0  0  0  0
 47 42  1  0  0  0  0
 48 49  1  0  0  0  0
 48 46  2  0  0  0  0
 49 44  2  0  0  0  0
M  END
>  <MODEL>
3

>  <REMARK>
 VINA RESULT:      -7.3      3.518      6.827
  Name = 
  9 active torsions:
  status: ('A' for Active; 'I' for Inactive)
    1  A    between atoms: C_2  and  C_29
    2  A    between atoms: C_2  and  C_48
    3  A    between atoms: C_6  and  C_32
    4  A    between atoms: C_9  and  C_48
    5  A    between atoms: C_25  and  C_44
    6  A    between atoms: C_26  and  C_38
    7  A    between atoms: C_26  and  C_45
    8  A    between atoms: C_29  and  C_41
    9  A    between atoms: C_44  and  C_45
                            x       y       z     vdW  Elec       q    Type
                         _______ _______ _______ _____ _____    ______ ____

>  <TORSDO>
F 9

$$$$
=
 OpenBabel11042417133D

 49 56  0  0  0  0  0  0  0  0999 V2000
  197.6510  175.2390  138.6440 S   0  0  0  0  0  0  0  0  0  0  0  0
  191.8240  174.0070  140.6970 N   0  0  0  0  0  0  0  0  0  0  0  0
  194.5490  174.0500  136.6670 C   0  0  0  0  0  1  0  0  0  0  0  0
  192.7180  175.2670  146.2690 C   0  0  0  0  0  0  0  0  0  0  0  0
  191.9200  175.2940  147.5080 C   0  0  0  0  0  3  0  0  0  0  0  0
  190.4520  173.7130  141.0490 C   0  0  0  0  0  0  0  0  0  0  0  0
  194.1000  174.4750  139.7520 C   0  0  0  0  0  0  0  0  0  0  0  0
  195.5590  174.5010  137.6620 C   0  0  0  0  0  0  0  0  0  0  0  0
  190.0610  173.8430  142.3330 C   0  0  0  0  0  3  0  0  0  0  0  0
  196.4200  175.1010  139.7540 C   0  0  0  0  0  0  0  0  0  0  0  0
  192.2760  174.9260  145.0480 C   0  0  0  0  0  0  0  0  0  0  0  0
  189.6290  174.5320  146.7580 C   0  0  0  0  0  3  0  0  0  0  0  0
  192.3640  174.5650  142.9490 C   0  0  0  0  0  0  0  0  0  0  0  0
  191.0750  174.2880  143.3110 C   0  0  0  0  0  0  0  0  0  0  0  0
  194.0760  174.7050  141.1300 C   0  0  0  0  0  0  0  0  0  0  0  0
  189.7740  174.3260  145.4550 C   0  0  0  0  0  3  0  0  0  0  0  0
  197.8480  175.8790  141.9840 Cl  0  0  0  0  0  0  0  0  0  0  0  0
  193.0670  174.9420  143.9870 O   0  0  0  0  0  0  0  0  0  0  0  0
  190.6400  174.9910  147.7160 C   0  0  0  0  0  3  0  0  0  0  0  0
  195.2980  174.6740  139.0470 C   0  0  0  0  0  0  0  0  0  0  0  0
  195.2140  175.1350  141.8320 C   0  0  0  0  0  3  0  0  0  0  0  0
  190.9940  174.5130  144.6680 C   0  0  0  0  0  0  0  0  0  0  0  0
  196.4130  175.3400  141.1320 C   0  0  0  0  0  0  0  0  0  0  0  0
  192.5150  173.9330  139.0650 S   0  0  0  0  0  0  0  0  0  0  0  0
  192.7640  174.4410  141.6830 C   0  0  0  0  0  0  0  0  0  0  0  0
  196.8330  174.7750  137.2670 N   0  0  0  0  0  0  0  0  0  0  0  0
  194.2760  177.1880  146.2680 C   0  0  0  0  0  1  0  0  0  0  0  0
  194.1470  175.6840  146.4230 C   0  0  0  0  0  2  0  0  0  0  0  0
  189.4720  173.2600  140.0150 C   0  0  0  0  0  2  0  0  0  0  0  0
  188.6540  174.4310  139.4860 C   0  0  0  0  0  2  0  0  0  0  0  0
  187.7110  174.9760  140.5490 C   0  0  0  0  0  2  0  0  0  0  0  0
  186.4340  177.1480  141.0290 N   0  0  0  0  0  2  0  0  0  0  0  0
  187.3270  176.6790  138.9390 O   0  0  0  0  0  0  0  0  0  0  0  0
  186.3160  175.7150  142.8750 O   0  0  0  0  0  0  0  0  0  0  0  0
  186.0700  176.8490  142.3840 C   0  0  0  0  0  0  0  0  0  0  0  0
  187.1460  176.2940  140.1240 C   0  0  0  0  0  0  0  0  0  0  0  0
  184.2050  178.1800  142.9320 O   0  0  0  0  0  0  0  0  0  0  0  0
  185.3900  177.8590  143.2220 C   0  0  0  0  0  0  0  0  0  0  0  0
  185.7380  179.6810  144.7220 O   0  0  0  0  0  0  0  0  0  0  0  0
  186.0440  178.5060  144.3840 C   0  0  0  0  0  0  0  0  0  0  0  0
  186.9610  177.8090  146.6570 C   0  0  0  0  0  2  0  0  0  0  0  0
  187.1200  177.7930  145.1480 C   0  0  0  0  0  0  0  0  0  0  0  0
  186.6970  176.5310  145.8750 C   0  0  0  0  0  2  0  0  0  0  0  0
  189.5940  177.9250  145.5640 C   0  0  0  0  0  3  0  0  0  0  0  0
  188.7990  177.8500  143.2780 C   0  0  0  0  0  3  0  0  0  0  0  0
  190.1170  177.9260  142.8170 C   0  0  0  0  0  3  0  0  0  0  0  0
  188.5330  177.8370  144.6530 C   0  0  0  0  0  0  0  0  0  0  0  0
  191.1730  177.9990  143.7290 C   0  0  0  0  0  3  0  0  0  0  0  0
  190.9120  178.0010  145.1020 C   0  0  0  0  0  3  0  0  0  0  0  0
  1 10  1  0  0  0  0
  2  6  1  0  0  0  0
  2 25  1  0  0  0  0
  3  8  1  0  0  0  0
  4 28  1  0  0  0  0
  4  5  1  0  0  0  0
  5 19  2  0  0  0  0
  6  9  2  0  0  0  0
  7 15  1  0  0  0  0
  8 20  1  0  0  0  0
  9 14  1  0  0  0  0
 10 23  2  0  0  0  0
 11  4  2  0  0  0  0
 12 19  1  0  0  0  0
 13 14  1  0  0  0  0
 13 18  1  0  0  0  0
 14 22  2  0  0  0  0
 15 25  1  0  0  0  0
 15 21  2  0  0  0  0
 16 12  2  0  0  0  0
 18 11  1  0  0  0  0
 20  7  2  0  0  0  0
 20 10  1  0  0  0  0
 22 11  1  0  0  0  0
 22 16  1  0  0  0  0
 23 21  1  0  0  0  0
 23 17  1  0  0  0  0
 24  7  1  0  0  0  0
 24  2  1  0  0  0  0
 25 13  2  0  0  0  0
 26  8  2  0  0  0  0
 26  1  1  0  0  0  0
 27 28  1  0  0  0  0
 29  6  1  0  0  0  0
 30 29  1  0  0  0  0
 30 31  1  0  0  0  0
 32 35  1  0  0  0  0
 33 36  2  0  0  0  0
 35 34  2  0  0  0  0
 35 38  1  0  0  0  0
 36 31  1  0  0  0  0
 36 32  1  0  0  0  0
 37 38  2  0  0  0  0
 38 40  1  0  0  0  0
 40 39  2  0  0  0  0
 40 42  1  0  0  0  0
 42 43  1  0  0  0  0
 42 41  1  0  0  0  0
 43 41  1  0  0  0  0
 45 47  1  0  0  0  0
 46 45  2  0  0  0  0
 46 48  1  0  0  0  0
 47 42  1  0  0  0  0
 47 44  2  0  0  0  0
 48 49  2  0  0  0  0
 49 44  1  0  0  0  0
M  END
>  <MODEL>
4

>  <REMARK>
 VINA RESULT:      -7.3      3.506      6.643
  Name = 
  9 active torsions:
  status: ('A' for Active; 'I' for Inactive)
    1  A    between atoms: C_2  and  C_29
    2  A    between atoms: C_2  and  C_48
    3  A    between atoms: C_6  and  C_32
    4  A    between atoms: C_9  and  C_48
    5  A    between atoms: C_25  and  C_44
    6  A    between atoms: C_26  and  C_38
    7  A    between atoms: C_26  and  C_45
    8  A    between atoms: C_29  and  C_41
    9  A    between atoms: C_44  and  C_45
                            x       y       z     vdW  Elec       q    Type
                         _______ _______ _______ _____ _____    ______ ____

>  <TORSDO>
F 9

$$$$
=
 OpenBabel11042417133D

 49 56  0  0  0  0  0  0  0  0999 V2000
  197.9410  175.1980  139.1960 S   0  0  0  0  0  0  0  0  0  0  0  0
  192.4100  172.9130  141.1610 N   0  0  0  0  0  0  0  0  0  0  0  0
  195.5060  172.7840  137.4110 C   0  0  0  0  0  1  0  0  0  0  0  0
  192.2690  175.6040  146.2760 C   0  0  0  0  0  0  0  0  0  0  0  0
  191.3440  175.6930  147.4210 C   0  0  0  0  0  3  0  0  0  0  0  0
  191.1240  172.3410  141.4980 C   0  0  0  0  0  0  0  0  0  0  0  0
  194.5910  173.7600  140.2590 C   0  0  0  0  0  0  0  0  0  0  0  0
  196.2400  173.7100  138.3150 C   0  0  0  0  0  0  0  0  0  0  0  0
  190.5590  172.6480  142.6830 C   0  0  0  0  0  3  0  0  0  0  0  0
  196.6600  174.9840  140.2340 C   0  0  0  0  0  0  0  0  0  0  0  0
  192.0800  174.8860  145.1580 C   0  0  0  0  0  0  0  0  0  0  0  0
  189.4290  174.1800  146.7590 C   0  0  0  0  0  3  0  0  0  0  0  0
  192.5120  174.0950  143.2260 C   0  0  0  0  0  0  0  0  0  0  0  0
  191.3010  173.5640  143.5730 C   0  0  0  0  0  0  0  0  0  0  0  0
  194.3410  174.2830  141.5310 C   0  0  0  0  0  0  0  0  0  0  0  0
  189.7800  173.7300  145.5600 C   0  0  0  0  0  3  0  0  0  0  0  0
  197.5610  176.6110  142.2730 Cl  0  0  0  0  0  0  0  0  0  0  0  0
  192.9640  174.8770  144.1730 O   0  0  0  0  0  0  0  0  0  0  0  0
  190.1660  175.1050  147.6260 C   0  0  0  0  0  3  0  0  0  0  0  0
  195.7770  174.1150  139.5950 C   0  0  0  0  0  0  0  0  0  0  0  0
  195.2390  175.1570  142.1650 C   0  0  0  0  0  3  0  0  0  0  0  0
  191.0000  174.0610  144.8220 C   0  0  0  0  0  0  0  0  0  0  0  0
  196.4240  175.5190  141.5050 C   0  0  0  0  0  0  0  0  0  0  0  0
  193.2910  172.6620  139.6420 S   0  0  0  0  0  0  0  0  0  0  0  0
  193.0810  173.8010  142.0570 C   0  0  0  0  0  0  0  0  0  0  0  0
  197.4420  174.2260  137.9370 N   0  0  0  0  0  0  0  0  0  0  0  0
  194.7300  175.5190  146.5040 C   0  0  0  0  0  1  0  0  0  0  0  0
  193.5150  176.4220  146.4010 C   0  0  0  0  0  2  0  0  0  0  0  0
  190.4240  171.4130  140.5570 C   0  0  0  0  0  2  0  0  0  0  0  0
  189.8140  172.1760  139.3890 C   0  0  0  0  0  2  0  0  0  0  0  0
  188.4980  172.8330  139.7800 C   0  0  0  0  0  2  0  0  0  0  0  0
  187.8260  175.2920  139.4920 N   0  0  0  0  0  2  0  0  0  0  0  0
  188.4200  173.9560  137.6900 O   0  0  0  0  0  0  0  0  0  0  0  0
  187.5010  174.6190  141.7090 O   0  0  0  0  0  0  0  0  0  0  0  0
  187.5020  175.5540  140.8650 C   0  0  0  0  0  0  0  0  0  0  0  0
  188.2400  174.0380  138.9330 C   0  0  0  0  0  0  0  0  0  0  0  0
  186.0500  177.4070  140.9370 O   0  0  0  0  0  0  0  0  0  0  0  0
  187.1520  176.9190  141.3080 C   0  0  0  0  0  0  0  0  0  0  0  0
  188.9070  178.4960  141.6610 O   0  0  0  0  0  0  0  0  0  0  0  0
  188.0420  177.7340  142.1690 C   0  0  0  0  0  0  0  0  0  0  0  0
  188.7240  176.4620  144.2690 C   0  0  0  0  0  2  0  0  0  0  0  0
  187.9640  177.6270  143.6640 C   0  0  0  0  0  0  0  0  0  0  0  0
  189.2530  177.8800  144.4200 C   0  0  0  0  0  2  0  0  0  0  0  0
  186.2270  177.2160  145.4320 C   0  0  0  0  0  3  0  0  0  0  0  0
  185.9360  179.0910  143.9260 C   0  0  0  0  0  3  0  0  0  0  0  0
  184.7330  179.4140  144.5610 C   0  0  0  0  0  3  0  0  0  0  0  0
  186.6940  177.9970  144.3660 C   0  0  0  0  0  0  0  0  0  0  0  0
  184.2790  178.6400  145.6320 C   0  0  0  0  0  3  0  0  0  0  0  0
  185.0240  177.5410  146.0660 C   0  0  0  0  0  3  0  0  0  0  0  0
  1 10  1  0  0  0  0
  2  6  1  0  0  0  0
  2 25  1  0  0  0  0
  3  8  1  0  0  0  0
  4 28  1  0  0  0  0
  4  5  1  0  0  0  0
  5 19  2  0  0  0  0
  6  9  2  0  0  0  0
  7 15  1  0  0  0  0
  8 20  1  0  0  0  0
  9 14  1  0  0  0  0
 10 23  2  0  0  0  0
 11  4  2  0  0  0  0
 12 19  1  0  0  0  0
 13 14  1  0  0  0  0
 13 18  1  0  0  0  0
 14 22  2  0  0  0  0
 15 25  1  0  0  0  0
 15 21  2  0  0  0  0
 16 12  2  0  0  0  0
 18 11  1  0  0  0  0
 20 10  1  0  0  0  0
 20  7  2  0  0  0  0
 22 11  1  0  0  0  0
 22 16  1  0  0  0  0
 23 21  1  0  0  0  0
 23 17  1  0  0  0  0
 24  7  1  0  0  0  0
 24  2  1  0  0  0  0
 25 13  2  0  0  0  0
 26  8  2  0  0  0  0
 26  1  1  0  0  0  0
 28 27  1  0  0  0  0
 29  6  1  0  0  0  0
 30 31  1  0  0  0  0
 30 29  1  0  0  0  0
 32 35  1  0  0  0  0
 33 36  2  0  0  0  0
 35 38  1  0  0  0  0
 35 34  2  0  0  0  0
 36 32  1  0  0  0  0
 36 31  1  0  0  0  0
 37 38  2  0  0  0  0
 38 40  1  0  0  0  0
 39 40  2  0  0  0  0
 40 42  1  0  0  0  0
 41 43  1  0  0  0  0
 42 41  1  0  0  0  0
 42 47  1  0  0  0  0
 42 43  1  0  0  0  0
 44 49  1  0  0  0  0
 45 47  1  0  0  0  0
 45 46  2  0  0  0  0
 46 48  1  0  0  0  0
 47 44  2  0  0  0  0
 48 49  2  0  0  0  0
M  END
>  <MODEL>
5

>  <REMARK>
 VINA RESULT:      -7.3      3.355      6.475
  Name = 
  9 active torsions:
  status: ('A' for Active; 'I' for Inactive)
    1  A    between atoms: C_2  and  C_29
    2  A    between atoms: C_2  and  C_48
    3  A    between atoms: C_6  and  C_32
    4  A    between atoms: C_9  and  C_48
    5  A    between atoms: C_25  and  C_44
    6  A    between atoms: C_26  and  C_38
    7  A    between atoms: C_26  and  C_45
    8  A    between atoms: C_29  and  C_41
    9  A    between atoms: C_44  and  C_45
                            x       y       z     vdW  Elec       q    Type
                         _______ _______ _______ _____ _____    ______ ____

>  <TORSDO>
F 9

$$$$
=
 OpenBabel11042417133D

 49 56  0  0  0  0  0  0  0  0999 V2000
  190.5710  171.4210  138.9780 S   0  0  0  0  0  0  0  0  0  0  0  0
  189.8510  174.5720  144.3850 N   0  0  0  0  0  0  0  0  0  0  0  0
  192.5220  171.0820  142.2980 C   0  0  0  0  0  1  0  0  0  0  0  0
  185.4480  177.9250  142.7100 C   0  0  0  0  0  0  0  0  0  0  0  0
  184.5980  178.9670  143.3150 C   0  0  0  0  0  3  0  0  0  0  0  0
  189.7660  175.2160  145.6780 C   0  0  0  0  0  0  0  0  0  0  0  0
  190.2320  173.2410  142.2940 C   0  0  0  0  0  0  0  0  0  0  0  0
  191.6170  171.4210  141.1660 C   0  0  0  0  0  0  0  0  0  0  0  0
  188.8360  176.1710  145.8760 C   0  0  0  0  0  3  0  0  0  0  0  0
  189.9010  172.5280  140.0230 C   0  0  0  0  0  0  0  0  0  0  0  0
  186.4460  177.2650  143.3180 C   0  0  0  0  0  0  0  0  0  0  0  0
  185.5050  179.1870  145.6650 C   0  0  0  0  0  3  0  0  0  0  0  0
  188.0460  175.8720  143.5340 C   0  0  0  0  0  0  0  0  0  0  0  0
  187.9480  176.5010  144.7430 C   0  0  0  0  0  0  0  0  0  0  0  0
  189.1900  174.1550  142.1190 C   0  0  0  0  0  0  0  0  0  0  0  0
  186.4900  178.2980  145.7090 C   0  0  0  0  0  3  0  0  0  0  0  0
  187.9980  173.5510  138.3050 Cl  0  0  0  0  0  0  0  0  0  0  0  0
  187.1510  176.3320  142.6960 O   0  0  0  0  0  0  0  0  0  0  0  0
  184.6170  179.4930  144.5380 C   0  0  0  0  0  3  0  0  0  0  0  0
  190.5990  172.4100  141.2220 C   0  0  0  0  0  0  0  0  0  0  0  0
  188.4930  174.2650  140.9040 C   0  0  0  0  0  3  0  0  0  0  0  0
  186.9190  177.4100  144.6280 C   0  0  0  0  0  0  0  0  0  0  0  0
  188.8520  173.4350  139.8310 C   0  0  0  0  0  0  0  0  0  0  0  0
  190.9760  173.2730  143.9440 S   0  0  0  0  0  0  0  0  0  0  0  0
  188.9610  174.9250  143.3240 C   0  0  0  0  0  0  0  0  0  0  0  0
  191.7370  170.7710  139.9760 N   0  0  0  0  0  0  0  0  0  0  0  0
  183.7200  178.0480  140.9440 C   0  0  0  0  0  1  0  0  0  0  0  0
  185.1230  177.5840  141.2900 C   0  0  0  0  0  2  0  0  0  0  0  0
  190.6990  174.8430  146.7850 C   0  0  0  0  0  2  0  0  0  0  0  0
  191.6330  175.9980  147.1260 C   0  0  0  0  0  2  0  0  0  0  0  0
  192.2980  176.5630  145.8790 C   0  0  0  0  0  2  0  0  0  0  0  0
  194.3540  175.8930  144.5000 N   0  0  0  0  0  2  0  0  0  0  0  0
  194.3510  175.8330  146.8190 O   0  0  0  0  0  0  0  0  0  0  0  0
  192.5290  176.2960  143.0900 O   0  0  0  0  0  0  0  0  0  0  0  0
  193.7590  176.0430  143.2030 C   0  0  0  0  0  0  0  0  0  0  0  0
  193.7050  176.0710  145.7660 C   0  0  0  0  0  0  0  0  0  0  0  0
  194.5420  176.8130  141.1180 O   0  0  0  0  0  0  0  0  0  0  0  0
  194.5730  175.8910  141.9790 C   0  0  0  0  0  0  0  0  0  0  0  0
  195.0860  173.8460  140.8630 O   0  0  0  0  0  0  0  0  0  0  0  0
  195.4210  174.7020  141.7250 C   0  0  0  0  0  0  0  0  0  0  0  0
  197.9410  174.3300  141.7150 C   0  0  0  0  0  2  0  0  0  0  0  0
  196.6680  174.4700  142.5260 C   0  0  0  0  0  0  0  0  0  0  0  0
  197.6840  175.5950  142.5200 C   0  0  0  0  0  2  0  0  0  0  0  0
  195.8470  172.4540  143.7820 C   0  0  0  0  0  3  0  0  0  0  0  0
  197.2540  174.0520  144.9360 C   0  0  0  0  0  3  0  0  0  0  0  0
  197.1660  173.2890  146.1030 C   0  0  0  0  0  3  0  0  0  0  0  0
  196.6050  173.6340  143.7670 C   0  0  0  0  0  0  0  0  0  0  0  0
  196.4200  172.1060  146.1090 C   0  0  0  0  0  3  0  0  0  0  0  0
  195.7590  171.6910  144.9500 C   0  0  0  0  0  3  0  0  0  0  0  0
  1 26  1  0  0  0  0
  1 10  1  0  0  0  0
  2  6  1  0  0  0  0
  4  5  1  0  0  0  0
  4 11  2  0  0  0  0
  5 19  2  0  0  0  0
  6  9  2  0  0  0  0
  6 29  1  0  0  0  0
  7 24  1  0  0  0  0
  8 20  1  0  0  0  0
  8  3  1  0  0  0  0
 10 20  1  0  0  0  0
 11 22  1  0  0  0  0
 12 16  2  0  0  0  0
 13 14  1  0  0  0  0
 14  9  1  0  0  0  0
 15  7  1  0  0  0  0
 15 25  1  0  0  0  0
 17 23  1  0  0  0  0
 18 11  1  0  0  0  0
 18 13  1  0  0  0  0
 19 12  1  0  0  0  0
 20  7  2  0  0  0  0
 21 15  2  0  0  0  0
 22 14  2  0  0  0  0
 22 16  1  0  0  0  0
 23 10  2  0  0  0  0
 23 21  1  0  0  0  0
 24  2  1  0  0  0  0
 25 13  2  0  0  0  0
 25  2  1  0  0  0  0
 26  8  2  0  0  0  0
 27 28  1  0  0  0  0
 28  4  1  0  0  0  0
 29 30  1  0  0  0  0
 31 30  1  0  0  0  0
 32 36  1  0  0  0  0
 34 35  2  0  0  0  0
 35 32  1  0  0  0  0
 36 31  1  0  0  0  0
 36 33  2  0  0  0  0
 37 38  2  0  0  0  0
 38 35  1  0  0  0  0
 39 40  2  0  0  0  0
 40 38  1  0  0  0  0
 40 42  1  0  0  0  0
 41 43  1  0  0  0  0
 41 42  1  0  0  0  0
 42 47  1  0  0  0  0
 43 42  1  0  0  0  0
 44 49  1  0  0  0  0
 45 46  2  0  0  0  0
 46 48  1  0  0  0  0
 47 44  2  0  0  0  0
 47 45  1  0  0  0  0
 49 48  2  0  0  0  0
M  END
>  <MODEL>
6

>  <REMARK>
 VINA RESULT:      -7.2      2.098      4.625
  Name = 
  9 active torsions:
  status: ('A' for Active; 'I' for Inactive)
    1  A    between atoms: C_2  and  C_29
    2  A    between atoms: C_2  and  C_48
    3  A    between atoms: C_6  and  C_32
    4  A    between atoms: C_9  and  C_48
    5  A    between atoms: C_25  and  C_44
    6  A    between atoms: C_26  and  C_38
    7  A    between atoms: C_26  and  C_45
    8  A    between atoms: C_29  and  C_41
    9  A    between atoms: C_44  and  C_45
                            x       y       z     vdW  Elec       q    Type
                         _______ _______ _______ _____ _____    ______ ____

>  <TORSDO>
F 9

$$$$
=
 OpenBabel11042417133D

 49 56  0  0  0  0  0  0  0  0999 V2000
  189.6050  173.2170  137.1790 S   0  0  0  0  0  0  0  0  0  0  0  0
  189.6150  174.6110  143.3230 N   0  0  0  0  0  0  0  0  0  0  0  0
  191.9840  171.9980  139.9720 C   0  0  0  0  0  1  0  0  0  0  0  0
  185.0240  178.1270  143.2940 C   0  0  0  0  0  0  0  0  0  0  0  0
  184.2620  178.9100  144.2830 C   0  0  0  0  0  3  0  0  0  0  0  0
  189.7040  174.8430  144.7480 C   0  0  0  0  0  0  0  0  0  0  0  0
  189.7130  173.9680  140.9000 C   0  0  0  0  0  0  0  0  0  0  0  0
  190.9350  172.6170  139.1170 C   0  0  0  0  0  0  0  0  0  0  0  0
  188.8080  175.6600  145.3370 C   0  0  0  0  0  3  0  0  0  0  0  0
  189.0800  173.9400  138.5820 C   0  0  0  0  0  0  0  0  0  0  0  0
  186.0960  177.3590  143.5460 C   0  0  0  0  0  0  0  0  0  0  0  0
  185.4760  178.4680  146.4570 C   0  0  0  0  0  3  0  0  0  0  0  0
  187.7110  176.0290  143.1330 C   0  0  0  0  0  0  0  0  0  0  0  0
  187.7750  176.2720  144.4760 C   0  0  0  0  0  0  0  0  0  0  0  0
  188.6560  174.8500  141.1390 C   0  0  0  0  0  0  0  0  0  0  0  0
  186.4590  177.6460  146.1100 C   0  0  0  0  0  3  0  0  0  0  0  0
  186.9630  175.3440  137.5020 Cl  0  0  0  0  0  0  0  0  0  0  0  0
  186.7110  176.6790  142.5910 O   0  0  0  0  0  0  0  0  0  0  0  0
  184.4450  179.0550  145.5950 C   0  0  0  0  0  3  0  0  0  0  0  0
  189.9330  173.5040  139.5930 C   0  0  0  0  0  0  0  0  0  0  0  0
  187.8020  175.2840  140.1110 C   0  0  0  0  0  3  0  0  0  0  0  0
  186.7400  177.1320  144.7680 C   0  0  0  0  0  0  0  0  0  0  0  0
  188.0150  174.8200  138.8030 C   0  0  0  0  0  0  0  0  0  0  0  0
  190.6710  173.5460  142.3770 S   0  0  0  0  0  0  0  0  0  0  0  0
  188.5900  175.2230  142.5360 C   0  0  0  0  0  0  0  0  0  0  0  0
  190.8950  172.3510  137.7820 N   0  0  0  0  0  0  0  0  0  0  0  0
  182.9970  178.2880  141.8860 C   0  0  0  0  0  1  0  0  0  0  0  0
  184.5120  178.2040  141.8900 C   0  0  0  0  0  2  0  0  0  0  0  0
  190.7770  174.2000  145.5660 C   0  0  0  0  0  2  0  0  0  0  0  0
  191.4740  175.2220  146.4560 C   0  0  0  0  0  2  0  0  0  0  0  0
  192.9430  175.3700  146.0880 C   0  0  0  0  0  2  0  0  0  0  0  0
  194.2490  176.4030  144.1370 N   0  0  0  0  0  2  0  0  0  0  0  0
  192.2210  177.2690  144.8600 O   0  0  0  0  0  0  0  0  0  0  0  0
  195.5100  174.7120  145.1500 O   0  0  0  0  0  0  0  0  0  0  0  0
  195.3940  175.5420  144.2080 C   0  0  0  0  0  0  0  0  0  0  0  0
  193.1150  176.3970  145.0150 C   0  0  0  0  0  0  0  0  0  0  0  0
  197.6610  175.5260  143.5660 O   0  0  0  0  0  0  0  0  0  0  0  0
  196.4610  175.6210  143.1890 C   0  0  0  0  0  0  0  0  0  0  0  0
  196.1160  176.9620  141.2470 O   0  0  0  0  0  0  0  0  0  0  0  0
  196.1770  175.8070  141.7460 C   0  0  0  0  0  0  0  0  0  0  0  0
  196.7620  173.4040  141.1380 C   0  0  0  0  0  2  0  0  0  0  0  0
  195.9040  174.6250  140.8640 C   0  0  0  0  0  0  0  0  0  0  0  0
  195.2950  173.4130  141.5420 C   0  0  0  0  0  2  0  0  0  0  0  0
  196.5420  175.0260  138.4670 C   0  0  0  0  0  3  0  0  0  0  0  0
  194.1930  174.9170  139.0460 C   0  0  0  0  0  3  0  0  0  0  0  0
  193.8530  175.1540  137.7110 C   0  0  0  0  0  3  0  0  0  0  0  0
  195.5380  174.8410  139.4290 C   0  0  0  0  0  0  0  0  0  0  0  0
  194.8570  175.3240  136.7540 C   0  0  0  0  0  3  0  0  0  0  0  0
  196.2010  175.2630  137.1320 C   0  0  0  0  0  3  0  0  0  0  0  0
  1 26  1  0  0  0  0
  1 10  1  0  0  0  0
  2  6  1  0  0  0  0
  4 11  2  0  0  0  0
  4  5  1  0  0  0  0
  5 19  2  0  0  0  0
  6  9  2  0  0  0  0
  6 29  1  0  0  0  0
  7 15  1  0  0  0  0
  7 24  1  0  0  0  0
  8 20  1  0  0  0  0
  8  3  1  0  0  0  0
 10 23  2  0  0  0  0
 10 20  1  0  0  0  0
 11 22  1  0  0  0  0
 13 14  1  0  0  0  0
 14 22  2  0  0  0  0
 14  9  1  0  0  0  0
 15 25  1  0  0  0  0
 16 12  2  0  0  0  0
 17 23  1  0  0  0  0
 18 13  1  0  0  0  0
 18 11  1  0  0  0  0
 19 12  1  0  0  0  0
 20  7  2  0  0  0  0
 21 15  2  0  0  0  0
 22 16  1  0  0  0  0
 23 21  1  0  0  0  0
 24  2  1  0  0  0  0
 25 13  2  0  0  0  0
 25  2  1  0  0  0  0
 26  8  2  0  0  0  0
 27 28  1  0  0  0  0
 28  4  1  0  0  0  0
 29 30  1  0  0  0  0
 31 30  1  0  0  0  0
 32 35  1  0  0  0  0
 32 36  1  0  0  0  0
 33 36  2  0  0  0  0
 35 34  2  0  0  0  0
 36 31  1  0  0  0  0
 38 37  2  0  0  0  0
 38 35  1  0  0  0  0
 39 40  2  0  0  0  0
 40 38  1  0  0  0  0
 41 43  1  0  0  0  0
 42 41  1  0  0  0  0
 42 43  1  0  0  0  0
 42 40  1  0  0  0  0
 44 47  1  0  0  0  0
 45 47  2  0  0  0  0
 46 45  1  0  0  0  0
 47 42  1  0  0  0  0
 48 49  1  0  0  0  0
 48 46  2  0  0  0  0
 49 44  2  0  0  0  0
M  END
>  <MODEL>
7

>  <REMARK>
 VINA RESULT:      -7.1      2.750      4.369
  Name = 
  9 active torsions:
  status: ('A' for Active; 'I' for Inactive)
    1  A    between atoms: C_2  and  C_29
    2  A    between atoms: C_2  and  C_48
    3  A    between atoms: C_6  and  C_32
    4  A    between atoms: C_9  and  C_48
    5  A    between atoms: C_25  and  C_44
    6  A    between atoms: C_26  and  C_38
    7  A    between atoms: C_26  and  C_45
    8  A    between atoms: C_29  and  C_41
    9  A    between atoms: C_44  and  C_45
                            x       y       z     vdW  Elec       q    Type
                         _______ _______ _______ _____ _____    ______ ____

>  <TORSDO>
F 9

$$$$
=
 OpenBabel11042417133D

 49 56  0  0  0  0  0  0  0  0999 V2000
  184.9750  179.0760  145.6530 S   0  0  0  0  0  0  0  0  0  0  0  0
  188.4010  175.3040  141.9500 N   0  0  0  0  0  0  0  0  0  0  0  0
  184.3120  177.9390  142.0180 C   0  0  0  0  0  1  0  0  0  0  0  0
  192.6240  174.1810  145.7370 C   0  0  0  0  0  0  0  0  0  0  0  0
  193.8560  173.3730  145.7660 C   0  0  0  0  0  3  0  0  0  0  0  0
  189.0940  174.4400  141.0180 C   0  0  0  0  0  0  0  0  0  0  0  0
  186.9430  176.8110  143.3250 C   0  0  0  0  0  0  0  0  0  0  0  0
  184.8110  178.2080  143.3940 C   0  0  0  0  0  0  0  0  0  0  0  0
  190.2460  173.8540  141.3990 C   0  0  0  0  0  3  0  0  0  0  0  0
  186.2440  178.0850  145.2400 C   0  0  0  0  0  0  0  0  0  0  0  0
  191.7720  174.2910  144.7050 C   0  0  0  0  0  0  0  0  0  0  0  0
  193.9450  172.3360  143.4620 C   0  0  0  0  0  3  0  0  0  0  0  0
  190.0540  174.9480  143.6270 C   0  0  0  0  0  0  0  0  0  0  0  0
  190.7320  174.1330  142.7660 C   0  0  0  0  0  0  0  0  0  0  0  0
  188.0670  176.4080  144.0510 C   0  0  0  0  0  0  0  0  0  0  0  0
  192.8540  172.7980  142.8640 C   0  0  0  0  0  3  0  0  0  0  0  0
  187.6180  178.2330  147.6290 Cl  0  0  0  0  0  0  0  0  0  0  0  0
  190.6790  175.0350  144.7740 O   0  0  0  0  0  0  0  0  0  0  0  0
  194.4080  172.6070  144.8270 C   0  0  0  0  0  3  0  0  0  0  0  0
  186.0110  177.6700  143.9310 C   0  0  0  0  0  0  0  0  0  0  0  0
  188.2920  176.8330  145.3700 C   0  0  0  0  0  3  0  0  0  0  0  0
  191.8510  173.6950  143.4400 C   0  0  0  0  0  0  0  0  0  0  0  0
  187.3630  177.6890  145.9820 C   0  0  0  0  0  0  0  0  0  0  0  0
  186.8620  176.1320  141.6490 S   0  0  0  0  0  0  0  0  0  0  0  0
  188.9120  175.5350  143.2640 C   0  0  0  0  0  0  0  0  0  0  0  0
  184.1080  179.0200  144.2300 N   0  0  0  0  0  0  0  0  0  0  0  0
  192.9840  176.2810  146.9940 C   0  0  0  0  0  1  0  0  0  0  0  0
  192.3160  174.9190  147.0020 C   0  0  0  0  0  2  0  0  0  0  0  0
  188.5550  174.2020  139.6440 C   0  0  0  0  0  2  0  0  0  0  0  0
  189.3670  173.1390  138.9150 C   0  0  0  0  0  2  0  0  0  0  0  0
  190.1370  173.7340  137.7440 C   0  0  0  0  0  2  0  0  0  0  0  0
  192.3510  172.5380  137.2470 N   0  0  0  0  0  2  0  0  0  0  0  0
  190.3450  171.8670  136.2930 O   0  0  0  0  0  0  0  0  0  0  0  0
  192.7370  174.4510  138.5380 O   0  0  0  0  0  0  0  0  0  0  0  0
  193.2010  173.4060  138.0100 C   0  0  0  0  0  0  0  0  0  0  0  0
  190.9370  172.6780  137.0510 C   0  0  0  0  0  0  0  0  0  0  0  0
  195.3130  172.8110  137.1510 O   0  0  0  0  0  0  0  0  0  0  0  0
  194.6370  173.0970  138.1770 C   0  0  0  0  0  0  0  0  0  0  0  0
  195.2520  172.1080  140.2580 O   0  0  0  0  0  0  0  0  0  0  0  0
  195.3100  173.1110  139.4970 C   0  0  0  0  0  0  0  0  0  0  0  0
  197.5080  174.3910  139.6410 C   0  0  0  0  0  2  0  0  0  0  0  0
  196.0290  174.3380  139.9730 C   0  0  0  0  0  0  0  0  0  0  0  0
  196.5260  175.2810  138.8950 C   0  0  0  0  0  2  0  0  0  0  0  0
  194.4450  175.6800  141.3900 C   0  0  0  0  0  3  0  0  0  0  0  0
  196.5040  174.8780  142.3830 C   0  0  0  0  0  3  0  0  0  0  0  0
  196.1590  175.4890  143.5920 C   0  0  0  0  0  3  0  0  0  0  0  0
  195.6440  174.9610  141.2800 C   0  0  0  0  0  0  0  0  0  0  0  0
  194.9560  176.1930  143.7010 C   0  0  0  0  0  3  0  0  0  0  0  0
  194.1010  176.2900  142.6000 C   0  0  0  0  0  3  0  0  0  0  0  0
  2 25  1  0  0  0  0
  3  8  1  0  0  0  0
  4  5  1  0  0  0  0
  4 28  1  0  0  0  0
  6  9  2  0  0  0  0
  6  2  1  0  0  0  0
  7 20  2  0  0  0  0
  7 15  1  0  0  0  0
  8 20  1  0  0  0  0
  8 26  2  0  0  0  0
  9 14  1  0  0  0  0
 10  1  1  0  0  0  0
 10 23  2  0  0  0  0
 11 18  1  0  0  0  0
 11  4  2  0  0  0  0
 12 19  1  0  0  0  0
 13 18  1  0  0  0  0
 14 22  2  0  0  0  0
 14 13  1  0  0  0  0
 15 21  2  0  0  0  0
 16 22  1  0  0  0  0
 16 12  2  0  0  0  0
 19  5  2  0  0  0  0
 20 10  1  0  0  0  0
 21 23  1  0  0  0  0
 22 11  1  0  0  0  0
 23 17  1  0  0  0  0
 24  2  1  0  0  0  0
 24  7  1  0  0  0  0
 25 13  2  0  0  0  0
 25 15  1  0  0  0  0
 26  1  1  0  0  0  0
 27 28  1  0  0  0  0
 29  6  1  0  0  0  0
 30 29  1  0  0  0  0
 31 30  1  0  0  0  0
 32 35  1  0  0  0  0
 33 36  2  0  0  0  0
 35 38  1  0  0  0  0
 35 34  2  0  0  0  0
 36 32  1  0  0  0  0
 36 31  1  0  0  0  0
 37 38  2  0  0  0  0
 38 40  1  0  0  0  0
 40 42  1  0  0  0  0
 40 39  2  0  0  0  0
 41 42  1  0  0  0  0
 42 47  1  0  0  0  0
 43 41  1  0  0  0  0
 43 42  1  0  0  0  0
 44 49  1  0  0  0  0
 45 46  2  0  0  0  0
 46 48  1  0  0  0  0
 47 44  2  0  0  0  0
 47 45  1  0  0  0  0
 49 48  2  0  0  0  0
M  END
>  <MODEL>
8

>  <REMARK>
 VINA RESULT:      -6.9      3.969      7.425
  Name = 
  9 active torsions:
  status: ('A' for Active; 'I' for Inactive)
    1  A    between atoms: C_2  and  C_29
    2  A    between atoms: C_2  and  C_48
    3  A    between atoms: C_6  and  C_32
    4  A    between atoms: C_9  and  C_48
    5  A    between atoms: C_25  and  C_44
    6  A    between atoms: C_26  and  C_38
    7  A    between atoms: C_26  and  C_45
    8  A    between atoms: C_29  and  C_41
    9  A    between atoms: C_44  and  C_45
                            x       y       z     vdW  Elec       q    Type
                         _______ _______ _______ _____ _____    ______ ____

>  <TORSDO>
F 9

$$$$
=
 OpenBabel11042417133D

 49 56  0  0  0  0  0  0  0  0999 V2000
  189.6940  172.3860  136.2090 S   0  0  0  0  0  0  0  0  0  0  0  0
  191.3870  171.8170  142.2500 N   0  0  0  0  0  0  0  0  0  0  0  0
  192.1780  169.9150  137.8430 C   0  0  0  0  0  1  0  0  0  0  0  0
  188.0500  176.0420  144.3580 C   0  0  0  0  0  0  0  0  0  0  0  0
  187.7610  176.6270  145.6800 C   0  0  0  0  0  3  0  0  0  0  0  0
  191.8360  171.5820  143.6050 C   0  0  0  0  0  0  0  0  0  0  0  0
  190.7890  171.9340  139.8170 C   0  0  0  0  0  0  0  0  0  0  0  0
  191.1850  170.9670  137.4910 C   0  0  0  0  0  0  0  0  0  0  0  0
  191.3470  172.3480  144.6010 C   0  0  0  0  0  3  0  0  0  0  0  0
  189.6980  172.7420  137.8340 C   0  0  0  0  0  0  0  0  0  0  0  0
  188.8950  175.0300  144.1070 C   0  0  0  0  0  0  0  0  0  0  0  0
  189.2360  175.3060  147.2520 C   0  0  0  0  0  3  0  0  0  0  0  0
  189.9540  173.5860  142.9490 C   0  0  0  0  0  0  0  0  0  0  0  0
  190.3660  173.3910  144.2380 C   0  0  0  0  0  0  0  0  0  0  0  0
  190.0920  172.9000  140.5480 C   0  0  0  0  0  0  0  0  0  0  0  0
  189.8570  174.4450  146.4560 C   0  0  0  0  0  3  0  0  0  0  0  0
  187.8730  174.8120  137.7630 Cl  0  0  0  0  0  0  0  0  0  0  0  0
  189.0820  174.5610  142.8830 O   0  0  0  0  0  0  0  0  0  0  0  0
  188.2500  176.3260  146.8820 C   0  0  0  0  0  3  0  0  0  0  0  0
  190.5910  171.8540  138.4290 C   0  0  0  0  0  0  0  0  0  0  0  0
  189.1950  173.7910  139.9370 C   0  0  0  0  0  3  0  0  0  0  0  0
  189.6940  174.3160  145.0070 C   0  0  0  0  0  0  0  0  0  0  0  0
  188.9900  173.7130  138.5500 C   0  0  0  0  0  0  0  0  0  0  0  0
  191.8830  170.8950  140.8180 S   0  0  0  0  0  0  0  0  0  0  0  0
  190.4290  172.8360  141.9550 C   0  0  0  0  0  0  0  0  0  0  0  0
  190.7910  171.1320  136.1990 N   0  0  0  0  0  0  0  0  0  0  0  0
  188.0000  177.8940  142.7190 C   0  0  0  0  0  1  0  0  0  0  0  0
  187.2940  176.6460  143.2170 C   0  0  0  0  0  2  0  0  0  0  0  0
  192.8370  170.5150  143.9090 C   0  0  0  0  0  2  0  0  0  0  0  0
  193.8080  170.9670  144.9930 C   0  0  0  0  0  2  0  0  0  0  0  0
  195.2350  170.5480  144.6720 C   0  0  0  0  0  2  0  0  0  0  0  0
  196.5700  172.7160  144.3610 N   0  0  0  0  0  2  0  0  0  0  0  0
  196.6980  171.4560  146.3060 O   0  0  0  0  0  0  0  0  0  0  0  0
  195.4810  172.1430  142.3710 O   0  0  0  0  0  0  0  0  0  0  0  0
  196.1710  172.9820  143.0090 C   0  0  0  0  0  0  0  0  0  0  0  0
  196.2060  171.5780  145.1540 C   0  0  0  0  0  0  0  0  0  0  0  0
  197.4700  174.1830  141.4520 O   0  0  0  0  0  0  0  0  0  0  0  0
  196.5740  174.2370  142.3380 C   0  0  0  0  0  0  0  0  0  0  0  0
  196.6940  176.5520  142.8970 O   0  0  0  0  0  0  0  0  0  0  0  0
  195.9680  175.5490  142.6660 C   0  0  0  0  0  0  0  0  0  0  0  0
  193.8050  176.3730  141.6010 C   0  0  0  0  0  2  0  0  0  0  0  0
  194.4790  175.6940  142.7780 C   0  0  0  0  0  0  0  0  0  0  0  0
  193.6530  174.8740  141.8070 C   0  0  0  0  0  2  0  0  0  0  0  0
  194.4190  175.4110  145.2740 C   0  0  0  0  0  3  0  0  0  0  0  0
  192.6910  176.7330  144.2090 C   0  0  0  0  0  3  0  0  0  0  0  0
  192.0960  176.9590  145.4530 C   0  0  0  0  0  3  0  0  0  0  0  0
  193.8610  175.9680  144.1140 C   0  0  0  0  0  0  0  0  0  0  0  0
  192.6630  176.4130  146.6080 C   0  0  0  0  0  3  0  0  0  0  0  0
  193.8230  175.6380  146.5180 C   0  0  0  0  0  3  0  0  0  0  0  0
  1 10  1  0  0  0  0
  2  6  1  0  0  0  0
  4  5  1  0  0  0  0
  5 19  2  0  0  0  0
  6 29  1  0  0  0  0
  6  9  2  0  0  0  0
  7 15  1  0  0  0  0
  7 24  1  0  0  0  0
  8  3  1  0  0  0  0
  8 20  1  0  0  0  0
 10 20  1  0  0  0  0
 10 23  2  0  0  0  0
 11  4  2  0  0  0  0
 11 22  1  0  0  0  0
 13 14  1  0  0  0  0
 14  9  1  0  0  0  0
 14 22  2  0  0  0  0
 15 25  1  0  0  0  0
 16 12  2  0  0  0  0
 17 23  1  0  0  0  0
 18 13  1  0  0  0  0
 18 11  1  0  0  0  0
 19 12  1  0  0  0  0
 20  7  2  0  0  0  0
 21 15  2  0  0  0  0
 22 16  1  0  0  0  0
 23 21  1  0  0  0  0
 24  2  1  0  0  0  0
 25  2  1  0  0  0  0
 25 13  2  0  0  0  0
 26  1  1  0  0  0  0
 26  8  2  0  0  0  0
 27 28  1  0  0  0  0
 28  4  1  0  0  0  0
 29 30  1  0  0  0  0
 31 30  1  0  0  0  0
 31 36  1  0  0  0  0
 32 36  1  0  0  0  0
 34 35  2  0  0  0  0
 35 32  1  0  0  0  0
 36 33  2  0  0  0  0
 37 38  2  0  0  0  0
 38 40  1  0  0  0  0
 38 35  1  0  0  0  0
 40 42  1  0  0  0  0
 40 39  2  0  0  0  0
 41 43  1  0  0  0  0
 41 42  1  0  0  0  0
 42 47  1  0  0  0  0
 43 42  1  0  0  0  0
 44 49  1  0  0  0  0
 45 46  2  0  0  0  0
 46 48  1  0  0  0  0
 47 45  1  0  0  0  0
 47 44  2  0  0  0  0
 49 48  2  0  0  0  0
M  END
>  <MODEL>
9

>  <REMARK>
 VINA RESULT:      -6.9      1.220      2.135
  Name = 
  9 active torsions:
  status: ('A' for Active; 'I' for Inactive)
    1  A    between atoms: C_2  and  C_29
    2  A    between atoms: C_2  and  C_48
    3  A    between atoms: C_6  and  C_32
    4  A    between atoms: C_9  and  C_48
    5  A    between atoms: C_25  and  C_44
    6  A    between atoms: C_26  and  C_38
    7  A    between atoms: C_26  and  C_45
    8  A    between atoms: C_29  and  C_41
    9  A    between atoms: C_44  and  C_45
                            x       y       z     vdW  Elec       q    Type
                         _______ _______ _______ _____ _____    ______ ____

>  <TORSDO>
F 9

$$$$
