=
 OpenBabel11042418523D

 26 28  0  0  1  0  0  0  0  0999 V2000
  183.8460  178.0900  141.3290 C   0  0  0  0  0  0  0  0  0  0  0  0
  185.3770  177.8650  140.5890 S   0  0  0  0  0  0  0  0  0  0  0  0
  187.4130  177.7490  142.6000 C   0  0  0  0  0  0  0  0  0  0  0  0
  187.2270  177.8590  143.9700 C   0  0  0  0  0  0  0  0  0  0  0  0
  183.9500  178.1530  142.7310 C   0  0  0  0  0  3  0  0  0  0  0  0
  188.6690  177.6030  142.0240 C   0  0  0  0  0  3  0  0  0  0  0  0
  189.7730  177.5660  142.8960 C   0  0  0  0  0  3  0  0  0  0  0  0
  189.6050  177.6780  144.2970 C   0  0  0  0  0  0  0  0  0  0  0  0
  186.1550  177.8440  142.0650 C   0  0  0  0  0  0  0  0  0  0  0  0
  188.3110  177.8280  144.8460 C   0  0  0  0  0  3  0  0  0  0  0  0
  185.2870  178.0050  143.0850 C   0  0  0  0  0  0  0  0  0  0  0  0
  185.9140  178.0110  144.2800 N   0  0  0  0  0  0  0  0  0  0  0  0
  182.3340  177.4230  139.6350 O   0  0  0  0  0  0  0  0  0  0  0  0
  181.6620  179.1860  140.9310 O   0  0  0  0  0  1  0  0  0  0  0  0
  182.5860  178.2070  140.5870 C   0  0  0  0  0  0  0  0  0  0  0  0
  185.3250  178.2280  145.5940 C   0  0  0  0  0  2  0  0  0  0  0  0
  185.2400  176.9110  146.3470 C   0  0  0  0  0  2  0  0  0  0  0  0
  186.4380  178.3910  147.9520 C   0  0  0  0  0  1  0  0  0  0  0  0
  186.1080  176.9550  147.5900 C   0  0  0  0  0  2  0  0  0  0  0  0
  190.7400  177.6360  145.1130 O   0  0  0  0  0  0  0  0  0  0  0  0
  191.3490  176.4160  145.5490 C   0  0  2  0  0  3  0  0  0  0  0  0
  189.7300  175.2630  147.1290 C   0  0  0  0  0  1  0  0  0  0  0  0
  191.0190  176.0580  147.0030 C   0  0  0  0  0  2  0  0  0  0  0  0
  192.7320  176.3580  145.2630 O   0  0  0  0  0  0  0  0  0  0  0  0
  193.4370  176.0840  146.4460 C   0  0  0  0  0  2  0  0  0  0  0  0
  194.2420  177.1740  146.7700 O   0  0  0  0  0  1  0  0  0  0  0  0
  1  5  2  0  0  0  0
  2  1  1  0  0  0  0
  2  9  1  0  0  0  0
  3  4  1  0  0  0  0
  4 12  1  0  0  0  0
  4 10  2  0  0  0  0
  5 11  1  0  0  0  0
  6  3  2  0  0  0  0
  6  7  1  0  0  0  0
  7  8  2  0  0  0  0
  8 10  1  0  0  0  0
  8 20  1  0  0  0  0
  9  3  1  0  0  0  0
  9 11  2  0  0  0  0
 11 12  1  0  0  0  0
 12 16  1  0  0  0  0
 13 15  2  0  0  0  0
 15 14  1  0  0  0  0
 15  1  1  0  0  0  0
 16 17  1  0  0  0  0
 17 19  1  0  0  0  0
 19 18  1  0  0  0  0
 20 21  1  0  0  0  0
 21 23  1  1  0  0  0
 23 22  1  0  0  0  0
 24 21  1  0  0  0  0
 24 25  1  0  0  0  0
 25 26  1  0  0  0  0
M  END
>  <MODEL>
1

>  <REMARK>
 VINA RESULT:      -6.6      0.000      0.000
  Name = 
  9 active torsions:
  status: ('A' for Active; 'I' for Inactive)
    1  A    between atoms: C_1  and  O_11
    2  A    between atoms: C_3  and  C_20
    3  A    between atoms: C_9  and  C_23
    4  A    between atoms: C_9  and  N_24
    5  A    between atoms: O_11  and  C_21
    6  A    between atoms: C_12  and  C_23
    7  A    between atoms: C_16  and  O_26
    8  A    between atoms: C_21  and  C_25
    9  A    between atoms: C_21  and  O_26
                            x       y       z     vdW  Elec       q    Type
                         _______ _______ _______ _____ _____    ______ ____

>  <TORSDO>
F 9

$$$$
=
 OpenBabel11042418523D

 26 28  0  0  1  0  0  0  0  0999 V2000
  184.5320  178.0010  142.0170 C   0  0  0  0  0  0  0  0  0  0  0  0
  186.0070  178.2280  141.1710 S   0  0  0  0  0  0  0  0  0  0  0  0
  188.2120  177.6620  142.9090 C   0  0  0  0  0  0  0  0  0  0  0  0
  188.1360  177.2680  144.2370 C   0  0  0  0  0  0  0  0  0  0  0  0
  184.7510  177.5870  143.3440 C   0  0  0  0  0  3  0  0  0  0  0  0
  189.4210  177.8720  142.2580 C   0  0  0  0  0  3  0  0  0  0  0  0
  190.5950  177.6650  143.0060 C   0  0  0  0  0  3  0  0  0  0  0  0
  190.5400  177.2650  144.3620 C   0  0  0  0  0  0  0  0  0  0  0  0
  186.9090  177.7880  142.5050 C   0  0  0  0  0  0  0  0  0  0  0  0
  189.2900  177.0630  144.9910 C   0  0  0  0  0  3  0  0  0  0  0  0
  186.1210  177.4830  143.5570 C   0  0  0  0  0  0  0  0  0  0  0  0
  186.8460  177.1480  144.6440 N   0  0  0  0  0  0  0  0  0  0  0  0
  183.0150  178.0100  140.1990 O   0  0  0  0  0  0  0  0  0  0  0  0
  182.1540  178.6600  142.2190 O   0  0  0  0  0  1  0  0  0  0  0  0
  183.2060  178.2200  141.4270 C   0  0  0  0  0  0  0  0  0  0  0  0
  186.3560  176.8270  145.9770 C   0  0  0  0  0  2  0  0  0  0  0  0
  186.6520  177.9750  146.9280 C   0  0  0  0  0  2  0  0  0  0  0  0
  184.1900  178.3410  146.8290 C   0  0  0  0  0  1  0  0  0  0  0  0
  185.5500  179.0140  146.8620 C   0  0  0  0  0  2  0  0  0  0  0  0
  191.7400  177.0760  145.0540 O   0  0  0  0  0  0  0  0  0  0  0  0
  192.1550  175.8100  145.5770 C   0  0  2  0  0  3  0  0  0  0  0  0
  191.1510  175.4280  147.8770 C   0  0  0  0  0  1  0  0  0  0  0  0
  192.3890  175.8260  147.0930 C   0  0  0  0  0  2  0  0  0  0  0  0
  193.2280  175.2410  144.8550 O   0  0  0  0  0  0  0  0  0  0  0  0
  194.0760  176.2650  144.4040 C   0  0  0  0  0  2  0  0  0  0  0  0
  195.3050  176.1710  145.0510 O   0  0  0  0  0  1  0  0  0  0  0  0
  1  5  2  0  0  0  0
  2  1  1  0  0  0  0
  2  9  1  0  0  0  0
  3  4  1  0  0  0  0
  4 12  1  0  0  0  0
  4 10  2  0  0  0  0
  5 11  1  0  0  0  0
  6  3  2  0  0  0  0
  6  7  1  0  0  0  0
  7  8  2  0  0  0  0
  8 10  1  0  0  0  0
  8 20  1  0  0  0  0
  9  3  1  0  0  0  0
  9 11  2  0  0  0  0
 11 12  1  0  0  0  0
 12 16  1  0  0  0  0
 13 15  2  0  0  0  0
 15  1  1  0  0  0  0
 15 14  1  0  0  0  0
 16 17  1  0  0  0  0
 18 19  1  0  0  0  0
 19 17  1  0  0  0  0
 20 21  1  0  0  0  0
 21 23  1  1  0  0  0
 23 22  1  0  0  0  0
 24 21  1  0  0  0  0
 25 24  1  0  0  0  0
 25 26  1  0  0  0  0
M  END
>  <MODEL>
2

>  <REMARK>
 VINA RESULT:      -6.4      1.212      1.435
  Name = 
  9 active torsions:
  status: ('A' for Active; 'I' for Inactive)
    1  A    between atoms: C_1  and  O_11
    2  A    between atoms: C_3  and  C_20
    3  A    between atoms: C_9  and  C_23
    4  A    between atoms: C_9  and  N_24
    5  A    between atoms: O_11  and  C_21
    6  A    between atoms: C_12  and  C_23
    7  A    between atoms: C_16  and  O_26
    8  A    between atoms: C_21  and  C_25
    9  A    between atoms: C_21  and  O_26
                            x       y       z     vdW  Elec       q    Type
                         _______ _______ _______ _____ _____    ______ ____

>  <TORSDO>
F 9

$$$$
=
 OpenBabel11042418523D

 26 28  0  0  1  0  0  0  0  0999 V2000
  185.4650  177.9210  142.3780 C   0  0  0  0  0  0  0  0  0  0  0  0
  187.0810  178.0080  141.8070 S   0  0  0  0  0  0  0  0  0  0  0  0
  188.8890  177.3460  143.9260 C   0  0  0  0  0  0  0  0  0  0  0  0
  188.5470  177.0080  145.2280 C   0  0  0  0  0  0  0  0  0  0  0  0
  185.4110  177.5410  143.7320 C   0  0  0  0  0  3  0  0  0  0  0  0
  190.2080  177.4430  143.5000 C   0  0  0  0  0  3  0  0  0  0  0  0
  191.2100  177.1780  144.4520 C   0  0  0  0  0  3  0  0  0  0  0  0
  190.8830  176.8330  145.7850 C   0  0  0  0  0  0  0  0  0  0  0  0
  187.6930  177.5530  143.2910 C   0  0  0  0  0  0  0  0  0  0  0  0
  189.5290  176.7460  146.1820 C   0  0  0  0  0  3  0  0  0  0  0  0
  186.7090  177.3450  144.1900 C   0  0  0  0  0  0  0  0  0  0  0  0
  187.2010  176.9980  145.3980 N   0  0  0  0  0  0  0  0  0  0  0  0
  183.1330  178.1740  142.0560 O   0  0  0  0  0  1  0  0  0  0  0  0
  184.4390  178.5390  140.2110 O   0  0  0  0  0  0  0  0  0  0  0  0
  184.2870  178.2140  141.5530 C   0  0  0  0  0  0  0  0  0  0  0  0
  186.4570  176.7630  146.6280 C   0  0  0  0  0  2  0  0  0  0  0  0
  186.6290  177.9430  147.5700 C   0  0  0  0  0  2  0  0  0  0  0  0
  184.2690  178.4300  146.9370 C   0  0  0  0  0  1  0  0  0  0  0  0
  185.6280  179.0330  147.2390 C   0  0  0  0  0  2  0  0  0  0  0  0
  191.9220  176.5820  146.6860 O   0  0  0  0  0  0  0  0  0  0  0  0
  192.7500  175.4170  146.6250 C   0  0  2  0  0  3  0  0  0  0  0  0
  194.5510  177.1750  146.2910 C   0  0  0  0  0  1  0  0  0  0  0  0
  194.1770  175.7100  146.1450 C   0  0  0  0  0  2  0  0  0  0  0  0
  192.1420  174.3440  145.9360 O   0  0  0  0  0  0  0  0  0  0  0  0
  193.0270  173.8610  144.9590 C   0  0  0  0  0  2  0  0  0  0  0  0
  193.1410  172.4780  145.0780 O   0  0  0  0  0  1  0  0  0  0  0  0
  1  5  2  0  0  0  0
  2  1  1  0  0  0  0
  2  9  1  0  0  0  0
  3  4  1  0  0  0  0
  4 12  1  0  0  0  0
  4 10  2  0  0  0  0
  5 11  1  0  0  0  0
  6  3  2  0  0  0  0
  6  7  1  0  0  0  0
  7  8  2  0  0  0  0
  8 10  1  0  0  0  0
  8 20  1  0  0  0  0
  9  3  1  0  0  0  0
  9 11  2  0  0  0  0
 11 12  1  0  0  0  0
 12 16  1  0  0  0  0
 14 15  2  0  0  0  0
 15 13  1  0  0  0  0
 15  1  1  0  0  0  0
 16 17  1  0  0  0  0
 18 19  1  0  0  0  0
 19 17  1  0  0  0  0
 21 23  1  6  0  0  0
 21 20  1  0  0  0  0
 23 22  1  0  0  0  0
 24 21  1  0  0  0  0
 25 26  1  0  0  0  0
 25 24  1  0  0  0  0
M  END
>  <MODEL>
3

>  <REMARK>
 VINA RESULT:      -6.3      1.633      2.590
  Name = 
  9 active torsions:
  status: ('A' for Active; 'I' for Inactive)
    1  A    between atoms: C_1  and  O_11
    2  A    between atoms: C_3  and  C_20
    3  A    between atoms: C_9  and  C_23
    4  A    between atoms: C_9  and  N_24
    5  A    between atoms: O_11  and  C_21
    6  A    between atoms: C_12  and  C_23
    7  A    between atoms: C_16  and  O_26
    8  A    between atoms: C_21  and  C_25
    9  A    between atoms: C_21  and  O_26
                            x       y       z     vdW  Elec       q    Type
                         _______ _______ _______ _____ _____    ______ ____

>  <TORSDO>
F 9

$$$$
=
 OpenBabel11042418523D

 26 28  0  0  1  0  0  0  0  0999 V2000
  181.4480  178.5350  141.6700 C   0  0  0  0  0  0  0  0  0  0  0  0
  182.4960  177.9650  140.4360 S   0  0  0  0  0  0  0  0  0  0  0  0
  185.2040  178.0250  141.3660 C   0  0  0  0  0  0  0  0  0  0  0  0
  185.6390  178.4490  142.6130 C   0  0  0  0  0  0  0  0  0  0  0  0
  182.1570  178.8830  142.8350 C   0  0  0  0  0  3  0  0  0  0  0  0
  186.0770  177.6020  140.3720 C   0  0  0  0  0  3  0  0  0  0  0  0
  187.4500  177.6130  140.6800 C   0  0  0  0  0  3  0  0  0  0  0  0
  187.9150  178.0420  141.9460 C   0  0  0  0  0  0  0  0  0  0  0  0
  183.8410  178.1630  141.4040 C   0  0  0  0  0  0  0  0  0  0  0  0
  186.9960  178.4690  142.9310 C   0  0  0  0  0  3  0  0  0  0  0  0
  183.5100  178.6460  142.6190 C   0  0  0  0  0  0  0  0  0  0  0  0
  184.5970  178.8290  143.3980 N   0  0  0  0  0  0  0  0  0  0  0  0
  179.2420  177.6970  141.8640 O   0  0  0  0  0  1  0  0  0  0  0  0
  179.4340  179.8100  141.0020 O   0  0  0  0  0  0  0  0  0  0  0  0
  179.9930  178.6490  141.5220 C   0  0  0  0  0  0  0  0  0  0  0  0
  184.6480  179.3950  144.7380 C   0  0  0  0  0  2  0  0  0  0  0  0
  184.1670  178.3690  145.7510 C   0  0  0  0  0  2  0  0  0  0  0  0
  186.0610  176.7960  146.1340 C   0  0  0  0  0  1  0  0  0  0  0  0
  185.2960  177.9830  146.6880 C   0  0  0  0  0  2  0  0  0  0  0  0
  189.2920  178.0330  142.1920 O   0  0  0  0  0  0  0  0  0  0  0  0
  189.9110  177.1730  143.1540 C   0  0  2  0  0  3  0  0  0  0  0  0
  189.7220  177.4540  145.6700 C   0  0  0  0  0  1  0  0  0  0  0  0
  190.4140  177.9160  144.3990 C   0  0  0  0  0  2  0  0  0  0  0  0
  190.8850  176.3220  142.5850 O   0  0  0  0  0  0  0  0  0  0  0  0
  190.5310  174.9860  142.8300 C   0  0  0  0  0  2  0  0  0  0  0  0
  189.1650  174.9090  143.0970 O   0  0  0  0  0  1  0  0  0  0  0  0
  1  5  2  0  0  0  0
  2  9  1  0  0  0  0
  2  1  1  0  0  0  0
  3  9  1  0  0  0  0
  3  4  1  0  0  0  0
  4 10  2  0  0  0  0
  4 12  1  0  0  0  0
  6  7  1  0  0  0  0
  6  3  2  0  0  0  0
  7  8  2  0  0  0  0
  8 20  1  0  0  0  0
  8 10  1  0  0  0  0
  9 11  2  0  0  0  0
 11  5  1  0  0  0  0
 11 12  1  0  0  0  0
 12 16  1  0  0  0  0
 14 15  2  0  0  0  0
 15  1  1  0  0  0  0
 15 13  1  0  0  0  0
 16 17  1  0  0  0  0
 17 19  1  0  0  0  0
 18 19  1  0  0  0  0
 20 21  1  0  0  0  0
 21 23  1  1  0  0  0
 23 22  1  0  0  0  0
 24 25  1  0  0  0  0
 24 21  1  0  0  0  0
 25 26  1  0  0  0  0
M  END
>  <MODEL>
4

>  <REMARK>
 VINA RESULT:      -6.3      2.238      2.995
  Name = 
  9 active torsions:
  status: ('A' for Active; 'I' for Inactive)
    1  A    between atoms: C_1  and  O_11
    2  A    between atoms: C_3  and  C_20
    3  A    between atoms: C_9  and  C_23
    4  A    between atoms: C_9  and  N_24
    5  A    between atoms: O_11  and  C_21
    6  A    between atoms: C_12  and  C_23
    7  A    between atoms: C_16  and  O_26
    8  A    between atoms: C_21  and  C_25
    9  A    between atoms: C_21  and  O_26
                            x       y       z     vdW  Elec       q    Type
                         _______ _______ _______ _____ _____    ______ ____

>  <TORSDO>
F 9

$$$$
=
 OpenBabel11042418523D

 26 28  0  0  1  0  0  0  0  0999 V2000
  188.9950  177.7690  143.7050 C   0  0  0  0  0  0  0  0  0  0  0  0
  188.5640  177.7010  142.0450 S   0  0  0  0  0  0  0  0  0  0  0  0
  185.7300  178.0120  141.7730 C   0  0  0  0  0  0  0  0  0  0  0  0
  184.8160  178.1860  142.8010 C   0  0  0  0  0  0  0  0  0  0  0  0
  187.8710  177.9680  144.5270 C   0  0  0  0  0  3  0  0  0  0  0  0
  185.3490  177.9250  140.4390 C   0  0  0  0  0  3  0  0  0  0  0  0
  183.9740  178.0260  140.1590 C   0  0  0  0  0  3  0  0  0  0  0  0
  183.0250  178.2030  141.1930 C   0  0  0  0  0  0  0  0  0  0  0  0
  186.9480  177.9340  142.3940 C   0  0  0  0  0  0  0  0  0  0  0  0
  183.4500  178.2840  142.5390 C   0  0  0  0  0  3  0  0  0  0  0  0
  186.7410  178.0550  143.7220 C   0  0  0  0  0  0  0  0  0  0  0  0
  185.4330  178.2210  144.0100 N   0  0  0  0  0  0  0  0  0  0  0  0
  191.2660  178.4280  143.8210 O   0  0  0  0  0  0  0  0  0  0  0  0
  190.6890  176.6140  145.0930 O   0  0  0  0  0  1  0  0  0  0  0  0
  190.3690  177.6290  144.2010 C   0  0  0  0  0  0  0  0  0  0  0  0
  184.8170  178.3180  145.3260 C   0  0  0  0  0  2  0  0  0  0  0  0
  184.9890  177.0070  146.0750 C   0  0  0  0  0  2  0  0  0  0  0  0
  185.8910  178.7070  147.6580 C   0  0  0  0  0  1  0  0  0  0  0  0
  185.7890  177.2260  147.3450 C   0  0  0  0  0  2  0  0  0  0  0  0
  181.6720  178.2950  140.8520 O   0  0  0  0  0  0  0  0  0  0  0  0
  180.6520  178.6730  141.7820 C   0  0  2  0  0  3  0  0  0  0  0  0
  178.4330  178.0620  142.8550 C   0  0  0  0  0  1  0  0  0  0  0  0
  179.4270  177.7500  141.7490 C   0  0  0  0  0  2  0  0  0  0  0  0
  180.3160  180.0440  141.7050 O   0  0  0  0  0  0  0  0  0  0  0  0
  180.0660  180.3830  140.3660 C   0  0  0  0  0  2  0  0  0  0  0  0
  178.8310  181.0210  140.2710 O   0  0  0  0  0  1  0  0  0  0  0  0
  1 15  1  0  0  0  0
  1  5  2  0  0  0  0
  2  9  1  0  0  0  0
  2  1  1  0  0  0  0
  3  9  1  0  0  0  0
  3  4  1  0  0  0  0
  4 12  1  0  0  0  0
  6  3  2  0  0  0  0
  7  6  1  0  0  0  0
  7  8  2  0  0  0  0
  8 10  1  0  0  0  0
  9 11  2  0  0  0  0
 10  4  2  0  0  0  0
 11 12  1  0  0  0  0
 11  5  1  0  0  0  0
 12 16  1  0  0  0  0
 13 15  2  0  0  0  0
 15 14  1  0  0  0  0
 16 17  1  0  0  0  0
 17 19  1  0  0  0  0
 19 18  1  0  0  0  0
 20  8  1  0  0  0  0
 20 21  1  0  0  0  0
 21 23  1  6  0  0  0
 23 22  1  0  0  0  0
 24 21  1  0  0  0  0
 25 24  1  0  0  0  0
 26 25  1  0  0  0  0
M  END
>  <MODEL>
5

>  <REMARK>
 VINA RESULT:      -6.3      1.889      8.219
  Name = 
  9 active torsions:
  status: ('A' for Active; 'I' for Inactive)
    1  A    between atoms: C_1  and  O_11
    2  A    between atoms: C_3  and  C_20
    3  A    between atoms: C_9  and  C_23
    4  A    between atoms: C_9  and  N_24
    5  A    between atoms: O_11  and  C_21
    6  A    between atoms: C_12  and  C_23
    7  A    between atoms: C_16  and  O_26
    8  A    between atoms: C_21  and  C_25
    9  A    between atoms: C_21  and  O_26
                            x       y       z     vdW  Elec       q    Type
                         _______ _______ _______ _____ _____    ______ ____

>  <TORSDO>
F 9

$$$$
=
 OpenBabel11042418523D

 26 28  0  0  1  0  0  0  0  0999 V2000
  186.2080  177.8960  145.6520 C   0  0  0  0  0  0  0  0  0  0  0  0
  187.1060  177.5570  147.0750 S   0  0  0  0  0  0  0  0  0  0  0  0
  189.8370  177.0320  146.3900 C   0  0  0  0  0  0  0  0  0  0  0  0
  190.3830  177.0370  145.1150 C   0  0  0  0  0  0  0  0  0  0  0  0
  187.0180  177.8470  144.5020 C   0  0  0  0  0  3  0  0  0  0  0  0
  190.5790  176.7180  147.5220 C   0  0  0  0  0  3  0  0  0  0  0  0
  191.9360  176.4030  147.3300 C   0  0  0  0  0  3  0  0  0  0  0  0
  192.5140  176.4010  146.0380 C   0  0  0  0  0  0  0  0  0  0  0  0
  188.5180  177.3570  146.2080 C   0  0  0  0  0  0  0  0  0  0  0  0
  191.7260  176.7230  144.9100 C   0  0  0  0  0  3  0  0  0  0  0  0
  188.3180  177.5380  144.8860 C   0  0  0  0  0  0  0  0  0  0  0  0
  189.4530  177.3560  144.1790 N   0  0  0  0  0  0  0  0  0  0  0  0
  184.0660  177.9620  146.6580 O   0  0  0  0  0  1  0  0  0  0  0  0
  184.1810  178.7370  144.5060 O   0  0  0  0  0  0  0  0  0  0  0  0
  184.7720  178.1950  145.6410 C   0  0  0  0  0  0  0  0  0  0  0  0
  189.6180  177.3970  142.7330 C   0  0  0  0  0  2  0  0  0  0  0  0
  188.9400  176.1930  142.1010 C   0  0  0  0  0  2  0  0  0  0  0  0
  189.3420  173.9500  143.1080 C   0  0  0  0  0  1  0  0  0  0  0  0
  189.8620  174.9900  142.1330 C   0  0  0  0  0  2  0  0  0  0  0  0
  193.8680  176.0770  145.9100 O   0  0  0  0  0  0  0  0  0  0  0  0
  194.3550  175.0790  145.0070 C   0  0  2  0  0  3  0  0  0  0  0  0
  193.0580  172.9260  144.6510 C   0  0  0  0  0  1  0  0  0  0  0  0
  194.1000  173.6460  145.4900 C   0  0  0  0  0  2  0  0  0  0  0  0
  195.6930  175.3020  144.6100 O   0  0  0  0  0  0  0  0  0  0  0  0
  195.7050  176.0980  143.4540 C   0  0  0  0  0  2  0  0  0  0  0  0
  196.7790  176.9840  143.5110 O   0  0  0  0  0  1  0  0  0  0  0  0
  1  2  1  0  0  0  0
  3  6  1  0  0  0  0
  4  3  2  0  0  0  0
  5 11  1  0  0  0  0
  5  1  2  0  0  0  0
  7  6  2  0  0  0  0
  8  7  1  0  0  0  0
  9  3  1  0  0  0  0
  9  2  1  0  0  0  0
 10  4  1  0  0  0  0
 10  8  2  0  0  0  0
 11  9  2  0  0  0  0
 12 11  1  0  0  0  0
 12  4  1  0  0  0  0
 14 15  2  0  0  0  0
 15  1  1  0  0  0  0
 15 13  1  0  0  0  0
 16 12  1  0  0  0  0
 17 19  1  0  0  0  0
 17 16  1  0  0  0  0
 19 18  1  0  0  0  0
 20  8  1  0  0  0  0
 21 23  1  1  0  0  0
 21 20  1  0  0  0  0
 22 23  1  0  0  0  0
 24 21  1  0  0  0  0
 25 26  1  0  0  0  0
 25 24  1  0  0  0  0
M  END
>  <MODEL>
6

>  <REMARK>
 VINA RESULT:      -6.0      2.907      4.870
  Name = 
  9 active torsions:
  status: ('A' for Active; 'I' for Inactive)
    1  A    between atoms: C_1  and  O_11
    2  A    between atoms: C_3  and  C_20
    3  A    between atoms: C_9  and  C_23
    4  A    between atoms: C_9  and  N_24
    5  A    between atoms: O_11  and  C_21
    6  A    between atoms: C_12  and  C_23
    7  A    between atoms: C_16  and  O_26
    8  A    between atoms: C_21  and  C_25
    9  A    between atoms: C_21  and  O_26
                            x       y       z     vdW  Elec       q    Type
                         _______ _______ _______ _____ _____    ______ ____

>  <TORSDO>
F 9

$$$$
=
 OpenBabel11042418523D

 26 28  0  0  1  0  0  0  0  0999 V2000
  193.9500  175.9420  144.7230 C   0  0  0  0  0  0  0  0  0  0  0  0
  193.1470  176.7460  146.0090 S   0  0  0  0  0  0  0  0  0  0  0  0
  190.3160  176.6570  145.5830 C   0  0  0  0  0  0  0  0  0  0  0  0
  189.6610  176.0690  144.5120 C   0  0  0  0  0  0  0  0  0  0  0  0
  193.0390  175.4280  143.7820 C   0  0  0  0  0  3  0  0  0  0  0  0
  189.6430  177.3330  146.5930 C   0  0  0  0  0  3  0  0  0  0  0  0
  188.2410  177.4000  146.4940 C   0  0  0  0  0  3  0  0  0  0  0  0
  187.5530  176.8080  145.4090 C   0  0  0  0  0  0  0  0  0  0  0  0
  191.6460  176.4230  145.3530 C   0  0  0  0  0  0  0  0  0  0  0  0
  188.2730  176.1300  144.3980 C   0  0  0  0  0  3  0  0  0  0  0  0
  191.7480  175.7320  144.1990 C   0  0  0  0  0  0  0  0  0  0  0  0
  190.5380  175.4880  143.6540 N   0  0  0  0  0  0  0  0  0  0  0  0
  196.0730  176.6480  143.9480 O   0  0  0  0  0  0  0  0  0  0  0  0
  196.0650  174.7730  145.2620 O   0  0  0  0  0  1  0  0  0  0  0  0
  195.4080  175.8150  144.6200 C   0  0  0  0  0  0  0  0  0  0  0  0
  190.2490  174.8350  142.3850 C   0  0  0  0  0  2  0  0  0  0  0  0
  190.4780  173.3380  142.5100 C   0  0  0  0  0  2  0  0  0  0  0  0
  189.7080  172.2600  144.6190 C   0  0  0  0  0  1  0  0  0  0  0  0
  189.3080  172.6820  143.2180 C   0  0  0  0  0  2  0  0  0  0  0  0
  186.1590  176.9090  145.3640 O   0  0  0  0  0  0  0  0  0  0  0  0
  185.4680  177.9050  144.6030 C   0  0  2  0  0  3  0  0  0  0  0  0
  184.4370  178.2950  146.8900 C   0  0  0  0  0  1  0  0  0  0  0  0
  184.4240  178.6770  145.4200 C   0  0  0  0  0  2  0  0  0  0  0  0
  184.9600  177.4100  143.3810 O   0  0  0  0  0  0  0  0  0  0  0  0
  185.1590  178.3690  142.3760 C   0  0  0  0  0  2  0  0  0  0  0  0
  186.4980  178.7560  142.3610 O   0  0  0  0  0  1  0  0  0  0  0  0
  1  2  1  0  0  0  0
  3  6  1  0  0  0  0
  4  3  2  0  0  0  0
  5 11  1  0  0  0  0
  5  1  2  0  0  0  0
  7  6  2  0  0  0  0
  8  7  1  0  0  0  0
  9  3  1  0  0  0  0
  9  2  1  0  0  0  0
 10  4  1  0  0  0  0
 10  8  2  0  0  0  0
 11  9  2  0  0  0  0
 12 11  1  0  0  0  0
 12  4  1  0  0  0  0
 13 15  2  0  0  0  0
 15  1  1  0  0  0  0
 15 14  1  0  0  0  0
 16 17  1  0  0  0  0
 16 12  1  0  0  0  0
 17 19  1  0  0  0  0
 19 18  1  0  0  0  0
 20  8  1  0  0  0  0
 21 20  1  0  0  0  0
 21 23  1  1  0  0  0
 23 22  1  0  0  0  0
 24 21  1  0  0  0  0
 25 24  1  0  0  0  0
 26 25  1  0  0  0  0
M  END
>  <MODEL>
7

>  <REMARK>
 VINA RESULT:      -5.9      3.475      8.154
  Name = 
  9 active torsions:
  status: ('A' for Active; 'I' for Inactive)
    1  A    between atoms: C_1  and  O_11
    2  A    between atoms: C_3  and  C_20
    3  A    between atoms: C_9  and  C_23
    4  A    between atoms: C_9  and  N_24
    5  A    between atoms: O_11  and  C_21
    6  A    between atoms: C_12  and  C_23
    7  A    between atoms: C_16  and  O_26
    8  A    between atoms: C_21  and  C_25
    9  A    between atoms: C_21  and  O_26
                            x       y       z     vdW  Elec       q    Type
                         _______ _______ _______ _____ _____    ______ ____

>  <TORSDO>
F 9

$$$$
=
 OpenBabel11042418523D

 26 28  0  0  1  0  0  0  0  0999 V2000
  186.0720  178.1100  145.8200 C   0  0  0  0  0  0  0  0  0  0  0  0
  187.3200  177.5410  146.8500 S   0  0  0  0  0  0  0  0  0  0  0  0
  189.7260  177.1750  145.3400 C   0  0  0  0  0  0  0  0  0  0  0  0
  189.8920  177.4070  143.9830 C   0  0  0  0  0  0  0  0  0  0  0  0
  186.5230  178.2700  144.4960 C   0  0  0  0  0  3  0  0  0  0  0  0
  190.7450  176.6800  146.1450 C   0  0  0  0  0  3  0  0  0  0  0  0
  191.9800  176.4180  145.5250 C   0  0  0  0  0  3  0  0  0  0  0  0
  192.1700  176.6470  144.1410 C   0  0  0  0  0  0  0  0  0  0  0  0
  188.4230  177.5110  145.5980 C   0  0  0  0  0  0  0  0  0  0  0  0
  191.1090  177.1490  143.3540 C   0  0  0  0  0  3  0  0  0  0  0  0
  187.8660  177.9160  144.4370 C   0  0  0  0  0  0  0  0  0  0  0  0
  188.7480  177.8720  143.4170 N   0  0  0  0  0  0  0  0  0  0  0  0
  184.4000  178.2910  147.4860 O   0  0  0  0  0  1  0  0  0  0  0  0
  183.7310  178.7640  145.3480 O   0  0  0  0  0  0  0  0  0  0  0  0
  184.7030  178.3890  146.2670 C   0  0  0  0  0  0  0  0  0  0  0  0
  188.5000  178.1650  142.0130 C   0  0  0  0  0  2  0  0  0  0  0  0
  187.7970  176.9890  141.3550 C   0  0  0  0  0  2  0  0  0  0  0  0
  185.5640  178.0090  140.9320 C   0  0  0  0  0  1  0  0  0  0  0  0
  186.8330  177.4760  140.2920 C   0  0  0  0  0  2  0  0  0  0  0  0
  193.4200  176.3660  143.5820 O   0  0  0  0  0  0  0  0  0  0  0  0
  194.2900  175.3430  144.0750 C   0  0  2  0  0  3  0  0  0  0  0  0
  196.3680  176.5610  143.2720 C   0  0  0  0  0  1  0  0  0  0  0  0
  195.6900  175.8570  144.4350 C   0  0  0  0  0  2  0  0  0  0  0  0
  194.3150  174.1960  143.2500 O   0  0  0  0  0  0  0  0  0  0  0  0
  194.2640  173.0470  144.0550 C   0  0  0  0  0  2  0  0  0  0  0  0
  193.1690  173.1270  144.9120 O   0  0  0  0  0  1  0  0  0  0  0  0
  1 15  1  0  0  0  0
  1  2  1  0  0  0  0
  3  9  1  0  0  0  0
  3  6  1  0  0  0  0
  4  3  2  0  0  0  0
  5  1  2  0  0  0  0
  7  6  2  0  0  0  0
  8  7  1  0  0  0  0
  9  2  1  0  0  0  0
 10  4  1  0  0  0  0
 10  8  2  0  0  0  0
 11  5  1  0  0  0  0
 11  9  2  0  0  0  0
 12  4  1  0  0  0  0
 12 11  1  0  0  0  0
 14 15  2  0  0  0  0
 15 13  1  0  0  0  0
 16 12  1  0  0  0  0
 17 16  1  0  0  0  0
 19 18  1  0  0  0  0
 19 17  1  0  0  0  0
 20 21  1  0  0  0  0
 20  8  1  0  0  0  0
 21 23  1  6  0  0  0
 22 23  1  0  0  0  0
 24 25  1  0  0  0  0
 24 21  1  0  0  0  0
 25 26  1  0  0  0  0
M  END
>  <MODEL>
8

>  <REMARK>
 VINA RESULT:      -5.8      2.885      4.934
  Name = 
  9 active torsions:
  status: ('A' for Active; 'I' for Inactive)
    1  A    between atoms: C_1  and  O_11
    2  A    between atoms: C_3  and  C_20
    3  A    between atoms: C_9  and  C_23
    4  A    between atoms: C_9  and  N_24
    5  A    between atoms: O_11  and  C_21
    6  A    between atoms: C_12  and  C_23
    7  A    between atoms: C_16  and  O_26
    8  A    between atoms: C_21  and  C_25
    9  A    between atoms: C_21  and  O_26
                            x       y       z     vdW  Elec       q    Type
                         _______ _______ _______ _____ _____    ______ ____

>  <TORSDO>
F 9

$$$$
=
 OpenBabel11042418523D

 26 28  0  0  1  0  0  0  0  0999 V2000
  183.5310  178.2360  141.8150 C   0  0  0  0  0  0  0  0  0  0  0  0
  184.9780  178.3430  140.9000 S   0  0  0  0  0  0  0  0  0  0  0  0
  187.2350  177.9360  142.6150 C   0  0  0  0  0  0  0  0  0  0  0  0
  187.2020  177.6940  143.9800 C   0  0  0  0  0  0  0  0  0  0  0  0
  183.7910  177.9680  143.1720 C   0  0  0  0  0  3  0  0  0  0  0  0
  188.4240  178.0530  141.9040 C   0  0  0  0  0  3  0  0  0  0  0  0
  189.6200  177.9110  142.6310 C   0  0  0  0  0  3  0  0  0  0  0  0
  189.6080  177.6640  144.0240 C   0  0  0  0  0  0  0  0  0  0  0  0
  185.9210  178.0390  142.2440 C   0  0  0  0  0  0  0  0  0  0  0  0
  188.3790  177.5540  144.7130 C   0  0  0  0  0  3  0  0  0  0  0  0
  185.1670  177.8650  143.3490 C   0  0  0  0  0  0  0  0  0  0  0  0
  185.9260  177.6410  144.4420 N   0  0  0  0  0  0  0  0  0  0  0  0
  181.3040  179.0350  141.8920 O   0  0  0  0  0  1  0  0  0  0  0  0
  181.8840  177.8850  139.9990 O   0  0  0  0  0  0  0  0  0  0  0  0
  182.1880  178.4100  141.2490 C   0  0  0  0  0  0  0  0  0  0  0  0
  185.4790  177.4780  145.8180 C   0  0  0  0  0  2  0  0  0  0  0  0
  184.9500  178.7990  146.3500 C   0  0  0  0  0  2  0  0  0  0  0  0
  186.7430  178.3280  148.0140 C   0  0  0  0  0  1  0  0  0  0  0  0
  185.9420  179.4130  147.3200 C   0  0  0  0  0  2  0  0  0  0  0  0
  190.8300  177.5330  144.6920 O   0  0  0  0  0  0  0  0  0  0  0  0
  191.4990  176.2800  144.8670 C   0  0  2  0  0  3  0  0  0  0  0  0
  193.1560  176.1620  142.9460 C   0  0  0  0  0  1  0  0  0  0  0  0
  192.9740  176.3170  144.4470 C   0  0  0  0  0  2  0  0  0  0  0  0
  190.7890  175.1940  144.3080 O   0  0  0  0  0  0  0  0  0  0  0  0
  190.6810  174.1720  145.2640 C   0  0  0  0  0  2  0  0  0  0  0  0
  191.6490  173.2010  145.0200 O   0  0  0  0  0  1  0  0  0  0  0  0
  1  5  2  0  0  0  0
  2  1  1  0  0  0  0
  2  9  1  0  0  0  0
  3  4  1  0  0  0  0
  4 12  1  0  0  0  0
  4 10  2  0  0  0  0
  5 11  1  0  0  0  0
  6  3  2  0  0  0  0
  6  7  1  0  0  0  0
  7  8  2  0  0  0  0
  8 20  1  0  0  0  0
  8 10  1  0  0  0  0
  9  3  1  0  0  0  0
  9 11  2  0  0  0  0
 11 12  1  0  0  0  0
 12 16  1  0  0  0  0
 14 15  2  0  0  0  0
 15  1  1  0  0  0  0
 15 13  1  0  0  0  0
 16 17  1  0  0  0  0
 17 19  1  0  0  0  0
 19 18  1  0  0  0  0
 20 21  1  0  0  0  0
 21 23  1  6  0  0  0
 22 23  1  0  0  0  0
 24 21  1  0  0  0  0
 24 25  1  0  0  0  0
 26 25  1  0  0  0  0
M  END
>  <MODEL>
9

>  <REMARK>
 VINA RESULT:      -5.7      1.322      2.059
  Name = 
  9 active torsions:
  status: ('A' for Active; 'I' for Inactive)
    1  A    between atoms: C_1  and  O_11
    2  A    between atoms: C_3  and  C_20
    3  A    between atoms: C_9  and  C_23
    4  A    between atoms: C_9  and  N_24
    5  A    between atoms: O_11  and  C_21
    6  A    between atoms: C_12  and  C_23
    7  A    between atoms: C_16  and  O_26
    8  A    between atoms: C_21  and  C_25
    9  A    between atoms: C_21  and  O_26
                            x       y       z     vdW  Elec       q    Type
                         _______ _______ _______ _____ _____    ______ ____

>  <TORSDO>
F 9

$$$$
