=
 OpenBabel11042414313D

 64 71  0  0  1  0  0  0  0  0999 V2000
  190.2920  174.5160  145.3010 C   0  0  0  0  0  3  0  0  0  0  0  0
  191.4480  174.5090  144.6540 C   0  0  0  0  0  0  0  0  0  0  0  0
  190.3330  175.0110  146.7010 C   0  0  1  0  0  3  0  0  0  0  0  0
  192.6310  174.9820  145.4240 C   0  0  1  0  0  3  0  0  0  0  0  0
  192.0060  175.6880  146.9830 S   0  0  0  0  0  0  0  0  0  0  0  0
  191.9850  174.8590  142.1670 C   0  0  0  0  0  0  0  0  0  0  0  0
  191.4460  172.8290  141.2180 C   0  0  2  0  0  3  0  0  0  0  0  0
  191.2090  172.8390  142.6990 C   0  0  0  0  0  0  0  0  0  0  0  0
  192.3770  176.0540  142.2420 O   0  0  0  0  0  0  0  0  0  0  0  0
  190.8000  171.8470  143.3640 O   0  0  0  0  0  0  0  0  0  0  0  0
  191.9150  174.1540  140.9730 O   0  0  0  0  0  0  0  0  0  0  0  0
  191.5510  174.0940  143.2810 N   0  0  0  0  0  0  0  0  0  0  0  0
  190.1490  172.5900  140.4590 C   0  0  0  0  0  2  0  0  0  0  0  0
  190.3440  171.5050  139.4120 C   0  0  1  0  0  3  0  0  0  0  0  0
  190.0670  172.0320  138.0850 N   0  0  0  0  0  2  0  0  0  0  0  0
  189.2650  174.0770  138.8780 O   0  0  0  0  0  0  0  0  0  0  0  0
  189.5050  173.3320  137.8880 C   0  0  0  0  0  0  0  0  0  0  0  0
  190.8570  176.6260  135.1300 O   0  0  0  0  0  1  0  0  0  0  0  0
  188.6720  175.8850  135.6210 C   0  0  0  0  0  0  0  0  0  0  0  0
  189.9540  175.5720  134.9560 C   0  0  2  0  0  3  0  0  0  0  0  0
  189.1940  173.7990  136.4960 C   0  0  2  0  0  3  0  0  0  0  0  0
  188.0090  176.9310  135.4000 O   0  0  0  0  0  0  0  0  0  0  0  0
  191.5270  174.5410  136.4900 O   0  0  0  0  0  1  0  0  0  0  0  0
  190.4150  174.2910  135.6760 C   0  0  2  0  0  3  0  0  0  0  0  0
  188.2370  174.8900  136.5230 N   0  0  0  0  0  2  0  0  0  0  0  0
  191.7540  170.8990  139.4710 C   0  0  0  0  0  2  0  0  0  0  0  0
  193.6180  170.1050  138.1960 O   0  0  0  0  0  1  0  0  0  0  0  0
  192.4040  170.7830  138.0950 C   0  0  0  0  0  2  0  0  0  0  0  0
  193.5480  173.8000  145.7130 C   0  0  0  0  0  2  0  0  0  0  0  0
  194.9020  173.9990  145.1180 C   0  0  0  0  0  0  0  0  0  0  0  0
  195.0640  174.1320  143.7370 C   0  0  0  0  0  3  0  0  0  0  0  0
  197.4370  174.3740  144.0650 C   0  0  0  0  0  3  0  0  0  0  0  0
  197.2580  174.2350  145.4070 N   0  0  0  0  0  0  0  0  0  0  0  0
  196.3400  174.3250  143.1890 C   0  0  0  0  0  0  0  0  0  0  0  0
  196.0230  174.0510  145.9440 C   0  0  0  0  0  3  0  0  0  0  0  0
  196.2190  172.1580  137.8190 O   0  0  0  0  0  1  0  0  0  0  0  0
  195.8190  173.6460  140.8280 C   0  0  0  0  0  3  0  0  0  0  0  0
  196.6600  174.4750  137.5950 C   0  0  0  0  0  2  0  0  0  0  0  0
  196.0630  173.8690  139.4880 C   0  0  0  0  0  0  0  0  0  0  0  0
  197.4160  175.5080  141.2310 C   0  0  0  0  0  3  0  0  0  0  0  0
  197.6460  175.7180  139.8480 C   0  0  0  0  0  3  0  0  0  0  0  0
  194.4430  173.6460  137.7330 O   0  0  0  0  0  1  0  0  0  0  0  0
  196.9480  174.8700  139.0110 C   0  0  0  0  0  0  0  0  0  0  0  0
  196.5270  174.4940  141.7280 C   0  0  0  0  0  0  0  0  0  0  0  0
  195.7740  173.4510  138.0960 C   0  0  0  0  0  0  0  0  0  0  0  0
  189.2840  176.1050  146.8740 C   0  0  0  0  0  2  0  0  0  0  0  0
  187.9370  175.5270  147.2860 C   0  0  0  0  0  2  0  0  0  0  0  0
  187.1580  177.8580  147.2640 C   0  0  0  0  0  3  0  0  0  0  0  0
  186.8570  176.5590  147.2470 C   0  0  0  0  0  3  0  0  0  0  0  0
  186.0820  178.8950  147.2870 C   0  0  0  0  0  2  0  0  0  0  0  0
  185.2070  178.8140  146.0470 C   0  0  0  0  0  2  0  0  0  0  0  0
  186.0390  179.1210  144.8080 C   0  0  0  0  0  2  0  0  0  0  0  0
  185.9040  178.0310  143.7360 C   0  0  1  0  0  3  0  0  0  0  0  0
  183.3100  178.0250  140.9480 C   0  0  0  0  0  2  0  0  0  0  0  0
  184.6270  178.0350  140.1910 C   0  0  0  0  0  2  0  0  0  0  0  0
  183.6460  178.0490  142.4290 C   0  0  2  0  0  3  0  0  0  0  0  0
  185.6510  178.6280  141.1360 C   0  0  0  0  0  2  0  0  0  0  0  0
  184.0110  179.3640  142.8090 O   0  0  0  0  0  0  0  0  0  0  0  0
  185.0580  178.4720  142.5210 C   0  0  2  0  0  0  0  0  0  0  0  0
  187.3280  175.9390  143.4160 C   0  0  0  0  0  1  0  0  0  0  0  0
  187.2780  177.4610  143.3300 C   0  0  2  0  0  3  0  0  0  0  0  0
  188.3020  178.0150  144.1050 O   0  0  0  0  0  0  0  0  0  0  0  0
  189.4820  177.6310  143.4570 C   0  0  0  0  0  2  0  0  0  0  0  0
  190.5800  178.0280  144.2180 O   0  0  0  0  0  1  0  0  0  0  0  0
  1  3  1  0  0  0  0
  2  1  2  0  0  0  0
  2  4  1  0  0  0  0
  3 46  1  6  0  0  0
  3  5  1  0  0  0  0
  4 29  1  1  0  0  0
  4  5  1  0  0  0  0
  6  9  2  0  0  0  0
  6 12  1  0  0  0  0
  7 13  1  6  0  0  0
  7  8  1  0  0  0  0
  8 12  1  0  0  0  0
  8 10  2  0  0  0  0
 11  7  1  0  0  0  0
 11  6  1  0  0  0  0
 12  2  1  0  0  0  0
 14 26  1  6  0  0  0
 14 13  1  0  0  0  0
 15 14  1  0  0  0  0
 17 15  1  0  0  0  0
 17 16  2  0  0  0  0
 19 25  1  0  0  0  0
 20 18  1  1  0  0  0
 20 19  1  0  0  0  0
 20 24  1  0  0  0  0
 21 25  1  0  0  0  0
 21 17  1  1  0  0  0
 22 19  2  0  0  0  0
 24 23  1  1  0  0  0
 24 21  1  0  0  0  0
 28 27  1  0  0  0  0
 28 26  1  0  0  0  0
 30 29  1  0  0  0  0
 30 35  1  0  0  0  0
 31 30  2  0  0  0  0
 32 33  1  0  0  0  0
 33 35  2  0  0  0  0
 34 31  1  0  0  0  0
 34 32  2  0  0  0  0
 36 45  1  0  0  0  0
 37 44  1  0  0  0  0
 38 45  1  0  0  0  0
 38 43  1  0  0  0  0
 39 37  2  0  0  0  0
 40 44  2  0  0  0  0
 41 40  1  0  0  0  0
 42 45  1  0  0  0  0
 43 39  1  0  0  0  0
 43 41  2  0  0  0  0
 44 34  1  0  0  0  0
 45 39  1  0  0  0  0
 46 47  1  0  0  0  0
 48 50  1  0  0  0  0
 49 48  2  0  0  0  0
 49 47  1  0  0  0  0
 51 50  1  0  0  0  0
 52 51  1  0  0  0  0
 53 52  1  1  0  0  0
 55 54  1  0  0  0  0
 55 57  1  0  0  0  0
 56 54  1  6  0  0  0
 56 59  1  0  0  0  0
 56 58  1  0  0  0  0
 57 59  1  0  0  0  0
 59 58  1  0  0  0  0
 59 53  1  1  0  0  0
 61 60  1  1  0  0  0
 61 53  1  0  0  0  0
 61 62  1  0  0  0  0
 63 62  1  0  0  0  0
 63 64  1  0  0  0  0
M  END
>  <MODEL>
1

>  <REMARK>
 VINA RESULT:      -6.8      0.000      0.000
  Name = 
  21 active torsions:
  status: ('A' for Active; 'I' for Inactive)
    1  A    between atoms: C_1  and  O_17
    2  A    between atoms: C_7  and  C_15
    3  A    between atoms: C_7  and  C_39
    4  A    between atoms: C_9  and  C_12
    5  A    between atoms: C_9  and  C_28
    6  A    between atoms: O_17  and  C_29
    7  A    between atoms: C_19  and  N_61
    8  A    between atoms: C_25  and  C_44
    9  A    between atoms: N_27  and  C_28
   10  A    between atoms: C_28  and  C_54
   11  A    between atoms: C_29  and  C_63
   12  A    between atoms: C_31  and  C_48
   13  A    between atoms: C_32  and  C_62
   14  A    between atoms: C_35  and  C_48
   15  A    between atoms: C_35  and  C_60
   16  A    between atoms: C_40  and  C_52
   17  A    between atoms: C_41  and  C_56
   18  A    between atoms: C_44  and  C_52
   19  A    between atoms: C_53  and  C_63
   20  A    between atoms: C_54  and  C_57
   21  A    between atoms: C_60  and  C_63
                            x       y       z     vdW  Elec       q    Type
                         _______ _______ _______ _____ _____    ______ ____

>  <TORSDO>
F 21

$$$$
=
 OpenBabel11042414313D

 64 71  0  0  1  0  0  0  0  0999 V2000
  192.9370  175.5610  142.0310 C   0  0  0  0  0  3  0  0  0  0  0  0
  192.2760  175.2580  143.1370 C   0  0  0  0  0  0  0  0  0  0  0  0
  194.2690  176.1910  142.2200 C   0  0  1  0  0  3  0  0  0  0  0  0
  192.9510  175.6040  144.4180 C   0  0  1  0  0  3  0  0  0  0  0  0
  194.6510  176.1130  144.0050 S   0  0  0  0  0  0  0  0  0  0  0  0
  190.6780  173.2770  143.4850 C   0  0  0  0  0  0  0  0  0  0  0  0
  188.6490  174.1000  142.7660 C   0  0  2  0  0  3  0  0  0  0  0  0
  189.7430  175.1210  142.6530 C   0  0  0  0  0  0  0  0  0  0  0  0
  191.5180  172.4560  143.9420 O   0  0  0  0  0  0  0  0  0  0  0  0
  189.5760  176.3060  142.2510 O   0  0  0  0  0  0  0  0  0  0  0  0
  189.3410  172.9640  143.2800 O   0  0  0  0  0  0  0  0  0  0  0  0
  190.9930  174.6080  143.1060 N   0  0  0  0  0  0  0  0  0  0  0  0
  188.0620  173.7760  141.4010 C   0  0  0  0  0  2  0  0  0  0  0  0
  189.1110  173.9720  140.3180 C   0  0  1  0  0  3  0  0  0  0  0  0
  189.7850  172.7140  140.0390 N   0  0  0  0  0  2  0  0  0  0  0  0
  191.7880  173.7300  139.4030 O   0  0  0  0  0  0  0  0  0  0  0  0
  191.1310  172.6640  139.5620 C   0  0  0  0  0  0  0  0  0  0  0  0
  190.8340  169.5760  136.2970 O   0  0  0  0  0  1  0  0  0  0  0  0
  190.8500  169.2850  138.6380 C   0  0  0  0  0  0  0  0  0  0  0  0
  191.6350  169.6540  137.4410 C   0  0  2  0  0  3  0  0  0  0  0  0
  191.7540  171.3370  139.2430 C   0  0  2  0  0  3  0  0  0  0  0  0
  190.2150  168.2050  138.7500 O   0  0  0  0  0  0  0  0  0  0  0  0
  191.4070  172.0130  136.9160 O   0  0  0  0  0  1  0  0  0  0  0  0
  192.0720  171.0990  137.7440 C   0  0  2  0  0  3  0  0  0  0  0  0
  190.8910  170.2500  139.6680 N   0  0  0  0  0  2  0  0  0  0  0  0
  188.5070  174.5600  139.0350 C   0  0  0  0  0  2  0  0  0  0  0  0
  188.2030  174.1390  136.6980 O   0  0  0  0  0  1  0  0  0  0  0  0
  188.3170  173.5150  137.9390 C   0  0  0  0  0  2  0  0  0  0  0  0
  192.2060  176.7540  145.0850 C   0  0  0  0  0  2  0  0  0  0  0  0
  191.0040  176.2710  145.8260 C   0  0  0  0  0  0  0  0  0  0  0  0
  189.7630  176.8900  145.6590 C   0  0  0  0  0  3  0  0  0  0  0  0
  188.8040  175.3280  147.2200 C   0  0  0  0  0  3  0  0  0  0  0  0
  190.0220  174.7440  147.3730 N   0  0  0  0  0  0  0  0  0  0  0  0
  188.6390  176.4240  146.3560 C   0  0  0  0  0  0  0  0  0  0  0  0
  191.1140  175.1890  146.6980 C   0  0  0  0  0  3  0  0  0  0  0  0
  185.3130  180.5650  144.0480 O   0  0  0  0  0  1  0  0  0  0  0  0
  187.0600  177.8340  145.0070 C   0  0  0  0  0  3  0  0  0  0  0  0
  183.8450  179.0560  145.1330 C   0  0  0  0  0  2  0  0  0  0  0  0
  185.8000  178.3900  144.9250 C   0  0  0  0  0  0  0  0  0  0  0  0
  186.2870  176.8730  147.1650 C   0  0  0  0  0  3  0  0  0  0  0  0
  184.9980  177.4530  147.0550 C   0  0  0  0  0  3  0  0  0  0  0  0
  184.5540  178.7010  142.8990 O   0  0  0  0  0  1  0  0  0  0  0  0
  184.8010  178.2090  145.9160 C   0  0  0  0  0  0  0  0  0  0  0  0
  187.3100  177.0540  146.1720 C   0  0  0  0  0  0  0  0  0  0  0  0
  184.8760  179.2430  144.1400 C   0  0  0  0  0  0  0  0  0  0  0  0
  195.3080  175.4090  141.4220 C   0  0  0  0  0  2  0  0  0  0  0  0
  194.8370  173.9920  141.1290 C   0  0  0  0  0  2  0  0  0  0  0  0
  196.6830  172.4260  141.5590 C   0  0  0  0  0  3  0  0  0  0  0  0
  195.5460  172.9860  141.9770 C   0  0  0  0  0  3  0  0  0  0  0  0
  197.3650  171.3750  142.3730 C   0  0  0  0  0  2  0  0  0  0  0  0
  196.6040  170.0600  142.3280 C   0  0  0  0  0  2  0  0  0  0  0  0
  196.9060  169.2460  143.5800 C   0  0  0  0  0  2  0  0  0  0  0  0
  195.7370  169.2590  144.5740 C   0  0  1  0  0  3  0  0  0  0  0  0
  195.1840  172.8960  145.5550 C   0  0  0  0  0  2  0  0  0  0  0  0
  196.6790  172.7130  145.7480 C   0  0  0  0  0  2  0  0  0  0  0  0
  194.6250  171.5610  145.0970 C   0  0  2  0  0  3  0  0  0  0  0  0
  196.8960  171.2310  145.9700 C   0  0  0  0  0  2  0  0  0  0  0  0
  194.5130  170.6900  146.2090 O   0  0  0  0  0  0  0  0  0  0  0  0
  195.6610  170.5560  145.4100 C   0  0  2  0  0  0  0  0  0  0  0  0
  193.4420  168.1700  144.8070 C   0  0  0  0  0  1  0  0  0  0  0  0
  194.4020  168.9150  143.8840 C   0  0  2  0  0  3  0  0  0  0  0  0
  194.6130  168.1720  142.7180 O   0  0  0  0  0  0  0  0  0  0  0  0
  193.4430  168.3470  141.9710 C   0  0  0  0  0  2  0  0  0  0  0  0
  193.1700  169.7090  141.8480 O   0  0  0  0  0  1  0  0  0  0  0  0
  1  3  1  0  0  0  0
  1  2  2  0  0  0  0
  2  4  1  0  0  0  0
  3 46  1  6  0  0  0
  3  5  1  0  0  0  0
  4 29  1  6  0  0  0
  5  4  1  0  0  0  0
  6  9  2  0  0  0  0
  7 13  1  6  0  0  0
  7 11  1  0  0  0  0
  8  7  1  0  0  0  0
  8 12  1  0  0  0  0
 10  8  2  0  0  0  0
 11  6  1  0  0  0  0
 12  2  1  0  0  0  0
 12  6  1  0  0  0  0
 14 26  1  6  0  0  0
 14 13  1  0  0  0  0
 15 14  1  0  0  0  0
 16 17  2  0  0  0  0
 17 15  1  0  0  0  0
 19 22  2  0  0  0  0
 19 25  1  0  0  0  0
 20 18  1  6  0  0  0
 20 24  1  0  0  0  0
 20 19  1  0  0  0  0
 21 17  1  6  0  0  0
 21 25  1  0  0  0  0
 24 23  1  6  0  0  0
 24 21  1  0  0  0  0
 27 28  1  0  0  0  0
 28 26  1  0  0  0  0
 29 30  1  0  0  0  0
 30 35  1  0  0  0  0
 31 30  2  0  0  0  0
 31 34  1  0  0  0  0
 32 33  1  0  0  0  0
 34 32  2  0  0  0  0
 35 33  2  0  0  0  0
 36 45  1  0  0  0  0
 37 44  1  0  0  0  0
 38 43  1  0  0  0  0
 39 37  2  0  0  0  0
 39 43  1  0  0  0  0
 41 40  1  0  0  0  0
 42 45  1  0  0  0  0
 43 41  2  0  0  0  0
 44 34  1  0  0  0  0
 44 40  2  0  0  0  0
 45 39  1  0  0  0  0
 45 38  1  0  0  0  0
 47 46  1  0  0  0  0
 47 49  1  0  0  0  0
 48 49  2  0  0  0  0
 48 50  1  0  0  0  0
 51 50  1  0  0  0  0
 51 52  1  0  0  0  0
 53 52  1  6  0  0  0
 54 55  1  0  0  0  0
 55 57  1  0  0  0  0
 56 59  1  0  0  0  0
 56 54  1  1  0  0  0
 56 58  1  0  0  0  0
 59 53  1  6  0  0  0
 59 57  1  0  0  0  0
 59 58  1  0  0  0  0
 61 53  1  0  0  0  0
 61 60  1  1  0  0  0
 62 61  1  0  0  0  0
 63 62  1  0  0  0  0
 64 63  1  0  0  0  0
M  END
>  <MODEL>
2

>  <REMARK>
 VINA RESULT:      -6.6      2.584      9.381
  Name = 
  21 active torsions:
  status: ('A' for Active; 'I' for Inactive)
    1  A    between atoms: C_1  and  O_17
    2  A    between atoms: C_7  and  C_15
    3  A    between atoms: C_7  and  C_39
    4  A    between atoms: C_9  and  C_12
    5  A    between atoms: C_9  and  C_28
    6  A    between atoms: O_17  and  C_29
    7  A    between atoms: C_19  and  N_61
    8  A    between atoms: C_25  and  C_44
    9  A    between atoms: N_27  and  C_28
   10  A    between atoms: C_28  and  C_54
   11  A    between atoms: C_29  and  C_63
   12  A    between atoms: C_31  and  C_48
   13  A    between atoms: C_32  and  C_62
   14  A    between atoms: C_35  and  C_48
   15  A    between atoms: C_35  and  C_60
   16  A    between atoms: C_40  and  C_52
   17  A    between atoms: C_41  and  C_56
   18  A    between atoms: C_44  and  C_52
   19  A    between atoms: C_53  and  C_63
   20  A    between atoms: C_54  and  C_57
   21  A    between atoms: C_60  and  C_63
                            x       y       z     vdW  Elec       q    Type
                         _______ _______ _______ _____ _____    ______ ____

>  <TORSDO>
F 21

$$$$
=
 OpenBabel11042414313D

 64 71  0  0  1  0  0  0  0  0999 V2000
  189.3010  175.4460  145.6940 C   0  0  0  0  0  3  0  0  0  0  0  0
  190.5490  175.4950  145.2540 C   0  0  0  0  0  0  0  0  0  0  0  0
  189.0310  176.1620  146.9660 C   0  0  1  0  0  3  0  0  0  0  0  0
  191.5130  176.2470  146.1030 C   0  0  1  0  0  3  0  0  0  0  0  0
  190.5410  177.1030  147.3840 S   0  0  0  0  0  0  0  0  0  0  0  0
  191.0000  173.4980  143.7020 C   0  0  0  0  0  0  0  0  0  0  0  0
  191.7540  174.4920  141.7640 C   0  0  2  0  0  3  0  0  0  0  0  0
  191.4190  175.5020  142.8220 C   0  0  0  0  0  0  0  0  0  0  0  0
  190.6690  172.5810  144.5010 O   0  0  0  0  0  0  0  0  0  0  0  0
  191.4990  176.7520  142.6680 O   0  0  0  0  0  0  0  0  0  0  0  0
  191.4770  173.2570  142.4210 O   0  0  0  0  0  0  0  0  0  0  0  0
  190.9470  174.8810  144.0150 N   0  0  0  0  0  0  0  0  0  0  0  0
  193.2270  174.5620  141.3900 C   0  0  0  0  0  2  0  0  0  0  0  0
  193.4310  174.0730  139.9650 C   0  0  1  0  0  3  0  0  0  0  0  0
  192.1450  173.8790  139.3120 N   0  0  0  0  0  2  0  0  0  0  0  0
  192.5040  171.6090  138.9010 O   0  0  0  0  0  0  0  0  0  0  0  0
  191.7480  172.6120  138.7820 C   0  0  0  0  0  0  0  0  0  0  0  0
  190.3000  172.3060  134.5280 O   0  0  0  0  0  1  0  0  0  0  0  0
  189.4910  173.6440  136.2940 C   0  0  0  0  0  0  0  0  0  0  0  0
  189.6220  172.2760  135.7520 C   0  0  2  0  0  3  0  0  0  0  0  0
  190.4300  172.4880  138.0750 C   0  0  2  0  0  3  0  0  0  0  0  0
  188.9820  174.6020  135.6560 O   0  0  0  0  0  0  0  0  0  0  0  0
  191.7270  171.2570  136.4020 O   0  0  0  0  0  1  0  0  0  0  0  0
  190.4290  171.5470  136.8420 C   0  0  2  0  0  3  0  0  0  0  0  0
  189.9710  173.7850  137.6150 N   0  0  0  0  0  2  0  0  0  0  0  0
  194.3120  175.0320  139.1510 C   0  0  0  0  0  2  0  0  0  0  0  0
  196.3390  175.1890  137.8890 O   0  0  0  0  0  1  0  0  0  0  0  0
  195.7190  174.4870  138.9210 C   0  0  0  0  0  2  0  0  0  0  0  0
  192.4850  175.2670  146.7490 C   0  0  0  0  0  2  0  0  0  0  0  0
  193.7030  175.0700  145.9100 C   0  0  0  0  0  0  0  0  0  0  0  0
  194.2680  173.8030  145.7540 C   0  0  0  0  0  3  0  0  0  0  0  0
  195.9590  174.7600  144.3320 C   0  0  0  0  0  3  0  0  0  0  0  0
  195.3970  175.9870  144.5020 N   0  0  0  0  0  0  0  0  0  0  0  0
  195.4090  173.6290  144.9570 C   0  0  0  0  0  0  0  0  0  0  0  0
  194.2900  176.1620  145.2710 C   0  0  0  0  0  3  0  0  0  0  0  0
  195.6290  168.5880  142.1140 O   0  0  0  0  0  1  0  0  0  0  0  0
  195.9300  171.6650  143.4820 C   0  0  0  0  0  3  0  0  0  0  0  0
  197.4480  168.5800  143.6300 C   0  0  0  0  0  2  0  0  0  0  0  0
  196.5020  170.4120  143.3960 C   0  0  0  0  0  0  0  0  0  0  0  0
  196.6560  171.6230  145.8590 C   0  0  0  0  0  3  0  0  0  0  0  0
  197.2410  170.3360  145.7420 C   0  0  0  0  0  3  0  0  0  0  0  0
  197.6420  169.5420  141.4730 O   0  0  0  0  0  1  0  0  0  0  0  0
  197.1360  169.7670  144.4890 C   0  0  0  0  0  0  0  0  0  0  0  0
  196.0060  172.2860  144.7610 C   0  0  0  0  0  0  0  0  0  0  0  0
  196.7880  169.2420  142.5320 C   0  0  0  0  0  0  0  0  0  0  0  0
  187.8550  177.1130  146.7640 C   0  0  0  0  0  2  0  0  0  0  0  0
  186.5670  176.5360  147.3340 C   0  0  0  0  0  2  0  0  0  0  0  0
  185.4890  178.2320  145.9160 C   0  0  0  0  0  3  0  0  0  0  0  0
  185.3600  177.2170  146.7730 C   0  0  0  0  0  3  0  0  0  0  0  0
  184.2900  178.9570  145.3990 C   0  0  0  0  0  2  0  0  0  0  0  0
  184.2550  178.9570  143.8800 C   0  0  0  0  0  2  0  0  0  0  0  0
  185.6760  178.9170  143.3310 C   0  0  0  0  0  2  0  0  0  0  0  0
  185.9460  177.6440  142.5190 C   0  0  1  0  0  3  0  0  0  0  0  0
  184.9880  177.2120  138.8590 C   0  0  0  0  0  2  0  0  0  0  0  0
  186.4830  176.9420  138.8560 C   0  0  0  0  0  2  0  0  0  0  0  0
  184.5970  177.5450  140.2880 C   0  0  2  0  0  3  0  0  0  0  0  0
  187.0410  177.6500  140.0730 C   0  0  0  0  0  2  0  0  0  0  0  0
  184.9770  178.8780  140.5820 O   0  0  0  0  0  0  0  0  0  0  0  0
  185.8560  177.8620  140.9930 C   0  0  2  0  0  0  0  0  0  0  0  0
  188.3710  177.9760  143.2390 C   0  0  0  0  0  1  0  0  0  0  0  0
  187.2640  176.9670  142.9470 C   0  0  2  0  0  3  0  0  0  0  0  0
  187.6980  176.0520  141.9830 O   0  0  0  0  0  0  0  0  0  0  0  0
  187.5280  174.7990  142.5840 C   0  0  0  0  0  2  0  0  0  0  0  0
  188.1200  173.8190  141.7880 O   0  0  0  0  0  1  0  0  0  0  0  0
  1  3  1  0  0  0  0
  2  1  2  0  0  0  0
  2  4  1  0  0  0  0
  3 46  1  6  0  0  0
  3  5  1  0  0  0  0
  4 29  1  1  0  0  0
  4  5  1  0  0  0  0
  6 12  1  0  0  0  0
  6  9  2  0  0  0  0
  7 13  1  1  0  0  0
  7 11  1  0  0  0  0
  7  8  1  0  0  0  0
  8 12  1  0  0  0  0
 10  8  2  0  0  0  0
 11  6  1  0  0  0  0
 12  2  1  0  0  0  0
 14 26  1  6  0  0  0
 14 13  1  0  0  0  0
 15 14  1  0  0  0  0
 17 16  2  0  0  0  0
 17 15  1  0  0  0  0
 19 25  1  0  0  0  0
 20 18  1  6  0  0  0
 20 19  1  0  0  0  0
 20 24  1  0  0  0  0
 21 17  1  6  0  0  0
 22 19  2  0  0  0  0
 24 23  1  6  0  0  0
 24 21  1  0  0  0  0
 25 21  1  0  0  0  0
 27 28  1  0  0  0  0
 28 26  1  0  0  0  0
 30 29  1  0  0  0  0
 31 30  1  0  0  0  0
 32 33  2  0  0  0  0
 32 34  1  0  0  0  0
 33 35  1  0  0  0  0
 34 31  2  0  0  0  0
 35 30  2  0  0  0  0
 36 45  1  0  0  0  0
 37 44  1  0  0  0  0
 38 43  1  0  0  0  0
 39 37  2  0  0  0  0
 39 43  1  0  0  0  0
 41 40  1  0  0  0  0
 42 45  1  0  0  0  0
 43 41  2  0  0  0  0
 44 34  1  0  0  0  0
 44 40  2  0  0  0  0
 45 39  1  0  0  0  0
 45 38  1  0  0  0  0
 46 47  1  0  0  0  0
 48 49  2  0  0  0  0
 49 47  1  0  0  0  0
 50 48  1  0  0  0  0
 51 50  1  0  0  0  0
 52 51  1  0  0  0  0
 53 61  1  0  0  0  0
 53 52  1  1  0  0  0
 55 54  1  0  0  0  0
 55 57  1  0  0  0  0
 56 54  1  6  0  0  0
 56 58  1  0  0  0  0
 56 59  1  0  0  0  0
 57 59  1  0  0  0  0
 58 59  1  0  0  0  0
 59 53  1  1  0  0  0
 61 60  1  6  0  0  0
 62 63  1  0  0  0  0
 62 61  1  0  0  0  0
 64 63  1  0  0  0  0
M  END
>  <MODEL>
3

>  <REMARK>
 VINA RESULT:      -6.4      2.298      3.638
  Name = 
  21 active torsions:
  status: ('A' for Active; 'I' for Inactive)
    1  A    between atoms: C_1  and  O_17
    2  A    between atoms: C_7  and  C_15
    3  A    between atoms: C_7  and  C_39
    4  A    between atoms: C_9  and  C_12
    5  A    between atoms: C_9  and  C_28
    6  A    between atoms: O_17  and  C_29
    7  A    between atoms: C_19  and  N_61
    8  A    between atoms: C_25  and  C_44
    9  A    between atoms: N_27  and  C_28
   10  A    between atoms: C_28  and  C_54
   11  A    between atoms: C_29  and  C_63
   12  A    between atoms: C_31  and  C_48
   13  A    between atoms: C_32  and  C_62
   14  A    between atoms: C_35  and  C_48
   15  A    between atoms: C_35  and  C_60
   16  A    between atoms: C_40  and  C_52
   17  A    between atoms: C_41  and  C_56
   18  A    between atoms: C_44  and  C_52
   19  A    between atoms: C_53  and  C_63
   20  A    between atoms: C_54  and  C_57
   21  A    between atoms: C_60  and  C_63
                            x       y       z     vdW  Elec       q    Type
                         _______ _______ _______ _____ _____    ______ ____

>  <TORSDO>
F 21

$$$$
=
 OpenBabel11042414313D

 64 71  0  0  1  0  0  0  0  0999 V2000
  189.5440  175.4370  145.6680 C   0  0  0  0  0  3  0  0  0  0  0  0
  190.8130  175.5450  145.3070 C   0  0  0  0  0  0  0  0  0  0  0  0
  189.1840  176.0450  146.9750 C   0  0  1  0  0  3  0  0  0  0  0  0
  191.7080  176.2460  146.2680 C   0  0  1  0  0  3  0  0  0  0  0  0
  190.6450  176.9790  147.5520 S   0  0  0  0  0  0  0  0  0  0  0  0
  191.7680  175.7770  142.9340 C   0  0  0  0  0  0  0  0  0  0  0  0
  191.9160  173.5950  142.2070 C   0  0  2  0  0  3  0  0  0  0  0  0
  191.3770  173.6880  143.6040 C   0  0  0  0  0  0  0  0  0  0  0  0
  191.8520  177.0340  142.9040 O   0  0  0  0  0  0  0  0  0  0  0  0
  191.0750  172.6940  144.3200 O   0  0  0  0  0  0  0  0  0  0  0  0
  192.1120  174.9650  141.8620 O   0  0  0  0  0  0  0  0  0  0  0  0
  191.2950  175.0390  144.0500 N   0  0  0  0  0  0  0  0  0  0  0  0
  190.8970  172.9650  141.2690 C   0  0  0  0  0  2  0  0  0  0  0  0
  191.5840  171.9960  140.3200 C   0  0  1  0  0  3  0  0  0  0  0  0
  193.0280  172.0800  140.4760 N   0  0  0  0  0  2  0  0  0  0  0  0
  193.4350  172.2830  138.1850 O   0  0  0  0  0  0  0  0  0  0  0  0
  193.9050  172.2070  139.3540 C   0  0  0  0  0  0  0  0  0  0  0  0
  197.1570  175.3200  139.5180 O   0  0  0  0  0  1  0  0  0  0  0  0
  197.1300  173.2380  138.4100 C   0  0  0  0  0  0  0  0  0  0  0  0
  197.1780  173.9340  139.7120 C   0  0  2  0  0  3  0  0  0  0  0  0
  195.3890  172.2370  139.5760 C   0  0  2  0  0  3  0  0  0  0  0  0
  197.9410  173.4540  137.4730 O   0  0  0  0  0  0  0  0  0  0  0  0
  194.9510  174.4500  140.5290 O   0  0  0  0  0  1  0  0  0  0  0  0
  195.9060  173.4310  140.4210 C   0  0  2  0  0  3  0  0  0  0  0  0
  196.0970  172.2800  138.3100 N   0  0  0  0  0  2  0  0  0  0  0  0
  191.1010  170.5530  140.5250 C   0  0  0  0  0  2  0  0  0  0  0  0
  191.7490  168.2600  140.7470 O   0  0  0  0  0  1  0  0  0  0  0  0
  192.2390  169.5370  140.4840 C   0  0  0  0  0  2  0  0  0  0  0  0
  192.6660  175.2370  146.8910 C   0  0  0  0  0  2  0  0  0  0  0  0
  193.8750  175.0320  146.0420 C   0  0  0  0  0  0  0  0  0  0  0  0
  194.3700  173.7490  145.7980 C   0  0  0  0  0  3  0  0  0  0  0  0
  196.1190  174.7090  144.4500 C   0  0  0  0  0  3  0  0  0  0  0  0
  195.6250  175.9500  144.7060 N   0  0  0  0  0  0  0  0  0  0  0  0
  195.5040  173.5690  144.9920 C   0  0  0  0  0  0  0  0  0  0  0  0
  194.5250  176.1310  145.4830 C   0  0  0  0  0  3  0  0  0  0  0  0
  194.8520  168.3290  142.6110 O   0  0  0  0  0  1  0  0  0  0  0  0
  195.5360  171.4980  143.5730 C   0  0  0  0  0  3  0  0  0  0  0  0
  197.0770  168.4240  143.4190 C   0  0  0  0  0  2  0  0  0  0  0  0
  196.0710  170.2400  143.3880 C   0  0  0  0  0  0  0  0  0  0  0  0
  197.0220  171.6290  145.5600 C   0  0  0  0  0  3  0  0  0  0  0  0
  197.5590  170.3340  145.3450 C   0  0  0  0  0  3  0  0  0  0  0  0
  196.5110  169.2230  141.2600 O   0  0  0  0  0  1  0  0  0  0  0  0
  197.0490  169.6740  144.2450 C   0  0  0  0  0  0  0  0  0  0  0  0
  196.0270  172.2120  144.7030 C   0  0  0  0  0  0  0  0  0  0  0  0
  196.0710  169.0070  142.5640 C   0  0  0  0  0  0  0  0  0  0  0  0
  187.9990  176.9860  146.7790 C   0  0  0  0  0  2  0  0  0  0  0  0
  186.7180  176.3960  147.3500 C   0  0  0  0  0  2  0  0  0  0  0  0
  185.5930  178.2320  146.1640 C   0  0  0  0  0  3  0  0  0  0  0  0
  185.5030  177.0490  146.7740 C   0  0  0  0  0  3  0  0  0  0  0  0
  184.3740  178.9200  145.6410 C   0  0  0  0  0  2  0  0  0  0  0  0
  184.3960  179.0080  144.1240 C   0  0  0  0  0  2  0  0  0  0  0  0
  185.8270  178.8720  143.6190 C   0  0  0  0  0  2  0  0  0  0  0  0
  186.0160  177.6240  142.7460 C   0  0  1  0  0  3  0  0  0  0  0  0
  184.8480  177.4000  139.1290 C   0  0  0  0  0  2  0  0  0  0  0  0
  186.3190  177.0300  139.0380 C   0  0  0  0  0  2  0  0  0  0  0  0
  184.5530  177.7030  140.5870 C   0  0  2  0  0  3  0  0  0  0  0  0
  186.9840  177.6520  140.2470 C   0  0  0  0  0  2  0  0  0  0  0  0
  185.0380  178.9960  140.9070 O   0  0  0  0  0  0  0  0  0  0  0  0
  185.8640  177.9080  141.2350 C   0  0  2  0  0  0  0  0  0  0  0  0
  188.4990  177.8440  143.2870 C   0  0  0  0  0  1  0  0  0  0  0  0
  187.3270  176.8880  143.0860 C   0  0  2  0  0  3  0  0  0  0  0  0
  187.6460  175.9450  142.1030 O   0  0  0  0  0  0  0  0  0  0  0  0
  187.5110  174.7080  142.7430 C   0  0  0  0  0  2  0  0  0  0  0  0
  187.8600  173.6880  141.8590 O   0  0  0  0  0  1  0  0  0  0  0  0
  1  3  1  0  0  0  0
  2  1  2  0  0  0  0
  2  4  1  0  0  0  0
  3 46  1  6  0  0  0
  3  5  1  0  0  0  0
  4 29  1  1  0  0  0
  4  5  1  0  0  0  0
  6 12  1  0  0  0  0
  7 13  1  6  0  0  0
  7  8  1  0  0  0  0
  8 12  1  0  0  0  0
  8 10  2  0  0  0  0
  9  6  2  0  0  0  0
 11  7  1  0  0  0  0
 11  6  1  0  0  0  0
 12  2  1  0  0  0  0
 14 15  1  0  0  0  0
 14 26  1  1  0  0  0
 14 13  1  0  0  0  0
 16 17  2  0  0  0  0
 17 15  1  0  0  0  0
 19 20  1  0  0  0  0
 20 18  1  6  0  0  0
 20 24  1  0  0  0  0
 21 17  1  6  0  0  0
 21 24  1  0  0  0  0
 22 19  2  0  0  0  0
 24 23  1  6  0  0  0
 25 19  1  0  0  0  0
 25 21  1  0  0  0  0
 28 26  1  0  0  0  0
 28 27  1  0  0  0  0
 30 29  1  0  0  0  0
 31 30  1  0  0  0  0
 32 33  2  0  0  0  0
 32 34  1  0  0  0  0
 33 35  1  0  0  0  0
 34 31  2  0  0  0  0
 35 30  2  0  0  0  0
 37 44  1  0  0  0  0
 38 43  1  0  0  0  0
 39 37  2  0  0  0  0
 39 43  1  0  0  0  0
 41 40  1  0  0  0  0
 42 45  1  0  0  0  0
 43 41  2  0  0  0  0
 44 34  1  0  0  0  0
 44 40  2  0  0  0  0
 45 36  1  0  0  0  0
 45 39  1  0  0  0  0
 45 38  1  0  0  0  0
 46 47  1  0  0  0  0
 48 49  2  0  0  0  0
 49 47  1  0  0  0  0
 50 48  1  0  0  0  0
 51 50  1  0  0  0  0
 52 51  1  0  0  0  0
 53 61  1  0  0  0  0
 53 52  1  1  0  0  0
 55 54  1  0  0  0  0
 55 57  1  0  0  0  0
 56 54  1  6  0  0  0
 56 58  1  0  0  0  0
 56 59  1  0  0  0  0
 57 59  1  0  0  0  0
 58 59  1  0  0  0  0
 59 53  1  1  0  0  0
 61 60  1  6  0  0  0
 62 63  1  0  0  0  0
 62 61  1  0  0  0  0
 64 63  1  0  0  0  0
M  END
>  <MODEL>
4

>  <REMARK>
 VINA RESULT:      -6.1      2.471      4.296
  Name = 
  21 active torsions:
  status: ('A' for Active; 'I' for Inactive)
    1  A    between atoms: C_1  and  O_17
    2  A    between atoms: C_7  and  C_15
    3  A    between atoms: C_7  and  C_39
    4  A    between atoms: C_9  and  C_12
    5  A    between atoms: C_9  and  C_28
    6  A    between atoms: O_17  and  C_29
    7  A    between atoms: C_19  and  N_61
    8  A    between atoms: C_25  and  C_44
    9  A    between atoms: N_27  and  C_28
   10  A    between atoms: C_28  and  C_54
   11  A    between atoms: C_29  and  C_63
   12  A    between atoms: C_31  and  C_48
   13  A    between atoms: C_32  and  C_62
   14  A    between atoms: C_35  and  C_48
   15  A    between atoms: C_35  and  C_60
   16  A    between atoms: C_40  and  C_52
   17  A    between atoms: C_41  and  C_56
   18  A    between atoms: C_44  and  C_52
   19  A    between atoms: C_53  and  C_63
   20  A    between atoms: C_54  and  C_57
   21  A    between atoms: C_60  and  C_63
                            x       y       z     vdW  Elec       q    Type
                         _______ _______ _______ _____ _____    ______ ____

>  <TORSDO>
F 21

$$$$
=
 OpenBabel11042414313D

 64 71  0  0  1  0  0  0  0  0999 V2000
  191.6710  175.9140  142.8860 C   0  0  0  0  0  3  0  0  0  0  0  0
  191.4310  174.6360  142.6360 C   0  0  0  0  0  0  0  0  0  0  0  0
  192.1400  176.2320  144.2590 C   0  0  1  0  0  3  0  0  0  0  0  0
  191.6480  173.6960  143.7700 C   0  0  1  0  0  3  0  0  0  0  0  0
  192.4590  174.6410  145.1000 S   0  0  0  0  0  0  0  0  0  0  0  0
  189.6870  173.9670  140.8730 C   0  0  0  0  0  0  0  0  0  0  0  0
  190.9730  173.3440  139.0650 C   0  0  2  0  0  3  0  0  0  0  0  0
  191.8120  173.7860  140.2280 C   0  0  0  0  0  0  0  0  0  0  0  0
  188.6540  174.1860  141.5610 O   0  0  0  0  0  0  0  0  0  0  0  0
  193.0730  173.8520  140.2150 O   0  0  0  0  0  0  0  0  0  0  0  0
  189.6480  173.4730  139.5760 O   0  0  0  0  0  0  0  0  0  0  0  0
  191.0110  174.1780  141.3390 N   0  0  0  0  0  0  0  0  0  0  0  0
  191.2540  171.8910  138.7120 C   0  0  0  0  0  2  0  0  0  0  0  0
  191.5120  171.7530  137.2200 C   0  0  1  0  0  3  0  0  0  0  0  0
  192.9260  171.5070  136.9760 N   0  0  0  0  0  2  0  0  0  0  0  0
  193.4190  173.7510  136.5590 O   0  0  0  0  0  0  0  0  0  0  0  0
  193.8290  172.5600  136.6300 C   0  0  0  0  0  0  0  0  0  0  0  0
  197.8620  173.5990  138.3460 O   0  0  0  0  0  1  0  0  0  0  0  0
  197.1550  173.5610  136.0960 C   0  0  0  0  0  0  0  0  0  0  0  0
  197.4810  172.7590  137.2930 C   0  0  2  0  0  3  0  0  0  0  0  0
  195.2650  172.2350  136.3400 C   0  0  2  0  0  3  0  0  0  0  0  0
  197.9400  174.4010  135.5840 O   0  0  0  0  0  0  0  0  0  0  0  0
  195.5570  172.5160  138.7540 O   0  0  0  0  0  1  0  0  0  0  0  0
  196.1600  172.0250  137.5890 C   0  0  2  0  0  3  0  0  0  0  0  0
  195.8810  173.2880  135.5530 N   0  0  0  0  0  2  0  0  0  0  0  0
  190.6540  170.6480  136.5890 C   0  0  0  0  0  2  0  0  0  0  0  0
  189.8910  172.4580  135.2210 O   0  0  0  0  0  1  0  0  0  0  0  0
  190.0270  171.0720  135.2630 C   0  0  0  0  0  2  0  0  0  0  0  0
  190.3020  173.1650  144.2490 C   0  0  0  0  0  2  0  0  0  0  0  0
  189.6960  174.0590  145.2780 C   0  0  0  0  0  0  0  0  0  0  0  0
  188.7770  175.0470  144.9170 C   0  0  0  0  0  3  0  0  0  0  0  0
  188.5940  175.6850  147.2310 C   0  0  0  0  0  3  0  0  0  0  0  0
  189.4950  174.7220  147.5610 N   0  0  0  0  0  0  0  0  0  0  0  0
  188.2080  175.8770  145.8950 C   0  0  0  0  0  0  0  0  0  0  0  0
  190.0470  173.9120  146.6190 C   0  0  0  0  0  3  0  0  0  0  0  0
  185.6350  179.2040  141.9130 O   0  0  0  0  0  1  0  0  0  0  0  0
  186.6980  176.9560  144.2040 C   0  0  0  0  0  3  0  0  0  0  0  0
  184.4650  179.5620  143.9410 C   0  0  0  0  0  2  0  0  0  0  0  0
  185.7850  177.9600  143.9540 C   0  0  0  0  0  0  0  0  0  0  0  0
  186.7740  177.8630  146.5170 C   0  0  0  0  0  3  0  0  0  0  0  0
  185.8310  178.8830  146.2350 C   0  0  0  0  0  3  0  0  0  0  0  0
  183.8980  177.7800  142.4850 O   0  0  0  0  0  1  0  0  0  0  0  0
  185.3650  178.8950  144.9360 C   0  0  0  0  0  0  0  0  0  0  0  0
  187.2120  176.9130  145.5310 C   0  0  0  0  0  0  0  0  0  0  0  0
  184.9120  178.6130  142.9500 C   0  0  0  0  0  0  0  0  0  0  0  0
  193.4240  177.0500  144.1710 C   0  0  0  0  0  2  0  0  0  0  0  0
  194.5400  176.4290  144.9980 C   0  0  0  0  0  2  0  0  0  0  0  0
  196.4290  174.9740  144.3970 C   0  0  0  0  0  3  0  0  0  0  0  0
  195.7260  176.0830  144.1570 C   0  0  0  0  0  3  0  0  0  0  0  0
  197.6520  174.6530  143.6000 C   0  0  0  0  0  2  0  0  0  0  0  0
  197.4060  173.4900  142.6540 C   0  0  0  0  0  2  0  0  0  0  0  0
  196.0720  172.8310  142.9810 C   0  0  0  0  0  2  0  0  0  0  0  0
  196.2340  171.3530  143.3590 C   0  0  1  0  0  3  0  0  0  0  0  0
  196.4850  169.6710  146.7660 C   0  0  0  0  0  2  0  0  0  0  0  0
  194.9860  169.7770  146.5460 C   0  0  0  0  0  2  0  0  0  0  0  0
  197.1590  170.2970  145.5590 C   0  0  2  0  0  3  0  0  0  0  0  0
  194.7840  170.9170  145.5700 C   0  0  0  0  0  2  0  0  0  0  0  0
  197.1060  171.7090  145.6680 O   0  0  0  0  0  0  0  0  0  0  0  0
  196.1200  171.0950  144.8780 C   0  0  2  0  0  0  0  0  0  0  0  0
  195.9260  170.0210  141.2050 C   0  0  0  0  0  1  0  0  0  0  0  0
  195.3010  170.4490  142.5290 C   0  0  2  0  0  3  0  0  0  0  0  0
  194.0720  171.0740  142.2940 O   0  0  0  0  0  0  0  0  0  0  0  0
  193.1400  170.0290  142.2850 C   0  0  0  0  0  2  0  0  0  0  0  0
  191.9250  170.4950  141.7860 O   0  0  0  0  0  1  0  0  0  0  0  0
  1  3  1  0  0  0  0
  2  1  2  0  0  0  0
  2  4  1  0  0  0  0
  3 46  1  6  0  0  0
  3  5  1  0  0  0  0
  4 29  1  1  0  0  0
  4  5  1  0  0  0  0
  6 12  1  0  0  0  0
  6  9  2  0  0  0  0
  7 13  1  1  0  0  0
  7 11  1  0  0  0  0
  7  8  1  0  0  0  0
  8 12  1  0  0  0  0
 10  8  2  0  0  0  0
 11  6  1  0  0  0  0
 12  2  1  0  0  0  0
 14 26  1  1  0  0  0
 14 13  1  0  0  0  0
 15 14  1  0  0  0  0
 16 17  2  0  0  0  0
 17 15  1  0  0  0  0
 19 20  1  0  0  0  0
 20 24  1  0  0  0  0
 20 18  1  1  0  0  0
 21 17  1  1  0  0  0
 21 24  1  0  0  0  0
 22 19  2  0  0  0  0
 24 23  1  1  0  0  0
 25 19  1  0  0  0  0
 25 21  1  0  0  0  0
 27 28  1  0  0  0  0
 28 26  1  0  0  0  0
 29 30  1  0  0  0  0
 30 35  1  0  0  0  0
 31 30  2  0  0  0  0
 31 34  1  0  0  0  0
 32 33  1  0  0  0  0
 34 32  2  0  0  0  0
 35 33  2  0  0  0  0
 36 45  1  0  0  0  0
 37 44  1  0  0  0  0
 38 43  1  0  0  0  0
 39 37  2  0  0  0  0
 39 43  1  0  0  0  0
 41 40  1  0  0  0  0
 42 45  1  0  0  0  0
 43 41  2  0  0  0  0
 44 34  1  0  0  0  0
 44 40  2  0  0  0  0
 45 38  1  0  0  0  0
 45 39  1  0  0  0  0
 46 47  1  0  0  0  0
 49 48  2  0  0  0  0
 49 47  1  0  0  0  0
 50 48  1  0  0  0  0
 51 52  1  0  0  0  0
 51 50  1  0  0  0  0
 53 52  1  1  0  0  0
 55 54  1  0  0  0  0
 56 58  1  0  0  0  0
 56 54  1  1  0  0  0
 57 55  1  0  0  0  0
 59 53  1  6  0  0  0
 59 56  1  0  0  0  0
 59 57  1  0  0  0  0
 59 58  1  0  0  0  0
 61 60  1  6  0  0  0
 61 53  1  0  0  0  0
 62 61  1  0  0  0  0
 63 62  1  0  0  0  0
 64 63  1  0  0  0  0
M  END
>  <MODEL>
5

>  <REMARK>
 VINA RESULT:      -6.0      2.550      9.136
  Name = 
  21 active torsions:
  status: ('A' for Active; 'I' for Inactive)
    1  A    between atoms: C_1  and  O_17
    2  A    between atoms: C_7  and  C_15
    3  A    between atoms: C_7  and  C_39
    4  A    between atoms: C_9  and  C_12
    5  A    between atoms: C_9  and  C_28
    6  A    between atoms: O_17  and  C_29
    7  A    between atoms: C_19  and  N_61
    8  A    between atoms: C_25  and  C_44
    9  A    between atoms: N_27  and  C_28
   10  A    between atoms: C_28  and  C_54
   11  A    between atoms: C_29  and  C_63
   12  A    between atoms: C_31  and  C_48
   13  A    between atoms: C_32  and  C_62
   14  A    between atoms: C_35  and  C_48
   15  A    between atoms: C_35  and  C_60
   16  A    between atoms: C_40  and  C_52
   17  A    between atoms: C_41  and  C_56
   18  A    between atoms: C_44  and  C_52
   19  A    between atoms: C_53  and  C_63
   20  A    between atoms: C_54  and  C_57
   21  A    between atoms: C_60  and  C_63
                            x       y       z     vdW  Elec       q    Type
                         _______ _______ _______ _____ _____    ______ ____

>  <TORSDO>
F 21

$$$$
=
 OpenBabel11042414313D

 64 71  0  0  1  0  0  0  0  0999 V2000
  190.4540  173.6060  142.0890 C   0  0  0  0  0  3  0  0  0  0  0  0
  189.8330  173.6450  140.9200 C   0  0  0  0  0  0  0  0  0  0  0  0
  189.7120  174.1820  143.2400 C   0  0  1  0  0  3  0  0  0  0  0  0
  188.4850  174.2770  140.9170 C   0  0  1  0  0  3  0  0  0  0  0  0
  188.0220  174.5560  142.6570 S   0  0  0  0  0  0  0  0  0  0  0  0
  191.6880  173.3610  139.1670 C   0  0  0  0  0  0  0  0  0  0  0  0
  190.7800  171.8590  137.6730 C   0  0  2  0  0  3  0  0  0  0  0  0
  189.8430  172.1650  138.8050 C   0  0  0  0  0  0  0  0  0  0  0  0
  192.5290  174.1510  139.6750 O   0  0  0  0  0  0  0  0  0  0  0  0
  188.7060  171.6370  138.9540 O   0  0  0  0  0  0  0  0  0  0  0  0
  191.9070  172.6780  137.9780 O   0  0  0  0  0  0  0  0  0  0  0  0
  190.4140  173.0880  139.7290 N   0  0  0  0  0  0  0  0  0  0  0  0
  190.1790  172.2800  136.3400 C   0  0  0  0  0  2  0  0  0  0  0  0
  190.5430  173.7230  136.0320 C   0  0  1  0  0  3  0  0  0  0  0  0
  191.8910  173.7960  135.4880 N   0  0  0  0  0  2  0  0  0  0  0  0
  192.3220  175.9090  136.3850 O   0  0  0  0  0  0  0  0  0  0  0  0
  192.7280  174.9370  135.6900 C   0  0  0  0  0  0  0  0  0  0  0  0
  196.9670  175.6630  137.0290 O   0  0  0  0  0  1  0  0  0  0  0  0
  195.8200  176.5200  135.1540 C   0  0  0  0  0  0  0  0  0  0  0  0
  196.4240  175.3270  135.7840 C   0  0  2  0  0  3  0  0  0  0  0  0
  194.0900  174.9740  135.0610 C   0  0  2  0  0  3  0  0  0  0  0  0
  196.4400  177.5980  134.9650 O   0  0  0  0  0  0  0  0  0  0  0  0
  194.8530  174.2050  137.2560 O   0  0  0  0  0  1  0  0  0  0  0  0
  195.2300  174.3630  135.9160 C   0  0  2  0  0  3  0  0  0  0  0  0
  194.4780  176.3390  134.7560 N   0  0  0  0  0  2  0  0  0  0  0  0
  189.5360  174.3760  135.0740 C   0  0  0  0  0  2  0  0  0  0  0  0
  188.4760  174.9090  137.1530 O   0  0  0  0  0  1  0  0  0  0  0  0
  188.5040  175.2360  135.7980 C   0  0  0  0  0  2  0  0  0  0  0  0
  188.5530  175.6040  140.1720 C   0  0  0  0  0  2  0  0  0  0  0  0
  187.3940  176.4810  140.5080 C   0  0  0  0  0  0  0  0  0  0  0  0
  187.0670  176.7590  141.8370 C   0  0  0  0  0  3  0  0  0  0  0  0
  185.2350  178.1220  141.0740 C   0  0  0  0  0  3  0  0  0  0  0  0
  185.5660  177.8340  139.7870 N   0  0  0  0  0  0  0  0  0  0  0  0
  185.9790  177.5900  142.1400 C   0  0  0  0  0  0  0  0  0  0  0  0
  186.6210  177.0320  139.4860 C   0  0  0  0  0  3  0  0  0  0  0  0
  186.3230  176.4240  147.8030 O   0  0  0  0  0  1  0  0  0  0  0  0
  186.4920  177.4800  144.5960 C   0  0  0  0  0  3  0  0  0  0  0  0
  185.1850  178.4930  147.6140 C   0  0  0  0  0  2  0  0  0  0  0  0
  186.0860  177.8190  145.8700 C   0  0  0  0  0  0  0  0  0  0  0  0
  184.4440  178.6660  143.8360 C   0  0  0  0  0  3  0  0  0  0  0  0
  184.0520  179.0050  145.1560 C   0  0  0  0  0  3  0  0  0  0  0  0
  187.5520  178.3850  147.6830 O   0  0  0  0  0  1  0  0  0  0  0  0
  184.9050  178.5550  146.1440 C   0  0  0  0  0  0  0  0  0  0  0  0
  185.6350  177.9150  143.5450 C   0  0  0  0  0  0  0  0  0  0  0  0
  186.3760  177.7320  147.3220 C   0  0  0  0  0  0  0  0  0  0  0  0
  189.6670  173.1570  144.3690 C   0  0  0  0  0  2  0  0  0  0  0  0
  189.7770  173.8230  145.7330 C   0  0  0  0  0  2  0  0  0  0  0  0
  191.2180  175.7600  146.1990 C   0  0  0  0  0  3  0  0  0  0  0  0
  191.1160  174.4560  145.9330 C   0  0  0  0  0  3  0  0  0  0  0  0
  192.5550  176.4120  146.3390 C   0  0  0  0  0  2  0  0  0  0  0  0
  193.6580  175.3820  146.5160 C   0  0  0  0  0  2  0  0  0  0  0  0
  194.9390  175.8780  145.8580 C   0  0  0  0  0  2  0  0  0  0  0  0
  195.2910  175.0770  144.5980 C   0  0  1  0  0  3  0  0  0  0  0  0
  195.2220  176.0550  140.9180 C   0  0  0  0  0  2  0  0  0  0  0  0
  196.5670  176.5810  141.3880 C   0  0  0  0  0  2  0  0  0  0  0  0
  194.5440  175.4240  142.1220 C   0  0  2  0  0  3  0  0  0  0  0  0
  196.4400  176.7850  142.8830 C   0  0  0  0  0  2  0  0  0  0  0  0
  194.0100  176.4420  142.9500 O   0  0  0  0  0  0  0  0  0  0  0  0
  195.2670  175.9260  143.3080 C   0  0  2  0  0  0  0  0  0  0  0  0
  196.9180  173.3980  143.5770 C   0  0  0  0  0  1  0  0  0  0  0  0
  196.6080  174.2940  144.7720 C   0  0  2  0  0  3  0  0  0  0  0  0
  196.5910  173.5330  145.9450 O   0  0  0  0  0  0  0  0  0  0  0  0
  196.1420  172.2700  145.5410 C   0  0  0  0  0  2  0  0  0  0  0  0
  196.8970  171.2850  146.1740 O   0  0  0  0  0  1  0  0  0  0  0  0
  1  3  1  0  0  0  0
  2  1  2  0  0  0  0
  3 46  1  1  0  0  0
  4 29  1  6  0  0  0
  4  2  1  0  0  0  0
  4  5  1  0  0  0  0
  5  3  1  0  0  0  0
  6  9  2  0  0  0  0
  6 12  1  0  0  0  0
  7 13  1  6  0  0  0
  7 11  1  0  0  0  0
  7  8  1  0  0  0  0
  8 10  2  0  0  0  0
  8 12  1  0  0  0  0
 11  6  1  0  0  0  0
 12  2  1  0  0  0  0
 14 26  1  6  0  0  0
 14 13  1  0  0  0  0
 15 17  1  0  0  0  0
 15 14  1  0  0  0  0
 17 16  2  0  0  0  0
 19 20  1  0  0  0  0
 20 24  1  0  0  0  0
 20 18  1  1  0  0  0
 21 17  1  1  0  0  0
 21 24  1  0  0  0  0
 22 19  2  0  0  0  0
 24 23  1  1  0  0  0
 25 21  1  0  0  0  0
 25 19  1  0  0  0  0
 26 28  1  0  0  0  0
 28 27  1  0  0  0  0
 29 30  1  0  0  0  0
 30 31  1  0  0  0  0
 31 34  2  0  0  0  0
 32 34  1  0  0  0  0
 33 32  2  0  0  0  0
 34 44  1  0  0  0  0
 35 33  1  0  0  0  0
 35 30  2  0  0  0  0
 37 39  1  0  0  0  0
 39 43  2  0  0  0  0
 39 45  1  0  0  0  0
 40 41  2  0  0  0  0
 41 43  1  0  0  0  0
 43 38  1  0  0  0  0
 44 40  1  0  0  0  0
 44 37  2  0  0  0  0
 45 38  1  0  0  0  0
 45 42  1  0  0  0  0
 45 36  1  0  0  0  0
 46 47  1  0  0  0  0
 47 49  1  0  0  0  0
 48 50  1  0  0  0  0
 49 48  2  0  0  0  0
 50 51  1  0  0  0  0
 52 51  1  0  0  0  0
 53 61  1  0  0  0  0
 53 52  1  1  0  0  0
 54 55  1  0  0  0  0
 55 57  1  0  0  0  0
 56 54  1  6  0  0  0
 56 58  1  0  0  0  0
 56 59  1  0  0  0  0
 57 59  1  0  0  0  0
 58 59  1  0  0  0  0
 59 53  1  1  0  0  0
 61 60  1  6  0  0  0
 61 62  1  0  0  0  0
 63 62  1  0  0  0  0
 63 64  1  0  0  0  0
M  END
>  <MODEL>
6

>  <REMARK>
 VINA RESULT:      -5.9      2.660      8.863
  Name = 
  21 active torsions:
  status: ('A' for Active; 'I' for Inactive)
    1  A    between atoms: C_1  and  O_17
    2  A    between atoms: C_7  and  C_15
    3  A    between atoms: C_7  and  C_39
    4  A    between atoms: C_9  and  C_12
    5  A    between atoms: C_9  and  C_28
    6  A    between atoms: O_17  and  C_29
    7  A    between atoms: C_19  and  N_61
    8  A    between atoms: C_25  and  C_44
    9  A    between atoms: N_27  and  C_28
   10  A    between atoms: C_28  and  C_54
   11  A    between atoms: C_29  and  C_63
   12  A    between atoms: C_31  and  C_48
   13  A    between atoms: C_32  and  C_62
   14  A    between atoms: C_35  and  C_48
   15  A    between atoms: C_35  and  C_60
   16  A    between atoms: C_40  and  C_52
   17  A    between atoms: C_41  and  C_56
   18  A    between atoms: C_44  and  C_52
   19  A    between atoms: C_53  and  C_63
   20  A    between atoms: C_54  and  C_57
   21  A    between atoms: C_60  and  C_63
                            x       y       z     vdW  Elec       q    Type
                         _______ _______ _______ _____ _____    ______ ____

>  <TORSDO>
F 21

$$$$
=
 OpenBabel11042414313D

 64 71  0  0  1  0  0  0  0  0999 V2000
  189.7790  175.3550  144.6860 C   0  0  0  0  0  3  0  0  0  0  0  0
  191.0910  175.4760  144.5570 C   0  0  0  0  0  0  0  0  0  0  0  0
  189.1660  176.0840  145.8250 C   0  0  1  0  0  3  0  0  0  0  0  0
  191.7740  176.3120  145.5820 C   0  0  1  0  0  3  0  0  0  0  0  0
  190.4720  177.1340  146.5550 S   0  0  0  0  0  0  0  0  0  0  0  0
  192.0100  173.4740  143.2360 C   0  0  0  0  0  0  0  0  0  0  0  0
  193.1680  174.4660  141.5080 C   0  0  2  0  0  3  0  0  0  0  0  0
  192.5320  175.4790  142.4140 C   0  0  0  0  0  0  0  0  0  0  0  0
  191.5390  172.5570  143.9620 O   0  0  0  0  0  0  0  0  0  0  0  0
  192.5850  176.7280  142.2390 O   0  0  0  0  0  0  0  0  0  0  0  0
  192.8010  173.2320  142.1210 O   0  0  0  0  0  0  0  0  0  0  0  0
  191.8120  174.8590  143.4770 N   0  0  0  0  0  0  0  0  0  0  0  0
  194.6820  174.6120  141.5040 C   0  0  0  0  0  2  0  0  0  0  0  0
  195.2280  174.3950  140.1020 C   0  0  1  0  0  3  0  0  0  0  0  0
  194.8880  173.0610  139.6320 N   0  0  0  0  0  2  0  0  0  0  0  0
  196.8190  172.0760  140.5010 O   0  0  0  0  0  0  0  0  0  0  0  0
  195.7450  171.9380  139.8530 C   0  0  0  0  0  0  0  0  0  0  0  0
  193.6870  170.3480  136.1750 O   0  0  0  0  0  1  0  0  0  0  0  0
  193.3730  169.7640  138.4390 C   0  0  0  0  0  0  0  0  0  0  0  0
  194.2750  169.7050  137.2700 C   0  0  2  0  0  3  0  0  0  0  0  0
  195.3620  170.5960  139.2990 C   0  0  2  0  0  3  0  0  0  0  0  0
  192.1800  169.3640  138.4200 O   0  0  0  0  0  0  0  0  0  0  0  0
  195.6790  171.6800  137.1270 O   0  0  0  0  0  1  0  0  0  0  0  0
  195.5330  170.4420  137.7660 C   0  0  2  0  0  3  0  0  0  0  0  0
  193.9750  170.2930  139.6010 N   0  0  0  0  0  2  0  0  0  0  0  0
  194.7230  175.4600  139.1190 C   0  0  0  0  0  2  0  0  0  0  0  0
  193.8520  175.6800  136.9000 O   0  0  0  0  0  1  0  0  0  0  0  0
  194.8040  175.0060  137.6630 C   0  0  0  0  0  2  0  0  0  0  0  0
  192.6160  175.4160  146.4820 C   0  0  0  0  0  2  0  0  0  0  0  0
  193.9320  175.0950  145.8580 C   0  0  0  0  0  0  0  0  0  0  0  0
  194.3700  173.7730  145.7490 C   0  0  0  0  0  3  0  0  0  0  0  0
  196.3820  174.5530  144.6810 C   0  0  0  0  0  3  0  0  0  0  0  0
  195.9400  175.8340  144.8030 N   0  0  0  0  0  0  0  0  0  0  0  0
  195.6060  173.4820  145.1540 C   0  0  0  0  0  0  0  0  0  0  0  0
  194.7420  176.1220  145.3760 C   0  0  0  0  0  3  0  0  0  0  0  0
  195.5190  168.4170  142.3460 O   0  0  0  0  0  1  0  0  0  0  0  0
  196.0320  171.4600  143.7280 C   0  0  0  0  0  3  0  0  0  0  0  0
  197.2040  168.2350  144.0010 C   0  0  0  0  0  2  0  0  0  0  0  0
  196.4760  170.1540  143.6890 C   0  0  0  0  0  0  0  0  0  0  0  0
  196.5630  171.3670  146.1540 C   0  0  0  0  0  3  0  0  0  0  0  0
  197.0180  170.0250  146.0860 C   0  0  0  0  0  3  0  0  0  0  0  0
  197.6640  169.1510  141.8630 O   0  0  0  0  0  1  0  0  0  0  0  0
  196.9520  169.4570  144.8300 C   0  0  0  0  0  0  0  0  0  0  0  0
  196.0730  172.0820  145.0080 C   0  0  0  0  0  0  0  0  0  0  0  0
  196.7040  168.9520  142.8520 C   0  0  0  0  0  0  0  0  0  0  0  0
  188.0210  176.9480  145.3080 C   0  0  0  0  0  2  0  0  0  0  0  0
  186.7810  176.1150  145.0150 C   0  0  0  0  0  2  0  0  0  0  0  0
  187.2280  176.5930  142.6450 C   0  0  0  0  0  3  0  0  0  0  0  0
  186.3520  176.2440  143.5890 C   0  0  0  0  0  3  0  0  0  0  0  0
  186.7940  176.7840  141.2280 C   0  0  0  0  0  2  0  0  0  0  0  0
  187.7500  176.1060  140.2600 C   0  0  0  0  0  2  0  0  0  0  0  0
  188.4760  174.9670  140.9640 C   0  0  0  0  0  2  0  0  0  0  0  0
  188.3760  173.6480  140.1850 C   0  0  1  0  0  3  0  0  0  0  0  0
  190.2840  172.3840  137.1410 C   0  0  0  0  0  2  0  0  0  0  0  0
  191.3890  172.8780  138.0590 C   0  0  0  0  0  2  0  0  0  0  0  0
  188.9660  172.6480  137.8480 C   0  0  2  0  0  3  0  0  0  0  0  0
  190.7520  173.9040  138.9720 C   0  0  0  0  0  2  0  0  0  0  0  0
  188.6350  174.0210  137.7330 O   0  0  0  0  0  0  0  0  0  0  0  0
  189.2650  173.6170  138.9220 C   0  0  2  0  0  0  0  0  0  0  0  0
  188.3560  172.7520  142.5730 C   0  0  0  0  0  1  0  0  0  0  0  0
  188.6000  172.4290  141.1020 C   0  0  2  0  0  3  0  0  0  0  0  0
  189.8850  171.9030  140.9380 O   0  0  0  0  0  0  0  0  0  0  0  0
  189.9230  170.7910  141.7860 C   0  0  0  0  0  2  0  0  0  0  0  0
  191.1360  170.1230  141.6230 O   0  0  0  0  0  1  0  0  0  0  0  0
  1  3  1  0  0  0  0
  2  1  2  0  0  0  0
  2  4  1  0  0  0  0
  3 46  1  6  0  0  0
  3  5  1  0  0  0  0
  4 29  1  1  0  0  0
  4  5  1  0  0  0  0
  6 12  1  0  0  0  0
  6  9  2  0  0  0  0
  7 13  1  1  0  0  0
  7 11  1  0  0  0  0
  7  8  1  0  0  0  0
  8 12  1  0  0  0  0
 10  8  2  0  0  0  0
 11  6  1  0  0  0  0
 12  2  1  0  0  0  0
 14 26  1  6  0  0  0
 14 13  1  0  0  0  0
 15 17  1  0  0  0  0
 15 14  1  0  0  0  0
 17 16  2  0  0  0  0
 19 25  1  0  0  0  0
 20 18  1  6  0  0  0
 20 24  1  0  0  0  0
 20 19  1  0  0  0  0
 21 25  1  0  0  0  0
 21 17  1  6  0  0  0
 22 19  2  0  0  0  0
 24 23  1  6  0  0  0
 24 21  1  0  0  0  0
 27 28  1  0  0  0  0
 28 26  1  0  0  0  0
 30 29  1  0  0  0  0
 31 30  1  0  0  0  0
 32 33  2  0  0  0  0
 32 34  1  0  0  0  0
 33 35  1  0  0  0  0
 34 31  2  0  0  0  0
 35 30  2  0  0  0  0
 36 45  1  0  0  0  0
 37 44  1  0  0  0  0
 38 43  1  0  0  0  0
 39 37  2  0  0  0  0
 39 43  1  0  0  0  0
 41 40  1  0  0  0  0
 42 45  1  0  0  0  0
 43 41  2  0  0  0  0
 44 34  1  0  0  0  0
 44 40  2  0  0  0  0
 45 39  1  0  0  0  0
 45 38  1  0  0  0  0
 47 46  1  0  0  0  0
 48 49  2  0  0  0  0
 49 47  1  0  0  0  0
 50 48  1  0  0  0  0
 51 52  1  0  0  0  0
 51 50  1  0  0  0  0
 53 52  1  1  0  0  0
 53 61  1  0  0  0  0
 54 55  1  0  0  0  0
 55 57  1  0  0  0  0
 56 54  1  6  0  0  0
 56 59  1  0  0  0  0
 58 56  1  0  0  0  0
 58 59  1  0  0  0  0
 59 57  1  0  0  0  0
 59 53  1  1  0  0  0
 61 60  1  1  0  0  0
 62 61  1  0  0  0  0
 62 63  1  0  0  0  0
 64 63  1  0  0  0  0
M  END
>  <MODEL>
7

>  <REMARK>
 VINA RESULT:      -5.7      2.684      5.784
  Name = 
  21 active torsions:
  status: ('A' for Active; 'I' for Inactive)
    1  A    between atoms: C_1  and  O_17
    2  A    between atoms: C_7  and  C_15
    3  A    between atoms: C_7  and  C_39
    4  A    between atoms: C_9  and  C_12
    5  A    between atoms: C_9  and  C_28
    6  A    between atoms: O_17  and  C_29
    7  A    between atoms: C_19  and  N_61
    8  A    between atoms: C_25  and  C_44
    9  A    between atoms: N_27  and  C_28
   10  A    between atoms: C_28  and  C_54
   11  A    between atoms: C_29  and  C_63
   12  A    between atoms: C_31  and  C_48
   13  A    between atoms: C_32  and  C_62
   14  A    between atoms: C_35  and  C_48
   15  A    between atoms: C_35  and  C_60
   16  A    between atoms: C_40  and  C_52
   17  A    between atoms: C_41  and  C_56
   18  A    between atoms: C_44  and  C_52
   19  A    between atoms: C_53  and  C_63
   20  A    between atoms: C_54  and  C_57
   21  A    between atoms: C_60  and  C_63
                            x       y       z     vdW  Elec       q    Type
                         _______ _______ _______ _____ _____    ______ ____

>  <TORSDO>
F 21

$$$$
=
 OpenBabel11042414313D

 64 71  0  0  1  0  0  0  0  0999 V2000
  192.8490  173.8770  137.7860 C   0  0  0  0  0  3  0  0  0  0  0  0
  191.7770  173.1600  137.4870 C   0  0  0  0  0  0  0  0  0  0  0  0
  194.0910  173.5320  137.0470 C   0  0  1  0  0  3  0  0  0  0  0  0
  191.9670  172.0960  136.4640 C   0  0  1  0  0  3  0  0  0  0  0  0
  193.6270  172.3300  135.7510 S   0  0  0  0  0  0  0  0  0  0  0  0
  189.2800  173.7590  137.4560 C   0  0  0  0  0  0  0  0  0  0  0  0
  188.7040  173.7500  139.6870 C   0  0  2  0  0  3  0  0  0  0  0  0
  190.1500  173.4110  139.4770 C   0  0  0  0  0  0  0  0  0  0  0  0
  189.1470  173.8790  136.2080 O   0  0  0  0  0  0  0  0  0  0  0  0
  190.9570  173.1150  140.4020 O   0  0  0  0  0  0  0  0  0  0  0  0
  188.2450  173.9740  138.3560 O   0  0  0  0  0  0  0  0  0  0  0  0
  190.4980  173.4100  138.0950 N   0  0  0  0  0  0  0  0  0  0  0  0
  188.5560  175.0230  140.5080 C   0  0  0  0  0  2  0  0  0  0  0  0
  188.4820  174.6880  141.9890 C   0  0  1  0  0  3  0  0  0  0  0  0
  187.8680  175.7850  142.7210 N   0  0  0  0  0  2  0  0  0  0  0  0
  189.7720  176.2230  144.0000 O   0  0  0  0  0  0  0  0  0  0  0  0
  188.5710  176.5060  143.7360 C   0  0  0  0  0  0  0  0  0  0  0  0
  185.5800  176.7930  147.0920 O   0  0  0  0  0  1  0  0  0  0  0  0
  185.6330  177.9370  145.0300 C   0  0  0  0  0  0  0  0  0  0  0  0
  186.2590  177.7710  146.3580 C   0  0  2  0  0  3  0  0  0  0  0  0
  187.8660  177.5940  144.4910 C   0  0  2  0  0  3  0  0  0  0  0  0
  184.4110  178.1840  144.8600 O   0  0  0  0  0  0  0  0  0  0  0  0
  187.9170  175.9980  146.3470 O   0  0  0  0  0  1  0  0  0  0  0  0
  187.6970  177.3400  146.0120 C   0  0  2  0  0  3  0  0  0  0  0  0
  186.5360  177.8160  143.9510 N   0  0  0  0  0  2  0  0  0  0  0  0
  187.7250  173.3770  142.2420 C   0  0  0  0  0  2  0  0  0  0  0  0
  189.6980  172.8900  143.5070 O   0  0  0  0  0  1  0  0  0  0  0  0
  188.6030  172.3010  142.8770 C   0  0  0  0  0  2  0  0  0  0  0  0
  191.8710  170.7300  137.1340 C   0  0  0  0  0  2  0  0  0  0  0  0
  193.0720  170.4460  137.9720 C   0  0  0  0  0  0  0  0  0  0  0  0
  193.0150  170.5460  139.3640 C   0  0  0  0  0  3  0  0  0  0  0  0
  195.3300  169.8970  139.4800 C   0  0  0  0  0  3  0  0  0  0  0  0
  195.3670  169.8120  138.1230 N   0  0  0  0  0  0  0  0  0  0  0  0
  194.1490  170.2690  140.1410 C   0  0  0  0  0  0  0  0  0  0  0  0
  194.2710  170.0750  137.3640 C   0  0  0  0  0  3  0  0  0  0  0  0
  196.3760  168.9640  145.3260 O   0  0  0  0  0  1  0  0  0  0  0  0
  195.2990  170.2080  142.3720 C   0  0  0  0  0  3  0  0  0  0  0  0
  194.5700  170.4440  145.7270 C   0  0  0  0  0  2  0  0  0  0  0  0
  195.1540  170.2820  143.7420 C   0  0  0  0  0  0  0  0  0  0  0  0
  192.8410  170.5610  142.2850 C   0  0  0  0  0  3  0  0  0  0  0  0
  192.7190  170.6370  143.6950 C   0  0  0  0  0  3  0  0  0  0  0  0
  196.7470  171.2510  145.2510 O   0  0  0  0  0  1  0  0  0  0  0  0
  193.9060  170.4880  144.3850 C   0  0  0  0  0  0  0  0  0  0  0  0
  194.0970  170.3460  141.6210 C   0  0  0  0  0  0  0  0  0  0  0  0
  195.8300  170.2210  145.0600 C   0  0  0  0  0  0  0  0  0  0  0  0
  194.6640  174.7960  136.4150 C   0  0  0  0  0  2  0  0  0  0  0  0
  196.1050  175.0320  136.8450 C   0  0  0  0  0  2  0  0  0  0  0  0
  197.6240  173.7750  138.3130 C   0  0  0  0  0  3  0  0  0  0  0  0
  196.4240  174.3250  138.1220 C   0  0  0  0  0  3  0  0  0  0  0  0
  197.9300  173.0130  139.5610 C   0  0  0  0  0  2  0  0  0  0  0  0
  196.8890  173.2730  140.6380 C   0  0  0  0  0  2  0  0  0  0  0  0
  197.4790  174.1680  141.7210 C   0  0  0  0  0  2  0  0  0  0  0  0
  196.5190  175.2950  142.1270 C   0  0  1  0  0  3  0  0  0  0  0  0
  192.7190  175.5210  142.0900 C   0  0  0  0  0  2  0  0  0  0  0  0
  192.9830  174.3470  143.0170 C   0  0  0  0  0  2  0  0  0  0  0  0
  194.0680  176.0210  141.6070 C   0  0  2  0  0  3  0  0  0  0  0  0
  194.3470  173.8100  142.6370 C   0  0  0  0  0  2  0  0  0  0  0  0
  194.5570  175.1570  140.5950 O   0  0  0  0  0  0  0  0  0  0  0  0
  195.0330  174.9420  141.8990 C   0  0  2  0  0  0  0  0  0  0  0  0
  196.6520  174.6860  144.6010 C   0  0  0  0  0  1  0  0  0  0  0  0
  196.8020  175.7910  143.5590 C   0  0  2  0  0  3  0  0  0  0  0  0
  195.9780  176.8720  143.8900 O   0  0  0  0  0  0  0  0  0  0  0  0
  195.3180  176.4680  145.0570 C   0  0  0  0  0  2  0  0  0  0  0  0
  194.0270  176.9920  145.0640 O   0  0  0  0  0  1  0  0  0  0  0  0
  2  1  2  0  0  0  0
  2 12  1  0  0  0  0
  3 46  1  6  0  0  0
  3  1  1  0  0  0  0
  4 29  1  1  0  0  0
  4  2  1  0  0  0  0
  5  4  1  0  0  0  0
  5  3  1  0  0  0  0
  6 12  1  0  0  0  0
  6 11  1  0  0  0  0
  7 13  1  1  0  0  0
  8  7  1  0  0  0  0
  8 10  2  0  0  0  0
  9  6  2  0  0  0  0
 11  7  1  0  0  0  0
 12  8  1  0  0  0  0
 14 13  1  6  0  0  0
 14 26  1  0  0  0  0
 14 15  1  0  0  0  0
 15 17  1  0  0  0  0
 17 16  2  0  0  0  0
 19 20  1  0  0  0  0
 20 18  1  1  0  0  0
 21 17  1  6  0  0  0
 21 24  1  0  0  0  0
 22 19  2  0  0  0  0
 24 23  1  6  0  0  0
 24 20  1  0  0  0  0
 25 21  1  0  0  0  0
 25 19  1  0  0  0  0
 26 28  1  0  0  0  0
 28 27  1  0  0  0  0
 29 30  1  0  0  0  0
 30 31  1  0  0  0  0
 31 34  2  0  0  0  0
 32 34  1  0  0  0  0
 33 32  2  0  0  0  0
 34 44  1  0  0  0  0
 35 30  2  0  0  0  0
 35 33  1  0  0  0  0
 37 39  1  0  0  0  0
 39 43  2  0  0  0  0
 39 45  1  0  0  0  0
 40 41  2  0  0  0  0
 41 43  1  0  0  0  0
 43 38  1  0  0  0  0
 44 40  1  0  0  0  0
 44 37  2  0  0  0  0
 45 42  1  0  0  0  0
 45 36  1  0  0  0  0
 45 38  1  0  0  0  0
 46 47  1  0  0  0  0
 47 49  1  0  0  0  0
 48 50  1  0  0  0  0
 49 48  2  0  0  0  0
 50 51  1  0  0  0  0
 51 52  1  0  0  0  0
 53 52  1  1  0  0  0
 53 61  1  0  0  0  0
 54 55  1  0  0  0  0
 56 59  1  0  0  0  0
 56 54  1  1  0  0  0
 57 55  1  0  0  0  0
 58 56  1  0  0  0  0
 58 59  1  0  0  0  0
 59 53  1  1  0  0  0
 59 57  1  0  0  0  0
 61 62  1  0  0  0  0
 61 60  1  1  0  0  0
 62 63  1  0  0  0  0
 63 64  1  0  0  0  0
M  END
>  <MODEL>
8

>  <REMARK>
 VINA RESULT:      -5.6      3.129      8.935
  Name = 
  21 active torsions:
  status: ('A' for Active; 'I' for Inactive)
    1  A    between atoms: C_1  and  O_17
    2  A    between atoms: C_7  and  C_15
    3  A    between atoms: C_7  and  C_39
    4  A    between atoms: C_9  and  C_12
    5  A    between atoms: C_9  and  C_28
    6  A    between atoms: O_17  and  C_29
    7  A    between atoms: C_19  and  N_61
    8  A    between atoms: C_25  and  C_44
    9  A    between atoms: N_27  and  C_28
   10  A    between atoms: C_28  and  C_54
   11  A    between atoms: C_29  and  C_63
   12  A    between atoms: C_31  and  C_48
   13  A    between atoms: C_32  and  C_62
   14  A    between atoms: C_35  and  C_48
   15  A    between atoms: C_35  and  C_60
   16  A    between atoms: C_40  and  C_52
   17  A    between atoms: C_41  and  C_56
   18  A    between atoms: C_44  and  C_52
   19  A    between atoms: C_53  and  C_63
   20  A    between atoms: C_54  and  C_57
   21  A    between atoms: C_60  and  C_63
                            x       y       z     vdW  Elec       q    Type
                         _______ _______ _______ _____ _____    ______ ____

>  <TORSDO>
F 21

$$$$
=
 OpenBabel11042414313D

 64 71  0  0  1  0  0  0  0  0999 V2000
  188.2200  176.0520  145.3980 C   0  0  0  0  0  3  0  0  0  0  0  0
  189.5070  175.9760  145.0950 C   0  0  0  0  0  0  0  0  0  0  0  0
  187.8810  176.8500  146.6040 C   0  0  1  0  0  3  0  0  0  0  0  0
  190.4380  176.6870  146.0130 C   0  0  1  0  0  3  0  0  0  0  0  0
  189.4150  177.6830  147.1460 S   0  0  0  0  0  0  0  0  0  0  0  0
  190.3040  175.8060  142.6590 C   0  0  0  0  0  0  0  0  0  0  0  0
  190.6630  173.5470  142.3760 C   0  0  2  0  0  3  0  0  0  0  0  0
  190.1910  173.8730  143.7620 C   0  0  0  0  0  0  0  0  0  0  0  0
  190.2420  177.0310  142.3710 O   0  0  0  0  0  0  0  0  0  0  0  0
  190.0420  173.0240  144.6850 O   0  0  0  0  0  0  0  0  0  0  0  0
  190.6830  174.8280  141.7490 O   0  0  0  0  0  0  0  0  0  0  0  0
  189.9770  175.2720  143.9330 N   0  0  0  0  0  0  0  0  0  0  0  0
  189.6760  172.6360  141.6630 C   0  0  0  0  0  2  0  0  0  0  0  0
  190.4080  171.4730  141.0130 C   0  0  1  0  0  3  0  0  0  0  0  0
  190.6610  171.7600  139.6100 N   0  0  0  0  0  2  0  0  0  0  0  0
  188.4060  172.0700  139.0900 O   0  0  0  0  0  0  0  0  0  0  0  0
  189.6020  172.0360  138.6900 C   0  0  0  0  0  0  0  0  0  0  0  0
  191.6090  169.7920  135.3390 O   0  0  0  0  0  1  0  0  0  0  0  0
  191.8770  172.0370  136.0110 C   0  0  0  0  0  0  0  0  0  0  0  0
  190.9830  171.0420  135.3840 C   0  0  2  0  0  3  0  0  0  0  0  0
  189.9240  172.2740  137.2430 C   0  0  2  0  0  3  0  0  0  0  0  0
  193.0500  172.2670  135.6170 O   0  0  0  0  0  0  0  0  0  0  0  0
  189.6760  169.8470  137.0450 O   0  0  0  0  0  1  0  0  0  0  0  0
  189.7580  171.0410  136.3180 C   0  0  2  0  0  3  0  0  0  0  0  0
  191.2920  172.7340  137.0910 N   0  0  0  0  0  2  0  0  0  0  0  0
  191.7170  171.1400  141.7430 C   0  0  0  0  0  2  0  0  0  0  0  0
  191.8190  168.7620  141.4860 O   0  0  0  0  0  1  0  0  0  0  0  0
  191.6810  169.7780  142.4300 C   0  0  0  0  0  2  0  0  0  0  0  0
  191.2480  175.6640  146.8000 C   0  0  0  0  0  2  0  0  0  0  0  0
  192.6290  175.5200  146.2530 C   0  0  0  0  0  0  0  0  0  0  0  0
  193.2140  174.2610  146.1080 C   0  0  0  0  0  3  0  0  0  0  0  0
  195.1920  175.3100  145.2230 C   0  0  0  0  0  3  0  0  0  0  0  0
  194.6060  176.5280  145.3780 N   0  0  0  0  0  0  0  0  0  0  0  0
  194.5100  174.1380  145.5860 C   0  0  0  0  0  0  0  0  0  0  0  0
  193.3490  176.6540  145.8800 C   0  0  0  0  0  3  0  0  0  0  0  0
  194.0350  168.4020  144.9380 O   0  0  0  0  0  1  0  0  0  0  0  0
  194.3920  171.7600  144.7860 C   0  0  0  0  0  3  0  0  0  0  0  0
  196.3290  168.9190  144.6540 C   0  0  0  0  0  2  0  0  0  0  0  0
  195.0500  170.5540  144.6670 C   0  0  0  0  0  0  0  0  0  0  0  0
  196.4850  172.5810  145.8450 C   0  0  0  0  0  3  0  0  0  0  0  0
  197.1410  171.3320  145.7070 C   0  0  0  0  0  3  0  0  0  0  0  0
  194.8050  169.0190  142.8410 O   0  0  0  0  0  1  0  0  0  0  0  0
  196.3810  170.3430  145.1140 C   0  0  0  0  0  0  0  0  0  0  0  0
  195.1360  172.8060  145.4030 C   0  0  0  0  0  0  0  0  0  0  0  0
  194.9720  169.1440  144.2180 C   0  0  0  0  0  0  0  0  0  0  0  0
  186.8200  177.8830  146.2370 C   0  0  0  0  0  2  0  0  0  0  0  0
  185.4150  177.3320  146.4290 C   0  0  0  0  0  2  0  0  0  0  0  0
  184.9360  178.2880  144.2150 C   0  0  0  0  0  3  0  0  0  0  0  0
  184.6100  177.4180  145.1730 C   0  0  0  0  0  3  0  0  0  0  0  0
  184.1010  178.4230  142.9840 C   0  0  0  0  0  2  0  0  0  0  0  0
  182.7320  179.0000  143.3050 C   0  0  0  0  0  2  0  0  0  0  0  0
  181.6850  178.3880  142.3830 C   0  0  0  0  0  2  0  0  0  0  0  0
  180.4600  179.2970  142.2130 C   0  0  1  0  0  3  0  0  0  0  0  0
  178.4630  180.2900  139.1270 C   0  0  0  0  0  2  0  0  0  0  0  0
  178.4490  178.7720  139.0710 C   0  0  0  0  0  2  0  0  0  0  0  0
  179.2740  180.6840  140.3490 C   0  0  2  0  0  3  0  0  0  0  0  0
  179.6600  178.3110  139.8540 C   0  0  0  0  0  2  0  0  0  0  0  0
  180.6550  180.5460  140.0630 O   0  0  0  0  0  0  0  0  0  0  0  0
  180.0360  179.4810  140.7400 C   0  0  2  0  0  0  0  0  0  0  0  0
  177.9300  179.1460  142.5020 C   0  0  0  0  0  1  0  0  0  0  0  0
  179.2940  178.8530  143.1190 C   0  0  2  0  0  3  0  0  0  0  0  0
  179.3820  179.4460  144.3820 O   0  0  0  0  0  0  0  0  0  0  0  0
  178.3060  178.9100  145.1000 C   0  0  0  0  0  2  0  0  0  0  0  0
  178.4740  177.5320  145.2270 O   0  0  0  0  0  1  0  0  0  0  0  0
  1  3  1  0  0  0  0
  2  1  2  0  0  0  0
  2  4  1  0  0  0  0
  3 46  1  6  0  0  0
  3  5  1  0  0  0  0
  4 29  1  1  0  0  0
  4  5  1  0  0  0  0
  6 12  1  0  0  0  0
  7 13  1  6  0  0  0
  7  8  1  0  0  0  0
  8 12  1  0  0  0  0
  8 10  2  0  0  0  0
  9  6  2  0  0  0  0
 11  7  1  0  0  0  0
 11  6  1  0  0  0  0
 12  2  1  0  0  0  0
 14 13  1  1  0  0  0
 14 26  1  0  0  0  0
 15 14  1  0  0  0  0
 17 16  2  0  0  0  0
 17 15  1  0  0  0  0
 19 25  1  0  0  0  0
 20 18  1  1  0  0  0
 20 19  1  0  0  0  0
 20 24  1  0  0  0  0
 21 17  1  1  0  0  0
 22 19  2  0  0  0  0
 24 23  1  1  0  0  0
 24 21  1  0  0  0  0
 25 21  1  0  0  0  0
 26 28  1  0  0  0  0
 27 28  1  0  0  0  0
 30 29  1  0  0  0  0
 31 30  1  0  0  0  0
 32 33  2  0  0  0  0
 32 34  1  0  0  0  0
 33 35  1  0  0  0  0
 34 31  2  0  0  0  0
 35 30  2  0  0  0  0
 37 44  1  0  0  0  0
 38 43  1  0  0  0  0
 39 37  2  0  0  0  0
 39 43  1  0  0  0  0
 41 40  1  0  0  0  0
 42 45  1  0  0  0  0
 43 41  2  0  0  0  0
 44 34  1  0  0  0  0
 44 40  2  0  0  0  0
 45 38  1  0  0  0  0
 45 39  1  0  0  0  0
 45 36  1  0  0  0  0
 46 47  1  0  0  0  0
 48 49  2  0  0  0  0
 49 47  1  0  0  0  0
 50 51  1  0  0  0  0
 50 48  1  0  0  0  0
 52 51  1  0  0  0  0
 53 52  1  6  0  0  0
 53 61  1  0  0  0  0
 55 54  1  0  0  0  0
 55 57  1  0  0  0  0
 56 54  1  6  0  0  0
 56 59  1  0  0  0  0
 57 59  1  0  0  0  0
 58 56  1  0  0  0  0
 58 59  1  0  0  0  0
 59 53  1  1  0  0  0
 61 60  1  6  0  0  0
 61 62  1  0  0  0  0
 62 63  1  0  0  0  0
 63 64  1  0  0  0  0
M  END
>  <MODEL>
9

>  <REMARK>
 VINA RESULT:      -5.6      3.126      5.181
  Name = 
  21 active torsions:
  status: ('A' for Active; 'I' for Inactive)
    1  A    between atoms: C_1  and  O_17
    2  A    between atoms: C_7  and  C_15
    3  A    between atoms: C_7  and  C_39
    4  A    between atoms: C_9  and  C_12
    5  A    between atoms: C_9  and  C_28
    6  A    between atoms: O_17  and  C_29
    7  A    between atoms: C_19  and  N_61
    8  A    between atoms: C_25  and  C_44
    9  A    between atoms: N_27  and  C_28
   10  A    between atoms: C_28  and  C_54
   11  A    between atoms: C_29  and  C_63
   12  A    between atoms: C_31  and  C_48
   13  A    between atoms: C_32  and  C_62
   14  A    between atoms: C_35  and  C_48
   15  A    between atoms: C_35  and  C_60
   16  A    between atoms: C_40  and  C_52
   17  A    between atoms: C_41  and  C_56
   18  A    between atoms: C_44  and  C_52
   19  A    between atoms: C_53  and  C_63
   20  A    between atoms: C_54  and  C_57
   21  A    between atoms: C_60  and  C_63
                            x       y       z     vdW  Elec       q    Type
                         _______ _______ _______ _____ _____    ______ ____

>  <TORSDO>
F 21

$$$$
