=
 OpenBabel11042414523D

 32 34  0  0  1  0  0  0  0  0999 V2000
  187.4350  177.7660  147.1550 C   0  0  0  0  0  2  0  0  0  0  0  0
  186.2540  178.2910  147.9580 C   0  0  0  0  0  2  0  0  0  0  0  0
  185.1540  178.7580  147.0140 C   0  0  0  0  0  2  0  0  0  0  0  0
  184.7520  177.6200  146.0680 C   0  0  0  0  0  2  0  0  0  0  0  0
  185.8960  177.0980  145.3040 N   0  0  0  0  0  0  0  0  0  0  0  0
  186.9550  176.6460  146.2290 C   0  0  1  0  0  3  0  0  0  0  0  0
  186.3820  178.1320  144.3890 C   0  0  0  0  0  2  0  0  0  0  0  0
  185.6290  178.0460  143.0770 C   0  0  0  0  0  2  0  0  0  0  0  0
  186.5430  178.3040  141.9770 N   0  0  0  0  0  2  0  0  0  0  0  0
  187.7050  177.4510  142.1710 C   0  0  2  0  0  3  0  0  0  0  0  0
  188.9740  178.2480  141.9130 C   0  0  0  0  0  2  0  0  0  0  0  0
  190.0420  177.8850  142.9270 C   0  0  0  0  0  1  0  0  0  0  0  0
  187.6250  176.2210  141.2670 C   0  0  0  0  0  2  0  0  0  0  0  0
  187.7940  174.9970  142.0380 N   0  0  0  0  0  2  0  0  0  0  0  0
  188.9410  172.3710  141.7880 C   0  0  0  0  0  1  0  0  0  0  0  0
  190.3850  174.6240  141.7220 O   0  0  0  0  0  0  0  0  0  0  0  0
  188.9400  174.1720  139.7960 O   0  0  0  0  0  0  0  0  0  0  0  0
  189.0550  174.0760  141.2920 S   0  0  0  0  0  0  0  0  0  0  0  0
  188.1320  176.0200  145.4880 C   0  0  0  0  0  2  0  0  0  0  0  0
  189.3430  175.9360  146.4000 C   0  0  0  0  0  2  0  0  0  0  0  0
  192.7530  174.1940  145.3640 C   0  0  2  0  0  3  0  0  0  0  0  0
  193.6540  174.8170  144.3510 C   0  0  0  0  0  3  0  0  0  0  0  0
  195.6070  176.3190  143.3680 Cl  0  0  0  0  0  0  0  0  0  0  0  0
  192.2500  176.2300  146.6790 C   0  0  0  0  0  3  0  0  0  0  0  0
  192.0740  173.0400  144.7640 N   0  0  0  0  0  0  0  0  0  0  0  0
  193.6650  176.6090  146.8500 C   0  0  0  0  0  3  0  0  0  0  0  0
  194.6490  176.4210  145.9620 C   0  0  0  0  0  3  0  0  0  0  0  0
  191.7960  175.1960  145.9610 C   0  0  0  0  0  0  0  0  0  0  0  0
  190.3410  174.9690  145.8440 C   0  0  0  0  0  0  0  0  0  0  0  0
  194.5160  175.7950  144.6320 C   0  0  0  0  0  0  0  0  0  0  0  0
  189.8970  173.8680  145.2490 C   0  0  0  0  0  3  0  0  0  0  0  0
  190.8060  172.9010  144.7140 N   0  0  0  0  0  0  0  0  0  0  0  0
  1  2  1  0  0  0  0
  3  2  1  0  0  0  0
  4  3  1  0  0  0  0
  5  4  1  0  0  0  0
  5  6  1  0  0  0  0
  6 19  1  6  0  0  0
  6  1  1  0  0  0  0
  7  5  1  0  0  0  0
  8  7  1  0  0  0  0
  9 10  1  0  0  0  0
  9  8  1  0  0  0  0
 10 13  1  6  0  0  0
 11 10  1  0  0  0  0
 11 12  1  0  0  0  0
 13 14  1  0  0  0  0
 17 18  2  0  0  0  0
 18 16  2  0  0  0  0
 18 15  1  0  0  0  0
 18 14  1  0  0  0  0
 19 20  1  0  0  0  0
 21 22  1  6  0  0  0
 21 28  1  0  0  0  0
 22 30  2  0  0  0  0
 23 30  1  0  0  0  0
 24 26  1  0  0  0  0
 25 21  1  0  0  0  0
 27 26  2  0  0  0  0
 28 24  2  0  0  0  0
 29 28  1  0  0  0  0
 29 20  1  0  0  0  0
 30 27  1  0  0  0  0
 31 29  2  0  0  0  0
 32 25  2  0  0  0  0
 32 31  1  0  0  0  0
M  END
>  <MODEL>
1

>  <REMARK>
 VINA RESULT:      -6.8      0.000      0.000
  Name = 
  11 active torsions:
  status: ('A' for Active; 'I' for Inactive)
    1  A    between atoms: C_3  and  N_15
    2  A    between atoms: C_3  and  C_16
    3  A    between atoms: C_7  and  N_12
    4  A    between atoms: C_7  and  C_26
    5  A    between atoms: N_12  and  S_23
    6  A    between atoms: C_14  and  C_26
    7  A    between atoms: C_16  and  N_31
    8  A    between atoms: C_18  and  C_24
    9  A    between atoms: C_18  and  C_27
   10  A    between atoms: C_26  and  N_31
   11  A    between atoms: C_27  and  C_32
                            x       y       z     vdW  Elec       q    Type
                         _______ _______ _______ _____ _____    ______ ____

>  <TORSDO>
F 11

$$$$
=
 OpenBabel11042414523D

 32 34  0  0  1  0  0  0  0  0999 V2000
  187.3460  177.7940  147.3930 C   0  0  0  0  0  2  0  0  0  0  0  0
  186.1390  178.3850  148.1070 C   0  0  0  0  0  2  0  0  0  0  0  0
  185.1230  178.8790  147.0850 C   0  0  0  0  0  2  0  0  0  0  0  0
  184.7350  177.7380  146.1350 C   0  0  0  0  0  2  0  0  0  0  0  0
  185.9020  177.1520  145.4580 N   0  0  0  0  0  0  0  0  0  0  0  0
  186.8780  176.6750  146.4590 C   0  0  1  0  0  3  0  0  0  0  0  0
  186.4910  178.1440  144.5580 C   0  0  0  0  0  2  0  0  0  0  0  0
  186.2040  177.7620  143.1200 C   0  0  0  0  0  2  0  0  0  0  0  0
  187.3430  178.1130  142.2890 N   0  0  0  0  0  2  0  0  0  0  0  0
  188.3580  177.0920  142.4930 C   0  0  2  0  0  3  0  0  0  0  0  0
  189.7390  177.7300  142.4690 C   0  0  0  0  0  2  0  0  0  0  0  0
  190.2390  177.9610  143.8820 C   0  0  0  0  0  1  0  0  0  0  0  0
  188.2330  175.9930  141.4380 C   0  0  0  0  0  2  0  0  0  0  0  0
  189.3040  175.0150  141.5760 N   0  0  0  0  0  2  0  0  0  0  0  0
  190.3050  172.6250  140.3270 C   0  0  0  0  0  1  0  0  0  0  0  0
  188.2800  174.0690  139.3370 O   0  0  0  0  0  0  0  0  0  0  0  0
  187.8470  172.8090  141.3940 O   0  0  0  0  0  0  0  0  0  0  0  0
  188.8660  173.6230  140.6460 S   0  0  0  0  0  0  0  0  0  0  0  0
  188.0720  175.9850  145.8090 C   0  0  0  0  0  2  0  0  0  0  0  0
  188.8520  175.1950  146.8450 C   0  0  0  0  0  2  0  0  0  0  0  0
  192.6110  174.9470  145.6060 C   0  0  2  0  0  3  0  0  0  0  0  0
  193.4290  173.7290  145.8780 C   0  0  0  0  0  3  0  0  0  0  0  0
  194.4930  171.3280  145.5020 Cl  0  0  0  0  0  0  0  0  0  0  0  0
  190.5350  173.8140  144.8760 C   0  0  0  0  0  3  0  0  0  0  0  0
  193.0560  176.0360  146.4820 N   0  0  0  0  0  0  0  0  0  0  0  0
  191.2140  172.9510  143.8920 C   0  0  0  0  0  3  0  0  0  0  0  0
  192.4410  172.4310  144.0080 C   0  0  0  0  0  3  0  0  0  0  0  0
  191.1320  174.6700  145.7140 C   0  0  0  0  0  0  0  0  0  0  0  0
  190.3190  175.4370  146.6810 C   0  0  0  0  0  0  0  0  0  0  0  0
  193.3640  172.6170  145.1440 C   0  0  0  0  0  0  0  0  0  0  0  0
  190.8940  176.3840  147.4120 C   0  0  0  0  0  3  0  0  0  0  0  0
  192.2900  176.6690  147.2840 N   0  0  0  0  0  0  0  0  0  0  0  0
  1  2  1  0  0  0  0
  3  2  1  0  0  0  0
  4  3  1  0  0  0  0
  5  4  1  0  0  0  0
  5  6  1  0  0  0  0
  6 19  1  6  0  0  0
  6  1  1  0  0  0  0
  7  5  1  0  0  0  0
  8  7  1  0  0  0  0
  9 10  1  0  0  0  0
  9  8  1  0  0  0  0
 10 13  1  6  0  0  0
 11 10  1  0  0  0  0
 11 12  1  0  0  0  0
 13 14  1  0  0  0  0
 15 18  1  0  0  0  0
 16 18  2  0  0  0  0
 18 17  2  0  0  0  0
 18 14  1  0  0  0  0
 19 20  1  0  0  0  0
 21 28  1  0  0  0  0
 21 22  1  1  0  0  0
 21 25  1  0  0  0  0
 24 28  2  0  0  0  0
 25 32  2  0  0  0  0
 26 27  2  0  0  0  0
 26 24  1  0  0  0  0
 27 30  1  0  0  0  0
 28 29  1  0  0  0  0
 29 20  1  0  0  0  0
 29 31  2  0  0  0  0
 30 23  1  0  0  0  0
 30 22  2  0  0  0  0
 32 31  1  0  0  0  0
M  END
>  <MODEL>
2

>  <REMARK>
 VINA RESULT:      -6.2      1.837      2.437
  Name = 
  11 active torsions:
  status: ('A' for Active; 'I' for Inactive)
    1  A    between atoms: C_3  and  N_15
    2  A    between atoms: C_3  and  C_16
    3  A    between atoms: C_7  and  N_12
    4  A    between atoms: C_7  and  C_26
    5  A    between atoms: N_12  and  S_23
    6  A    between atoms: C_14  and  C_26
    7  A    between atoms: C_16  and  N_31
    8  A    between atoms: C_18  and  C_24
    9  A    between atoms: C_18  and  C_27
   10  A    between atoms: C_26  and  N_31
   11  A    between atoms: C_27  and  C_32
                            x       y       z     vdW  Elec       q    Type
                         _______ _______ _______ _____ _____    ______ ____

>  <TORSDO>
F 11

$$$$
=
 OpenBabel11042414523D

 32 34  0  0  1  0  0  0  0  0999 V2000
  188.7780  175.0400  143.6970 C   0  0  0  0  0  2  0  0  0  0  0  0
  188.9940  173.7530  142.9140 C   0  0  0  0  0  2  0  0  0  0  0  0
  188.1950  173.7950  141.6180 C   0  0  0  0  0  2  0  0  0  0  0  0
  188.5750  175.0400  140.8060 C   0  0  0  0  0  2  0  0  0  0  0  0
  188.3850  176.2840  141.5680 N   0  0  0  0  0  0  0  0  0  0  0  0
  189.1660  176.2330  142.8210 C   0  0  1  0  0  3  0  0  0  0  0  0
  186.9580  176.4820  141.8270 C   0  0  0  0  0  2  0  0  0  0  0  0
  186.3830  177.4440  140.8070 C   0  0  0  0  0  2  0  0  0  0  0  0
  185.6710  178.5090  141.4930 N   0  0  0  0  0  2  0  0  0  0  0  0
  184.4580  177.9290  142.0490 C   0  0  2  0  0  3  0  0  0  0  0  0
  183.3490  177.9660  141.0100 C   0  0  0  0  0  2  0  0  0  0  0  0
  182.0620  178.4790  141.6280 C   0  0  0  0  0  1  0  0  0  0  0  0
  184.0500  178.6640  143.3260 C   0  0  0  0  0  2  0  0  0  0  0  0
  185.2220  179.1340  144.0530 N   0  0  0  0  0  2  0  0  0  0  0  0
  185.7330  176.8410  145.7120 C   0  0  0  0  0  1  0  0  0  0  0  0
  183.6910  178.5250  146.1120 O   0  0  0  0  0  0  0  0  0  0  0  0
  185.9400  179.3700  146.5930 O   0  0  0  0  0  0  0  0  0  0  0  0
  185.1250  178.5120  145.6650 S   0  0  0  0  0  0  0  0  0  0  0  0
  189.0680  177.5330  143.6090 C   0  0  0  0  0  2  0  0  0  0  0  0
  190.4520  178.0070  144.0170 C   0  0  0  0  0  2  0  0  0  0  0  0
  192.5620  175.9950  146.7060 C   0  0  0  0  0  0  0  0  0  0  0  0
  192.8810  174.5510  146.5050 C   0  0  0  0  0  3  0  0  0  0  0  0
  194.2210  172.3990  145.7250 Cl  0  0  0  0  0  0  0  0  0  0  0  0
  193.0910  176.7880  144.4210 C   0  0  0  0  0  3  0  0  0  0  0  0
  191.5250  176.1250  147.7340 N   0  0  0  0  0  0  0  0  0  0  0  0
  194.4250  176.1600  144.3870 C   0  0  0  0  0  3  0  0  0  0  0  0
  194.7700  175.0010  144.9590 C   0  0  0  0  0  3  0  0  0  0  0  0
  192.1970  176.6790  145.4110 C   0  0  0  0  0  0  0  0  0  0  0  0
  190.8770  177.3300  145.2810 C   0  0  1  0  0  3  0  0  0  0  0  0
  193.8850  174.1170  145.7420 C   0  0  0  0  0  0  0  0  0  0  0  0
  190.0480  177.3370  146.3170 C   0  0  0  0  0  3  0  0  0  0  0  0
  190.4090  176.7190  147.5560 N   0  0  0  0  0  0  0  0  0  0  0  0
  2  1  1  0  0  0  0
  3  2  1  0  0  0  0
  4  5  1  0  0  0  0
  4  3  1  0  0  0  0
  5  7  1  0  0  0  0
  5  6  1  0  0  0  0
  6 19  1  1  0  0  0
  6  1  1  0  0  0  0
  8  9  1  0  0  0  0
  8  7  1  0  0  0  0
  9 10  1  0  0  0  0
 10 11  1  6  0  0  0
 10 13  1  0  0  0  0
 11 12  1  0  0  0  0
 13 14  1  0  0  0  0
 14 18  1  0  0  0  0
 18 15  1  0  0  0  0
 18 16  2  0  0  0  0
 18 17  2  0  0  0  0
 19 20  1  0  0  0  0
 21 25  2  0  0  0  0
 22 21  1  0  0  0  0
 23 30  1  0  0  0  0
 24 28  2  0  0  0  0
 26 24  1  0  0  0  0
 26 27  2  0  0  0  0
 27 30  1  0  0  0  0
 28 21  1  0  0  0  0
 29 20  1  1  0  0  0
 29 28  1  0  0  0  0
 29 31  1  0  0  0  0
 30 22  2  0  0  0  0
 31 32  2  0  0  0  0
 32 25  1  0  0  0  0
M  END
>  <MODEL>
3

>  <REMARK>
 VINA RESULT:      -6.2      3.282      4.991
  Name = 
  11 active torsions:
  status: ('A' for Active; 'I' for Inactive)
    1  A    between atoms: C_3  and  N_15
    2  A    between atoms: C_3  and  C_16
    3  A    between atoms: C_7  and  N_12
    4  A    between atoms: C_7  and  C_26
    5  A    between atoms: N_12  and  S_23
    6  A    between atoms: C_14  and  C_26
    7  A    between atoms: C_16  and  N_31
    8  A    between atoms: C_18  and  C_24
    9  A    between atoms: C_18  and  C_27
   10  A    between atoms: C_26  and  N_31
   11  A    between atoms: C_27  and  C_32
                            x       y       z     vdW  Elec       q    Type
                         _______ _______ _______ _____ _____    ______ ____

>  <TORSDO>
F 11

$$$$
=
 OpenBabel11042414523D

 32 34  0  0  1  0  0  0  0  0999 V2000
  190.3410  172.8540  140.7100 C   0  0  0  0  0  2  0  0  0  0  0  0
  190.8670  171.4520  140.9860 C   0  0  0  0  0  2  0  0  0  0  0  0
  191.6980  171.4530  142.2630 C   0  0  0  0  0  2  0  0  0  0  0  0
  190.8680  172.0020  143.4300 C   0  0  0  0  0  2  0  0  0  0  0  0
  190.3430  173.3490  143.1590 N   0  0  0  0  0  0  0  0  0  0  0  0
  189.5380  173.3360  141.9200 C   0  0  1  0  0  3  0  0  0  0  0  0
  191.4560  174.2960  143.0700 C   0  0  0  0  0  2  0  0  0  0  0  0
  191.4110  175.2460  144.2490 C   0  0  0  0  0  2  0  0  0  0  0  0
  192.2010  174.7010  145.3410 N   0  0  0  0  0  2  0  0  0  0  0  0
  192.7850  175.8260  146.0550 C   0  0  2  0  0  3  0  0  0  0  0  0
  191.7540  176.4280  146.9950 C   0  0  0  0  0  2  0  0  0  0  0  0
  191.2140  175.3680  147.9380 C   0  0  0  0  0  1  0  0  0  0  0  0
  193.3180  176.8670  145.0710 C   0  0  0  0  0  2  0  0  0  0  0  0
  194.7730  176.9320  145.1190 N   0  0  0  0  0  2  0  0  0  0  0  0
  196.9440  176.7580  143.2410 C   0  0  0  0  0  1  0  0  0  0  0  0
  194.4050  176.1910  142.6150 O   0  0  0  0  0  0  0  0  0  0  0  0
  195.5630  174.6200  144.0950 O   0  0  0  0  0  0  0  0  0  0  0  0
  195.3830  176.0710  143.7480 S   0  0  0  0  0  0  0  0  0  0  0  0
  188.9030  174.6920  141.6370 C   0  0  0  0  0  2  0  0  0  0  0  0
  187.5400  174.7840  142.3010 C   0  0  0  0  0  2  0  0  0  0  0  0
  186.9040  178.3180  143.9860 C   0  0  0  0  0  0  0  0  0  0  0  0
  185.8580  178.4890  145.0360 C   0  0  0  0  0  3  0  0  0  0  0  0
  184.7700  178.5730  147.4540 Cl  0  0  0  0  0  0  0  0  0  0  0  0
  187.9070  176.2200  144.8350 C   0  0  0  0  0  3  0  0  0  0  0  0
  186.4370  178.9210  142.7330 N   0  0  0  0  0  0  0  0  0  0  0  0
  188.0890  176.7270  146.2080 C   0  0  0  0  0  3  0  0  0  0  0  0
  187.2800  177.5750  146.8530 C   0  0  0  0  0  3  0  0  0  0  0  0
  187.3160  176.8750  143.8290 C   0  0  0  0  0  0  0  0  0  0  0  0
  187.1650  176.2160  142.5140 C   0  0  0  0  0  0  0  0  0  0  0  0
  186.0430  178.1770  146.3190 C   0  0  2  0  0  3  0  0  0  0  0  0
  186.7060  176.9150  141.4830 C   0  0  0  0  0  3  0  0  0  0  0  0
  186.3490  178.2930  141.6250 N   0  0  0  0  0  0  0  0  0  0  0  0
  1  2  1  0  0  0  0
  1  6  1  0  0  0  0
  2  3  1  0  0  0  0
  3  4  1  0  0  0  0
  5  4  1  0  0  0  0
  6 19  1  6  0  0  0
  6  5  1  0  0  0  0
  7  5  1  0  0  0  0
  7  8  1  0  0  0  0
  8  9  1  0  0  0  0
  9 10  1  0  0  0  0
 10 13  1  6  0  0  0
 10 11  1  0  0  0  0
 11 12  1  0  0  0  0
 13 14  1  0  0  0  0
 15 18  1  0  0  0  0
 16 18  2  0  0  0  0
 18 17  2  0  0  0  0
 18 14  1  0  0  0  0
 19 20  1  0  0  0  0
 20 29  1  0  0  0  0
 21 22  2  0  0  0  0
 22 30  1  0  0  0  0
 24 26  1  0  0  0  0
 25 21  1  0  0  0  0
 26 27  2  0  0  0  0
 28 21  1  0  0  0  0
 28 24  2  0  0  0  0
 29 28  1  0  0  0  0
 30 27  1  0  0  0  0
 30 23  1  1  0  0  0
 31 32  1  0  0  0  0
 31 29  2  0  0  0  0
 32 25  2  0  0  0  0
M  END
>  <MODEL>
4

>  <REMARK>
 VINA RESULT:      -6.2      3.257      7.395
  Name = 
  11 active torsions:
  status: ('A' for Active; 'I' for Inactive)
    1  A    between atoms: C_3  and  N_15
    2  A    between atoms: C_3  and  C_16
    3  A    between atoms: C_7  and  N_12
    4  A    between atoms: C_7  and  C_26
    5  A    between atoms: N_12  and  S_23
    6  A    between atoms: C_14  and  C_26
    7  A    between atoms: C_16  and  N_31
    8  A    between atoms: C_18  and  C_24
    9  A    between atoms: C_18  and  C_27
   10  A    between atoms: C_26  and  N_31
   11  A    between atoms: C_27  and  C_32
                            x       y       z     vdW  Elec       q    Type
                         _______ _______ _______ _____ _____    ______ ____

>  <TORSDO>
F 11

$$$$
=
 OpenBabel11042414523D

 32 34  0  0  1  0  0  0  0  0999 V2000
  188.8840  173.1860  139.1930 C   0  0  0  0  0  2  0  0  0  0  0  0
  189.1480  171.7110  138.9280 C   0  0  0  0  0  2  0  0  0  0  0  0
  190.4970  171.3140  139.5120 C   0  0  0  0  0  2  0  0  0  0  0  0
  190.5440  171.6520  141.0080 C   0  0  0  0  0  2  0  0  0  0  0  0
  190.2700  173.0740  141.2680 N   0  0  0  0  0  0  0  0  0  0  0  0
  188.9590  173.4470  140.6990 C   0  0  1  0  0  3  0  0  0  0  0  0
  191.3520  173.8870  140.7110 C   0  0  0  0  0  2  0  0  0  0  0  0
  191.9580  174.7450  141.8030 C   0  0  0  0  0  2  0  0  0  0  0  0
  191.5900  174.2080  143.1020 N   0  0  0  0  0  2  0  0  0  0  0  0
  191.0880  175.3160  143.9010 C   0  0  2  0  0  3  0  0  0  0  0  0
  191.2350  176.6150  143.1250 C   0  0  0  0  0  2  0  0  0  0  0  0
  191.2850  177.7970  144.0760 C   0  0  0  0  0  1  0  0  0  0  0  0
  191.8180  175.3830  145.2420 C   0  0  0  0  0  2  0  0  0  0  0  0
  193.0010  174.5320  145.2350 N   0  0  0  0  0  2  0  0  0  0  0  0
  194.0610  176.8390  146.5850 C   0  0  0  0  0  1  0  0  0  0  0  0
  194.6920  176.1850  144.0680 O   0  0  0  0  0  0  0  0  0  0  0  0
  195.5700  174.7450  145.8450 O   0  0  0  0  0  0  0  0  0  0  0  0
  194.3860  175.5560  145.3970 S   0  0  0  0  0  0  0  0  0  0  0  0
  188.5910  174.8930  141.0130 C   0  0  0  0  0  2  0  0  0  0  0  0
  187.7140  174.9560  142.2520 C   0  0  0  0  0  2  0  0  0  0  0  0
  186.7130  178.4140  143.9170 C   0  0  0  0  0  0  0  0  0  0  0  0
  185.6250  178.4870  144.9360 C   0  0  0  0  0  3  0  0  0  0  0  0
  184.4640  178.4650  147.3210 Cl  0  0  0  0  0  0  0  0  0  0  0  0
  187.8770  176.4130  144.7950 C   0  0  0  0  0  3  0  0  0  0  0  0
  186.2300  178.9750  142.6510 N   0  0  0  0  0  0  0  0  0  0  0  0
  187.9710  176.9300  146.1730 C   0  0  0  0  0  3  0  0  0  0  0  0
  187.0710  177.7000  146.7940 C   0  0  0  0  0  3  0  0  0  0  0  0
  187.2580  177.0140  143.7720 C   0  0  0  0  0  0  0  0  0  0  0  0
  187.2060  176.3480  142.4540 C   0  0  0  0  0  0  0  0  0  0  0  0
  185.8000  178.1890  146.2240 C   0  0  2  0  0  3  0  0  0  0  0  0
  186.7160  177.0040  141.4090 C   0  0  0  0  0  3  0  0  0  0  0  0
  186.2320  178.3440  141.5410 N   0  0  0  0  0  0  0  0  0  0  0  0
  1  6  1  0  0  0  0
  2  1  1  0  0  0  0
  2  3  1  0  0  0  0
  3  4  1  0  0  0  0
  4  5  1  0  0  0  0
  6 19  1  6  0  0  0
  6  5  1  0  0  0  0
  7  5  1  0  0  0  0
  7  8  1  0  0  0  0
  8  9  1  0  0  0  0
  9 10  1  0  0  0  0
 10 11  1  6  0  0  0
 10 13  1  0  0  0  0
 11 12  1  0  0  0  0
 14 13  1  0  0  0  0
 14 18  1  0  0  0  0
 16 18  2  0  0  0  0
 18 17  2  0  0  0  0
 18 15  1  0  0  0  0
 19 20  1  0  0  0  0
 20 29  1  0  0  0  0
 21 22  2  0  0  0  0
 22 30  1  0  0  0  0
 24 26  1  0  0  0  0
 25 21  1  0  0  0  0
 26 27  2  0  0  0  0
 28 21  1  0  0  0  0
 28 24  2  0  0  0  0
 29 28  1  0  0  0  0
 30 27  1  0  0  0  0
 30 23  1  1  0  0  0
 31 32  1  0  0  0  0
 31 29  2  0  0  0  0
 32 25  2  0  0  0  0
M  END
>  <MODEL>
5

>  <REMARK>
 VINA RESULT:      -6.1      3.344      7.442
  Name = 
  11 active torsions:
  status: ('A' for Active; 'I' for Inactive)
    1  A    between atoms: C_3  and  N_15
    2  A    between atoms: C_3  and  C_16
    3  A    between atoms: C_7  and  N_12
    4  A    between atoms: C_7  and  C_26
    5  A    between atoms: N_12  and  S_23
    6  A    between atoms: C_14  and  C_26
    7  A    between atoms: C_16  and  N_31
    8  A    between atoms: C_18  and  C_24
    9  A    between atoms: C_18  and  C_27
   10  A    between atoms: C_26  and  N_31
   11  A    between atoms: C_27  and  C_32
                            x       y       z     vdW  Elec       q    Type
                         _______ _______ _______ _____ _____    ______ ____

>  <TORSDO>
F 11

$$$$
=
 OpenBabel11042414523D

 32 34  0  0  1  0  0  0  0  0999 V2000
  186.6330  178.5750  145.3430 C   0  0  0  0  0  2  0  0  0  0  0  0
  185.5070  179.3860  144.7180 C   0  0  0  0  0  2  0  0  0  0  0  0
  185.2970  178.9520  143.2730 C   0  0  0  0  0  2  0  0  0  0  0  0
  185.0310  177.4430  143.2100 C   0  0  0  0  0  2  0  0  0  0  0  0
  186.1090  176.6580  143.8300 N   0  0  0  0  0  0  0  0  0  0  0  0
  186.3020  177.0850  145.2310 C   0  0  1  0  0  3  0  0  0  0  0  0
  187.3350  176.8100  143.0440 C   0  0  0  0  0  2  0  0  0  0  0  0
  187.5910  175.5460  142.2500 C   0  0  0  0  0  2  0  0  0  0  0  0
  188.9850  175.1590  142.3910 N   0  0  0  0  0  2  0  0  0  0  0  0
  189.0060  173.7790  142.8510 C   0  0  2  0  0  3  0  0  0  0  0  0
  189.4480  173.7300  144.3060 C   0  0  0  0  0  2  0  0  0  0  0  0
  189.8290  172.3140  144.6950 C   0  0  0  0  0  1  0  0  0  0  0  0
  189.9160  172.9320  141.9630 C   0  0  0  0  0  2  0  0  0  0  0  0
  189.4950  172.9990  140.5700 N   0  0  0  0  0  2  0  0  0  0  0  0
  191.6140  172.9790  138.6260 C   0  0  0  0  0  1  0  0  0  0  0  0
  189.7320  171.0820  138.7760 O   0  0  0  0  0  0  0  0  0  0  0  0
  191.3910  171.1480  140.5780 O   0  0  0  0  0  0  0  0  0  0  0  0
  190.5530  171.9850  139.6510 S   0  0  0  0  0  0  0  0  0  0  0  0
  187.3560  176.2460  145.9440 C   0  0  0  0  0  2  0  0  0  0  0  0
  188.3130  177.1430  146.7110 C   0  0  0  0  0  2  0  0  0  0  0  0
  192.0190  176.3490  145.5420 C   0  0  2  0  0  3  0  0  0  0  0  0
  192.2790  175.5940  144.2810 C   0  0  0  0  0  3  0  0  0  0  0  0
  192.7400  175.1660  141.7040 Cl  0  0  0  0  0  0  0  0  0  0  0  0
  190.2870  177.8900  144.6710 C   0  0  0  0  0  3  0  0  0  0  0  0
  192.2800  175.4770  146.6920 N   0  0  0  0  0  0  0  0  0  0  0  0
  191.0920  178.3250  143.5150 C   0  0  0  0  0  3  0  0  0  0  0  0
  191.9520  177.5730  142.8190 C   0  0  0  0  0  3  0  0  0  0  0  0
  190.6370  176.9540  145.5620 C   0  0  0  0  0  0  0  0  0  0  0  0
  189.7010  176.5890  146.6460 C   0  0  0  0  0  0  0  0  0  0  0  0
  192.2720  176.1540  143.0710 C   0  0  0  0  0  0  0  0  0  0  0  0
  190.1030  175.7650  147.6070 C   0  0  0  0  0  3  0  0  0  0  0  0
  191.4260  175.2190  147.6050 N   0  0  0  0  0  0  0  0  0  0  0  0
  2  1  1  0  0  0  0
  3  2  1  0  0  0  0
  4  3  1  0  0  0  0
  4  5  1  0  0  0  0
  5  6  1  0  0  0  0
  6  1  1  0  0  0  0
  6 19  1  6  0  0  0
  7  5  1  0  0  0  0
  8  9  1  0  0  0  0
  8  7  1  0  0  0  0
  9 10  1  0  0  0  0
 10 13  1  6  0  0  0
 10 11  1  0  0  0  0
 11 12  1  0  0  0  0
 14 13  1  0  0  0  0
 15 18  1  0  0  0  0
 16 18  2  0  0  0  0
 18 14  1  0  0  0  0
 18 17  2  0  0  0  0
 19 20  1  0  0  0  0
 21 22  1  6  0  0  0
 21 28  1  0  0  0  0
 21 25  1  0  0  0  0
 23 30  1  0  0  0  0
 24 28  2  0  0  0  0
 25 32  2  0  0  0  0
 26 24  1  0  0  0  0
 27 30  1  0  0  0  0
 27 26  2  0  0  0  0
 28 29  1  0  0  0  0
 29 20  1  0  0  0  0
 29 31  2  0  0  0  0
 30 22  2  0  0  0  0
 32 31  1  0  0  0  0
M  END
>  <MODEL>
6

>  <REMARK>
 VINA RESULT:      -6.1      2.123      3.367
  Name = 
  11 active torsions:
  status: ('A' for Active; 'I' for Inactive)
    1  A    between atoms: C_3  and  N_15
    2  A    between atoms: C_3  and  C_16
    3  A    between atoms: C_7  and  N_12
    4  A    between atoms: C_7  and  C_26
    5  A    between atoms: N_12  and  S_23
    6  A    between atoms: C_14  and  C_26
    7  A    between atoms: C_16  and  N_31
    8  A    between atoms: C_18  and  C_24
    9  A    between atoms: C_18  and  C_27
   10  A    between atoms: C_26  and  N_31
   11  A    between atoms: C_27  and  C_32
                            x       y       z     vdW  Elec       q    Type
                         _______ _______ _______ _____ _____    ______ ____

>  <TORSDO>
F 11

$$$$
=
 OpenBabel11042414523D

 32 34  0  0  1  0  0  0  0  0999 V2000
  195.1340  176.4660  144.6710 C   0  0  0  0  0  2  0  0  0  0  0  0
  196.2300  176.4480  143.6160 C   0  0  0  0  0  2  0  0  0  0  0  0
  196.0940  175.2040  142.7480 C   0  0  0  0  0  2  0  0  0  0  0  0
  194.6910  175.1460  142.1290 C   0  0  0  0  0  2  0  0  0  0  0  0
  193.6290  175.1820  143.1460 N   0  0  0  0  0  0  0  0  0  0  0  0
  193.7700  176.3920  143.9800 C   0  0  1  0  0  3  0  0  0  0  0  0
  193.6860  173.9610  143.9510 C   0  0  0  0  0  2  0  0  0  0  0  0
  193.0320  172.8210  143.1960 C   0  0  0  0  0  2  0  0  0  0  0  0
  191.7780  172.4690  143.8410 N   0  0  0  0  0  2  0  0  0  0  0  0
  190.7060  173.0470  143.0460 C   0  0  2  0  0  3  0  0  0  0  0  0
  189.7750  173.8460  143.9450 C   0  0  0  0  0  2  0  0  0  0  0  0
  189.9010  173.3820  145.3830 C   0  0  0  0  0  1  0  0  0  0  0  0
  189.9500  171.9540  142.2910 C   0  0  0  0  0  2  0  0  0  0  0  0
  189.8900  172.2520  140.8660 N   0  0  0  0  0  2  0  0  0  0  0  0
  188.5780  174.7880  140.5140 C   0  0  0  0  0  1  0  0  0  0  0  0
  187.4050  172.6650  141.6470 O   0  0  0  0  0  0  0  0  0  0  0  0
  187.8230  172.5500  139.2350 O   0  0  0  0  0  0  0  0  0  0  0  0
  188.3710  173.0210  140.5530 S   0  0  0  0  0  0  0  0  0  0  0  0
  192.6440  176.5190  144.9990 C   0  0  0  0  0  2  0  0  0  0  0  0
  191.5930  177.4970  144.5040 C   0  0  0  0  0  2  0  0  0  0  0  0
  187.7020  177.0970  145.1600 C   0  0  0  0  0  0  0  0  0  0  0  0
  186.8010  178.2870  145.1750 C   0  0  0  0  0  3  0  0  0  0  0  0
  185.1550  180.1570  144.2630 Cl  0  0  0  0  0  0  0  0  0  0  0  0
  189.0030  177.6750  143.1340 C   0  0  0  0  0  3  0  0  0  0  0  0
  187.9010  176.6210  146.5330 N   0  0  0  0  0  0  0  0  0  0  0  0
  187.8130  177.9110  142.2960 C   0  0  0  0  0  3  0  0  0  0  0  0
  186.6470  178.4250  142.7020 C   0  0  0  0  0  3  0  0  0  0  0  0
  188.9970  177.3790  144.4390 C   0  0  0  0  0  0  0  0  0  0  0  0
  190.2780  177.2160  145.1590 C   0  0  1  0  0  3  0  0  0  0  0  0
  186.3150  178.8590  144.0730 C   0  0  0  0  0  0  0  0  0  0  0  0
  190.2710  176.7870  146.4150 C   0  0  0  0  0  3  0  0  0  0  0  0
  189.0430  176.4870  147.0860 N   0  0  0  0  0  0  0  0  0  0  0  0
  2  1  1  0  0  0  0
  3  2  1  0  0  0  0
  4  3  1  0  0  0  0
  4  5  1  0  0  0  0
  5  7  1  0  0  0  0
  5  6  1  0  0  0  0
  6  1  1  0  0  0  0
  6 19  1  1  0  0  0
  8  9  1  0  0  0  0
  8  7  1  0  0  0  0
 10 13  1  1  0  0  0
 10  9  1  0  0  0  0
 10 11  1  0  0  0  0
 11 12  1  0  0  0  0
 14 13  1  0  0  0  0
 15 18  1  0  0  0  0
 17 18  2  0  0  0  0
 18 14  1  0  0  0  0
 18 16  2  0  0  0  0
 20 19  1  0  0  0  0
 21 22  1  0  0  0  0
 21 25  2  0  0  0  0
 24 28  2  0  0  0  0
 25 32  1  0  0  0  0
 26 27  2  0  0  0  0
 26 24  1  0  0  0  0
 27 30  1  0  0  0  0
 28 29  1  0  0  0  0
 28 21  1  0  0  0  0
 29 20  1  6  0  0  0
 29 31  1  0  0  0  0
 30 23  1  0  0  0  0
 30 22  2  0  0  0  0
 31 32  2  0  0  0  0
M  END
>  <MODEL>
7

>  <REMARK>
 VINA RESULT:      -6.0      2.802      6.881
  Name = 
  11 active torsions:
  status: ('A' for Active; 'I' for Inactive)
    1  A    between atoms: C_3  and  N_15
    2  A    between atoms: C_3  and  C_16
    3  A    between atoms: C_7  and  N_12
    4  A    between atoms: C_7  and  C_26
    5  A    between atoms: N_12  and  S_23
    6  A    between atoms: C_14  and  C_26
    7  A    between atoms: C_16  and  N_31
    8  A    between atoms: C_18  and  C_24
    9  A    between atoms: C_18  and  C_27
   10  A    between atoms: C_26  and  N_31
   11  A    between atoms: C_27  and  C_32
                            x       y       z     vdW  Elec       q    Type
                         _______ _______ _______ _____ _____    ______ ____

>  <TORSDO>
F 11

$$$$
=
 OpenBabel11042414523D

 32 34  0  0  1  0  0  0  0  0999 V2000
  190.7410  172.3810  140.8350 C   0  0  0  0  0  2  0  0  0  0  0  0
  190.0380  171.7830  139.6250 C   0  0  0  0  0  2  0  0  0  0  0  0
  188.5970  172.2730  139.5690 C   0  0  0  0  0  2  0  0  0  0  0  0
  188.5610  173.8070  139.5620 C   0  0  0  0  0  2  0  0  0  0  0  0
  189.2560  174.3870  140.7220 N   0  0  0  0  0  0  0  0  0  0  0  0
  190.6530  173.9070  140.7640 C   0  0  1  0  0  3  0  0  0  0  0  0
  188.5300  174.0450  141.9450 C   0  0  0  0  0  2  0  0  0  0  0  0
  188.0480  175.3120  142.6220 C   0  0  0  0  0  2  0  0  0  0  0  0
  187.9650  176.3830  141.6440 N   0  0  0  0  0  2  0  0  0  0  0  0
  188.5550  177.5670  142.2490 C   0  0  2  0  0  3  0  0  0  0  0  0
  189.1500  177.2090  143.6020 C   0  0  0  0  0  2  0  0  0  0  0  0
  190.6020  177.6420  143.6720 C   0  0  0  0  0  1  0  0  0  0  0  0
  187.5160  178.6800  142.3730 C   0  0  0  0  0  2  0  0  0  0  0  0
  186.1960  178.2060  141.9790 N   0  0  0  0  0  2  0  0  0  0  0  0
  185.4560  177.1950  144.5680 C   0  0  0  0  0  1  0  0  0  0  0  0
  183.7120  178.2950  142.8620 O   0  0  0  0  0  0  0  0  0  0  0  0
  185.3360  179.7970  143.9160 O   0  0  0  0  0  0  0  0  0  0  0  0
  185.1340  178.4290  143.3280 S   0  0  0  0  0  0  0  0  0  0  0  0
  191.4420  174.5440  141.9030 C   0  0  0  0  0  2  0  0  0  0  0  0
  191.9920  173.4710  142.8260 C   0  0  0  0  0  2  0  0  0  0  0  0
  192.2770  175.0080  146.4710 C   0  0  0  0  0  0  0  0  0  0  0  0
  191.5960  176.2910  146.8170 C   0  0  0  0  0  3  0  0  0  0  0  0
  189.6900  177.9300  147.6620 Cl  0  0  0  0  0  0  0  0  0  0  0  0
  190.4060  173.9410  145.2510 C   0  0  0  0  0  3  0  0  0  0  0  0
  193.7190  175.2430  146.3460 N   0  0  0  0  0  0  0  0  0  0  0  0
  189.4210  174.1730  146.3230 C   0  0  0  0  0  3  0  0  0  0  0  0
  189.3760  175.2300  147.1430 C   0  0  0  0  0  3  0  0  0  0  0  0
  191.6760  174.3620  145.2470 C   0  0  0  0  0  0  0  0  0  0  0  0
  192.5340  174.0920  144.0740 C   0  0  0  0  0  0  0  0  0  0  0  0
  190.3050  176.3770  147.1400 C   0  0  2  0  0  3  0  0  0  0  0  0
  193.8270  174.3870  144.1290 C   0  0  0  0  0  3  0  0  0  0  0  0
  194.4030  174.9680  145.3040 N   0  0  0  0  0  0  0  0  0  0  0  0
  2  1  1  0  0  0  0
  3  2  1  0  0  0  0
  4  3  1  0  0  0  0
  4  5  1  0  0  0  0
  5  6  1  0  0  0  0
  5  7  1  0  0  0  0
  6  1  1  0  0  0  0
  6 19  1  1  0  0  0
  7  8  1  0  0  0  0
  9 10  1  0  0  0  0
  9  8  1  0  0  0  0
 10 13  1  1  0  0  0
 10 11  1  0  0  0  0
 11 12  1  0  0  0  0
 14 13  1  0  0  0  0
 14 18  1  0  0  0  0
 16 18  2  0  0  0  0
 18 17  2  0  0  0  0
 18 15  1  0  0  0  0
 19 20  1  0  0  0  0
 20 29  1  0  0  0  0
 21 22  2  0  0  0  0
 22 30  1  0  0  0  0
 24 26  1  0  0  0  0
 25 21  1  0  0  0  0
 26 27  2  0  0  0  0
 28 24  2  0  0  0  0
 28 21  1  0  0  0  0
 29 31  2  0  0  0  0
 29 28  1  0  0  0  0
 30 27  1  0  0  0  0
 30 23  1  1  0  0  0
 31 32  1  0  0  0  0
 32 25  2  0  0  0  0
M  END
>  <MODEL>
8

>  <REMARK>
 VINA RESULT:      -6.0      3.184      5.644
  Name = 
  11 active torsions:
  status: ('A' for Active; 'I' for Inactive)
    1  A    between atoms: C_3  and  N_15
    2  A    between atoms: C_3  and  C_16
    3  A    between atoms: C_7  and  N_12
    4  A    between atoms: C_7  and  C_26
    5  A    between atoms: N_12  and  S_23
    6  A    between atoms: C_14  and  C_26
    7  A    between atoms: C_16  and  N_31
    8  A    between atoms: C_18  and  C_24
    9  A    between atoms: C_18  and  C_27
   10  A    between atoms: C_26  and  N_31
   11  A    between atoms: C_27  and  C_32
                            x       y       z     vdW  Elec       q    Type
                         _______ _______ _______ _____ _____    ______ ____

>  <TORSDO>
F 11

$$$$
=
 OpenBabel11042414523D

 32 34  0  0  1  0  0  0  0  0999 V2000
  189.6730  173.8880  143.6980 C   0  0  0  0  0  2  0  0  0  0  0  0
  189.3770  172.5390  143.0600 C   0  0  0  0  0  2  0  0  0  0  0  0
  188.2370  172.6780  142.0590 C   0  0  0  0  0  2  0  0  0  0  0  0
  188.5790  173.7500  141.0170 C   0  0  0  0  0  2  0  0  0  0  0  0
  188.8840  175.0510  141.6330 N   0  0  0  0  0  0  0  0  0  0  0  0
  189.9910  174.9040  142.5990 C   0  0  1  0  0  3  0  0  0  0  0  0
  187.6780  175.5820  142.2690 C   0  0  0  0  0  2  0  0  0  0  0  0
  187.1860  176.7910  141.5000 C   0  0  0  0  0  2  0  0  0  0  0  0
  186.8080  177.8390  142.4330 N   0  0  0  0  0  2  0  0  0  0  0  0
  185.3970  177.6590  142.7380 C   0  0  2  0  0  3  0  0  0  0  0  0
  184.5530  178.2160  141.6020 C   0  0  0  0  0  2  0  0  0  0  0  0
  183.0950  178.2910  142.0150 C   0  0  0  0  0  1  0  0  0  0  0  0
  185.0480  178.3220  144.0700 C   0  0  0  0  0  2  0  0  0  0  0  0
  186.2530  178.7020  144.7940 N   0  0  0  0  0  2  0  0  0  0  0  0
  185.9080  178.9900  147.6350 C   0  0  0  0  0  1  0  0  0  0  0  0
  187.5950  177.2330  146.5250 O   0  0  0  0  0  0  0  0  0  0  0  0
  185.1990  176.7810  146.2830 O   0  0  0  0  0  0  0  0  0  0  0  0
  186.2470  177.8580  146.3050 S   0  0  0  0  0  0  0  0  0  0  0  0
  190.4010  176.2410  143.2060 C   0  0  0  0  0  2  0  0  0  0  0  0
  191.8890  176.4750  143.0080 C   0  0  0  0  0  2  0  0  0  0  0  0
  194.6850  176.1850  145.8060 C   0  0  0  0  0  0  0  0  0  0  0  0
  195.3280  174.8730  146.1140 C   0  0  0  0  0  3  0  0  0  0  0  0
  197.0710  172.8790  145.9730 Cl  0  0  0  0  0  0  0  0  0  0  0  0
  194.7740  176.0420  143.3360 C   0  0  0  0  0  3  0  0  0  0  0  0
  193.7550  176.5340  146.8850 N   0  0  0  0  0  0  0  0  0  0  0  0
  196.2110  175.7150  143.2900 C   0  0  0  0  0  3  0  0  0  0  0  0
  196.8850  174.9820  144.1840 C   0  0  0  0  0  3  0  0  0  0  0  0
  194.0370  176.1900  144.4430 C   0  0  0  0  0  0  0  0  0  0  0  0
  192.5910  176.4730  144.3290 C   0  0  1  0  0  3  0  0  0  0  0  0
  196.3270  174.3550  145.3980 C   0  0  0  0  0  0  0  0  0  0  0  0
  191.8930  176.7560  145.4220 C   0  0  0  0  0  3  0  0  0  0  0  0
  192.5160  176.7850  146.7090 N   0  0  0  0  0  0  0  0  0  0  0  0
  2  1  1  0  0  0  0
  3  2  1  0  0  0  0
  4  5  1  0  0  0  0
  4  3  1  0  0  0  0
  5  7  1  0  0  0  0
  5  6  1  0  0  0  0
  6 19  1  1  0  0  0
  6  1  1  0  0  0  0
  8  7  1  0  0  0  0
  8  9  1  0  0  0  0
  9 10  1  0  0  0  0
 10 11  1  6  0  0  0
 10 13  1  0  0  0  0
 11 12  1  0  0  0  0
 13 14  1  0  0  0  0
 14 18  1  0  0  0  0
 17 18  2  0  0  0  0
 18 16  2  0  0  0  0
 18 15  1  0  0  0  0
 20 19  1  0  0  0  0
 21 22  1  0  0  0  0
 21 25  2  0  0  0  0
 24 28  2  0  0  0  0
 26 24  1  0  0  0  0
 26 27  2  0  0  0  0
 27 30  1  0  0  0  0
 28 21  1  0  0  0  0
 29 20  1  6  0  0  0
 29 28  1  0  0  0  0
 29 31  1  0  0  0  0
 30 23  1  0  0  0  0
 30 22  2  0  0  0  0
 31 32  2  0  0  0  0
 32 25  1  0  0  0  0
M  END
>  <MODEL>
9

>  <REMARK>
 VINA RESULT:      -5.8      2.943      5.116
  Name = 
  11 active torsions:
  status: ('A' for Active; 'I' for Inactive)
    1  A    between atoms: C_3  and  N_15
    2  A    between atoms: C_3  and  C_16
    3  A    between atoms: C_7  and  N_12
    4  A    between atoms: C_7  and  C_26
    5  A    between atoms: N_12  and  S_23
    6  A    between atoms: C_14  and  C_26
    7  A    between atoms: C_16  and  N_31
    8  A    between atoms: C_18  and  C_24
    9  A    between atoms: C_18  and  C_27
   10  A    between atoms: C_26  and  N_31
   11  A    between atoms: C_27  and  C_32
                            x       y       z     vdW  Elec       q    Type
                         _______ _______ _______ _____ _____    ______ ____

>  <TORSDO>
F 11

$$$$
