=
 OpenBabel11042417333D

 39 45  0  0  1  0  0  0  0  0999 V2000
  191.1410  175.9130  145.1670 C   0  0  2  0  0  3  0  0  0  0  0  0
  194.7370  169.0720  144.6250 O   0  0  0  0  0  0  0  0  0  0  0  0
  195.3260  170.1780  144.9940 C   0  0  0  0  0  0  0  0  0  0  0  0
  194.8270  172.4770  145.3620 C   0  0  0  0  0  0  0  0  0  0  0  0
  192.8690  174.0570  145.2240 C   0  0  0  0  0  3  0  0  0  0  0  0
  197.0970  171.6740  145.7140 C   0  0  0  0  0  3  0  0  0  0  0  0
  195.1490  174.5790  145.8810 C   0  0  0  0  0  0  0  0  0  0  0  0
  194.4170  171.2010  145.0020 C   0  0  0  0  0  0  0  0  0  0  0  0
  192.5320  175.4130  145.4290 C   0  0  0  0  0  0  0  0  0  0  0  0
  194.1870  173.6810  145.4650 C   0  0  0  0  0  0  0  0  0  0  0  0
  196.1450  172.7080  145.7170 C   0  0  1  0  0  3  0  0  0  0  0  0
  193.5160  176.3310  145.8580 C   0  0  0  0  0  3  0  0  0  0  0  0
  194.8400  175.9210  146.0890 C   0  0  0  0  0  3  0  0  0  0  0  0
  193.4630  169.3440  144.3900 C   0  0  0  0  0  3  0  0  0  0  0  0
  196.3640  174.0030  146.0420 N   0  0  0  0  0  0  0  0  0  0  0  0
  196.6790  170.3730  145.3390 C   0  0  0  0  0  0  0  0  0  0  0  0
  193.1950  170.6970  144.6160 C   0  0  0  0  0  3  0  0  0  0  0  0
  197.6540  169.2420  145.3280 C   0  0  0  0  0  2  0  0  0  0  0  0
  197.0060  168.7830  147.6910 C   0  0  0  0  0  1  0  0  0  0  0  0
  197.2600  168.1680  146.3300 C   0  0  0  0  0  2  0  0  0  0  0  0
  188.7460  177.8450  146.7290 O   0  0  0  0  0  0  0  0  0  0  0  0
  190.1420  177.6280  146.7420 C   0  0  0  0  0  2  0  0  0  0  0  0
  190.3490  176.1290  146.4630 C   0  0  1  0  0  3  0  0  0  0  0  0
  186.7270  176.6080  146.4370 C   0  0  0  0  0  3  0  0  0  0  0  0
  188.0540  176.6750  146.5100 C   0  0  0  0  0  0  0  0  0  0  0  0
  188.9510  175.5140  146.3490 C   0  0  2  0  0  3  0  0  0  0  0  0
  188.7150  174.3520  147.6780 Cl  0  0  0  0  0  0  0  0  0  0  0  0
  184.1820  179.1390  145.2090 O   0  0  0  0  0  0  0  0  0  0  0  0
  184.4570  177.4200  146.6310 C   0  0  0  0  0  2  0  0  0  0  0  0
  185.0280  178.0000  145.3290 C   0  0  2  0  0  0  0  0  0  0  0  0
  185.8690  177.8150  146.6010 C   0  0  2  0  0  3  0  0  0  0  0  0
  185.5250  179.3900  145.0620 C   0  0  0  0  0  2  0  0  0  0  0  0
  190.2660  174.7640  144.0450 S   0  0  0  0  0  0  0  0  0  0  0  0
  190.2430  175.9530  142.6730 C   0  0  0  0  0  2  0  0  0  0  0  0
  189.4170  177.1010  143.0270 N   0  0  0  0  0  2  0  0  0  0  0  0
  188.4420  177.3560  141.9660 C   0  0  1  0  0  3  0  0  0  0  0  0
  187.8280  176.1650  141.5710 O   0  0  0  0  0  1  0  0  0  0  0  0
  186.4130  178.1020  141.4990 C   0  0  0  0  0  1  0  0  0  0  0  0
  187.4800  178.2820  142.3770 O   0  0  0  0  0  0  0  0  0  0  0  0
  1 33  1  6  0  0  0
  1  9  1  0  0  0  0
  2  3  1  0  0  0  0
  3  8  2  0  0  0  0
  3 16  1  0  0  0  0
  4 10  2  0  0  0  0
  4 11  1  0  0  0  0
  5  9  2  0  0  0  0
  5 10  1  0  0  0  0
  7 15  2  0  0  0  0
  7 13  1  0  0  0  0
  8  4  1  0  0  0  0
  9 12  1  0  0  0  0
 10  7  1  0  0  0  0
 11  6  1  6  0  0  0
 11 15  1  0  0  0  0
 12 13  2  0  0  0  0
 14 17  2  0  0  0  0
 14  2  1  0  0  0  0
 16  6  2  0  0  0  0
 17  8  1  0  0  0  0
 18 16  1  0  0  0  0
 18 20  1  0  0  0  0
 20 19  1  0  0  0  0
 21 22  1  0  0  0  0
 23  1  1  6  0  0  0
 23 22  1  0  0  0  0
 24 25  2  0  0  0  0
 25 21  1  0  0  0  0
 26 23  1  0  0  0  0
 26 25  1  0  0  0  0
 26 27  1  1  0  0  0
 28 30  1  0  0  0  0
 30 32  1  6  0  0  0
 30 31  1  0  0  0  0
 30 29  1  0  0  0  0
 31 24  1  6  0  0  0
 31 29  1  0  0  0  0
 32 28  1  0  0  0  0
 34 35  1  0  0  0  0
 34 33  1  0  0  0  0
 36 37  1  1  0  0  0
 36 39  1  0  0  0  0
 36 35  1  0  0  0  0
 38 39  1  0  0  0  0
M  END
>  <MODEL>
1

>  <REMARK>
 VINA RESULT:      -7.8      0.000      0.000
  Name = 
  10 active torsions:
  status: ('A' for Active; 'I' for Inactive)
    1  A    between atoms: S_6  and  C_8
    2  A    between atoms: S_6  and  C_20
    3  A    between atoms: C_8  and  N_18
    4  A    between atoms: C_13  and  C_20
    5  A    between atoms: C_14  and  N_18
    6  A    between atoms: C_14  and  O_33
    7  A    between atoms: C_17  and  C_21
    8  A    between atoms: C_19  and  C_37
    9  A    between atoms: C_19  and  C_39
   10  A    between atoms: C_20  and  C_26
                            x       y       z     vdW  Elec       q    Type
                         _______ _______ _______ _____ _____    ______ ____

>  <TORSDO>
F 10

$$$$
=
 OpenBabel11042417333D

 39 45  0  0  1  0  0  0  0  0999 V2000
  190.0830  175.4390  145.4660 C   0  0  2  0  0  3  0  0  0  0  0  0
  185.3890  177.7930  139.7690 O   0  0  0  0  0  0  0  0  0  0  0  0
  185.0790  177.8420  141.0370 C   0  0  0  0  0  0  0  0  0  0  0  0
  186.0110  177.3260  143.1660 C   0  0  0  0  0  0  0  0  0  0  0  0
  188.1270  176.3750  144.1510 C   0  0  0  0  0  3  0  0  0  0  0  0
  183.7650  178.2540  143.0360 C   0  0  0  0  0  3  0  0  0  0  0  0
  186.1510  177.1360  145.3430 C   0  0  0  0  0  0  0  0  0  0  0  0
  186.1230  177.3690  141.7830 C   0  0  1  0  0  3  0  0  0  0  0  0
  188.7150  176.0540  145.3930 C   0  0  0  0  0  0  0  0  0  0  0  0
  186.8450  176.9180  144.1700 C   0  0  0  0  0  0  0  0  0  0  0  0
  184.8520  177.7660  143.7820 C   0  0  0  0  0  0  0  0  0  0  0  0
  188.0060  176.2790  146.5930 C   0  0  0  0  0  3  0  0  0  0  0  0
  186.7100  176.8250  146.5790 C   0  0  0  0  0  3  0  0  0  0  0  0
  186.6130  177.2990  139.6650 C   0  0  0  0  0  3  0  0  0  0  0  0
  184.9190  177.6570  145.1290 N   0  0  0  0  0  0  0  0  0  0  0  0
  183.8780  178.2910  141.6240 C   0  0  0  0  0  0  0  0  0  0  0  0
  187.1390  177.0070  140.9270 C   0  0  0  0  0  3  0  0  0  0  0  0
  182.7520  178.8080  140.7910 C   0  0  0  0  0  2  0  0  0  0  0  0
  180.4070  179.2600  141.5080 C   0  0  0  0  0  1  0  0  0  0  0  0
  181.4300  178.1830  141.2080 C   0  0  0  0  0  2  0  0  0  0  0  0
  193.4710  175.9610  145.8610 O   0  0  0  0  0  0  0  0  0  0  0  0
  192.2610  176.1000  146.5780 C   0  0  0  0  0  2  0  0  0  0  0  0
  191.1910  176.4970  145.5460 C   0  0  1  0  0  3  0  0  0  0  0  0
  194.2850  176.1810  143.6290 C   0  0  0  0  0  3  0  0  0  0  0  0
  193.3040  176.2500  144.5250 C   0  0  0  0  0  0  0  0  0  0  0  0
  191.9130  176.6240  144.2020 C   0  0  2  0  0  3  0  0  0  0  0  0
  191.8320  178.3180  143.6550 Cl  0  0  0  0  0  0  0  0  0  0  0  0
  197.7070  174.7180  142.8970 O   0  0  0  0  0  0  0  0  0  0  0  0
  196.6370  176.6490  143.3200 C   0  0  0  0  0  2  0  0  0  0  0  0
  196.3880  175.2370  142.7700 C   0  0  2  0  0  0  0  0  0  0  0  0
  195.6710  175.7890  144.0110 C   0  0  2  0  0  3  0  0  0  0  0  0
  196.7120  173.9150  143.4020 C   0  0  0  0  0  2  0  0  0  0  0  0
  190.3420  174.3230  144.0410 S   0  0  0  0  0  0  0  0  0  0  0  0
  191.1930  173.0690  145.0410 C   0  0  0  0  0  2  0  0  0  0  0  0
  191.6390  171.9750  144.1870 N   0  0  0  0  0  2  0  0  0  0  0  0
  193.0900  172.0420  144.0130 C   0  0  1  0  0  3  0  0  0  0  0  0
  193.4080  172.6710  142.8070 O   0  0  0  0  0  1  0  0  0  0  0  0
  194.5910  171.7840  145.6170 C   0  0  0  0  0  1  0  0  0  0  0  0
  193.6960  172.7090  145.0810 O   0  0  0  0  0  0  0  0  0  0  0  0
  1 33  1  6  0  0  0
  2  3  1  0  0  0  0
  3 16  2  0  0  0  0
  3  8  1  0  0  0  0
  4 11  1  0  0  0  0
  4 10  2  0  0  0  0
  5 10  1  0  0  0  0
  5  9  2  0  0  0  0
  6 11  2  0  0  0  0
  7 13  1  0  0  0  0
  8 17  1  6  0  0  0
  8  4  1  0  0  0  0
  9  1  1  0  0  0  0
  9 12  1  0  0  0  0
 10  7  1  0  0  0  0
 11 15  1  0  0  0  0
 13 12  2  0  0  0  0
 14  2  1  0  0  0  0
 14 17  2  0  0  0  0
 15  7  2  0  0  0  0
 16  6  1  0  0  0  0
 18 20  1  0  0  0  0
 18 16  1  0  0  0  0
 20 19  1  0  0  0  0
 21 22  1  0  0  0  0
 23  1  1  6  0  0  0
 23 22  1  0  0  0  0
 24 25  2  0  0  0  0
 25 21  1  0  0  0  0
 26 27  1  1  0  0  0
 26 25  1  0  0  0  0
 26 23  1  0  0  0  0
 28 32  1  0  0  0  0
 29 31  1  0  0  0  0
 30 28  1  0  0  0  0
 30 29  1  6  0  0  0
 30 32  1  0  0  0  0
 30 31  1  0  0  0  0
 31 24  1  6  0  0  0
 33 34  1  0  0  0  0
 35 34  1  0  0  0  0
 36 37  1  6  0  0  0
 36 35  1  0  0  0  0
 36 39  1  0  0  0  0
 39 38  1  0  0  0  0
M  END
>  <MODEL>
2

>  <REMARK>
 VINA RESULT:      -7.6      3.143     10.532
  Name = 
  10 active torsions:
  status: ('A' for Active; 'I' for Inactive)
    1  A    between atoms: S_6  and  C_8
    2  A    between atoms: S_6  and  C_20
    3  A    between atoms: C_8  and  N_18
    4  A    between atoms: C_13  and  C_20
    5  A    between atoms: C_14  and  N_18
    6  A    between atoms: C_14  and  O_33
    7  A    between atoms: C_17  and  C_21
    8  A    between atoms: C_19  and  C_37
    9  A    between atoms: C_19  and  C_39
   10  A    between atoms: C_20  and  C_26
                            x       y       z     vdW  Elec       q    Type
                         _______ _______ _______ _____ _____    ______ ____

>  <TORSDO>
F 10

$$$$
=
 OpenBabel11042417333D

 39 45  0  0  1  0  0  0  0  0999 V2000
  191.6580  173.2960  144.8770 C   0  0  2  0  0  3  0  0  0  0  0  0
  186.8340  178.5460  141.8450 O   0  0  0  0  0  0  0  0  0  0  0  0
  186.8490  178.2130  143.1070 C   0  0  0  0  0  0  0  0  0  0  0  0
  188.0150  176.7720  144.6020 C   0  0  0  0  0  0  0  0  0  0  0  0
  189.8700  175.0680  144.5620 C   0  0  0  0  0  3  0  0  0  0  0  0
  186.2240  178.1830  145.4530 C   0  0  0  0  0  3  0  0  0  0  0  0
  188.5700  175.7940  146.4810 C   0  0  0  0  0  0  0  0  0  0  0  0
  187.8220  177.2750  143.3230 C   0  0  0  0  0  0  0  0  0  0  0  0
  190.5850  174.1980  145.4140 C   0  0  0  0  0  0  0  0  0  0  0  0
  188.8740  175.8510  145.1360 C   0  0  0  0  0  0  0  0  0  0  0  0
  187.2310  177.2220  145.6500 C   0  0  1  0  0  3  0  0  0  0  0  0
  190.2760  174.1420  146.7910 C   0  0  0  0  0  3  0  0  0  0  0  0
  189.2600  174.9440  147.3400 C   0  0  0  0  0  3  0  0  0  0  0  0
  187.7740  177.8490  141.2250 C   0  0  0  0  0  3  0  0  0  0  0  0
  187.5600  176.6300  146.8220 N   0  0  0  0  0  0  0  0  0  0  0  0
  186.0230  178.6920  144.1460 C   0  0  0  0  0  0  0  0  0  0  0  0
  188.4450  177.0140  142.1240 C   0  0  0  0  0  3  0  0  0  0  0  0
  184.9700  179.7180  143.8900 C   0  0  0  0  0  2  0  0  0  0  0  0
  183.3920  178.3770  142.5020 C   0  0  0  0  0  1  0  0  0  0  0  0
  183.5890  179.0840  143.8270 C   0  0  0  0  0  2  0  0  0  0  0  0
  195.0450  173.2820  144.2150 O   0  0  0  0  0  0  0  0  0  0  0  0
  194.0930  172.6070  145.0110 C   0  0  0  0  0  2  0  0  0  0  0  0
  193.0470  173.6600  145.4180 C   0  0  1  0  0  3  0  0  0  0  0  0
  195.4820  175.4760  143.3880 C   0  0  0  0  0  3  0  0  0  0  0  0
  194.7500  174.6210  144.0970 C   0  0  0  0  0  0  0  0  0  0  0  0
  193.5230  174.9920  144.8310 C   0  0  2  0  0  3  0  0  0  0  0  0
  193.9050  176.1120  146.1620 Cl  0  0  0  0  0  0  0  0  0  0  0  0
  197.9400  175.6550  140.5050 O   0  0  0  0  0  0  0  0  0  0  0  0
  197.7060  176.1190  142.6910 C   0  0  0  0  0  2  0  0  0  0  0  0
  196.8780  175.9250  141.4130 C   0  0  2  0  0  0  0  0  0  0  0  0
  196.7080  175.0450  142.6600 C   0  0  2  0  0  3  0  0  0  0  0  0
  196.8890  174.7700  140.4560 C   0  0  0  0  0  2  0  0  0  0  0  0
  191.6390  173.3240  143.0480 S   0  0  0  0  0  0  0  0  0  0  0  0
  190.9100  171.6660  142.9240 C   0  0  0  0  0  2  0  0  0  0  0  0
  189.6700  171.7270  142.1590 N   0  0  0  0  0  2  0  0  0  0  0  0
  189.7960  172.7190  141.0910 C   0  0  1  0  0  3  0  0  0  0  0  0
  190.3770  172.1450  139.9570 O   0  0  0  0  0  1  0  0  0  0  0  0
  187.8400  173.2670  141.9660 C   0  0  0  0  0  1  0  0  0  0  0  0
  188.5550  173.2750  140.7690 O   0  0  0  0  0  0  0  0  0  0  0  0
  1 33  1  6  0  0  0
  1  9  1  0  0  0  0
  2  3  1  0  0  0  0
  3  8  2  0  0  0  0
  3 16  1  0  0  0  0
  4 10  2  0  0  0  0
  4 11  1  0  0  0  0
  5 10  1  0  0  0  0
  5  9  2  0  0  0  0
  7 15  2  0  0  0  0
  7 13  1  0  0  0  0
  8  4  1  0  0  0  0
  9 12  1  0  0  0  0
 10  7  1  0  0  0  0
 11  6  1  6  0  0  0
 11 15  1  0  0  0  0
 12 13  2  0  0  0  0
 14  2  1  0  0  0  0
 14 17  2  0  0  0  0
 16  6  2  0  0  0  0
 17  8  1  0  0  0  0
 18 16  1  0  0  0  0
 19 20  1  0  0  0  0
 20 18  1  0  0  0  0
 21 22  1  0  0  0  0
 22 23  1  0  0  0  0
 23  1  1  6  0  0  0
 24 25  2  0  0  0  0
 25 21  1  0  0  0  0
 25 26  1  0  0  0  0
 26 23  1  0  0  0  0
 26 27  1  1  0  0  0
 28 30  1  0  0  0  0
 30 32  1  6  0  0  0
 30 31  1  0  0  0  0
 30 29  1  0  0  0  0
 31 29  1  0  0  0  0
 31 24  1  1  0  0  0
 32 28  1  0  0  0  0
 34 33  1  0  0  0  0
 35 34  1  0  0  0  0
 36 37  1  6  0  0  0
 36 35  1  0  0  0  0
 39 36  1  0  0  0  0
 39 38  1  0  0  0  0
M  END
>  <MODEL>
3

>  <REMARK>
 VINA RESULT:      -7.5      3.177      9.569
  Name = 
  10 active torsions:
  status: ('A' for Active; 'I' for Inactive)
    1  A    between atoms: S_6  and  C_8
    2  A    between atoms: S_6  and  C_20
    3  A    between atoms: C_8  and  N_18
    4  A    between atoms: C_13  and  C_20
    5  A    between atoms: C_14  and  N_18
    6  A    between atoms: C_14  and  O_33
    7  A    between atoms: C_17  and  C_21
    8  A    between atoms: C_19  and  C_37
    9  A    between atoms: C_19  and  C_39
   10  A    between atoms: C_20  and  C_26
                            x       y       z     vdW  Elec       q    Type
                         _______ _______ _______ _____ _____    ______ ____

>  <TORSDO>
F 10

$$$$
=
 OpenBabel11042417333D

 39 45  0  0  1  0  0  0  0  0999 V2000
  194.0350  175.9880  143.5150 C   0  0  2  0  0  3  0  0  0  0  0  0
  186.3750  177.1460  143.5770 O   0  0  0  0  0  0  0  0  0  0  0  0
  187.0770  176.8540  144.6390 C   0  0  0  0  0  0  0  0  0  0  0  0
  189.3290  176.4150  145.2750 C   0  0  0  0  0  0  0  0  0  0  0  0
  191.6170  176.2550  144.2320 C   0  0  0  0  0  3  0  0  0  0  0  0
  187.5770  176.3620  146.9630 C   0  0  0  0  0  3  0  0  0  0  0  0
  191.0310  175.9410  146.5690 C   0  0  0  0  0  0  0  0  0  0  0  0
  188.3960  176.7280  144.2970 C   0  0  0  0  0  0  0  0  0  0  0  0
  192.9640  175.9990  144.5670 C   0  0  0  0  0  0  0  0  0  0  0  0
  190.6830  176.2200  145.2630 C   0  0  0  0  0  0  0  0  0  0  0  0
  188.9260  176.2400  146.5880 C   0  0  1  0  0  3  0  0  0  0  0  0
  193.3210  175.7150  145.9040 C   0  0  0  0  0  3  0  0  0  0  0  0
  192.3530  175.6840  146.9220 C   0  0  0  0  0  3  0  0  0  0  0  0
  187.2010  177.2140  142.5440 C   0  0  0  0  0  3  0  0  0  0  0  0
  189.9640  175.9470  147.4040 N   0  0  0  0  0  0  0  0  0  0  0  0
  186.6230  176.6750  145.9620 C   0  0  0  0  0  0  0  0  0  0  0  0
  188.5160  176.9550  142.9440 C   0  0  0  0  0  3  0  0  0  0  0  0
  185.1800  176.8210  146.3150 C   0  0  0  0  0  2  0  0  0  0  0  0
  184.0530  178.9310  145.6140 C   0  0  0  0  0  1  0  0  0  0  0  0
  184.8540  178.2530  146.7070 C   0  0  0  0  0  2  0  0  0  0  0  0
  192.2550  173.1930  142.5530 O   0  0  0  0  0  0  0  0  0  0  0  0
  193.2530  173.5790  143.4770 C   0  0  0  0  0  2  0  0  0  0  0  0
  194.1040  174.6490  142.7700 C   0  0  1  0  0  3  0  0  0  0  0  0
  191.5690  173.6850  140.3220 C   0  0  0  0  0  3  0  0  0  0  0  0
  192.3910  173.8560  141.3550 C   0  0  0  0  0  0  0  0  0  0  0  0
  193.5350  174.7890  141.3550 C   0  0  2  0  0  3  0  0  0  0  0  0
  194.7670  174.2680  140.1780 Cl  0  0  0  0  0  0  0  0  0  0  0  0
  188.0470  172.5810  139.4510 O   0  0  0  0  0  0  0  0  0  0  0  0
  190.2130  172.1310  139.0590 C   0  0  0  0  0  2  0  0  0  0  0  0
  189.2880  173.2750  139.4980 C   0  0  2  0  0  0  0  0  0  0  0  0
  190.4240  172.7340  140.3790 C   0  0  2  0  0  3  0  0  0  0  0  0
  188.2770  173.2900  140.6060 C   0  0  0  0  0  2  0  0  0  0  0  0
  195.6500  176.4050  144.2660 S   0  0  0  0  0  0  0  0  0  0  0  0
  196.4790  174.9590  143.5470 C   0  0  0  0  0  2  0  0  0  0  0  0
  197.6670  174.6310  144.3270 N   0  0  0  0  0  2  0  0  0  0  0  0
  197.4280  173.4150  145.1050 C   0  0  1  0  0  3  0  0  0  0  0  0
  197.0350  173.7370  146.4060 O   0  0  0  0  0  1  0  0  0  0  0  0
  195.9440  171.8310  145.5290 C   0  0  0  0  0  1  0  0  0  0  0  0
  196.4660  172.6070  144.4950 O   0  0  0  0  0  0  0  0  0  0  0  0
  1 33  1  1  0  0  0
  1  9  1  0  0  0  0
  2  3  1  0  0  0  0
  3 16  1  0  0  0  0
  4 11  1  0  0  0  0
  5  9  2  0  0  0  0
  5 10  1  0  0  0  0
  7 13  1  0  0  0  0
  7 15  2  0  0  0  0
  8  3  2  0  0  0  0
  8  4  1  0  0  0  0
  9 12  1  0  0  0  0
 10  4  2  0  0  0  0
 10  7  1  0  0  0  0
 11  6  1  6  0  0  0
 11 15  1  0  0  0  0
 12 13  2  0  0  0  0
 14 17  2  0  0  0  0
 14  2  1  0  0  0  0
 16 18  1  0  0  0  0
 16  6  2  0  0  0  0
 17  8  1  0  0  0  0
 18 20  1  0  0  0  0
 19 20  1  0  0  0  0
 21 22  1  0  0  0  0
 23 22  1  0  0  0  0
 23  1  1  1  0  0  0
 24 25  2  0  0  0  0
 25 26  1  0  0  0  0
 25 21  1  0  0  0  0
 26 27  1  6  0  0  0
 26 23  1  0  0  0  0
 28 30  1  0  0  0  0
 28 32  1  0  0  0  0
 29 31  1  0  0  0  0
 30 29  1  6  0  0  0
 30 31  1  0  0  0  0
 30 32  1  0  0  0  0
 31 24  1  6  0  0  0
 34 33  1  0  0  0  0
 34 35  1  0  0  0  0
 35 36  1  0  0  0  0
 36 37  1  1  0  0  0
 39 36  1  0  0  0  0
 39 38  1  0  0  0  0
M  END
>  <MODEL>
4

>  <REMARK>
 VINA RESULT:      -7.4      3.248      8.993
  Name = 
  10 active torsions:
  status: ('A' for Active; 'I' for Inactive)
    1  A    between atoms: S_6  and  C_8
    2  A    between atoms: S_6  and  C_20
    3  A    between atoms: C_8  and  N_18
    4  A    between atoms: C_13  and  C_20
    5  A    between atoms: C_14  and  N_18
    6  A    between atoms: C_14  and  O_33
    7  A    between atoms: C_17  and  C_21
    8  A    between atoms: C_19  and  C_37
    9  A    between atoms: C_19  and  C_39
   10  A    between atoms: C_20  and  C_26
                            x       y       z     vdW  Elec       q    Type
                         _______ _______ _______ _____ _____    ______ ____

>  <TORSDO>
F 10

$$$$
=
 OpenBabel11042417333D

 39 45  0  0  1  0  0  0  0  0999 V2000
  194.0850  174.7260  144.3490 C   0  0  2  0  0  3  0  0  0  0  0  0
  187.4810  178.3650  142.5650 O   0  0  0  0  0  0  0  0  0  0  0  0
  187.8150  178.0130  143.7770 C   0  0  0  0  0  0  0  0  0  0  0  0
  189.5960  176.9460  144.9440 C   0  0  0  0  0  0  0  0  0  0  0  0
  191.8310  175.8840  144.4690 C   0  0  0  0  0  3  0  0  0  0  0  0
  187.6500  177.7240  146.1820 C   0  0  0  0  0  3  0  0  0  0  0  0
  190.7340  176.1240  146.6240 C   0  0  0  0  0  0  0  0  0  0  0  0
  189.0420  177.4070  143.7580 C   0  0  0  0  0  0  0  0  0  0  0  0
  192.9070  175.2450  145.1220 C   0  0  0  0  0  0  0  0  0  0  0  0
  190.7660  176.3120  145.2570 C   0  0  0  0  0  0  0  0  0  0  0  0
  188.9120  177.1060  146.1370 C   0  0  1  0  0  3  0  0  0  0  0  0
  192.8750  175.0550  146.5220 C   0  0  0  0  0  3  0  0  0  0  0  0
  191.7830  175.4950  147.2890 C   0  0  0  0  0  3  0  0  0  0  0  0
  188.4600  178.0040  141.7480 C   0  0  0  0  0  3  0  0  0  0  0  0
  189.6000  176.6050  147.1880 N   0  0  0  0  0  0  0  0  0  0  0  0
  187.0820  178.1880  144.9700 C   0  0  0  0  0  0  0  0  0  0  0  0
  189.4930  177.3840  142.4570 C   0  0  0  0  0  3  0  0  0  0  0  0
  185.7470  178.8550  144.9690 C   0  0  0  0  0  2  0  0  0  0  0  0
  184.1330  178.2430  146.7670 C   0  0  0  0  0  1  0  0  0  0  0  0
  184.6500  177.8890  145.3890 C   0  0  0  0  0  2  0  0  0  0  0  0
  191.7380  172.3710  143.4250 O   0  0  0  0  0  0  0  0  0  0  0  0
  192.6110  172.6710  144.4960 C   0  0  0  0  0  2  0  0  0  0  0  0
  193.8720  173.2870  143.8650 C   0  0  1  0  0  3  0  0  0  0  0  0
  191.6800  172.5170  141.0450 C   0  0  0  0  0  3  0  0  0  0  0  0
  192.3010  172.6880  142.2090 C   0  0  0  0  0  0  0  0  0  0  0  0
  193.6570  173.2540  142.3490 C   0  0  2  0  0  3  0  0  0  0  0  0
  194.8650  172.1720  141.6120 Cl  0  0  0  0  0  0  0  0  0  0  0  0
  187.9280  172.7960  140.5620 O   0  0  0  0  0  0  0  0  0  0  0  0
  189.8090  172.0460  139.5870 C   0  0  0  0  0  2  0  0  0  0  0  0
  189.3230  173.0750  140.6170 C   0  0  2  0  0  0  0  0  0  0  0  0
  190.3060  171.9470  140.9630 C   0  0  2  0  0  3  0  0  0  0  0  0
  188.4630  172.8550  141.8270 C   0  0  0  0  0  2  0  0  0  0  0  0
  195.6020  174.8610  145.3600 S   0  0  0  0  0  0  0  0  0  0  0  0
  196.6000  175.4770  143.9740 C   0  0  0  0  0  2  0  0  0  0  0  0
  195.8640  176.5120  143.2570 N   0  0  0  0  0  2  0  0  0  0  0  0
  196.4150  176.6700  141.9110 C   0  0  1  0  0  3  0  0  0  0  0  0
  197.4820  175.7900  141.7140 O   0  0  0  0  0  1  0  0  0  0  0  0
  195.9190  175.4180  140.1560 C   0  0  0  0  0  1  0  0  0  0  0  0
  195.4340  176.4670  140.9370 O   0  0  0  0  0  0  0  0  0  0  0  0
  1  9  1  0  0  0  0
  1 33  1  1  0  0  0
  2  3  1  0  0  0  0
  3 16  1  0  0  0  0
  4 10  2  0  0  0  0
  4 11  1  0  0  0  0
  5  9  2  0  0  0  0
  5 10  1  0  0  0  0
  7 15  2  0  0  0  0
  7 13  1  0  0  0  0
  8  3  2  0  0  0  0
  8  4  1  0  0  0  0
  9 12  1  0  0  0  0
 10  7  1  0  0  0  0
 11  6  1  6  0  0  0
 11 15  1  0  0  0  0
 12 13  2  0  0  0  0
 14 17  2  0  0  0  0
 14  2  1  0  0  0  0
 16  6  2  0  0  0  0
 17  8  1  0  0  0  0
 18 16  1  0  0  0  0
 18 20  1  0  0  0  0
 20 19  1  0  0  0  0
 21 22  1  0  0  0  0
 23  1  1  1  0  0  0
 23 22  1  0  0  0  0
 24 25  2  0  0  0  0
 25 26  1  0  0  0  0
 25 21  1  0  0  0  0
 26 27  1  6  0  0  0
 26 23  1  0  0  0  0
 28 30  1  0  0  0  0
 28 32  1  0  0  0  0
 29 31  1  0  0  0  0
 30 29  1  6  0  0  0
 30 31  1  0  0  0  0
 30 32  1  0  0  0  0
 31 24  1  6  0  0  0
 34 33  1  0  0  0  0
 35 34  1  0  0  0  0
 36 37  1  6  0  0  0
 36 35  1  0  0  0  0
 38 39  1  0  0  0  0
 39 36  1  0  0  0  0
M  END
>  <MODEL>
5

>  <REMARK>
 VINA RESULT:      -7.3      3.573      8.717
  Name = 
  10 active torsions:
  status: ('A' for Active; 'I' for Inactive)
    1  A    between atoms: S_6  and  C_8
    2  A    between atoms: S_6  and  C_20
    3  A    between atoms: C_8  and  N_18
    4  A    between atoms: C_13  and  C_20
    5  A    between atoms: C_14  and  N_18
    6  A    between atoms: C_14  and  O_33
    7  A    between atoms: C_17  and  C_21
    8  A    between atoms: C_19  and  C_37
    9  A    between atoms: C_19  and  C_39
   10  A    between atoms: C_20  and  C_26
                            x       y       z     vdW  Elec       q    Type
                         _______ _______ _______ _____ _____    ______ ____

>  <TORSDO>
F 10

$$$$
=
 OpenBabel11042417333D

 39 45  0  0  1  0  0  0  0  0999 V2000
  193.3030  174.0200  145.6900 C   0  0  2  0  0  3  0  0  0  0  0  0
  186.6490  176.1050  142.3130 O   0  0  0  0  0  0  0  0  0  0  0  0
  186.9800  176.4290  143.5340 C   0  0  0  0  0  0  0  0  0  0  0  0
  188.7700  176.1430  145.0780 C   0  0  0  0  0  0  0  0  0  0  0  0
  191.0280  175.0320  145.2070 C   0  0  0  0  0  3  0  0  0  0  0  0
  186.8010  177.4050  145.7500 C   0  0  0  0  0  3  0  0  0  0  0  0
  189.9090  176.3170  146.9390 C   0  0  0  0  0  0  0  0  0  0  0  0
  188.2170  175.9220  143.8240 C   0  0  0  0  0  0  0  0  0  0  0  0
  192.1100  174.8380  146.0920 C   0  0  0  0  0  0  0  0  0  0  0  0
  189.9490  175.7810  145.6680 C   0  0  0  0  0  0  0  0  0  0  0  0
  188.0740  176.8760  146.0230 C   0  0  1  0  0  3  0  0  0  0  0  0
  192.0710  175.3890  147.3920 C   0  0  0  0  0  3  0  0  0  0  0  0
  190.9640  176.1380  147.8300 C   0  0  0  0  0  3  0  0  0  0  0  0
  187.6400  175.3980  141.7930 C   0  0  0  0  0  3  0  0  0  0  0  0
  188.7630  176.9960  147.1820 N   0  0  0  0  0  0  0  0  0  0  0  0
  186.2340  177.1740  144.4720 C   0  0  0  0  0  0  0  0  0  0  0  0
  188.6790  175.2470  142.7170 C   0  0  0  0  0  3  0  0  0  0  0  0
  184.8870  177.7210  144.1340 C   0  0  0  0  0  2  0  0  0  0  0  0
  185.2820  180.1790  144.2680 C   0  0  0  0  0  1  0  0  0  0  0  0
  184.5990  178.9920  144.9160 C   0  0  0  0  0  2  0  0  0  0  0  0
  196.4690  174.3620  144.3610 O   0  0  0  0  0  0  0  0  0  0  0  0
  195.8300  173.9220  145.5420 C   0  0  0  0  0  2  0  0  0  0  0  0
  194.6040  174.8320  145.7340 C   0  0  1  0  0  3  0  0  0  0  0  0
  196.2140  176.0420  142.6860 C   0  0  0  0  0  3  0  0  0  0  0  0
  195.8230  175.4450  143.8100 C   0  0  0  0  0  0  0  0  0  0  0  0
  194.6420  175.8540  144.5950 C   0  0  2  0  0  3  0  0  0  0  0  0
  194.8780  177.4820  145.2800 Cl  0  0  0  0  0  0  0  0  0  0  0  0
  197.9410  173.9380  140.0450 O   0  0  0  0  0  0  0  0  0  0  0  0
  197.3270  176.0420  140.5390 C   0  0  0  0  0  2  0  0  0  0  0  0
  196.9630  174.5840  140.8520 C   0  0  2  0  0  0  0  0  0  0  0  0
  197.4120  175.5820  141.9290 C   0  0  2  0  0  3  0  0  0  0  0  0
  197.8550  173.4800  141.3380 C   0  0  0  0  0  2  0  0  0  0  0  0
  193.0350  173.3000  144.0300 S   0  0  0  0  0  0  0  0  0  0  0  0
  193.1400  171.5920  144.6360 C   0  0  0  0  0  2  0  0  0  0  0  0
  192.0720  170.7920  144.0490 N   0  0  0  0  0  2  0  0  0  0  0  0
  191.8610  171.1940  142.6580 C   0  0  1  0  0  3  0  0  0  0  0  0
  192.8080  170.5930  141.8260 O   0  0  0  0  0  1  0  0  0  0  0  0
  189.7380  171.7660  142.9060 C   0  0  0  0  0  1  0  0  0  0  0  0
  190.5690  170.8730  142.2310 O   0  0  0  0  0  0  0  0  0  0  0  0
  1 33  1  6  0  0  0
  1  9  1  0  0  0  0
  2  3  1  0  0  0  0
  3  8  2  0  0  0  0
  3 16  1  0  0  0  0
  4 10  2  0  0  0  0
  4 11  1  0  0  0  0
  5 10  1  0  0  0  0
  5  9  2  0  0  0  0
  7 15  2  0  0  0  0
  7 13  1  0  0  0  0
  8  4  1  0  0  0  0
  9 12  1  0  0  0  0
 10  7  1  0  0  0  0
 11  6  1  1  0  0  0
 11 15  1  0  0  0  0
 12 13  2  0  0  0  0
 14  2  1  0  0  0  0
 14 17  2  0  0  0  0
 16  6  2  0  0  0  0
 17  8  1  0  0  0  0
 18 16  1  0  0  0  0
 18 20  1  0  0  0  0
 19 20  1  0  0  0  0
 21 22  1  0  0  0  0
 22 23  1  0  0  0  0
 23  1  1  6  0  0  0
 24 25  2  0  0  0  0
 25 21  1  0  0  0  0
 25 26  1  0  0  0  0
 26 27  1  1  0  0  0
 26 23  1  0  0  0  0
 28 30  1  0  0  0  0
 28 32  1  0  0  0  0
 29 31  1  0  0  0  0
 30 29  1  6  0  0  0
 30 32  1  0  0  0  0
 30 31  1  0  0  0  0
 31 24  1  1  0  0  0
 33 34  1  0  0  0  0
 35 34  1  0  0  0  0
 36 37  1  6  0  0  0
 36 35  1  0  0  0  0
 39 36  1  0  0  0  0
 39 38  1  0  0  0  0
M  END
>  <MODEL>
6

>  <REMARK>
 VINA RESULT:      -7.2      3.333      9.474
  Name = 
  10 active torsions:
  status: ('A' for Active; 'I' for Inactive)
    1  A    between atoms: S_6  and  C_8
    2  A    between atoms: S_6  and  C_20
    3  A    between atoms: C_8  and  N_18
    4  A    between atoms: C_13  and  C_20
    5  A    between atoms: C_14  and  N_18
    6  A    between atoms: C_14  and  O_33
    7  A    between atoms: C_17  and  C_21
    8  A    between atoms: C_19  and  C_37
    9  A    between atoms: C_19  and  C_39
   10  A    between atoms: C_20  and  C_26
                            x       y       z     vdW  Elec       q    Type
                         _______ _______ _______ _____ _____    ______ ____

>  <TORSDO>
F 10

$$$$
=
 OpenBabel11042417333D

 39 45  0  0  1  0  0  0  0  0999 V2000
  190.2320  175.3990  142.9490 C   0  0  2  0  0  3  0  0  0  0  0  0
  196.9390  172.9820  145.9820 O   0  0  0  0  0  0  0  0  0  0  0  0
  196.1940  172.2580  145.1900 C   0  0  0  0  0  0  0  0  0  0  0  0
  194.1520  172.3970  143.9730 C   0  0  0  0  0  0  0  0  0  0  0  0
  192.2790  174.0300  143.5560 C   0  0  0  0  0  3  0  0  0  0  0  0
  195.4660  170.3510  143.8770 C   0  0  0  0  0  3  0  0  0  0  0  0
  192.5090  171.7820  142.6630 C   0  0  0  0  0  0  0  0  0  0  0  0
  195.0900  172.9750  144.8170 C   0  0  1  0  0  3  0  0  0  0  0  0
  191.0620  174.1520  142.8510 C   0  0  0  0  0  0  0  0  0  0  0  0
  192.9740  172.8300  143.4320 C   0  0  0  0  0  0  0  0  0  0  0  0
  194.3400  171.1070  143.5070 C   0  0  0  0  0  0  0  0  0  0  0  0
  190.5880  173.0810  142.0620 C   0  0  0  0  0  3  0  0  0  0  0  0
  191.3120  171.8790  141.9600 C   0  0  0  0  0  3  0  0  0  0  0  0
  196.3500  174.1570  146.1400 C   0  0  0  0  0  3  0  0  0  0  0  0
  193.3350  170.7080  142.6940 N   0  0  0  0  0  0  0  0  0  0  0  0
  196.4190  170.9390  144.7450 C   0  0  0  0  0  0  0  0  0  0  0  0
  195.1560  174.2140  145.4140 C   0  0  0  0  0  3  0  0  0  0  0  0
  197.6330  170.1760  145.1600 C   0  0  0  0  0  2  0  0  0  0  0  0
  196.6390  169.2550  147.2520 C   0  0  0  0  0  1  0  0  0  0  0  0
  197.2550  168.9100  145.9120 C   0  0  0  0  0  2  0  0  0  0  0  0
  188.9200  177.8530  144.9890 O   0  0  0  0  0  0  0  0  0  0  0  0
  190.1320  177.5080  144.3500 C   0  0  0  0  0  2  0  0  0  0  0  0
  190.2080  175.9710  144.3720 C   0  0  1  0  0  3  0  0  0  0  0  0
  187.0710  176.7890  146.0570 C   0  0  0  0  0  3  0  0  0  0  0  0
  188.2470  176.7390  145.4350 C   0  0  0  0  0  0  0  0  0  0  0  0
  188.9660  175.4870  145.1270 C   0  0  2  0  0  3  0  0  0  0  0  0
  189.4760  174.6730  146.6270 Cl  0  0  0  0  0  0  0  0  0  0  0  0
  184.0690  178.8720  147.0750 O   0  0  0  0  0  0  0  0  0  0  0  0
  186.0950  178.1900  147.7690 C   0  0  0  0  0  2  0  0  0  0  0  0
  184.9570  177.7890  146.8200 C   0  0  2  0  0  0  0  0  0  0  0  0
  186.3850  178.0820  146.3350 C   0  0  2  0  0  3  0  0  0  0  0  0
  184.3000  178.6060  145.7460 C   0  0  0  0  0  2  0  0  0  0  0  0
  188.5380  175.0700  142.3450 S   0  0  0  0  0  0  0  0  0  0  0  0
  188.3540  176.7300  141.6330 C   0  0  0  0  0  2  0  0  0  0  0  0
  187.1910  176.7650  140.7550 N   0  0  0  0  0  2  0  0  0  0  0  0
  186.3340  177.8960  141.1130 C   0  0  1  0  0  3  0  0  0  0  0  0
  185.3350  178.0750  140.1530 O   0  0  0  0  0  1  0  0  0  0  0  0
  184.4210  178.0540  142.2140 C   0  0  0  0  0  1  0  0  0  0  0  0
  185.7640  177.7170  142.3760 O   0  0  0  0  0  0  0  0  0  0  0  0
  1 33  1  1  0  0  0
  2 14  1  0  0  0  0
  3  2  1  0  0  0  0
  4  8  1  0  0  0  0
  6 16  1  0  0  0  0
  7 15  2  0  0  0  0
  7 10  1  0  0  0  0
  8  3  1  0  0  0  0
  8 17  1  1  0  0  0
  9  1  1  0  0  0  0
  9  5  2  0  0  0  0
 10  5  1  0  0  0  0
 10  4  2  0  0  0  0
 11  6  2  0  0  0  0
 11  4  1  0  0  0  0
 12  9  1  0  0  0  0
 13 12  2  0  0  0  0
 13  7  1  0  0  0  0
 15 11  1  0  0  0  0
 16 18  1  0  0  0  0
 16  3  2  0  0  0  0
 17 14  2  0  0  0  0
 18 20  1  0  0  0  0
 20 19  1  0  0  0  0
 21 25  1  0  0  0  0
 22 23  1  0  0  0  0
 22 21  1  0  0  0  0
 23  1  1  6  0  0  0
 23 26  1  0  0  0  0
 25 24  2  0  0  0  0
 26 25  1  0  0  0  0
 26 27  1  1  0  0  0
 30 32  1  1  0  0  0
 30 28  1  0  0  0  0
 30 29  1  0  0  0  0
 31 24  1  1  0  0  0
 31 30  1  0  0  0  0
 31 29  1  0  0  0  0
 32 28  1  0  0  0  0
 34 33  1  0  0  0  0
 35 36  1  0  0  0  0
 35 34  1  0  0  0  0
 36 37  1  6  0  0  0
 36 39  1  0  0  0  0
 38 39  1  0  0  0  0
M  END
>  <MODEL>
7

>  <REMARK>
 VINA RESULT:      -7.1      2.015      2.976
  Name = 
  10 active torsions:
  status: ('A' for Active; 'I' for Inactive)
    1  A    between atoms: S_6  and  C_8
    2  A    between atoms: S_6  and  C_20
    3  A    between atoms: C_8  and  N_18
    4  A    between atoms: C_13  and  C_20
    5  A    between atoms: C_14  and  N_18
    6  A    between atoms: C_14  and  O_33
    7  A    between atoms: C_17  and  C_21
    8  A    between atoms: C_19  and  C_37
    9  A    between atoms: C_19  and  C_39
   10  A    between atoms: C_20  and  C_26
                            x       y       z     vdW  Elec       q    Type
                         _______ _______ _______ _____ _____    ______ ____

>  <TORSDO>
F 10

$$$$
=
 OpenBabel11042417333D

 39 45  0  0  1  0  0  0  0  0999 V2000
  191.6680  176.1940  144.8980 C   0  0  2  0  0  3  0  0  0  0  0  0
  185.4440  178.0730  140.6840 O   0  0  0  0  0  0  0  0  0  0  0  0
  185.4760  178.0980  141.9900 C   0  0  0  0  0  0  0  0  0  0  0  0
  186.9790  177.6820  143.7880 C   0  0  0  0  0  0  0  0  0  0  0  0
  189.3580  176.9370  144.1620 C   0  0  0  0  0  3  0  0  0  0  0  0
  184.7040  178.3970  144.2720 C   0  0  0  0  0  3  0  0  0  0  0  0
  187.7060  177.5160  145.8470 C   0  0  0  0  0  0  0  0  0  0  0  0
  186.7190  177.7280  142.4260 C   0  0  0  0  0  0  0  0  0  0  0  0
  190.2800  176.6780  145.1990 C   0  0  0  0  0  0  0  0  0  0  0  0
  188.0830  177.3580  144.5290 C   0  0  0  0  0  0  0  0  0  0  0  0
  185.9890  178.0150  144.6960 C   0  0  1  0  0  3  0  0  0  0  0  0
  189.8950  176.8430  146.5480 C   0  0  0  0  0  3  0  0  0  0  0  0
  188.5970  177.2660  146.8860 C   0  0  0  0  0  3  0  0  0  0  0  0
  186.6370  177.6930  140.2520 C   0  0  0  0  0  3  0  0  0  0  0  0
  186.4190  177.9200  145.9750 N   0  0  0  0  0  0  0  0  0  0  0  0
  184.4370  178.4370  142.8810 C   0  0  0  0  0  0  0  0  0  0  0  0
  187.5010  177.4580  141.3260 C   0  0  0  0  0  3  0  0  0  0  0  0
  183.0890  178.8430  142.3840 C   0  0  0  0  0  2  0  0  0  0  0  0
  181.3190  178.4380  140.6760 C   0  0  0  0  0  1  0  0  0  0  0  0
  182.6200  177.9310  141.2620 C   0  0  0  0  0  2  0  0  0  0  0  0
  189.8590  173.8000  143.1940 O   0  0  0  0  0  0  0  0  0  0  0  0
  190.2920  174.1030  144.5040 C   0  0  0  0  0  2  0  0  0  0  0  0
  191.6780  174.7570  144.3600 C   0  0  1  0  0  3  0  0  0  0  0  0
  190.6360  173.9810  140.9450 C   0  0  0  0  0  3  0  0  0  0  0  0
  190.8040  174.1480  142.2550 C   0  0  0  0  0  0  0  0  0  0  0  0
  192.0090  174.7430  142.8650 C   0  0  2  0  0  3  0  0  0  0  0  0
  193.4280  173.7000  142.5930 Cl  0  0  0  0  0  0  0  0  0  0  0  0
  188.3800  172.9480  138.0760 O   0  0  0  0  0  0  0  0  0  0  0  0
  189.7160  172.1310  139.6890 C   0  0  0  0  0  2  0  0  0  0  0  0
  189.4870  173.3970  138.8500 C   0  0  2  0  0  0  0  0  0  0  0  0
  189.3940  173.3820  140.3830 C   0  0  2  0  0  3  0  0  0  0  0  0
  188.2220  174.1800  138.6630 C   0  0  0  0  0  2  0  0  0  0  0  0
  192.7180  176.3440  146.3880 S   0  0  0  0  0  0  0  0  0  0  0  0
  194.1280  175.5060  145.6100 C   0  0  0  0  0  2  0  0  0  0  0  0
  195.0350  176.4930  145.0370 N   0  0  0  0  0  2  0  0  0  0  0  0
  195.8760  175.8610  144.0200 C   0  0  1  0  0  3  0  0  0  0  0  0
  196.5730  176.8290  143.2920 O   0  0  0  0  0  1  0  0  0  0  0  0
  196.9570  173.9720  143.6250 C   0  0  0  0  0  1  0  0  0  0  0  0
  196.7690  174.9540  144.5960 O   0  0  0  0  0  0  0  0  0  0  0  0
  1  9  1  0  0  0  0
  1 33  1  1  0  0  0
  2  3  1  0  0  0  0
  3  8  2  0  0  0  0
  3 16  1  0  0  0  0
  4 10  2  0  0  0  0
  4 11  1  0  0  0  0
  5 10  1  0  0  0  0
  5  9  2  0  0  0  0
  7 15  2  0  0  0  0
  7 13  1  0  0  0  0
  8  4  1  0  0  0  0
  9 12  1  0  0  0  0
 10  7  1  0  0  0  0
 11  6  1  1  0  0  0
 11 15  1  0  0  0  0
 12 13  2  0  0  0  0
 14  2  1  0  0  0  0
 14 17  2  0  0  0  0
 16  6  2  0  0  0  0
 17  8  1  0  0  0  0
 18 16  1  0  0  0  0
 19 20  1  0  0  0  0
 20 18  1  0  0  0  0
 21 22  1  0  0  0  0
 23 22  1  0  0  0  0
 23  1  1  6  0  0  0
 24 25  2  0  0  0  0
 25 26  1  0  0  0  0
 25 21  1  0  0  0  0
 26 27  1  1  0  0  0
 26 23  1  0  0  0  0
 28 32  1  0  0  0  0
 28 30  1  0  0  0  0
 29 31  1  0  0  0  0
 30 32  1  6  0  0  0
 30 29  1  0  0  0  0
 30 31  1  0  0  0  0
 31 24  1  1  0  0  0
 34 33  1  0  0  0  0
 35 34  1  0  0  0  0
 36 37  1  1  0  0  0
 36 39  1  0  0  0  0
 36 35  1  0  0  0  0
 38 39  1  0  0  0  0
M  END
>  <MODEL>
8

>  <REMARK>
 VINA RESULT:      -7.0      3.496      9.845
  Name = 
  10 active torsions:
  status: ('A' for Active; 'I' for Inactive)
    1  A    between atoms: S_6  and  C_8
    2  A    between atoms: S_6  and  C_20
    3  A    between atoms: C_8  and  N_18
    4  A    between atoms: C_13  and  C_20
    5  A    between atoms: C_14  and  N_18
    6  A    between atoms: C_14  and  O_33
    7  A    between atoms: C_17  and  C_21
    8  A    between atoms: C_19  and  C_37
    9  A    between atoms: C_19  and  C_39
   10  A    between atoms: C_20  and  C_26
                            x       y       z     vdW  Elec       q    Type
                         _______ _______ _______ _____ _____    ______ ____

>  <TORSDO>
F 10

$$$$
=
 OpenBabel11042417333D

 39 45  0  0  1  0  0  0  0  0999 V2000
  191.2370  172.7350  141.7480 C   0  0  2  0  0  3  0  0  0  0  0  0
  186.2390  178.6350  142.2350 O   0  0  0  0  0  0  0  0  0  0  0  0
  186.7810  178.0510  143.2700 C   0  0  0  0  0  0  0  0  0  0  0  0
  188.3120  176.3020  143.7860 C   0  0  0  0  0  0  0  0  0  0  0  0
  189.7290  174.5860  142.6020 C   0  0  0  0  0  3  0  0  0  0  0  0
  187.2830  177.5630  145.5950 C   0  0  0  0  0  3  0  0  0  0  0  0
  189.5310  174.9460  144.9970 C   0  0  0  0  0  0  0  0  0  0  0  0
  187.6250  177.0610  142.8480 C   0  0  0  0  0  0  0  0  0  0  0  0
  190.6400  173.5410  142.8650 C   0  0  0  0  0  0  0  0  0  0  0  0
  189.2010  175.2670  143.6960 C   0  0  0  0  0  0  0  0  0  0  0  0
  188.1460  176.5530  145.1370 C   0  0  1  0  0  3  0  0  0  0  0  0
  190.9800  173.2140  144.1960 C   0  0  0  0  0  3  0  0  0  0  0  0
  190.4260  173.9180  145.2800 C   0  0  0  0  0  3  0  0  0  0  0  0
  186.7070  178.0510  141.1420 C   0  0  0  0  0  3  0  0  0  0  0  0
  188.8930  175.7250  145.9030 N   0  0  0  0  0  0  0  0  0  0  0  0
  186.5770  178.3330  144.6370 C   0  0  0  0  0  0  0  0  0  0  0  0
  187.6040  177.0310  141.4720 C   0  0  0  0  0  3  0  0  0  0  0  0
  185.6540  179.4210  145.0760 C   0  0  0  0  0  2  0  0  0  0  0  0
  184.0180  178.3080  146.5910 C   0  0  0  0  0  1  0  0  0  0  0  0
  184.2300  178.9090  145.2170 C   0  0  0  0  0  2  0  0  0  0  0  0
  189.7160  171.2080  139.0540 O   0  0  0  0  0  0  0  0  0  0  0  0
  189.3950  172.0270  140.1600 C   0  0  0  0  0  2  0  0  0  0  0  0
  190.3220  171.5870  141.3060 C   0  0  1  0  0  3  0  0  0  0  0  0
  191.1890  169.4150  138.4980 C   0  0  0  0  0  3  0  0  0  0  0  0
  190.6960  170.2940  139.3680 C   0  0  0  0  0  0  0  0  0  0  0  0
  191.1480  170.4150  140.7680 C   0  0  2  0  0  3  0  0  0  0  0  0
  190.7400  168.9440  141.6860 Cl  0  0  0  0  0  0  0  0  0  0  0  0
  191.5740  169.8980  134.7560 O   0  0  0  0  0  0  0  0  0  0  0  0
  191.4570  168.3250  136.3570 C   0  0  0  0  0  2  0  0  0  0  0  0
  191.8250  169.8020  136.1540 C   0  0  2  0  0  0  0  0  0  0  0  0
  190.7000  169.3430  137.0930 C   0  0  2  0  0  3  0  0  0  0  0  0
  191.0100  170.8920  135.5210 C   0  0  0  0  0  2  0  0  0  0  0  0
  192.8840  172.1110  142.2410 S   0  0  0  0  0  0  0  0  0  0  0  0
  193.7000  173.7010  141.9270 C   0  0  0  0  0  2  0  0  0  0  0  0
  194.6510  173.9890  142.9950 N   0  0  0  0  0  2  0  0  0  0  0  0
  194.1760  175.1230  143.7880 C   0  0  1  0  0  3  0  0  0  0  0  0
  195.2440  175.9460  144.1500 O   0  0  0  0  0  1  0  0  0  0  0  0
  192.6640  176.7170  144.0430 C   0  0  0  0  0  1  0  0  0  0  0  0
  193.2130  175.8570  143.0920 O   0  0  0  0  0  0  0  0  0  0  0  0
  1 33  1  1  0  0  0
  1  9  1  0  0  0  0
  2  3  1  0  0  0  0
  3 16  1  0  0  0  0
  4 11  1  0  0  0  0
  5  9  2  0  0  0  0
  5 10  1  0  0  0  0
  7 13  1  0  0  0  0
  7 15  2  0  0  0  0
  8  3  2  0  0  0  0
  8  4  1  0  0  0  0
  9 12  1  0  0  0  0
 10  4  2  0  0  0  0
 10  7  1  0  0  0  0
 11  6  1  1  0  0  0
 11 15  1  0  0  0  0
 12 13  2  0  0  0  0
 14 17  2  0  0  0  0
 14  2  1  0  0  0  0
 16 18  1  0  0  0  0
 16  6  2  0  0  0  0
 17  8  1  0  0  0  0
 18 20  1  0  0  0  0
 20 19  1  0  0  0  0
 21 25  1  0  0  0  0
 21 22  1  0  0  0  0
 22 23  1  0  0  0  0
 23  1  1  6  0  0  0
 24 25  2  0  0  0  0
 25 26  1  0  0  0  0
 26 23  1  0  0  0  0
 26 27  1  1  0  0  0
 28 32  1  0  0  0  0
 28 30  1  0  0  0  0
 29 31  1  0  0  0  0
 30 32  1  1  0  0  0
 30 29  1  0  0  0  0
 30 31  1  0  0  0  0
 31 24  1  1  0  0  0
 34 33  1  0  0  0  0
 34 35  1  0  0  0  0
 35 36  1  0  0  0  0
 36 37  1  6  0  0  0
 39 36  1  0  0  0  0
 39 38  1  0  0  0  0
M  END
>  <MODEL>
9

>  <REMARK>
 VINA RESULT:      -7.0      4.565     10.088
  Name = 
  10 active torsions:
  status: ('A' for Active; 'I' for Inactive)
    1  A    between atoms: S_6  and  C_8
    2  A    between atoms: S_6  and  C_20
    3  A    between atoms: C_8  and  N_18
    4  A    between atoms: C_13  and  C_20
    5  A    between atoms: C_14  and  N_18
    6  A    between atoms: C_14  and  O_33
    7  A    between atoms: C_17  and  C_21
    8  A    between atoms: C_19  and  C_37
    9  A    between atoms: C_19  and  C_39
   10  A    between atoms: C_20  and  C_26
                            x       y       z     vdW  Elec       q    Type
                         _______ _______ _______ _____ _____    ______ ____

>  <TORSDO>
F 10

$$$$
