=
 OpenBabel11042414213D

 27 31  0  0  1  0  0  0  0  0999 V2000
  190.5850  172.4810  141.8090 C   0  0  2  0  0  3  0  0  0  0  0  0
  191.4890  172.8210  144.4610 S   0  0  0  0  0  0  0  0  0  0  0  0
  189.3780  174.3250  143.1880 C   0  0  2  0  0  3  0  0  0  0  0  0
  188.1930  173.2440  141.1990 C   0  0  1  0  0  3  0  0  0  0  0  0
  192.1760  176.6890  143.8730 N   0  0  0  0  0  0  0  0  0  0  0  0
  191.4730  173.3730  141.2040 O   0  0  0  0  0  1  0  0  0  0  0  0
  191.0760  177.5790  143.7310 C   0  0  0  0  0  0  0  0  0  0  0  0
  193.6270  174.2020  143.6810 O   0  0  0  0  0  0  0  0  0  0  0  0
  189.3600  172.2860  140.9070 C   0  0  0  0  0  2  0  0  0  0  0  0
  190.2130  175.5370  143.5350 C   0  0  0  0  0  0  0  0  0  0  0  0
  190.1700  172.9840  143.1960 C   0  0  1  0  0  3  0  0  0  0  0  0
  189.8390  176.8170  143.5600 C   0  0  0  0  0  0  0  0  0  0  0  0
  187.2530  172.6160  142.0180 O   0  0  0  0  0  1  0  0  0  0  0  0
  191.6570  175.5100  143.7610 C   0  0  2  0  0  3  0  0  0  0  0  0
  188.6650  174.5490  141.8420 C   0  0  0  0  0  2  0  0  0  0  0  0
  192.3940  174.2670  143.9230 C   0  0  0  0  0  0  0  0  0  0  0  0
  191.1690  178.8880  143.9300 C   0  0  0  0  0  1  0  0  0  0  0  0
  184.9200  177.6660  145.6910 C   0  0  0  0  0  3  0  0  0  0  0  0
  187.2570  176.8690  145.5670 C   0  0  0  0  0  3  0  0  0  0  0  0
  185.9650  177.0400  146.2680 C   0  0  0  0  0  3  0  0  0  0  0  0
  186.6790  178.4600  142.4970 N   0  0  0  0  0  0  0  0  0  0  0  0
  186.3070  178.0400  143.6620 C   0  0  1  0  0  3  0  0  0  0  0  0
  187.3660  177.3350  144.3270 C   0  0  0  0  0  0  0  0  0  0  0  0
  188.0440  178.0460  142.3290 C   0  0  0  0  0  3  0  0  0  0  0  0
  184.6680  179.6740  144.3570 N   0  0  0  0  0  1  0  0  0  0  0  0
  188.4760  177.3660  143.3920 C   0  0  0  0  0  0  0  0  0  0  0  0
  184.9620  178.2530  144.2910 C   0  0  0  0  0  0  0  0  0  0  0  0
  1  6  1  6  0  0  0
  1 11  1  0  0  0  0
  3 15  1  6  0  0  0
  3 11  1  0  0  0  0
  3 10  1  0  0  0  0
  4 15  1  0  0  0  0
  4 13  1  1  0  0  0
  7  5  2  0  0  0  0
  7 17  1  0  0  0  0
  8 16  2  0  0  0  0
  9  4  1  0  0  0  0
  9  1  1  0  0  0  0
 10 12  2  0  0  0  0
 11  2  1  1  0  0  0
 12  7  1  0  0  0  0
 14 10  1  1  0  0  0
 14  5  1  0  0  0  0
 14 16  1  0  0  0  0
 16  2  1  0  0  0  0
 18 20  1  0  0  0  0
 19 20  2  0  0  0  0
 22 21  1  1  0  0  0
 22 27  1  0  0  0  0
 22 23  1  0  0  0  0
 23 19  1  0  0  0  0
 24 21  2  0  0  0  0
 24 26  1  0  0  0  0
 26 12  1  0  0  0  0
 26 23  2  0  0  0  0
 27 25  1  0  0  0  0
 27 18  2  0  0  0  0
M  END
>  <MODEL>
1

>  <REMARK>
 VINA RESULT:      -7.7      0.000      0.000
  Name = 
  1 active torsions:
  status: ('A' for Active; 'I' for Inactive)
    1  A    between atoms: C_18  and  C_26
                            x       y       z     vdW  Elec       q    Type
                         _______ _______ _______ _____ _____    ______ ____

>  <TORSDO>
F 1

$$$$
=
 OpenBabel11042414213D

 27 31  0  0  1  0  0  0  0  0999 V2000
  185.6830  177.9030  142.7500 C   0  0  2  0  0  3  0  0  0  0  0  0
  185.8780  179.2580  145.2190 S   0  0  0  0  0  0  0  0  0  0  0  0
  188.0110  177.8210  143.9040 C   0  0  2  0  0  3  0  0  0  0  0  0
  187.8330  177.4980  141.3760 C   0  0  1  0  0  3  0  0  0  0  0  0
  187.2130  175.9970  147.0540 N   0  0  0  0  0  0  0  0  0  0  0  0
  185.2750  176.6680  143.2580 O   0  0  0  0  0  1  0  0  0  0  0  0
  188.5260  175.5270  146.7750 C   0  0  0  0  0  0  0  0  0  0  0  0
  184.6800  177.2770  146.5350 O   0  0  0  0  0  0  0  0  0  0  0  0
  186.3090  177.7070  141.3640 C   0  0  0  0  0  2  0  0  0  0  0  0
  188.0810  177.0190  145.1850 C   0  0  0  0  0  0  0  0  0  0  0  0
  186.6680  178.5850  143.7050 C   0  0  1  0  0  3  0  0  0  0  0  0
  189.0660  176.2250  145.6080 C   0  0  0  0  0  0  0  0  0  0  0  0
  188.4820  178.7060  141.1110 O   0  0  0  0  0  1  0  0  0  0  0  0
  186.9740  176.8640  146.1250 C   0  0  0  0  0  0  0  0  0  0  0  0
  188.3260  176.9140  142.7000 C   0  0  0  0  0  2  0  0  0  0  0  0
  185.7690  177.6760  146.0480 C   0  0  0  0  0  0  0  0  0  0  0  0
  189.2000  174.7260  147.5900 C   0  0  0  0  0  2  0  0  0  0  0  0
  192.3580  173.1450  142.5850 C   0  0  0  0  0  3  0  0  0  0  0  0
  190.2930  173.8140  143.7700 C   0  0  0  0  0  3  0  0  0  0  0  0
  191.0800  172.8850  142.9280 C   0  0  0  0  0  3  0  0  0  0  0  0
  192.5530  176.4340  144.3380 N   0  0  0  0  0  0  0  0  0  0  0  0
  192.2300  175.2790  143.8560 C   0  0  0  0  0  0  0  0  0  0  0  0
  190.8850  174.9220  144.2070 C   0  0  0  0  0  0  0  0  0  0  0  0
  191.4030  176.9160  145.0500 C   0  0  0  0  0  3  0  0  0  0  0  0
  193.5490  175.1190  141.8370 N   0  0  0  0  0  1  0  0  0  0  0  0
  190.4010  176.0360  145.0020 C   0  0  0  0  0  0  0  0  0  0  0  0
  193.1050  174.3950  143.0160 C   0  0  2  0  0  3  0  0  0  0  0  0
  1  6  1  1  0  0  0
  1 11  1  0  0  0  0
  2 16  1  0  0  0  0
  3 15  1  6  0  0  0
  3 10  1  0  0  0  0
  4 13  1  1  0  0  0
  4 15  1  0  0  0  0
  7  5  1  0  0  0  0
  7 17  2  0  0  0  0
  9  4  1  0  0  0  0
  9  1  1  0  0  0  0
 10 12  2  0  0  0  0
 10 14  1  0  0  0  0
 11  3  1  0  0  0  0
 11  2  1  1  0  0  0
 12  7  1  0  0  0  0
 14  5  2  0  0  0  0
 16 14  1  0  0  0  0
 16  8  2  0  0  0  0
 18 20  2  0  0  0  0
 18 27  1  0  0  0  0
 19 23  2  0  0  0  0
 20 19  1  0  0  0  0
 21 24  1  0  0  0  0
 22 23  1  0  0  0  0
 22 21  2  0  0  0  0
 23 26  1  0  0  0  0
 26 24  2  0  0  0  0
 26 12  1  0  0  0  0
 27 25  1  6  0  0  0
 27 22  1  0  0  0  0
M  END
>  <MODEL>
2

>  <REMARK>
 VINA RESULT:      -7.7      3.285      6.429
  Name = 
  1 active torsions:
  status: ('A' for Active; 'I' for Inactive)
    1  A    between atoms: C_18  and  C_26
                            x       y       z     vdW  Elec       q    Type
                         _______ _______ _______ _____ _____    ______ ____

>  <TORSDO>
F 1

$$$$
=
 OpenBabel11042414213D

 27 31  0  0  1  0  0  0  0  0999 V2000
  185.6820  178.0440  142.7680 C   0  0  2  0  0  3  0  0  0  0  0  0
  185.9410  179.3820  145.2400 S   0  0  0  0  0  0  0  0  0  0  0  0
  187.9890  177.8120  143.9440 C   0  0  2  0  0  3  0  0  0  0  0  0
  187.8150  177.5020  141.4130 C   0  0  1  0  0  3  0  0  0  0  0  0
  187.0460  176.0410  147.0840 N   0  0  0  0  0  0  0  0  0  0  0  0
  185.1910  176.8370  143.2710 O   0  0  0  0  0  1  0  0  0  0  0  0
  188.3290  175.4880  146.8170 C   0  0  0  0  0  0  0  0  0  0  0  0
  184.6050  177.4830  146.5420 O   0  0  0  0  0  0  0  0  0  0  0  0
  186.3080  177.8080  141.3880 C   0  0  0  0  0  2  0  0  0  0  0  0
  187.9950  177.0060  145.2240 C   0  0  0  0  0  0  0  0  0  0  0  0
  186.7010  178.6610  143.7330 C   0  0  1  0  0  3  0  0  0  0  0  0
  188.9230  176.1500  145.6550 C   0  0  0  0  0  0  0  0  0  0  0  0
  188.5420  178.6650  141.1560 O   0  0  0  0  0  1  0  0  0  0  0  0
  186.8710  176.9220  146.1530 C   0  0  0  0  0  0  0  0  0  0  0  0
  188.2560  176.8870  142.7420 C   0  0  0  0  0  2  0  0  0  0  0  0
  185.7220  177.8100  146.0660 C   0  0  0  0  0  0  0  0  0  0  0  0
  188.9420  174.6440  147.6370 C   0  0  0  0  0  2  0  0  0  0  0  0
  194.3240  176.3650  146.1490 C   0  0  0  0  0  3  0  0  0  0  0  0
  191.9510  176.6790  146.7710 C   0  0  0  0  0  3  0  0  0  0  0  0
  193.4030  176.7910  147.0370 C   0  0  0  0  0  3  0  0  0  0  0  0
  191.8660  175.1290  143.6280 N   0  0  0  0  0  0  0  0  0  0  0  0
  192.4850  175.6540  144.6340 C   0  0  1  0  0  3  0  0  0  0  0  0
  191.5630  176.1580  145.6120 C   0  0  0  0  0  0  0  0  0  0  0  0
  190.4610  175.2580  143.8980 C   0  0  0  0  0  3  0  0  0  0  0  0
  194.5490  174.4010  144.7450 N   0  0  0  0  0  1  0  0  0  0  0  0
  190.2490  175.8760  145.0610 C   0  0  0  0  0  0  0  0  0  0  0  0
  193.9730  175.7330  144.8130 C   0  0  0  0  0  0  0  0  0  0  0  0
  1  6  1  1  0  0  0
  1 11  1  0  0  0  0
  2 16  1  0  0  0  0
  3 15  1  6  0  0  0
  3 10  1  0  0  0  0
  4 13  1  1  0  0  0
  4 15  1  0  0  0  0
  7  5  1  0  0  0  0
  7 17  2  0  0  0  0
  9  4  1  0  0  0  0
  9  1  1  0  0  0  0
 10 12  2  0  0  0  0
 10 14  1  0  0  0  0
 11  3  1  0  0  0  0
 11  2  1  1  0  0  0
 12  7  1  0  0  0  0
 14  5  2  0  0  0  0
 16 14  1  0  0  0  0
 16  8  2  0  0  0  0
 18 20  1  0  0  0  0
 19 20  2  0  0  0  0
 21 24  2  0  0  0  0
 22 21  1  1  0  0  0
 22 27  1  0  0  0  0
 22 23  1  0  0  0  0
 23 19  1  0  0  0  0
 24 26  1  0  0  0  0
 25 27  1  0  0  0  0
 26 23  2  0  0  0  0
 26 12  1  0  0  0  0
 27 18  2  0  0  0  0
M  END
>  <MODEL>
3

>  <REMARK>
 VINA RESULT:      -7.5      3.523      6.568
  Name = 
  1 active torsions:
  status: ('A' for Active; 'I' for Inactive)
    1  A    between atoms: C_18  and  C_26
                            x       y       z     vdW  Elec       q    Type
                         _______ _______ _______ _____ _____    ______ ____

>  <TORSDO>
F 1

$$$$
=
 OpenBabel11042414213D

 27 31  0  0  1  0  0  0  0  0999 V2000
  193.3190  174.6360  144.9840 C   0  0  2  0  0  3  0  0  0  0  0  0
  193.1060  176.0410  142.5450 S   0  0  0  0  0  0  0  0  0  0  0  0
  191.2370  176.1740  144.7420 C   0  0  2  0  0  3  0  0  0  0  0  0
  192.1030  175.5620  147.0670 C   0  0  1  0  0  3  0  0  0  0  0  0
  189.4710  174.5850  141.8700 N   0  0  0  0  0  0  0  0  0  0  0  0
  192.6390  173.4830  144.5840 O   0  0  0  0  0  1  0  0  0  0  0  0
  188.3810  175.0370  142.6640 C   0  0  0  0  0  0  0  0  0  0  0  0
  192.2040  173.8950  141.2510 O   0  0  0  0  0  0  0  0  0  0  0  0
  193.2840  174.7480  146.5130 C   0  0  0  0  0  2  0  0  0  0  0  0
  190.2110  175.7340  143.7220 C   0  0  0  0  0  0  0  0  0  0  0  0
  192.7100  175.8810  144.3290 C   0  0  1  0  0  3  0  0  0  0  0  0
  188.8810  175.7980  143.8090 C   0  0  0  0  0  0  0  0  0  0  0  0
  192.5080  176.8710  147.3310 O   0  0  0  0  0  1  0  0  0  0  0  0
  190.5230  175.0020  142.4970 C   0  0  0  0  0  0  0  0  0  0  0  0
  190.9050  175.5620  146.1160 C   0  0  0  0  0  2  0  0  0  0  0  0
  191.8860  174.8460  142.0110 C   0  0  0  0  0  0  0  0  0  0  0  0
  187.1130  174.9360  142.2830 C   0  0  0  0  0  2  0  0  0  0  0  0
  185.3050  179.6530  145.1570 C   0  0  0  0  0  3  0  0  0  0  0  0
  186.8110  178.3290  143.7100 C   0  0  0  0  0  3  0  0  0  0  0  0
  185.8330  179.4160  143.9400 C   0  0  0  0  0  3  0  0  0  0  0  0
  187.0980  176.8740  146.8880 N   0  0  0  0  0  0  0  0  0  0  0  0
  186.6390  177.7620  146.0670 C   0  0  0  0  0  0  0  0  0  0  0  0
  187.1820  177.5870  144.7500 C   0  0  0  0  0  0  0  0  0  0  0  0
  187.9910  176.0410  146.1330 C   0  0  0  0  0  3  0  0  0  0  0  0
  184.4380  178.2520  146.9350 N   0  0  0  0  0  1  0  0  0  0  0  0
  188.0720  176.4460  144.8640 C   0  0  0  0  0  0  0  0  0  0  0  0
  185.6500  178.8420  146.3940 C   0  0  2  0  0  3  0  0  0  0  0  0
  1  6  1  1  0  0  0
  1  9  1  0  0  0  0
  3 15  1  1  0  0  0
  4 13  1  6  0  0  0
  5 14  2  0  0  0  0
  5  7  1  0  0  0  0
  7 12  1  0  0  0  0
  8 16  2  0  0  0  0
  9  4  1  0  0  0  0
 10 12  2  0  0  0  0
 10  3  1  0  0  0  0
 11  2  1  6  0  0  0
 11  3  1  0  0  0  0
 11  1  1  0  0  0  0
 12 26  1  0  0  0  0
 14 10  1  0  0  0  0
 15  4  1  0  0  0  0
 16 14  1  0  0  0  0
 16  2  1  0  0  0  0
 17  7  2  0  0  0  0
 18 27  1  0  0  0  0
 19 20  1  0  0  0  0
 19 23  2  0  0  0  0
 20 18  2  0  0  0  0
 22 27  1  0  0  0  0
 22 21  2  0  0  0  0
 23 26  1  0  0  0  0
 23 22  1  0  0  0  0
 24 21  1  0  0  0  0
 26 24  2  0  0  0  0
 27 25  1  6  0  0  0
M  END
>  <MODEL>
4

>  <REMARK>
 VINA RESULT:      -7.4      2.385      4.088
  Name = 
  1 active torsions:
  status: ('A' for Active; 'I' for Inactive)
    1  A    between atoms: C_18  and  C_26
                            x       y       z     vdW  Elec       q    Type
                         _______ _______ _______ _____ _____    ______ ____

>  <TORSDO>
F 1

$$$$
=
 OpenBabel11042414213D

 27 31  0  0  1  0  0  0  0  0999 V2000
  194.9070  174.9370  144.3350 C   0  0  2  0  0  3  0  0  0  0  0  0
  194.0910  176.0790  141.8870 S   0  0  0  0  0  0  0  0  0  0  0  0
  192.4970  175.9090  144.2890 C   0  0  2  0  0  3  0  0  0  0  0  0
  193.7340  175.6840  146.5130 C   0  0  1  0  0  3  0  0  0  0  0  0
  190.8760  173.7500  141.7200 N   0  0  0  0  0  0  0  0  0  0  0  0
  194.4940  173.6300  144.0680 O   0  0  0  0  0  1  0  0  0  0  0  0
  189.8010  173.9800  142.6220 C   0  0  0  0  0  0  0  0  0  0  0  0
  193.6110  173.6960  140.8000 O   0  0  0  0  0  0  0  0  0  0  0  0
  195.0120  175.1420  145.8520 C   0  0  0  0  0  2  0  0  0  0  0  0
  191.5060  175.1670  143.4200 C   0  0  0  0  0  0  0  0  0  0  0  0
  193.9430  175.9510  143.7110 C   0  0  1  0  0  3  0  0  0  0  0  0
  190.2200  174.9160  143.6660 C   0  0  0  0  0  0  0  0  0  0  0  0
  193.8300  177.0680  146.6730 O   0  0  0  0  0  1  0  0  0  0  0  0
  191.8550  174.4490  142.1960 C   0  0  0  0  0  0  0  0  0  0  0  0
  192.4780  175.3320  145.7160 C   0  0  0  0  0  2  0  0  0  0  0  0
  193.1530  174.5920  141.5550 C   0  0  0  0  0  0  0  0  0  0  0  0
  188.5640  173.5520  142.4030 C   0  0  0  0  0  2  0  0  0  0  0  0
  186.4260  178.3950  145.3890 C   0  0  0  0  0  3  0  0  0  0  0  0
  187.9810  177.2960  143.8110 C   0  0  0  0  0  3  0  0  0  0  0  0
  186.9370  178.2900  144.1460 C   0  0  0  0  0  3  0  0  0  0  0  0
  188.4460  175.6200  146.8560 N   0  0  0  0  0  0  0  0  0  0  0  0
  187.9070  176.5350  146.1180 C   0  0  0  0  0  0  0  0  0  0  0  0
  188.4270  176.5030  144.7800 C   0  0  0  0  0  0  0  0  0  0  0  0
  189.3740  174.9130  146.0190 C   0  0  0  0  0  3  0  0  0  0  0  0
  185.7010  176.8020  147.0660 N   0  0  0  0  0  1  0  0  0  0  0  0
  189.3960  175.4210  144.7850 C   0  0  0  0  0  0  0  0  0  0  0  0
  186.8560  177.5150  146.5500 C   0  0  2  0  0  3  0  0  0  0  0  0
  1  6  1  1  0  0  0
  1  9  1  0  0  0  0
  3 15  1  1  0  0  0
  4 13  1  6  0  0  0
  5 14  2  0  0  0  0
  5  7  1  0  0  0  0
  7 12  1  0  0  0  0
  8 16  2  0  0  0  0
  9  4  1  0  0  0  0
 10 12  2  0  0  0  0
 10  3  1  0  0  0  0
 11  2  1  6  0  0  0
 11  3  1  0  0  0  0
 11  1  1  0  0  0  0
 12 26  1  0  0  0  0
 14 10  1  0  0  0  0
 15  4  1  0  0  0  0
 16  2  1  0  0  0  0
 16 14  1  0  0  0  0
 17  7  2  0  0  0  0
 18 27  1  0  0  0  0
 19 20  1  0  0  0  0
 19 23  2  0  0  0  0
 20 18  2  0  0  0  0
 22 27  1  0  0  0  0
 22 21  2  0  0  0  0
 23 26  1  0  0  0  0
 23 22  1  0  0  0  0
 24 21  1  0  0  0  0
 26 24  2  0  0  0  0
 27 25  1  6  0  0  0
M  END
>  <MODEL>
5

>  <REMARK>
 VINA RESULT:      -7.1      2.561      4.556
  Name = 
  1 active torsions:
  status: ('A' for Active; 'I' for Inactive)
    1  A    between atoms: C_18  and  C_26
                            x       y       z     vdW  Elec       q    Type
                         _______ _______ _______ _____ _____    ______ ____

>  <TORSDO>
F 1

$$$$
=
 OpenBabel11042414213D

 27 31  0  0  1  0  0  0  0  0999 V2000
  191.1700  172.0410  141.9090 C   0  0  2  0  0  3  0  0  0  0  0  0
  192.5200  170.9490  144.1340 S   0  0  0  0  0  0  0  0  0  0  0  0
  190.3750  172.8780  144.2370 C   0  0  2  0  0  3  0  0  0  0  0  0
  188.7890  172.9890  142.2370 C   0  0  1  0  0  3  0  0  0  0  0  0
  193.4480  174.5590  145.5100 N   0  0  0  0  0  0  0  0  0  0  0  0
  192.0240  173.1250  141.6980 O   0  0  0  0  0  1  0  0  0  0  0  0
  192.4240  175.3820  146.0550 C   0  0  0  0  0  0  0  0  0  0  0  0
  194.6190  172.5530  143.7960 O   0  0  0  0  0  0  0  0  0  0  0  0
  189.8010  172.3360  141.2820 C   0  0  0  0  0  2  0  0  0  0  0  0
  191.3610  173.7370  144.9980 C   0  0  0  0  0  0  0  0  0  0  0  0
  191.0330  171.7390  143.4050 C   0  0  1  0  0  3  0  0  0  0  0  0
  191.1120  174.8110  145.7480 C   0  0  0  0  0  0  0  0  0  0  0  0
  187.9420  172.0170  142.7720 O   0  0  0  0  0  1  0  0  0  0  0  0
  192.8130  173.6080  144.9040 C   0  0  0  0  0  0  0  0  0  0  0  0
  189.4740  173.7680  143.3600 C   0  0  0  0  0  2  0  0  0  0  0  0
  193.4520  172.4710  144.2610 C   0  0  0  0  0  0  0  0  0  0  0  0
  192.6660  176.3930  146.8790 C   0  0  0  0  0  2  0  0  0  0  0  0
  187.0120  178.1980  144.6620 C   0  0  0  0  0  3  0  0  0  0  0  0
  189.1920  177.0680  144.3650 C   0  0  0  0  0  3  0  0  0  0  0  0
  188.1430  178.0270  143.9490 C   0  0  0  0  0  3  0  0  0  0  0  0
  187.8310  175.6620  147.2740 N   0  0  0  0  0  0  0  0  0  0  0  0
  187.8110  176.4850  146.2780 C   0  0  0  0  0  0  0  0  0  0  0  0
  189.0030  176.3780  145.4850 C   0  0  0  0  0  0  0  0  0  0  0  0
  189.0720  174.9440  147.1870 C   0  0  0  0  0  3  0  0  0  0  0  0
  185.4590  176.7030  145.7690 N   0  0  0  0  0  1  0  0  0  0  0  0
  189.7950  175.3550  146.1440 C   0  0  0  0  0  0  0  0  0  0  0  0
  186.7010  177.4360  145.9380 C   0  0  2  0  0  3  0  0  0  0  0  0
  1  6  1  1  0  0  0
  1 11  1  0  0  0  0
  2 16  1  0  0  0  0
  3 15  1  6  0  0  0
  3 10  1  0  0  0  0
  4 13  1  1  0  0  0
  4 15  1  0  0  0  0
  5  7  1  0  0  0  0
  7 17  2  0  0  0  0
  8 16  2  0  0  0  0
  9  1  1  0  0  0  0
  9  4  1  0  0  0  0
 10 12  2  0  0  0  0
 11  2  1  1  0  0  0
 11  3  1  0  0  0  0
 12  7  1  0  0  0  0
 12 26  1  0  0  0  0
 14 10  1  0  0  0  0
 14  5  2  0  0  0  0
 16 14  1  0  0  0  0
 18 27  1  0  0  0  0
 19 23  2  0  0  0  0
 20 19  1  0  0  0  0
 20 18  2  0  0  0  0
 22 21  2  0  0  0  0
 23 26  1  0  0  0  0
 23 22  1  0  0  0  0
 24 21  1  0  0  0  0
 26 24  2  0  0  0  0
 27 25  1  6  0  0  0
 27 22  1  0  0  0  0
M  END
>  <MODEL>
6

>  <REMARK>
 VINA RESULT:      -7.0      2.140      2.885
  Name = 
  1 active torsions:
  status: ('A' for Active; 'I' for Inactive)
    1  A    between atoms: C_18  and  C_26
                            x       y       z     vdW  Elec       q    Type
                         _______ _______ _______ _____ _____    ______ ____

>  <TORSDO>
F 1

$$$$
=
 OpenBabel11042414213D

 27 31  0  0  1  0  0  0  0  0999 V2000
  195.7600  174.8870  143.8750 C   0  0  2  0  0  3  0  0  0  0  0  0
  195.4140  175.7500  141.2100 S   0  0  0  0  0  0  0  0  0  0  0  0
  193.5140  176.0890  143.3580 C   0  0  2  0  0  3  0  0  0  0  0  0
  194.4150  176.0530  145.7480 C   0  0  1  0  0  3  0  0  0  0  0  0
  191.9870  173.7690  140.8730 N   0  0  0  0  0  0  0  0  0  0  0  0
  195.2280  173.6060  143.7170 O   0  0  0  0  0  1  0  0  0  0  0  0
  190.8410  174.2340  141.5740 C   0  0  0  0  0  0  0  0  0  0  0  0
  194.7910  173.3000  140.3730 O   0  0  0  0  0  0  0  0  0  0  0  0
  195.6920  175.2920  145.3530 C   0  0  0  0  0  2  0  0  0  0  0  0
  192.5610  175.3380  142.4550 C   0  0  0  0  0  0  0  0  0  0  0  0
  195.0160  175.8980  142.9950 C   0  0  1  0  0  3  0  0  0  0  0  0
  191.2320  175.2590  142.5410 C   0  0  0  0  0  0  0  0  0  0  0  0
  194.6590  177.4280  145.7460 O   0  0  0  0  0  1  0  0  0  0  0  0
  192.9740  174.4220  141.3940 C   0  0  0  0  0  0  0  0  0  0  0  0
  193.2390  175.7240  144.8290 C   0  0  0  0  0  2  0  0  0  0  0  0
  194.3520  174.3370  140.9350 C   0  0  0  0  0  0  0  0  0  0  0  0
  189.6000  173.9100  141.2330 C   0  0  0  0  0  2  0  0  0  0  0  0
  188.5500  175.3870  147.2590 C   0  0  0  0  0  3  0  0  0  0  0  0
  189.9900  174.4790  145.4650 C   0  0  0  0  0  3  0  0  0  0  0  0
  189.3170  174.3860  146.7800 C   0  0  0  0  0  3  0  0  0  0  0  0
  189.0670  177.6750  144.3560 N   0  0  0  0  0  0  0  0  0  0  0  0
  189.0320  176.6970  145.2010 C   0  0  1  0  0  3  0  0  0  0  0  0
  189.8080  175.5800  144.7420 C   0  0  0  0  0  0  0  0  0  0  0  0
  189.8940  177.2440  143.2640 C   0  0  0  0  0  3  0  0  0  0  0  0
  188.7590  177.8000  147.3340 N   0  0  0  0  0  1  0  0  0  0  0  0
  190.3380  176.0010  143.4570 C   0  0  0  0  0  0  0  0  0  0  0  0
  188.3080  176.6880  146.5150 C   0  0  0  0  0  0  0  0  0  0  0  0
  1  6  1  1  0  0  0
  1  9  1  0  0  0  0
  3 15  1  1  0  0  0
  4 13  1  6  0  0  0
  5 14  2  0  0  0  0
  5  7  1  0  0  0  0
  7 12  1  0  0  0  0
  8 16  2  0  0  0  0
  9  4  1  0  0  0  0
 10 12  2  0  0  0  0
 10  3  1  0  0  0  0
 11  2  1  6  0  0  0
 11  3  1  0  0  0  0
 11  1  1  0  0  0  0
 12 26  1  0  0  0  0
 14 10  1  0  0  0  0
 15  4  1  0  0  0  0
 16  2  1  0  0  0  0
 16 14  1  0  0  0  0
 17  7  2  0  0  0  0
 19 20  2  0  0  0  0
 20 18  1  0  0  0  0
 22 21  1  1  0  0  0
 22 27  1  0  0  0  0
 23 22  1  0  0  0  0
 23 19  1  0  0  0  0
 24 26  1  0  0  0  0
 24 21  2  0  0  0  0
 26 23  2  0  0  0  0
 27 18  2  0  0  0  0
 27 25  1  0  0  0  0
M  END
>  <MODEL>
7

>  <REMARK>
 VINA RESULT:      -6.8      3.017      4.941
  Name = 
  1 active torsions:
  status: ('A' for Active; 'I' for Inactive)
    1  A    between atoms: C_18  and  C_26
                            x       y       z     vdW  Elec       q    Type
                         _______ _______ _______ _____ _____    ______ ____

>  <TORSDO>
F 1

$$$$
=
 OpenBabel11042414213D

 27 31  0  0  1  0  0  0  0  0999 V2000
  193.6860  171.5730  142.9710 C   0  0  2  0  0  3  0  0  0  0  0  0
  194.9170  171.1960  145.4830 S   0  0  0  0  0  0  0  0  0  0  0  0
  192.6230  172.8680  144.9580 C   0  0  2  0  0  3  0  0  0  0  0  0
  191.2170  172.3310  142.8940 C   0  0  1  0  0  3  0  0  0  0  0  0
  195.4270  175.1060  145.9690 N   0  0  0  0  0  0  0  0  0  0  0  0
  194.4650  172.6530  142.5520 O   0  0  0  0  0  1  0  0  0  0  0  0
  194.2960  175.9300  146.2220 C   0  0  0  0  0  0  0  0  0  0  0  0
  196.9020  172.8700  144.8930 O   0  0  0  0  0  0  0  0  0  0  0  0
  192.3590  171.5680  142.2010 C   0  0  0  0  0  2  0  0  0  0  0  0
  193.4660  173.9800  145.5430 C   0  0  0  0  0  0  0  0  0  0  0  0
  193.4420  171.6320  144.4830 C   0  0  1  0  0  3  0  0  0  0  0  0
  193.0660  175.1740  145.9820 C   0  0  0  0  0  0  0  0  0  0  0  0
  190.4060  171.4390  143.5990 O   0  0  0  0  0  1  0  0  0  0  0  0
  194.9260  173.9780  145.5800 C   0  0  0  0  0  0  0  0  0  0  0  0
  191.7350  173.4240  143.8280 C   0  0  0  0  0  2  0  0  0  0  0  0
  195.7090  172.7880  145.2860 C   0  0  0  0  0  0  0  0  0  0  0  0
  194.3820  177.1310  146.7800 C   0  0  0  0  0  2  0  0  0  0  0  0
  188.9140  177.9980  143.9220 C   0  0  0  0  0  3  0  0  0  0  0  0
  191.1800  177.0170  144.0480 C   0  0  0  0  0  3  0  0  0  0  0  0
  190.1290  177.8090  143.3700 C   0  0  0  0  0  3  0  0  0  0  0  0
  189.5820  175.9840  146.9920 N   0  0  0  0  0  0  0  0  0  0  0  0
  189.6260  176.6350  145.8760 C   0  0  0  0  0  0  0  0  0  0  0  0
  190.9070  176.5020  145.2420 C   0  0  0  0  0  0  0  0  0  0  0  0
  190.8680  175.3660  147.1570 C   0  0  0  0  0  3  0  0  0  0  0  0
  187.3400  176.5750  145.0950 N   0  0  0  0  0  1  0  0  0  0  0  0
  191.6800  175.6640  146.1420 C   0  0  0  0  0  0  0  0  0  0  0  0
  188.5050  177.4250  145.2680 C   0  0  2  0  0  3  0  0  0  0  0  0
  1  6  1  6  0  0  0
  1 11  1  0  0  0  0
  3 15  1  6  0  0  0
  3 10  1  0  0  0  0
  4 13  1  1  0  0  0
  4 15  1  0  0  0  0
  5  7  1  0  0  0  0
  7 17  2  0  0  0  0
  8 16  2  0  0  0  0
  9  4  1  0  0  0  0
  9  1  1  0  0  0  0
 10 14  1  0  0  0  0
 10 12  2  0  0  0  0
 11  3  1  0  0  0  0
 11  2  1  1  0  0  0
 12 26  1  0  0  0  0
 12  7  1  0  0  0  0
 14  5  2  0  0  0  0
 16  2  1  0  0  0  0
 16 14  1  0  0  0  0
 18 27  1  0  0  0  0
 19 23  2  0  0  0  0
 20 18  2  0  0  0  0
 20 19  1  0  0  0  0
 21 24  1  0  0  0  0
 22 21  2  0  0  0  0
 23 22  1  0  0  0  0
 23 26  1  0  0  0  0
 26 24  2  0  0  0  0
 27 25  1  6  0  0  0
 27 22  1  0  0  0  0
M  END
>  <MODEL>
8

>  <REMARK>
 VINA RESULT:      -6.7      2.811      4.222
  Name = 
  1 active torsions:
  status: ('A' for Active; 'I' for Inactive)
    1  A    between atoms: C_18  and  C_26
                            x       y       z     vdW  Elec       q    Type
                         _______ _______ _______ _____ _____    ______ ____

>  <TORSDO>
F 1

$$$$
=
 OpenBabel11042414213D

 27 31  0  0  1  0  0  0  0  0999 V2000
  191.7710  172.2650  143.3450 C   0  0  2  0  0  3  0  0  0  0  0  0
  193.8860  173.4420  144.7970 S   0  0  0  0  0  0  0  0  0  0  0  0
  191.1030  174.1940  144.9540 C   0  0  2  0  0  3  0  0  0  0  0  0
  189.3680  172.4460  144.2740 C   0  0  1  0  0  3  0  0  0  0  0  0
  192.9540  177.0700  143.4720 N   0  0  0  0  0  0  0  0  0  0  0  0
  191.8460  173.0920  142.2220 O   0  0  0  0  0  1  0  0  0  0  0  0
  191.7710  177.7030  143.9460 C   0  0  0  0  0  0  0  0  0  0  0  0
  194.6770  174.8860  142.7040 O   0  0  0  0  0  0  0  0  0  0  0  0
  190.3720  171.6430  143.4310 C   0  0  0  0  0  2  0  0  0  0  0  0
  191.5900  175.5720  144.5640 C   0  0  0  0  0  0  0  0  0  0  0  0
  192.1030  173.0480  144.6190 C   0  0  1  0  0  3  0  0  0  0  0  0
  190.9460  176.7350  144.6710 C   0  0  0  0  0  0  0  0  0  0  0  0
  189.2990  171.9190  145.5650 O   0  0  0  0  0  1  0  0  0  0  0  0
  192.8330  175.8370  143.8440 C   0  0  0  0  0  0  0  0  0  0  0  0
  189.7190  173.9330  144.3300 C   0  0  0  0  0  2  0  0  0  0  0  0
  193.8520  174.8160  143.6510 C   0  0  0  0  0  0  0  0  0  0  0  0
  191.5770  179.0140  143.8930 C   0  0  0  0  0  2  0  0  0  0  0  0
  185.7140  178.0850  144.1520 C   0  0  0  0  0  3  0  0  0  0  0  0
  188.0360  177.5990  143.4530 C   0  0  0  0  0  3  0  0  0  0  0  0
  186.6310  177.9690  143.1700 C   0  0  0  0  0  3  0  0  0  0  0  0
  188.0270  177.1600  146.9320 N   0  0  0  0  0  0  0  0  0  0  0  0
  187.4620  177.4710  145.8110 C   0  0  0  0  0  0  0  0  0  0  0  0
  188.3900  177.3970  144.7180 C   0  0  0  0  0  0  0  0  0  0  0  0
  189.3960  176.8520  146.6290 C   0  0  0  0  0  3  0  0  0  0  0  0
  185.1650  176.7890  146.1250 N   0  0  0  0  0  1  0  0  0  0  0  0
  189.6470  176.9950  145.3260 C   0  0  0  0  0  0  0  0  0  0  0  0
  186.0220  177.8470  145.6200 C   0  0  2  0  0  3  0  0  0  0  0  0
  1  6  1  6  0  0  0
  1  9  1  0  0  0  0
  1 11  1  0  0  0  0
  3 15  1  6  0  0  0
  4 15  1  0  0  0  0
  4 13  1  1  0  0  0
  5 14  2  0  0  0  0
  5  7  1  0  0  0  0
  7 12  1  0  0  0  0
  8 16  2  0  0  0  0
  9  4  1  0  0  0  0
 10 12  2  0  0  0  0
 10  3  1  0  0  0  0
 11  2  1  6  0  0  0
 11  3  1  0  0  0  0
 12 26  1  0  0  0  0
 14 10  1  0  0  0  0
 16 14  1  0  0  0  0
 16  2  1  0  0  0  0
 17  7  2  0  0  0  0
 18 27  1  0  0  0  0
 19 23  2  0  0  0  0
 20 19  1  0  0  0  0
 20 18  2  0  0  0  0
 22 21  2  0  0  0  0
 23 26  1  0  0  0  0
 23 22  1  0  0  0  0
 24 21  1  0  0  0  0
 26 24  2  0  0  0  0
 27 22  1  0  0  0  0
 27 25  1  6  0  0  0
M  END
>  <MODEL>
9

>  <REMARK>
 VINA RESULT:      -6.7      1.995      2.532
  Name = 
  1 active torsions:
  status: ('A' for Active; 'I' for Inactive)
    1  A    between atoms: C_18  and  C_26
                            x       y       z     vdW  Elec       q    Type
                         _______ _______ _______ _____ _____    ______ ____

>  <TORSDO>
F 1

$$$$
