=
 OpenBabel11042414053D

 31 34  0  0  1  0  0  0  0  0999 V2000
  190.4420  175.5710  142.1100 N   0  0  0  0  0  0  0  0  0  0  0  0
  190.9730  174.4190  141.6290 O   0  0  0  0  0  0  0  0  0  0  0  0
  185.1940  176.7270  146.0790 C   0  0  0  0  0  2  0  0  0  0  0  0
  189.0090  175.5000  142.3270 C   0  0  1  0  0  3  0  0  0  0  0  0
  186.4420  176.9320  145.2270 C   0  0  0  0  0  2  0  0  0  0  0  0
  188.9020  177.6180  145.4360 N   0  0  0  0  0  2  0  0  0  0  0  0
  189.3700  176.9780  144.2420 C   0  0  0  0  0  0  0  0  0  0  0  0
  184.9160  177.9850  146.8800 C   0  0  0  0  0  2  0  0  0  0  0  0
  191.2640  176.5190  142.8030 C   0  0  0  0  0  0  0  0  0  0  0  0
  187.3650  178.1860  147.1190 N   0  0  0  0  0  0  0  0  0  0  0  0
  188.7630  174.0230  142.4210 C   0  0  0  0  0  2  0  0  0  0  0  0
  190.7610  177.2010  143.8270 C   0  0  0  0  0  3  0  0  0  0  0  0
  190.1470  173.4140  142.1720 C   0  0  2  0  0  3  0  0  0  0  0  0
  187.5820  177.5610  145.9960 C   0  0  0  0  0  0  0  0  0  0  0  0
  186.0840  178.2030  147.8300 C   0  0  0  0  0  2  0  0  0  0  0  0
  188.6090  176.1590  143.5760 N   0  0  0  0  0  0  0  0  0  0  0  0
  190.7490  172.8780  143.4740 C   0  0  2  0  0  3  0  0  0  0  0  0
  191.2660  171.5940  143.2820 O   0  0  0  0  0  1  0  0  0  0  0  0
  189.7470  172.8760  144.6310 C   0  0  0  0  0  2  0  0  0  0  0  0
  190.3230  173.4650  145.9140 C   0  0  2  0  0  3  0  0  0  0  0  0
  189.3050  174.3260  146.6110 C   0  0  0  0  0  3  0  0  0  0  0  0
  189.7050  175.1270  147.6030 C   0  0  0  0  0  3  0  0  0  0  0  0
  191.5790  174.2840  145.5910 C   0  0  0  0  0  2  0  0  0  0  0  0
  192.0480  175.1970  146.7450 C   0  0  0  0  0  2  0  0  0  0  0  0
  191.1550  175.1400  147.9930 C   0  0  0  0  0  2  0  0  0  0  0  0
  192.7060  176.6610  142.4610 C   0  0  0  0  0  2  0  0  0  0  0  0
  194.5110  175.3000  143.5760 C   0  0  0  0  0  0  0  0  0  0  0  0
  194.7310  174.6610  142.5130 O   0  0  0  0  0  0  0  0  0  0  0  0
  193.5180  176.3220  143.6190 N   0  0  0  0  0  2  0  0  0  0  0  0
  195.8750  174.7500  145.7120 N   0  0  0  0  0  0  0  0  0  0  0  0
  195.2660  174.9960  144.7590 C   0  0  0  0  0  0  0  0  0  0  0  0
  1  4  1  0  0  0  0
  1  9  1  0  0  0  0
  2  1  1  0  0  0  0
  2 13  1  0  0  0  0
  3  8  1  0  0  0  0
  4 11  1  1  0  0  0
  4 16  1  0  0  0  0
  5 14  1  0  0  0  0
  5  3  1  0  0  0  0
  6 14  1  0  0  0  0
  7  6  1  0  0  0  0
  8 15  1  0  0  0  0
  9 12  2  0  0  0  0
 10 15  1  0  0  0  0
 12  7  1  0  0  0  0
 13 11  1  0  0  0  0
 13 17  1  1  0  0  0
 14 10  2  0  0  0  0
 16  7  2  0  0  0  0
 17 18  1  6  0  0  0
 17 19  1  0  0  0  0
 20 19  1  6  0  0  0
 20 21  1  0  0  0  0
 21 22  2  0  0  0  0
 22 25  1  0  0  0  0
 23 20  1  0  0  0  0
 23 24  1  0  0  0  0
 24 25  1  0  0  0  0
 26  9  1  0  0  0  0
 26 29  1  0  0  0  0
 27 29  1  0  0  0  0
 27 31  1  0  0  0  0
 28 27  2  0  0  0  0
 31 30  3  0  0  0  0
M  END
>  <MODEL>
1

>  <REMARK>
 VINA RESULT:      -6.8      0.000      0.000
  Name = 
  6 active torsions:
  status: ('A' for Active; 'I' for Inactive)
    1  A    between atoms: C_2  and  C_15
    2  A    between atoms: C_2  and  N_28
    3  A    between atoms: C_3  and  C_26
    4  A    between atoms: C_5  and  C_16
    5  A    between atoms: C_5  and  C_23
    6  A    between atoms: C_8  and  C_16
                            x       y       z     vdW  Elec       q    Type
                         _______ _______ _______ _____ _____    ______ ____

>  <TORSDO>
F 6

$$$$
=
 OpenBabel11042414053D

 31 34  0  0  1  0  0  0  0  0999 V2000
  191.7030  174.8850  146.1930 N   0  0  0  0  0  0  0  0  0  0  0  0
  191.4350  175.5170  147.3630 O   0  0  0  0  0  0  0  0  0  0  0  0
  187.7220  172.8340  141.2360 C   0  0  0  0  0  2  0  0  0  0  0  0
  190.6250  174.0260  145.7390 C   0  0  1  0  0  3  0  0  0  0  0  0
  188.9620  173.1560  142.0620 C   0  0  0  0  0  2  0  0  0  0  0  0
  191.0120  174.6940  142.0560 N   0  0  0  0  0  2  0  0  0  0  0  0
  191.2670  174.6600  143.4660 C   0  0  0  0  0  0  0  0  0  0  0  0
  188.1320  172.5080  139.8120 C   0  0  0  0  0  2  0  0  0  0  0  0
  192.6780  175.4150  145.2850 C   0  0  0  0  0  0  0  0  0  0  0  0
  189.8390  174.2740  140.0660 N   0  0  0  0  0  0  0  0  0  0  0  0
  189.4380  174.5720  146.4770 C   0  0  0  0  0  2  0  0  0  0  0  0
  192.4810  175.3120  143.9740 C   0  0  0  0  0  3  0  0  0  0  0  0
  190.0350  175.6860  147.3410 C   0  0  2  0  0  3  0  0  0  0  0  0
  189.9130  174.0950  141.3540 C   0  0  0  0  0  0  0  0  0  0  0  0
  188.7690  173.7530  139.2110 C   0  0  0  0  0  2  0  0  0  0  0  0
  190.4110  174.1290  144.2920 N   0  0  0  0  0  0  0  0  0  0  0  0
  189.6760  177.0650  146.7800 C   0  0  2  0  0  3  0  0  0  0  0  0
  189.8180  178.0460  147.7650 O   0  0  0  0  0  1  0  0  0  0  0  0
  188.2650  177.1120  146.1880 C   0  0  0  0  0  2  0  0  0  0  0  0
  188.2490  177.5630  144.7320 C   0  0  2  0  0  3  0  0  0  0  0  0
  187.5760  176.5370  143.8620 C   0  0  0  0  0  3  0  0  0  0  0  0
  187.6960  176.6340  142.5350 C   0  0  0  0  0  3  0  0  0  0  0  0
  189.6840  177.8090  144.2490 C   0  0  0  0  0  2  0  0  0  0  0  0
  189.8180  177.9370  142.7160 C   0  0  0  0  0  2  0  0  0  0  0  0
  188.4950  177.7650  141.9540 C   0  0  0  0  0  2  0  0  0  0  0  0
  193.8490  176.1800  145.7960 C   0  0  0  0  0  2  0  0  0  0  0  0
  195.9820  175.5270  144.6220 C   0  0  0  0  0  0  0  0  0  0  0  0
  196.1920  174.6010  145.4490 O   0  0  0  0  0  0  0  0  0  0  0  0
  194.8230  176.3510  144.7290 N   0  0  0  0  0  2  0  0  0  0  0  0
  197.6740  175.9470  142.7030 N   0  0  0  0  0  0  0  0  0  0  0  0
  196.9180  175.7580  143.5590 C   0  0  0  0  0  0  0  0  0  0  0  0
  1  2  1  0  0  0  0
  3  5  1  0  0  0  0
  4  1  1  0  0  0  0
  4 11  1  1  0  0  0
  6  7  1  0  0  0  0
  7 12  1  0  0  0  0
  7 16  2  0  0  0  0
  8  3  1  0  0  0  0
  9 26  1  0  0  0  0
  9  1  1  0  0  0  0
 10 14  2  0  0  0  0
 11 13  1  0  0  0  0
 12  9  2  0  0  0  0
 13 17  1  6  0  0  0
 13  2  1  0  0  0  0
 14  6  1  0  0  0  0
 14  5  1  0  0  0  0
 15  8  1  0  0  0  0
 15 10  1  0  0  0  0
 16  4  1  0  0  0  0
 17 18  1  1  0  0  0
 19 17  1  0  0  0  0
 20 19  1  1  0  0  0
 21 20  1  0  0  0  0
 22 21  2  0  0  0  0
 23 20  1  0  0  0  0
 24 23  1  0  0  0  0
 25 22  1  0  0  0  0
 25 24  1  0  0  0  0
 27 29  1  0  0  0  0
 27 28  2  0  0  0  0
 29 26  1  0  0  0  0
 30 31  3  0  0  0  0
 31 27  1  0  0  0  0
M  END
>  <MODEL>
2

>  <REMARK>
 VINA RESULT:      -6.6      2.590      5.342
  Name = 
  6 active torsions:
  status: ('A' for Active; 'I' for Inactive)
    1  A    between atoms: C_2  and  C_15
    2  A    between atoms: C_2  and  N_28
    3  A    between atoms: C_3  and  C_26
    4  A    between atoms: C_5  and  C_16
    5  A    between atoms: C_5  and  C_23
    6  A    between atoms: C_8  and  C_16
                            x       y       z     vdW  Elec       q    Type
                         _______ _______ _______ _____ _____    ______ ____

>  <TORSDO>
F 6

$$$$
=
 OpenBabel11042414053D

 31 34  0  0  1  0  0  0  0  0999 V2000
  190.3010  176.3270  142.7260 N   0  0  0  0  0  0  0  0  0  0  0  0
  189.4980  177.3740  143.0360 O   0  0  0  0  0  0  0  0  0  0  0  0
  195.8630  173.9890  145.5970 C   0  0  0  0  0  2  0  0  0  0  0  0
  191.6890  176.5320  143.0970 C   0  0  1  0  0  3  0  0  0  0  0  0
  194.6540  174.1330  144.6780 C   0  0  0  0  0  2  0  0  0  0  0  0
  192.4290  172.9880  144.1250 N   0  0  0  0  0  2  0  0  0  0  0  0
  191.7690  174.1340  143.5720 C   0  0  0  0  0  0  0  0  0  0  0  0
  196.4600  172.6040  145.4360 C   0  0  0  0  0  2  0  0  0  0  0  0
  189.7530  175.0130  142.5570 C   0  0  0  0  0  0  0  0  0  0  0  0
  194.1350  171.8000  145.2160 N   0  0  0  0  0  0  0  0  0  0  0  0
  191.5950  177.6080  144.1380 C   0  0  0  0  0  2  0  0  0  0  0  0
  190.4480  173.9530  142.9580 C   0  0  0  0  0  3  0  0  0  0  0  0
  190.0980  177.9320  144.1830 C   0  0  2  0  0  3  0  0  0  0  0  0
  193.7270  172.9390  144.7350 C   0  0  0  0  0  0  0  0  0  0  0  0
  195.4200  171.5900  145.8900 C   0  0  0  0  0  2  0  0  0  0  0  0
  192.2890  175.3240  143.6720 N   0  0  0  0  0  0  0  0  0  0  0  0
  189.4540  177.3610  145.4500 C   0  0  2  0  0  3  0  0  0  0  0  0
  190.2930  176.4130  146.0410 O   0  0  0  0  0  1  0  0  0  0  0  0
  188.0730  176.7550  145.1880 C   0  0  0  0  0  2  0  0  0  0  0  0
  186.9330  177.6560  145.6500 C   0  0  2  0  0  3  0  0  0  0  0  0
  185.8220  176.8440  146.2560 C   0  0  0  0  0  3  0  0  0  0  0  0
  184.6400  177.4260  146.4780 C   0  0  0  0  0  3  0  0  0  0  0  0
  186.4070  178.4750  144.4640 C   0  0  0  0  0  2  0  0  0  0  0  0
  185.0490  179.1610  144.7290 C   0  0  0  0  0  2  0  0  0  0  0  0
  184.4600  178.8730  146.1180 C   0  0  0  0  0  2  0  0  0  0  0  0
  188.3660  174.8330  142.0450 C   0  0  0  0  0  2  0  0  0  0  0  0
  188.3840  173.9390  139.6890 C   0  0  0  0  0  0  0  0  0  0  0  0
  188.4150  172.7510  140.1060 O   0  0  0  0  0  0  0  0  0  0  0  0
  188.3490  175.0310  140.6040 N   0  0  0  0  0  2  0  0  0  0  0  0
  188.3920  174.4080  137.1390 N   0  0  0  0  0  0  0  0  0  0  0  0
  188.3880  174.1980  138.2770 C   0  0  0  0  0  0  0  0  0  0  0  0
  1  2  1  0  0  0  0
  1  4  1  0  0  0  0
  2 13  1  0  0  0  0
  4 16  1  0  0  0  0
  4 11  1  1  0  0  0
  5 14  1  0  0  0  0
  5  3  1  0  0  0  0
  6 14  1  0  0  0  0
  7 16  2  0  0  0  0
  7  6  1  0  0  0  0
  8  3  1  0  0  0  0
  8 15  1  0  0  0  0
  9  1  1  0  0  0  0
  9 12  2  0  0  0  0
 10 15  1  0  0  0  0
 11 13  1  0  0  0  0
 12  7  1  0  0  0  0
 13 17  1  1  0  0  0
 14 10  2  0  0  0  0
 17 18  1  6  0  0  0
 19 17  1  0  0  0  0
 20 19  1  6  0  0  0
 20 21  1  0  0  0  0
 21 22  2  0  0  0  0
 23 24  1  0  0  0  0
 23 20  1  0  0  0  0
 24 25  1  0  0  0  0
 25 22  1  0  0  0  0
 26  9  1  0  0  0  0
 27 28  2  0  0  0  0
 27 29  1  0  0  0  0
 29 26  1  0  0  0  0
 30 31  3  0  0  0  0
 31 27  1  0  0  0  0
M  END
>  <MODEL>
3

>  <REMARK>
 VINA RESULT:      -6.6      2.590      6.987
  Name = 
  6 active torsions:
  status: ('A' for Active; 'I' for Inactive)
    1  A    between atoms: C_2  and  C_15
    2  A    between atoms: C_2  and  N_28
    3  A    between atoms: C_3  and  C_26
    4  A    between atoms: C_5  and  C_16
    5  A    between atoms: C_5  and  C_23
    6  A    between atoms: C_8  and  C_16
                            x       y       z     vdW  Elec       q    Type
                         _______ _______ _______ _____ _____    ______ ____

>  <TORSDO>
F 6

$$$$
=
 OpenBabel11042414053D

 31 34  0  0  1  0  0  0  0  0999 V2000
  191.4850  176.7350  145.9240 N   0  0  0  0  0  0  0  0  0  0  0  0
  190.4900  177.2140  146.7100 O   0  0  0  0  0  0  0  0  0  0  0  0
  194.5520  170.8020  145.7560 C   0  0  0  0  0  2  0  0  0  0  0  0
  192.3200  175.7490  146.5830 C   0  0  1  0  0  3  0  0  0  0  0  0
  194.1230  172.2240  145.4110 C   0  0  0  0  0  2  0  0  0  0  0  0
  192.9000  173.5460  143.5880 N   0  0  0  0  0  2  0  0  0  0  0  0
  192.5130  174.6610  144.4020 C   0  0  0  0  0  0  0  0  0  0  0  0
  195.3550  170.2230  144.6070 C   0  0  0  0  0  2  0  0  0  0  0  0
  191.3800  176.8000  144.4950 C   0  0  0  0  0  0  0  0  0  0  0  0
  193.7970  171.4280  143.1170 N   0  0  0  0  0  0  0  0  0  0  0  0
  191.4430  175.2720  147.7030 C   0  0  0  0  0  2  0  0  0  0  0  0
  191.8710  175.8110  143.7540 C   0  0  0  0  0  3  0  0  0  0  0  0
  190.1840  176.1340  147.5630 C   0  0  2  0  0  3  0  0  0  0  0  0
  193.5660  172.3470  144.0110 C   0  0  0  0  0  0  0  0  0  0  0  0
  194.4420  170.1410  143.3920 C   0  0  0  0  0  2  0  0  0  0  0  0
  192.6580  174.6310  145.6950 N   0  0  0  0  0  0  0  0  0  0  0  0
  189.0230  175.3160  146.9890 C   0  0  2  0  0  3  0  0  0  0  0  0
  189.5000  174.1610  146.3650 O   0  0  0  0  0  1  0  0  0  0  0  0
  188.1570  176.1220  146.0180 C   0  0  0  0  0  2  0  0  0  0  0  0
  186.9260  176.7270  146.6840 C   0  0  2  0  0  3  0  0  0  0  0  0
  185.7710  176.7830  145.7230 C   0  0  0  0  0  3  0  0  0  0  0  0
  184.6970  177.5110  146.0410 C   0  0  0  0  0  3  0  0  0  0  0  0
  187.2550  178.1340  147.2010 C   0  0  0  0  0  2  0  0  0  0  0  0
  186.0130  178.9680  147.5840 C   0  0  0  0  0  2  0  0  0  0  0  0
  184.6770  178.2480  147.3490 C   0  0  0  0  0  2  0  0  0  0  0  0
  190.6250  177.9050  143.8430 C   0  0  0  0  0  2  0  0  0  0  0  0
  188.4960  177.6030  142.5280 C   0  0  0  0  0  0  0  0  0  0  0  0
  187.8430  178.2720  143.3710 O   0  0  0  0  0  0  0  0  0  0  0  0
  189.8960  177.3870  142.6960 N   0  0  0  0  0  2  0  0  0  0  0  0
  187.2870  176.6010  140.4640 N   0  0  0  0  0  0  0  0  0  0  0  0
  187.8270  177.0470  141.3860 C   0  0  0  0  0  0  0  0  0  0  0  0
  1  4  1  0  0  0  0
  1  2  1  0  0  0  0
  2 13  1  0  0  0  0
  4 11  1  1  0  0  0
  5  3  1  0  0  0  0
  6 14  1  0  0  0  0
  6  7  1  0  0  0  0
  7 16  2  0  0  0  0
  8  3  1  0  0  0  0
  9  1  1  0  0  0  0
 10 15  1  0  0  0  0
 10 14  2  0  0  0  0
 12  7  1  0  0  0  0
 12  9  2  0  0  0  0
 13 17  1  6  0  0  0
 13 11  1  0  0  0  0
 14  5  1  0  0  0  0
 15  8  1  0  0  0  0
 16  4  1  0  0  0  0
 17 18  1  6  0  0  0
 19 17  1  0  0  0  0
 20 19  1  6  0  0  0
 20 23  1  0  0  0  0
 21 22  2  0  0  0  0
 21 20  1  0  0  0  0
 22 25  1  0  0  0  0
 23 24  1  0  0  0  0
 25 24  1  0  0  0  0
 26  9  1  0  0  0  0
 27 29  1  0  0  0  0
 27 28  2  0  0  0  0
 29 26  1  0  0  0  0
 30 31  3  0  0  0  0
 31 27  1  0  0  0  0
M  END
>  <MODEL>
4

>  <REMARK>
 VINA RESULT:      -6.6      2.830      6.977
  Name = 
  6 active torsions:
  status: ('A' for Active; 'I' for Inactive)
    1  A    between atoms: C_2  and  C_15
    2  A    between atoms: C_2  and  N_28
    3  A    between atoms: C_3  and  C_26
    4  A    between atoms: C_5  and  C_16
    5  A    between atoms: C_5  and  C_23
    6  A    between atoms: C_8  and  C_16
                            x       y       z     vdW  Elec       q    Type
                         _______ _______ _______ _____ _____    ______ ____

>  <TORSDO>
F 6

$$$$
=
 OpenBabel11042414053D

 31 34  0  0  1  0  0  0  0  0999 V2000
  188.4970  175.9970  142.0650 N   0  0  0  0  0  0  0  0  0  0  0  0
  187.2380  176.4920  142.1700 O   0  0  0  0  0  0  0  0  0  0  0  0
  194.1190  177.4070  145.3860 C   0  0  0  0  0  2  0  0  0  0  0  0
  189.5270  176.9580  142.4130 C   0  0  1  0  0  3  0  0  0  0  0  0
  193.1180  176.7530  144.4400 C   0  0  0  0  0  2  0  0  0  0  0  0
  191.8850  174.5380  144.0700 N   0  0  0  0  0  2  0  0  0  0  0  0
  190.7900  175.0660  143.3110 C   0  0  0  0  0  0  0  0  0  0  0  0
  195.3620  176.5430  145.4850 C   0  0  0  0  0  2  0  0  0  0  0  0
  188.7320  174.5840  142.1270 C   0  0  0  0  0  0  0  0  0  0  0  0
  193.8320  174.6070  145.3800 N   0  0  0  0  0  0  0  0  0  0  0  0
  188.7780  177.9580  143.2420 C   0  0  0  0  0  2  0  0  0  0  0  0
  189.8290  174.1250  142.7210 C   0  0  0  0  0  3  0  0  0  0  0  0
  187.3360  177.4420  143.2080 C   0  0  2  0  0  3  0  0  0  0  0  0
  192.9460  175.2740  144.6970 C   0  0  0  0  0  0  0  0  0  0  0  0
  194.9580  175.2100  146.0990 C   0  0  0  0  0  2  0  0  0  0  0  0
  190.6020  176.3500  143.2040 N   0  0  0  0  0  0  0  0  0  0  0  0
  186.9500  176.8080  144.5470 C   0  0  2  0  0  3  0  0  0  0  0  0
  185.5640  176.6600  144.6370 O   0  0  0  0  0  1  0  0  0  0  0  0
  187.4770  177.5970  145.7480 C   0  0  0  0  0  2  0  0  0  0  0  0
  188.4100  176.7780  146.6330 C   0  0  2  0  0  3  0  0  0  0  0  0
  189.7690  177.4160  146.7120 C   0  0  0  0  0  3  0  0  0  0  0  0
  190.7850  176.7150  147.2230 C   0  0  0  0  0  3  0  0  0  0  0  0
  188.5250  175.3500  146.0820 C   0  0  0  0  0  2  0  0  0  0  0  0
  189.6900  174.5370  146.6860 C   0  0  0  0  0  2  0  0  0  0  0  0
  190.5380  175.3140  147.7040 C   0  0  0  0  0  2  0  0  0  0  0  0
  187.7030  173.6250  141.6360 C   0  0  0  0  0  2  0  0  0  0  0  0
  188.5640  172.9250  139.3730 C   0  0  0  0  0  0  0  0  0  0  0  0
  188.2520  174.0380  138.8740 O   0  0  0  0  0  0  0  0  0  0  0  0
  188.3260  172.6530  140.7520 N   0  0  0  0  0  2  0  0  0  0  0  0
  189.6460  171.1030  137.8780 N   0  0  0  0  0  0  0  0  0  0  0  0
  189.1620  171.9160  138.5450 C   0  0  0  0  0  0  0  0  0  0  0  0
  1  9  1  0  0  0  0
  1  2  1  0  0  0  0
  1  4  1  0  0  0  0
  2 13  1  0  0  0  0
  3  8  1  0  0  0  0
  4 16  1  0  0  0  0
  4 11  1  1  0  0  0
  5 14  1  0  0  0  0
  5  3  1  0  0  0  0
  6 14  1  0  0  0  0
  7  6  1  0  0  0  0
  8 15  1  0  0  0  0
  9 12  2  0  0  0  0
 10 15  1  0  0  0  0
 12  7  1  0  0  0  0
 13 11  1  0  0  0  0
 13 17  1  1  0  0  0
 14 10  2  0  0  0  0
 16  7  2  0  0  0  0
 17 18  1  1  0  0  0
 17 19  1  0  0  0  0
 20 19  1  6  0  0  0
 20 21  1  0  0  0  0
 21 22  2  0  0  0  0
 22 25  1  0  0  0  0
 23 20  1  0  0  0  0
 23 24  1  0  0  0  0
 24 25  1  0  0  0  0
 26  9  1  0  0  0  0
 27 29  1  0  0  0  0
 28 27  2  0  0  0  0
 29 26  1  0  0  0  0
 30 31  3  0  0  0  0
 31 27  1  0  0  0  0
M  END
>  <MODEL>
5

>  <REMARK>
 VINA RESULT:      -6.6      2.671      5.970
  Name = 
  6 active torsions:
  status: ('A' for Active; 'I' for Inactive)
    1  A    between atoms: C_2  and  C_15
    2  A    between atoms: C_2  and  N_28
    3  A    between atoms: C_3  and  C_26
    4  A    between atoms: C_5  and  C_16
    5  A    between atoms: C_5  and  C_23
    6  A    between atoms: C_8  and  C_16
                            x       y       z     vdW  Elec       q    Type
                         _______ _______ _______ _____ _____    ______ ____

>  <TORSDO>
F 6

$$$$
=
 OpenBabel11042414053D

 31 34  0  0  1  0  0  0  0  0999 V2000
  191.5850  174.9900  146.1270 N   0  0  0  0  0  0  0  0  0  0  0  0
  191.2830  175.6580  147.2680 O   0  0  0  0  0  0  0  0  0  0  0  0
  187.7420  172.7370  141.1490 C   0  0  0  0  0  2  0  0  0  0  0  0
  190.5260  174.1060  145.6770 C   0  0  1  0  0  3  0  0  0  0  0  0
  188.9590  173.0980  141.9920 C   0  0  0  0  0  2  0  0  0  0  0  0
  190.9940  174.6550  141.9840 N   0  0  0  0  0  2  0  0  0  0  0  0
  191.2160  174.6700  143.4000 C   0  0  0  0  0  0  0  0  0  0  0  0
  188.1880  172.3680  139.7460 C   0  0  0  0  0  2  0  0  0  0  0  0
  192.5760  175.4990  145.2250 C   0  0  0  0  0  0  0  0  0  0  0  0
  189.8730  174.1580  139.9820 N   0  0  0  0  0  0  0  0  0  0  0  0
  189.3160  174.6640  146.3680 C   0  0  0  0  0  2  0  0  0  0  0  0
  192.4110  175.3510  143.9140 C   0  0  0  0  0  3  0  0  0  0  0  0
  189.8830  175.8130  147.2080 C   0  0  2  0  0  3  0  0  0  0  0  0
  189.9180  174.0230  141.2760 C   0  0  0  0  0  0  0  0  0  0  0  0
  188.8280  173.5980  139.1190 C   0  0  0  0  0  2  0  0  0  0  0  0
  190.3460  174.1590  144.2220 N   0  0  0  0  0  0  0  0  0  0  0  0
  189.5240  177.1690  146.5930 C   0  0  2  0  0  3  0  0  0  0  0  0
  189.1010  178.0590  147.5840 O   0  0  0  0  0  1  0  0  0  0  0  0
  188.4640  177.0570  145.4950 C   0  0  0  0  0  2  0  0  0  0  0  0
  187.1630  177.7660  145.8540 C   0  0  2  0  0  3  0  0  0  0  0  0
  186.1530  176.7910  146.3960 C   0  0  0  0  0  3  0  0  0  0  0  0
  184.8810  177.1770  146.5180 C   0  0  0  0  0  3  0  0  0  0  0  0
  186.6020  178.4770  144.6150 C   0  0  0  0  0  2  0  0  0  0  0  0
  185.1350  178.9380  144.7660 C   0  0  0  0  0  2  0  0  0  0  0  0
  184.4980  178.5720  146.1150 C   0  0  0  0  0  2  0  0  0  0  0  0
  193.7280  176.2930  145.7380 C   0  0  0  0  0  2  0  0  0  0  0  0
  195.8890  175.4150  144.7830 C   0  0  0  0  0  0  0  0  0  0  0  0
  195.7720  176.1440  143.7630 O   0  0  0  0  0  0  0  0  0  0  0  0
  194.9070  175.4450  145.8170 N   0  0  0  0  0  2  0  0  0  0  0  0
  197.9330  173.8360  145.0100 N   0  0  0  0  0  0  0  0  0  0  0  0
  197.0210  174.5410  144.9080 C   0  0  0  0  0  0  0  0  0  0  0  0
  1  2  1  0  0  0  0
  3  5  1  0  0  0  0
  4  1  1  0  0  0  0
  4 11  1  1  0  0  0
  6  7  1  0  0  0  0
  7 12  1  0  0  0  0
  7 16  2  0  0  0  0
  8  3  1  0  0  0  0
  9 26  1  0  0  0  0
  9  1  1  0  0  0  0
 10 14  2  0  0  0  0
 11 13  1  0  0  0  0
 12  9  2  0  0  0  0
 13 17  1  6  0  0  0
 13  2  1  0  0  0  0
 14  6  1  0  0  0  0
 14  5  1  0  0  0  0
 15  8  1  0  0  0  0
 15 10  1  0  0  0  0
 16  4  1  0  0  0  0
 17 18  1  1  0  0  0
 19 17  1  0  0  0  0
 20 19  1  6  0  0  0
 20 21  1  0  0  0  0
 21 22  2  0  0  0  0
 23 24  1  0  0  0  0
 23 20  1  0  0  0  0
 24 25  1  0  0  0  0
 25 22  1  0  0  0  0
 26 29  1  0  0  0  0
 27 31  1  0  0  0  0
 27 29  1  0  0  0  0
 28 27  2  0  0  0  0
 31 30  3  0  0  0  0
M  END
>  <MODEL>
6

>  <REMARK>
 VINA RESULT:      -6.5      2.459      5.546
  Name = 
  6 active torsions:
  status: ('A' for Active; 'I' for Inactive)
    1  A    between atoms: C_2  and  C_15
    2  A    between atoms: C_2  and  N_28
    3  A    between atoms: C_3  and  C_26
    4  A    between atoms: C_5  and  C_16
    5  A    between atoms: C_5  and  C_23
    6  A    between atoms: C_8  and  C_16
                            x       y       z     vdW  Elec       q    Type
                         _______ _______ _______ _____ _____    ______ ____

>  <TORSDO>
F 6

$$$$
=
 OpenBabel11042414053D

 31 34  0  0  1  0  0  0  0  0999 V2000
  189.9060  176.9120  143.1640 N   0  0  0  0  0  0  0  0  0  0  0  0
  189.1340  177.3000  144.2090 O   0  0  0  0  0  0  0  0  0  0  0  0
  196.5180  176.1790  142.5490 C   0  0  0  0  0  2  0  0  0  0  0  0
  191.2280  177.5090  143.1670 C   0  0  1  0  0  3  0  0  0  0  0  0
  195.0220  176.1620  142.2520 C   0  0  0  0  0  2  0  0  0  0  0  0
  193.0950  174.5250  141.8360 N   0  0  0  0  0  2  0  0  0  0  0  0
  192.0270  175.4040  142.2140 C   0  0  0  0  0  0  0  0  0  0  0  0
  197.2520  175.3700  141.4960 C   0  0  0  0  0  2  0  0  0  0  0  0
  189.6350  175.6840  142.4740 C   0  0  0  0  0  0  0  0  0  0  0  0
  195.3210  173.8320  141.5560 N   0  0  0  0  0  0  0  0  0  0  0  0
  191.3990  177.9200  144.6000 C   0  0  0  0  0  2  0  0  0  0  0  0
  190.6440  174.9520  142.0130 C   0  0  0  0  0  3  0  0  0  0  0  0
  190.0630  177.5370  145.2430 C   0  0  2  0  0  3  0  0  0  0  0  0
  194.5050  174.7820  141.9150 C   0  0  0  0  0  0  0  0  0  0  0  0
  196.7830  173.9260  141.6020 C   0  0  0  0  0  2  0  0  0  0  0  0
  192.2680  176.5460  142.7890 N   0  0  0  0  0  0  0  0  0  0  0  0
  190.2160  176.2890  146.1170 C   0  0  2  0  0  3  0  0  0  0  0  0
  189.0070  175.9830  146.7490 O   0  0  0  0  0  1  0  0  0  0  0  0
  191.3340  176.4260  147.1540 C   0  0  0  0  0  2  0  0  0  0  0  0
  192.5060  175.4890  146.8880 C   0  0  2  0  0  3  0  0  0  0  0  0
  193.7280  176.2640  146.4770 C   0  0  0  0  0  3  0  0  0  0  0  0
  194.7680  175.6060  145.9570 C   0  0  0  0  0  3  0  0  0  0  0  0
  192.1260  174.4790  145.7980 C   0  0  0  0  0  2  0  0  0  0  0  0
  193.3280  173.7080  145.2090 C   0  0  0  0  0  2  0  0  0  0  0  0
  194.6850  174.1140  145.8020 C   0  0  0  0  0  2  0  0  0  0  0  0
  188.2430  175.1650  142.3740 C   0  0  0  0  0  2  0  0  0  0  0  0
  186.3350  176.7850  142.0780 C   0  0  0  0  0  0  0  0  0  0  0  0
  186.0140  176.6800  143.2910 O   0  0  0  0  0  0  0  0  0  0  0  0
  187.4460  176.0630  141.5520 N   0  0  0  0  0  2  0  0  0  0  0  0
  184.9590  178.3280  140.5120 N   0  0  0  0  0  0  0  0  0  0  0  0
  185.5730  177.6400  141.2110 C   0  0  0  0  0  0  0  0  0  0  0  0
  1  4  1  0  0  0  0
  1  2  1  0  0  0  0
  2 13  1  0  0  0  0
  4 11  1  1  0  0  0
  5  3  1  0  0  0  0
  6 14  1  0  0  0  0
  6  7  1  0  0  0  0
  7 16  2  0  0  0  0
  8 15  1  0  0  0  0
  8  3  1  0  0  0  0
  9  1  1  0  0  0  0
 10 15  1  0  0  0  0
 10 14  2  0  0  0  0
 11 13  1  0  0  0  0
 12  7  1  0  0  0  0
 12  9  2  0  0  0  0
 13 17  1  6  0  0  0
 14  5  1  0  0  0  0
 16  4  1  0  0  0  0
 17 18  1  1  0  0  0
 17 19  1  0  0  0  0
 20 19  1  6  0  0  0
 21 20  1  0  0  0  0
 22 21  2  0  0  0  0
 23 20  1  0  0  0  0
 24 23  1  0  0  0  0
 24 25  1  0  0  0  0
 25 22  1  0  0  0  0
 26  9  1  0  0  0  0
 27 28  2  0  0  0  0
 29 27  1  0  0  0  0
 29 26  1  0  0  0  0
 30 31  3  0  0  0  0
 31 27  1  0  0  0  0
M  END
>  <MODEL>
7

>  <REMARK>
 VINA RESULT:      -6.4      3.024      7.150
  Name = 
  6 active torsions:
  status: ('A' for Active; 'I' for Inactive)
    1  A    between atoms: C_2  and  C_15
    2  A    between atoms: C_2  and  N_28
    3  A    between atoms: C_3  and  C_26
    4  A    between atoms: C_5  and  C_16
    5  A    between atoms: C_5  and  C_23
    6  A    between atoms: C_8  and  C_16
                            x       y       z     vdW  Elec       q    Type
                         _______ _______ _______ _____ _____    ______ ____

>  <TORSDO>
F 6

$$$$
=
 OpenBabel11042414053D

 31 34  0  0  1  0  0  0  0  0999 V2000
  190.6060  172.5510  142.5260 N   0  0  0  0  0  0  0  0  0  0  0  0
  191.5380  171.9500  143.3060 O   0  0  0  0  0  0  0  0  0  0  0  0
  185.6760  176.8190  143.9800 C   0  0  0  0  0  2  0  0  0  0  0  0
  189.3590  172.8210  143.2170 C   0  0  1  0  0  3  0  0  0  0  0  0
  186.6520  175.9380  143.2070 C   0  0  0  0  0  2  0  0  0  0  0  0
  188.5970  176.1060  141.5470 N   0  0  0  0  0  2  0  0  0  0  0  0
  189.2010  174.8420  141.8490 C   0  0  0  0  0  0  0  0  0  0  0  0
  184.9520  177.7390  143.0150 C   0  0  0  0  0  2  0  0  0  0  0  0
  190.9980  173.2910  141.3620 C   0  0  0  0  0  0  0  0  0  0  0  0
  187.0950  177.8930  141.7990 N   0  0  0  0  0  0  0  0  0  0  0  0
  189.7710  172.7940  144.6600 C   0  0  0  0  0  2  0  0  0  0  0  0
  190.3310  174.3910  141.0260 C   0  0  0  0  0  3  0  0  0  0  0  0
  191.2590  172.4360  144.6000 C   0  0  2  0  0  3  0  0  0  0  0  0
  187.4710  176.7120  142.1990 C   0  0  0  0  0  0  0  0  0  0  0  0
  185.9850  178.6560  142.3760 C   0  0  0  0  0  2  0  0  0  0  0  0
  188.8120  174.1370  142.8730 N   0  0  0  0  0  0  0  0  0  0  0  0
  192.1280  173.6600  144.9060 C   0  0  2  0  0  3  0  0  0  0  0  0
  193.3420  173.2680  145.4760 O   0  0  0  0  0  1  0  0  0  0  0  0
  191.4220  174.6740  145.8090 C   0  0  0  0  0  2  0  0  0  0  0  0
  191.4340  176.0870  145.2360 C   0  0  2  0  0  3  0  0  0  0  0  0
  190.0500  176.6770  145.2420 C   0  0  0  0  0  3  0  0  0  0  0  0
  189.8200  177.7950  144.5460 C   0  0  0  0  0  3  0  0  0  0  0  0
  191.9950  176.0630  143.8090 C   0  0  0  0  0  2  0  0  0  0  0  0
  191.7420  177.3620  143.0130 C   0  0  0  0  0  2  0  0  0  0  0  0
  190.9490  178.4270  143.7850 C   0  0  0  0  0  2  0  0  0  0  0  0
  192.2140  172.9040  140.5940 C   0  0  0  0  0  2  0  0  0  0  0  0
  194.1760  174.2990  141.3380 C   0  0  0  0  0  0  0  0  0  0  0  0
  194.4290  173.5000  142.2780 O   0  0  0  0  0  0  0  0  0  0  0  0
  193.0870  174.0570  140.4500 N   0  0  0  0  0  2  0  0  0  0  0  0
  195.6480  176.4090  141.0120 N   0  0  0  0  0  0  0  0  0  0  0  0
  194.9900  175.4670  141.1580 C   0  0  0  0  0  0  0  0  0  0  0  0
  1  4  1  0  0  0  0
  1  2  1  0  0  0  0
  2 13  1  0  0  0  0
  4 11  1  1  0  0  0
  5  3  1  0  0  0  0
  6  7  1  0  0  0  0
  6 14  1  0  0  0  0
  7 16  2  0  0  0  0
  8  3  1  0  0  0  0
  9  1  1  0  0  0  0
 10 14  2  0  0  0  0
 10 15  1  0  0  0  0
 12  9  2  0  0  0  0
 12  7  1  0  0  0  0
 13 11  1  0  0  0  0
 13 17  1  6  0  0  0
 14  5  1  0  0  0  0
 15  8  1  0  0  0  0
 16  4  1  0  0  0  0
 17 18  1  1  0  0  0
 17 19  1  0  0  0  0
 20 21  1  0  0  0  0
 20 19  1  6  0  0  0
 22 21  2  0  0  0  0
 23 20  1  0  0  0  0
 24 25  1  0  0  0  0
 24 23  1  0  0  0  0
 25 22  1  0  0  0  0
 26  9  1  0  0  0  0
 27 28  2  0  0  0  0
 29 26  1  0  0  0  0
 29 27  1  0  0  0  0
 30 31  3  0  0  0  0
 31 27  1  0  0  0  0
M  END
>  <MODEL>
8

>  <REMARK>
 VINA RESULT:      -6.4      2.478      3.552
  Name = 
  6 active torsions:
  status: ('A' for Active; 'I' for Inactive)
    1  A    between atoms: C_2  and  C_15
    2  A    between atoms: C_2  and  N_28
    3  A    between atoms: C_3  and  C_26
    4  A    between atoms: C_5  and  C_16
    5  A    between atoms: C_5  and  C_23
    6  A    between atoms: C_8  and  C_16
                            x       y       z     vdW  Elec       q    Type
                         _______ _______ _______ _____ _____    ______ ____

>  <TORSDO>
F 6

$$$$
=
 OpenBabel11042414053D

 31 34  0  0  1  0  0  0  0  0999 V2000
  188.6790  177.3300  143.4740 N   0  0  0  0  0  0  0  0  0  0  0  0
  188.8640  178.0010  144.6370 O   0  0  0  0  0  0  0  0  0  0  0  0
  192.4920  172.8930  140.2480 C   0  0  0  0  0  2  0  0  0  0  0  0
  189.9160  177.0280  142.7770 C   0  0  1  0  0  3  0  0  0  0  0  0
  191.3220  173.7900  140.6360 C   0  0  0  0  0  2  0  0  0  0  0  0
  188.8980  173.6550  141.4560 N   0  0  0  0  0  2  0  0  0  0  0  0
  188.8380  174.9550  142.0560 C   0  0  0  0  0  0  0  0  0  0  0  0
  192.0450  171.9070  139.1850 C   0  0  0  0  0  2  0  0  0  0  0  0
  187.4840  176.5690  143.2530 C   0  0  0  0  0  0  0  0  0  0  0  0
  189.8990  171.8100  140.4030 N   0  0  0  0  0  0  0  0  0  0  0  0
  190.9400  177.1240  143.8700 C   0  0  0  0  0  2  0  0  0  0  0  0
  187.5470  175.4290  142.5730 C   0  0  0  0  0  3  0  0  0  0  0  0
  190.1190  177.5480  145.0920 C   0  0  2  0  0  3  0  0  0  0  0  0
  190.0400  173.0200  140.8630 C   0  0  0  0  0  0  0  0  0  0  0  0
  190.9710  171.0170  139.7940 C   0  0  0  0  0  2  0  0  0  0  0  0
  189.9110  175.6760  142.2080 N   0  0  0  0  0  0  0  0  0  0  0  0
  189.9410  176.3770  146.0630 C   0  0  2  0  0  3  0  0  0  0  0  0
  188.6370  176.3510  146.5640 O   0  0  0  0  0  1  0  0  0  0  0  0
  190.9490  176.4070  147.2150 C   0  0  0  0  0  2  0  0  0  0  0  0
  192.1840  175.5560  146.9430 C   0  0  2  0  0  3  0  0  0  0  0  0
  193.3410  176.4150  146.5090 C   0  0  0  0  0  3  0  0  0  0  0  0
  194.4200  175.8300  145.9820 C   0  0  0  0  0  3  0  0  0  0  0  0
  191.8670  174.5100  145.8670 C   0  0  0  0  0  2  0  0  0  0  0  0
  193.1150  173.8230  145.2710 C   0  0  0  0  0  2  0  0  0  0  0  0
  194.4460  174.3350  145.8420 C   0  0  0  0  0  2  0  0  0  0  0  0
  186.1980  176.9850  143.8760 C   0  0  0  0  0  2  0  0  0  0  0  0
  184.1920  178.1790  142.9240 C   0  0  0  0  0  0  0  0  0  0  0  0
  184.1620  178.9750  143.8990 O   0  0  0  0  0  0  0  0  0  0  0  0
  185.1900  177.1630  142.8430 N   0  0  0  0  0  2  0  0  0  0  0  0
  182.4180  178.3800  141.0430 N   0  0  0  0  0  0  0  0  0  0  0  0
  183.2100  178.2910  141.8830 C   0  0  0  0  0  0  0  0  0  0  0  0
  1  2  1  0  0  0  0
  2 13  1  0  0  0  0
  3  5  1  0  0  0  0
  4  1  1  0  0  0  0
  4 11  1  1  0  0  0
  5 14  1  0  0  0  0
  6  7  1  0  0  0  0
  7 16  2  0  0  0  0
  7 12  1  0  0  0  0
  8 15  1  0  0  0  0
  8  3  1  0  0  0  0
  9  1  1  0  0  0  0
  9 26  1  0  0  0  0
 10 14  2  0  0  0  0
 11 13  1  0  0  0  0
 12  9  2  0  0  0  0
 13 17  1  1  0  0  0
 14  6  1  0  0  0  0
 15 10  1  0  0  0  0
 16  4  1  0  0  0  0
 17 18  1  1  0  0  0
 17 19  1  0  0  0  0
 20 19  1  6  0  0  0
 21 20  1  0  0  0  0
 22 21  2  0  0  0  0
 23 20  1  0  0  0  0
 24 25  1  0  0  0  0
 24 23  1  0  0  0  0
 25 22  1  0  0  0  0
 27 28  2  0  0  0  0
 29 27  1  0  0  0  0
 29 26  1  0  0  0  0
 30 31  3  0  0  0  0
 31 27  1  0  0  0  0
M  END
>  <MODEL>
9

>  <REMARK>
 VINA RESULT:      -6.1      3.253      7.280
  Name = 
  6 active torsions:
  status: ('A' for Active; 'I' for Inactive)
    1  A    between atoms: C_2  and  C_15
    2  A    between atoms: C_2  and  N_28
    3  A    between atoms: C_3  and  C_26
    4  A    between atoms: C_5  and  C_16
    5  A    between atoms: C_5  and  C_23
    6  A    between atoms: C_8  and  C_16
                            x       y       z     vdW  Elec       q    Type
                         _______ _______ _______ _____ _____    ______ ____

>  <TORSDO>
F 6

$$$$
