=
 OpenBabel11042418123D

 47 50  0  0  1  0  0  0  0  0999 V2000
  190.3300  175.4120  145.7470 C   0  0  1  0  0  3  0  0  0  0  0  0
  189.4530  174.9370  143.4270 C   0  0  0  0  0  3  0  0  0  0  0  0
  190.4410  173.1400  144.7130 C   0  0  0  0  0  3  0  0  0  0  0  0
  189.5930  172.7070  142.4840 C   0  0  0  0  0  0  0  0  0  0  0  0
  190.2080  172.2550  143.6550 C   0  0  0  0  0  3  0  0  0  0  0  0
  189.2230  174.0540  142.3670 C   0  0  0  0  0  3  0  0  0  0  0  0
  190.0660  174.4830  144.6030 C   0  0  0  0  0  0  0  0  0  0  0  0
  189.4060  171.7620  141.3430 C   0  0  0  0  0  2  0  0  0  0  0  0
  190.3970  172.0370  140.2000 C   0  0  1  0  0  3  0  0  0  0  0  0
  191.2820  170.8680  140.0230 N   0  0  0  0  0  0  0  0  0  0  0  0
  192.3550  169.8730  138.2480 C   0  0  0  0  0  2  0  0  0  0  0  0
  191.0570  170.3130  138.7490 N   0  0  0  0  0  2  0  0  0  0  0  0
  193.3930  170.4350  139.0910 N   0  0  0  0  0  2  0  0  0  0  0  0
  192.6720  171.3150  139.9890 C   0  0  0  0  0  2  0  0  0  0  0  0
  189.9900  173.7120  138.3510 C   0  0  0  0  0  1  0  0  0  0  0  0
  188.2360  172.3310  139.1180 O   0  0  0  0  0  1  0  0  0  0  0  0
  189.6170  172.3480  138.9000 C   0  0  2  0  0  3  0  0  0  0  0  0
  189.1410  175.5070  146.6570 C   0  0  0  0  0  0  0  0  0  0  0  0
  188.1590  176.5380  146.4820 N   0  0  0  0  0  2  0  0  0  0  0  0
  189.0280  174.6860  147.6070 O   0  0  0  0  0  0  0  0  0  0  0  0
  187.0840  176.7690  147.4400 C   0  0  0  0  0  2  0  0  0  0  0  0
  186.6320  178.2240  147.3910 C   0  0  0  0  0  2  0  0  0  0  0  0
  184.4360  178.5970  146.2500 C   0  0  0  0  0  3  0  0  0  0  0  0
  184.3270  178.8430  143.8360 C   0  0  0  0  0  0  0  0  0  0  0  0
  186.5240  178.7370  142.5220 C   0  0  0  0  0  1  0  0  0  0  0  0
  186.4320  178.5060  144.9480 N   0  0  0  0  0  0  0  0  0  0  0  0
  183.6960  178.7920  145.0830 C   0  0  0  0  0  3  0  0  0  0  0  0
  185.8200  178.4510  146.1620 C   0  0  0  0  0  0  0  0  0  0  0  0
  185.7400  178.6950  143.7920 C   0  0  0  0  0  0  0  0  0  0  0  0
  183.4870  179.0130  142.6800 N   0  0  0  0  0  0  0  0  0  0  0  0
  183.1290  178.0730  141.8680 C   0  0  0  0  0  3  0  0  0  0  0  0
  182.2360  178.3650  140.7120 C   0  0  0  0  0  2  0  0  0  0  0  0
  180.8770  178.8590  141.1940 C   0  0  0  0  0  2  0  0  0  0  0  0
  180.5980  180.1480  140.6570 O   0  0  0  0  0  0  0  0  0  0  0  0
  179.3480  180.4810  140.1340 C   0  0  0  0  0  0  0  0  0  0  0  0
  179.2410  181.3020  139.1830 O   0  0  0  0  0  0  0  0  0  0  0  0
  178.1280  179.8370  140.6970 C   0  0  0  0  0  1  0  0  0  0  0  0
  191.5230  174.9850  146.4650 N   0  0  0  0  0  2  0  0  0  0  0  0
  192.2020  176.1870  146.9160 C   0  0  0  0  0  2  0  0  0  0  0  0
  193.1220  176.5870  145.9480 O   0  0  0  0  0  0  0  0  0  0  0  0
  194.2980  175.8960  146.2600 C   0  0  0  0  0  2  0  0  0  0  0  0
  195.1060  175.6510  144.9940 C   0  0  0  0  0  2  0  0  0  0  0  0
  194.3770  174.7270  144.0650 C   0  0  0  0  0  0  0  0  0  0  0  0
  193.9310  173.6720  144.4880 O   0  0  0  0  0  0  0  0  0  0  0  0
  194.1480  175.1110  142.6360 C   0  0  0  0  0  3  0  0  0  0  0  0
  192.8190  175.8400  142.5050 C   0  0  0  0  0  2  0  0  0  0  0  0
  192.9270  174.3960  142.0790 C   0  0  0  0  0  2  0  0  0  0  0  0
  1 38  1  1  0  0  0
  1 18  1  0  0  0  0
  2  7  1  0  0  0  0
  4  5  2  0  0  0  0
  5  3  1  0  0  0  0
  6  4  1  0  0  0  0
  6  2  2  0  0  0  0
  7  3  2  0  0  0  0
  7  1  1  0  0  0  0
  8  4  1  0  0  0  0
  9  8  1  1  0  0  0
 10  9  1  0  0  0  0
 11 12  1  0  0  0  0
 11 13  1  0  0  0  0
 12 10  1  0  0  0  0
 13 14  1  0  0  0  0
 14 10  1  0  0  0  0
 17 15  1  1  0  0  0
 17 16  1  0  0  0  0
 17  9  1  0  0  0  0
 18 20  2  0  0  0  0
 19 18  1  0  0  0  0
 19 21  1  0  0  0  0
 22 21  1  0  0  0  0
 24 27  1  0  0  0  0
 25 29  1  0  0  0  0
 26 28  2  0  0  0  0
 27 23  2  0  0  0  0
 28 23  1  0  0  0  0
 28 22  1  0  0  0  0
 29 24  2  0  0  0  0
 29 26  1  0  0  0  0
 30 24  1  0  0  0  0
 31 30  2  0  0  0  0
 32 33  1  0  0  0  0
 32 31  1  0  0  0  0
 34 33  1  0  0  0  0
 35 34  1  0  0  0  0
 35 37  1  0  0  0  0
 36 35  2  0  0  0  0
 38 39  1  0  0  0  0
 40 41  1  0  0  0  0
 40 39  1  0  0  0  0
 42 41  1  0  0  0  0
 43 44  2  0  0  0  0
 43 42  1  0  0  0  0
 45 43  1  0  0  0  0
 46 45  1  0  0  0  0
 47 46  1  0  0  0  0
 47 45  1  0  0  0  0
M  END
>  <MODEL>
1

>  <REMARK>
 VINA RESULT:      -5.9      0.000      0.000
  Name = 
  21 active torsions:
  status: ('A' for Active; 'I' for Inactive)
    1  A    between atoms: C_3  and  C_13
    2  A    between atoms: C_3  and  C_32
    3  A    between atoms: C_6  and  C_33
    4  A    between atoms: C_7  and  N_18
    5  A    between atoms: N_8  and  C_29
    6  A    between atoms: C_9  and  C_38
    7  A    between atoms: C_13  and  N_26
    8  A    between atoms: C_15  and  C_20
    9  A    between atoms: C_15  and  O_37
   10  A    between atoms: C_16  and  C_28
   11  A    between atoms: C_20  and  C_36
   12  A    between atoms: C_22  and  O_37
   13  A    between atoms: C_28  and  C_34
   14  A    between atoms: C_29  and  C_31
   15  A    between atoms: C_29  and  C_33
   16  A    between atoms: C_34  and  C_42
   17  A    between atoms: C_35  and  C_38
   18  A    between atoms: C_38  and  N_46
   19  A    between atoms: O_41  and  C_42
   20  A    between atoms: O_41  and  C_47
   21  A    between atoms: N_46  and  C_47
                            x       y       z     vdW  Elec       q    Type
                         _______ _______ _______ _____ _____    ______ ____

>  <TORSDO>
F 21

$$$$
=
 OpenBabel11042418123D

 47 50  0  0  1  0  0  0  0  0999 V2000
  190.9520  176.1990  145.9380 C   0  0  1  0  0  3  0  0  0  0  0  0
  190.4990  173.9080  144.9750 C   0  0  0  0  0  3  0  0  0  0  0  0
  190.7030  175.8030  143.4830 C   0  0  0  0  0  3  0  0  0  0  0  0
  190.2700  173.5950  142.5810 C   0  0  0  0  0  0  0  0  0  0  0  0
  190.4790  174.9640  142.3870 C   0  0  0  0  0  3  0  0  0  0  0  0
  190.2710  173.0690  143.8810 C   0  0  0  0  0  3  0  0  0  0  0  0
  190.7140  175.2790  144.7800 C   0  0  0  0  0  0  0  0  0  0  0  0
  189.9730  172.7250  141.4050 C   0  0  0  0  0  2  0  0  0  0  0  0
  190.6250  173.2560  140.1170 C   0  0  1  0  0  3  0  0  0  0  0  0
  191.3620  172.1620  139.4510 N   0  0  0  0  0  0  0  0  0  0  0  0
  193.2480  170.9300  139.9160 C   0  0  0  0  0  2  0  0  0  0  0  0
  192.7320  172.2840  139.7500 N   0  0  0  0  0  2  0  0  0  0  0  0
  192.1260  170.0140  140.0120 N   0  0  0  0  0  2  0  0  0  0  0  0
  190.9690  170.8850  140.0420 C   0  0  0  0  0  2  0  0  0  0  0  0
  188.2440  173.0570  139.2940 C   0  0  0  0  0  1  0  0  0  0  0  0
  189.9470  173.8260  137.8500 O   0  0  0  0  0  1  0  0  0  0  0  0
  189.5370  173.8430  139.1870 C   0  0  2  0  0  3  0  0  0  0  0  0
  189.7050  176.3810  146.7540 C   0  0  0  0  0  0  0  0  0  0  0  0
  188.8420  177.5050  146.5390 N   0  0  0  0  0  2  0  0  0  0  0  0
  189.4380  175.5460  147.6600 O   0  0  0  0  0  0  0  0  0  0  0  0
  187.7170  177.8110  147.4170 C   0  0  0  0  0  2  0  0  0  0  0  0
  186.5550  176.8640  147.1420 C   0  0  0  0  0  2  0  0  0  0  0  0
  184.8830  178.0280  145.6890 C   0  0  0  0  0  3  0  0  0  0  0  0
  184.8880  177.6850  143.2850 C   0  0  0  0  0  0  0  0  0  0  0  0
  186.6690  176.1270  142.3030 C   0  0  0  0  0  1  0  0  0  0  0  0
  186.5020  176.5900  144.6910 N   0  0  0  0  0  0  0  0  0  0  0  0
  184.3460  178.2830  144.4270 C   0  0  0  0  0  3  0  0  0  0  0  0
  185.9730  177.1660  145.8040 C   0  0  0  0  0  0  0  0  0  0  0  0
  186.0020  176.8170  143.4460 C   0  0  0  0  0  0  0  0  0  0  0  0
  184.2530  177.9740  142.0260 N   0  0  0  0  0  0  0  0  0  0  0  0
  182.9800  178.0990  141.8400 C   0  0  0  0  0  3  0  0  0  0  0  0
  182.4360  178.4210  140.4910 C   0  0  0  0  0  2  0  0  0  0  0  0
  180.9320  178.6640  140.5620 C   0  0  0  0  0  2  0  0  0  0  0  0
  180.3710  177.9830  141.6790 O   0  0  0  0  0  0  0  0  0  0  0  0
  179.0180  177.6480  141.7430 C   0  0  0  0  0  0  0  0  0  0  0  0
  178.4380  177.5030  142.8530 O   0  0  0  0  0  0  0  0  0  0  0  0
  178.2480  177.4830  140.4780 C   0  0  0  0  0  1  0  0  0  0  0  0
  192.0540  175.6990  146.7470 N   0  0  0  0  0  2  0  0  0  0  0  0
  193.2800  175.9940  146.0260 C   0  0  0  0  0  2  0  0  0  0  0  0
  193.9770  174.8080  145.7980 O   0  0  0  0  0  0  0  0  0  0  0  0
  195.3260  175.1770  145.8050 C   0  0  0  0  0  2  0  0  0  0  0  0
  196.0940  174.3500  144.7830 C   0  0  0  0  0  2  0  0  0  0  0  0
  196.8000  175.2360  143.8010 C   0  0  0  0  0  0  0  0  0  0  0  0
  197.9020  174.9170  143.3810 O   0  0  0  0  0  0  0  0  0  0  0  0
  196.1450  176.4840  143.2960 C   0  0  0  0  0  3  0  0  0  0  0  0
  195.0980  176.1300  142.2510 C   0  0  0  0  0  2  0  0  0  0  0  0
  196.4350  176.6790  141.8160 C   0  0  0  0  0  2  0  0  0  0  0  0
  1 38  1  1  0  0  0
  1 18  1  0  0  0  0
  3  7  2  0  0  0  0
  4  6  1  0  0  0  0
  5  4  2  0  0  0  0
  5  3  1  0  0  0  0
  6  2  2  0  0  0  0
  7  2  1  0  0  0  0
  7  1  1  0  0  0  0
  8  4  1  0  0  0  0
  9  8  1  1  0  0  0
 10 12  1  0  0  0  0
 10 14  1  0  0  0  0
 10  9  1  0  0  0  0
 11 13  1  0  0  0  0
 12 11  1  0  0  0  0
 13 14  1  0  0  0  0
 16 17  1  0  0  0  0
 17 15  1  6  0  0  0
 17  9  1  0  0  0  0
 18 20  2  0  0  0  0
 19 18  1  0  0  0  0
 19 21  1  0  0  0  0
 22 21  1  0  0  0  0
 23 28  1  0  0  0  0
 24 29  2  0  0  0  0
 24 27  1  0  0  0  0
 25 29  1  0  0  0  0
 26 28  2  0  0  0  0
 27 23  2  0  0  0  0
 28 22  1  0  0  0  0
 29 26  1  0  0  0  0
 30 24  1  0  0  0  0
 31 30  2  0  0  0  0
 32 33  1  0  0  0  0
 32 31  1  0  0  0  0
 33 34  1  0  0  0  0
 34 35  1  0  0  0  0
 35 36  2  0  0  0  0
 37 35  1  0  0  0  0
 39 38  1  0  0  0  0
 40 41  1  0  0  0  0
 40 39  1  0  0  0  0
 42 41  1  0  0  0  0
 43 42  1  0  0  0  0
 44 43  2  0  0  0  0
 45 43  1  0  0  0  0
 46 45  1  0  0  0  0
 47 46  1  0  0  0  0
 47 45  1  0  0  0  0
M  END
>  <MODEL>
2

>  <REMARK>
 VINA RESULT:      -5.7      1.721      2.123
  Name = 
  21 active torsions:
  status: ('A' for Active; 'I' for Inactive)
    1  A    between atoms: C_3  and  C_13
    2  A    between atoms: C_3  and  C_32
    3  A    between atoms: C_6  and  C_33
    4  A    between atoms: C_7  and  N_18
    5  A    between atoms: N_8  and  C_29
    6  A    between atoms: C_9  and  C_38
    7  A    between atoms: C_13  and  N_26
    8  A    between atoms: C_15  and  C_20
    9  A    between atoms: C_15  and  O_37
   10  A    between atoms: C_16  and  C_28
   11  A    between atoms: C_20  and  C_36
   12  A    between atoms: C_22  and  O_37
   13  A    between atoms: C_28  and  C_34
   14  A    between atoms: C_29  and  C_31
   15  A    between atoms: C_29  and  C_33
   16  A    between atoms: C_34  and  C_42
   17  A    between atoms: C_35  and  C_38
   18  A    between atoms: C_38  and  N_46
   19  A    between atoms: O_41  and  C_42
   20  A    between atoms: O_41  and  C_47
   21  A    between atoms: N_46  and  C_47
                            x       y       z     vdW  Elec       q    Type
                         _______ _______ _______ _____ _____    ______ ____

>  <TORSDO>
F 21

$$$$
=
 OpenBabel11042418123D

 47 50  0  0  1  0  0  0  0  0999 V2000
  188.2430  176.9920  142.7990 C   0  0  1  0  0  3  0  0  0  0  0  0
  188.0440  175.8360  140.5620 C   0  0  0  0  0  3  0  0  0  0  0  0
  188.6800  174.5480  142.5110 C   0  0  0  0  0  3  0  0  0  0  0  0
  188.4820  173.4600  140.3540 C   0  0  0  0  0  0  0  0  0  0  0  0
  188.7630  173.3970  141.7220 C   0  0  0  0  0  3  0  0  0  0  0  0
  188.1310  174.6860  139.7720 C   0  0  0  0  0  3  0  0  0  0  0  0
  188.3210  175.7710  141.9350 C   0  0  0  0  0  0  0  0  0  0  0  0
  188.6340  172.2330  139.5170 C   0  0  0  0  0  2  0  0  0  0  0  0
  190.0890  172.0170  139.0710 C   0  0  1  0  0  3  0  0  0  0  0  0
  190.4410  170.5890  139.2090 N   0  0  0  0  0  0  0  0  0  0  0  0
  190.5700  168.7830  137.7900 C   0  0  0  0  0  2  0  0  0  0  0  0
  189.6930  169.8420  138.2800 N   0  0  0  0  0  2  0  0  0  0  0  0
  191.9290  169.0790  138.2010 N   0  0  0  0  0  2  0  0  0  0  0  0
  191.8310  170.3920  138.8060 C   0  0  0  0  0  2  0  0  0  0  0  0
  191.0450  173.7910  137.5440 C   0  0  0  0  0  1  0  0  0  0  0  0
  189.0230  172.7050  136.9930 O   0  0  0  0  0  1  0  0  0  0  0  0
  190.2610  172.4940  137.6090 C   0  0  2  0  0  3  0  0  0  0  0  0
  187.0000  176.9860  143.6400 C   0  0  0  0  0  0  0  0  0  0  0  0
  186.9150  177.7740  144.8350 N   0  0  0  0  0  2  0  0  0  0  0  0
  186.0350  176.2500  143.3010 O   0  0  0  0  0  0  0  0  0  0  0  0
  185.7970  177.6680  145.7670 C   0  0  0  0  0  2  0  0  0  0  0  0
  186.3040  177.3810  147.1750 C   0  0  0  0  0  2  0  0  0  0  0  0
  188.7550  177.8150  147.4340 C   0  0  0  0  0  3  0  0  0  0  0  0
  190.3740  176.0710  146.9490 C   0  0  0  0  0  0  0  0  0  0  0  0
  189.4850  173.7880  146.2000 C   0  0  0  0  0  1  0  0  0  0  0  0
  188.0150  175.6610  146.7260 N   0  0  0  0  0  0  0  0  0  0  0  0
  190.0770  177.3780  147.3510 C   0  0  0  0  0  3  0  0  0  0  0  0
  187.7240  176.9340  147.1110 C   0  0  0  0  0  0  0  0  0  0  0  0
  189.2930  175.2030  146.6340 C   0  0  0  0  0  0  0  0  0  0  0  0
  191.7650  175.7110  146.8570 N   0  0  0  0  0  0  0  0  0  0  0  0
  192.7290  176.5170  146.5560 C   0  0  0  0  0  3  0  0  0  0  0  0
  194.1380  176.0340  146.5110 C   0  0  0  0  0  2  0  0  0  0  0  0
  194.8460  176.5590  145.2670 C   0  0  0  0  0  2  0  0  0  0  0  0
  195.9640  175.7380  144.9470 O   0  0  0  0  0  0  0  0  0  0  0  0
  195.8760  174.6850  144.0340 C   0  0  0  0  0  0  0  0  0  0  0  0
  195.8130  173.4900  144.4280 O   0  0  0  0  0  0  0  0  0  0  0  0
  195.8340  174.9890  142.5760 C   0  0  0  0  0  1  0  0  0  0  0  0
  189.4440  177.0960  143.6170 N   0  0  0  0  0  2  0  0  0  0  0  0
  190.4980  177.6140  142.7630 C   0  0  0  0  0  2  0  0  0  0  0  0
  191.7370  177.2310  143.2750 O   0  0  0  0  0  0  0  0  0  0  0  0
  192.1260  176.1360  142.4950 C   0  0  0  0  0  2  0  0  0  0  0  0
  192.1870  174.8830  143.3560 C   0  0  0  0  0  2  0  0  0  0  0  0
  192.3590  173.6600  142.5060 C   0  0  0  0  0  0  0  0  0  0  0  0
  192.2440  173.7450  141.2930 O   0  0  0  0  0  0  0  0  0  0  0  0
  192.7190  172.3460  143.1280 C   0  0  0  0  0  3  0  0  0  0  0  0
  191.4810  171.7100  143.7420 C   0  0  0  0  0  2  0  0  0  0  0  0
  192.4950  172.3870  144.6320 C   0  0  0  0  0  2  0  0  0  0  0  0
  1 38  1  1  0  0  0
  1 18  1  0  0  0  0
  2  7  1  0  0  0  0
  4  5  2  0  0  0  0
  5  3  1  0  0  0  0
  6  4  1  0  0  0  0
  6  2  2  0  0  0  0
  7  3  2  0  0  0  0
  7  1  1  0  0  0  0
  8  4  1  0  0  0  0
  9 10  1  0  0  0  0
  9  8  1  6  0  0  0
 11 13  1  0  0  0  0
 11 12  1  0  0  0  0
 12 10  1  0  0  0  0
 13 14  1  0  0  0  0
 14 10  1  0  0  0  0
 16 17  1  0  0  0  0
 17 15  1  1  0  0  0
 17  9  1  0  0  0  0
 18 19  1  0  0  0  0
 19 21  1  0  0  0  0
 20 18  2  0  0  0  0
 21 22  1  0  0  0  0
 24 27  2  0  0  0  0
 25 29  1  0  0  0  0
 26 28  1  0  0  0  0
 27 23  1  0  0  0  0
 28 22  1  0  0  0  0
 28 23  2  0  0  0  0
 29 26  2  0  0  0  0
 29 24  1  0  0  0  0
 30 24  1  0  0  0  0
 31 30  2  0  0  0  0
 32 31  1  0  0  0  0
 33 32  1  0  0  0  0
 34 33  1  0  0  0  0
 35 36  2  0  0  0  0
 35 34  1  0  0  0  0
 37 35  1  0  0  0  0
 39 40  1  0  0  0  0
 39 38  1  0  0  0  0
 41 40  1  0  0  0  0
 41 42  1  0  0  0  0
 43 45  1  0  0  0  0
 43 42  1  0  0  0  0
 44 43  2  0  0  0  0
 45 46  1  0  0  0  0
 45 47  1  0  0  0  0
 46 47  1  0  0  0  0
M  END
>  <MODEL>
3

>  <REMARK>
 VINA RESULT:      -5.7      3.410      7.195
  Name = 
  21 active torsions:
  status: ('A' for Active; 'I' for Inactive)
    1  A    between atoms: C_3  and  C_13
    2  A    between atoms: C_3  and  C_32
    3  A    between atoms: C_6  and  C_33
    4  A    between atoms: C_7  and  N_18
    5  A    between atoms: N_8  and  C_29
    6  A    between atoms: C_9  and  C_38
    7  A    between atoms: C_13  and  N_26
    8  A    between atoms: C_15  and  C_20
    9  A    between atoms: C_15  and  O_37
   10  A    between atoms: C_16  and  C_28
   11  A    between atoms: C_20  and  C_36
   12  A    between atoms: C_22  and  O_37
   13  A    between atoms: C_28  and  C_34
   14  A    between atoms: C_29  and  C_31
   15  A    between atoms: C_29  and  C_33
   16  A    between atoms: C_34  and  C_42
   17  A    between atoms: C_35  and  C_38
   18  A    between atoms: C_38  and  N_46
   19  A    between atoms: O_41  and  C_42
   20  A    between atoms: O_41  and  C_47
   21  A    between atoms: N_46  and  C_47
                            x       y       z     vdW  Elec       q    Type
                         _______ _______ _______ _____ _____    ______ ____

>  <TORSDO>
F 21

$$$$
=
 OpenBabel11042418123D

 47 50  0  0  1  0  0  0  0  0999 V2000
  191.1080  172.2200  143.9120 C   0  0  1  0  0  3  0  0  0  0  0  0
  189.8120  173.8060  145.3890 C   0  0  0  0  0  3  0  0  0  0  0  0
  190.4950  174.5300  143.1830 C   0  0  0  0  0  3  0  0  0  0  0  0
  189.2500  176.0360  144.6180 C   0  0  0  0  0  0  0  0  0  0  0  0
  189.8970  175.7740  143.4060 C   0  0  0  0  0  3  0  0  0  0  0  0
  189.2160  175.0510  145.6150 C   0  0  0  0  0  3  0  0  0  0  0  0
  190.4560  173.5430  144.1720 C   0  0  0  0  0  0  0  0  0  0  0  0
  188.6690  177.3890  144.8610 C   0  0  0  0  0  2  0  0  0  0  0  0
  187.1370  177.3910  144.7220 C   0  0  1  0  0  3  0  0  0  0  0  0
  186.5520  178.2990  145.7300 N   0  0  0  0  0  0  0  0  0  0  0  0
  184.6880  178.2750  147.0770 C   0  0  0  0  0  2  0  0  0  0  0  0
  185.1500  178.1770  145.6970 N   0  0  0  0  0  2  0  0  0  0  0  0
  185.8320  178.1550  147.9600 N   0  0  0  0  0  2  0  0  0  0  0  0
  186.9290  177.8440  147.0670 C   0  0  0  0  0  2  0  0  0  0  0  0
  186.2960  176.6340  142.4620 C   0  0  0  0  0  1  0  0  0  0  0  0
  187.8190  178.4300  142.6290 O   0  0  0  0  0  1  0  0  0  0  0  0
  186.7460  177.8230  143.2890 C   0  0  2  0  0  3  0  0  0  0  0  0
  190.4550  171.5080  142.7630 C   0  0  0  0  0  0  0  0  0  0  0  0
  191.2200  170.6710  141.8850 N   0  0  0  0  0  2  0  0  0  0  0  0
  189.2240  171.6800  142.5550 O   0  0  0  0  0  0  0  0  0  0  0  0
  190.6640  170.0990  140.6640 C   0  0  0  0  0  2  0  0  0  0  0  0
  191.3280  170.7130  139.4380 C   0  0  0  0  0  2  0  0  0  0  0  0
  192.1070  173.0430  139.9140 C   0  0  0  0  0  3  0  0  0  0  0  0
  194.3810  173.4550  140.6610 C   0  0  0  0  0  0  0  0  0  0  0  0
  195.9240  171.4330  140.9670 C   0  0  0  0  0  1  0  0  0  0  0  0
  193.6130  171.2200  140.2210 N   0  0  0  0  0  0  0  0  0  0  0  0
  193.1120  173.9270  140.3090 C   0  0  0  0  0  3  0  0  0  0  0  0
  192.3790  171.6760  139.8720 C   0  0  0  0  0  0  0  0  0  0  0  0
  194.6140  172.0540  140.6100 C   0  0  0  0  0  0  0  0  0  0  0  0
  195.3700  174.4350  141.0230 N   0  0  0  0  0  0  0  0  0  0  0  0
  195.3530  175.1570  142.0950 C   0  0  0  0  0  3  0  0  0  0  0  0
  196.4470  176.1290  142.3760 C   0  0  0  0  0  2  0  0  0  0  0  0
  196.2950  176.7200  143.7730 C   0  0  0  0  0  2  0  0  0  0  0  0
  194.9330  176.6780  144.1850 O   0  0  0  0  0  0  0  0  0  0  0  0
  194.5650  176.5090  145.5210 C   0  0  0  0  0  0  0  0  0  0  0  0
  194.7050  177.4450  146.3540 O   0  0  0  0  0  0  0  0  0  0  0  0
  193.9780  175.2110  145.9560 C   0  0  0  0  0  1  0  0  0  0  0  0
  192.5340  172.4080  143.6870 N   0  0  0  0  0  2  0  0  0  0  0  0
  193.2310  171.6070  144.6780 C   0  0  0  0  0  2  0  0  0  0  0  0
  193.6890  170.4320  144.0820 O   0  0  0  0  0  0  0  0  0  0  0  0
  194.0950  169.6230  145.1480 C   0  0  0  0  0  2  0  0  0  0  0  0
  195.5620  169.2510  144.9860 C   0  0  0  0  0  2  0  0  0  0  0  0
  196.3930  169.8730  146.0670 C   0  0  0  0  0  0  0  0  0  0  0  0
  196.3050  169.4590  147.2130 O   0  0  0  0  0  0  0  0  0  0  0  0
  197.3650  170.9650  145.7440 C   0  0  0  0  0  3  0  0  0  0  0  0
  196.6900  172.3200  145.9030 C   0  0  0  0  0  2  0  0  0  0  0  0
  196.9050  171.7470  144.5230 C   0  0  0  0  0  2  0  0  0  0  0  0
  1 18  1  6  0  0  0
  1  7  1  0  0  0  0
  2  6  1  0  0  0  0
  3  5  2  0  0  0  0
  3  7  1  0  0  0  0
  4  8  1  0  0  0  0
  4  6  2  0  0  0  0
  5  4  1  0  0  0  0
  7  2  2  0  0  0  0
  9  8  1  6  0  0  0
  9 10  1  0  0  0  0
 10 14  1  0  0  0  0
 11 13  1  0  0  0  0
 12 10  1  0  0  0  0
 12 11  1  0  0  0  0
 14 13  1  0  0  0  0
 16 17  1  0  0  0  0
 17 15  1  6  0  0  0
 17  9  1  0  0  0  0
 19 18  1  0  0  0  0
 20 18  2  0  0  0  0
 21 19  1  0  0  0  0
 22 28  1  0  0  0  0
 22 21  1  0  0  0  0
 23 27  1  0  0  0  0
 24 30  1  0  0  0  0
 26 29  2  0  0  0  0
 27 24  2  0  0  0  0
 28 23  2  0  0  0  0
 28 26  1  0  0  0  0
 29 24  1  0  0  0  0
 29 25  1  0  0  0  0
 30 31  2  0  0  0  0
 31 32  1  0  0  0  0
 32 33  1  0  0  0  0
 33 34  1  0  0  0  0
 34 35  1  0  0  0  0
 35 37  1  0  0  0  0
 35 36  2  0  0  0  0
 38  1  1  0  0  0  0
 38 39  1  0  0  0  0
 40 39  1  0  0  0  0
 40 41  1  0  0  0  0
 42 41  1  0  0  0  0
 42 43  1  0  0  0  0
 43 44  2  0  0  0  0
 45 46  1  0  0  0  0
 45 43  1  0  0  0  0
 47 45  1  0  0  0  0
 47 46  1  0  0  0  0
M  END
>  <MODEL>
4

>  <REMARK>
 VINA RESULT:      -5.5      3.455      9.937
  Name = 
  21 active torsions:
  status: ('A' for Active; 'I' for Inactive)
    1  A    between atoms: C_3  and  C_13
    2  A    between atoms: C_3  and  C_32
    3  A    between atoms: C_6  and  C_33
    4  A    between atoms: C_7  and  N_18
    5  A    between atoms: N_8  and  C_29
    6  A    between atoms: C_9  and  C_38
    7  A    between atoms: C_13  and  N_26
    8  A    between atoms: C_15  and  C_20
    9  A    between atoms: C_15  and  O_37
   10  A    between atoms: C_16  and  C_28
   11  A    between atoms: C_20  and  C_36
   12  A    between atoms: C_22  and  O_37
   13  A    between atoms: C_28  and  C_34
   14  A    between atoms: C_29  and  C_31
   15  A    between atoms: C_29  and  C_33
   16  A    between atoms: C_34  and  C_42
   17  A    between atoms: C_35  and  C_38
   18  A    between atoms: C_38  and  N_46
   19  A    between atoms: O_41  and  C_42
   20  A    between atoms: O_41  and  C_47
   21  A    between atoms: N_46  and  C_47
                            x       y       z     vdW  Elec       q    Type
                         _______ _______ _______ _____ _____    ______ ____

>  <TORSDO>
F 21

$$$$
=
 OpenBabel11042418123D

 47 50  0  0  1  0  0  0  0  0999 V2000
  190.7300  171.5630  139.7290 C   0  0  1  0  0  3  0  0  0  0  0  0
  188.7670  173.0390  140.3190 C   0  0  0  0  0  3  0  0  0  0  0  0
  190.9120  173.4450  141.3640 C   0  0  0  0  0  3  0  0  0  0  0  0
  189.0150  174.8500  141.9140 C   0  0  0  0  0  0  0  0  0  0  0  0
  190.3610  174.5120  142.0800 C   0  0  0  0  0  3  0  0  0  0  0  0
  188.2140  174.1040  141.0370 C   0  0  0  0  0  3  0  0  0  0  0  0
  190.1180  172.7050  140.4820 C   0  0  0  0  0  0  0  0  0  0  0  0
  188.4290  175.9530  142.7300 C   0  0  0  0  0  2  0  0  0  0  0  0
  187.0260  176.3490  142.2420 C   0  0  1  0  0  3  0  0  0  0  0  0
  186.1120  176.4480  143.3990 N   0  0  0  0  0  0  0  0  0  0  0  0
  185.9020  177.8490  145.2110 C   0  0  0  0  0  2  0  0  0  0  0  0
  186.8200  176.9670  144.4980 N   0  0  0  0  0  2  0  0  0  0  0  0
  184.7430  178.0880  144.3720 N   0  0  0  0  0  2  0  0  0  0  0  0
  185.0840  177.4470  143.1180 C   0  0  0  0  0  2  0  0  0  0  0  0
  186.8460  177.4870  139.9930 C   0  0  0  0  0  1  0  0  0  0  0  0
  188.3550  178.2910  141.6200 O   0  0  0  0  0  1  0  0  0  0  0  0
  187.1010  177.6890  141.4740 C   0  0  2  0  0  3  0  0  0  0  0  0
  191.3910  170.5890  140.6600 C   0  0  0  0  0  0  0  0  0  0  0  0
  192.8060  170.3640  140.6070 N   0  0  0  0  0  2  0  0  0  0  0  0
  190.6810  169.9410  141.4750 O   0  0  0  0  0  0  0  0  0  0  0  0
  193.4630  169.3100  141.3720 C   0  0  0  0  0  2  0  0  0  0  0  0
  194.6530  169.8720  142.1400 C   0  0  0  0  0  2  0  0  0  0  0  0
  193.3300  171.0260  143.9250 C   0  0  0  0  0  3  0  0  0  0  0  0
  193.4570  173.4370  144.1880 C   0  0  0  0  0  0  0  0  0  0  0  0
  195.0000  174.7340  142.6070 C   0  0  0  0  0  1  0  0  0  0  0  0
  194.7380  172.3130  142.4930 N   0  0  0  0  0  0  0  0  0  0  0  0
  192.9450  172.1960  144.5800 C   0  0  0  0  0  3  0  0  0  0  0  0
  194.2370  171.1040  142.8680 C   0  0  0  0  0  0  0  0  0  0  0  0
  194.3820  173.4710  143.1100 C   0  0  0  0  0  0  0  0  0  0  0  0
  192.9800  174.5970  144.8940 N   0  0  0  0  0  0  0  0  0  0  0  0
  193.3010  174.9240  146.1030 C   0  0  0  0  0  3  0  0  0  0  0  0
  192.7600  176.1640  146.7250 C   0  0  0  0  0  2  0  0  0  0  0  0
  191.3820  176.4910  146.1620 C   0  0  0  0  0  2  0  0  0  0  0  0
  190.3680  176.1500  147.1020 O   0  0  0  0  0  0  0  0  0  0  0  0
  189.3290  175.2720  146.7880 C   0  0  0  0  0  0  0  0  0  0  0  0
  188.1710  175.4460  147.2570 O   0  0  0  0  0  0  0  0  0  0  0  0
  189.5930  174.1300  145.8690 C   0  0  0  0  0  1  0  0  0  0  0  0
  189.7180  170.9160  138.9060 N   0  0  0  0  0  2  0  0  0  0  0  0
  190.4050  169.9490  138.0680 C   0  0  0  0  0  2  0  0  0  0  0  0
  190.9200  170.5960  136.9450 O   0  0  0  0  0  0  0  0  0  0  0  0
  189.8040  170.8880  136.1540 C   0  0  0  0  0  2  0  0  0  0  0  0
  190.2380  171.6400  134.9040 C   0  0  0  0  0  2  0  0  0  0  0  0
  190.3550  173.1090  135.1800 C   0  0  0  0  0  0  0  0  0  0  0  0
  189.3620  173.8180  135.1160 O   0  0  0  0  0  0  0  0  0  0  0  0
  191.6690  173.7050  135.5810 C   0  0  0  0  0  3  0  0  0  0  0  0
  191.6420  174.0630  137.0600 C   0  0  0  0  0  2  0  0  0  0  0  0
  191.4890  175.1490  136.0230 C   0  0  0  0  0  2  0  0  0  0  0  0
  1 38  1  1  0  0  0
  1  7  1  0  0  0  0
  1 18  1  0  0  0  0
  2  7  2  0  0  0  0
  2  6  1  0  0  0  0
  3  5  2  0  0  0  0
  4  5  1  0  0  0  0
  4  8  1  0  0  0  0
  6  4  2  0  0  0  0
  7  3  1  0  0  0  0
  9  8  1  1  0  0  0
  9 10  1  0  0  0  0
 10 12  1  0  0  0  0
 12 11  1  0  0  0  0
 13 11  1  0  0  0  0
 14 10  1  0  0  0  0
 14 13  1  0  0  0  0
 17 15  1  6  0  0  0
 17 16  1  0  0  0  0
 17  9  1  0  0  0  0
 18 20  2  0  0  0  0
 19 18  1  0  0  0  0
 19 21  1  0  0  0  0
 21 22  1  0  0  0  0
 22 28  1  0  0  0  0
 23 27  1  0  0  0  0
 24 27  2  0  0  0  0
 24 30  1  0  0  0  0
 25 29  1  0  0  0  0
 26 28  1  0  0  0  0
 26 29  2  0  0  0  0
 28 23  2  0  0  0  0
 29 24  1  0  0  0  0
 30 31  2  0  0  0  0
 31 32  1  0  0  0  0
 33 32  1  0  0  0  0
 33 34  1  0  0  0  0
 35 34  1  0  0  0  0
 35 36  2  0  0  0  0
 37 35  1  0  0  0  0
 39 38  1  0  0  0  0
 40 39  1  0  0  0  0
 41 40  1  0  0  0  0
 42 43  1  0  0  0  0
 42 41  1  0  0  0  0
 43 45  1  0  0  0  0
 44 43  2  0  0  0  0
 45 47  1  0  0  0  0
 45 46  1  0  0  0  0
 47 46  1  0  0  0  0
M  END
>  <MODEL>
5

>  <REMARK>
 VINA RESULT:      -5.4      3.213      9.654
  Name = 
  21 active torsions:
  status: ('A' for Active; 'I' for Inactive)
    1  A    between atoms: C_3  and  C_13
    2  A    between atoms: C_3  and  C_32
    3  A    between atoms: C_6  and  C_33
    4  A    between atoms: C_7  and  N_18
    5  A    between atoms: N_8  and  C_29
    6  A    between atoms: C_9  and  C_38
    7  A    between atoms: C_13  and  N_26
    8  A    between atoms: C_15  and  C_20
    9  A    between atoms: C_15  and  O_37
   10  A    between atoms: C_16  and  C_28
   11  A    between atoms: C_20  and  C_36
   12  A    between atoms: C_22  and  O_37
   13  A    between atoms: C_28  and  C_34
   14  A    between atoms: C_29  and  C_31
   15  A    between atoms: C_29  and  C_33
   16  A    between atoms: C_34  and  C_42
   17  A    between atoms: C_35  and  C_38
   18  A    between atoms: C_38  and  N_46
   19  A    between atoms: O_41  and  C_42
   20  A    between atoms: O_41  and  C_47
   21  A    between atoms: N_46  and  C_47
                            x       y       z     vdW  Elec       q    Type
                         _______ _______ _______ _____ _____    ______ ____

>  <TORSDO>
F 21

$$$$
=
 OpenBabel11042418123D

 47 50  0  0  1  0  0  0  0  0999 V2000
  194.3790  174.0600  139.7960 C   0  0  1  0  0  3  0  0  0  0  0  0
  193.2850  172.9420  141.7800 C   0  0  0  0  0  3  0  0  0  0  0  0
  193.4530  175.3560  141.7220 C   0  0  0  0  0  3  0  0  0  0  0  0
  192.4070  174.2620  143.6160 C   0  0  0  0  0  0  0  0  0  0  0  0
  192.8170  175.4300  142.9650 C   0  0  0  0  0  3  0  0  0  0  0  0
  192.6510  173.0140  143.0240 C   0  0  0  0  0  3  0  0  0  0  0  0
  193.6910  174.1130  141.1260 C   0  0  0  0  0  0  0  0  0  0  0  0
  191.7830  174.3570  144.9680 C   0  0  0  0  0  2  0  0  0  0  0  0
  191.4640  175.8110  145.3540 C   0  0  1  0  0  3  0  0  0  0  0  0
  190.0080  176.0370  145.2620 N   0  0  0  0  0  0  0  0  0  0  0  0
  188.4780  177.3630  146.3560 C   0  0  0  0  0  2  0  0  0  0  0  0
  189.5110  176.3490  146.5420 N   0  0  0  0  0  2  0  0  0  0  0  0
  188.5660  177.8720  145.0000 N   0  0  0  0  0  2  0  0  0  0  0  0
  189.7540  177.2360  144.4670 C   0  0  0  0  0  2  0  0  0  0  0  0
  193.4180  176.5850  146.7580 C   0  0  0  0  0  1  0  0  0  0  0  0
  191.9310  174.9470  147.5820 O   0  0  0  0  0  1  0  0  0  0  0  0
  191.9830  176.0950  146.7840 C   0  0  2  0  0  3  0  0  0  0  0  0
  193.4320  173.6410  138.7090 C   0  0  0  0  0  0  0  0  0  0  0  0
  193.2720  172.2590  138.3640 N   0  0  0  0  0  2  0  0  0  0  0  0
  192.7970  174.5260  138.0750 O   0  0  0  0  0  0  0  0  0  0  0  0
  192.4950  171.8230  137.2090 C   0  0  0  0  0  2  0  0  0  0  0  0
  191.2330  171.0970  137.6590 C   0  0  0  0  0  2  0  0  0  0  0  0
  190.3250  172.0090  139.8050 C   0  0  0  0  0  3  0  0  0  0  0  0
  188.6850  173.8000  139.7870 C   0  0  0  0  0  0  0  0  0  0  0  0
  187.9520  174.7290  137.5140 C   0  0  0  0  0  1  0  0  0  0  0  0
  189.5830  172.9290  137.7330 N   0  0  0  0  0  0  0  0  0  0  0  0
  189.4860  172.8910  140.4860 C   0  0  0  0  0  3  0  0  0  0  0  0
  190.3590  172.0400  138.4110 C   0  0  0  0  0  0  0  0  0  0  0  0
  188.7540  173.8020  138.3670 C   0  0  0  0  0  0  0  0  0  0  0  0
  187.8230  174.6510  140.5640 N   0  0  0  0  0  0  0  0  0  0  0  0
  188.2160  175.5910  141.3600 C   0  0  0  0  0  3  0  0  0  0  0  0
  187.2280  176.4250  142.1000 C   0  0  0  0  0  2  0  0  0  0  0  0
  186.7080  177.5530  141.2160 C   0  0  0  0  0  2  0  0  0  0  0  0
  186.3830  178.6930  142.0050 O   0  0  0  0  0  0  0  0  0  0  0  0
  185.2730  178.7200  142.8510 C   0  0  0  0  0  0  0  0  0  0  0  0
  184.2450  178.0380  142.5920 O   0  0  0  0  0  0  0  0  0  0  0  0
  185.3200  179.5520  144.0860 C   0  0  0  0  0  1  0  0  0  0  0  0
  194.9930  175.3470  139.5060 N   0  0  0  0  0  2  0  0  0  0  0  0
  196.4100  175.1050  139.2960 C   0  0  0  0  0  2  0  0  0  0  0  0
  196.8100  174.0120  140.0640 O   0  0  0  0  0  0  0  0  0  0  0  0
  197.7910  174.5160  140.9240 C   0  0  0  0  0  2  0  0  0  0  0  0
  197.1590  174.9310  142.2450 C   0  0  0  0  0  2  0  0  0  0  0  0
  197.0820  173.7690  143.1890 C   0  0  0  0  0  0  0  0  0  0  0  0
  197.9390  172.9000  143.1490 O   0  0  0  0  0  0  0  0  0  0  0  0
  195.9900  173.6900  144.2100 C   0  0  0  0  0  3  0  0  0  0  0  0
  196.0550  174.9020  145.1270 C   0  0  0  0  0  2  0  0  0  0  0  0
  196.5750  173.5700  145.6100 C   0  0  0  0  0  2  0  0  0  0  0  0
  1 18  1  6  0  0  0
  1  7  1  0  0  0  0
  2  6  1  0  0  0  0
  3  5  2  0  0  0  0
  4  8  1  0  0  0  0
  5  4  1  0  0  0  0
  6  4  2  0  0  0  0
  7  3  1  0  0  0  0
  7  2  2  0  0  0  0
  9  8  1  1  0  0  0
  9 17  1  0  0  0  0
 10  9  1  0  0  0  0
 10 12  1  0  0  0  0
 11 12  1  0  0  0  0
 13 11  1  0  0  0  0
 14 13  1  0  0  0  0
 14 10  1  0  0  0  0
 17 15  1  6  0  0  0
 17 16  1  0  0  0  0
 19 18  1  0  0  0  0
 20 18  2  0  0  0  0
 21 22  1  0  0  0  0
 21 19  1  0  0  0  0
 22 28  1  0  0  0  0
 23 27  1  0  0  0  0
 24 27  2  0  0  0  0
 24 30  1  0  0  0  0
 25 29  1  0  0  0  0
 26 29  2  0  0  0  0
 26 28  1  0  0  0  0
 28 23  2  0  0  0  0
 29 24  1  0  0  0  0
 30 31  2  0  0  0  0
 31 32  1  0  0  0  0
 33 34  1  0  0  0  0
 33 32  1  0  0  0  0
 34 35  1  0  0  0  0
 35 37  1  0  0  0  0
 36 35  2  0  0  0  0
 38  1  1  0  0  0  0
 39 38  1  0  0  0  0
 39 40  1  0  0  0  0
 40 41  1  0  0  0  0
 41 42  1  0  0  0  0
 42 43  1  0  0  0  0
 43 45  1  0  0  0  0
 44 43  2  0  0  0  0
 45 46  1  0  0  0  0
 45 47  1  0  0  0  0
 46 47  1  0  0  0  0
M  END
>  <MODEL>
6

>  <REMARK>
 VINA RESULT:      -5.3      2.998      7.780
  Name = 
  21 active torsions:
  status: ('A' for Active; 'I' for Inactive)
    1  A    between atoms: C_3  and  C_13
    2  A    between atoms: C_3  and  C_32
    3  A    between atoms: C_6  and  C_33
    4  A    between atoms: C_7  and  N_18
    5  A    between atoms: N_8  and  C_29
    6  A    between atoms: C_9  and  C_38
    7  A    between atoms: C_13  and  N_26
    8  A    between atoms: C_15  and  C_20
    9  A    between atoms: C_15  and  O_37
   10  A    between atoms: C_16  and  C_28
   11  A    between atoms: C_20  and  C_36
   12  A    between atoms: C_22  and  O_37
   13  A    between atoms: C_28  and  C_34
   14  A    between atoms: C_29  and  C_31
   15  A    between atoms: C_29  and  C_33
   16  A    between atoms: C_34  and  C_42
   17  A    between atoms: C_35  and  C_38
   18  A    between atoms: C_38  and  N_46
   19  A    between atoms: O_41  and  C_42
   20  A    between atoms: O_41  and  C_47
   21  A    between atoms: N_46  and  C_47
                            x       y       z     vdW  Elec       q    Type
                         _______ _______ _______ _____ _____    ______ ____

>  <TORSDO>
F 21

$$$$
=
 OpenBabel11042418123D

 47 50  0  0  1  0  0  0  0  0999 V2000
  184.9850  178.1130  143.1480 C   0  0  1  0  0  3  0  0  0  0  0  0
  182.6020  178.9510  143.1360 C   0  0  0  0  0  3  0  0  0  0  0  0
  183.5100  177.9290  141.1380 C   0  0  0  0  0  3  0  0  0  0  0  0
  181.2260  178.7400  141.1500 C   0  0  0  0  0  0  0  0  0  0  0  0
  182.2930  178.1320  140.4810 C   0  0  0  0  0  3  0  0  0  0  0  0
  181.3860  179.1580  142.4790 C   0  0  0  0  0  3  0  0  0  0  0  0
  183.6700  178.3370  142.4660 C   0  0  0  0  0  0  0  0  0  0  0  0
  179.9540  179.0020  140.4140 C   0  0  0  0  0  2  0  0  0  0  0  0
  179.0150  177.7850  140.4360 C   0  0  1  0  0  3  0  0  0  0  0  0
  178.0260  177.9450  141.5220 N   0  0  0  0  0  0  0  0  0  0  0  0
  178.1090  178.0290  143.8200 C   0  0  0  0  0  2  0  0  0  0  0  0
  178.4680  177.2310  142.6520 N   0  0  0  0  0  2  0  0  0  0  0  0
  177.7220  179.3540  143.3750 N   0  0  0  0  0  2  0  0  0  0  0  0
  178.0050  179.3400  141.9550 C   0  0  0  0  0  2  0  0  0  0  0  0
  179.1110  176.7430  138.1360 C   0  0  0  0  0  1  0  0  0  0  0  0
  178.1630  178.8840  138.4380 O   0  0  0  0  0  1  0  0  0  0  0  0
  178.3160  177.6420  139.0630 C   0  0  2  0  0  3  0  0  0  0  0  0
  186.0340  177.6650  142.1730 C   0  0  0  0  0  0  0  0  0  0  0  0
  186.6100  176.3550  142.2590 N   0  0  0  0  0  2  0  0  0  0  0  0
  186.4320  178.4710  141.2880 O   0  0  0  0  0  0  0  0  0  0  0  0
  187.7460  175.9410  141.4430 C   0  0  0  0  0  2  0  0  0  0  0  0
  189.0560  176.2970  142.1360 C   0  0  0  0  0  2  0  0  0  0  0  0
  189.2610  173.8040  142.1970 C   0  0  0  0  0  3  0  0  0  0  0  0
  190.9620  172.7390  143.5650 C   0  0  0  0  0  0  0  0  0  0  0  0
  192.5390  174.2500  144.9040 C   0  0  0  0  0  1  0  0  0  0  0  0
  190.7680  175.1340  143.4800 N   0  0  0  0  0  0  0  0  0  0  0  0
  189.8870  172.6520  142.6740 C   0  0  0  0  0  3  0  0  0  0  0  0
  189.7180  175.0520  142.6180 C   0  0  0  0  0  0  0  0  0  0  0  0
  191.4000  174.0310  143.9640 C   0  0  0  0  0  0  0  0  0  0  0  0
  191.5280  171.5020  144.0350 N   0  0  0  0  0  0  0  0  0  0  0  0
  192.1460  170.6340  143.3040 C   0  0  0  0  0  3  0  0  0  0  0  0
  192.7110  169.3940  143.9070 C   0  0  0  0  0  2  0  0  0  0  0  0
  194.0770  169.0800  143.3080 C   0  0  0  0  0  2  0  0  0  0  0  0
  195.0240  170.0750  143.6820 O   0  0  0  0  0  0  0  0  0  0  0  0
  195.3590  170.3200  145.0140 C   0  0  0  0  0  0  0  0  0  0  0  0
  196.0060  169.4720  145.6860 O   0  0  0  0  0  0  0  0  0  0  0  0
  194.9630  171.6140  145.6380 C   0  0  0  0  0  1  0  0  0  0  0  0
  185.3880  179.3210  143.8540 N   0  0  0  0  0  2  0  0  0  0  0  0
  185.8180  178.9160  145.1800 C   0  0  0  0  0  2  0  0  0  0  0  0
  185.1740  177.7300  145.5320 O   0  0  0  0  0  0  0  0  0  0  0  0
  186.0270  177.1170  146.4550 C   0  0  0  0  0  2  0  0  0  0  0  0
  187.3090  176.6760  145.7620 C   0  0  0  0  0  2  0  0  0  0  0  0
  188.2490  176.0340  146.7380 C   0  0  0  0  0  0  0  0  0  0  0  0
  187.8070  175.3110  147.6180 O   0  0  0  0  0  0  0  0  0  0  0  0
  189.7280  176.2330  146.6110 C   0  0  0  0  0  3  0  0  0  0  0  0
  190.1470  177.4810  147.3730 C   0  0  0  0  0  2  0  0  0  0  0  0
  190.0320  177.5250  145.8680 C   0  0  0  0  0  2  0  0  0  0  0  0
  1 18  1  6  0  0  0
  1 38  1  0  0  0  0
  3  7  1  0  0  0  0
  4  6  2  0  0  0  0
  5  3  2  0  0  0  0
  5  4  1  0  0  0  0
  6  2  1  0  0  0  0
  7  2  2  0  0  0  0
  7  1  1  0  0  0  0
  8  4  1  0  0  0  0
  9  8  1  6  0  0  0
  9 10  1  0  0  0  0
 10 14  1  0  0  0  0
 10 12  1  0  0  0  0
 12 11  1  0  0  0  0
 13 11  1  0  0  0  0
 14 13  1  0  0  0  0
 16 17  1  0  0  0  0
 17 15  1  6  0  0  0
 17  9  1  0  0  0  0
 18 19  1  0  0  0  0
 20 18  2  0  0  0  0
 21 22  1  0  0  0  0
 21 19  1  0  0  0  0
 22 28  1  0  0  0  0
 23 28  2  0  0  0  0
 23 27  1  0  0  0  0
 24 29  1  0  0  0  0
 24 30  1  0  0  0  0
 26 29  2  0  0  0  0
 27 24  2  0  0  0  0
 28 26  1  0  0  0  0
 29 25  1  0  0  0  0
 31 32  1  0  0  0  0
 31 30  2  0  0  0  0
 33 34  1  0  0  0  0
 33 32  1  0  0  0  0
 34 35  1  0  0  0  0
 35 37  1  0  0  0  0
 35 36  2  0  0  0  0
 38 39  1  0  0  0  0
 39 40  1  0  0  0  0
 40 41  1  0  0  0  0
 42 41  1  0  0  0  0
 42 43  1  0  0  0  0
 43 44  2  0  0  0  0
 45 43  1  0  0  0  0
 45 46  1  0  0  0  0
 47 45  1  0  0  0  0
 47 46  1  0  0  0  0
M  END
>  <MODEL>
7

>  <REMARK>
 VINA RESULT:      -5.3      2.964     11.350
  Name = 
  21 active torsions:
  status: ('A' for Active; 'I' for Inactive)
    1  A    between atoms: C_3  and  C_13
    2  A    between atoms: C_3  and  C_32
    3  A    between atoms: C_6  and  C_33
    4  A    between atoms: C_7  and  N_18
    5  A    between atoms: N_8  and  C_29
    6  A    between atoms: C_9  and  C_38
    7  A    between atoms: C_13  and  N_26
    8  A    between atoms: C_15  and  C_20
    9  A    between atoms: C_15  and  O_37
   10  A    between atoms: C_16  and  C_28
   11  A    between atoms: C_20  and  C_36
   12  A    between atoms: C_22  and  O_37
   13  A    between atoms: C_28  and  C_34
   14  A    between atoms: C_29  and  C_31
   15  A    between atoms: C_29  and  C_33
   16  A    between atoms: C_34  and  C_42
   17  A    between atoms: C_35  and  C_38
   18  A    between atoms: C_38  and  N_46
   19  A    between atoms: O_41  and  C_42
   20  A    between atoms: O_41  and  C_47
   21  A    between atoms: N_46  and  C_47
                            x       y       z     vdW  Elec       q    Type
                         _______ _______ _______ _____ _____    ______ ____

>  <TORSDO>
F 21

$$$$
=
 OpenBabel11042418123D

 47 50  0  0  1  0  0  0  0  0999 V2000
  190.3230  175.3390  145.5560 C   0  0  1  0  0  3  0  0  0  0  0  0
  192.7060  175.6410  146.3370 C   0  0  0  0  0  3  0  0  0  0  0  0
  192.1760  175.9560  143.9960 C   0  0  0  0  0  3  0  0  0  0  0  0
  194.4560  176.2410  144.7680 C   0  0  0  0  0  0  0  0  0  0  0  0
  193.5180  176.2470  143.7310 C   0  0  0  0  0  3  0  0  0  0  0  0
  194.0480  175.9280  146.0730 C   0  0  0  0  0  3  0  0  0  0  0  0
  191.7650  175.6520  145.2980 C   0  0  0  0  0  0  0  0  0  0  0  0
  195.8940  176.4950  144.4570 C   0  0  0  0  0  2  0  0  0  0  0  0
  196.6210  175.2150  144.0110 C   0  0  1  0  0  3  0  0  0  0  0  0
  196.0430  174.0510  144.7130 N   0  0  0  0  0  0  0  0  0  0  0  0
  196.4940  171.7960  144.8010 C   0  0  0  0  0  2  0  0  0  0  0  0
  196.1950  172.9080  143.9050 N   0  0  0  0  0  2  0  0  0  0  0  0
  196.8160  172.3300  146.1110 N   0  0  0  0  0  2  0  0  0  0  0  0
  196.8350  173.7640  145.9070 C   0  0  0  0  0  2  0  0  0  0  0  0
  196.6050  176.4000  141.7790 C   0  0  0  0  0  1  0  0  0  0  0  0
  195.2820  174.4740  142.1180 O   0  0  0  0  0  1  0  0  0  0  0  0
  196.5020  175.0580  142.4770 C   0  0  2  0  0  3  0  0  0  0  0  0
  189.5540  176.5770  145.9170 C   0  0  0  0  0  0  0  0  0  0  0  0
  188.5840  176.5590  146.9730 N   0  0  0  0  0  2  0  0  0  0  0  0
  189.7460  177.6330  145.2560 O   0  0  0  0  0  0  0  0  0  0  0  0
  187.6980  177.6860  147.2450 C   0  0  0  0  0  2  0  0  0  0  0  0
  186.2420  177.2360  147.2200 C   0  0  0  0  0  2  0  0  0  0  0  0
  184.5750  178.4190  145.7770 C   0  0  0  0  0  3  0  0  0  0  0  0
  184.5470  178.0570  143.3750 C   0  0  0  0  0  0  0  0  0  0  0  0
  186.2880  176.4600  142.3860 C   0  0  0  0  0  1  0  0  0  0  0  0
  186.1570  176.9440  144.7720 N   0  0  0  0  0  0  0  0  0  0  0  0
  184.0280  178.6740  144.5190 C   0  0  0  0  0  3  0  0  0  0  0  0
  185.6510  177.5380  145.8870 C   0  0  0  0  0  0  0  0  0  0  0  0
  185.6470  177.1700  143.5310 C   0  0  0  0  0  0  0  0  0  0  0  0
  183.9030  178.3480  142.1220 N   0  0  0  0  0  0  0  0  0  0  0  0
  182.6370  178.2370  141.8860 C   0  0  0  0  0  3  0  0  0  0  0  0
  182.0780  178.5880  140.5500 C   0  0  0  0  0  2  0  0  0  0  0  0
  180.5740  178.8180  140.6410 C   0  0  0  0  0  2  0  0  0  0  0  0
  179.9870  177.9090  141.5660 O   0  0  0  0  0  0  0  0  0  0  0  0
  178.6770  178.0570  142.0250 C   0  0  0  0  0  0  0  0  0  0  0  0
  178.0250  179.1100  141.7930 O   0  0  0  0  0  0  0  0  0  0  0  0
  178.0390  176.9410  142.7790 C   0  0  0  0  0  1  0  0  0  0  0  0
  189.7480  174.6690  144.3980 N   0  0  0  0  0  2  0  0  0  0  0  0
  190.0390  173.2530  144.5370 C   0  0  0  0  0  2  0  0  0  0  0  0
  189.8700  172.6250  143.3040 O   0  0  0  0  0  0  0  0  0  0  0  0
  191.1240  172.0800  143.0040 C   0  0  0  0  0  2  0  0  0  0  0  0
  191.3190  172.0330  141.4950 C   0  0  0  0  0  2  0  0  0  0  0  0
  190.9750  173.3520  140.8710 C   0  0  0  0  0  0  0  0  0  0  0  0
  191.5070  174.3720  141.2800 O   0  0  0  0  0  0  0  0  0  0  0  0
  190.0220  173.4220  139.7180 C   0  0  0  0  0  3  0  0  0  0  0  0
  188.5920  173.2890  140.2230 C   0  0  0  0  0  2  0  0  0  0  0  0
  189.2670  172.1090  139.5680 C   0  0  0  0  0  2  0  0  0  0  0  0
  1 38  1  6  0  0  0
  1 18  1  0  0  0  0
  3  7  1  0  0  0  0
  4  6  2  0  0  0  0
  5  3  2  0  0  0  0
  5  4  1  0  0  0  0
  6  2  1  0  0  0  0
  7  1  1  0  0  0  0
  7  2  2  0  0  0  0
  8  4  1  0  0  0  0
  9  8  1  1  0  0  0
  9 10  1  0  0  0  0
 10 14  1  0  0  0  0
 11 13  1  0  0  0  0
 12 10  1  0  0  0  0
 12 11  1  0  0  0  0
 14 13  1  0  0  0  0
 16 17  1  0  0  0  0
 17 15  1  6  0  0  0
 17  9  1  0  0  0  0
 18 19  1  0  0  0  0
 19 21  1  0  0  0  0
 20 18  2  0  0  0  0
 22 21  1  0  0  0  0
 23 28  1  0  0  0  0
 24 29  2  0  0  0  0
 24 27  1  0  0  0  0
 25 29  1  0  0  0  0
 26 28  2  0  0  0  0
 27 23  2  0  0  0  0
 28 22  1  0  0  0  0
 29 26  1  0  0  0  0
 30 24  1  0  0  0  0
 31 30  2  0  0  0  0
 32 33  1  0  0  0  0
 32 31  1  0  0  0  0
 33 34  1  0  0  0  0
 34 35  1  0  0  0  0
 35 37  1  0  0  0  0
 36 35  2  0  0  0  0
 38 39  1  0  0  0  0
 40 39  1  0  0  0  0
 41 40  1  0  0  0  0
 42 41  1  0  0  0  0
 43 44  2  0  0  0  0
 43 42  1  0  0  0  0
 45 46  1  0  0  0  0
 45 43  1  0  0  0  0
 47 45  1  0  0  0  0
 47 46  1  0  0  0  0
M  END
>  <MODEL>
8

>  <REMARK>
 VINA RESULT:      -5.2      2.506      4.861
  Name = 
  21 active torsions:
  status: ('A' for Active; 'I' for Inactive)
    1  A    between atoms: C_3  and  C_13
    2  A    between atoms: C_3  and  C_32
    3  A    between atoms: C_6  and  C_33
    4  A    between atoms: C_7  and  N_18
    5  A    between atoms: N_8  and  C_29
    6  A    between atoms: C_9  and  C_38
    7  A    between atoms: C_13  and  N_26
    8  A    between atoms: C_15  and  C_20
    9  A    between atoms: C_15  and  O_37
   10  A    between atoms: C_16  and  C_28
   11  A    between atoms: C_20  and  C_36
   12  A    between atoms: C_22  and  O_37
   13  A    between atoms: C_28  and  C_34
   14  A    between atoms: C_29  and  C_31
   15  A    between atoms: C_29  and  C_33
   16  A    between atoms: C_34  and  C_42
   17  A    between atoms: C_35  and  C_38
   18  A    between atoms: C_38  and  N_46
   19  A    between atoms: O_41  and  C_42
   20  A    between atoms: O_41  and  C_47
   21  A    between atoms: N_46  and  C_47
                            x       y       z     vdW  Elec       q    Type
                         _______ _______ _______ _____ _____    ______ ____

>  <TORSDO>
F 21

$$$$
=
 OpenBabel11042418123D

 47 50  0  0  1  0  0  0  0  0999 V2000
  190.7130  175.2990  145.5600 C   0  0  1  0  0  3  0  0  0  0  0  0
  189.8600  173.3470  144.2050 C   0  0  0  0  0  3  0  0  0  0  0  0
  191.2980  174.9840  143.1510 C   0  0  0  0  0  3  0  0  0  0  0  0
  190.4670  173.1020  141.8690 C   0  0  0  0  0  0  0  0  0  0  0  0
  191.2200  174.2780  141.9470 C   0  0  0  0  0  3  0  0  0  0  0  0
  189.7780  172.6410  143.0000 C   0  0  0  0  0  3  0  0  0  0  0  0
  190.6180  174.5230  144.2830 C   0  0  0  0  0  0  0  0  0  0  0  0
  190.3480  172.3940  140.5610 C   0  0  0  0  0  2  0  0  0  0  0  0
  190.0570  173.3650  139.4050 C   0  0  1  0  0  3  0  0  0  0  0  0
  190.6320  172.8290  138.1540 N   0  0  0  0  0  0  0  0  0  0  0  0
  189.8310  171.6440  136.3520 C   0  0  0  0  0  2  0  0  0  0  0  0
  189.9510  171.6480  137.8060 N   0  0  0  0  0  2  0  0  0  0  0  0
  190.1750  172.9630  135.8550 N   0  0  0  0  0  2  0  0  0  0  0  0
  190.3510  173.7520  137.0570 C   0  0  0  0  0  2  0  0  0  0  0  0
  188.1100  174.9190  139.8280 C   0  0  0  0  0  1  0  0  0  0  0  0
  187.8190  172.5800  139.9540 O   0  0  0  0  0  1  0  0  0  0  0  0
  188.5300  173.5730  139.2710 C   0  0  2  0  0  3  0  0  0  0  0  0
  189.3860  175.3660  146.2570 C   0  0  0  0  0  0  0  0  0  0  0  0
  188.3330  176.2010  145.7590 N   0  0  0  0  0  2  0  0  0  0  0  0
  189.2140  174.6990  147.3130 O   0  0  0  0  0  0  0  0  0  0  0  0
  187.0930  176.4250  146.4940 C   0  0  0  0  0  2  0  0  0  0  0  0
  186.7150  177.9020  146.4640 C   0  0  0  0  0  2  0  0  0  0  0  0
  184.5430  178.7270  145.5360 C   0  0  0  0  0  3  0  0  0  0  0  0
  184.0870  178.5890  143.1540 C   0  0  0  0  0  0  0  0  0  0  0  0
  185.9070  177.6040  141.6430 C   0  0  0  0  0  1  0  0  0  0  0  0
  186.1790  177.8200  144.0570 N   0  0  0  0  0  0  0  0  0  0  0  0
  183.6930  178.9400  144.4500 C   0  0  0  0  0  3  0  0  0  0  0  0
  185.7960  178.1560  145.3190 C   0  0  0  0  0  0  0  0  0  0  0  0
  185.3750  178.0140  142.9760 C   0  0  0  0  0  0  0  0  0  0  0  0
  183.1380  178.8100  142.0950 N   0  0  0  0  0  0  0  0  0  0  0  0
  182.3000  177.9360  141.6440 C   0  0  0  0  0  3  0  0  0  0  0  0
  181.3470  178.2860  140.5540 C   0  0  0  0  0  2  0  0  0  0  0  0
  180.5010  179.4920  140.9470 C   0  0  0  0  0  2  0  0  0  0  0  0
  179.1180  179.1530  140.9360 O   0  0  0  0  0  0  0  0  0  0  0  0
  178.6750  177.8340  141.0420 C   0  0  0  0  0  0  0  0  0  0  0  0
  178.4470  177.1430  140.0120 O   0  0  0  0  0  0  0  0  0  0  0  0
  178.4930  177.2330  142.3930 C   0  0  0  0  0  1  0  0  0  0  0  0
  191.7400  174.7200  146.4150 N   0  0  0  0  0  2  0  0  0  0  0  0
  192.7900  175.7140  146.5530 C   0  0  0  0  0  2  0  0  0  0  0  0
  193.8560  175.3760  145.7200 O   0  0  0  0  0  0  0  0  0  0  0  0
  194.4390  176.5970  145.3670 C   0  0  0  0  0  2  0  0  0  0  0  0
  195.6040  176.3600  144.4170 C   0  0  0  0  0  2  0  0  0  0  0  0
  195.1210  175.8170  143.1050 C   0  0  0  0  0  0  0  0  0  0  0  0
  194.2500  176.4120  142.4890 O   0  0  0  0  0  0  0  0  0  0  0  0
  195.7310  174.5800  142.5240 C   0  0  0  0  0  3  0  0  0  0  0  0
  196.0370  173.5850  143.6330 C   0  0  0  0  0  2  0  0  0  0  0  0
  197.1550  174.3980  143.0270 C   0  0  0  0  0  2  0  0  0  0  0  0
  1 18  1  1  0  0  0
  1 38  1  0  0  0  0
  2  7  1  0  0  0  0
  3  7  2  0  0  0  0
  4  5  2  0  0  0  0
  4  6  1  0  0  0  0
  5  3  1  0  0  0  0
  6  2  2  0  0  0  0
  7  1  1  0  0  0  0
  8  4  1  0  0  0  0
  9  8  1  1  0  0  0
 10  9  1  0  0  0  0
 11 12  1  0  0  0  0
 12 10  1  0  0  0  0
 13 11  1  0  0  0  0
 13 14  1  0  0  0  0
 14 10  1  0  0  0  0
 17  9  1  0  0  0  0
 17 15  1  1  0  0  0
 17 16  1  0  0  0  0
 18 20  2  0  0  0  0
 19 18  1  0  0  0  0
 19 21  1  0  0  0  0
 22 21  1  0  0  0  0
 24 27  1  0  0  0  0
 25 29  1  0  0  0  0
 26 28  2  0  0  0  0
 27 23  2  0  0  0  0
 28 23  1  0  0  0  0
 28 22  1  0  0  0  0
 29 24  2  0  0  0  0
 29 26  1  0  0  0  0
 30 24  1  0  0  0  0
 31 30  2  0  0  0  0
 32 33  1  0  0  0  0
 32 31  1  0  0  0  0
 34 33  1  0  0  0  0
 34 35  1  0  0  0  0
 35 37  1  0  0  0  0
 36 35  2  0  0  0  0
 38 39  1  0  0  0  0
 40 39  1  0  0  0  0
 41 40  1  0  0  0  0
 42 41  1  0  0  0  0
 43 42  1  0  0  0  0
 44 43  2  0  0  0  0
 45 47  1  0  0  0  0
 45 43  1  0  0  0  0
 45 46  1  0  0  0  0
 47 46  1  0  0  0  0
M  END
>  <MODEL>
9

>  <REMARK>
 VINA RESULT:      -5.2      1.705      2.166
  Name = 
  21 active torsions:
  status: ('A' for Active; 'I' for Inactive)
    1  A    between atoms: C_3  and  C_13
    2  A    between atoms: C_3  and  C_32
    3  A    between atoms: C_6  and  C_33
    4  A    between atoms: C_7  and  N_18
    5  A    between atoms: N_8  and  C_29
    6  A    between atoms: C_9  and  C_38
    7  A    between atoms: C_13  and  N_26
    8  A    between atoms: C_15  and  C_20
    9  A    between atoms: C_15  and  O_37
   10  A    between atoms: C_16  and  C_28
   11  A    between atoms: C_20  and  C_36
   12  A    between atoms: C_22  and  O_37
   13  A    between atoms: C_28  and  C_34
   14  A    between atoms: C_29  and  C_31
   15  A    between atoms: C_29  and  C_33
   16  A    between atoms: C_34  and  C_42
   17  A    between atoms: C_35  and  C_38
   18  A    between atoms: C_38  and  N_46
   19  A    between atoms: O_41  and  C_42
   20  A    between atoms: O_41  and  C_47
   21  A    between atoms: N_46  and  C_47
                            x       y       z     vdW  Elec       q    Type
                         _______ _______ _______ _____ _____    ______ ____

>  <TORSDO>
F 21

$$$$
