=
 OpenBabel11042417243D

 56 61  0  0  1  0  0  0  0  0999 V2000
  190.6870  174.1080  137.0090 O   0  0  0  0  0  1  0  0  0  0  0  0
  190.9790  177.7160  143.1840 C   0  0  0  0  0  3  0  0  0  0  0  0
  191.7240  173.9230  141.5770 O   0  0  0  0  0  0  0  0  0  0  0  0
  192.2630  172.3650  137.5300 C   0  0  1  0  0  3  0  0  0  0  0  0
  193.7130  172.1850  137.9700 C   0  0  0  0  0  2  0  0  0  0  0  0
  193.6550  173.5020  140.0960 C   0  0  1  0  0  3  0  0  0  0  0  0
  191.7820  173.7930  137.8150 C   0  0  2  0  0  3  0  0  0  0  0  0
  192.6080  176.0730  142.4110 C   0  0  0  0  0  0  0  0  0  0  0  0
  194.3180  173.5550  141.3860 N   0  0  0  0  0  2  0  0  0  0  0  0
  189.9290  176.8240  142.9500 C   0  0  0  0  0  0  0  0  0  0  0  0
  194.8230  174.7770  141.9180 C   0  0  0  0  0  0  0  0  0  0  0  0
  194.0670  175.8120  142.3150 C   0  0  0  0  0  3  0  0  0  0  0  0
  191.5390  175.1760  142.1440 C   0  0  0  0  0  0  0  0  0  0  0  0
  193.8460  172.1210  139.4870 C   0  0  0  0  0  2  0  0  0  0  0  0
  191.3710  173.9340  139.2490 C   0  0  0  0  0  3  0  0  0  0  0  0
  192.2970  177.3390  142.9240 C   0  0  0  0  0  3  0  0  0  0  0  0
  192.2080  173.7970  140.2800 C   0  0  0  0  0  0  0  0  0  0  0  0
  190.2230  175.5560  142.4330 C   0  0  0  0  0  3  0  0  0  0  0  0
  184.2520  178.5840  145.4660 C   0  0  0  0  0  3  0  0  0  0  0  0
  186.3160  177.8330  142.4750 C   0  0  0  0  0  3  0  0  0  0  0  0
  185.1860  178.3580  146.4840 C   0  0  0  0  0  3  0  0  0  0  0  0
  183.6640  178.6240  143.1330 O   0  0  0  0  0  1  0  0  0  0  0  0
  188.5350  177.2250  143.2340 C   0  0  0  0  0  0  0  0  0  0  0  0
  187.6250  177.4420  142.1880 C   0  0  0  0  0  3  0  0  0  0  0  0
  188.1260  177.4020  144.5220 N   0  0  0  0  0  0  0  0  0  0  0  0
  185.9160  178.0050  143.8040 C   0  0  0  0  0  0  0  0  0  0  0  0
  186.4860  177.9560  146.1680 C   0  0  0  0  0  3  0  0  0  0  0  0
  186.8570  177.7770  144.8340 C   0  0  0  0  0  0  0  0  0  0  0  0
  184.6100  178.4070  144.1270 C   0  0  0  0  0  0  0  0  0  0  0  0
  192.1730  172.0850  136.1610 O   0  0  0  0  0  0  0  0  0  0  0  0
  189.5280  171.3080  135.9530 O   0  0  0  0  0  1  0  0  0  0  0  0
  191.4600  169.9970  134.7730 O   0  0  0  0  0  0  0  0  0  0  0  0
  191.1270  170.7530  136.0410 P   0  0  1  0  0  0  0  0  0  0  0  0
  191.3600  169.7370  137.4010 O   0  0  0  0  0  0  0  0  0  0  0  0
  189.0700  169.4620  137.3110 F   0  0  0  0  0  0  0  0  0  0  0  0
  190.2250  168.6060  139.0710 F   0  0  0  0  0  0  0  0  0  0  0  0
  190.1630  169.6370  138.1460 C   0  0  0  0  0  0  0  0  0  0  0  0
  189.9850  170.8180  138.8390 F   0  0  0  0  0  0  0  0  0  0  0  0
  196.2950  174.8940  142.1070 C   0  0  0  0  0  2  0  0  0  0  0  0
  196.6010  175.4630  143.4820 C   0  0  0  0  0  2  0  0  0  0  0  0
  196.8360  174.3370  144.4720 C   0  0  0  0  0  2  0  0  0  0  0  0
  196.1810  174.6110  145.6730 O   0  0  0  0  0  0  0  0  0  0  0  0
  194.9850  173.9000  145.5890 C   0  0  0  0  0  2  0  0  0  0  0  0
  193.8200  174.8140  145.9370 C   0  0  0  0  0  2  0  0  0  0  0  0
  189.9720  172.8530  144.9980 C   0  0  0  0  0  2  0  0  0  0  0  0
  191.2200  174.8550  145.8490 C   0  0  0  0  0  0  0  0  0  0  0  0
  190.0640  174.2210  145.6210 C   0  0  0  0  0  3  0  0  0  0  0  0
  191.2990  172.3420  144.5140 C   0  0  0  0  0  0  0  0  0  0  0  0
  192.5440  173.0270  144.8800 C   0  0  0  0  0  3  0  0  0  0  0  0
  191.3470  171.2920  143.8240 O   0  0  0  0  0  0  0  0  0  0  0  0
  192.5200  174.2060  145.5100 C   0  0  0  0  0  0  0  0  0  0  0  0
  191.1660  176.1380  146.4860 N   0  0  0  0  0  2  0  0  0  0  0  0
  191.4600  175.4060  148.6900 O   0  0  0  0  0  0  0  0  0  0  0  0
  191.1460  176.3420  147.9060 C   0  0  0  0  0  0  0  0  0  0  0  0
  191.4420  178.0850  149.6170 C   0  0  0  0  0  1  0  0  0  0  0  0
  190.8250  177.5910  148.4350 O   0  0  0  0  0  0  0  0  0  0  0  0
  3 13  1  0  0  0  0
  4 30  1  6  0  0  0
  4  7  1  0  0  0  0
  4  5  1  0  0  0  0
  5 14  1  0  0  0  0
  6 14  1  1  0  0  0
  6 17  1  0  0  0  0
  6  9  1  0  0  0  0
  7  1  1  6  0  0  0
  7 15  1  0  0  0  0
  8 16  1  0  0  0  0
  9 11  1  0  0  0  0
 10  2  1  0  0  0  0
 10 23  1  0  0  0  0
 11 39  1  0  0  0  0
 11 12  2  0  0  0  0
 12  8  1  0  0  0  0
 13  8  2  0  0  0  0
 13 18  1  0  0  0  0
 15 17  2  0  0  0  0
 16  2  2  0  0  0  0
 17  3  1  0  0  0  0
 18 10  2  0  0  0  0
 19 21  1  0  0  0  0
 20 26  1  0  0  0  0
 22 29  1  0  0  0  0
 23 25  2  0  0  0  0
 24 20  2  0  0  0  0
 24 23  1  0  0  0  0
 25 28  1  0  0  0  0
 26 29  1  0  0  0  0
 26 28  2  0  0  0  0
 27 21  2  0  0  0  0
 28 27  1  0  0  0  0
 29 19  2  0  0  0  0
 31 33  1  0  0  0  0
 33 32  2  6  0  0  0
 33 30  1  0  0  0  0
 33 34  1  0  0  0  0
 34 37  1  0  0  0  0
 35 37  1  0  0  0  0
 37 38  1  0  0  0  0
 37 36  1  0  0  0  0
 39 40  1  0  0  0  0
 40 41  1  0  0  0  0
 41 42  1  0  0  0  0
 43 42  1  0  0  0  0
 43 44  1  0  0  0  0
 45 47  1  0  0  0  0
 46 52  1  0  0  0  0
 47 46  2  0  0  0  0
 48 49  1  0  0  0  0
 48 45  1  0  0  0  0
 49 51  2  0  0  0  0
 50 48  2  0  0  0  0
 51 46  1  0  0  0  0
 51 44  1  0  0  0  0
 52 54  1  0  0  0  0
 54 56  1  0  0  0  0
 54 53  2  0  0  0  0
 56 55  1  0  0  0  0
M  END
>  <MODEL>
1

>  <REMARK>
 VINA RESULT:      -7.6      0.000      0.000
  Name = 
  14 active torsions:
  status: ('A' for Active; 'I' for Inactive)
    1  A    between atoms: O_11  and  C_12
    2  A    between atoms: O_11  and  P_36
    3  A    between atoms: C_13  and  O_24
    4  A    between atoms: C_15  and  C_35
    5  A    between atoms: C_17  and  C_31
    6  A    between atoms: C_17  and  C_56
    7  A    between atoms: O_19  and  C_31
    8  A    between atoms: O_19  and  C_38
    9  A    between atoms: N_21  and  C_25
   10  A    between atoms: O_24  and  P_36
   11  A    between atoms: C_27  and  C_37
   12  A    between atoms: C_27  and  C_55
   13  A    between atoms: C_38  and  C_55
   14  A    between atoms: O_50  and  C_51
                            x       y       z     vdW  Elec       q    Type
                         _______ _______ _______ _____ _____    ______ ____

>  <TORSDO>
F 14

$$$$
=
 OpenBabel11042417243D

 56 61  0  0  1  0  0  0  0  0999 V2000
  186.2760  175.2780  142.8410 O   0  0  0  0  0  1  0  0  0  0  0  0
  192.4700  171.8790  141.6930 C   0  0  0  0  0  3  0  0  0  0  0  0
  190.9260  175.7010  142.4310 O   0  0  0  0  0  0  0  0  0  0  0  0
  187.1300  177.2230  143.9710 C   0  0  1  0  0  3  0  0  0  0  0  0
  187.9660  177.6010  145.1910 C   0  0  0  0  0  2  0  0  0  0  0  0
  190.0560  176.3370  144.6540 C   0  0  1  0  0  3  0  0  0  0  0  0
  187.3480  175.7510  143.5980 C   0  0  2  0  0  3  0  0  0  0  0  0
  192.1120  173.7030  143.2720 C   0  0  0  0  0  0  0  0  0  0  0  0
  191.4850  176.4000  144.9010 N   0  0  0  0  0  2  0  0  0  0  0  0
  191.8840  172.6220  140.6630 C   0  0  0  0  0  0  0  0  0  0  0  0
  192.2150  175.2670  145.3640 C   0  0  0  0  0  0  0  0  0  0  0  0
  192.4340  174.1510  144.6520 C   0  0  0  0  0  3  0  0  0  0  0  0
  191.4890  174.4470  142.2350 C   0  0  0  0  0  0  0  0  0  0  0  0
  189.4480  177.7160  144.8540 C   0  0  0  0  0  2  0  0  0  0  0  0
  188.6030  175.5900  142.7960 C   0  0  0  0  0  3  0  0  0  0  0  0
  192.5870  172.4200  142.9730 C   0  0  0  0  0  3  0  0  0  0  0  0
  189.8240  175.8590  143.2640 C   0  0  0  0  0  0  0  0  0  0  0  0
  191.4000  173.9050  140.9470 C   0  0  0  0  0  3  0  0  0  0  0  0
  190.2940  170.8980  134.6500 C   0  0  0  0  0  3  0  0  0  0  0  0
  192.6230  170.6410  137.5280 C   0  0  0  0  0  3  0  0  0  0  0  0
  189.3430  171.7820  135.1700 C   0  0  0  0  0  3  0  0  0  0  0  0
  192.3150  169.6130  134.8930 O   0  0  0  0  0  1  0  0  0  0  0  0
  191.7690  172.0480  139.3050 C   0  0  0  0  0  0  0  0  0  0  0  0
  192.7430  171.1630  138.8170 C   0  0  0  0  0  3  0  0  0  0  0  0
  190.7170  172.3890  138.5090 N   0  0  0  0  0  0  0  0  0  0  0  0
  191.5340  171.0010  136.7290 C   0  0  0  0  0  0  0  0  0  0  0  0
  189.4810  172.2800  136.4680 C   0  0  0  0  0  3  0  0  0  0  0  0
  190.5710  171.8930  137.2510 C   0  0  0  0  0  0  0  0  0  0  0  0
  191.3890  170.5030  135.4240 C   0  0  0  0  0  0  0  0  0  0  0  0
  185.7810  177.4580  144.2620 O   0  0  0  0  0  0  0  0  0  0  0  0
  183.6980  178.7530  142.9890 O   0  0  0  0  0  0  0  0  0  0  0  0
  185.6280  180.0580  144.1770 O   0  0  0  0  0  1  0  0  0  0  0  0
  185.3530  178.8230  143.3480 P   0  0  1  0  0  0  0  0  0  0  0  0
  186.2990  178.8570  141.9210 O   0  0  0  0  0  0  0  0  0  0  0  0
  184.8550  177.1620  141.3130 F   0  0  0  0  0  0  0  0  0  0  0  0
  184.7860  179.1370  140.1920 F   0  0  0  0  0  0  0  0  0  0  0  0
  185.6030  178.2370  140.8580 C   0  0  0  0  0  0  0  0  0  0  0  0
  186.5320  177.7580  139.9540 F   0  0  0  0  0  0  0  0  0  0  0  0
  192.8360  175.3480  146.7150 C   0  0  0  0  0  2  0  0  0  0  0  0
  193.7230  176.5780  146.8080 C   0  0  0  0  0  2  0  0  0  0  0  0
  195.0000  176.3610  146.0160 C   0  0  0  0  0  2  0  0  0  0  0  0
  194.9600  177.0980  144.8320 O   0  0  0  0  0  0  0  0  0  0  0  0
  195.9250  176.5050  144.0190 C   0  0  0  0  0  2  0  0  0  0  0  0
  195.2500  175.5930  143.0050 C   0  0  0  0  0  2  0  0  0  0  0  0
  196.6290  171.4000  143.2440 C   0  0  0  0  0  2  0  0  0  0  0  0
  195.8390  173.3340  141.8560 C   0  0  0  0  0  0  0  0  0  0  0  0
  196.1950  172.0480  141.9560 C   0  0  0  0  0  3  0  0  0  0  0  0
  196.7750  172.3830  144.3710 C   0  0  0  0  0  0  0  0  0  0  0  0
  196.2750  173.7570  144.2360 C   0  0  0  0  0  3  0  0  0  0  0  0
  197.2920  172.0140  145.4550 O   0  0  0  0  0  0  0  0  0  0  0  0
  195.8300  174.2130  143.0620 C   0  0  0  0  0  0  0  0  0  0  0  0
  195.4070  173.8120  140.5750 N   0  0  0  0  0  2  0  0  0  0  0  0
  197.4650  174.6500  139.8420 O   0  0  0  0  0  0  0  0  0  0  0  0
  196.2170  174.5820  139.6770 C   0  0  0  0  0  0  0  0  0  0  0  0
  194.2390  175.2100  138.3570 C   0  0  0  0  0  1  0  0  0  0  0  0
  195.6420  175.2280  138.5840 O   0  0  0  0  0  0  0  0  0  0  0  0
  2 16  1  0  0  0  0
  3 17  1  0  0  0  0
  4 30  1  1  0  0  0
  4  5  1  0  0  0  0
  6 14  1  6  0  0  0
  6  9  1  0  0  0  0
  7  1  1  6  0  0  0
  7  4  1  0  0  0  0
  8 12  1  0  0  0  0
  9 11  1  0  0  0  0
 10 18  1  0  0  0  0
 10  2  2  0  0  0  0
 11 39  1  0  0  0  0
 12 11  2  0  0  0  0
 13  3  1  0  0  0  0
 13  8  1  0  0  0  0
 14  5  1  0  0  0  0
 15 17  2  0  0  0  0
 15  7  1  0  0  0  0
 16  8  2  0  0  0  0
 17  6  1  0  0  0  0
 18 13  2  0  0  0  0
 19 21  2  0  0  0  0
 19 29  1  0  0  0  0
 20 24  2  0  0  0  0
 21 27  1  0  0  0  0
 22 29  1  0  0  0  0
 23 10  1  0  0  0  0
 24 23  1  0  0  0  0
 25 23  2  0  0  0  0
 26 28  1  0  0  0  0
 26 20  1  0  0  0  0
 27 28  2  0  0  0  0
 28 25  1  0  0  0  0
 29 26  2  0  0  0  0
 33 31  2  6  0  0  0
 33 32  1  0  0  0  0
 33 30  1  0  0  0  0
 34 33  1  0  0  0  0
 36 37  1  0  0  0  0
 37 35  1  0  0  0  0
 37 34  1  0  0  0  0
 38 37  1  0  0  0  0
 39 40  1  0  0  0  0
 41 40  1  0  0  0  0
 42 41  1  0  0  0  0
 43 42  1  0  0  0  0
 44 51  1  0  0  0  0
 44 43  1  0  0  0  0
 45 48  1  0  0  0  0
 46 47  2  0  0  0  0
 46 51  1  0  0  0  0
 47 45  1  0  0  0  0
 48 50  2  0  0  0  0
 49 48  1  0  0  0  0
 51 49  2  0  0  0  0
 52 46  1  0  0  0  0
 54 53  2  0  0  0  0
 54 52  1  0  0  0  0
 55 56  1  0  0  0  0
 56 54  1  0  0  0  0
M  END
>  <MODEL>
2

>  <REMARK>
 VINA RESULT:      -6.9      3.556      8.656
  Name = 
  14 active torsions:
  status: ('A' for Active; 'I' for Inactive)
    1  A    between atoms: O_11  and  C_12
    2  A    between atoms: O_11  and  P_36
    3  A    between atoms: C_13  and  O_24
    4  A    between atoms: C_15  and  C_35
    5  A    between atoms: C_17  and  C_31
    6  A    between atoms: C_17  and  C_56
    7  A    between atoms: O_19  and  C_31
    8  A    between atoms: O_19  and  C_38
    9  A    between atoms: N_21  and  C_25
   10  A    between atoms: O_24  and  P_36
   11  A    between atoms: C_27  and  C_37
   12  A    between atoms: C_27  and  C_55
   13  A    between atoms: C_38  and  C_55
   14  A    between atoms: O_50  and  C_51
                            x       y       z     vdW  Elec       q    Type
                         _______ _______ _______ _____ _____    ______ ____

>  <TORSDO>
F 14

$$$$
=
 OpenBabel11042417243D

 56 61  0  0  1  0  0  0  0  0999 V2000
  190.7950  174.1750  137.0020 O   0  0  0  0  0  1  0  0  0  0  0  0
  191.3960  177.3380  143.3950 C   0  0  0  0  0  3  0  0  0  0  0  0
  192.0600  173.6710  141.4880 O   0  0  0  0  0  0  0  0  0  0  0  0
  192.3950  172.4060  137.3180 C   0  0  1  0  0  3  0  0  0  0  0  0
  193.8660  172.2020  137.6710 C   0  0  0  0  0  2  0  0  0  0  0  0
  193.9150  173.3640  139.8850 C   0  0  1  0  0  3  0  0  0  0  0  0
  191.9280  173.8080  137.7280 C   0  0  2  0  0  3  0  0  0  0  0  0
  192.9840  175.7600  142.4270 C   0  0  0  0  0  0  0  0  0  0  0  0
  194.6410  173.3280  141.1410 N   0  0  0  0  0  2  0  0  0  0  0  0
  190.3350  176.4600  143.1520 C   0  0  0  0  0  0  0  0  0  0  0  0
  195.1720  174.5120  141.7320 C   0  0  0  0  0  0  0  0  0  0  0  0
  194.4370  175.5120  142.2390 C   0  0  0  0  0  3  0  0  0  0  0  0
  191.9040  174.8800  142.1510 C   0  0  0  0  0  0  0  0  0  0  0  0
  194.0750  172.0310  139.1710 C   0  0  0  0  0  2  0  0  0  0  0  0
  191.5900  173.8460  139.1870 C   0  0  0  0  0  3  0  0  0  0  0  0
  192.6980  176.9850  143.0430 C   0  0  0  0  0  3  0  0  0  0  0  0
  192.4790  173.6390  140.1620 C   0  0  0  0  0  0  0  0  0  0  0  0
  190.6040  175.2330  142.5320 C   0  0  0  0  0  3  0  0  0  0  0  0
  184.6890  177.6730  146.0340 C   0  0  0  0  0  3  0  0  0  0  0  0
  186.7980  177.7840  142.9820 C   0  0  0  0  0  3  0  0  0  0  0  0
  185.5790  177.0810  146.9370 C   0  0  0  0  0  3  0  0  0  0  0  0
  184.1740  178.4860  143.8280 O   0  0  0  0  0  1  0  0  0  0  0  0
  188.9570  176.8340  143.5330 C   0  0  0  0  0  0  0  0  0  0  0  0
  188.0920  177.4260  142.6000 C   0  0  0  0  0  3  0  0  0  0  0  0
  188.5200  176.6190  144.8060 N   0  0  0  0  0  0  0  0  0  0  0  0
  186.3680  177.5510  144.2920 C   0  0  0  0  0  0  0  0  0  0  0  0
  186.8650  176.7220  146.5250 C   0  0  0  0  0  3  0  0  0  0  0  0
  187.2640  176.9520  145.2060 C   0  0  0  0  0  0  0  0  0  0  0  0
  185.0770  177.9080  144.7120 C   0  0  0  0  0  0  0  0  0  0  0  0
  192.2360  172.2230  135.9390 O   0  0  0  0  0  0  0  0  0  0  0  0
  189.8910  171.0020  135.1320 O   0  0  0  0  0  1  0  0  0  0  0  0
  192.2300  169.8750  134.8070 O   0  0  0  0  0  0  0  0  0  0  0  0
  191.4390  170.7340  135.7700 P   0  0  1  0  0  0  0  0  0  0  0  0
  191.3580  169.9690  137.3010 O   0  0  0  0  0  0  0  0  0  0  0  0
  190.1800  170.1250  139.2790 F   0  0  0  0  0  0  0  0  0  0  0  0
  189.5730  171.4270  137.5180 F   0  0  0  0  0  0  0  0  0  0  0  0
  190.0980  170.2010  137.8970 C   0  0  0  0  0  0  0  0  0  0  0  0
  189.2280  169.2170  137.4680 F   0  0  0  0  0  0  0  0  0  0  0  0
  196.6510  174.6200  141.8540 C   0  0  0  0  0  2  0  0  0  0  0  0
  197.1350  173.8240  143.0540 C   0  0  0  0  0  2  0  0  0  0  0  0
  197.4790  174.7610  144.1980 C   0  0  0  0  0  2  0  0  0  0  0  0
  197.5270  174.0530  145.4000 O   0  0  0  0  0  0  0  0  0  0  0  0
  196.1930  173.9360  145.7890 C   0  0  0  0  0  2  0  0  0  0  0  0
  195.4850  175.2690  145.5960 C   0  0  0  0  0  2  0  0  0  0  0  0
  191.1800  175.1960  146.5950 C   0  0  0  0  0  2  0  0  0  0  0  0
  193.1700  174.0810  145.5520 C   0  0  0  0  0  0  0  0  0  0  0  0
  191.8560  174.1070  145.8050 C   0  0  0  0  0  3  0  0  0  0  0  0
  192.1530  176.1640  147.2050 C   0  0  0  0  0  0  0  0  0  0  0  0
  193.5680  176.1510  146.8130 C   0  0  0  0  0  3  0  0  0  0  0  0
  191.7440  177.0220  148.0270 O   0  0  0  0  0  0  0  0  0  0  0  0
  194.0560  175.1810  146.0350 C   0  0  0  0  0  0  0  0  0  0  0  0
  193.6770  173.0050  144.7520 N   0  0  0  0  0  2  0  0  0  0  0  0
  191.6500  171.8880  144.4090 O   0  0  0  0  0  0  0  0  0  0  0  0
  192.9080  171.8700  144.3310 C   0  0  0  0  0  0  0  0  0  0  0  0
  193.2240  170.2710  142.4890 C   0  0  0  0  0  1  0  0  0  0  0  0
  193.5390  170.7520  143.7890 O   0  0  0  0  0  0  0  0  0  0  0  0
  3 13  1  0  0  0  0
  4 30  1  6  0  0  0
  4  5  1  0  0  0  0
  4  7  1  0  0  0  0
  5 14  1  0  0  0  0
  6 14  1  1  0  0  0
  6 17  1  0  0  0  0
  6  9  1  0  0  0  0
  7  1  1  6  0  0  0
  7 15  1  0  0  0  0
  8 16  1  0  0  0  0
  9 11  1  0  0  0  0
 10  2  1  0  0  0  0
 10 23  1  0  0  0  0
 11 39  1  0  0  0  0
 11 12  2  0  0  0  0
 12  8  1  0  0  0  0
 13  8  2  0  0  0  0
 13 18  1  0  0  0  0
 15 17  2  0  0  0  0
 16  2  2  0  0  0  0
 17  3  1  0  0  0  0
 18 10  2  0  0  0  0
 19 21  1  0  0  0  0
 20 26  1  0  0  0  0
 22 29  1  0  0  0  0
 23 25  2  0  0  0  0
 24 20  2  0  0  0  0
 24 23  1  0  0  0  0
 25 28  1  0  0  0  0
 26 29  1  0  0  0  0
 26 28  2  0  0  0  0
 27 21  2  0  0  0  0
 28 27  1  0  0  0  0
 29 19  2  0  0  0  0
 31 33  1  0  0  0  0
 33 32  2  6  0  0  0
 33 30  1  0  0  0  0
 33 34  1  0  0  0  0
 34 37  1  0  0  0  0
 36 37  1  0  0  0  0
 37 35  1  0  0  0  0
 38 37  1  0  0  0  0
 39 40  1  0  0  0  0
 40 41  1  0  0  0  0
 41 42  1  0  0  0  0
 42 43  1  0  0  0  0
 44 43  1  0  0  0  0
 44 51  1  0  0  0  0
 45 48  1  0  0  0  0
 46 47  2  0  0  0  0
 46 51  1  0  0  0  0
 47 45  1  0  0  0  0
 48 50  2  0  0  0  0
 49 48  1  0  0  0  0
 51 49  2  0  0  0  0
 52 46  1  0  0  0  0
 54 53  2  0  0  0  0
 54 52  1  0  0  0  0
 55 56  1  0  0  0  0
 56 54  1  0  0  0  0
M  END
>  <MODEL>
3

>  <REMARK>
 VINA RESULT:      -6.6      1.092      2.782
  Name = 
  14 active torsions:
  status: ('A' for Active; 'I' for Inactive)
    1  A    between atoms: O_11  and  C_12
    2  A    between atoms: O_11  and  P_36
    3  A    between atoms: C_13  and  O_24
    4  A    between atoms: C_15  and  C_35
    5  A    between atoms: C_17  and  C_31
    6  A    between atoms: C_17  and  C_56
    7  A    between atoms: O_19  and  C_31
    8  A    between atoms: O_19  and  C_38
    9  A    between atoms: N_21  and  C_25
   10  A    between atoms: O_24  and  P_36
   11  A    between atoms: C_27  and  C_37
   12  A    between atoms: C_27  and  C_55
   13  A    between atoms: C_38  and  C_55
   14  A    between atoms: O_50  and  C_51
                            x       y       z     vdW  Elec       q    Type
                         _______ _______ _______ _____ _____    ______ ____

>  <TORSDO>
F 14

$$$$
=
 OpenBabel11042417243D

 56 61  0  0  1  0  0  0  0  0999 V2000
  190.3430  173.3140  137.2800 O   0  0  0  0  0  1  0  0  0  0  0  0
  190.5300  177.6560  142.9670 C   0  0  0  0  0  3  0  0  0  0  0  0
  191.2860  173.6910  141.8560 O   0  0  0  0  0  0  0  0  0  0  0  0
  191.8980  171.6440  138.0440 C   0  0  1  0  0  3  0  0  0  0  0  0
  193.3390  171.5160  138.5330 C   0  0  0  0  0  2  0  0  0  0  0  0
  193.2450  173.0840  140.4780 C   0  0  1  0  0  3  0  0  0  0  0  0
  191.4190  173.0970  138.1410 C   0  0  2  0  0  3  0  0  0  0  0  0
  192.1650  175.9250  142.4360 C   0  0  0  0  0  0  0  0  0  0  0  0
  193.8810  173.2950  141.7650 N   0  0  0  0  0  2  0  0  0  0  0  0
  189.4800  176.7440  142.8240 C   0  0  0  0  0  0  0  0  0  0  0  0
  194.3830  174.5720  142.1520 C   0  0  0  0  0  0  0  0  0  0  0  0
  193.6250  175.6500  142.4030 C   0  0  0  0  0  3  0  0  0  0  0  0
  191.0970  175.0050  142.2600 C   0  0  0  0  0  0  0  0  0  0  0  0
  193.4400  171.6390  140.0480 C   0  0  0  0  0  2  0  0  0  0  0  0
  190.9810  173.4150  139.5370 C   0  0  0  0  0  3  0  0  0  0  0  0
  191.8510  177.2450  142.7830 C   0  0  0  0  0  3  0  0  0  0  0  0
  191.7960  173.4040  140.5950 C   0  0  0  0  0  0  0  0  0  0  0  0
  189.7780  175.4220  142.4730 C   0  0  0  0  0  3  0  0  0  0  0  0
  183.7960  178.9370  144.9540 C   0  0  0  0  0  3  0  0  0  0  0  0
  185.8530  177.5900  142.1740 C   0  0  0  0  0  3  0  0  0  0  0  0
  184.7380  178.9430  145.9890 C   0  0  0  0  0  3  0  0  0  0  0  0
  183.1950  178.4740  142.6700 O   0  0  0  0  0  1  0  0  0  0  0  0
  188.0830  177.1820  143.0270 C   0  0  0  0  0  0  0  0  0  0  0  0
  187.1640  177.1620  141.9660 C   0  0  0  0  0  3  0  0  0  0  0  0
  187.6790  177.6240  144.2520 N   0  0  0  0  0  0  0  0  0  0  0  0
  185.4580  178.0360  143.4390 C   0  0  0  0  0  0  0  0  0  0  0  0
  186.0420  178.4970  145.7550 C   0  0  0  0  0  3  0  0  0  0  0  0
  186.4070  178.0420  144.4860 C   0  0  0  0  0  0  0  0  0  0  0  0
  184.1490  178.4840  143.6800 C   0  0  0  0  0  0  0  0  0  0  0  0
  191.8340  171.1970  136.7180 O   0  0  0  0  0  0  0  0  0  0  0  0
  190.8990  169.0970  138.2540 O   0  0  0  0  0  1  0  0  0  0  0  0
  190.8850  169.0230  135.6390 O   0  0  0  0  0  0  0  0  0  0  0  0
  191.7010  169.5080  136.8170 P   0  0  1  0  0  0  0  0  0  0  0  0
  193.2690  168.8210  136.7620 O   0  0  0  0  0  0  0  0  0  0  0  0
  193.0310  169.2830  134.5130 F   0  0  0  0  0  0  0  0  0  0  0  0
  194.6000  170.4020  135.7170 F   0  0  0  0  0  0  0  0  0  0  0  0
  193.9260  169.1990  135.5690 C   0  0  0  0  0  0  0  0  0  0  0  0
  194.8580  168.2270  135.2610 F   0  0  0  0  0  0  0  0  0  0  0  0
  195.8510  174.7060  142.3560 C   0  0  0  0  0  2  0  0  0  0  0  0
  196.1640  176.0250  143.0440 C   0  0  0  0  0  2  0  0  0  0  0  0
  196.0730  175.8610  144.5500 C   0  0  0  0  0  2  0  0  0  0  0  0
  195.7560  177.0830  145.1470 O   0  0  0  0  0  0  0  0  0  0  0  0
  194.3710  177.0460  145.3020 C   0  0  0  0  0  2  0  0  0  0  0  0
  194.0130  176.1860  146.5050 C   0  0  0  0  0  2  0  0  0  0  0  0
  189.7630  175.0780  146.0060 C   0  0  0  0  0  2  0  0  0  0  0  0
  192.1870  174.4550  145.8420 C   0  0  0  0  0  0  0  0  0  0  0  0
  190.8980  174.1610  145.6350 C   0  0  0  0  0  3  0  0  0  0  0  0
  190.2170  176.2860  146.7760 C   0  0  0  0  0  0  0  0  0  0  0  0
  191.6440  176.6110  146.8860 C   0  0  0  0  0  3  0  0  0  0  0  0
  189.3640  177.0480  147.2970 O   0  0  0  0  0  0  0  0  0  0  0  0
  192.5780  175.7620  146.4480 C   0  0  0  0  0  0  0  0  0  0  0  0
  193.1690  173.5080  145.4030 N   0  0  0  0  0  2  0  0  0  0  0  0
  191.7010  171.9540  144.4510 O   0  0  0  0  0  0  0  0  0  0  0  0
  192.8680  172.2200  144.8470 C   0  0  0  0  0  0  0  0  0  0  0  0
  194.7470  170.9240  145.7620 C   0  0  0  0  0  1  0  0  0  0  0  0
  193.8710  171.2640  144.6960 O   0  0  0  0  0  0  0  0  0  0  0  0
  3 13  1  0  0  0  0
  4 30  1  6  0  0  0
  4  7  1  0  0  0  0
  4  5  1  0  0  0  0
  5 14  1  0  0  0  0
  6 14  1  1  0  0  0
  6 17  1  0  0  0  0
  6  9  1  0  0  0  0
  7  1  1  6  0  0  0
  7 15  1  0  0  0  0
  8 16  1  0  0  0  0
  9 11  1  0  0  0  0
 10  2  1  0  0  0  0
 10 23  1  0  0  0  0
 11 39  1  0  0  0  0
 11 12  2  0  0  0  0
 12  8  1  0  0  0  0
 13  8  2  0  0  0  0
 13 18  1  0  0  0  0
 15 17  2  0  0  0  0
 16  2  2  0  0  0  0
 17  3  1  0  0  0  0
 18 10  2  0  0  0  0
 19 21  1  0  0  0  0
 20 26  1  0  0  0  0
 22 29  1  0  0  0  0
 23 25  2  0  0  0  0
 24 20  2  0  0  0  0
 24 23  1  0  0  0  0
 25 28  1  0  0  0  0
 26 29  1  0  0  0  0
 26 28  2  0  0  0  0
 27 21  2  0  0  0  0
 28 27  1  0  0  0  0
 29 19  2  0  0  0  0
 30 33  1  0  0  0  0
 33 32  2  6  0  0  0
 33 31  1  0  0  0  0
 34 33  1  0  0  0  0
 35 37  1  0  0  0  0
 37 36  1  0  0  0  0
 37 34  1  0  0  0  0
 38 37  1  0  0  0  0
 39 40  1  0  0  0  0
 40 41  1  0  0  0  0
 41 42  1  0  0  0  0
 42 43  1  0  0  0  0
 43 44  1  0  0  0  0
 45 48  1  0  0  0  0
 46 51  1  0  0  0  0
 47 46  2  0  0  0  0
 47 45  1  0  0  0  0
 48 49  1  0  0  0  0
 48 50  2  0  0  0  0
 51 44  1  0  0  0  0
 51 49  2  0  0  0  0
 52 46  1  0  0  0  0
 53 54  2  0  0  0  0
 54 52  1  0  0  0  0
 56 54  1  0  0  0  0
 56 55  1  0  0  0  0
M  END
>  <MODEL>
4

>  <REMARK>
 VINA RESULT:      -6.4      1.838      2.963
  Name = 
  14 active torsions:
  status: ('A' for Active; 'I' for Inactive)
    1  A    between atoms: O_11  and  C_12
    2  A    between atoms: O_11  and  P_36
    3  A    between atoms: C_13  and  O_24
    4  A    between atoms: C_15  and  C_35
    5  A    between atoms: C_17  and  C_31
    6  A    between atoms: C_17  and  C_56
    7  A    between atoms: O_19  and  C_31
    8  A    between atoms: O_19  and  C_38
    9  A    between atoms: N_21  and  C_25
   10  A    between atoms: O_24  and  P_36
   11  A    between atoms: C_27  and  C_37
   12  A    between atoms: C_27  and  C_55
   13  A    between atoms: C_38  and  C_55
   14  A    between atoms: O_50  and  C_51
                            x       y       z     vdW  Elec       q    Type
                         _______ _______ _______ _____ _____    ______ ____

>  <TORSDO>
F 14

$$$$
=
 OpenBabel11042417243D

 56 61  0  0  1  0  0  0  0  0999 V2000
  186.8380  174.5260  141.9110 O   0  0  0  0  0  1  0  0  0  0  0  0
  193.3870  171.6420  141.7150 C   0  0  0  0  0  3  0  0  0  0  0  0
  191.4500  175.3260  142.1760 O   0  0  0  0  0  0  0  0  0  0  0  0
  187.3600  176.5350  143.1300 C   0  0  1  0  0  3  0  0  0  0  0  0
  187.9770  176.9800  144.4540 C   0  0  0  0  0  2  0  0  0  0  0  0
  190.2170  175.8890  144.2410 C   0  0  1  0  0  3  0  0  0  0  0  0
  187.7470  175.0860  142.8110 C   0  0  2  0  0  3  0  0  0  0  0  0
  192.6570  173.4310  143.2030 C   0  0  0  0  0  0  0  0  0  0  0  0
  191.5850  176.0680  144.6910 N   0  0  0  0  0  2  0  0  0  0  0  0
  192.8990  172.3340  140.6020 C   0  0  0  0  0  0  0  0  0  0  0  0
  192.3290  174.9980  145.2690 C   0  0  0  0  0  0  0  0  0  0  0  0
  192.7380  173.9040  144.6100 C   0  0  0  0  0  3  0  0  0  0  0  0
  192.1340  174.1220  142.0780 C   0  0  0  0  0  0  0  0  0  0  0  0
  189.4770  177.2150  144.3340 C   0  0  0  0  0  2  0  0  0  0  0  0
  189.1140  175.0270  142.2010 C   0  0  0  0  0  3  0  0  0  0  0  0
  193.2710  172.1910  142.9920 C   0  0  0  0  0  3  0  0  0  0  0  0
  190.2290  175.3940  142.8380 C   0  0  0  0  0  0  0  0  0  0  0  0
  192.2770  173.5740  140.7980 C   0  0  0  0  0  3  0  0  0  0  0  0
  192.2150  170.2490  134.5320 C   0  0  0  0  0  3  0  0  0  0  0  0
  194.3430  170.6370  137.5480 C   0  0  0  0  0  3  0  0  0  0  0  0
  191.0280  170.8380  134.9810 C   0  0  0  0  0  3  0  0  0  0  0  0
  194.4910  169.5680  134.9160 O   0  0  0  0  0  1  0  0  0  0  0  0
  193.0290  171.7530  139.2490 C   0  0  0  0  0  0  0  0  0  0  0  0
  194.2350  171.1690  138.8330 C   0  0  0  0  0  3  0  0  0  0  0  0
  191.9740  171.7940  138.3860 N   0  0  0  0  0  0  0  0  0  0  0  0
  193.2480  170.6850  136.6790 C   0  0  0  0  0  0  0  0  0  0  0  0
  190.9440  171.3530  136.2770 C   0  0  0  0  0  3  0  0  0  0  0  0
  192.0470  171.2780  137.1300 C   0  0  0  0  0  0  0  0  0  0  0  0
  193.3260  170.1680  135.3760 C   0  0  0  0  0  0  0  0  0  0  0  0
  185.9680  176.6600  143.2200 O   0  0  0  0  0  0  0  0  0  0  0  0
  186.3020  177.6250  140.6510 O   0  0  0  0  0  0  0  0  0  0  0  0
  184.0550  177.9040  141.9610 O   0  0  0  0  0  1  0  0  0  0  0  0
  185.5570  177.9090  142.1470 P   0  0  1  0  0  0  0  0  0  0  0  0
  186.0550  179.4050  142.8170 O   0  0  0  0  0  0  0  0  0  0  0  0
  183.9770  179.4280  143.8220 F   0  0  0  0  0  0  0  0  0  0  0  0
  185.8110  178.9400  145.0720 F   0  0  0  0  0  0  0  0  0  0  0  0
  185.3300  179.6760  144.0000 C   0  0  0  0  0  0  0  0  0  0  0  0
  185.4820  181.0150  144.3030 F   0  0  0  0  0  0  0  0  0  0  0  0
  192.7370  175.1300  146.6940 C   0  0  0  0  0  2  0  0  0  0  0  0
  193.5320  176.4100  146.8930 C   0  0  0  0  0  2  0  0  0  0  0  0
  194.7300  176.4300  145.9620 C   0  0  0  0  0  2  0  0  0  0  0  0
  195.5140  175.2930  146.1660 O   0  0  0  0  0  0  0  0  0  0  0  0
  196.1160  175.0580  144.9310 C   0  0  0  0  0  2  0  0  0  0  0  0
  197.3350  174.1670  145.1160 C   0  0  0  0  0  2  0  0  0  0  0  0
  196.0240  170.0640  144.1290 C   0  0  0  0  0  2  0  0  0  0  0  0
  197.2400  172.1560  143.4690 C   0  0  0  0  0  0  0  0  0  0  0  0
  196.7780  170.9380  143.1620 C   0  0  0  0  0  3  0  0  0  0  0  0
  195.9830  170.6320  145.5190 C   0  0  0  0  0  0  0  0  0  0  0  0
  196.4120  172.0120  145.7770 C   0  0  0  0  0  3  0  0  0  0  0  0
  195.5370  169.9330  146.4640 O   0  0  0  0  0  0  0  0  0  0  0  0
  197.0000  172.7380  144.8220 C   0  0  0  0  0  0  0  0  0  0  0  0
  197.9050  172.8990  142.4390 N   0  0  0  0  0  2  0  0  0  0  0  0
  196.0210  173.9700  141.5570 O   0  0  0  0  0  0  0  0  0  0  0  0
  197.2390  173.6700  141.4300 C   0  0  0  0  0  0  0  0  0  0  0  0
  197.3750  175.0780  139.4170 C   0  0  0  0  0  1  0  0  0  0  0  0
  197.9410  174.1360  140.3200 O   0  0  0  0  0  0  0  0  0  0  0  0
  2 16  1  0  0  0  0
  3 17  1  0  0  0  0
  4 30  1  1  0  0  0
  4  5  1  0  0  0  0
  6 14  1  6  0  0  0
  6  9  1  0  0  0  0
  7  1  1  6  0  0  0
  7  4  1  0  0  0  0
  8 12  1  0  0  0  0
  9 11  1  0  0  0  0
 10 18  1  0  0  0  0
 10  2  2  0  0  0  0
 11 39  1  0  0  0  0
 12 11  2  0  0  0  0
 13  3  1  0  0  0  0
 13  8  1  0  0  0  0
 14  5  1  0  0  0  0
 15  7  1  0  0  0  0
 15 17  2  0  0  0  0
 16  8  2  0  0  0  0
 17  6  1  0  0  0  0
 18 13  2  0  0  0  0
 19 21  2  0  0  0  0
 19 29  1  0  0  0  0
 20 24  2  0  0  0  0
 21 27  1  0  0  0  0
 22 29  1  0  0  0  0
 23 10  1  0  0  0  0
 24 23  1  0  0  0  0
 25 23  2  0  0  0  0
 26 28  1  0  0  0  0
 26 20  1  0  0  0  0
 27 28  2  0  0  0  0
 28 25  1  0  0  0  0
 29 26  2  0  0  0  0
 32 33  1  0  0  0  0
 33 31  2  6  0  0  0
 33 34  1  0  0  0  0
 33 30  1  0  0  0  0
 34 37  1  0  0  0  0
 35 37  1  0  0  0  0
 37 38  1  0  0  0  0
 37 36  1  0  0  0  0
 39 40  1  0  0  0  0
 41 42  1  0  0  0  0
 41 40  1  0  0  0  0
 43 44  1  0  0  0  0
 43 42  1  0  0  0  0
 45 48  1  0  0  0  0
 46 51  1  0  0  0  0
 47 46  2  0  0  0  0
 47 45  1  0  0  0  0
 48 49  1  0  0  0  0
 48 50  2  0  0  0  0
 51 44  1  0  0  0  0
 51 49  2  0  0  0  0
 52 46  1  0  0  0  0
 54 53  2  0  0  0  0
 54 52  1  0  0  0  0
 55 56  1  0  0  0  0
 56 54  1  0  0  0  0
M  END
>  <MODEL>
5

>  <REMARK>
 VINA RESULT:      -6.3      4.043      8.930
  Name = 
  14 active torsions:
  status: ('A' for Active; 'I' for Inactive)
    1  A    between atoms: O_11  and  C_12
    2  A    between atoms: O_11  and  P_36
    3  A    between atoms: C_13  and  O_24
    4  A    between atoms: C_15  and  C_35
    5  A    between atoms: C_17  and  C_31
    6  A    between atoms: C_17  and  C_56
    7  A    between atoms: O_19  and  C_31
    8  A    between atoms: O_19  and  C_38
    9  A    between atoms: N_21  and  C_25
   10  A    between atoms: O_24  and  P_36
   11  A    between atoms: C_27  and  C_37
   12  A    between atoms: C_27  and  C_55
   13  A    between atoms: C_38  and  C_55
   14  A    between atoms: O_50  and  C_51
                            x       y       z     vdW  Elec       q    Type
                         _______ _______ _______ _____ _____    ______ ____

>  <TORSDO>
F 14

$$$$
=
 OpenBabel11042417243D

 56 61  0  0  1  0  0  0  0  0999 V2000
  185.8840  176.7400  140.9940 O   0  0  0  0  0  1  0  0  0  0  0  0
  190.2340  171.1400  141.9750 C   0  0  0  0  0  3  0  0  0  0  0  0
  190.1110  175.3020  142.4200 O   0  0  0  0  0  0  0  0  0  0  0  0
  186.9110  178.2750  142.5370 C   0  0  1  0  0  3  0  0  0  0  0  0
  187.2880  178.3810  144.0120 C   0  0  0  0  0  2  0  0  0  0  0  0
  188.7680  176.3740  144.1950 C   0  0  1  0  0  3  0  0  0  0  0  0
  186.6740  176.8120  142.1410 C   0  0  2  0  0  3  0  0  0  0  0  0
  190.0220  173.0630  143.4610 C   0  0  0  0  0  0  0  0  0  0  0  0
  189.8980  175.8960  144.9700 N   0  0  0  0  0  2  0  0  0  0  0  0
  190.4200  171.9800  140.8730 C   0  0  0  0  0  0  0  0  0  0  0  0
  189.9010  174.6030  145.5700 C   0  0  0  0  0  0  0  0  0  0  0  0
  189.9330  173.4440  144.8940 C   0  0  0  0  0  3  0  0  0  0  0  0
  190.1810  173.9180  142.3380 C   0  0  0  0  0  0  0  0  0  0  0  0
  188.7070  177.8910  144.2750 C   0  0  0  0  0  2  0  0  0  0  0  0
  187.9760  176.1240  141.8640 C   0  0  0  0  0  3  0  0  0  0  0  0
  190.0460  171.6790  143.2480 C   0  0  0  0  0  3  0  0  0  0  0  0
  188.9260  175.9300  142.7830 C   0  0  0  0  0  0  0  0  0  0  0  0
  190.3940  173.3660  141.0690 C   0  0  0  0  0  3  0  0  0  0  0  0
  190.8230  170.6410  134.5720 C   0  0  0  0  0  3  0  0  0  0  0  0
  191.4180  169.6220  138.0900 C   0  0  0  0  0  3  0  0  0  0  0  0
  190.2350  171.8960  134.7660 C   0  0  0  0  0  3  0  0  0  0  0  0
  191.7870  168.6200  135.4540 O   0  0  0  0  0  1  0  0  0  0  0  0
  190.6260  171.4050  139.5260 C   0  0  0  0  0  0  0  0  0  0  0  0
  191.2200  170.1430  139.3700 C   0  0  0  0  0  3  0  0  0  0  0  0
  190.2530  172.1090  138.4210 N   0  0  0  0  0  0  0  0  0  0  0  0
  191.0230  170.3580  136.9700 C   0  0  0  0  0  0  0  0  0  0  0  0
  190.0380  172.3880  136.0590 C   0  0  0  0  0  3  0  0  0  0  0  0
  190.4270  171.6260  137.1620 C   0  0  0  0  0  0  0  0  0  0  0  0
  191.2160  169.8680  135.6680 C   0  0  0  0  0  0  0  0  0  0  0  0
  185.7540  179.0330  142.3150 O   0  0  0  0  0  0  0  0  0  0  0  0
  185.1970  180.4570  144.6170 O   0  0  0  0  0  1  0  0  0  0  0  0
  183.4300  178.8940  143.4860 O   0  0  0  0  0  0  0  0  0  0  0  0
  184.9090  179.0070  143.7860 P   0  0  1  0  0  0  0  0  0  0  0  0
  185.4220  177.6530  144.7010 O   0  0  0  0  0  0  0  0  0  0  0  0
  185.7760  178.4160  146.8500 F   0  0  0  0  0  0  0  0  0  0  0  0
  183.6550  178.3190  146.0400 F   0  0  0  0  0  0  0  0  0  0  0  0
  184.9090  177.7270  146.0160 C   0  0  0  0  0  0  0  0  0  0  0  0
  184.7800  176.4410  146.5030 F   0  0  0  0  0  0  0  0  0  0  0  0
  189.9340  174.5290  147.0560 C   0  0  0  0  0  2  0  0  0  0  0  0
  190.8710  175.5890  147.6100 C   0  0  0  0  0  2  0  0  0  0  0  0
  192.3090  175.2470  147.2620 C   0  0  0  0  0  2  0  0  0  0  0  0
  192.8870  176.2900  146.5380 O   0  0  0  0  0  0  0  0  0  0  0  0
  193.9460  175.6950  145.8540 C   0  0  0  0  0  2  0  0  0  0  0  0
  193.4050  174.7030  144.8360 C   0  0  0  0  0  2  0  0  0  0  0  0
  195.8280  171.0520  144.2600 C   0  0  0  0  0  2  0  0  0  0  0  0
  195.4250  173.4740  143.7510 C   0  0  0  0  0  0  0  0  0  0  0  0
  196.1080  172.3430  143.5380 C   0  0  0  0  0  3  0  0  0  0  0  0
  194.8130  171.2050  145.3570 C   0  0  0  0  0  0  0  0  0  0  0  0
  194.0240  172.4370  145.4810 C   0  0  0  0  0  3  0  0  0  0  0  0
  194.6080  170.2530  146.1520 O   0  0  0  0  0  0  0  0  0  0  0  0
  194.2990  173.5070  144.7300 C   0  0  0  0  0  0  0  0  0  0  0  0
  195.7690  174.6220  142.9630 N   0  0  0  0  0  2  0  0  0  0  0  0
  194.1780  174.3290  141.2730 O   0  0  0  0  0  0  0  0  0  0  0  0
  195.2160  174.9200  141.6740 C   0  0  0  0  0  0  0  0  0  0  0  0
  197.0750  175.7210  140.2760 C   0  0  0  0  0  1  0  0  0  0  0  0
  195.7950  175.8990  140.8670 O   0  0  0  0  0  0  0  0  0  0  0  0
  2 16  1  0  0  0  0
  3 17  1  0  0  0  0
  4 30  1  1  0  0  0
  4  5  1  0  0  0  0
  5 14  1  0  0  0  0
  6 14  1  6  0  0  0
  6  9  1  0  0  0  0
  7  1  1  6  0  0  0
  7  4  1  0  0  0  0
  8 12  1  0  0  0  0
  9 11  1  0  0  0  0
 10 18  1  0  0  0  0
 10  2  2  0  0  0  0
 11 39  1  0  0  0  0
 12 11  2  0  0  0  0
 13  3  1  0  0  0  0
 13  8  1  0  0  0  0
 15  7  1  0  0  0  0
 15 17  2  0  0  0  0
 16  8  2  0  0  0  0
 17  6  1  0  0  0  0
 18 13  2  0  0  0  0
 19 21  2  0  0  0  0
 19 29  1  0  0  0  0
 20 24  2  0  0  0  0
 21 27  1  0  0  0  0
 22 29  1  0  0  0  0
 23 10  1  0  0  0  0
 24 23  1  0  0  0  0
 25 23  2  0  0  0  0
 26 28  1  0  0  0  0
 26 20  1  0  0  0  0
 27 28  2  0  0  0  0
 28 25  1  0  0  0  0
 29 26  2  0  0  0  0
 30 33  1  0  0  0  0
 33 32  2  6  0  0  0
 33 31  1  0  0  0  0
 33 34  1  0  0  0  0
 34 37  1  0  0  0  0
 37 36  1  0  0  0  0
 37 38  1  0  0  0  0
 37 35  1  0  0  0  0
 39 40  1  0  0  0  0
 41 40  1  0  0  0  0
 42 41  1  0  0  0  0
 43 42  1  0  0  0  0
 44 43  1  0  0  0  0
 45 48  1  0  0  0  0
 46 51  1  0  0  0  0
 47 46  2  0  0  0  0
 47 45  1  0  0  0  0
 48 49  1  0  0  0  0
 48 50  2  0  0  0  0
 51 44  1  0  0  0  0
 51 49  2  0  0  0  0
 52 46  1  0  0  0  0
 53 54  2  0  0  0  0
 54 52  1  0  0  0  0
 55 56  1  0  0  0  0
 56 54  1  0  0  0  0
M  END
>  <MODEL>
6

>  <REMARK>
 VINA RESULT:      -6.0      3.898      8.889
  Name = 
  14 active torsions:
  status: ('A' for Active; 'I' for Inactive)
    1  A    between atoms: O_11  and  C_12
    2  A    between atoms: O_11  and  P_36
    3  A    between atoms: C_13  and  O_24
    4  A    between atoms: C_15  and  C_35
    5  A    between atoms: C_17  and  C_31
    6  A    between atoms: C_17  and  C_56
    7  A    between atoms: O_19  and  C_31
    8  A    between atoms: O_19  and  C_38
    9  A    between atoms: N_21  and  C_25
   10  A    between atoms: O_24  and  P_36
   11  A    between atoms: C_27  and  C_37
   12  A    between atoms: C_27  and  C_55
   13  A    between atoms: C_38  and  C_55
   14  A    between atoms: O_50  and  C_51
                            x       y       z     vdW  Elec       q    Type
                         _______ _______ _______ _____ _____    ______ ____

>  <TORSDO>
F 14

$$$$
=
 OpenBabel11042417243D

 56 61  0  0  1  0  0  0  0  0999 V2000
  189.5410  173.6440  138.3540 O   0  0  0  0  0  1  0  0  0  0  0  0
  191.1520  178.0910  143.7260 C   0  0  0  0  0  3  0  0  0  0  0  0
  191.9880  174.2410  142.3070 O   0  0  0  0  0  0  0  0  0  0  0  0
  191.4750  172.2160  138.4690 C   0  0  1  0  0  3  0  0  0  0  0  0
  192.9980  172.2940  138.4110 C   0  0  0  0  0  2  0  0  0  0  0  0
  193.3920  173.8760  140.3070 C   0  0  1  0  0  3  0  0  0  0  0  0
  190.8720  173.5930  138.7710 C   0  0  2  0  0  3  0  0  0  0  0  0
  192.7080  176.5860  142.6010 C   0  0  0  0  0  0  0  0  0  0  0  0
  194.4100  174.1980  141.2910 N   0  0  0  0  0  2  0  0  0  0  0  0
  190.2520  177.0420  143.9390 C   0  0  0  0  0  0  0  0  0  0  0  0
  194.8400  175.5390  141.5110 C   0  0  0  0  0  0  0  0  0  0  0  0
  194.0840  176.5100  142.0450 C   0  0  0  0  0  3  0  0  0  0  0  0
  191.7810  175.5260  142.7890 C   0  0  0  0  0  0  0  0  0  0  0  0
  193.6140  172.4620  139.7950 C   0  0  0  0  0  2  0  0  0  0  0  0
  190.9190  173.8780  140.2410 C   0  0  0  0  0  3  0  0  0  0  0  0
  192.3630  177.8580  143.0740 C   0  0  0  0  0  3  0  0  0  0  0  0
  192.0510  174.0000  140.9390 C   0  0  0  0  0  0  0  0  0  0  0  0
  190.5800  175.7650  143.4670 C   0  0  0  0  0  3  0  0  0  0  0  0
  184.3260  178.7450  145.8460 C   0  0  0  0  0  3  0  0  0  0  0  0
  187.5270  177.0090  146.5600 C   0  0  0  0  0  3  0  0  0  0  0  0
  184.5870  179.2440  144.5650 C   0  0  0  0  0  3  0  0  0  0  0  0
  185.0220  177.5290  147.8030 O   0  0  0  0  0  1  0  0  0  0  0  0
  188.9730  177.2910  144.6370 C   0  0  0  0  0  0  0  0  0  0  0  0
  188.7460  176.7750  145.9220 C   0  0  0  0  0  3  0  0  0  0  0  0
  187.9930  178.0160  144.0260 N   0  0  0  0  0  0  0  0  0  0  0  0
  186.5370  177.7580  145.9180 C   0  0  0  0  0  0  0  0  0  0  0  0
  185.8200  179.0040  143.9550 C   0  0  0  0  0  3  0  0  0  0  0  0
  186.7980  178.2650  144.6240 C   0  0  0  0  0  0  0  0  0  0  0  0
  185.2960  178.0050  146.5270 C   0  0  0  0  0  0  0  0  0  0  0  0
  191.0050  171.7370  137.2400 O   0  0  0  0  0  0  0  0  0  0  0  0
  190.5050  169.8230  139.1720 O   0  0  0  0  0  1  0  0  0  0  0  0
  189.3100  169.7960  136.8450 O   0  0  0  0  0  0  0  0  0  0  0  0
  190.6370  170.1000  137.5040 P   0  0  1  0  0  0  0  0  0  0  0  0
  191.8690  169.1340  136.8080 O   0  0  0  0  0  0  0  0  0  0  0  0
  192.6510  168.4580  134.7450 F   0  0  0  0  0  0  0  0  0  0  0  0
  190.8840  169.8830  134.8520 F   0  0  0  0  0  0  0  0  0  0  0  0
  192.0700  169.4970  135.4570 C   0  0  0  0  0  0  0  0  0  0  0  0
  192.9340  170.5730  135.4220 F   0  0  0  0  0  0  0  0  0  0  0  0
  196.2530  175.8750  141.1850 C   0  0  0  0  0  2  0  0  0  0  0  0
  197.1500  174.6780  141.4530 C   0  0  0  0  0  2  0  0  0  0  0  0
  197.8090  174.8160  142.8140 C   0  0  0  0  0  2  0  0  0  0  0  0
  197.1520  174.0120  143.7480 O   0  0  0  0  0  0  0  0  0  0  0  0
  197.9400  174.0970  144.8950 C   0  0  0  0  0  2  0  0  0  0  0  0
  197.2410  173.3930  146.0490 C   0  0  0  0  0  2  0  0  0  0  0  0
  192.9040  173.7340  145.2700 C   0  0  0  0  0  2  0  0  0  0  0  0
  194.9580  172.3050  145.4380 C   0  0  0  0  0  0  0  0  0  0  0  0
  193.6600  172.4380  145.1410 C   0  0  0  0  0  3  0  0  0  0  0  0
  193.7150  174.8200  145.9160 C   0  0  0  0  0  0  0  0  0  0  0  0
  195.1580  174.6540  146.1270 C   0  0  0  0  0  3  0  0  0  0  0  0
  193.1600  175.9010  146.2420 O   0  0  0  0  0  0  0  0  0  0  0  0
  195.7530  173.4790  145.9020 C   0  0  0  0  0  0  0  0  0  0  0  0
  195.5640  171.0220  145.2300 N   0  0  0  0  0  2  0  0  0  0  0  0
  194.6140  169.9250  147.0650 O   0  0  0  0  0  0  0  0  0  0  0  0
  195.4730  169.9200  146.1430 C   0  0  0  0  0  0  0  0  0  0  0  0
  197.5570  168.7190  146.6620 C   0  0  0  0  0  1  0  0  0  0  0  0
  196.3040  168.8100  145.9960 O   0  0  0  0  0  0  0  0  0  0  0  0
  2 10  1  0  0  0  0
  3 13  1  0  0  0  0
  4 30  1  6  0  0  0
  4  7  1  0  0  0  0
  5  4  1  0  0  0  0
  5 14  1  0  0  0  0
  6 14  1  1  0  0  0
  6 17  1  0  0  0  0
  6  9  1  0  0  0  0
  7  1  1  1  0  0  0
  7 15  1  0  0  0  0
  8 13  2  0  0  0  0
  8 16  1  0  0  0  0
  9 11  1  0  0  0  0
 10 23  1  0  0  0  0
 11 12  2  0  0  0  0
 12  8  1  0  0  0  0
 13 18  1  0  0  0  0
 15 17  2  0  0  0  0
 16  2  2  0  0  0  0
 17  3  1  0  0  0  0
 18 10  2  0  0  0  0
 19 29  1  0  0  0  0
 21 19  2  0  0  0  0
 23 24  1  0  0  0  0
 24 20  2  0  0  0  0
 25 28  1  0  0  0  0
 25 23  2  0  0  0  0
 26 29  2  0  0  0  0
 26 20  1  0  0  0  0
 27 21  1  0  0  0  0
 27 28  2  0  0  0  0
 28 26  1  0  0  0  0
 29 22  1  0  0  0  0
 30 33  1  0  0  0  0
 33 32  2  6  0  0  0
 33 31  1  0  0  0  0
 34 33  1  0  0  0  0
 35 37  1  0  0  0  0
 36 37  1  0  0  0  0
 37 34  1  0  0  0  0
 38 37  1  0  0  0  0
 39 40  1  0  0  0  0
 39 11  1  0  0  0  0
 40 41  1  0  0  0  0
 41 42  1  0  0  0  0
 42 43  1  0  0  0  0
 43 44  1  0  0  0  0
 45 48  1  0  0  0  0
 46 51  1  0  0  0  0
 47 45  1  0  0  0  0
 47 46  2  0  0  0  0
 48 49  1  0  0  0  0
 48 50  2  0  0  0  0
 51 44  1  0  0  0  0
 51 49  2  0  0  0  0
 52 46  1  0  0  0  0
 52 54  1  0  0  0  0
 54 53  2  0  0  0  0
 56 54  1  0  0  0  0
 56 55  1  0  0  0  0
M  END
>  <MODEL>
7

>  <REMARK>
 VINA RESULT:      -5.9      2.270      3.667
  Name = 
  14 active torsions:
  status: ('A' for Active; 'I' for Inactive)
    1  A    between atoms: O_11  and  C_12
    2  A    between atoms: O_11  and  P_36
    3  A    between atoms: C_13  and  O_24
    4  A    between atoms: C_15  and  C_35
    5  A    between atoms: C_17  and  C_31
    6  A    between atoms: C_17  and  C_56
    7  A    between atoms: O_19  and  C_31
    8  A    between atoms: O_19  and  C_38
    9  A    between atoms: N_21  and  C_25
   10  A    between atoms: O_24  and  P_36
   11  A    between atoms: C_27  and  C_37
   12  A    between atoms: C_27  and  C_55
   13  A    between atoms: C_38  and  C_55
   14  A    between atoms: O_50  and  C_51
                            x       y       z     vdW  Elec       q    Type
                         _______ _______ _______ _____ _____    ______ ____

>  <TORSDO>
F 14

$$$$
=
 OpenBabel11042417243D

 56 61  0  0  1  0  0  0  0  0999 V2000
  189.7920  173.1740  138.0280 O   0  0  0  0  0  1  0  0  0  0  0  0
  190.7360  177.9920  143.2370 C   0  0  0  0  0  3  0  0  0  0  0  0
  191.5370  173.9910  142.3020 O   0  0  0  0  0  0  0  0  0  0  0  0
  191.5700  171.6580  138.6060 C   0  0  1  0  0  3  0  0  0  0  0  0
  193.0810  171.6470  138.8210 C   0  0  0  0  0  2  0  0  0  0  0  0
  193.2440  173.3710  140.6270 C   0  0  1  0  0  3  0  0  0  0  0  0
  191.0210  173.0880  138.6830 C   0  0  2  0  0  3  0  0  0  0  0  0
  192.3560  176.3090  142.5370 C   0  0  0  0  0  0  0  0  0  0  0  0
  194.0910  173.7230  141.7510 N   0  0  0  0  0  2  0  0  0  0  0  0
  189.7400  177.0190  143.3640 C   0  0  0  0  0  0  0  0  0  0  0  0
  194.5690  175.0530  141.9390 C   0  0  0  0  0  0  0  0  0  0  0  0
  193.8000  176.1080  142.2480 C   0  0  0  0  0  3  0  0  0  0  0  0
  191.3390  175.3240  142.6350 C   0  0  0  0  0  0  0  0  0  0  0  0
  193.4530  171.9050  140.2770 C   0  0  0  0  0  2  0  0  0  0  0  0
  190.8280  173.5020  140.1100 C   0  0  0  0  0  3  0  0  0  0  0  0
  192.0240  177.6360  142.8370 C   0  0  0  0  0  3  0  0  0  0  0  0
  191.8230  173.6240  140.9920 C   0  0  0  0  0  0  0  0  0  0  0  0
  190.0560  175.6880  143.0620 C   0  0  0  0  0  3  0  0  0  0  0  0
  184.2270  178.3110  146.4610 C   0  0  0  0  0  3  0  0  0  0  0  0
  186.1870  178.3100  143.3090 C   0  0  0  0  0  3  0  0  0  0  0  0
  185.1650  177.7630  147.3440 C   0  0  0  0  0  3  0  0  0  0  0  0
  183.6000  179.0280  144.2500 O   0  0  0  0  0  1  0  0  0  0  0  0
  188.3790  177.3990  143.7950 C   0  0  0  0  0  0  0  0  0  0  0  0
  187.4650  177.9460  142.8810 C   0  0  0  0  0  3  0  0  0  0  0  0
  188.0050  177.2340  145.0950 N   0  0  0  0  0  0  0  0  0  0  0  0
  185.8230  178.1290  144.6470 C   0  0  0  0  0  0  0  0  0  0  0  0
  186.4320  177.3960  146.8850 C   0  0  0  0  0  3  0  0  0  0  0  0
  186.7670  177.5740  145.5410 C   0  0  0  0  0  0  0  0  0  0  0  0
  184.5500  178.4940  145.1130 C   0  0  0  0  0  0  0  0  0  0  0  0
  191.2920  171.0970  137.3540 O   0  0  0  0  0  0  0  0  0  0  0  0
  190.9660  169.0460  139.1790 O   0  0  0  0  0  1  0  0  0  0  0  0
  190.4130  168.7500  136.6390 O   0  0  0  0  0  0  0  0  0  0  0  0
  191.3920  169.4180  137.5800 P   0  0  1  0  0  0  0  0  0  0  0  0
  192.9860  168.9010  137.2250 O   0  0  0  0  0  0  0  0  0  0  0  0
  192.3290  168.6990  135.0220 F   0  0  0  0  0  0  0  0  0  0  0  0
  193.4760  170.5490  135.6740 F   0  0  0  0  0  0  0  0  0  0  0  0
  193.3040  169.1890  135.8780 C   0  0  0  0  0  0  0  0  0  0  0  0
  194.4950  168.5600  135.5710 F   0  0  0  0  0  0  0  0  0  0  0  0
  196.0370  175.2800  141.8500 C   0  0  0  0  0  2  0  0  0  0  0  0
  196.7860  174.0200  142.2520 C   0  0  0  0  0  2  0  0  0  0  0  0
  197.9410  174.3710  143.1720 C   0  0  0  0  0  2  0  0  0  0  0  0
  197.6950  173.8840  144.4570 O   0  0  0  0  0  0  0  0  0  0  0  0
  196.8210  174.8120  145.0200 C   0  0  0  0  0  2  0  0  0  0  0  0
  195.9610  174.1320  146.0740 C   0  0  0  0  0  2  0  0  0  0  0  0
  192.7130  171.5720  144.5150 C   0  0  0  0  0  2  0  0  0  0  0  0
  193.4830  173.8080  145.3490 C   0  0  0  0  0  0  0  0  0  0  0  0
  192.4980  173.0000  144.9390 C   0  0  0  0  0  3  0  0  0  0  0  0
  194.1660  171.1950  144.4480 C   0  0  0  0  0  0  0  0  0  0  0  0
  195.1960  172.0810  145.0050 C   0  0  0  0  0  3  0  0  0  0  0  0
  194.5000  170.0920  143.9470 O   0  0  0  0  0  0  0  0  0  0  0  0
  194.8870  173.3080  145.4350 C   0  0  0  0  0  0  0  0  0  0  0  0
  193.1330  175.1350  145.7640 N   0  0  0  0  0  2  0  0  0  0  0  0
  191.9360  174.5550  147.6900 O   0  0  0  0  0  0  0  0  0  0  0  0
  192.2470  175.4420  146.8490 C   0  0  0  0  0  0  0  0  0  0  0  0
  191.5750  177.3100  148.3010 C   0  0  0  0  0  1  0  0  0  0  0  0
  191.7530  176.7350  147.0130 O   0  0  0  0  0  0  0  0  0  0  0  0
  2 10  1  0  0  0  0
  3 13  1  0  0  0  0
  4 30  1  6  0  0  0
  4  7  1  0  0  0  0
  4  5  1  0  0  0  0
  5 14  1  0  0  0  0
  6 14  1  1  0  0  0
  6 17  1  0  0  0  0
  6  9  1  0  0  0  0
  7  1  1  6  0  0  0
  7 15  1  0  0  0  0
  8 13  2  0  0  0  0
  8 16  1  0  0  0  0
  9 11  1  0  0  0  0
 10 23  1  0  0  0  0
 11 12  2  0  0  0  0
 12  8  1  0  0  0  0
 13 18  1  0  0  0  0
 15 17  2  0  0  0  0
 16  2  2  0  0  0  0
 17  3  1  0  0  0  0
 18 10  2  0  0  0  0
 19 21  1  0  0  0  0
 20 26  1  0  0  0  0
 22 29  1  0  0  0  0
 23 25  2  0  0  0  0
 24 20  2  0  0  0  0
 24 23  1  0  0  0  0
 25 28  1  0  0  0  0
 26 29  1  0  0  0  0
 26 28  2  0  0  0  0
 27 21  2  0  0  0  0
 28 27  1  0  0  0  0
 29 19  2  0  0  0  0
 30 33  1  0  0  0  0
 33 32  2  6  0  0  0
 33 31  1  0  0  0  0
 34 33  1  0  0  0  0
 35 37  1  0  0  0  0
 36 37  1  0  0  0  0
 37 34  1  0  0  0  0
 38 37  1  0  0  0  0
 39 11  1  0  0  0  0
 39 40  1  0  0  0  0
 40 41  1  0  0  0  0
 41 42  1  0  0  0  0
 42 43  1  0  0  0  0
 43 44  1  0  0  0  0
 45 47  1  0  0  0  0
 46 51  1  0  0  0  0
 46 52  1  0  0  0  0
 47 46  2  0  0  0  0
 48 45  1  0  0  0  0
 48 49  1  0  0  0  0
 49 51  2  0  0  0  0
 50 48  2  0  0  0  0
 51 44  1  0  0  0  0
 52 54  1  0  0  0  0
 54 56  1  0  0  0  0
 54 53  2  0  0  0  0
 56 55  1  0  0  0  0
M  END
>  <MODEL>
8

>  <REMARK>
 VINA RESULT:      -5.9      1.737      2.101
  Name = 
  14 active torsions:
  status: ('A' for Active; 'I' for Inactive)
    1  A    between atoms: O_11  and  C_12
    2  A    between atoms: O_11  and  P_36
    3  A    between atoms: C_13  and  O_24
    4  A    between atoms: C_15  and  C_35
    5  A    between atoms: C_17  and  C_31
    6  A    between atoms: C_17  and  C_56
    7  A    between atoms: O_19  and  C_31
    8  A    between atoms: O_19  and  C_38
    9  A    between atoms: N_21  and  C_25
   10  A    between atoms: O_24  and  P_36
   11  A    between atoms: C_27  and  C_37
   12  A    between atoms: C_27  and  C_55
   13  A    between atoms: C_38  and  C_55
   14  A    between atoms: O_50  and  C_51
                            x       y       z     vdW  Elec       q    Type
                         _______ _______ _______ _____ _____    ______ ____

>  <TORSDO>
F 14

$$$$
=
 OpenBabel11042417243D

 56 61  0  0  1  0  0  0  0  0999 V2000
  188.5540  174.5140  139.1740 O   0  0  0  0  0  1  0  0  0  0  0  0
  185.0080  179.3140  143.1270 C   0  0  0  0  0  3  0  0  0  0  0  0
  186.8260  175.5520  143.4060 O   0  0  0  0  0  0  0  0  0  0  0  0
  189.6860  173.3450  140.9460 C   0  0  1  0  0  3  0  0  0  0  0  0
  190.6400  173.6120  142.1090 C   0  0  0  0  0  2  0  0  0  0  0  0
  189.2830  175.2970  143.3640 C   0  0  1  0  0  3  0  0  0  0  0  0
  189.0190  174.6450  140.4830 C   0  0  2  0  0  3  0  0  0  0  0  0
  186.9100  177.9780  143.8670 C   0  0  0  0  0  0  0  0  0  0  0  0
  189.0900  175.7780  144.7190 N   0  0  0  0  0  2  0  0  0  0  0  0
  184.3490  178.1690  142.6680 C   0  0  0  0  0  0  0  0  0  0  0  0
  189.1070  177.1690  145.0290 C   0  0  0  0  0  0  0  0  0  0  0  0
  188.1820  178.0550  144.6320 C   0  0  0  0  0  3  0  0  0  0  0  0
  186.2560  176.8180  143.3740 C   0  0  0  0  0  0  0  0  0  0  0  0
  189.8930  173.9040  143.4040 C   0  0  0  0  0  2  0  0  0  0  0  0
  187.8570  174.9860  141.3660 C   0  0  0  0  0  3  0  0  0  0  0  0
  186.2660  179.2130  143.7230 C   0  0  0  0  0  3  0  0  0  0  0  0
  187.9690  175.2730  142.6650 C   0  0  0  0  0  0  0  0  0  0  0  0
  184.9830  176.9270  142.8010 C   0  0  0  0  0  3  0  0  0  0  0  0
  178.1550  179.1360  141.1360 C   0  0  0  0  0  3  0  0  0  0  0  0
  181.5600  178.0680  140.1170 C   0  0  0  0  0  3  0  0  0  0  0  0
  178.3800  179.4590  142.4780 C   0  0  0  0  0  3  0  0  0  0  0  0
  178.9540  178.3380  139.0100 O   0  0  0  0  0  1  0  0  0  0  0  0
  183.0140  178.2790  142.0430 C   0  0  0  0  0  0  0  0  0  0  0  0
  182.8260  177.9460  140.6930 C   0  0  0  0  0  3  0  0  0  0  0  0
  181.9540  178.7220  142.7760 N   0  0  0  0  0  0  0  0  0  0  0  0
  180.4850  178.5210  140.8880 C   0  0  0  0  0  0  0  0  0  0  0  0
  179.6550  179.3150  143.0320 C   0  0  0  0  0  3  0  0  0  0  0  0
  180.7090  178.8470  142.2450 C   0  0  0  0  0  0  0  0  0  0  0  0
  179.2010  178.6650  140.3380 C   0  0  0  0  0  0  0  0  0  0  0  0
  190.4110  172.7680  139.8970 O   0  0  0  0  0  0  0  0  0  0  0  0
  189.8810  170.8350  141.8010 O   0  0  0  0  0  1  0  0  0  0  0  0
  190.4560  170.2260  139.3220 O   0  0  0  0  0  0  0  0  0  0  0  0
  190.8020  171.2030  140.4250 P   0  0  1  0  0  0  0  0  0  0  0  0
  192.4800  171.1310  140.7610 O   0  0  0  0  0  0  0  0  0  0  0  0
  191.8760  169.1320  141.7440 F   0  0  0  0  0  0  0  0  0  0  0  0
  194.0480  169.7970  141.8210 F   0  0  0  0  0  0  0  0  0  0  0  0
  192.7290  170.2240  141.8160 C   0  0  0  0  0  0  0  0  0  0  0  0
  192.4890  170.8730  143.0110 F   0  0  0  0  0  0  0  0  0  0  0  0
  190.1970  177.6680  145.9110 C   0  0  0  0  0  2  0  0  0  0  0  0
  190.6190  176.5820  146.8850 C   0  0  0  0  0  2  0  0  0  0  0  0
  192.1240  176.3880  146.8310 C   0  0  0  0  0  2  0  0  0  0  0  0
  192.4430  175.0490  147.0580 O   0  0  0  0  0  0  0  0  0  0  0  0
  193.5370  174.8060  146.2280 C   0  0  0  0  0  2  0  0  0  0  0  0
  193.1450  173.8160  145.1410 C   0  0  0  0  0  2  0  0  0  0  0  0
  196.0780  170.6090  144.3390 C   0  0  0  0  0  2  0  0  0  0  0  0
  195.2150  172.9130  143.8500 C   0  0  0  0  0  0  0  0  0  0  0  0
  196.0530  171.9060  143.5750 C   0  0  0  0  0  3  0  0  0  0  0  0
  195.1770  170.6230  145.5410 C   0  0  0  0  0  0  0  0  0  0  0  0
  194.2070  171.7070  145.7380 C   0  0  0  0  0  3  0  0  0  0  0  0
  195.2250  169.6740  146.3650 O   0  0  0  0  0  0  0  0  0  0  0  0
  194.2130  172.7850  144.9490 C   0  0  0  0  0  0  0  0  0  0  0  0
  195.2700  174.0770  143.0160 N   0  0  0  0  0  2  0  0  0  0  0  0
  196.8550  175.2750  144.2530 O   0  0  0  0  0  0  0  0  0  0  0  0
  195.9900  175.2760  143.3360 C   0  0  0  0  0  0  0  0  0  0  0  0
  195.2370  176.4190  141.2920 C   0  0  0  0  0  1  0  0  0  0  0  0
  195.7750  176.4450  142.6070 O   0  0  0  0  0  0  0  0  0  0  0  0
  2 16  1  0  0  0  0
  4 30  1  6  0  0  0
  4  5  1  0  0  0  0
  5 14  1  0  0  0  0
  6 14  1  1  0  0  0
  6  9  1  0  0  0  0
  7  1  1  6  0  0  0
  7  4  1  0  0  0  0
  7 15  1  0  0  0  0
  8 12  1  0  0  0  0
  9 11  1  0  0  0  0
 10 18  1  0  0  0  0
 10  2  2  0  0  0  0
 11 39  1  0  0  0  0
 12 11  2  0  0  0  0
 13  3  1  0  0  0  0
 13  8  1  0  0  0  0
 15 17  2  0  0  0  0
 16  8  2  0  0  0  0
 17  6  1  0  0  0  0
 17  3  1  0  0  0  0
 18 13  2  0  0  0  0
 19 21  1  0  0  0  0
 20 24  2  0  0  0  0
 20 26  1  0  0  0  0
 21 27  2  0  0  0  0
 22 29  1  0  0  0  0
 23 10  1  0  0  0  0
 23 25  2  0  0  0  0
 24 23  1  0  0  0  0
 26 28  2  0  0  0  0
 28 25  1  0  0  0  0
 28 27  1  0  0  0  0
 29 26  1  0  0  0  0
 29 19  2  0  0  0  0
 30 33  1  0  0  0  0
 33 32  2  6  0  0  0
 33 34  1  0  0  0  0
 33 31  1  0  0  0  0
 34 37  1  0  0  0  0
 35 37  1  0  0  0  0
 37 36  1  0  0  0  0
 37 38  1  0  0  0  0
 39 40  1  0  0  0  0
 41 40  1  0  0  0  0
 41 42  1  0  0  0  0
 43 42  1  0  0  0  0
 44 43  1  0  0  0  0
 45 48  1  0  0  0  0
 46 51  1  0  0  0  0
 47 46  2  0  0  0  0
 47 45  1  0  0  0  0
 48 49  1  0  0  0  0
 48 50  2  0  0  0  0
 51 44  1  0  0  0  0
 51 49  2  0  0  0  0
 52 54  1  0  0  0  0
 52 46  1  0  0  0  0
 54 53  2  0  0  0  0
 55 56  1  0  0  0  0
 56 54  1  0  0  0  0
M  END
>  <MODEL>
9

>  <REMARK>
 VINA RESULT:      -5.8      3.380      5.732
  Name = 
  14 active torsions:
  status: ('A' for Active; 'I' for Inactive)
    1  A    between atoms: O_11  and  C_12
    2  A    between atoms: O_11  and  P_36
    3  A    between atoms: C_13  and  O_24
    4  A    between atoms: C_15  and  C_35
    5  A    between atoms: C_17  and  C_31
    6  A    between atoms: C_17  and  C_56
    7  A    between atoms: O_19  and  C_31
    8  A    between atoms: O_19  and  C_38
    9  A    between atoms: N_21  and  C_25
   10  A    between atoms: O_24  and  P_36
   11  A    between atoms: C_27  and  C_37
   12  A    between atoms: C_27  and  C_55
   13  A    between atoms: C_38  and  C_55
   14  A    between atoms: O_50  and  C_51
                            x       y       z     vdW  Elec       q    Type
                         _______ _______ _______ _____ _____    ______ ____

>  <TORSDO>
F 14

$$$$
