=
 OpenBabel11042414233D

 27 29  0  0  1  0  0  0  0  0999 V2000
  190.4630  176.2140  144.0700 C   0  0  1  0  0  3  0  0  0  0  0  0
  194.3910  176.4800  145.9430 C   0  0  0  0  0  2  0  0  0  0  0  0
  192.9440  175.7310  143.8940 C   0  0  1  0  0  3  0  0  0  0  0  0
  191.8560  176.5420  144.6230 C   0  0  2  0  0  3  0  0  0  0  0  0
  193.1390  176.2840  142.4910 C   0  0  0  0  0  1  0  0  0  0  0  0
  191.9340  176.3700  146.1230 C   0  0  0  0  0  3  0  0  0  0  0  0
  194.2610  175.7420  144.6410 C   0  0  0  0  0  0  0  0  0  0  0  0
  193.1230  176.3450  146.7370 C   0  0  0  0  0  3  0  0  0  0  0  0
  195.2240  175.1400  144.1920 O   0  0  0  0  0  0  0  0  0  0  0  0
  189.7670  175.1980  144.8580 N   0  0  0  0  0  2  0  0  0  0  0  0
  188.5900  175.7820  145.3500 N   0  0  0  0  0  2  0  0  0  0  0  0
  188.2450  175.7280  146.7380 C   0  0  0  0  0  0  0  0  0  0  0  0
  188.9660  175.0820  147.5460 O   0  0  0  0  0  0  0  0  0  0  0  0
  184.8560  177.4380  146.5640 C   0  0  0  0  0  2  0  0  0  0  0  0
  186.1110  176.7660  146.0510 C   0  0  2  0  0  3  0  0  0  0  0  0
  187.0030  176.4000  147.2230 C   0  0  2  0  0  3  0  0  0  0  0  0
  186.9540  177.8300  146.7180 C   0  0  2  0  0  3  0  0  0  0  0  0
  185.6990  178.5040  147.2300 C   0  0  0  0  0  2  0  0  0  0  0  0
  189.6710  177.3640  143.8630 O   0  0  0  0  0  0  0  0  0  0  0  0
  189.8580  177.7520  142.6130 O   0  0  0  0  0  0  0  0  0  0  0  0
  188.6050  177.6220  142.0070 C   0  0  1  0  0  3  0  0  0  0  0  0
  188.4270  176.3130  141.5600 O   0  0  0  0  0  1  0  0  0  0  0  0
  187.4950  178.0210  142.9760 C   0  0  0  0  0  2  0  0  0  0  0  0
  186.3420  178.7480  142.2890 C   0  0  0  0  0  2  0  0  0  0  0  0
  184.0350  178.4350  143.2680 N   0  0  0  0  0  1  0  0  0  0  0  0
  185.4920  180.0400  144.1020 O   0  0  0  0  0  0  0  0  0  0  0  0
  185.2820  179.1210  143.2690 C   0  0  0  0  0  0  0  0  0  0  0  0
  1 19  1  1  0  0  0
  1 10  1  0  0  0  0
  2  8  1  0  0  0  0
  3  5  1  6  0  0  0
  3  4  1  0  0  0  0
  3  7  1  0  0  0  0
  4  1  1  6  0  0  0
  4  6  1  0  0  0  0
  6  8  2  0  0  0  0
  7  2  1  0  0  0  0
  9  7  2  0  0  0  0
 10 11  1  0  0  0  0
 11 12  1  0  0  0  0
 12 13  2  0  0  0  0
 14 18  1  0  0  0  0
 15 14  1  1  0  0  0
 15 17  1  0  0  0  0
 15 16  1  0  0  0  0
 16 12  1  6  0  0  0
 17 16  1  0  0  0  0
 17 18  1  1  0  0  0
 20 19  1  0  0  0  0
 21 22  1  1  0  0  0
 21 20  1  0  0  0  0
 21 23  1  0  0  0  0
 24 23  1  0  0  0  0
 24 27  1  0  0  0  0
 25 27  1  0  0  0  0
 27 26  2  0  0  0  0
M  END
>  <MODEL>
1

>  <REMARK>
 VINA RESULT:      -6.5      0.000      0.000
  Name = 
  10 active torsions:
  status: ('A' for Active; 'I' for Inactive)
    1  A    between atoms: C_2  and  O_11
    2  A    between atoms: C_2  and  C_14
    3  A    between atoms: C_4  and  C_14
    4  A    between atoms: C_4  and  C_18
    5  A    between atoms: C_5  and  C_23
    6  A    between atoms: O_11  and  O_24
    7  A    between atoms: N_17  and  N_21
    8  A    between atoms: C_19  and  C_25
    9  A    between atoms: N_21  and  C_23
   10  A    between atoms: C_23  and  O_24
                            x       y       z     vdW  Elec       q    Type
                         _______ _______ _______ _____ _____    ______ ____

>  <TORSDO>
F 10

$$$$
=
 OpenBabel11042414233D

 27 29  0  0  1  0  0  0  0  0999 V2000
  188.6640  176.1550  146.3820 C   0  0  1  0  0  3  0  0  0  0  0  0
  189.2600  174.6940  142.3170 C   0  0  0  0  0  2  0  0  0  0  0  0
  187.9590  176.2740  143.9500 C   0  0  1  0  0  3  0  0  0  0  0  0
  189.0550  175.8230  144.9360 C   0  0  2  0  0  3  0  0  0  0  0  0
  187.9720  177.7890  143.8300 C   0  0  0  0  0  1  0  0  0  0  0  0
  189.4100  174.3650  144.7560 C   0  0  0  0  0  3  0  0  0  0  0  0
  188.1270  175.6450  142.5840 C   0  0  0  0  0  0  0  0  0  0  0  0
  189.5080  173.8420  143.5290 C   0  0  0  0  0  3  0  0  0  0  0  0
  187.3340  175.9000  141.6910 O   0  0  0  0  0  0  0  0  0  0  0  0
  189.5810  177.1060  147.0110 N   0  0  0  0  0  2  0  0  0  0  0  0
  190.8710  176.8150  146.5430 N   0  0  0  0  0  2  0  0  0  0  0  0
  191.7220  175.8810  147.2140 C   0  0  0  0  0  0  0  0  0  0  0  0
  191.3520  175.3480  148.2950 O   0  0  0  0  0  0  0  0  0  0  0  0
  194.4000  175.2420  144.5950 C   0  0  0  0  0  2  0  0  0  0  0  0
  193.0220  175.5490  145.1400 C   0  0  2  0  0  3  0  0  0  0  0  0
  193.0720  175.5700  146.6560 C   0  0  2  0  0  3  0  0  0  0  0  0
  193.0370  174.2480  145.9120 C   0  0  2  0  0  3  0  0  0  0  0  0
  194.4150  173.9390  145.3660 C   0  0  0  0  0  2  0  0  0  0  0  0
  187.3150  176.5510  146.5080 O   0  0  0  0  0  0  0  0  0  0  0  0
  187.2930  177.6530  147.2380 O   0  0  0  0  0  0  0  0  0  0  0  0
  185.9350  177.9360  147.4180 C   0  0  1  0  0  3  0  0  0  0  0  0
  185.7600  179.3010  147.6380 O   0  0  0  0  0  1  0  0  0  0  0  0
  185.1260  177.4710  146.2090 C   0  0  0  0  0  2  0  0  0  0  0  0
  184.1570  178.5360  145.7010 C   0  0  0  0  0  2  0  0  0  0  0  0
  184.1180  178.2910  143.1880 N   0  0  0  0  0  1  0  0  0  0  0  0
  185.2430  180.0450  144.2120 O   0  0  0  0  0  0  0  0  0  0  0  0
  184.5430  179.0080  144.3410 C   0  0  0  0  0  0  0  0  0  0  0  0
  1 19  1  6  0  0  0
  1 10  1  0  0  0  0
  2  7  1  0  0  0  0
  2  8  1  0  0  0  0
  3  5  1  6  0  0  0
  3  4  1  0  0  0  0
  4  1  1  1  0  0  0
  6  4  1  0  0  0  0
  7  3  1  0  0  0  0
  8  6  2  0  0  0  0
  9  7  2  0  0  0  0
 11 10  1  0  0  0  0
 11 12  1  0  0  0  0
 12 13  2  0  0  0  0
 14 18  1  0  0  0  0
 15 14  1  6  0  0  0
 15 17  1  0  0  0  0
 15 16  1  0  0  0  0
 16 12  1  1  0  0  0
 17 18  1  6  0  0  0
 17 16  1  0  0  0  0
 19 20  1  0  0  0  0
 20 21  1  0  0  0  0
 21 22  1  6  0  0  0
 23 21  1  0  0  0  0
 24 23  1  0  0  0  0
 25 27  1  0  0  0  0
 26 27  2  0  0  0  0
 27 24  1  0  0  0  0
M  END
>  <MODEL>
2

>  <REMARK>
 VINA RESULT:      -6.5      2.056      5.467
  Name = 
  10 active torsions:
  status: ('A' for Active; 'I' for Inactive)
    1  A    between atoms: C_2  and  O_11
    2  A    between atoms: C_2  and  C_14
    3  A    between atoms: C_4  and  C_14
    4  A    between atoms: C_4  and  C_18
    5  A    between atoms: C_5  and  C_23
    6  A    between atoms: O_11  and  O_24
    7  A    between atoms: N_17  and  N_21
    8  A    between atoms: C_19  and  C_25
    9  A    between atoms: N_21  and  C_23
   10  A    between atoms: C_23  and  O_24
                            x       y       z     vdW  Elec       q    Type
                         _______ _______ _______ _____ _____    ______ ____

>  <TORSDO>
F 10

$$$$
=
 OpenBabel11042414233D

 27 29  0  0  1  0  0  0  0  0999 V2000
  188.3070  176.8460  145.6090 C   0  0  1  0  0  3  0  0  0  0  0  0
  184.2970  178.5480  145.8110 C   0  0  0  0  0  2  0  0  0  0  0  0
  186.6320  178.4760  144.6270 C   0  0  1  0  0  3  0  0  0  0  0  0
  186.8270  177.2440  145.5340 C   0  0  2  0  0  3  0  0  0  0  0  0
  186.8160  178.0730  143.1730 C   0  0  0  0  0  1  0  0  0  0  0  0
  186.2160  177.4490  146.9020 C   0  0  0  0  0  3  0  0  0  0  0  0
  185.2740  179.1160  144.8190 C   0  0  0  0  0  0  0  0  0  0  0  0
  185.0310  178.0570  147.0260 C   0  0  0  0  0  3  0  0  0  0  0  0
  184.9670  180.1050  144.1730 O   0  0  0  0  0  0  0  0  0  0  0  0
  188.8680  177.0070  146.9500 N   0  0  0  0  0  2  0  0  0  0  0  0
  190.2550  177.1630  146.8080 N   0  0  0  0  0  2  0  0  0  0  0  0
  191.1780  176.2070  147.3380 C   0  0  0  0  0  0  0  0  0  0  0  0
  190.7600  175.2300  148.0160 O   0  0  0  0  0  0  0  0  0  0  0  0
  194.4310  176.7800  145.4590 C   0  0  0  0  0  2  0  0  0  0  0  0
  192.9420  176.5860  145.6510 C   0  0  2  0  0  3  0  0  0  0  0  0
  192.6440  176.3920  147.1260 C   0  0  2  0  0  3  0  0  0  0  0  0
  193.2000  175.2450  146.3020 C   0  0  2  0  0  3  0  0  0  0  0  0
  194.6890  175.4370  146.1080 C   0  0  0  0  0  2  0  0  0  0  0  0
  188.5560  175.5630  145.0760 O   0  0  0  0  0  0  0  0  0  0  0  0
  189.3340  175.7180  144.0200 O   0  0  0  0  0  0  0  0  0  0  0  0
  189.9290  174.4670  143.8260 C   0  0  1  0  0  3  0  0  0  0  0  0
  190.0120  173.7880  145.0410 O   0  0  0  0  0  1  0  0  0  0  0  0
  189.1440  173.6530  142.8000 C   0  0  0  0  0  2  0  0  0  0  0  0
  189.6510  173.8510  141.3740 C   0  0  0  0  0  2  0  0  0  0  0  0
  188.3630  174.0390  139.2090 N   0  0  0  0  0  1  0  0  0  0  0  0
  187.9750  175.4970  140.9750 O   0  0  0  0  0  0  0  0  0  0  0  0
  188.6210  174.5160  140.5260 C   0  0  0  0  0  0  0  0  0  0  0  0
  1 19  1  1  0  0  0
  1 10  1  0  0  0  0
  2  8  1  0  0  0  0
  3  5  1  6  0  0  0
  3  7  1  0  0  0  0
  3  4  1  0  0  0  0
  4  1  1  1  0  0  0
  4  6  1  0  0  0  0
  6  8  2  0  0  0  0
  7  2  1  0  0  0  0
  9  7  2  0  0  0  0
 11 10  1  0  0  0  0
 11 12  1  0  0  0  0
 12 13  2  0  0  0  0
 14 18  1  0  0  0  0
 15 14  1  1  0  0  0
 15 17  1  0  0  0  0
 15 16  1  0  0  0  0
 16 12  1  6  0  0  0
 17 18  1  1  0  0  0
 17 16  1  0  0  0  0
 20 19  1  0  0  0  0
 21 20  1  0  0  0  0
 21 22  1  1  0  0  0
 23 21  1  0  0  0  0
 24 23  1  0  0  0  0
 25 27  1  0  0  0  0
 27 26  2  0  0  0  0
 27 24  1  0  0  0  0
M  END
>  <MODEL>
3

>  <REMARK>
 VINA RESULT:      -6.4      2.234      6.472
  Name = 
  10 active torsions:
  status: ('A' for Active; 'I' for Inactive)
    1  A    between atoms: C_2  and  O_11
    2  A    between atoms: C_2  and  C_14
    3  A    between atoms: C_4  and  C_14
    4  A    between atoms: C_4  and  C_18
    5  A    between atoms: C_5  and  C_23
    6  A    between atoms: O_11  and  O_24
    7  A    between atoms: N_17  and  N_21
    8  A    between atoms: C_19  and  C_25
    9  A    between atoms: N_21  and  C_23
   10  A    between atoms: C_23  and  O_24
                            x       y       z     vdW  Elec       q    Type
                         _______ _______ _______ _____ _____    ______ ____

>  <TORSDO>
F 10

$$$$
=
 OpenBabel11042414233D

 27 29  0  0  1  0  0  0  0  0999 V2000
  188.3150  176.8670  145.5510 C   0  0  1  0  0  3  0  0  0  0  0  0
  184.2780  178.4850  145.8730 C   0  0  0  0  0  2  0  0  0  0  0  0
  186.5860  178.4780  144.6350 C   0  0  1  0  0  3  0  0  0  0  0  0
  186.8260  177.2370  145.5170 C   0  0  2  0  0  3  0  0  0  0  0  0
  186.7440  178.1030  143.1710 C   0  0  0  0  0  1  0  0  0  0  0  0
  186.2430  177.4080  146.9020 C   0  0  0  0  0  3  0  0  0  0  0  0
  185.2200  179.0870  144.8680 C   0  0  0  0  0  0  0  0  0  0  0  0
  185.0490  177.9890  147.0630 C   0  0  0  0  0  3  0  0  0  0  0  0
  184.8790  180.0810  144.2460 O   0  0  0  0  0  0  0  0  0  0  0  0
  188.8980  176.9970  146.8860 N   0  0  0  0  0  2  0  0  0  0  0  0
  190.2840  177.1470  146.7250 N   0  0  0  0  0  2  0  0  0  0  0  0
  191.2130  176.2360  147.3200 C   0  0  0  0  0  0  0  0  0  0  0  0
  190.8030  175.3110  148.0720 O   0  0  0  0  0  0  0  0  0  0  0  0
  194.4450  176.7630  145.3920 C   0  0  0  0  0  2  0  0  0  0  0  0
  192.9580  176.5800  145.6050 C   0  0  2  0  0  3  0  0  0  0  0  0
  192.6780  176.4100  147.0870 C   0  0  2  0  0  3  0  0  0  0  0  0
  193.2170  175.2480  146.2730 C   0  0  2  0  0  3  0  0  0  0  0  0
  194.7050  175.4290  146.0580 C   0  0  0  0  0  2  0  0  0  0  0  0
  188.5800  175.6080  144.9730 O   0  0  0  0  0  0  0  0  0  0  0  0
  189.1750  175.8240  143.8130 O   0  0  0  0  0  0  0  0  0  0  0  0
  189.9110  174.6600  143.5660 C   0  0  1  0  0  3  0  0  0  0  0  0
  191.1610  174.9890  143.0450 O   0  0  0  0  0  1  0  0  0  0  0  0
  190.0540  173.8350  144.8430 C   0  0  0  0  0  2  0  0  0  0  0  0
  189.9400  172.3330  144.5940 C   0  0  0  0  0  2  0  0  0  0  0  0
  191.2070  170.9490  142.9030 N   0  0  0  0  0  1  0  0  0  0  0  0
  192.3050  172.0470  144.6310 O   0  0  0  0  0  0  0  0  0  0  0  0
  191.2170  171.7790  144.0600 C   0  0  0  0  0  0  0  0  0  0  0  0
  1 19  1  1  0  0  0
  1 10  1  0  0  0  0
  2  8  1  0  0  0  0
  3  5  1  6  0  0  0
  3  7  1  0  0  0  0
  3  4  1  0  0  0  0
  4  1  1  1  0  0  0
  4  6  1  0  0  0  0
  6  8  2  0  0  0  0
  7  2  1  0  0  0  0
  9  7  2  0  0  0  0
 11 10  1  0  0  0  0
 11 12  1  0  0  0  0
 12 13  2  0  0  0  0
 14 18  1  0  0  0  0
 15 14  1  1  0  0  0
 15 17  1  0  0  0  0
 15 16  1  0  0  0  0
 16 12  1  6  0  0  0
 17 18  1  1  0  0  0
 17 16  1  0  0  0  0
 20 19  1  0  0  0  0
 21 22  1  1  0  0  0
 21 20  1  0  0  0  0
 21 23  1  0  0  0  0
 24 23  1  0  0  0  0
 25 27  1  0  0  0  0
 27 24  1  0  0  0  0
 27 26  2  0  0  0  0
M  END
>  <MODEL>
4

>  <REMARK>
 VINA RESULT:      -6.4      2.259      7.016
  Name = 
  10 active torsions:
  status: ('A' for Active; 'I' for Inactive)
    1  A    between atoms: C_2  and  O_11
    2  A    between atoms: C_2  and  C_14
    3  A    between atoms: C_4  and  C_14
    4  A    between atoms: C_4  and  C_18
    5  A    between atoms: C_5  and  C_23
    6  A    between atoms: O_11  and  O_24
    7  A    between atoms: N_17  and  N_21
    8  A    between atoms: C_19  and  C_25
    9  A    between atoms: N_21  and  C_23
   10  A    between atoms: C_23  and  O_24
                            x       y       z     vdW  Elec       q    Type
                         _______ _______ _______ _____ _____    ______ ____

>  <TORSDO>
F 10

$$$$
=
 OpenBabel11042414233D

 27 29  0  0  1  0  0  0  0  0999 V2000
  188.6690  177.5170  144.4390 C   0  0  1  0  0  3  0  0  0  0  0  0
  184.8500  177.2390  146.5240 C   0  0  0  0  0  2  0  0  0  0  0  0
  186.3390  178.4640  144.7520 C   0  0  1  0  0  3  0  0  0  0  0  0
  187.2620  177.2520  144.9890 C   0  0  2  0  0  3  0  0  0  0  0  0
  185.9770  178.5510  143.2780 C   0  0  0  0  0  1  0  0  0  0  0  0
  187.2800  176.8310  146.4400 C   0  0  0  0  0  3  0  0  0  0  0  0
  185.0810  178.3940  145.5900 C   0  0  0  0  0  0  0  0  0  0  0  0
  186.1490  176.8240  147.1540 C   0  0  0  0  0  3  0  0  0  0  0  0
  184.2480  179.2840  145.5190 O   0  0  0  0  0  0  0  0  0  0  0  0
  189.6750  177.6310  145.4950 N   0  0  0  0  0  2  0  0  0  0  0  0
  190.8410  177.0030  145.0320 N   0  0  0  0  0  2  0  0  0  0  0  0
  191.8150  176.4670  145.9330 C   0  0  0  0  0  0  0  0  0  0  0  0
  191.6780  176.6150  147.1770 O   0  0  0  0  0  0  0  0  0  0  0  0
  195.3510  175.0760  145.8580 C   0  0  0  0  0  2  0  0  0  0  0  0
  194.1420  175.7950  146.4180 C   0  0  2  0  0  3  0  0  0  0  0  0
  193.0210  175.7700  145.3950 C   0  0  2  0  0  3  0  0  0  0  0  0
  194.1680  176.7520  145.2470 C   0  0  2  0  0  3  0  0  0  0  0  0
  195.3790  176.0350  144.6870 C   0  0  0  0  0  2  0  0  0  0  0  0
  189.0490  176.5990  143.4370 O   0  0  0  0  0  0  0  0  0  0  0  0
  188.0470  175.7510  143.2780 O   0  0  0  0  0  0  0  0  0  0  0  0
  188.4660  174.8890  142.2600 C   0  0  1  0  0  3  0  0  0  0  0  0
  188.2870  175.4970  141.0180 O   0  0  0  0  0  1  0  0  0  0  0  0
  189.9250  174.4880  142.4630 C   0  0  0  0  0  2  0  0  0  0  0  0
  190.0800  173.0660  142.9970 C   0  0  0  0  0  2  0  0  0  0  0  0
  189.7470  173.6210  145.4390 N   0  0  0  0  0  1  0  0  0  0  0  0
  191.6870  172.5870  144.6900 O   0  0  0  0  0  0  0  0  0  0  0  0
  190.5610  173.0720  144.4080 C   0  0  0  0  0  0  0  0  0  0  0  0
  1 19  1  6  0  0  0
  1 10  1  0  0  0  0
  2  8  1  0  0  0  0
  3  5  1  6  0  0  0
  3  4  1  0  0  0  0
  3  7  1  0  0  0  0
  4  1  1  1  0  0  0
  4  6  1  0  0  0  0
  6  8  2  0  0  0  0
  7  2  1  0  0  0  0
  9  7  2  0  0  0  0
 11 10  1  0  0  0  0
 11 12  1  0  0  0  0
 12 13  2  0  0  0  0
 15 14  1  6  0  0  0
 16 12  1  1  0  0  0
 16 15  1  0  0  0  0
 17 18  1  6  0  0  0
 17 16  1  0  0  0  0
 17 15  1  0  0  0  0
 18 14  1  0  0  0  0
 20 19  1  0  0  0  0
 21 22  1  6  0  0  0
 21 23  1  0  0  0  0
 21 20  1  0  0  0  0
 23 24  1  0  0  0  0
 24 27  1  0  0  0  0
 27 26  2  0  0  0  0
 27 25  1  0  0  0  0
M  END
>  <MODEL>
5

>  <REMARK>
 VINA RESULT:      -6.3      2.135      6.815
  Name = 
  10 active torsions:
  status: ('A' for Active; 'I' for Inactive)
    1  A    between atoms: C_2  and  O_11
    2  A    between atoms: C_2  and  C_14
    3  A    between atoms: C_4  and  C_14
    4  A    between atoms: C_4  and  C_18
    5  A    between atoms: C_5  and  C_23
    6  A    between atoms: O_11  and  O_24
    7  A    between atoms: N_17  and  N_21
    8  A    between atoms: C_19  and  C_25
    9  A    between atoms: N_21  and  C_23
   10  A    between atoms: C_23  and  O_24
                            x       y       z     vdW  Elec       q    Type
                         _______ _______ _______ _____ _____    ______ ____

>  <TORSDO>
F 10

$$$$
=
 OpenBabel11042414233D

 27 29  0  0  1  0  0  0  0  0999 V2000
  190.8070  176.3030  145.4440 C   0  0  1  0  0  3  0  0  0  0  0  0
  194.8750  174.7520  145.6900 C   0  0  0  0  0  2  0  0  0  0  0  0
  192.3190  174.2700  145.3860 C   0  0  1  0  0  3  0  0  0  0  0  0
  192.2490  175.8060  145.2780 C   0  0  2  0  0  3  0  0  0  0  0  0
  191.7340  173.6420  144.1310 C   0  0  0  0  0  1  0  0  0  0  0  0
  193.2050  176.4830  146.2340 C   0  0  0  0  0  3  0  0  0  0  0  0
  193.7340  173.7770  145.5980 C   0  0  0  0  0  0  0  0  0  0  0  0
  194.4340  175.9880  146.4210 C   0  0  0  0  0  3  0  0  0  0  0  0
  193.9570  172.5820  145.7070 O   0  0  0  0  0  0  0  0  0  0  0  0
  190.4960  176.6840  146.8210 N   0  0  0  0  0  2  0  0  0  0  0  0
  189.3430  177.4830  146.7850 N   0  0  0  0  0  2  0  0  0  0  0  0
  188.0350  176.9230  146.9420 C   0  0  0  0  0  0  0  0  0  0  0  0
  187.8870  175.6750  147.0450 O   0  0  0  0  0  0  0  0  0  0  0  0
  184.4750  178.0550  146.2490 C   0  0  0  0  0  2  0  0  0  0  0  0
  185.6790  177.1380  146.2330 C   0  0  2  0  0  3  0  0  0  0  0  0
  186.8380  177.8160  146.9390 C   0  0  2  0  0  3  0  0  0  0  0  0
  186.4800  178.2020  145.5160 C   0  0  2  0  0  3  0  0  0  0  0  0
  185.2750  179.1190  145.5290 C   0  0  0  0  0  2  0  0  0  0  0  0
  190.4660  177.3140  144.5200 O   0  0  0  0  0  0  0  0  0  0  0  0
  190.0740  176.7170  143.4080 O   0  0  0  0  0  0  0  0  0  0  0  0
  188.9240  177.4100  143.0160 C   0  0  1  0  0  3  0  0  0  0  0  0
  189.2340  178.3000  141.9880 O   0  0  0  0  0  1  0  0  0  0  0  0
  187.8320  176.4370  142.5820 C   0  0  0  0  0  2  0  0  0  0  0  0
  187.1960  176.8160  141.2470 C   0  0  0  0  0  2  0  0  0  0  0  0
  185.3310  178.3200  140.4470 N   0  0  0  0  0  1  0  0  0  0  0  0
  185.2180  177.2470  142.5040 O   0  0  0  0  0  0  0  0  0  0  0  0
  185.8680  177.4630  141.4490 C   0  0  0  0  0  0  0  0  0  0  0  0
  1 19  1  6  0  0  0
  1 10  1  0  0  0  0
  2  8  1  0  0  0  0
  3  5  1  6  0  0  0
  3  7  1  0  0  0  0
  4  3  1  0  0  0  0
  4  1  1  1  0  0  0
  4  6  1  0  0  0  0
  6  8  2  0  0  0  0
  7  2  1  0  0  0  0
  7  9  2  0  0  0  0
 11 10  1  0  0  0  0
 11 12  1  0  0  0  0
 12 13  2  0  0  0  0
 15 14  1  1  0  0  0
 15 16  1  0  0  0  0
 16 12  1  6  0  0  0
 17 18  1  1  0  0  0
 17 15  1  0  0  0  0
 17 16  1  0  0  0  0
 18 14  1  0  0  0  0
 20 19  1  0  0  0  0
 21 22  1  6  0  0  0
 21 20  1  0  0  0  0
 23 21  1  0  0  0  0
 24 27  1  0  0  0  0
 24 23  1  0  0  0  0
 25 27  1  0  0  0  0
 27 26  2  0  0  0  0
M  END
>  <MODEL>
6

>  <REMARK>
 VINA RESULT:      -6.3      1.793      2.011
  Name = 
  10 active torsions:
  status: ('A' for Active; 'I' for Inactive)
    1  A    between atoms: C_2  and  O_11
    2  A    between atoms: C_2  and  C_14
    3  A    between atoms: C_4  and  C_14
    4  A    between atoms: C_4  and  C_18
    5  A    between atoms: C_5  and  C_23
    6  A    between atoms: O_11  and  O_24
    7  A    between atoms: N_17  and  N_21
    8  A    between atoms: C_19  and  C_25
    9  A    between atoms: N_21  and  C_23
   10  A    between atoms: C_23  and  O_24
                            x       y       z     vdW  Elec       q    Type
                         _______ _______ _______ _____ _____    ______ ____

>  <TORSDO>
F 10

$$$$
=
 OpenBabel11042414233D

 27 29  0  0  1  0  0  0  0  0999 V2000
  188.2580  177.0310  144.7310 C   0  0  1  0  0  3  0  0  0  0  0  0
  184.8960  178.2300  147.2360 C   0  0  0  0  0  2  0  0  0  0  0  0
  185.9880  178.1530  144.8570 C   0  0  1  0  0  3  0  0  0  0  0  0
  186.9850  177.2160  145.5680 C   0  0  2  0  0  3  0  0  0  0  0  0
  185.3610  177.4300  143.6760 C   0  0  0  0  0  1  0  0  0  0  0  0
  187.2840  177.6750  146.9770 C   0  0  0  0  0  3  0  0  0  0  0  0
  184.9070  178.6500  145.7920 C   0  0  0  0  0  0  0  0  0  0  0  0
  186.3030  178.1460  147.7550 C   0  0  0  0  0  3  0  0  0  0  0  0
  184.0410  179.4050  145.3800 O   0  0  0  0  0  0  0  0  0  0  0  0
  189.3730  177.8450  145.2130 N   0  0  0  0  0  2  0  0  0  0  0  0
  190.5070  177.0200  145.2540 N   0  0  0  0  0  2  0  0  0  0  0  0
  191.6250  177.2330  144.3860 C   0  0  0  0  0  0  0  0  0  0  0  0
  191.5820  178.1340  143.5060 O   0  0  0  0  0  0  0  0  0  0  0  0
  194.0200  174.6900  145.8830 C   0  0  0  0  0  2  0  0  0  0  0  0
  192.7980  175.5790  145.7970 C   0  0  2  0  0  3  0  0  0  0  0  0
  192.8280  176.3550  144.4940 C   0  0  2  0  0  3  0  0  0  0  0  0
  193.6900  176.7940  145.6640 C   0  0  2  0  0  3  0  0  0  0  0  0
  194.9130  175.9060  145.7520 C   0  0  0  0  0  2  0  0  0  0  0  0
  188.6160  175.6760  144.5710 O   0  0  0  0  0  0  0  0  0  0  0  0
  188.0320  175.2410  143.4670 O   0  0  0  0  0  0  0  0  0  0  0  0
  188.6940  175.9030  142.4280 C   0  0  1  0  0  3  0  0  0  0  0  0
  189.8720  175.2280  142.1090 O   0  0  0  0  0  1  0  0  0  0  0  0
  187.7880  176.0220  141.2050 C   0  0  0  0  0  2  0  0  0  0  0  0
  187.4540  177.4700  140.8550 C   0  0  0  0  0  2  0  0  0  0  0  0
  186.3870  176.8680  138.6450 N   0  0  0  0  0  1  0  0  0  0  0  0
  185.2800  178.1930  140.1990 O   0  0  0  0  0  0  0  0  0  0  0  0
  186.3130  177.5410  139.8980 C   0  0  0  0  0  0  0  0  0  0  0  0
  1 19  1  1  0  0  0
  1 10  1  0  0  0  0
  2  8  1  0  0  0  0
  3  5  1  6  0  0  0
  3  4  1  0  0  0  0
  3  7  1  0  0  0  0
  4  1  1  6  0  0  0
  4  6  1  0  0  0  0
  6  8  2  0  0  0  0
  7  2  1  0  0  0  0
  9  7  2  0  0  0  0
 10 11  1  0  0  0  0
 12 11  1  0  0  0  0
 13 12  2  0  0  0  0
 15 14  1  6  0  0  0
 16 12  1  1  0  0  0
 16 17  1  0  0  0  0
 16 15  1  0  0  0  0
 17 18  1  6  0  0  0
 17 15  1  0  0  0  0
 18 14  1  0  0  0  0
 20 19  1  0  0  0  0
 21 22  1  6  0  0  0
 21 20  1  0  0  0  0
 23 21  1  0  0  0  0
 24 23  1  0  0  0  0
 25 27  1  0  0  0  0
 27 26  2  0  0  0  0
 27 24  1  0  0  0  0
M  END
>  <MODEL>
7

>  <REMARK>
 VINA RESULT:      -6.2      2.146      6.215
  Name = 
  10 active torsions:
  status: ('A' for Active; 'I' for Inactive)
    1  A    between atoms: C_2  and  O_11
    2  A    between atoms: C_2  and  C_14
    3  A    between atoms: C_4  and  C_14
    4  A    between atoms: C_4  and  C_18
    5  A    between atoms: C_5  and  C_23
    6  A    between atoms: O_11  and  O_24
    7  A    between atoms: N_17  and  N_21
    8  A    between atoms: C_19  and  C_25
    9  A    between atoms: N_21  and  C_23
   10  A    between atoms: C_23  and  O_24
                            x       y       z     vdW  Elec       q    Type
                         _______ _______ _______ _____ _____    ______ ____

>  <TORSDO>
F 10

$$$$
=
 OpenBabel11042414233D

 27 29  0  0  1  0  0  0  0  0999 V2000
  190.8660  176.3780  145.4580 C   0  0  1  0  0  3  0  0  0  0  0  0
  194.9320  174.8340  145.7640 C   0  0  0  0  0  2  0  0  0  0  0  0
  192.3850  174.3500  145.3980 C   0  0  1  0  0  3  0  0  0  0  0  0
  192.3120  175.8870  145.3150 C   0  0  2  0  0  3  0  0  0  0  0  0
  191.8280  173.7410  144.1210 C   0  0  0  0  0  1  0  0  0  0  0  0
  193.2460  176.5500  146.3010 C   0  0  0  0  0  3  0  0  0  0  0  0
  193.7970  173.8570  145.6320 C   0  0  0  0  0  0  0  0  0  0  0  0
  194.4720  176.0560  146.5060 C   0  0  0  0  0  3  0  0  0  0  0  0
  194.0200  172.6610  145.7260 O   0  0  0  0  0  0  0  0  0  0  0  0
  190.5140  176.7020  146.8400 N   0  0  0  0  0  2  0  0  0  0  0  0
  189.3660  177.5070  146.8030 N   0  0  0  0  0  2  0  0  0  0  0  0
  188.0520  176.9480  146.8920 C   0  0  0  0  0  0  0  0  0  0  0  0
  187.8950  175.6980  146.9330 O   0  0  0  0  0  0  0  0  0  0  0  0
  184.4570  178.0450  146.3340 C   0  0  0  0  0  2  0  0  0  0  0  0
  185.6550  177.1210  146.3190 C   0  0  2  0  0  3  0  0  0  0  0  0
  186.8590  177.8470  146.8900 C   0  0  2  0  0  3  0  0  0  0  0  0
  186.4110  178.1150  145.4650 C   0  0  2  0  0  3  0  0  0  0  0  0
  185.2120  179.0390  145.4780 C   0  0  0  0  0  2  0  0  0  0  0  0
  190.5510  177.4250  144.5670 O   0  0  0  0  0  0  0  0  0  0  0  0
  190.2440  176.8770  143.4050 O   0  0  0  0  0  0  0  0  0  0  0  0
  188.9880  177.4010  143.0830 C   0  0  1  0  0  3  0  0  0  0  0  0
  189.1050  178.2940  142.0180 O   0  0  0  0  0  1  0  0  0  0  0  0
  188.0080  176.2790  142.7460 C   0  0  0  0  0  2  0  0  0  0  0  0
  188.5460  174.8960  143.1050 C   0  0  0  0  0  2  0  0  0  0  0  0
  187.8210  172.7560  141.9760 N   0  0  0  0  0  1  0  0  0  0  0  0
  189.1390  174.3170  140.8710 O   0  0  0  0  0  0  0  0  0  0  0  0
  188.5290  173.9900  141.9220 C   0  0  0  0  0  0  0  0  0  0  0  0
  1 19  1  6  0  0  0
  1 10  1  0  0  0  0
  2  8  1  0  0  0  0
  3  5  1  6  0  0  0
  3  7  1  0  0  0  0
  4  3  1  0  0  0  0
  4  1  1  1  0  0  0
  4  6  1  0  0  0  0
  6  8  2  0  0  0  0
  7  9  2  0  0  0  0
  7  2  1  0  0  0  0
 11 10  1  0  0  0  0
 11 12  1  0  0  0  0
 12 13  2  0  0  0  0
 15 14  1  1  0  0  0
 15 16  1  0  0  0  0
 16 12  1  6  0  0  0
 17 18  1  1  0  0  0
 17 15  1  0  0  0  0
 17 16  1  0  0  0  0
 18 14  1  0  0  0  0
 20 19  1  0  0  0  0
 21 22  1  6  0  0  0
 21 20  1  0  0  0  0
 23 21  1  0  0  0  0
 23 24  1  0  0  0  0
 26 27  2  0  0  0  0
 27 25  1  0  0  0  0
 27 24  1  0  0  0  0
M  END
>  <MODEL>
8

>  <REMARK>
 VINA RESULT:      -6.2      2.243      2.985
  Name = 
  10 active torsions:
  status: ('A' for Active; 'I' for Inactive)
    1  A    between atoms: C_2  and  O_11
    2  A    between atoms: C_2  and  C_14
    3  A    between atoms: C_4  and  C_14
    4  A    between atoms: C_4  and  C_18
    5  A    between atoms: C_5  and  C_23
    6  A    between atoms: O_11  and  O_24
    7  A    between atoms: N_17  and  N_21
    8  A    between atoms: C_19  and  C_25
    9  A    between atoms: N_21  and  C_23
   10  A    between atoms: C_23  and  O_24
                            x       y       z     vdW  Elec       q    Type
                         _______ _______ _______ _____ _____    ______ ____

>  <TORSDO>
F 10

$$$$
=
 OpenBabel11042414233D

 27 29  0  0  1  0  0  0  0  0999 V2000
  188.9880  177.0380  143.6740 C   0  0  1  0  0  3  0  0  0  0  0  0
  185.3290  178.2330  141.6250 C   0  0  0  0  0  2  0  0  0  0  0  0
  187.6470  177.0190  141.5240 C   0  0  1  0  0  3  0  0  0  0  0  0
  187.6020  177.2410  143.0480 C   0  0  2  0  0  3  0  0  0  0  0  0
  187.7970  175.5350  141.2280 C   0  0  0  0  0  1  0  0  0  0  0  0
  186.9990  178.5800  143.4060 C   0  0  0  0  0  3  0  0  0  0  0  0
  186.4150  177.5620  140.8320 C   0  0  0  0  0  0  0  0  0  0  0  0
  185.9340  179.0390  142.7400 C   0  0  0  0  0  3  0  0  0  0  0  0
  186.3010  177.4660  139.6200 O   0  0  0  0  0  0  0  0  0  0  0  0
  190.0040  177.9160  143.0940 N   0  0  0  0  0  2  0  0  0  0  0  0
  191.1640  177.7850  143.8710 N   0  0  0  0  0  2  0  0  0  0  0  0
  192.1730  176.8190  143.5610 C   0  0  0  0  0  0  0  0  0  0  0  0
  192.0030  176.0050  142.6130 O   0  0  0  0  0  0  0  0  0  0  0  0
  195.1240  175.2490  145.3690 C   0  0  0  0  0  2  0  0  0  0  0  0
  193.8630  175.3020  144.5330 C   0  0  2  0  0  3  0  0  0  0  0  0
  193.4120  176.7440  144.3910 C   0  0  2  0  0  3  0  0  0  0  0  0
  193.1350  175.9790  145.6720 C   0  0  2  0  0  3  0  0  0  0  0  0
  194.3940  175.9240  146.5110 C   0  0  0  0  0  2  0  0  0  0  0  0
  188.9680  177.1040  145.0840 O   0  0  0  0  0  0  0  0  0  0  0  0
  188.0400  176.2620  145.5050 O   0  0  0  0  0  0  0  0  0  0  0  0
  187.9700  176.4690  146.8870 C   0  0  1  0  0  3  0  0  0  0  0  0
  188.7050  177.6020  147.2360 O   0  0  0  0  0  1  0  0  0  0  0  0
  186.5170  176.6040  147.3360 C   0  0  0  0  0  2  0  0  0  0  0  0
  185.5750  176.9670  146.1920 C   0  0  0  0  0  2  0  0  0  0  0  0
  185.6240  179.2660  147.2380 N   0  0  0  0  0  1  0  0  0  0  0  0
  183.8970  178.6200  145.8250 O   0  0  0  0  0  0  0  0  0  0  0  0
  184.9750  178.3170  146.3970 C   0  0  0  0  0  0  0  0  0  0  0  0
  1 10  1  6  0  0  0
  1 19  1  0  0  0  0
  2  8  1  0  0  0  0
  3  5  1  1  0  0  0
  3  4  1  0  0  0  0
  4  6  1  0  0  0  0
  4  1  1  6  0  0  0
  7  3  1  0  0  0  0
  7  2  1  0  0  0  0
  8  6  2  0  0  0  0
  9  7  2  0  0  0  0
 10 11  1  0  0  0  0
 12 11  1  0  0  0  0
 13 12  2  0  0  0  0
 14 18  1  0  0  0  0
 15 14  1  1  0  0  0
 15 17  1  0  0  0  0
 16 12  1  6  0  0  0
 16 15  1  0  0  0  0
 16 17  1  0  0  0  0
 17 18  1  1  0  0  0
 19 20  1  0  0  0  0
 20 21  1  0  0  0  0
 21 22  1  6  0  0  0
 21 23  1  0  0  0  0
 24 27  1  0  0  0  0
 24 23  1  0  0  0  0
 26 27  2  0  0  0  0
 27 25  1  0  0  0  0
M  END
>  <MODEL>
9

>  <REMARK>
 VINA RESULT:      -6.2      1.997      6.323
  Name = 
  10 active torsions:
  status: ('A' for Active; 'I' for Inactive)
    1  A    between atoms: C_2  and  O_11
    2  A    between atoms: C_2  and  C_14
    3  A    between atoms: C_4  and  C_14
    4  A    between atoms: C_4  and  C_18
    5  A    between atoms: C_5  and  C_23
    6  A    between atoms: O_11  and  O_24
    7  A    between atoms: N_17  and  N_21
    8  A    between atoms: C_19  and  C_25
    9  A    between atoms: N_21  and  C_23
   10  A    between atoms: C_23  and  O_24
                            x       y       z     vdW  Elec       q    Type
                         _______ _______ _______ _____ _____    ______ ____

>  <TORSDO>
F 10

$$$$
