=
 OpenBabel11042414193D

 65 72  0  0  1  0  0  0  0  0999 V2000
  195.6930  173.5720  144.2920 C   0  0  2  0  0  3  0  0  0  0  0  0
  194.7720  173.8900  141.9090 C   0  0  0  0  0  0  0  0  0  0  0  0
  196.2550  174.5890  140.1490 N   0  0  0  0  0  0  0  0  0  0  0  0
  193.4910  173.6020  142.3660 O   0  0  0  0  0  1  0  0  0  0  0  0
  197.4400  174.1170  140.8770 C   0  0  0  0  0  2  0  0  0  0  0  0
  194.9450  174.2930  140.6490 C   0  0  0  0  0  3  0  0  0  0  0  0
  197.1690  173.9720  142.3490 C   0  0  0  0  0  3  0  0  0  0  0  0
  195.9290  173.7890  142.8220 C   0  0  0  0  0  0  0  0  0  0  0  0
  196.3400  175.1760  138.8100 C   0  0  0  0  0  2  0  0  0  0  0  0
  196.8560  174.2090  137.7490 C   0  0  0  0  0  2  0  0  0  0  0  0
  196.1390  174.3590  136.5620 O   0  0  0  0  0  0  0  0  0  0  0  0
  194.8510  174.6950  136.9760 C   0  0  0  0  0  2  0  0  0  0  0  0
  190.2180  172.8210  136.4210 C   0  0  0  0  0  2  0  0  0  0  0  0
  191.5670  170.2080  136.5730 C   0  0  0  0  0  2  0  0  0  0  0  0
  189.5020  171.5750  135.9030 C   0  0  0  0  0  2  0  0  0  0  0  0
  191.6740  172.6540  136.3790 N   0  0  0  0  0  0  0  0  0  0  0  0
  190.0340  170.3280  136.6090 C   0  0  0  0  0  2  0  0  0  0  0  0
  192.0290  174.8690  137.0340 O   0  0  0  0  0  0  0  0  0  0  0  0
  192.5290  173.7530  136.7180 C   0  0  0  0  0  0  0  0  0  0  0  0
  192.2550  171.3970  135.9040 C   0  0  0  0  0  2  0  0  0  0  0  0
  193.9500  173.5870  136.7110 N   0  0  0  0  0  2  0  0  0  0  0  0
  195.9550  174.8490  145.0720 C   0  0  0  0  0  2  0  0  0  0  0  0
  194.7230  176.4400  146.4500 O   0  0  0  0  0  0  0  0  0  0  0  0
  192.2780  176.6350  143.7800 C   0  0  0  0  0  1  0  0  0  0  0  0
  192.6030  176.6710  145.2720 C   0  0  2  0  0  3  0  0  0  0  0  0
  194.0520  177.1530  145.4320 C   0  0  0  0  0  2  0  0  0  0  0  0
  193.5100  174.4700  145.5850 C   0  0  0  0  0  2  0  0  0  0  0  0
  192.4170  175.3670  145.9440 N   0  0  0  0  0  0  0  0  0  0  0  0
  194.8350  175.0720  146.0790 C   0  0  1  0  0  3  0  0  0  0  0  0
  191.1530  174.7410  145.5740 C   0  0  0  0  0  2  0  0  0  0  0  0
  189.2090  174.5540  147.3100 O   0  0  0  0  0  0  0  0  0  0  0  0
  189.7900  175.6070  146.3760 S   0  0  2  0  0  0  0  0  0  0  0  0
  188.5640  175.7410  145.0600 C   0  0  0  0  0  2  0  0  0  0  0  0
  187.1390  177.5190  143.9250 C   0  0  2  0  0  3  0  0  0  0  0  0
  187.7070  176.9860  145.2430 C   0  0  1  0  0  3  0  0  0  0  0  0
  186.7080  176.7960  146.4010 C   0  0  1  0  0  3  0  0  0  0  0  0
  185.0850  178.3630  145.0600 C   0  0  2  0  0  3  0  0  0  0  0  0
  184.3720  179.5110  145.4010 O   0  0  0  0  0  1  0  0  0  0  0  0
  185.4270  177.5760  146.3330 C   0  0  1  0  0  3  0  0  0  0  0  0
  185.5010  176.2080  145.9810 O   0  0  0  0  0  0  0  0  0  0  0  0
  186.2950  178.7470  144.2210 C   0  0  0  0  0  2  0  0  0  0  0  0
  186.3860  176.5410  143.2630 O   0  0  0  0  0  0  0  0  0  0  0  0
  186.3770  177.3490  141.0300 C   0  0  0  0  0  1  0  0  0  0  0  0
  187.0000  176.3890  142.0180 C   0  0  0  0  0  2  0  0  0  0  0  0
  196.5290  172.4350  144.8580 C   0  0  0  0  0  2  0  0  0  0  0  0
  196.6470  171.3070  143.8460 C   0  0  0  0  0  2  0  0  0  0  0  0
  194.7810  168.9070  146.2790 C   0  0  0  0  0  0  0  0  0  0  0  0
  193.8820  168.3640  145.4490 C   0  0  0  0  0  3  0  0  0  0  0  0
  194.0790  168.4100  143.9560 C   0  0  2  0  0  3  0  0  0  0  0  0
  194.9420  169.5380  143.5300 C   0  0  0  0  0  0  0  0  0  0  0  0
  196.8130  170.1360  146.4940 O   0  0  0  0  0  0  0  0  0  0  0  0
  194.9540  170.7730  141.4750 O   0  0  0  0  0  0  0  0  0  0  0  0
  193.1270  169.2570  142.0680 C   0  0  1  0  0  3  0  0  0  0  0  0
  195.8960  169.7230  145.7360 C   0  0  0  0  0  0  0  0  0  0  0  0
  194.4190  169.9590  142.2740 C   0  0  0  0  0  0  0  0  0  0  0  0
  195.8600  170.1240  144.3130 C   0  0  0  0  0  0  0  0  0  0  0  0
  194.5900  168.7670  147.7490 C   0  0  0  0  0  1  0  0  0  0  0  0
  192.8550  168.5140  143.2500 O   0  0  0  0  0  0  0  0  0  0  0  0
  190.2180  171.5090  142.2490 C   0  0  0  0  0  0  0  0  0  0  0  0
  192.0060  170.2180  141.8110 C   0  0  0  0  0  0  0  0  0  0  0  0
  189.2000  172.1710  143.1160 C   0  0  0  0  0  1  0  0  0  0  0  0
  190.2770  171.6720  140.8680 C   0  0  0  0  0  0  0  0  0  0  0  0
  191.5680  170.7680  140.2810 S   0  0  0  0  0  0  0  0  0  0  0  0
  189.3640  172.5000  140.0320 C   0  0  0  0  0  1  0  0  0  0  0  0
  191.1750  170.6970  142.7680 N   0  0  0  0  0  0  0  0  0  0  0  0
  1 45  1  1  0  0  0
  1 22  1  0  0  0  0
  2  4  1  0  0  0  0
  2  8  1  0  0  0  0
  3  6  1  0  0  0  0
  3  5  1  0  0  0  0
  5  7  1  0  0  0  0
  6  2  2  0  0  0  0
  7  8  2  0  0  0  0
  8  1  1  0  0  0  0
  9  3  1  0  0  0  0
 10  9  1  0  0  0  0
 11 12  1  0  0  0  0
 11 10  1  0  0  0  0
 14 17  1  0  0  0  0
 15 13  1  0  0  0  0
 15 17  1  0  0  0  0
 16 13  1  0  0  0  0
 16 19  1  0  0  0  0
 19 18  2  0  0  0  0
 20 16  1  0  0  0  0
 20 14  1  0  0  0  0
 21 19  1  0  0  0  0
 21 12  1  0  0  0  0
 25 24  1  6  0  0  0
 25 26  1  0  0  0  0
 25 28  1  0  0  0  0
 26 23  1  0  0  0  0
 27 28  1  0  0  0  0
 27 29  1  0  0  0  0
 29 22  1  6  0  0  0
 29 23  1  0  0  0  0
 30 28  1  0  0  0  0
 30 32  1  0  0  0  0
 32 31  2  1  0  0  0
 33 32  1  0  0  0  0
 34 42  1  1  0  0  0
 34 41  1  0  0  0  0
 34 35  1  0  0  0  0
 35 33  1  6  0  0  0
 35 36  1  0  0  0  0
 36 40  1  6  0  0  0
 37 38  1  1  0  0  0
 37 39  1  0  0  0  0
 39 40  1  6  0  0  0
 39 36  1  0  0  0  0
 41 37  1  0  0  0  0
 43 44  1  0  0  0  0
 44 42  1  0  0  0  0
 46 56  1  0  0  0  0
 46 45  1  0  0  0  0
 47 57  1  0  0  0  0
 48 47  2  0  0  0  0
 49 48  1  1  0  0  0
 50 49  1  0  0  0  0
 50 56  2  0  0  0  0
 52 55  2  0  0  0  0
 53 60  1  1  0  0  0
 53 55  1  0  0  0  0
 53 58  1  0  0  0  0
 54 47  1  0  0  0  0
 54 51  2  0  0  0  0
 55 50  1  0  0  0  0
 56 54  1  0  0  0  0
 58 49  1  0  0  0  0
 59 65  1  0  0  0  0
 59 61  1  0  0  0  0
 60 65  2  0  0  0  0
 62 59  2  0  0  0  0
 63 62  1  0  0  0  0
 63 60  1  0  0  0  0
 64 62  1  0  0  0  0
M  END
>  <MODEL>
1

>  <REMARK>
 VINA RESULT:      -7.2      0.000      0.000
  Name = 
  18 active torsions:
  status: ('A' for Active; 'I' for Inactive)
    1  A    between atoms: C_1  and  O_34
    2  A    between atoms: C_2  and  S_30
    3  A    between atoms: C_2  and  N_46
    4  A    between atoms: C_3  and  C_41
    5  A    between atoms: C_3  and  O_47
    6  A    between atoms: C_10  and  C_40
    7  A    between atoms: C_13  and  C_28
    8  A    between atoms: C_13  and  C_59
    9  A    between atoms: N_15  and  C_41
   10  A    between atoms: C_20  and  C_52
   11  A    between atoms: C_25  and  O_47
   12  A    between atoms: C_25  and  N_63
   13  A    between atoms: C_28  and  C_32
   14  A    between atoms: C_28  and  C_65
   15  A    between atoms: S_30  and  C_52
   16  A    between atoms: C_32  and  C_62
   17  A    between atoms: O_34  and  C_36
   18  A    between atoms: C_56  and  C_59
                            x       y       z     vdW  Elec       q    Type
                         _______ _______ _______ _____ _____    ______ ____

>  <TORSDO>
F 18

$$$$
=
 OpenBabel11042414193D

 65 72  0  0  1  0  0  0  0  0999 V2000
  190.3500  171.4140  139.5330 C   0  0  2  0  0  3  0  0  0  0  0  0
  189.0990  172.5760  141.4590 C   0  0  0  0  0  0  0  0  0  0  0  0
  188.3820  174.8570  141.2010 N   0  0  0  0  0  0  0  0  0  0  0  0
  189.2640  171.4440  142.2490 O   0  0  0  0  0  1  0  0  0  0  0  0
  188.4210  174.7680  139.7350 C   0  0  0  0  0  2  0  0  0  0  0  0
  188.5710  173.6780  141.9940 C   0  0  0  0  0  3  0  0  0  0  0  0
  189.2880  173.6310  139.2680 C   0  0  0  0  0  3  0  0  0  0  0  0
  189.5400  172.5720  140.0500 C   0  0  0  0  0  0  0  0  0  0  0  0
  187.9470  176.0680  141.9010 C   0  0  0  0  0  2  0  0  0  0  0  0
  187.5810  177.2170  140.9660 C   0  0  0  0  0  2  0  0  0  0  0  0
  186.3210  177.0060  140.4050 O   0  0  0  0  0  0  0  0  0  0  0  0
  185.4870  177.8940  141.0840 C   0  0  0  0  0  2  0  0  0  0  0  0
  184.0690  178.6030  145.8560 C   0  0  0  0  0  2  0  0  0  0  0  0
  186.8880  178.0280  146.4780 C   0  0  0  0  0  2  0  0  0  0  0  0
  184.4560  178.1960  147.2760 C   0  0  0  0  0  2  0  0  0  0  0  0
  185.0300  178.0910  144.8750 N   0  0  0  0  0  0  0  0  0  0  0  0
  185.9180  178.5540  147.5480 C   0  0  0  0  0  2  0  0  0  0  0  0
  183.7330  178.8500  143.0840 O   0  0  0  0  0  0  0  0  0  0  0  0
  184.7840  178.2690  143.4730 C   0  0  0  0  0  0  0  0  0  0  0  0
  186.1910  177.3170  145.3190 C   0  0  0  0  0  2  0  0  0  0  0  0
  185.7340  177.7990  142.5120 N   0  0  0  0  0  2  0  0  0  0  0  0
  191.8360  171.6700  139.7190 C   0  0  0  0  0  2  0  0  0  0  0  0
  192.9640  169.9550  141.0340 O   0  0  0  0  0  0  0  0  0  0  0  0
  195.9490  172.0060  140.8800 C   0  0  0  0  0  1  0  0  0  0  0  0
  195.0710  171.0150  141.6420 C   0  0  2  0  0  3  0  0  0  0  0  0
  194.2930  170.1810  140.6140 C   0  0  0  0  0  2  0  0  0  0  0  0
  193.0440  172.2830  141.8520 C   0  0  0  0  0  2  0  0  0  0  0  0
  194.1410  171.6650  142.5890 N   0  0  0  0  0  0  0  0  0  0  0  0
  192.2670  171.1930  141.0980 C   0  0  1  0  0  3  0  0  0  0  0  0
  194.8060  172.6860  143.3900 C   0  0  0  0  0  2  0  0  0  0  0  0
  193.9750  170.9120  145.1190 O   0  0  0  0  0  0  0  0  0  0  0  0
  194.7720  172.2100  145.1280 S   0  0  2  0  0  0  0  0  0  0  0  0
  193.6360  173.4090  145.8560 C   0  0  0  0  0  2  0  0  0  0  0  0
  191.7040  174.4720  144.5850 C   0  0  2  0  0  3  0  0  0  0  0  0
  193.2160  174.4500  144.8270 C   0  0  1  0  0  3  0  0  0  0  0  0
  193.8920  175.8040  145.1150 C   0  0  1  0  0  3  0  0  0  0  0  0
  191.7380  176.9220  144.1170 C   0  0  2  0  0  3  0  0  0  0  0  0
  191.5350  177.8880  143.1330 O   0  0  0  0  0  1  0  0  0  0  0  0
  193.1680  177.0390  144.6620 C   0  0  1  0  0  3  0  0  0  0  0  0
  193.1490  176.6000  146.0060 O   0  0  0  0  0  0  0  0  0  0  0  0
  191.3940  175.5490  143.5590 C   0  0  0  0  0  2  0  0  0  0  0  0
  191.0020  174.6980  145.7760 O   0  0  0  0  0  0  0  0  0  0  0  0
  189.7720  172.7080  145.3650 C   0  0  0  0  0  1  0  0  0  0  0  0
  189.7150  174.2090  145.5380 C   0  0  0  0  0  2  0  0  0  0  0  0
  190.0550  171.0980  138.0740 C   0  0  0  0  0  2  0  0  0  0  0  0
  191.3420  171.0740  137.2650 C   0  0  0  0  0  2  0  0  0  0  0  0
  190.2710  174.4160  135.5770 C   0  0  0  0  0  0  0  0  0  0  0  0
  191.4600  175.0120  135.4330 C   0  0  0  0  0  3  0  0  0  0  0  0
  192.7370  174.2130  135.4770 C   0  0  2  0  0  3  0  0  0  0  0  0
  192.5930  172.9510  136.2410 C   0  0  0  0  0  0  0  0  0  0  0  0
  189.0920  172.3830  135.9860 O   0  0  0  0  0  0  0  0  0  0  0  0
  194.2250  171.7130  137.4870 O   0  0  0  0  0  0  0  0  0  0  0  0
  194.6470  173.9910  136.6990 C   0  0  1  0  0  3  0  0  0  0  0  0
  190.1990  172.9850  135.9650 C   0  0  0  0  0  0  0  0  0  0  0  0
  193.8500  172.7520  136.8810 C   0  0  0  0  0  0  0  0  0  0  0  0
  191.4320  172.3060  136.4210 C   0  0  0  0  0  0  0  0  0  0  0  0
  189.0300  175.2280  135.4440 C   0  0  0  0  0  1  0  0  0  0  0  0
  193.8120  174.9400  136.0470 O   0  0  0  0  0  0  0  0  0  0  0  0
  194.9770  175.4530  140.0630 C   0  0  0  0  0  0  0  0  0  0  0  0
  195.1130  174.5500  138.0090 C   0  0  0  0  0  0  0  0  0  0  0  0
  194.2800  175.9270  141.2950 C   0  0  0  0  0  1  0  0  0  0  0  0
  196.3570  175.4930  139.8950 C   0  0  0  0  0  0  0  0  0  0  0  0
  196.7260  174.8610  138.3800 S   0  0  0  0  0  0  0  0  0  0  0  0
  197.3560  176.0040  140.8730 C   0  0  0  0  0  1  0  0  0  0  0  0
  194.2880  174.9360  139.0120 N   0  0  0  0  0  0  0  0  0  0  0  0
  1 45  1  6  0  0  0
  1 22  1  0  0  0  0
  1  8  1  0  0  0  0
  2  6  2  0  0  0  0
  2  4  1  0  0  0  0
  3  9  1  0  0  0  0
  3  6  1  0  0  0  0
  5  3  1  0  0  0  0
  7  5  1  0  0  0  0
  7  8  2  0  0  0  0
  8  2  1  0  0  0  0
 10  9  1  0  0  0  0
 11 10  1  0  0  0  0
 11 12  1  0  0  0  0
 12 21  1  0  0  0  0
 13 15  1  0  0  0  0
 14 17  1  0  0  0  0
 15 17  1  0  0  0  0
 16 20  1  0  0  0  0
 16 13  1  0  0  0  0
 18 19  2  0  0  0  0
 19 16  1  0  0  0  0
 20 14  1  0  0  0  0
 21 19  1  0  0  0  0
 23 29  1  0  0  0  0
 25 24  1  6  0  0  0
 25 28  1  0  0  0  0
 26 23  1  0  0  0  0
 26 25  1  0  0  0  0
 27 28  1  0  0  0  0
 28 30  1  0  0  0  0
 29 22  1  6  0  0  0
 29 27  1  0  0  0  0
 30 32  1  0  0  0  0
 32 31  2  6  0  0  0
 32 33  1  0  0  0  0
 34 35  1  0  0  0  0
 34 42  1  1  0  0  0
 35 36  1  0  0  0  0
 35 33  1  1  0  0  0
 36 40  1  1  0  0  0
 37 38  1  6  0  0  0
 37 39  1  0  0  0  0
 39 36  1  0  0  0  0
 39 40  1  1  0  0  0
 41 37  1  0  0  0  0
 41 34  1  0  0  0  0
 43 44  1  0  0  0  0
 44 42  1  0  0  0  0
 46 45  1  0  0  0  0
 47 54  1  0  0  0  0
 48 47  2  0  0  0  0
 49 48  1  1  0  0  0
 49 58  1  0  0  0  0
 49 50  1  0  0  0  0
 50 56  2  0  0  0  0
 50 55  1  0  0  0  0
 53 55  1  0  0  0  0
 53 60  1  1  0  0  0
 54 51  2  0  0  0  0
 54 56  1  0  0  0  0
 55 52  2  0  0  0  0
 56 46  1  0  0  0  0
 57 47  1  0  0  0  0
 58 53  1  0  0  0  0
 59 61  1  0  0  0  0
 60 63  1  0  0  0  0
 60 65  2  0  0  0  0
 62 59  2  0  0  0  0
 62 64  1  0  0  0  0
 63 62  1  0  0  0  0
 65 59  1  0  0  0  0
M  END
>  <MODEL>
2

>  <REMARK>
 VINA RESULT:      -7.1      2.710      8.861
  Name = 
  18 active torsions:
  status: ('A' for Active; 'I' for Inactive)
    1  A    between atoms: C_1  and  O_34
    2  A    between atoms: C_2  and  S_30
    3  A    between atoms: C_2  and  N_46
    4  A    between atoms: C_3  and  C_41
    5  A    between atoms: C_3  and  O_47
    6  A    between atoms: C_10  and  C_40
    7  A    between atoms: C_13  and  C_28
    8  A    between atoms: C_13  and  C_59
    9  A    between atoms: N_15  and  C_41
   10  A    between atoms: C_20  and  C_52
   11  A    between atoms: C_25  and  O_47
   12  A    between atoms: C_25  and  N_63
   13  A    between atoms: C_28  and  C_32
   14  A    between atoms: C_28  and  C_65
   15  A    between atoms: S_30  and  C_52
   16  A    between atoms: C_32  and  C_62
   17  A    between atoms: O_34  and  C_36
   18  A    between atoms: C_56  and  C_59
                            x       y       z     vdW  Elec       q    Type
                         _______ _______ _______ _____ _____    ______ ____

>  <TORSDO>
F 18

$$$$
=
 OpenBabel11042414193D

 65 72  0  0  1  0  0  0  0  0999 V2000
  191.8790  171.5230  141.3470 C   0  0  2  0  0  3  0  0  0  0  0  0
  194.4140  171.9330  141.5170 C   0  0  0  0  0  0  0  0  0  0  0  0
  195.8170  170.2750  142.5500 N   0  0  0  0  0  0  0  0  0  0  0  0
  194.2470  173.1950  140.9560 O   0  0  0  0  0  1  0  0  0  0  0  0
  194.8310  169.2100  142.3210 C   0  0  0  0  0  2  0  0  0  0  0  0
  195.6140  171.5720  141.9740 C   0  0  0  0  0  3  0  0  0  0  0  0
  193.4530  169.7670  142.0890 C   0  0  0  0  0  3  0  0  0  0  0  0
  193.2650  171.0150  141.6400 C   0  0  0  0  0  0  0  0  0  0  0  0
  197.1180  170.0170  143.1700 C   0  0  0  0  0  2  0  0  0  0  0  0
  197.0310  169.2230  144.4700 C   0  0  0  0  0  2  0  0  0  0  0  0
  196.1760  169.8560  145.3720 O   0  0  0  0  0  0  0  0  0  0  0  0
  196.9440  170.8880  145.9100 C   0  0  0  0  0  2  0  0  0  0  0  0
  196.2260  175.5720  144.2270 C   0  0  0  0  0  2  0  0  0  0  0  0
  194.2700  175.7520  146.4200 C   0  0  0  0  0  2  0  0  0  0  0  0
  195.1590  176.6630  144.1930 C   0  0  0  0  0  2  0  0  0  0  0  0
  195.7840  174.4200  145.0190 N   0  0  0  0  0  0  0  0  0  0  0  0
  194.6920  176.9910  145.6120 C   0  0  0  0  0  2  0  0  0  0  0  0
  197.6830  173.1880  144.4410 O   0  0  0  0  0  0  0  0  0  0  0  0
  196.5970  173.2410  145.0820 C   0  0  0  0  0  0  0  0  0  0  0  0
  194.4730  174.4370  145.6700 C   0  0  0  0  0  2  0  0  0  0  0  0
  196.1870  172.1260  145.8790 N   0  0  0  0  0  2  0  0  0  0  0  0
  190.8400  170.7270  142.1190 C   0  0  0  0  0  2  0  0  0  0  0  0
  190.0610  171.8490  144.1390 O   0  0  0  0  0  0  0  0  0  0  0  0
  192.0440  174.7140  143.1370 C   0  0  0  0  0  1  0  0  0  0  0  0
  190.7990  174.1480  143.8190 C   0  0  2  0  0  3  0  0  0  0  0  0
  191.1370  172.7420  144.3350 C   0  0  0  0  0  2  0  0  0  0  0  0
  189.7610  173.0070  141.9790 C   0  0  0  0  0  2  0  0  0  0  0  0
  189.6160  174.1010  142.9330 N   0  0  0  0  0  0  0  0  0  0  0  0
  189.8310  171.6780  142.7460 C   0  0  1  0  0  3  0  0  0  0  0  0
  189.4380  175.3480  142.1980 C   0  0  0  0  0  2  0  0  0  0  0  0
  187.9490  175.4220  140.0520 O   0  0  0  0  0  0  0  0  0  0  0  0
  187.7550  175.4420  141.5630 S   0  0  2  0  0  0  0  0  0  0  0  0
  187.2810  177.1470  141.9150 C   0  0  0  0  0  2  0  0  0  0  0  0
  186.7580  177.0130  144.4020 C   0  0  2  0  0  3  0  0  0  0  0  0
  186.2020  177.1980  142.9870 C   0  0  1  0  0  3  0  0  0  0  0  0
  185.2660  178.4010  142.7630 C   0  0  1  0  0  3  0  0  0  0  0  0
  184.9950  178.4870  145.3720 C   0  0  2  0  0  3  0  0  0  0  0  0
  183.8840  178.5180  146.2130 O   0  0  0  0  0  1  0  0  0  0  0  0
  184.5930  178.9780  143.9740 C   0  0  1  0  0  3  0  0  0  0  0  0
  185.7330  179.5730  143.3870 O   0  0  0  0  0  0  0  0  0  0  0  0
  185.6070  177.0940  145.3910 C   0  0  0  0  0  2  0  0  0  0  0  0
  187.7370  177.9720  144.6930 O   0  0  0  0  0  0  0  0  0  0  0  0
  190.0950  177.7500  144.8730 C   0  0  0  0  0  1  0  0  0  0  0  0
  188.7440  177.2730  145.3610 C   0  0  0  0  0  2  0  0  0  0  0  0
  191.5510  171.5040  139.8620 C   0  0  0  0  0  2  0  0  0  0  0  0
  191.8140  170.1260  139.2760 C   0  0  0  0  0  2  0  0  0  0  0  0
  190.4910  170.9840  135.7160 C   0  0  0  0  0  0  0  0  0  0  0  0
  191.6410  171.0420  135.0330 C   0  0  0  0  0  3  0  0  0  0  0  0
  192.8930  170.3950  135.5670 C   0  0  2  0  0  3  0  0  0  0  0  0
  192.8770  170.2560  137.0430 C   0  0  0  0  0  0  0  0  0  0  0  0
  189.3830  170.2660  137.7020 O   0  0  0  0  0  0  0  0  0  0  0  0
  194.6970  170.2300  138.6030 O   0  0  0  0  0  0  0  0  0  0  0  0
  194.9940  170.9180  136.2740 C   0  0  1  0  0  3  0  0  0  0  0  0
  190.4740  170.4380  137.0960 C   0  0  0  0  0  0  0  0  0  0  0  0
  194.2280  170.4410  137.4520 C   0  0  0  0  0  0  0  0  0  0  0  0
  191.7610  170.1920  137.7830 C   0  0  0  0  0  0  0  0  0  0  0  0
  189.2590  171.5630  135.1150 C   0  0  0  0  0  1  0  0  0  0  0  0
  194.0650  171.1100  135.2140 O   0  0  0  0  0  0  0  0  0  0  0  0
  196.2370  174.1070  137.6340 C   0  0  0  0  0  0  0  0  0  0  0  0
  195.7050  172.2070  136.5570 C   0  0  0  0  0  0  0  0  0  0  0  0
  196.1910  175.0920  138.7540 C   0  0  0  0  0  1  0  0  0  0  0  0
  197.0290  174.2650  136.5000 C   0  0  0  0  0  0  0  0  0  0  0  0
  196.7930  172.9350  135.4990 S   0  0  0  0  0  0  0  0  0  0  0  0
  197.9360  175.4080  136.2030 C   0  0  0  0  0  1  0  0  0  0  0  0
  195.4990  172.9670  137.6590 N   0  0  0  0  0  0  0  0  0  0  0  0
  1 45  1  6  0  0  0
  1  8  1  0  0  0  0
  1 22  1  0  0  0  0
  2  8  1  0  0  0  0
  2  6  2  0  0  0  0
  3  9  1  0  0  0  0
  4  2  1  0  0  0  0
  5  3  1  0  0  0  0
  6  3  1  0  0  0  0
  7  5  1  0  0  0  0
  8  7  2  0  0  0  0
  9 10  1  0  0  0  0
 10 11  1  0  0  0  0
 11 12  1  0  0  0  0
 13 16  1  0  0  0  0
 15 13  1  0  0  0  0
 15 17  1  0  0  0  0
 16 19  1  0  0  0  0
 16 20  1  0  0  0  0
 17 14  1  0  0  0  0
 18 19  2  0  0  0  0
 19 21  1  0  0  0  0
 20 14  1  0  0  0  0
 21 12  1  0  0  0  0
 23 26  1  0  0  0  0
 25 24  1  6  0  0  0
 25 26  1  0  0  0  0
 27 29  1  0  0  0  0
 27 28  1  0  0  0  0
 28 25  1  0  0  0  0
 29 22  1  6  0  0  0
 29 23  1  0  0  0  0
 30 28  1  0  0  0  0
 32 31  2  6  0  0  0
 32 33  1  0  0  0  0
 32 30  1  0  0  0  0
 34 42  1  1  0  0  0
 34 41  1  0  0  0  0
 35 33  1  6  0  0  0
 35 34  1  0  0  0  0
 36 35  1  0  0  0  0
 36 40  1  1  0  0  0
 36 39  1  0  0  0  0
 37 41  1  0  0  0  0
 37 38  1  1  0  0  0
 39 40  1  1  0  0  0
 39 37  1  0  0  0  0
 42 44  1  0  0  0  0
 43 44  1  0  0  0  0
 46 45  1  0  0  0  0
 47 54  1  0  0  0  0
 48 47  2  0  0  0  0
 49 48  1  1  0  0  0
 49 50  1  0  0  0  0
 50 55  1  0  0  0  0
 50 56  2  0  0  0  0
 53 60  1  1  0  0  0
 53 55  1  0  0  0  0
 54 51  2  0  0  0  0
 54 56  1  0  0  0  0
 55 52  2  0  0  0  0
 56 46  1  0  0  0  0
 57 47  1  0  0  0  0
 58 49  1  0  0  0  0
 58 53  1  0  0  0  0
 59 65  1  0  0  0  0
 59 61  1  0  0  0  0
 60 65  2  0  0  0  0
 62 59  2  0  0  0  0
 63 62  1  0  0  0  0
 63 60  1  0  0  0  0
 64 62  1  0  0  0  0
M  END
>  <MODEL>
3

>  <REMARK>
 VINA RESULT:      -7.0      2.460      7.313
  Name = 
  18 active torsions:
  status: ('A' for Active; 'I' for Inactive)
    1  A    between atoms: C_1  and  O_34
    2  A    between atoms: C_2  and  S_30
    3  A    between atoms: C_2  and  N_46
    4  A    between atoms: C_3  and  C_41
    5  A    between atoms: C_3  and  O_47
    6  A    between atoms: C_10  and  C_40
    7  A    between atoms: C_13  and  C_28
    8  A    between atoms: C_13  and  C_59
    9  A    between atoms: N_15  and  C_41
   10  A    between atoms: C_20  and  C_52
   11  A    between atoms: C_25  and  O_47
   12  A    between atoms: C_25  and  N_63
   13  A    between atoms: C_28  and  C_32
   14  A    between atoms: C_28  and  C_65
   15  A    between atoms: S_30  and  C_52
   16  A    between atoms: C_32  and  C_62
   17  A    between atoms: O_34  and  C_36
   18  A    between atoms: C_56  and  C_59
                            x       y       z     vdW  Elec       q    Type
                         _______ _______ _______ _____ _____    ______ ____

>  <TORSDO>
F 18

$$$$
=
 OpenBabel11042414193D

 65 72  0  0  1  0  0  0  0  0999 V2000
  190.4950  172.5410  139.9300 C   0  0  2  0  0  3  0  0  0  0  0  0
  190.2330  171.8590  142.3980 C   0  0  0  0  0  0  0  0  0  0  0  0
  189.7640  173.5430  144.0500 N   0  0  0  0  0  0  0  0  0  0  0  0
  190.5440  170.5450  142.0670 O   0  0  0  0  0  1  0  0  0  0  0  0
  189.2280  174.4690  143.0430 C   0  0  0  0  0  2  0  0  0  0  0  0
  190.0920  172.1980  143.6810 C   0  0  0  0  0  3  0  0  0  0  0  0
  189.7000  174.1210  141.6570 C   0  0  0  0  0  3  0  0  0  0  0  0
  190.0970  172.8810  141.3400 C   0  0  0  0  0  0  0  0  0  0  0  0
  189.7860  173.8670  145.4780 C   0  0  0  0  0  2  0  0  0  0  0  0
  189.2780  175.2700  145.7960 C   0  0  0  0  0  2  0  0  0  0  0  0
  188.4890  175.2550  146.9450 O   0  0  0  0  0  0  0  0  0  0  0  0
  187.6850  176.3880  146.8270 C   0  0  0  0  0  2  0  0  0  0  0  0
  185.0750  177.6460  142.7170 C   0  0  0  0  0  2  0  0  0  0  0  0
  187.6560  177.3370  141.3350 C   0  0  0  0  0  2  0  0  0  0  0  0
  185.2710  178.2820  141.3430 C   0  0  0  0  0  2  0  0  0  0  0  0
  186.3550  177.4760  143.4120 N   0  0  0  0  0  0  0  0  0  0  0  0
  186.3420  177.5240  140.5570 C   0  0  0  0  0  2  0  0  0  0  0  0
  185.2940  176.7420  145.3610 O   0  0  0  0  0  0  0  0  0  0  0  0
  186.3760  176.9980  144.7640 C   0  0  0  0  0  0  0  0  0  0  0  0
  187.6020  177.8800  142.7620 C   0  0  0  0  0  2  0  0  0  0  0  0
  187.6230  176.8000  145.4360 N   0  0  0  0  0  2  0  0  0  0  0  0
  191.5010  173.5480  139.3970 C   0  0  0  0  0  2  0  0  0  0  0  0
  193.3970  172.2720  140.2470 O   0  0  0  0  0  0  0  0  0  0  0  0
  195.3710  173.6950  137.5590 C   0  0  0  0  0  1  0  0  0  0  0  0
  195.2810  173.1720  138.9920 C   0  0  2  0  0  3  0  0  0  0  0  0
  194.1410  172.1450  139.0520 C   0  0  0  0  0  2  0  0  0  0  0  0
  193.6850  174.7030  139.9270 C   0  0  0  0  0  2  0  0  0  0  0  0
  195.0670  174.2390  139.9920 N   0  0  0  0  0  0  0  0  0  0  0  0
  192.7470  173.5360  140.2710 C   0  0  1  0  0  3  0  0  0  0  0  0
  195.9560  175.3750  139.7750 C   0  0  0  0  0  2  0  0  0  0  0  0
  197.9270  174.8470  141.4060 O   0  0  0  0  0  0  0  0  0  0  0  0
  196.7590  175.8210  141.3250 S   0  0  2  0  0  0  0  0  0  0  0  0
  195.6040  175.2150  142.5710 C   0  0  0  0  0  2  0  0  0  0  0  0
  196.1390  174.5910  144.9800 C   0  0  2  0  0  3  0  0  0  0  0  0
  196.2840  174.2200  143.5010 C   0  0  1  0  0  3  0  0  0  0  0  0
  195.9230  172.7740  143.1110 C   0  0  1  0  0  3  0  0  0  0  0  0
  196.1340  172.1910  145.6610 C   0  0  2  0  0  3  0  0  0  0  0  0
  196.8390  171.2130  146.3590 O   0  0  0  0  0  1  0  0  0  0  0  0
  195.9450  171.7460  144.2050 C   0  0  1  0  0  3  0  0  0  0  0  0
  194.7440  172.3250  143.7340 O   0  0  0  0  0  0  0  0  0  0  0  0
  196.8370  173.5320  145.8160 C   0  0  0  0  0  2  0  0  0  0  0  0
  194.7910  174.7090  145.3450 O   0  0  0  0  0  0  0  0  0  0  0  0
  194.5760  177.0560  145.6430 C   0  0  0  0  0  1  0  0  0  0  0  0
  194.7640  175.7140  146.3150 C   0  0  0  0  0  2  0  0  0  0  0  0
  189.3030  172.4500  138.9900 C   0  0  0  0  0  2  0  0  0  0  0  0
  189.2090  171.0600  138.3820 C   0  0  0  0  0  2  0  0  0  0  0  0
  191.8770  172.0090  135.7090 C   0  0  0  0  0  0  0  0  0  0  0  0
  192.7180  170.9740  135.8220 C   0  0  0  0  0  3  0  0  0  0  0  0
  192.2760  169.6830  136.4610 C   0  0  2  0  0  3  0  0  0  0  0  0
  191.1520  169.8720  137.4100 C   0  0  0  0  0  0  0  0  0  0  0  0
  189.7050  172.8770  136.1780 O   0  0  0  0  0  0  0  0  0  0  0  0
  190.5670  168.6200  139.3690 O   0  0  0  0  0  0  0  0  0  0  0  0
  192.7270  168.3470  138.2510 C   0  0  1  0  0  3  0  0  0  0  0  0
  190.5510  171.9650  136.3760 C   0  0  0  0  0  0  0  0  0  0  0  0
  191.3730  168.9240  138.4490 C   0  0  0  0  0  0  0  0  0  0  0  0
  190.2770  170.8860  137.3500 C   0  0  0  0  0  0  0  0  0  0  0  0
  192.3260  173.2370  134.9970 C   0  0  0  0  0  1  0  0  0  0  0  0
  193.3260  169.0380  137.1620 O   0  0  0  0  0  0  0  0  0  0  0  0
  194.0920  168.8080  141.6400 C   0  0  0  0  0  0  0  0  0  0  0  0
  193.5810  168.5000  139.4730 C   0  0  0  0  0  0  0  0  0  0  0  0
  193.8020  168.9600  143.0960 C   0  0  0  0  0  1  0  0  0  0  0  0
  195.3770  168.8220  141.1050 C   0  0  0  0  0  0  0  0  0  0  0  0
  195.2600  168.6120  139.4400 S   0  0  0  0  0  0  0  0  0  0  0  0
  196.6500  168.9910  141.8580 C   0  0  0  0  0  1  0  0  0  0  0  0
  193.0970  168.6360  140.7310 N   0  0  0  0  0  0  0  0  0  0  0  0
  1 45  1  6  0  0  0
  1  8  1  0  0  0  0
  2  6  2  0  0  0  0
  3  9  1  0  0  0  0
  4  2  1  0  0  0  0
  5  3  1  0  0  0  0
  6  3  1  0  0  0  0
  7  5  1  0  0  0  0
  8  7  2  0  0  0  0
  8  2  1  0  0  0  0
  9 10  1  0  0  0  0
 10 11  1  0  0  0  0
 12 11  1  0  0  0  0
 13 16  1  0  0  0  0
 14 20  1  0  0  0  0
 15 13  1  0  0  0  0
 16 19  1  0  0  0  0
 17 14  1  0  0  0  0
 17 15  1  0  0  0  0
 19 18  2  0  0  0  0
 19 21  1  0  0  0  0
 20 16  1  0  0  0  0
 21 12  1  0  0  0  0
 22  1  1  0  0  0  0
 23 29  1  0  0  0  0
 25 24  1  6  0  0  0
 25 26  1  0  0  0  0
 25 28  1  0  0  0  0
 26 23  1  0  0  0  0
 27 28  1  0  0  0  0
 27 29  1  0  0  0  0
 29 22  1  6  0  0  0
 30 28  1  0  0  0  0
 30 32  1  0  0  0  0
 32 31  2  1  0  0  0
 32 33  1  0  0  0  0
 34 42  1  1  0  0  0
 34 41  1  0  0  0  0
 35 33  1  6  0  0  0
 35 34  1  0  0  0  0
 36 35  1  0  0  0  0
 36 40  1  1  0  0  0
 36 39  1  0  0  0  0
 37 41  1  0  0  0  0
 37 38  1  1  0  0  0
 39 40  1  1  0  0  0
 39 37  1  0  0  0  0
 42 44  1  0  0  0  0
 43 44  1  0  0  0  0
 46 45  1  0  0  0  0
 47 48  2  0  0  0  0
 47 54  1  0  0  0  0
 49 48  1  1  0  0  0
 49 58  1  0  0  0  0
 49 50  1  0  0  0  0
 50 55  1  0  0  0  0
 51 54  2  0  0  0  0
 53 55  1  0  0  0  0
 53 60  1  1  0  0  0
 54 56  1  0  0  0  0
 55 52  2  0  0  0  0
 56 50  2  0  0  0  0
 56 46  1  0  0  0  0
 57 47  1  0  0  0  0
 58 53  1  0  0  0  0
 59 61  1  0  0  0  0
 60 65  2  0  0  0  0
 62 59  2  0  0  0  0
 62 64  1  0  0  0  0
 63 60  1  0  0  0  0
 63 62  1  0  0  0  0
 65 59  1  0  0  0  0
M  END
>  <MODEL>
4

>  <REMARK>
 VINA RESULT:      -6.9      2.457      8.944
  Name = 
  18 active torsions:
  status: ('A' for Active; 'I' for Inactive)
    1  A    between atoms: C_1  and  O_34
    2  A    between atoms: C_2  and  S_30
    3  A    between atoms: C_2  and  N_46
    4  A    between atoms: C_3  and  C_41
    5  A    between atoms: C_3  and  O_47
    6  A    between atoms: C_10  and  C_40
    7  A    between atoms: C_13  and  C_28
    8  A    between atoms: C_13  and  C_59
    9  A    between atoms: N_15  and  C_41
   10  A    between atoms: C_20  and  C_52
   11  A    between atoms: C_25  and  O_47
   12  A    between atoms: C_25  and  N_63
   13  A    between atoms: C_28  and  C_32
   14  A    between atoms: C_28  and  C_65
   15  A    between atoms: S_30  and  C_52
   16  A    between atoms: C_32  and  C_62
   17  A    between atoms: O_34  and  C_36
   18  A    between atoms: C_56  and  C_59
                            x       y       z     vdW  Elec       q    Type
                         _______ _______ _______ _____ _____    ______ ____

>  <TORSDO>
F 18

$$$$
=
 OpenBabel11042414193D

 65 72  0  0  1  0  0  0  0  0999 V2000
  191.1810  170.4050  140.9920 C   0  0  2  0  0  3  0  0  0  0  0  0
  189.8610  172.1190  142.3880 C   0  0  0  0  0  0  0  0  0  0  0  0
  189.0150  174.1070  141.3320 N   0  0  0  0  0  0  0  0  0  0  0  0
  190.0880  171.3620  143.5320 O   0  0  0  0  0  1  0  0  0  0  0  0
  189.0620  173.4930  139.9990 C   0  0  0  0  0  2  0  0  0  0  0  0
  189.2690  173.3100  142.4950 C   0  0  0  0  0  3  0  0  0  0  0  0
  189.9940  172.3130  139.9610 C   0  0  0  0  0  3  0  0  0  0  0  0
  190.3050  171.6260  141.0680 C   0  0  0  0  0  0  0  0  0  0  0  0
  188.5090  175.4640  141.5520 C   0  0  0  0  0  2  0  0  0  0  0  0
  187.7880  176.0530  140.3430 C   0  0  0  0  0  2  0  0  0  0  0  0
  186.9300  177.0790  140.7390 O   0  0  0  0  0  0  0  0  0  0  0  0
  187.6830  177.8300  141.6410 C   0  0  0  0  0  2  0  0  0  0  0  0
  186.8230  177.8590  146.5960 C   0  0  0  0  0  2  0  0  0  0  0  0
  184.1040  178.6870  145.8280 C   0  0  0  0  0  2  0  0  0  0  0  0
  185.9180  178.5200  147.6330 C   0  0  0  0  0  2  0  0  0  0  0  0
  186.4460  178.2510  145.2340 N   0  0  0  0  0  0  0  0  0  0  0  0
  184.4490  178.2950  147.2750 C   0  0  0  0  0  2  0  0  0  0  0  0
  188.2780  177.1300  144.3150 O   0  0  0  0  0  0  0  0  0  0  0  0
  187.2430  177.8250  144.1210 C   0  0  0  0  0  0  0  0  0  0  0  0
  185.3120  179.1510  145.0170 C   0  0  0  0  0  2  0  0  0  0  0  0
  186.8630  178.1780  142.7880 N   0  0  0  0  0  2  0  0  0  0  0  0
  192.6470  170.7990  140.9250 C   0  0  0  0  0  2  0  0  0  0  0  0
  193.7990  169.4970  142.6340 O   0  0  0  0  0  0  0  0  0  0  0  0
  196.9070  170.8920  141.3930 C   0  0  0  0  0  1  0  0  0  0  0  0
  196.0720  170.3710  142.5620 C   0  0  2  0  0  3  0  0  0  0  0  0
  195.0580  169.3600  142.0070 C   0  0  0  0  0  2  0  0  0  0  0  0
  194.2410  171.9240  142.5290 C   0  0  0  0  0  2  0  0  0  0  0  0
  195.3770  171.4410  143.3080 N   0  0  0  0  0  0  0  0  0  0  0  0
  193.2480  170.7700  142.3220 C   0  0  1  0  0  3  0  0  0  0  0  0
  196.2610  172.5640  143.5970 C   0  0  0  0  0  2  0  0  0  0  0  0
  195.6070  171.6140  145.9410 O   0  0  0  0  0  0  0  0  0  0  0  0
  196.5480  172.6680  145.3730 S   0  0  2  0  0  0  0  0  0  0  0  0
  195.7660  174.2310  145.8210 C   0  0  0  0  0  2  0  0  0  0  0  0
  193.2350  174.3350  145.5720 C   0  0  2  0  0  3  0  0  0  0  0  0
  194.5950  174.5350  144.8970 C   0  0  1  0  0  3  0  0  0  0  0  0
  194.8130  175.8710  144.1600 C   0  0  1  0  0  3  0  0  0  0  0  0
  192.2050  176.1530  144.2100 C   0  0  2  0  0  3  0  0  0  0  0  0
  191.2580  176.4290  143.2250 O   0  0  0  0  0  1  0  0  0  0  0  0
  193.5870  176.6270  143.7390 C   0  0  1  0  0  3  0  0  0  0  0  0
  194.3330  176.9740  144.8890 O   0  0  0  0  0  0  0  0  0  0  0  0
  192.1430  174.6760  144.5730 C   0  0  0  0  0  2  0  0  0  0  0  0
  193.1210  175.1210  146.7270 O   0  0  0  0  0  0  0  0  0  0  0  0
  191.4270  176.2250  147.9730 C   0  0  0  0  0  1  0  0  0  0  0  0
  191.7710  175.0530  147.0810 C   0  0  0  0  0  2  0  0  0  0  0  0
  190.8290  169.5040  139.8190 C   0  0  0  0  0  2  0  0  0  0  0  0
  192.0770  169.1540  139.0250 C   0  0  0  0  0  2  0  0  0  0  0  0
  190.6970  171.2610  136.0550 C   0  0  0  0  0  0  0  0  0  0  0  0
  191.8390  171.7150  135.5240 C   0  0  0  0  0  3  0  0  0  0  0  0
  193.1530  171.0410  135.8190 C   0  0  2  0  0  3  0  0  0  0  0  0
  193.1390  170.3040  137.1060 C   0  0  0  0  0  0  0  0  0  0  0  0
  189.6620  169.6760  137.5050 O   0  0  0  0  0  0  0  0  0  0  0  0
  194.9330  169.8270  138.6240 O   0  0  0  0  0  0  0  0  0  0  0  0
  195.1700  171.4420  136.8010 C   0  0  1  0  0  3  0  0  0  0  0  0
  190.7310  170.1950  137.0880 C   0  0  0  0  0  0  0  0  0  0  0  0
  194.4540  170.4430  137.6340 C   0  0  0  0  0  0  0  0  0  0  0  0
  192.0310  169.8240  137.6880 C   0  0  0  0  0  0  0  0  0  0  0  0
  189.4110  171.9040  135.6720 C   0  0  0  0  0  1  0  0  0  0  0  0
  194.2350  171.9550  135.8590 O   0  0  0  0  0  0  0  0  0  0  0  0
  195.7920  174.1350  139.2340 C   0  0  0  0  0  0  0  0  0  0  0  0
  195.7190  172.5650  137.6260 C   0  0  0  0  0  0  0  0  0  0  0  0
  195.3100  174.8630  140.4440 C   0  0  0  0  0  1  0  0  0  0  0  0
  196.9710  174.4480  138.5650 C   0  0  0  0  0  0  0  0  0  0  0  0
  197.1440  173.3870  137.2710 S   0  0  0  0  0  0  0  0  0  0  0  0
  197.9300  175.5310  138.9160 C   0  0  0  0  0  1  0  0  0  0  0  0
  195.0950  173.0940  138.7070 N   0  0  0  0  0  0  0  0  0  0  0  0
  1 45  1  6  0  0  0
  1  8  1  0  0  0  0
  2  6  2  0  0  0  0
  2  4  1  0  0  0  0
  3  9  1  0  0  0  0
  3  6  1  0  0  0  0
  5  3  1  0  0  0  0
  7  5  1  0  0  0  0
  7  8  2  0  0  0  0
  8  2  1  0  0  0  0
 10 11  1  0  0  0  0
 10  9  1  0  0  0  0
 11 12  1  0  0  0  0
 12 21  1  0  0  0  0
 13 15  1  0  0  0  0
 14 17  1  0  0  0  0
 16 13  1  0  0  0  0
 17 15  1  0  0  0  0
 19 18  2  0  0  0  0
 19 16  1  0  0  0  0
 20 16  1  0  0  0  0
 20 14  1  0  0  0  0
 21 19  1  0  0  0  0
 22  1  1  0  0  0  0
 25 24  1  6  0  0  0
 25 28  1  0  0  0  0
 26 25  1  0  0  0  0
 26 23  1  0  0  0  0
 27 28  1  0  0  0  0
 28 30  1  0  0  0  0
 29 22  1  6  0  0  0
 29 27  1  0  0  0  0
 29 23  1  0  0  0  0
 30 32  1  0  0  0  0
 32 33  1  0  0  0  0
 32 31  2  1  0  0  0
 34 42  1  1  0  0  0
 35 34  1  0  0  0  0
 35 33  1  1  0  0  0
 36 40  1  1  0  0  0
 36 35  1  0  0  0  0
 37 38  1  6  0  0  0
 37 41  1  0  0  0  0
 39 36  1  0  0  0  0
 39 37  1  0  0  0  0
 39 40  1  1  0  0  0
 41 34  1  0  0  0  0
 42 44  1  0  0  0  0
 44 43  1  0  0  0  0
 46 45  1  0  0  0  0
 47 54  1  0  0  0  0
 48 47  2  0  0  0  0
 49 48  1  1  0  0  0
 49 58  1  0  0  0  0
 49 50  1  0  0  0  0
 50 55  1  0  0  0  0
 50 56  2  0  0  0  0
 53 60  1  1  0  0  0
 53 55  1  0  0  0  0
 54 51  2  0  0  0  0
 54 56  1  0  0  0  0
 55 52  2  0  0  0  0
 56 46  1  0  0  0  0
 57 47  1  0  0  0  0
 58 53  1  0  0  0  0
 59 61  1  0  0  0  0
 60 65  2  0  0  0  0
 62 64  1  0  0  0  0
 62 59  2  0  0  0  0
 63 60  1  0  0  0  0
 63 62  1  0  0  0  0
 65 59  1  0  0  0  0
M  END
>  <MODEL>
5

>  <REMARK>
 VINA RESULT:      -6.7      2.648      8.576
  Name = 
  18 active torsions:
  status: ('A' for Active; 'I' for Inactive)
    1  A    between atoms: C_1  and  O_34
    2  A    between atoms: C_2  and  S_30
    3  A    between atoms: C_2  and  N_46
    4  A    between atoms: C_3  and  C_41
    5  A    between atoms: C_3  and  O_47
    6  A    between atoms: C_10  and  C_40
    7  A    between atoms: C_13  and  C_28
    8  A    between atoms: C_13  and  C_59
    9  A    between atoms: N_15  and  C_41
   10  A    between atoms: C_20  and  C_52
   11  A    between atoms: C_25  and  O_47
   12  A    between atoms: C_25  and  N_63
   13  A    between atoms: C_28  and  C_32
   14  A    between atoms: C_28  and  C_65
   15  A    between atoms: S_30  and  C_52
   16  A    between atoms: C_32  and  C_62
   17  A    between atoms: O_34  and  C_36
   18  A    between atoms: C_56  and  C_59
                            x       y       z     vdW  Elec       q    Type
                         _______ _______ _______ _____ _____    ______ ____

>  <TORSDO>
F 18

$$$$
=
 OpenBabel11042414193D

 65 72  0  0  1  0  0  0  0  0999 V2000
  192.0470  174.6320  142.0580 C   0  0  2  0  0  3  0  0  0  0  0  0
  190.7790  176.5460  143.2200 C   0  0  0  0  0  0  0  0  0  0  0  0
  188.4260  176.8300  142.8100 N   0  0  0  0  0  0  0  0  0  0  0  0
  191.9690  176.9920  143.7840 O   0  0  0  0  0  1  0  0  0  0  0  0
  188.2700  175.4350  142.3790 C   0  0  0  0  0  2  0  0  0  0  0  0
  189.6680  177.2700  143.3740 C   0  0  0  0  0  3  0  0  0  0  0  0
  189.5840  174.8280  141.9690 C   0  0  0  0  0  3  0  0  0  0  0  0
  190.7510  175.3030  142.4250 C   0  0  0  0  0  0  0  0  0  0  0  0
  187.2940  177.7570  142.8870 C   0  0  0  0  0  2  0  0  0  0  0  0
  186.1870  177.2950  143.8290 C   0  0  0  0  0  2  0  0  0  0  0  0
  186.1060  178.1370  144.9370 O   0  0  0  0  0  0  0  0  0  0  0  0
  185.9700  177.2710  146.0220 C   0  0  0  0  0  2  0  0  0  0  0  0
  190.7030  176.4320  147.4980 C   0  0  0  0  0  2  0  0  0  0  0  0
  190.5460  174.1030  145.7040 C   0  0  0  0  0  2  0  0  0  0  0  0
  191.7050  175.2910  147.6600 C   0  0  0  0  0  2  0  0  0  0  0  0
  189.4590  175.9640  146.8800 N   0  0  0  0  0  0  0  0  0  0  0  0
  191.8770  174.5460  146.3360 C   0  0  0  0  0  2  0  0  0  0  0  0
  188.4350  178.0440  147.1720 O   0  0  0  0  0  0  0  0  0  0  0  0
  188.3480  176.8600  146.7440 C   0  0  0  0  0  0  0  0  0  0  0  0
  189.3170  174.5610  146.4880 C   0  0  0  0  0  2  0  0  0  0  0  0
  187.1420  176.4180  146.1130 N   0  0  0  0  0  2  0  0  0  0  0  0
  193.1600  175.6560  141.9130 C   0  0  0  0  0  2  0  0  0  0  0  0
  195.5560  175.9610  142.2460 O   0  0  0  0  0  0  0  0  0  0  0  0
  194.8560  176.4460  145.7700 C   0  0  0  0  0  1  0  0  0  0  0  0
  195.7880  175.9400  144.6710 C   0  0  2  0  0  3  0  0  0  0  0  0
  195.5250  176.7680  143.4050 C   0  0  0  0  0  2  0  0  0  0  0  0
  194.3960  174.2810  143.6340 C   0  0  0  0  0  2  0  0  0  0  0  0
  195.6280  174.4980  144.3860 N   0  0  0  0  0  0  0  0  0  0  0  0
  194.4910  175.0210  142.2920 C   0  0  1  0  0  3  0  0  0  0  0  0
  195.5810  173.7040  145.6080 C   0  0  0  0  0  2  0  0  0  0  0  0
  197.7420  172.8840  144.3910 O   0  0  0  0  0  0  0  0  0  0  0  0
  197.0920  172.7340  145.7600 S   0  0  2  0  0  0  0  0  0  0  0  0
  196.4860  171.0350  145.7660 C   0  0  0  0  0  2  0  0  0  0  0  0
  195.8690  170.0170  143.5160 C   0  0  2  0  0  3  0  0  0  0  0  0
  195.4000  170.8440  144.7160 C   0  0  1  0  0  3  0  0  0  0  0  0
  194.0740  170.4170  145.3740 C   0  0  1  0  0  3  0  0  0  0  0  0
  193.5870  169.0720  143.1740 C   0  0  2  0  0  3  0  0  0  0  0  0
  192.4980  169.0310  142.3050 O   0  0  0  0  0  1  0  0  0  0  0  0
  193.1300  169.5990  144.5420 C   0  0  1  0  0  3  0  0  0  0  0  0
  193.9690  169.0220  145.5230 O   0  0  0  0  0  0  0  0  0  0  0  0
  194.7120  169.8770  142.5410 C   0  0  0  0  0  2  0  0  0  0  0  0
  196.3420  168.7610  143.9170 O   0  0  0  0  0  0  0  0  0  0  0  0
  197.9400  169.8570  142.5430 C   0  0  0  0  0  1  0  0  0  0  0  0
  197.4990  168.5500  143.1620 C   0  0  0  0  0  2  0  0  0  0  0  0
  191.9370  173.7990  140.7890 C   0  0  0  0  0  2  0  0  0  0  0  0
  192.6680  172.4770  140.9560 C   0  0  0  0  0  2  0  0  0  0  0  0
  191.0610  170.6070  137.9430 C   0  0  0  0  0  0  0  0  0  0  0  0
  192.0240  170.7460  137.0240 C   0  0  0  0  0  3  0  0  0  0  0  0
  193.4370  171.0800  137.4280 C   0  0  2  0  0  3  0  0  0  0  0  0
  193.5060  171.7820  138.7320 C   0  0  0  0  0  0  0  0  0  0  0  0
  190.4720  170.7190  140.2520 O   0  0  0  0  0  0  0  0  0  0  0  0
  195.1140  173.3650  139.5420 O   0  0  0  0  0  0  0  0  0  0  0  0
  195.0100  172.7100  137.1860 C   0  0  1  0  0  3  0  0  0  0  0  0
  191.3290  170.9590  139.3600 C   0  0  0  0  0  0  0  0  0  0  0  0
  194.5920  172.6950  138.6110 C   0  0  0  0  0  0  0  0  0  0  0  0
  192.5750  171.6840  139.6920 C   0  0  0  0  0  0  0  0  0  0  0  0
  189.6970  170.1950  137.5100 C   0  0  0  0  0  1  0  0  0  0  0  0
  194.0980  171.8870  136.4690 O   0  0  0  0  0  0  0  0  0  0  0  0
  194.1400  176.0410  135.8790 C   0  0  0  0  0  0  0  0  0  0  0  0
  194.9920  174.0950  136.6160 C   0  0  0  0  0  0  0  0  0  0  0  0
  193.0650  177.0470  135.6340 C   0  0  0  0  0  1  0  0  0  0  0  0
  195.4740  176.2390  135.5380 C   0  0  0  0  0  0  0  0  0  0  0  0
  196.3460  174.8750  135.9910 S   0  0  0  0  0  0  0  0  0  0  0  0
  196.0520  177.4450  134.8820 C   0  0  0  0  0  1  0  0  0  0  0  0
  193.8740  174.8470  136.4710 N   0  0  0  0  0  0  0  0  0  0  0  0
  1 45  1  6  0  0  0
  1  8  1  0  0  0  0
  2  6  2  0  0  0  0
  2  4  1  0  0  0  0
  3  9  1  0  0  0  0
  3  6  1  0  0  0  0
  5  3  1  0  0  0  0
  7  5  1  0  0  0  0
  7  8  2  0  0  0  0
  8  2  1  0  0  0  0
  9 10  1  0  0  0  0
 10 11  1  0  0  0  0
 11 12  1  0  0  0  0
 12 21  1  0  0  0  0
 13 15  1  0  0  0  0
 14 17  1  0  0  0  0
 14 20  1  0  0  0  0
 16 13  1  0  0  0  0
 17 15  1  0  0  0  0
 19 16  1  0  0  0  0
 19 18  2  0  0  0  0
 20 16  1  0  0  0  0
 21 19  1  0  0  0  0
 22  1  1  0  0  0  0
 23 29  1  0  0  0  0
 23 26  1  0  0  0  0
 25 24  1  1  0  0  0
 26 25  1  0  0  0  0
 27 28  1  0  0  0  0
 28 25  1  0  0  0  0
 28 30  1  0  0  0  0
 29 22  1  1  0  0  0
 29 27  1  0  0  0  0
 30 32  1  0  0  0  0
 32 31  2  6  0  0  0
 32 33  1  0  0  0  0
 34 42  1  1  0  0  0
 34 35  1  0  0  0  0
 35 36  1  0  0  0  0
 35 33  1  1  0  0  0
 36 40  1  1  0  0  0
 37 38  1  6  0  0  0
 37 39  1  0  0  0  0
 39 36  1  0  0  0  0
 39 40  1  1  0  0  0
 41 37  1  0  0  0  0
 41 34  1  0  0  0  0
 43 44  1  0  0  0  0
 44 42  1  0  0  0  0
 45 46  1  0  0  0  0
 47 54  1  0  0  0  0
 48 47  2  0  0  0  0
 49 48  1  6  0  0  0
 49 50  1  0  0  0  0
 50 56  2  0  0  0  0
 53 60  1  6  0  0  0
 53 55  1  0  0  0  0
 54 56  1  0  0  0  0
 54 51  2  0  0  0  0
 55 50  1  0  0  0  0
 55 52  2  0  0  0  0
 56 46  1  0  0  0  0
 57 47  1  0  0  0  0
 58 53  1  0  0  0  0
 58 49  1  0  0  0  0
 59 65  1  0  0  0  0
 61 59  1  0  0  0  0
 62 59  2  0  0  0  0
 62 63  1  0  0  0  0
 63 60  1  0  0  0  0
 64 62  1  0  0  0  0
 65 60  2  0  0  0  0
M  END
>  <MODEL>
6

>  <REMARK>
 VINA RESULT:      -6.6      2.769      9.071
  Name = 
  18 active torsions:
  status: ('A' for Active; 'I' for Inactive)
    1  A    between atoms: C_1  and  O_34
    2  A    between atoms: C_2  and  S_30
    3  A    between atoms: C_2  and  N_46
    4  A    between atoms: C_3  and  C_41
    5  A    between atoms: C_3  and  O_47
    6  A    between atoms: C_10  and  C_40
    7  A    between atoms: C_13  and  C_28
    8  A    between atoms: C_13  and  C_59
    9  A    between atoms: N_15  and  C_41
   10  A    between atoms: C_20  and  C_52
   11  A    between atoms: C_25  and  O_47
   12  A    between atoms: C_25  and  N_63
   13  A    between atoms: C_28  and  C_32
   14  A    between atoms: C_28  and  C_65
   15  A    between atoms: S_30  and  C_52
   16  A    between atoms: C_32  and  C_62
   17  A    between atoms: O_34  and  C_36
   18  A    between atoms: C_56  and  C_59
                            x       y       z     vdW  Elec       q    Type
                         _______ _______ _______ _____ _____    ______ ____

>  <TORSDO>
F 18

$$$$
=
 OpenBabel11042414193D

 65 72  0  0  1  0  0  0  0  0999 V2000
  190.8400  171.7260  141.7490 C   0  0  2  0  0  3  0  0  0  0  0  0
  190.0690  172.8630  143.9250 C   0  0  0  0  0  0  0  0  0  0  0  0
  191.0320  174.9710  144.5680 N   0  0  0  0  0  0  0  0  0  0  0  0
  189.2520  171.7730  144.2050 O   0  0  0  0  0  1  0  0  0  0  0  0
  191.4460  175.2710  143.1910 C   0  0  0  0  0  2  0  0  0  0  0  0
  190.2040  173.8320  144.8330 C   0  0  0  0  0  3  0  0  0  0  0  0
  191.5150  174.0290  142.3460 C   0  0  0  0  0  3  0  0  0  0  0  0
  190.8110  172.9310  142.6510 C   0  0  0  0  0  0  0  0  0  0  0  0
  191.2530  175.9070  145.6730 C   0  0  0  0  0  2  0  0  0  0  0  0
  190.0250  176.7390  146.0260 C   0  0  0  0  0  2  0  0  0  0  0  0
  189.5840  176.4380  147.3140 O   0  0  0  0  0  0  0  0  0  0  0  0
  188.3730  175.7750  147.1190 C   0  0  0  0  0  2  0  0  0  0  0  0
  184.4890  178.4840  145.4280 C   0  0  0  0  0  2  0  0  0  0  0  0
  185.3860  177.5810  142.7730 C   0  0  0  0  0  2  0  0  0  0  0  0
  184.0300  179.2400  144.1820 C   0  0  0  0  0  2  0  0  0  0  0  0
  185.7590  177.7910  145.1900 N   0  0  0  0  0  0  0  0  0  0  0  0
  184.0480  178.3150  142.9650 C   0  0  0  0  0  2  0  0  0  0  0  0
  185.9120  177.1320  147.4270 O   0  0  0  0  0  0  0  0  0  0  0  0
  186.4160  177.1140  146.2710 C   0  0  0  0  0  0  0  0  0  0  0  0
  186.4020  177.8660  143.8780 C   0  0  0  0  0  2  0  0  0  0  0  0
  187.6390  176.4090  146.0390 N   0  0  0  0  0  2  0  0  0  0  0  0
  191.7910  170.6720  142.2910 C   0  0  0  0  0  2  0  0  0  0  0  0
  192.5050  170.5980  144.6210 O   0  0  0  0  0  0  0  0  0  0  0  0
  195.3550  168.6400  143.5330 C   0  0  0  0  0  1  0  0  0  0  0  0
  194.7540  169.6720  144.4850 C   0  0  2  0  0  3  0  0  0  0  0  0
  193.2480  169.3970  144.5960 C   0  0  0  0  0  2  0  0  0  0  0  0
  194.1240  171.3950  142.9360 C   0  0  0  0  0  2  0  0  0  0  0  0
  194.9930  171.0680  144.0620 N   0  0  0  0  0  0  0  0  0  0  0  0
  192.6590  171.2800  143.3830 C   0  0  1  0  0  3  0  0  0  0  0  0
  196.3800  171.2860  143.6660 C   0  0  0  0  0  2  0  0  0  0  0  0
  196.1220  172.6060  145.9060 O   0  0  0  0  0  0  0  0  0  0  0  0
  197.2430  172.1980  144.9590 S   0  0  2  0  0  0  0  0  0  0  0  0
  197.6960  173.7390  144.1370 C   0  0  0  0  0  2  0  0  0  0  0  0
  195.5820  174.6470  143.0480 C   0  0  2  0  0  3  0  0  0  0  0  0
  196.9110  173.9140  142.8440 C   0  0  1  0  0  3  0  0  0  0  0  0
  197.8230  174.4340  141.7170 C   0  0  1  0  0  3  0  0  0  0  0  0
  195.7070  175.6670  140.7750 C   0  0  2  0  0  3  0  0  0  0  0  0
  195.1070  175.7030  139.5180 O   0  0  0  0  0  1  0  0  0  0  0  0
  197.1740  175.2420  140.6300 C   0  0  1  0  0  3  0  0  0  0  0  0
  197.8980  175.8390  141.6880 O   0  0  0  0  0  0  0  0  0  0  0  0
  194.8890  174.7800  141.7020 C   0  0  0  0  0  2  0  0  0  0  0  0
  195.7800  175.9040  143.6350 O   0  0  0  0  0  0  0  0  0  0  0  0
  194.9820  177.2480  145.4240 C   0  0  0  0  0  1  0  0  0  0  0  0
  194.7150  176.0620  144.5250 C   0  0  0  0  0  2  0  0  0  0  0  0
  191.2130  172.0760  140.3170 C   0  0  0  0  0  2  0  0  0  0  0  0
  190.5650  171.1020  139.3460 C   0  0  0  0  0  2  0  0  0  0  0  0
  189.0920  173.7720  136.9240 C   0  0  0  0  0  0  0  0  0  0  0  0
  189.9770  173.7120  135.9220 C   0  0  0  0  0  3  0  0  0  0  0  0
  190.8750  172.5140  135.7530 C   0  0  2  0  0  3  0  0  0  0  0  0
  191.0960  171.7830  137.0240 C   0  0  0  0  0  0  0  0  0  0  0  0
  188.2040  172.7170  138.8700 O   0  0  0  0  0  0  0  0  0  0  0  0
  192.9760  170.4800  137.7420 O   0  0  0  0  0  0  0  0  0  0  0  0
  193.0780  171.9330  135.7750 C   0  0  1  0  0  3  0  0  0  0  0  0
  189.1060  172.7400  137.9910 C   0  0  0  0  0  0  0  0  0  0  0  0
  192.4330  171.3010  136.9540 C   0  0  0  0  0  0  0  0  0  0  0  0
  190.2480  171.8020  138.0630 C   0  0  0  0  0  0  0  0  0  0  0  0
  188.1660  174.9350  137.0070 C   0  0  0  0  0  1  0  0  0  0  0  0
  192.1460  172.8580  135.2290 O   0  0  0  0  0  0  0  0  0  0  0  0
  196.3080  173.0260  137.1660 C   0  0  0  0  0  0  0  0  0  0  0  0
  194.3380  172.6510  136.1480 C   0  0  0  0  0  0  0  0  0  0  0  0
  197.4910  172.6760  138.0060 C   0  0  0  0  0  1  0  0  0  0  0  0
  196.1450  174.2560  136.5380 C   0  0  0  0  0  0  0  0  0  0  0  0
  194.6920  174.2320  135.6910 S   0  0  0  0  0  0  0  0  0  0  0  0
  197.0840  175.4110  136.5920 C   0  0  0  0  0  1  0  0  0  0  0  0
  195.3000  172.1390  136.9540 N   0  0  0  0  0  0  0  0  0  0  0  0
  1 45  1  6  0  0  0
  1 22  1  0  0  0  0
  1  8  1  0  0  0  0
  2  4  1  0  0  0  0
  2  6  2  0  0  0  0
  3  6  1  0  0  0  0
  3  9  1  0  0  0  0
  5  3  1  0  0  0  0
  7  8  2  0  0  0  0
  7  5  1  0  0  0  0
  8  2  1  0  0  0  0
  9 10  1  0  0  0  0
 10 11  1  0  0  0  0
 12 11  1  0  0  0  0
 14 17  1  0  0  0  0
 14 20  1  0  0  0  0
 15 13  1  0  0  0  0
 16 13  1  0  0  0  0
 16 19  1  0  0  0  0
 17 15  1  0  0  0  0
 19 18  2  0  0  0  0
 20 16  1  0  0  0  0
 21 19  1  0  0  0  0
 21 12  1  0  0  0  0
 25 24  1  6  0  0  0
 25 26  1  0  0  0  0
 26 23  1  0  0  0  0
 27 29  1  0  0  0  0
 27 28  1  0  0  0  0
 28 25  1  0  0  0  0
 29 22  1  6  0  0  0
 29 23  1  0  0  0  0
 30 28  1  0  0  0  0
 30 32  1  0  0  0  0
 32 31  2  1  0  0  0
 33 32  1  0  0  0  0
 34 42  1  6  0  0  0
 35 34  1  0  0  0  0
 35 33  1  1  0  0  0
 36 40  1  1  0  0  0
 36 35  1  0  0  0  0
 37 38  1  6  0  0  0
 37 41  1  0  0  0  0
 39 37  1  0  0  0  0
 39 40  1  1  0  0  0
 39 36  1  0  0  0  0
 41 34  1  0  0  0  0
 42 44  1  0  0  0  0
 44 43  1  0  0  0  0
 46 45  1  0  0  0  0
 47 57  1  0  0  0  0
 47 54  1  0  0  0  0
 48 47  2  0  0  0  0
 49 48  1  1  0  0  0
 49 50  1  0  0  0  0
 50 56  2  0  0  0  0
 53 60  1  1  0  0  0
 53 55  1  0  0  0  0
 54 56  1  0  0  0  0
 54 51  2  0  0  0  0
 55 50  1  0  0  0  0
 55 52  2  0  0  0  0
 56 46  1  0  0  0  0
 58 49  1  0  0  0  0
 58 53  1  0  0  0  0
 59 61  1  0  0  0  0
 60 65  2  0  0  0  0
 62 64  1  0  0  0  0
 62 59  2  0  0  0  0
 63 60  1  0  0  0  0
 63 62  1  0  0  0  0
 65 59  1  0  0  0  0
M  END
>  <MODEL>
7

>  <REMARK>
 VINA RESULT:      -6.5      2.601      9.338
  Name = 
  18 active torsions:
  status: ('A' for Active; 'I' for Inactive)
    1  A    between atoms: C_1  and  O_34
    2  A    between atoms: C_2  and  S_30
    3  A    between atoms: C_2  and  N_46
    4  A    between atoms: C_3  and  C_41
    5  A    between atoms: C_3  and  O_47
    6  A    between atoms: C_10  and  C_40
    7  A    between atoms: C_13  and  C_28
    8  A    between atoms: C_13  and  C_59
    9  A    between atoms: N_15  and  C_41
   10  A    between atoms: C_20  and  C_52
   11  A    between atoms: C_25  and  O_47
   12  A    between atoms: C_25  and  N_63
   13  A    between atoms: C_28  and  C_32
   14  A    between atoms: C_28  and  C_65
   15  A    between atoms: S_30  and  C_52
   16  A    between atoms: C_32  and  C_62
   17  A    between atoms: O_34  and  C_36
   18  A    between atoms: C_56  and  C_59
                            x       y       z     vdW  Elec       q    Type
                         _______ _______ _______ _____ _____    ______ ____

>  <TORSDO>
F 18

$$$$
=
 OpenBabel11042414193D

 65 72  0  0  1  0  0  0  0  0999 V2000
  191.9640  174.3170  142.9210 C   0  0  2  0  0  3  0  0  0  0  0  0
  190.0380  174.1940  141.2190 C   0  0  0  0  0  0  0  0  0  0  0  0
  189.9760  172.3930  139.6260 N   0  0  0  0  0  0  0  0  0  0  0  0
  189.5340  175.3960  141.7020 O   0  0  0  0  0  1  0  0  0  0  0  0
  190.8380  171.5450  140.4600 C   0  0  0  0  0  2  0  0  0  0  0  0
  189.4830  173.6360  140.1410 C   0  0  0  0  0  3  0  0  0  0  0  0
  191.6200  172.3540  141.4580 C   0  0  0  0  0  3  0  0  0  0  0  0
  191.2030  173.5600  141.8680 C   0  0  0  0  0  0  0  0  0  0  0  0
  189.4190  171.9310  138.3530 C   0  0  0  0  0  2  0  0  0  0  0  0
  190.2170  172.3820  137.1340 C   0  0  0  0  0  2  0  0  0  0  0  0
  189.4550  173.2390  136.3410 O   0  0  0  0  0  0  0  0  0  0  0  0
  190.0920  174.4740  136.4550 C   0  0  0  0  0  2  0  0  0  0  0  0
  194.8790  175.9220  135.9240 C   0  0  0  0  0  2  0  0  0  0  0  0
  195.5040  173.1880  136.8210 C   0  0  0  0  0  2  0  0  0  0  0  0
  196.2730  175.6090  136.4610 C   0  0  0  0  0  2  0  0  0  0  0  0
  193.8800  174.9950  136.4650 N   0  0  0  0  0  0  0  0  0  0  0  0
  196.5930  174.1260  136.2710 C   0  0  0  0  0  2  0  0  0  0  0  0
  192.1260  176.1690  135.4620 O   0  0  0  0  0  0  0  0  0  0  0  0
  192.4900  175.1900  136.1710 C   0  0  0  0  0  0  0  0  0  0  0  0
  194.2890  173.9270  137.3790 C   0  0  0  0  0  2  0  0  0  0  0  0
  191.5140  174.2700  136.6690 N   0  0  0  0  0  2  0  0  0  0  0  0
  192.8070  175.4130  142.2920 C   0  0  0  0  0  2  0  0  0  0  0  0
  194.4980  175.7130  140.5600 O   0  0  0  0  0  0  0  0  0  0  0  0
  196.8720  176.4250  143.2070 C   0  0  0  0  0  1  0  0  0  0  0  0
  196.5750  175.8400  141.8270 C   0  0  2  0  0  3  0  0  0  0  0  0
  195.3700  176.5910  141.2420 C   0  0  0  0  0  2  0  0  0  0  0  0
  194.9840  174.1350  142.3960 C   0  0  0  0  0  2  0  0  0  0  0  0
  196.3140  174.3850  141.8510 N   0  0  0  0  0  0  0  0  0  0  0  0
  193.9360  174.7890  141.4830 C   0  0  1  0  0  3  0  0  0  0  0  0
  197.2960  173.6700  142.6560 C   0  0  0  0  0  2  0  0  0  0  0  0
  197.4820  172.5560  140.3000 O   0  0  0  0  0  0  0  0  0  0  0  0
  197.9410  172.2690  141.7240 S   0  0  2  0  0  0  0  0  0  0  0  0
  196.8830  170.9070  142.2520 C   0  0  0  0  0  2  0  0  0  0  0  0
  195.4280  170.5880  144.3160 C   0  0  2  0  0  3  0  0  0  0  0  0
  196.8410  170.8110  143.7710 C   0  0  1  0  0  3  0  0  0  0  0  0
  197.9410  169.8650  144.2890 C   0  0  1  0  0  3  0  0  0  0  0  0
  196.2960  169.2650  146.2440 C   0  0  2  0  0  3  0  0  0  0  0  0
  196.4330  169.2450  147.6310 O   0  0  0  0  0  1  0  0  0  0  0  0
  197.6820  169.1640  145.5910 C   0  0  1  0  0  3  0  0  0  0  0  0
  197.5180  168.5240  144.3410 O   0  0  0  0  0  0  0  0  0  0  0  0
  195.5010  170.4950  145.8310 C   0  0  0  0  0  2  0  0  0  0  0  0
  194.8490  169.4350  143.7710 O   0  0  0  0  0  0  0  0  0  0  0  0
  193.2170  168.8650  142.1410 C   0  0  0  0  0  1  0  0  0  0  0  0
  193.6580  169.8690  143.1830 C   0  0  0  0  0  2  0  0  0  0  0  0
  192.8390  173.4130  143.7750 C   0  0  0  0  0  2  0  0  0  0  0  0
  192.1930  173.1730  145.1310 C   0  0  0  0  0  2  0  0  0  0  0  0
  193.7090  176.4990  146.4750 C   0  0  0  0  0  0  0  0  0  0  0  0
  192.6240  177.0610  147.0210 C   0  0  0  0  0  3  0  0  0  0  0  0
  191.4160  176.2330  147.3740 C   0  0  2  0  0  3  0  0  0  0  0  0
  191.3200  174.9930  146.5660 C   0  0  0  0  0  0  0  0  0  0  0  0
  194.7180  174.5060  145.6390 O   0  0  0  0  0  0  0  0  0  0  0  0
  189.3880  173.7460  145.8880 O   0  0  0  0  0  0  0  0  0  0  0  0
  189.2140  175.9930  146.8400 C   0  0  1  0  0  3  0  0  0  0  0  0
  193.6710  175.0800  146.0410 C   0  0  0  0  0  0  0  0  0  0  0  0
  189.9260  174.7790  146.3680 C   0  0  0  0  0  0  0  0  0  0  0  0
  192.3680  174.3810  145.9950 C   0  0  0  0  0  0  0  0  0  0  0  0
  194.9110  177.3380  146.2180 C   0  0  0  0  0  1  0  0  0  0  0  0
  190.2020  176.9460  147.2110 O   0  0  0  0  0  0  0  0  0  0  0  0
  187.7750  177.5470  143.8270 C   0  0  0  0  0  0  0  0  0  0  0  0
  188.3340  176.5720  145.7750 C   0  0  0  0  0  0  0  0  0  0  0  0
  188.0240  178.0940  142.4610 C   0  0  0  0  0  1  0  0  0  0  0  0
  186.5200  177.5160  144.4280 C   0  0  0  0  0  0  0  0  0  0  0  0
  186.6780  176.8170  145.9500 S   0  0  0  0  0  0  0  0  0  0  0  0
  185.2440  178.0100  143.8430 C   0  0  0  0  0  1  0  0  0  0  0  0
  188.7810  177.0290  144.5800 N   0  0  0  0  0  0  0  0  0  0  0  0
  1 22  1  6  0  0  0
  1 45  1  0  0  0  0
  2  4  1  0  0  0  0
  2  8  1  0  0  0  0
  3  6  1  0  0  0  0
  3  5  1  0  0  0  0
  5  7  1  0  0  0  0
  6  2  2  0  0  0  0
  7  8  2  0  0  0  0
  8  1  1  0  0  0  0
  9  3  1  0  0  0  0
 10  9  1  0  0  0  0
 11 12  1  0  0  0  0
 11 10  1  0  0  0  0
 12 21  1  0  0  0  0
 13 15  1  0  0  0  0
 13 16  1  0  0  0  0
 14 20  1  0  0  0  0
 16 20  1  0  0  0  0
 17 15  1  0  0  0  0
 17 14  1  0  0  0  0
 18 19  2  0  0  0  0
 19 16  1  0  0  0  0
 19 21  1  0  0  0  0
 23 26  1  0  0  0  0
 23 29  1  0  0  0  0
 25 28  1  0  0  0  0
 25 24  1  1  0  0  0
 26 25  1  0  0  0  0
 28 27  1  0  0  0  0
 28 30  1  0  0  0  0
 29 22  1  1  0  0  0
 29 27  1  0  0  0  0
 32 31  2  6  0  0  0
 32 33  1  0  0  0  0
 32 30  1  0  0  0  0
 34 42  1  6  0  0  0
 34 41  1  0  0  0  0
 35 33  1  6  0  0  0
 35 36  1  0  0  0  0
 35 34  1  0  0  0  0
 36 40  1  6  0  0  0
 36 39  1  0  0  0  0
 37 38  1  1  0  0  0
 39 40  1  6  0  0  0
 39 37  1  0  0  0  0
 41 37  1  0  0  0  0
 43 44  1  0  0  0  0
 44 42  1  0  0  0  0
 45 46  1  0  0  0  0
 46 56  1  0  0  0  0
 47 48  2  0  0  0  0
 49 48  1  6  0  0  0
 50 49  1  0  0  0  0
 51 54  2  0  0  0  0
 52 55  2  0  0  0  0
 53 60  1  6  0  0  0
 53 58  1  0  0  0  0
 54 47  1  0  0  0  0
 55 50  1  0  0  0  0
 55 53  1  0  0  0  0
 56 54  1  0  0  0  0
 56 50  2  0  0  0  0
 57 47  1  0  0  0  0
 58 49  1  0  0  0  0
 59 62  2  0  0  0  0
 59 65  1  0  0  0  0
 60 63  1  0  0  0  0
 61 59  1  0  0  0  0
 62 63  1  0  0  0  0
 64 62  1  0  0  0  0
 65 60  2  0  0  0  0
M  END
>  <MODEL>
8

>  <REMARK>
 VINA RESULT:      -6.5      2.339      8.017
  Name = 
  18 active torsions:
  status: ('A' for Active; 'I' for Inactive)
    1  A    between atoms: C_1  and  O_34
    2  A    between atoms: C_2  and  S_30
    3  A    between atoms: C_2  and  N_46
    4  A    between atoms: C_3  and  C_41
    5  A    between atoms: C_3  and  O_47
    6  A    between atoms: C_10  and  C_40
    7  A    between atoms: C_13  and  C_28
    8  A    between atoms: C_13  and  C_59
    9  A    between atoms: N_15  and  C_41
   10  A    between atoms: C_20  and  C_52
   11  A    between atoms: C_25  and  O_47
   12  A    between atoms: C_25  and  N_63
   13  A    between atoms: C_28  and  C_32
   14  A    between atoms: C_28  and  C_65
   15  A    between atoms: S_30  and  C_52
   16  A    between atoms: C_32  and  C_62
   17  A    between atoms: O_34  and  C_36
   18  A    between atoms: C_56  and  C_59
                            x       y       z     vdW  Elec       q    Type
                         _______ _______ _______ _____ _____    ______ ____

>  <TORSDO>
F 18

$$$$
=
 OpenBabel11042414193D

 65 72  0  0  1  0  0  0  0  0999 V2000
  191.0340  172.0280  139.0930 C   0  0  2  0  0  3  0  0  0  0  0  0
  189.4140  172.6880  140.9820 C   0  0  0  0  0  0  0  0  0  0  0  0
  188.0280  174.6370  140.7270 N   0  0  0  0  0  0  0  0  0  0  0  0
  189.8980  171.6440  141.7610 O   0  0  0  0  0  1  0  0  0  0  0  0
  188.1440  174.6040  139.2630 C   0  0  0  0  0  2  0  0  0  0  0  0
  188.5490  173.5550  141.5100 C   0  0  0  0  0  3  0  0  0  0  0  0
  189.3400  173.8080  138.8170 C   0  0  0  0  0  3  0  0  0  0  0  0
  189.8840  172.8610  139.5920 C   0  0  0  0  0  0  0  0  0  0  0  0
  187.2100  175.6320  141.4250 C   0  0  0  0  0  2  0  0  0  0  0  0
  187.0220  176.9280  140.6430 C   0  0  0  0  0  2  0  0  0  0  0  0
  185.6650  177.1990  140.4680 O   0  0  0  0  0  0  0  0  0  0  0  0
  185.4150  178.2770  141.3160 C   0  0  0  0  0  2  0  0  0  0  0  0
  185.6950  179.2970  146.2320 C   0  0  0  0  0  2  0  0  0  0  0  0
  186.5850  176.5010  146.4680 C   0  0  0  0  0  2  0  0  0  0  0  0
  185.6250  178.5990  147.5880 C   0  0  0  0  0  2  0  0  0  0  0  0
  185.6370  178.3290  145.1320 N   0  0  0  0  0  0  0  0  0  0  0  0
  186.6570  177.4730  147.6580 C   0  0  0  0  0  2  0  0  0  0  0  0
  185.5540  180.0290  143.5310 O   0  0  0  0  0  0  0  0  0  0  0  0
  185.5760  178.7910  143.7760 C   0  0  0  0  0  0  0  0  0  0  0  0
  185.5470  176.8970  145.4190 C   0  0  0  0  0  2  0  0  0  0  0  0
  185.5510  177.8520  142.6980 N   0  0  0  0  0  2  0  0  0  0  0  0
  192.3020  172.8610  139.0050 C   0  0  0  0  0  2  0  0  0  0  0  0
  194.1910  171.9510  140.2490 O   0  0  0  0  0  0  0  0  0  0  0  0
  195.9920  174.9970  139.4570 C   0  0  0  0  0  1  0  0  0  0  0  0
  195.7080  173.8490  140.4250 C   0  0  2  0  0  3  0  0  0  0  0  0
  195.2430  172.6380  139.6030 C   0  0  0  0  0  2  0  0  0  0  0  0
  193.3730  174.1990  140.8610 C   0  0  0  0  0  2  0  0  0  0  0  0
  194.7050  174.1870  141.4570 N   0  0  0  0  0  0  0  0  0  0  0  0
  193.0500  172.7950  140.3290 C   0  0  1  0  0  3  0  0  0  0  0  0
  194.9640  175.4900  142.0590 C   0  0  0  0  0  2  0  0  0  0  0  0
  194.6980  173.9200  144.1300 O   0  0  0  0  0  0  0  0  0  0  0  0
  195.2860  175.2900  143.8210 S   0  0  2  0  0  0  0  0  0  0  0  0
  194.1230  176.4410  144.5810 C   0  0  0  0  0  2  0  0  0  0  0  0
  191.8110  175.7010  145.3480 C   0  0  2  0  0  3  0  0  0  0  0  0
  192.6940  176.1180  144.1670 C   0  0  1  0  0  3  0  0  0  0  0  0
  192.1340  177.2110  143.2370 C   0  0  1  0  0  3  0  0  0  0  0  0
  189.7840  176.6890  144.2820 C   0  0  2  0  0  3  0  0  0  0  0  0
  188.5400  176.3940  143.7280 O   0  0  0  0  0  1  0  0  0  0  0  0
  190.6480  177.4180  143.2430 C   0  0  1  0  0  3  0  0  0  0  0  0
  191.5330  178.2680  143.9450 O   0  0  0  0  0  0  0  0  0  0  0  0
  190.4120  175.4160  144.8300 C   0  0  0  0  0  2  0  0  0  0  0  0
  191.7870  176.6910  146.3390 O   0  0  0  0  0  0  0  0  0  0  0  0
  191.5920  175.4120  148.3310 C   0  0  0  0  0  1  0  0  0  0  0  0
  190.8690  176.2340  147.2870 C   0  0  0  0  0  2  0  0  0  0  0  0
  190.7450  171.3760  137.7500 C   0  0  0  0  0  2  0  0  0  0  0  0
  190.8270  169.8630  137.8650 C   0  0  0  0  0  2  0  0  0  0  0  0
  194.6270  169.9180  137.0150 C   0  0  0  0  0  0  0  0  0  0  0  0
  195.1240  169.2520  138.0650 C   0  0  0  0  0  3  0  0  0  0  0  0
  194.2430  168.3670  138.9080 C   0  0  2  0  0  3  0  0  0  0  0  0
  192.8150  168.7620  138.8500 C   0  0  0  0  0  0  0  0  0  0  0  0
  192.6940  170.4590  135.7270 O   0  0  0  0  0  0  0  0  0  0  0  0
  191.0830  168.5130  140.4880 O   0  0  0  0  0  0  0  0  0  0  0  0
  193.4440  168.1690  141.0320 C   0  0  1  0  0  3  0  0  0  0  0  0
  193.1620  169.9400  136.7750 C   0  0  0  0  0  0  0  0  0  0  0  0
  192.2970  168.4920  140.1480 C   0  0  0  0  0  0  0  0  0  0  0  0
  192.2580  169.4290  137.8280 C   0  0  0  0  0  0  0  0  0  0  0  0
  195.5470  170.7160  136.1590 C   0  0  0  0  0  1  0  0  0  0  0  0
  194.6310  168.3560  140.2710 O   0  0  0  0  0  0  0  0  0  0  0  0
  192.8880  170.7150  143.6340 C   0  0  0  0  0  0  0  0  0  0  0  0
  193.4800  169.0520  142.2420 C   0  0  0  0  0  0  0  0  0  0  0  0
  192.0320  171.8350  144.1260 C   0  0  0  0  0  1  0  0  0  0  0  0
  194.0330  170.2740  144.2900 C   0  0  0  0  0  0  0  0  0  0  0  0
  194.6890  168.9980  143.4120 S   0  0  0  0  0  0  0  0  0  0  0  0
  194.5990  170.8220  145.5530 C   0  0  0  0  0  1  0  0  0  0  0  0
  192.5870  170.0390  142.4940 N   0  0  0  0  0  0  0  0  0  0  0  0
  1 45  1  6  0  0  0
  1  8  1  0  0  0  0
  2  6  2  0  0  0  0
  2  4  1  0  0  0  0
  3  9  1  0  0  0  0
  3  6  1  0  0  0  0
  5  3  1  0  0  0  0
  7  5  1  0  0  0  0
  7  8  2  0  0  0  0
  8  2  1  0  0  0  0
 10  9  1  0  0  0  0
 11 10  1  0  0  0  0
 11 12  1  0  0  0  0
 12 21  1  0  0  0  0
 13 15  1  0  0  0  0
 14 17  1  0  0  0  0
 15 17  1  0  0  0  0
 16 20  1  0  0  0  0
 16 13  1  0  0  0  0
 18 19  2  0  0  0  0
 19 16  1  0  0  0  0
 20 14  1  0  0  0  0
 21 19  1  0  0  0  0
 22  1  1  0  0  0  0
 23 29  1  0  0  0  0
 25 24  1  6  0  0  0
 25 28  1  0  0  0  0
 26 23  1  0  0  0  0
 26 25  1  0  0  0  0
 27 28  1  0  0  0  0
 28 30  1  0  0  0  0
 29 22  1  6  0  0  0
 29 27  1  0  0  0  0
 30 32  1  0  0  0  0
 32 31  2  1  0  0  0
 32 33  1  0  0  0  0
 34 42  1  1  0  0  0
 35 33  1  1  0  0  0
 35 34  1  0  0  0  0
 36 39  1  0  0  0  0
 36 40  1  1  0  0  0
 36 35  1  0  0  0  0
 37 38  1  6  0  0  0
 37 41  1  0  0  0  0
 39 40  1  1  0  0  0
 39 37  1  0  0  0  0
 41 34  1  0  0  0  0
 42 44  1  0  0  0  0
 44 43  1  0  0  0  0
 45 46  1  0  0  0  0
 47 48  2  0  0  0  0
 49 48  1  6  0  0  0
 49 58  1  0  0  0  0
 50 49  1  0  0  0  0
 50 55  1  0  0  0  0
 51 54  2  0  0  0  0
 53 60  1  1  0  0  0
 54 47  1  0  0  0  0
 54 56  1  0  0  0  0
 55 52  2  0  0  0  0
 55 53  1  0  0  0  0
 56 46  1  0  0  0  0
 56 50  2  0  0  0  0
 57 47  1  0  0  0  0
 58 53  1  0  0  0  0
 59 61  1  0  0  0  0
 59 62  2  0  0  0  0
 60 65  2  0  0  0  0
 60 63  1  0  0  0  0
 62 64  1  0  0  0  0
 63 62  1  0  0  0  0
 65 59  1  0  0  0  0
M  END
>  <MODEL>
9

>  <REMARK>
 VINA RESULT:      -6.4      2.770      7.943
  Name = 
  18 active torsions:
  status: ('A' for Active; 'I' for Inactive)
    1  A    between atoms: C_1  and  O_34
    2  A    between atoms: C_2  and  S_30
    3  A    between atoms: C_2  and  N_46
    4  A    between atoms: C_3  and  C_41
    5  A    between atoms: C_3  and  O_47
    6  A    between atoms: C_10  and  C_40
    7  A    between atoms: C_13  and  C_28
    8  A    between atoms: C_13  and  C_59
    9  A    between atoms: N_15  and  C_41
   10  A    between atoms: C_20  and  C_52
   11  A    between atoms: C_25  and  O_47
   12  A    between atoms: C_25  and  N_63
   13  A    between atoms: C_28  and  C_32
   14  A    between atoms: C_28  and  C_65
   15  A    between atoms: S_30  and  C_52
   16  A    between atoms: C_32  and  C_62
   17  A    between atoms: O_34  and  C_36
   18  A    between atoms: C_56  and  C_59
                            x       y       z     vdW  Elec       q    Type
                         _______ _______ _______ _____ _____    ______ ____

>  <TORSDO>
F 18

$$$$
