=
 OpenBabel11042416193D

 66 71  0  0  1  0  0  0  0  0999 V2000
  188.7820  172.8120  141.1750 C   0  0  0  0  0  1  0  0  0  0  0  0
  187.2250  175.3030  137.7220 C   0  0  1  0  0  3  0  0  0  0  0  0
  188.8240  174.0090  140.2300 C   0  0  2  0  0  3  0  0  0  0  0  0
  187.1100  176.4970  138.6840 C   0  0  2  0  0  3  0  0  0  0  0  0
  186.9640  175.7340  136.4220 O   0  0  0  0  0  1  0  0  0  0  0  0
  188.6000  174.6540  137.7610 C   0  0  0  0  0  2  0  0  0  0  0  0
  187.7690  175.0460  140.6710 C   0  0  2  0  0  3  0  0  0  0  0  0
  188.6220  173.5150  138.7810 C   0  0  1  0  0  3  0  0  0  0  0  0
  187.9600  176.3800  139.9540 C   0  0  0  0  0  2  0  0  0  0  0  0
  185.3730  177.5500  140.2260 N   0  0  0  0  0  2  0  0  0  0  0  0
  184.7690  176.4960  138.2200 O   0  0  0  0  0  0  0  0  0  0  0  0
  185.6850  176.8390  139.0190 C   0  0  0  0  0  0  0  0  0  0  0  0
  182.6170  177.7380  139.8620 S   0  0  0  0  0  0  0  0  0  0  0  0
  184.0610  177.8500  140.7240 C   0  0  0  0  0  0  0  0  0  0  0  0
  183.7810  178.2350  142.0370 C   0  0  0  0  0  0  0  0  0  0  0  0
  182.4110  178.4240  142.2780 C   0  0  0  0  0  3  0  0  0  0  0  0
  181.6320  178.1930  141.1510 C   0  0  0  0  0  0  0  0  0  0  0  0
  184.7980  178.3610  143.1410 C   0  0  2  0  0  3  0  0  0  0  0  0
  185.1520  177.1060  143.6480 O   0  0  0  0  0  1  0  0  0  0  0  0
  185.3380  180.4600  144.4750 C   0  0  0  0  0  1  0  0  0  0  0  0
  184.3750  179.3010  144.2780 C   0  0  0  0  0  3  0  0  0  0  0  0
  184.1840  178.5470  145.5820 C   0  0  0  0  0  1  0  0  0  0  0  0
  180.1420  178.2660  141.1240 C   0  0  0  0  0  2  0  0  0  0  0  0
  179.6080  180.3670  140.1390 O   0  0  0  0  0  1  0  0  0  0  0  0
  179.6570  179.6860  141.3580 C   0  0  1  0  0  3  0  0  0  0  0  0
  178.2720  179.6400  141.9720 C   0  0  0  0  0  2  0  0  0  0  0  0
  178.2440  178.6630  143.1320 C   0  0  0  0  0  1  0  0  0  0  0  0
  189.7510  172.5680  138.3930 C   0  0  0  0  0  2  0  0  0  0  0  0
  190.8670  173.3760  137.2080 S   0  0  0  0  0  0  0  0  0  0  0  0
  193.2480  170.9360  138.8820 C   0  0  2  0  0  3  0  0  0  0  0  0
  193.3760  172.3290  136.9330 C   0  0  0  0  0  2  0  0  0  0  0  0
  194.0380  172.0710  138.2700 C   0  0  0  0  0  2  0  0  0  0  0  0
  191.9250  171.9070  137.0900 C   0  0  1  0  0  3  0  0  0  0  0  0
  191.8310  171.1120  138.3820 C   0  0  0  0  0  2  0  0  0  0  0  0
  193.2740  170.9960  140.4000 C   0  0  0  0  0  2  0  0  0  0  0  0
  194.8890  172.2920  141.9030 C   0  0  1  0  0  3  0  0  0  0  0  0
  195.5810  173.6400  142.2450 C   0  0  1  0  0  3  0  0  0  0  0  0
  192.5130  174.6210  141.1790 C   0  0  0  0  0  2  0  0  0  0  0  0
  194.6300  174.8260  142.5290 C   0  0  2  0  0  3  0  0  0  0  0  0
  192.4860  173.1120  141.4040 C   0  0  2  0  0  3  0  0  0  0  0  0
  193.9060  175.2370  141.2560 C   0  0  0  0  0  2  0  0  0  0  0  0
  192.1270  172.7670  142.8430 C   0  0  0  0  0  1  0  0  0  0  0  0
  193.7260  172.3750  140.8760 C   0  0  2  0  0  3  0  0  0  0  0  0
  195.3540  176.0270  143.0540 C   0  0  0  0  0  0  0  0  0  0  0  0
  196.0610  176.7180  142.2740 O   0  0  0  0  0  0  0  0  0  0  0  0
  195.2540  176.3790  144.3960 O   0  0  0  0  0  1  0  0  0  0  0  0
  195.9310  171.3070  141.4520 C   0  0  0  0  0  0  0  0  0  0  0  0
  196.7550  171.5990  140.3720 O   0  0  0  0  0  0  0  0  0  0  0  0
  196.0590  170.2100  142.0570 O   0  0  0  0  0  1  0  0  0  0  0  0
  196.5950  173.4410  143.3840 C   0  0  0  0  0  2  0  0  0  0  0  0
  195.9530  172.8180  144.6220 C   0  0  0  0  0  2  0  0  0  0  0  0
  196.6480  171.2420  146.2910 O   0  0  0  0  0  1  0  0  0  0  0  0
  196.9980  172.4380  145.6620 C   0  0  0  0  0  3  0  0  0  0  0  0
  197.1320  173.4520  146.6120 O   0  0  0  0  0  1  0  0  0  0  0  0
  187.7680  175.2550  142.0880 O   0  0  0  0  0  0  0  0  0  0  0  0
  191.6520  176.6600  147.2910 C   0  0  0  0  0  2  0  0  0  0  0  0
  189.7100  176.5420  142.6830 C   0  0  0  0  0  3  0  0  0  0  0  0
  191.3490  175.4290  148.0090 N   0  0  0  0  0  2  0  0  0  0  0  0
  189.8820  174.3390  146.3950 C   0  0  0  0  0  2  0  0  0  0  0  0
  191.9010  176.3680  145.8170 C   0  0  0  0  0  2  0  0  0  0  0  0
  190.9230  176.7220  143.5470 C   0  0  0  0  0  2  0  0  0  0  0  0
  188.9050  175.4930  142.8780 C   0  0  0  0  0  0  0  0  0  0  0  0
  189.9680  175.0540  147.7350 C   0  0  0  0  0  2  0  0  0  0  0  0
  189.2250  174.5390  143.9890 C   0  0  0  0  0  2  0  0  0  0  0  0
  190.5990  176.4710  145.0270 C   0  0  1  0  0  3  0  0  0  0  0  0
  189.5650  175.3170  145.2640 C   0  0  2  0  0  3  0  0  0  0  0  0
  2  5  1  6  0  0  0
  2  6  1  0  0  0  0
  2  4  1  0  0  0  0
  3  7  1  0  0  0  0
  3  1  1  1  0  0  0
  4 12  1  1  0  0  0
  4  9  1  0  0  0  0
  6  8  1  0  0  0  0
  7 55  1  1  0  0  0
  8 28  1  6  0  0  0
  8  3  1  0  0  0  0
  9  7  1  0  0  0  0
 10 14  1  0  0  0  0
 11 12  2  0  0  0  0
 12 10  1  0  0  0  0
 13 14  1  0  0  0  0
 13 17  1  0  0  0  0
 14 15  2  0  0  0  0
 15 16  1  0  0  0  0
 15 18  1  0  0  0  0
 17 16  2  0  0  0  0
 18 19  1  1  0  0  0
 18 21  1  0  0  0  0
 21 20  1  0  0  0  0
 21 22  1  0  0  0  0
 23 17  1  0  0  0  0
 23 25  1  0  0  0  0
 25 24  1  6  0  0  0
 25 26  1  0  0  0  0
 26 27  1  0  0  0  0
 29 28  1  0  0  0  0
 30 35  1  1  0  0  0
 31 33  1  0  0  0  0
 31 32  1  0  0  0  0
 32 30  1  0  0  0  0
 33 29  1  1  0  0  0
 33 34  1  0  0  0  0
 34 30  1  0  0  0  0
 36 47  1  6  0  0  0
 36 37  1  0  0  0  0
 37 39  1  0  0  0  0
 37 50  1  1  0  0  0
 38 41  1  0  0  0  0
 38 40  1  0  0  0  0
 39 44  1  6  0  0  0
 40 42  1  1  0  0  0
 41 39  1  0  0  0  0
 43 35  1  1  0  0  0
 43 40  1  0  0  0  0
 43 36  1  0  0  0  0
 44 46  1  0  0  0  0
 45 44  2  0  0  0  0
 47 49  1  0  0  0  0
 48 47  2  0  0  0  0
 50 51  1  0  0  0  0
 51 53  1  0  0  0  0
 53 52  1  0  0  0  0
 53 54  1  0  0  0  0
 55 62  1  0  0  0  0
 56 58  1  0  0  0  0
 57 62  2  0  0  0  0
 57 61  1  0  0  0  0
 59 63  1  0  0  0  0
 60 56  1  0  0  0  0
 62 64  1  0  0  0  0
 63 58  1  0  0  0  0
 65 61  1  6  0  0  0
 65 66  1  0  0  0  0
 65 60  1  0  0  0  0
 66 64  1  6  0  0  0
 66 59  1  0  0  0  0
M  END
>  <MODEL>
1

>  <REMARK>
 VINA RESULT:      -5.8      0.000      0.000
  Name = 
  19 active torsions:
  status: ('A' for Active; 'I' for Inactive)
    1  A    between atoms: C_1  and  C_32
    2  A    between atoms: C_2  and  C_37
    3  A    between atoms: C_2  and  C_47
    4  A    between atoms: C_3  and  C_13
    5  A    between atoms: C_10  and  C_59
    6  A    between atoms: N_12  and  C_36
    7  A    between atoms: C_13  and  C_60
    8  A    between atoms: C_14  and  C_21
    9  A    between atoms: C_18  and  C_54
   10  A    between atoms: C_19  and  C_47
   11  A    between atoms: C_29  and  C_49
   12  A    between atoms: C_31  and  S_57
   13  A    between atoms: C_33  and  O_46
   14  A    between atoms: C_38  and  C_49
   15  A    between atoms: C_42  and  O_46
   16  A    between atoms: C_53  and  C_55
   17  A    between atoms: C_53  and  S_57
   18  A    between atoms: C_59  and  C_61
   19  A    between atoms: C_61  and  C_66
                            x       y       z     vdW  Elec       q    Type
                         _______ _______ _______ _____ _____    ______ ____

>  <TORSDO>
F 19

$$$$
=
 OpenBabel11042416193D

 66 71  0  0  1  0  0  0  0  0999 V2000
  192.8320  172.3770  142.9330 C   0  0  0  0  0  1  0  0  0  0  0  0
  192.6200  175.7620  145.9410 C   0  0  1  0  0  3  0  0  0  0  0  0
  192.5740  172.9510  144.3230 C   0  0  2  0  0  3  0  0  0  0  0  0
  191.1460  175.4010  146.1880 C   0  0  2  0  0  3  0  0  0  0  0  0
  193.0140  176.7330  146.8600 O   0  0  0  0  0  1  0  0  0  0  0  0
  193.5430  174.5600  146.0650 C   0  0  0  0  0  2  0  0  0  0  0  0
  191.1970  173.6470  144.3410 C   0  0  2  0  0  3  0  0  0  0  0  0
  193.7360  173.8940  144.7020 C   0  0  1  0  0  3  0  0  0  0  0  0
  190.7550  173.9810  145.7640 C   0  0  0  0  0  2  0  0  0  0  0  0
  188.8260  176.0650  145.3640 N   0  0  0  0  0  2  0  0  0  0  0  0
  190.6170  177.5790  145.3660 O   0  0  0  0  0  0  0  0  0  0  0  0
  190.1940  176.4150  145.6160 C   0  0  0  0  0  0  0  0  0  0  0  0
  187.9170  177.5130  143.1630 S   0  0  0  0  0  0  0  0  0  0  0  0
  187.8380  176.8890  144.7270 C   0  0  0  0  0  0  0  0  0  0  0  0
  186.6210  177.2570  145.3040 C   0  0  0  0  0  0  0  0  0  0  0  0
  185.8160  178.0280  144.4530 C   0  0  0  0  0  3  0  0  0  0  0  0
  186.4120  178.2660  143.2200 C   0  0  0  0  0  0  0  0  0  0  0  0
  186.1360  176.8210  146.6630 C   0  0  2  0  0  3  0  0  0  0  0  0
  184.8250  176.3380  146.6010 O   0  0  0  0  0  1  0  0  0  0  0  0
  185.2620  179.0280  147.5800 C   0  0  0  0  0  1  0  0  0  0  0  0
  186.2640  177.8970  147.7480 C   0  0  0  0  0  3  0  0  0  0  0  0
  187.6770  178.4510  147.8190 C   0  0  0  0  0  1  0  0  0  0  0  0
  185.7680  179.0100  142.0980 C   0  0  0  0  0  2  0  0  0  0  0  0
  184.2310  178.8440  140.2870 O   0  0  0  0  0  1  0  0  0  0  0  0
  184.8900  178.0930  141.2640 C   0  0  1  0  0  3  0  0  0  0  0  0
  185.7600  177.0440  140.6010 C   0  0  0  0  0  2  0  0  0  0  0  0
  186.6460  177.6840  139.5500 C   0  0  0  0  0  1  0  0  0  0  0  0
  195.0440  173.1130  144.7500 C   0  0  0  0  0  2  0  0  0  0  0  0
  194.7990  171.5340  145.6150 S   0  0  0  0  0  0  0  0  0  0  0  0
  196.6950  169.7430  142.8530 C   0  0  2  0  0  3  0  0  0  0  0  0
  196.4020  169.3590  145.2030 C   0  0  0  0  0  2  0  0  0  0  0  0
  196.1730  168.7280  143.8460 C   0  0  0  0  0  2  0  0  0  0  0  0
  196.3630  170.8620  144.9850 C   0  0  1  0  0  3  0  0  0  0  0  0
  196.4440  171.0950  143.4850 C   0  0  0  0  0  2  0  0  0  0  0  0
  195.9640  169.6480  141.5240 C   0  0  0  0  0  2  0  0  0  0  0  0
  194.9900  170.9900  139.5750 C   0  0  1  0  0  3  0  0  0  0  0  0
  194.5600  172.3700  139.0070 C   0  0  1  0  0  3  0  0  0  0  0  0
  197.2610  173.1500  140.9060 C   0  0  0  0  0  2  0  0  0  0  0  0
  195.6610  173.4560  138.9850 C   0  0  2  0  0  3  0  0  0  0  0  0
  197.2090  171.6340  140.7410 C   0  0  2  0  0  3  0  0  0  0  0  0
  196.0170  173.8740  140.4030 C   0  0  0  0  0  2  0  0  0  0  0  0
  197.9390  171.1820  139.4830 C   0  0  0  0  0  1  0  0  0  0  0  0
  195.8040  171.0320  140.8980 C   0  0  2  0  0  3  0  0  0  0  0  0
  195.2400  174.6830  138.2360 C   0  0  0  0  0  0  0  0  0  0  0  0
  194.1950  175.2950  138.5810 O   0  0  0  0  0  1  0  0  0  0  0  0
  195.9920  175.1450  137.1610 O   0  0  0  0  0  0  0  0  0  0  0  0
  193.7720  170.1210  139.7240 C   0  0  0  0  0  0  0  0  0  0  0  0
  192.7030  170.5350  140.5100 O   0  0  0  0  0  1  0  0  0  0  0  0
  193.7210  169.0100  139.1340 O   0  0  0  0  0  0  0  0  0  0  0  0
  193.9090  172.1940  137.6250 C   0  0  0  0  0  2  0  0  0  0  0  0
  194.9050  171.6940  136.5810 C   0  0  0  0  0  2  0  0  0  0  0  0
  195.6210  169.4690  136.0400 O   0  0  0  0  0  1  0  0  0  0  0  0
  194.5150  170.3210  136.0490 C   0  0  0  0  0  3  0  0  0  0  0  0
  193.9880  170.4290  134.7610 O   0  0  0  0  0  1  0  0  0  0  0  0
  190.1830  172.8700  143.6910 O   0  0  0  0  0  0  0  0  0  0  0  0
  189.2440  173.8080  137.1820 C   0  0  0  0  0  2  0  0  0  0  0  0
  189.1910  174.4220  142.1460 C   0  0  0  0  0  3  0  0  0  0  0  0
  189.3260  172.3940  136.8390 N   0  0  0  0  0  2  0  0  0  0  0  0
  189.6090  171.4280  139.0600 C   0  0  0  0  0  2  0  0  0  0  0  0
  188.3890  174.0040  138.4270 C   0  0  0  0  0  2  0  0  0  0  0  0
  188.5280  174.6810  140.8260 C   0  0  0  0  0  2  0  0  0  0  0  0
  189.5790  173.1820  142.4620 C   0  0  0  0  0  0  0  0  0  0  0  0
  190.2800  171.7490  137.7330 C   0  0  0  0  0  2  0  0  0  0  0  0
  189.3680  172.0860  141.4620 C   0  0  0  0  0  2  0  0  0  0  0  0
  189.2560  173.9610  139.6820 C   0  0  1  0  0  3  0  0  0  0  0  0
  189.8190  172.5520  140.0740 C   0  0  2  0  0  3  0  0  0  0  0  0
  2  6  1  0  0  0  0
  2  4  1  0  0  0  0
  2  5  1  1  0  0  0
  3  1  1  6  0  0  0
  3  7  1  0  0  0  0
  3  8  1  0  0  0  0
  4 12  1  6  0  0  0
  7 55  1  1  0  0  0
  7  9  1  0  0  0  0
  8 28  1  1  0  0  0
  8  6  1  0  0  0  0
  9  4  1  0  0  0  0
 10 12  1  0  0  0  0
 11 12  2  0  0  0  0
 13 17  1  0  0  0  0
 13 14  1  0  0  0  0
 14 15  2  0  0  0  0
 14 10  1  0  0  0  0
 15 18  1  0  0  0  0
 16 15  1  0  0  0  0
 17 16  2  0  0  0  0
 18 19  1  6  0  0  0
 18 21  1  0  0  0  0
 20 21  1  0  0  0  0
 21 22  1  0  0  0  0
 23 17  1  0  0  0  0
 25 24  1  6  0  0  0
 25 23  1  0  0  0  0
 26 25  1  0  0  0  0
 27 26  1  0  0  0  0
 28 29  1  0  0  0  0
 30 35  1  6  0  0  0
 30 34  1  0  0  0  0
 30 32  1  0  0  0  0
 32 31  1  0  0  0  0
 33 31  1  0  0  0  0
 33 29  1  6  0  0  0
 34 33  1  0  0  0  0
 36 47  1  1  0  0  0
 36 43  1  0  0  0  0
 37 50  1  6  0  0  0
 37 36  1  0  0  0  0
 39 44  1  6  0  0  0
 39 37  1  0  0  0  0
 39 41  1  0  0  0  0
 40 42  1  6  0  0  0
 40 43  1  0  0  0  0
 40 38  1  0  0  0  0
 41 38  1  0  0  0  0
 43 35  1  6  0  0  0
 44 45  1  0  0  0  0
 46 44  2  0  0  0  0
 47 48  1  0  0  0  0
 49 47  2  0  0  0  0
 51 50  1  0  0  0  0
 52 53  1  0  0  0  0
 53 51  1  0  0  0  0
 54 53  1  0  0  0  0
 56 60  1  0  0  0  0
 57 62  2  0  0  0  0
 58 56  1  0  0  0  0
 58 63  1  0  0  0  0
 61 57  1  0  0  0  0
 62 55  1  0  0  0  0
 63 59  1  0  0  0  0
 64 62  1  0  0  0  0
 65 60  1  6  0  0  0
 65 66  1  0  0  0  0
 65 61  1  0  0  0  0
 66 59  1  6  0  0  0
 66 64  1  0  0  0  0
M  END
>  <MODEL>
2

>  <REMARK>
 VINA RESULT:      -5.4      3.188      6.838
  Name = 
  19 active torsions:
  status: ('A' for Active; 'I' for Inactive)
    1  A    between atoms: C_1  and  C_32
    2  A    between atoms: C_2  and  C_37
    3  A    between atoms: C_2  and  C_47
    4  A    between atoms: C_3  and  C_13
    5  A    between atoms: C_10  and  C_59
    6  A    between atoms: N_12  and  C_36
    7  A    between atoms: C_13  and  C_60
    8  A    between atoms: C_14  and  C_21
    9  A    between atoms: C_18  and  C_54
   10  A    between atoms: C_19  and  C_47
   11  A    between atoms: C_29  and  C_49
   12  A    between atoms: C_31  and  S_57
   13  A    between atoms: C_33  and  O_46
   14  A    between atoms: C_38  and  C_49
   15  A    between atoms: C_42  and  O_46
   16  A    between atoms: C_53  and  C_55
   17  A    between atoms: C_53  and  S_57
   18  A    between atoms: C_59  and  C_61
   19  A    between atoms: C_61  and  C_66
                            x       y       z     vdW  Elec       q    Type
                         _______ _______ _______ _____ _____    ______ ____

>  <TORSDO>
F 19

$$$$
=
 OpenBabel11042416193D

 66 71  0  0  1  0  0  0  0  0999 V2000
  196.1230  176.3930  142.6580 C   0  0  0  0  0  1  0  0  0  0  0  0
  195.9280  172.0960  144.0890 C   0  0  1  0  0  3  0  0  0  0  0  0
  196.7180  175.1390  143.2910 C   0  0  2  0  0  3  0  0  0  0  0  0
  197.1040  171.7710  143.1540 C   0  0  2  0  0  3  0  0  0  0  0  0
  195.6520  170.9840  144.8830 O   0  0  0  0  0  1  0  0  0  0  0  0
  196.2120  173.2890  144.9890 C   0  0  0  0  0  2  0  0  0  0  0  0
  197.0720  174.1260  142.1840 C   0  0  2  0  0  3  0  0  0  0  0  0
  195.7240  174.5800  144.3320 C   0  0  1  0  0  3  0  0  0  0  0  0
  197.9330  172.9850  142.7200 C   0  0  0  0  0  2  0  0  0  0  0  0
  195.5530  171.3270  141.1780 N   0  0  0  0  0  2  0  0  0  0  0  0
  197.3660  169.9220  141.6670 O   0  0  0  0  0  0  0  0  0  0  0  0
  196.6920  170.9480  141.9650 C   0  0  0  0  0  0  0  0  0  0  0  0
  195.8280  169.6450  138.9730 S   0  0  0  0  0  0  0  0  0  0  0  0
  194.9840  170.5860  140.0890 C   0  0  0  0  0  0  0  0  0  0  0  0
  193.6170  170.4930  139.8220 C   0  0  0  0  0  0  0  0  0  0  0  0
  193.3210  169.6690  138.7260 C   0  0  0  0  0  3  0  0  0  0  0  0
  194.4590  169.1300  138.1380 C   0  0  0  0  0  0  0  0  0  0  0  0
  192.5250  171.1210  140.6500 C   0  0  2  0  0  3  0  0  0  0  0  0
  192.5230  172.5120  140.5120 O   0  0  0  0  0  1  0  0  0  0  0  0
  191.8770  169.3930  142.4030 C   0  0  0  0  0  1  0  0  0  0  0  0
  192.5570  170.7250  142.1320 C   0  0  0  0  0  3  0  0  0  0  0  0
  191.9590  171.8110  143.0100 C   0  0  0  0  0  1  0  0  0  0  0  0
  194.4480  168.1770  136.9900 C   0  0  0  0  0  2  0  0  0  0  0  0
  194.1040  170.1810  135.7510 O   0  0  0  0  0  1  0  0  0  0  0  0
  193.8300  168.8100  135.7560 C   0  0  1  0  0  3  0  0  0  0  0  0
  194.4260  168.1660  134.5200 C   0  0  0  0  0  2  0  0  0  0  0  0
  195.9400  168.2090  134.5830 C   0  0  0  0  0  1  0  0  0  0  0  0
  195.4960  175.6050  145.4370 C   0  0  0  0  0  2  0  0  0  0  0  0
  193.8790  176.4050  145.2250 S   0  0  0  0  0  0  0  0  0  0  0  0
  191.1040  175.3700  147.6030 C   0  0  2  0  0  3  0  0  0  0  0  0
  192.7040  177.1580  147.5730 C   0  0  0  0  0  2  0  0  0  0  0  0
  191.2150  176.8790  147.5840 C   0  0  0  0  0  2  0  0  0  0  0  0
  193.3560  175.9610  146.9040 C   0  0  1  0  0  3  0  0  0  0  0  0
  192.3040  174.8660  146.8310 C   0  0  0  0  0  2  0  0  0  0  0  0
  189.8230  174.8990  146.9350 C   0  0  0  0  0  2  0  0  0  0  0  0
  188.1640  176.0880  145.3910 C   0  0  1  0  0  3  0  0  0  0  0  0
  187.9310  177.0320  144.1800 C   0  0  1  0  0  3  0  0  0  0  0  0
  190.7410  175.3510  143.2900 C   0  0  0  0  0  2  0  0  0  0  0  0
  188.5930  176.5920  142.8530 C   0  0  2  0  0  3  0  0  0  0  0  0
  190.1190  174.6480  144.4950 C   0  0  2  0  0  3  0  0  0  0  0  0
  190.1060  176.6970  142.9590 C   0  0  0  0  0  2  0  0  0  0  0  0
  189.0890  173.6110  144.0680 C   0  0  0  0  0  1  0  0  0  0  0  0
  189.6260  175.6020  145.5930 C   0  0  2  0  0  3  0  0  0  0  0  0
  188.1540  177.4280  141.6900 C   0  0  0  0  0  0  0  0  0  0  0  0
  188.5540  178.6180  141.5930 O   0  0  0  0  0  1  0  0  0  0  0  0
  187.3070  176.8990  140.7230 O   0  0  0  0  0  0  0  0  0  0  0  0
  187.6440  176.7510  146.6360 C   0  0  0  0  0  0  0  0  0  0  0  0
  186.5570  176.2170  147.3180 O   0  0  0  0  0  1  0  0  0  0  0  0
  188.1960  177.7990  147.0640 O   0  0  0  0  0  0  0  0  0  0  0  0
  186.4280  177.3030  144.0010 C   0  0  0  0  0  2  0  0  0  0  0  0
  185.9800  178.5640  144.7370 C   0  0  0  0  0  2  0  0  0  0  0  0
  183.7440  179.2140  145.3110 O   0  0  0  0  0  1  0  0  0  0  0  0
  184.6260  179.0500  144.2410 C   0  0  0  0  0  3  0  0  0  0  0  0
  184.0910  178.1480  143.3200 O   0  0  0  0  0  1  0  0  0  0  0  0
  197.7280  174.7420  141.0690 O   0  0  0  0  0  0  0  0  0  0  0  0
  194.1990  173.3820  135.6070 C   0  0  0  0  0  2  0  0  0  0  0  0
  197.9410  173.7030  138.9110 C   0  0  0  0  0  3  0  0  0  0  0  0
  193.2490  174.4710  135.7990 N   0  0  0  0  0  2  0  0  0  0  0  0
  194.1690  175.4960  137.8110 C   0  0  0  0  0  2  0  0  0  0  0  0
  195.6190  173.8640  135.8720 C   0  0  0  0  0  2  0  0  0  0  0  0
  197.5170  173.6140  137.4750 C   0  0  0  0  0  2  0  0  0  0  0  0
  197.3600  174.5940  139.7220 C   0  0  0  0  0  0  0  0  0  0  0  0
  193.0370  174.6630  137.2280 C   0  0  0  0  0  2  0  0  0  0  0  0
  196.2680  175.4600  139.1710 C   0  0  0  0  0  2  0  0  0  0  0  0
  195.9890  173.6540  137.3380 C   0  0  1  0  0  3  0  0  0  0  0  0
  195.2840  174.6090  138.3620 C   0  0  2  0  0  3  0  0  0  0  0  0
  2  5  1  1  0  0  0
  2  6  1  0  0  0  0
  3  1  1  6  0  0  0
  3  8  1  0  0  0  0
  4 12  1  6  0  0  0
  4  2  1  0  0  0  0
  7 55  1  6  0  0  0
  7  9  1  0  0  0  0
  7  3  1  0  0  0  0
  8  6  1  0  0  0  0
  8 28  1  1  0  0  0
  9  4  1  0  0  0  0
 10 12  1  0  0  0  0
 11 12  2  0  0  0  0
 13 14  1  0  0  0  0
 14 10  1  0  0  0  0
 15 14  2  0  0  0  0
 15 18  1  0  0  0  0
 16 15  1  0  0  0  0
 17 16  2  0  0  0  0
 17 13  1  0  0  0  0
 18 19  1  1  0  0  0
 18 21  1  0  0  0  0
 21 20  1  0  0  0  0
 21 22  1  0  0  0  0
 23 17  1  0  0  0  0
 25 24  1  6  0  0  0
 25 23  1  0  0  0  0
 26 27  1  0  0  0  0
 26 25  1  0  0  0  0
 29 28  1  0  0  0  0
 30 35  1  6  0  0  0
 31 32  1  0  0  0  0
 32 30  1  0  0  0  0
 33 29  1  6  0  0  0
 33 31  1  0  0  0  0
 34 33  1  0  0  0  0
 34 30  1  0  0  0  0
 36 43  1  0  0  0  0
 36 47  1  1  0  0  0
 37 50  1  6  0  0  0
 37 36  1  0  0  0  0
 38 40  1  0  0  0  0
 39 44  1  6  0  0  0
 39 41  1  0  0  0  0
 39 37  1  0  0  0  0
 40 42  1  6  0  0  0
 40 43  1  0  0  0  0
 41 38  1  0  0  0  0
 43 35  1  1  0  0  0
 45 44  1  0  0  0  0
 46 44  2  0  0  0  0
 47 49  2  0  0  0  0
 47 48  1  0  0  0  0
 50 51  1  0  0  0  0
 53 51  1  0  0  0  0
 53 52  1  0  0  0  0
 54 53  1  0  0  0  0
 56 58  1  0  0  0  0
 56 60  1  0  0  0  0
 57 62  2  0  0  0  0
 58 63  1  0  0  0  0
 61 57  1  0  0  0  0
 62 55  1  0  0  0  0
 63 59  1  0  0  0  0
 64 62  1  0  0  0  0
 65 60  1  6  0  0  0
 65 61  1  0  0  0  0
 65 66  1  0  0  0  0
 66 59  1  6  0  0  0
 66 64  1  0  0  0  0
M  END
>  <MODEL>
3

>  <REMARK>
 VINA RESULT:      -5.4      3.729     11.671
  Name = 
  19 active torsions:
  status: ('A' for Active; 'I' for Inactive)
    1  A    between atoms: C_1  and  C_32
    2  A    between atoms: C_2  and  C_37
    3  A    between atoms: C_2  and  C_47
    4  A    between atoms: C_3  and  C_13
    5  A    between atoms: C_10  and  C_59
    6  A    between atoms: N_12  and  C_36
    7  A    between atoms: C_13  and  C_60
    8  A    between atoms: C_14  and  C_21
    9  A    between atoms: C_18  and  C_54
   10  A    between atoms: C_19  and  C_47
   11  A    between atoms: C_29  and  C_49
   12  A    between atoms: C_31  and  S_57
   13  A    between atoms: C_33  and  O_46
   14  A    between atoms: C_38  and  C_49
   15  A    between atoms: C_42  and  O_46
   16  A    between atoms: C_53  and  C_55
   17  A    between atoms: C_53  and  S_57
   18  A    between atoms: C_59  and  C_61
   19  A    between atoms: C_61  and  C_66
                            x       y       z     vdW  Elec       q    Type
                         _______ _______ _______ _____ _____    ______ ____

>  <TORSDO>
F 19

$$$$
=
 OpenBabel11042416193D

 66 71  0  0  1  0  0  0  0  0999 V2000
  188.3260  172.5460  142.1380 C   0  0  0  0  0  1  0  0  0  0  0  0
  187.3060  175.2360  138.6340 C   0  0  1  0  0  3  0  0  0  0  0  0
  188.6050  173.6980  141.1780 C   0  0  2  0  0  3  0  0  0  0  0  0
  187.4150  176.4440  139.5780 C   0  0  2  0  0  3  0  0  0  0  0  0
  187.1440  175.6890  137.3260 O   0  0  0  0  0  1  0  0  0  0  0  0
  188.5300  174.3350  138.6980 C   0  0  0  0  0  2  0  0  0  0  0  0
  187.7660  174.9250  141.5920 C   0  0  2  0  0  3  0  0  0  0  0  0
  188.3240  173.2290  139.7330 C   0  0  1  0  0  3  0  0  0  0  0  0
  188.2160  176.1860  140.8600 C   0  0  0  0  0  2  0  0  0  0  0  0
  185.7830  177.5120  141.2220 N   0  0  0  0  0  2  0  0  0  0  0  0
  185.2260  177.1760  138.9690 O   0  0  0  0  0  0  0  0  0  0  0  0
  186.0790  177.0600  139.8930 C   0  0  0  0  0  0  0  0  0  0  0  0
  183.1640  178.3350  140.7460 S   0  0  0  0  0  0  0  0  0  0  0  0
  184.5240  178.0170  141.6900 C   0  0  0  0  0  0  0  0  0  0  0  0
  184.2210  178.2750  143.0280 C   0  0  0  0  0  0  0  0  0  0  0  0
  182.9050  178.7200  143.2220 C   0  0  0  0  0  3  0  0  0  0  0  0
  182.1900  178.8160  142.0340 C   0  0  0  0  0  0  0  0  0  0  0  0
  185.1470  178.0300  144.1920 C   0  0  2  0  0  3  0  0  0  0  0  0
  185.2940  176.6620  144.4420 O   0  0  0  0  0  1  0  0  0  0  0  0
  185.8640  179.6620  146.0090 C   0  0  0  0  0  1  0  0  0  0  0  0
  184.7520  178.7740  145.4740 C   0  0  0  0  0  3  0  0  0  0  0  0
  184.2810  177.8130  146.5510 C   0  0  0  0  0  1  0  0  0  0  0  0
  180.7540  179.2100  141.9400 C   0  0  0  0  0  2  0  0  0  0  0  0
  178.8880  177.8880  142.6020 O   0  0  0  0  0  1  0  0  0  0  0  0
  179.8760  178.0130  141.6220 C   0  0  1  0  0  3  0  0  0  0  0  0
  179.2280  178.2210  140.2680 C   0  0  0  0  0  2  0  0  0  0  0  0
  178.1810  179.3160  140.3500 C   0  0  0  0  0  1  0  0  0  0  0  0
  189.2530  172.0770  139.3710 C   0  0  0  0  0  2  0  0  0  0  0  0
  189.3930  171.9300  137.5650 S   0  0  0  0  0  0  0  0  0  0  0  0
  192.9620  170.6970  137.9760 C   0  0  2  0  0  3  0  0  0  0  0  0
  191.2340  170.3140  136.3550 C   0  0  0  0  0  2  0  0  0  0  0  0
  192.6450  170.8430  136.5030 C   0  0  0  0  0  2  0  0  0  0  0  0
  190.5530  170.5410  137.6940 C   0  0  1  0  0  3  0  0  0  0  0  0
  191.6440  170.8860  138.6950 C   0  0  0  0  0  2  0  0  0  0  0  0
  193.9600  171.7470  138.4360 C   0  0  0  0  0  2  0  0  0  0  0  0
  194.5750  172.9110  140.6310 C   0  0  1  0  0  3  0  0  0  0  0  0
  194.6680  172.8440  142.1800 C   0  0  1  0  0  3  0  0  0  0  0  0
  195.4120  169.6680  141.2470 C   0  0  0  0  0  2  0  0  0  0  0  0
  195.5220  171.6870  142.7480 C   0  0  2  0  0  3  0  0  0  0  0  0
  195.4510  170.5570  140.0070 C   0  0  2  0  0  3  0  0  0  0  0  0
  194.8430  170.3520  142.4850 C   0  0  0  0  0  2  0  0  0  0  0  0
  196.8260  171.1810  139.8080 C   0  0  0  0  0  1  0  0  0  0  0  0
  194.2920  171.5610  139.9160 C   0  0  2  0  0  3  0  0  0  0  0  0
  195.7400  171.8100  144.2250 C   0  0  0  0  0  0  0  0  0  0  0  0
  196.5600  172.6580  144.6650 O   0  0  0  0  0  0  0  0  0  0  0  0
  195.0470  170.9910  145.1100 O   0  0  0  0  0  1  0  0  0  0  0  0
  193.5530  173.9450  140.2450 C   0  0  0  0  0  0  0  0  0  0  0  0
  193.9220  175.0530  139.4920 O   0  0  0  0  0  0  0  0  0  0  0  0
  192.3550  173.8060  140.6090 O   0  0  0  0  0  1  0  0  0  0  0  0
  195.1090  174.2050  142.7430 C   0  0  0  0  0  2  0  0  0  0  0  0
  196.2630  174.8100  141.9460 C   0  0  0  0  0  2  0  0  0  0  0  0
  195.7710  176.5830  143.4850 O   0  0  0  0  0  1  0  0  0  0  0  0
  196.5530  176.2400  142.3800 C   0  0  0  0  0  3  0  0  0  0  0  0
  196.3060  177.1280  141.3310 O   0  0  0  0  0  1  0  0  0  0  0  0
  187.7940  175.1520  143.0070 O   0  0  0  0  0  0  0  0  0  0  0  0
  192.9070  175.9380  147.1750 C   0  0  0  0  0  2  0  0  0  0  0  0
  188.6750  176.7030  144.6200 C   0  0  0  0  0  3  0  0  0  0  0  0
  193.8120  175.0770  146.4240 N   0  0  0  0  0  2  0  0  0  0  0  0
  192.3840  174.4910  144.5370 C   0  0  0  0  0  2  0  0  0  0  0  0
  192.1440  176.8580  146.2300 C   0  0  0  0  0  2  0  0  0  0  0  0
  189.8580  177.2950  145.3260 C   0  0  0  0  0  2  0  0  0  0  0  0
  188.8570  175.7310  143.7190 C   0  0  0  0  0  0  0  0  0  0  0  0
  193.0410  174.0000  145.8180 C   0  0  0  0  0  2  0  0  0  0  0  0
  190.2490  175.2370  143.4680 C   0  0  0  0  0  2  0  0  0  0  0  0
  190.8340  176.2060  145.7950 C   0  0  1  0  0  3  0  0  0  0  0  0
  190.9680  175.0030  144.8000 C   0  0  2  0  0  3  0  0  0  0  0  0
  2  5  1  6  0  0  0
  2  6  1  0  0  0  0
  2  4  1  0  0  0  0
  3  7  1  0  0  0  0
  3  1  1  1  0  0  0
  4 12  1  1  0  0  0
  4  9  1  0  0  0  0
  6  8  1  0  0  0  0
  7 55  1  1  0  0  0
  8 28  1  6  0  0  0
  8  3  1  0  0  0  0
  9  7  1  0  0  0  0
 10 14  1  0  0  0  0
 11 12  2  0  0  0  0
 12 10  1  0  0  0  0
 13 14  1  0  0  0  0
 13 17  1  0  0  0  0
 14 15  2  0  0  0  0
 15 16  1  0  0  0  0
 15 18  1  0  0  0  0
 17 16  2  0  0  0  0
 18 19  1  1  0  0  0
 18 21  1  0  0  0  0
 21 20  1  0  0  0  0
 21 22  1  0  0  0  0
 23 17  1  0  0  0  0
 25 23  1  0  0  0  0
 25 24  1  1  0  0  0
 26 27  1  0  0  0  0
 26 25  1  0  0  0  0
 29 28  1  0  0  0  0
 30 35  1  1  0  0  0
 30 34  1  0  0  0  0
 31 32  1  0  0  0  0
 31 33  1  0  0  0  0
 32 30  1  0  0  0  0
 33 29  1  6  0  0  0
 33 34  1  0  0  0  0
 36 47  1  1  0  0  0
 36 37  1  0  0  0  0
 37 50  1  6  0  0  0
 37 39  1  0  0  0  0
 38 41  1  0  0  0  0
 39 44  1  1  0  0  0
 40 42  1  1  0  0  0
 40 38  1  0  0  0  0
 41 39  1  0  0  0  0
 43 35  1  6  0  0  0
 43 40  1  0  0  0  0
 43 36  1  0  0  0  0
 44 45  2  0  0  0  0
 44 46  1  0  0  0  0
 47 49  1  0  0  0  0
 48 47  2  0  0  0  0
 51 53  1  0  0  0  0
 51 50  1  0  0  0  0
 53 52  1  0  0  0  0
 54 53  1  0  0  0  0
 55 62  1  0  0  0  0
 57 61  1  0  0  0  0
 58 56  1  0  0  0  0
 59 66  1  0  0  0  0
 59 63  1  0  0  0  0
 60 56  1  0  0  0  0
 62 57  2  0  0  0  0
 63 58  1  0  0  0  0
 64 62  1  0  0  0  0
 65 61  1  6  0  0  0
 65 60  1  0  0  0  0
 66 64  1  6  0  0  0
 66 65  1  0  0  0  0
M  END
>  <MODEL>
4

>  <REMARK>
 VINA RESULT:      -5.3      1.590      2.812
  Name = 
  19 active torsions:
  status: ('A' for Active; 'I' for Inactive)
    1  A    between atoms: C_1  and  C_32
    2  A    between atoms: C_2  and  C_37
    3  A    between atoms: C_2  and  C_47
    4  A    between atoms: C_3  and  C_13
    5  A    between atoms: C_10  and  C_59
    6  A    between atoms: N_12  and  C_36
    7  A    between atoms: C_13  and  C_60
    8  A    between atoms: C_14  and  C_21
    9  A    between atoms: C_18  and  C_54
   10  A    between atoms: C_19  and  C_47
   11  A    between atoms: C_29  and  C_49
   12  A    between atoms: C_31  and  S_57
   13  A    between atoms: C_33  and  O_46
   14  A    between atoms: C_38  and  C_49
   15  A    between atoms: C_42  and  O_46
   16  A    between atoms: C_53  and  C_55
   17  A    between atoms: C_53  and  S_57
   18  A    between atoms: C_59  and  C_61
   19  A    between atoms: C_61  and  C_66
                            x       y       z     vdW  Elec       q    Type
                         _______ _______ _______ _____ _____    ______ ____

>  <TORSDO>
F 19

$$$$
=
 OpenBabel11042416193D

 66 71  0  0  1  0  0  0  0  0999 V2000
  189.6320  173.5200  144.0780 C   0  0  0  0  0  1  0  0  0  0  0  0
  189.5960  173.6580  139.5470 C   0  0  1  0  0  3  0  0  0  0  0  0
  189.2030  173.0180  142.7030 C   0  0  2  0  0  3  0  0  0  0  0  0
  190.1200  172.2130  139.5360 C   0  0  2  0  0  3  0  0  0  0  0  0
  189.2830  174.0420  138.2440 O   0  0  0  0  0  1  0  0  0  0  0  0
  188.3620  173.8230  140.4210 C   0  0  0  0  0  2  0  0  0  0  0  0
  190.3550  172.2080  142.0720 C   0  0  2  0  0  3  0  0  0  0  0  0
  188.7650  174.2220  141.8410 C   0  0  1  0  0  3  0  0  0  0  0  0
  189.8900  171.4380  140.8380 C   0  0  0  0  0  2  0  0  0  0  0  0
  192.2200  173.2560  138.5320 N   0  0  0  0  0  2  0  0  0  0  0  0
  192.1680  171.0220  139.2430 O   0  0  0  0  0  0  0  0  0  0  0  0
  191.5560  172.1180  139.0990 C   0  0  0  0  0  0  0  0  0  0  0  0
  194.9880  173.2280  138.8420 S   0  0  0  0  0  0  0  0  0  0  0  0
  193.5420  173.2840  137.9760 C   0  0  0  0  0  0  0  0  0  0  0  0
  193.8290  173.3080  136.6100 C   0  0  0  0  0  0  0  0  0  0  0  0
  195.2040  173.2850  136.3320 C   0  0  0  0  0  3  0  0  0  0  0  0
  195.9830  173.2510  137.4820 C   0  0  0  0  0  0  0  0  0  0  0  0
  192.8040  173.2730  135.5070 C   0  0  2  0  0  3  0  0  0  0  0  0
  191.7590  174.1670  135.7580 O   0  0  0  0  0  1  0  0  0  0  0  0
  190.7960  171.7110  135.6040 C   0  0  0  0  0  1  0  0  0  0  0  0
  192.2540  171.8720  135.2070 C   0  0  0  0  0  3  0  0  0  0  0  0
  193.1010  170.7920  135.8580 C   0  0  0  0  0  1  0  0  0  0  0  0
  197.4730  173.1670  137.4930 C   0  0  0  0  0  2  0  0  0  0  0  0
  197.3660  171.1710  138.7880 O   0  0  0  0  0  1  0  0  0  0  0  0
  197.9410  171.7300  137.6430 C   0  0  1  0  0  3  0  0  0  0  0  0
  197.5140  170.9410  136.4210 C   0  0  0  0  0  2  0  0  0  0  0  0
  196.6620  169.7560  136.8320 C   0  0  0  0  0  1  0  0  0  0  0  0
  187.5690  174.9140  142.4850 C   0  0  0  0  0  2  0  0  0  0  0  0
  187.5680  176.6820  142.0640 S   0  0  0  0  0  0  0  0  0  0  0  0
  188.1790  177.4260  145.7380 C   0  0  2  0  0  3  0  0  0  0  0  0
  186.7520  175.9040  144.5520 C   0  0  0  0  0  2  0  0  0  0  0  0
  187.8770  175.9530  145.5650 C   0  0  0  0  0  2  0  0  0  0  0  0
  186.9040  177.1440  143.6880 C   0  0  1  0  0  3  0  0  0  0  0  0
  187.8910  178.0590  144.3940 C   0  0  0  0  0  2  0  0  0  0  0  0
  189.6330  177.6540  146.1180 C   0  0  0  0  0  2  0  0  0  0  0  0
  191.9650  176.7240  145.6240 C   0  0  1  0  0  3  0  0  0  0  0  0
  192.8860  175.9010  144.6820 C   0  0  1  0  0  3  0  0  0  0  0  0
  190.7690  177.4270  142.5140 C   0  0  0  0  0  2  0  0  0  0  0  0
  192.9550  176.3940  143.2180 C   0  0  2  0  0  3  0  0  0  0  0  0
  190.6050  178.0760  143.8860 C   0  0  2  0  0  3  0  0  0  0  0  0
  191.6230  176.1650  142.5210 C   0  0  0  0  0  2  0  0  0  0  0  0
  191.5910  179.2200  144.0850 C   0  0  0  0  0  1  0  0  0  0  0  0
  190.5640  177.0780  145.0530 C   0  0  2  0  0  3  0  0  0  0  0  0
  194.0150  175.6900  142.4270 C   0  0  0  0  0  0  0  0  0  0  0  0
  195.2020  176.1090  142.4660 O   0  0  0  0  0  1  0  0  0  0  0  0
  193.6960  174.5830  141.6490 O   0  0  0  0  0  0  0  0  0  0  0  0
  191.8410  176.0050  146.9380 C   0  0  0  0  0  0  0  0  0  0  0  0
  192.2200  176.6280  148.1210 O   0  0  0  0  0  1  0  0  0  0  0  0
  191.3900  174.8290  146.9680 O   0  0  0  0  0  0  0  0  0  0  0  0
  194.2870  175.7610  145.3000 C   0  0  0  0  0  2  0  0  0  0  0  0
  194.5940  174.3210  145.7070 C   0  0  0  0  0  2  0  0  0  0  0  0
  196.6100  173.1540  146.2800 O   0  0  0  0  0  1  0  0  0  0  0  0
  195.9940  173.9050  145.2770 C   0  0  0  0  0  3  0  0  0  0  0  0
  196.7680  175.0290  144.9820 O   0  0  0  0  0  1  0  0  0  0  0  0
  190.9610  171.3040  143.0050 O   0  0  0  0  0  0  0  0  0  0  0  0
  196.9440  169.5330  145.2840 C   0  0  0  0  0  2  0  0  0  0  0  0
  193.2880  171.8680  142.7930 C   0  0  0  0  0  3  0  0  0  0  0  0
  196.5540  168.1660  145.6080 N   0  0  0  0  0  2  0  0  0  0  0  0
  194.2410  168.1840  144.8370 C   0  0  0  0  0  2  0  0  0  0  0  0
  196.3920  169.9330  143.9230 C   0  0  0  0  0  2  0  0  0  0  0  0
  194.7270  171.4460  142.8400 C   0  0  0  0  0  2  0  0  0  0  0  0
  192.3260  170.9770  143.0550 C   0  0  0  0  0  0  0  0  0  0  0  0
  195.1640  168.1660  146.0460 C   0  0  0  0  0  2  0  0  0  0  0  0
  192.7220  169.5800  143.4220 C   0  0  0  0  0  2  0  0  0  0  0  0
  195.0180  170.5800  144.0730 C   0  0  1  0  0  3  0  0  0  0  0  0
  193.8480  169.6120  144.4600 C   0  0  2  0  0  3  0  0  0  0  0  0
  2  5  1  6  0  0  0
  2  6  1  0  0  0  0
  3  1  1  1  0  0  0
  4 12  1  1  0  0  0
  4  2  1  0  0  0  0
  4  9  1  0  0  0  0
  6  8  1  0  0  0  0
  7  3  1  0  0  0  0
  7 55  1  1  0  0  0
  8 28  1  1  0  0  0
  8  3  1  0  0  0  0
  9  7  1  0  0  0  0
 10 12  1  0  0  0  0
 12 11  2  0  0  0  0
 14 10  1  0  0  0  0
 14 13  1  0  0  0  0
 15 14  2  0  0  0  0
 16 15  1  0  0  0  0
 16 17  2  0  0  0  0
 17 23  1  0  0  0  0
 17 13  1  0  0  0  0
 18 19  1  1  0  0  0
 18 15  1  0  0  0  0
 21 18  1  0  0  0  0
 21 20  1  0  0  0  0
 21 22  1  0  0  0  0
 23 25  1  0  0  0  0
 25 24  1  1  0  0  0
 26 27  1  0  0  0  0
 26 25  1  0  0  0  0
 29 28  1  0  0  0  0
 30 35  1  6  0  0  0
 31 32  1  0  0  0  0
 32 30  1  0  0  0  0
 33 29  1  6  0  0  0
 33 34  1  0  0  0  0
 33 31  1  0  0  0  0
 34 30  1  0  0  0  0
 36 47  1  1  0  0  0
 37 50  1  1  0  0  0
 37 36  1  0  0  0  0
 38 41  1  0  0  0  0
 38 40  1  0  0  0  0
 39 44  1  6  0  0  0
 39 37  1  0  0  0  0
 40 42  1  1  0  0  0
 40 43  1  0  0  0  0
 41 39  1  0  0  0  0
 43 36  1  0  0  0  0
 43 35  1  1  0  0  0
 44 45  1  0  0  0  0
 46 44  2  0  0  0  0
 47 49  2  0  0  0  0
 47 48  1  0  0  0  0
 50 51  1  0  0  0  0
 53 51  1  0  0  0  0
 53 52  1  0  0  0  0
 54 53  1  0  0  0  0
 55 62  1  0  0  0  0
 56 58  1  0  0  0  0
 57 61  1  0  0  0  0
 57 62  2  0  0  0  0
 58 63  1  0  0  0  0
 59 63  1  0  0  0  0
 60 65  1  0  0  0  0
 60 56  1  0  0  0  0
 62 64  1  0  0  0  0
 65 61  1  6  0  0  0
 65 66  1  0  0  0  0
 66 64  1  6  0  0  0
 66 59  1  0  0  0  0
M  END
>  <MODEL>
5

>  <REMARK>
 VINA RESULT:      -5.2      3.954      9.596
  Name = 
  19 active torsions:
  status: ('A' for Active; 'I' for Inactive)
    1  A    between atoms: C_1  and  C_32
    2  A    between atoms: C_2  and  C_37
    3  A    between atoms: C_2  and  C_47
    4  A    between atoms: C_3  and  C_13
    5  A    between atoms: C_10  and  C_59
    6  A    between atoms: N_12  and  C_36
    7  A    between atoms: C_13  and  C_60
    8  A    between atoms: C_14  and  C_21
    9  A    between atoms: C_18  and  C_54
   10  A    between atoms: C_19  and  C_47
   11  A    between atoms: C_29  and  C_49
   12  A    between atoms: C_31  and  S_57
   13  A    between atoms: C_33  and  O_46
   14  A    between atoms: C_38  and  C_49
   15  A    between atoms: C_42  and  O_46
   16  A    between atoms: C_53  and  C_55
   17  A    between atoms: C_53  and  S_57
   18  A    between atoms: C_59  and  C_61
   19  A    between atoms: C_61  and  C_66
                            x       y       z     vdW  Elec       q    Type
                         _______ _______ _______ _____ _____    ______ ____

>  <TORSDO>
F 19

$$$$
=
 OpenBabel11042416193D

 66 71  0  0  1  0  0  0  0  0999 V2000
  189.4010  173.8110  141.9510 C   0  0  0  0  0  1  0  0  0  0  0  0
  187.8190  175.8600  138.2290 C   0  0  1  0  0  3  0  0  0  0  0  0
  188.4280  173.9570  140.7850 C   0  0  2  0  0  3  0  0  0  0  0  0
  188.0020  174.5370  137.4680 C   0  0  2  0  0  3  0  0  0  0  0  0
  187.1570  176.7720  137.4090 O   0  0  0  0  0  1  0  0  0  0  0  0
  187.0270  175.6870  139.5160 C   0  0  0  0  0  2  0  0  0  0  0  0
  189.0980  173.4470  139.4930 C   0  0  2  0  0  3  0  0  0  0  0  0
  187.9710  175.4300  140.6910 C   0  0  1  0  0  3  0  0  0  0  0  0
  188.0880  173.2920  138.3580 C   0  0  0  0  0  2  0  0  0  0  0  0
  190.4730  174.2350  136.9110 N   0  0  0  0  0  2  0  0  0  0  0  0
  188.9160  174.9200  135.2970 O   0  0  0  0  0  0  0  0  0  0  0  0
  189.1450  174.5800  136.4920 C   0  0  0  0  0  0  0  0  0  0  0  0
  192.7100  175.6560  136.0520 S   0  0  0  0  0  0  0  0  0  0  0  0
  191.6690  174.3320  136.1240 C   0  0  0  0  0  0  0  0  0  0  0  0
  192.1810  173.3050  135.3300 C   0  0  0  0  0  0  0  0  0  0  0  0
  193.3880  173.6420  134.6990 C   0  0  0  0  0  3  0  0  0  0  0  0
  193.8070  174.9330  134.9980 C   0  0  0  0  0  0  0  0  0  0  0  0
  191.5850  171.9270  135.2010 C   0  0  2  0  0  3  0  0  0  0  0  0
  190.3450  171.9710  134.5550 O   0  0  0  0  0  1  0  0  0  0  0  0
  192.5780  170.1340  136.7100 C   0  0  0  0  0  1  0  0  0  0  0  0
  191.4760  171.1650  136.5270 C   0  0  0  0  0  3  0  0  0  0  0  0
  190.1130  170.5120  136.6840 C   0  0  0  0  0  1  0  0  0  0  0  0
  195.0790  175.5420  134.5130 C   0  0  0  0  0  2  0  0  0  0  0  0
  196.6700  176.3580  136.0870 O   0  0  0  0  0  1  0  0  0  0  0  0
  195.5040  176.7020  135.3970 C   0  0  1  0  0  3  0  0  0  0  0  0
  195.7650  177.9160  134.5270 C   0  0  0  0  0  2  0  0  0  0  0  0
  194.7770  179.0180  134.8540 C   0  0  0  0  0  1  0  0  0  0  0  0
  187.2410  175.8290  141.9680 C   0  0  0  0  0  2  0  0  0  0  0  0
  186.0490  177.1560  141.6180 S   0  0  0  0  0  0  0  0  0  0  0  0
  187.6390  177.1860  145.0670 C   0  0  2  0  0  3  0  0  0  0  0  0
  185.5150  177.8840  144.1960 C   0  0  0  0  0  2  0  0  0  0  0  0
  186.1510  176.9450  145.2000 C   0  0  0  0  0  2  0  0  0  0  0  0
  186.5410  178.0870  143.0950 C   0  0  1  0  0  3  0  0  0  0  0  0
  187.8630  177.5470  143.6150 C   0  0  0  0  0  2  0  0  0  0  0  0
  188.4370  175.9430  145.4220 C   0  0  0  0  0  2  0  0  0  0  0  0
  190.7390  174.8330  145.2950 C   0  0  1  0  0  3  0  0  0  0  0  0
  192.1090  174.7140  144.5730 C   0  0  1  0  0  3  0  0  0  0  0  0
  191.3870  178.0150  144.2710 C   0  0  0  0  0  2  0  0  0  0  0  0
  192.9200  176.0260  144.4590 C   0  0  2  0  0  3  0  0  0  0  0  0
  190.4260  177.4020  145.2860 C   0  0  2  0  0  3  0  0  0  0  0  0
  192.2270  176.9930  143.5130 C   0  0  0  0  0  2  0  0  0  0  0  0
  191.0080  177.4240  146.6930 C   0  0  0  0  0  1  0  0  0  0  0  0
  189.8560  176.0380  144.8670 C   0  0  2  0  0  3  0  0  0  0  0  0
  194.3090  175.7970  143.9470 C   0  0  0  0  0  0  0  0  0  0  0  0
  194.4910  175.5670  142.7220 O   0  0  0  0  0  0  0  0  0  0  0  0
  195.3950  175.8320  144.8150 O   0  0  0  0  0  1  0  0  0  0  0  0
  189.9890  173.5390  145.1400 C   0  0  0  0  0  0  0  0  0  0  0  0
  189.8600  172.9460  143.8890 O   0  0  0  0  0  0  0  0  0  0  0  0
  189.4740  172.9890  146.1490 O   0  0  0  0  0  1  0  0  0  0  0  0
  192.9420  173.5850  145.2010 C   0  0  0  0  0  2  0  0  0  0  0  0
  193.6400  172.7300  144.1450 C   0  0  0  0  0  2  0  0  0  0  0  0
  192.2800  170.7830  144.4850 O   0  0  0  0  0  1  0  0  0  0  0  0
  193.5960  171.2510  144.5040 C   0  0  0  0  0  3  0  0  0  0  0  0
  194.1570  171.0380  145.7650 O   0  0  0  0  0  1  0  0  0  0  0  0
  189.7940  172.2100  139.6910 O   0  0  0  0  0  0  0  0  0  0  0  0
  196.4150  171.9760  139.1980 C   0  0  0  0  0  2  0  0  0  0  0  0
  191.6850  170.9300  140.4460 C   0  0  0  0  0  3  0  0  0  0  0  0
  196.5680  173.3960  138.9060 N   0  0  0  0  0  2  0  0  0  0  0  0
  194.2440  174.1180  139.0490 C   0  0  0  0  0  2  0  0  0  0  0  0
  195.4180  171.7720  140.3310 C   0  0  0  0  0  2  0  0  0  0  0  0
  193.1390  170.8710  140.8100 C   0  0  0  0  0  2  0  0  0  0  0  0
  191.1530  172.0830  140.0240 C   0  0  0  0  0  0  0  0  0  0  0  0
  195.4200  173.8410  138.1250 C   0  0  0  0  0  2  0  0  0  0  0  0
  192.0440  173.2810  139.8950 C   0  0  0  0  0  2  0  0  0  0  0  0
  194.0070  171.5990  139.7740 C   0  0  1  0  0  3  0  0  0  0  0  0
  193.3430  172.8910  139.1840 C   0  0  2  0  0  3  0  0  0  0  0  0
  2  5  1  6  0  0  0
  2  6  1  0  0  0  0
  3  1  1  1  0  0  0
  4 12  1  1  0  0  0
  4  2  1  0  0  0  0
  4  9  1  0  0  0  0
  6  8  1  0  0  0  0
  7 55  1  1  0  0  0
  7  3  1  0  0  0  0
  8  3  1  0  0  0  0
  8 28  1  1  0  0  0
  9  7  1  0  0  0  0
 11 12  2  0  0  0  0
 12 10  1  0  0  0  0
 13 14  1  0  0  0  0
 14 10  1  0  0  0  0
 15 14  2  0  0  0  0
 16 17  2  0  0  0  0
 16 15  1  0  0  0  0
 17 13  1  0  0  0  0
 18 19  1  1  0  0  0
 18 15  1  0  0  0  0
 18 21  1  0  0  0  0
 21 22  1  0  0  0  0
 21 20  1  0  0  0  0
 23 17  1  0  0  0  0
 23 25  1  0  0  0  0
 25 24  1  6  0  0  0
 26 27  1  0  0  0  0
 26 25  1  0  0  0  0
 29 28  1  0  0  0  0
 30 32  1  0  0  0  0
 30 35  1  6  0  0  0
 31 32  1  0  0  0  0
 33 29  1  6  0  0  0
 33 34  1  0  0  0  0
 33 31  1  0  0  0  0
 34 30  1  0  0  0  0
 36 47  1  6  0  0  0
 37 50  1  1  0  0  0
 37 36  1  0  0  0  0
 38 40  1  0  0  0  0
 39 44  1  6  0  0  0
 39 37  1  0  0  0  0
 40 42  1  1  0  0  0
 41 38  1  0  0  0  0
 41 39  1  0  0  0  0
 43 40  1  0  0  0  0
 43 36  1  0  0  0  0
 43 35  1  1  0  0  0
 44 46  1  0  0  0  0
 45 44  2  0  0  0  0
 47 49  1  0  0  0  0
 48 47  2  0  0  0  0
 51 53  1  0  0  0  0
 51 50  1  0  0  0  0
 52 53  1  0  0  0  0
 53 54  1  0  0  0  0
 55 62  1  0  0  0  0
 56 60  1  0  0  0  0
 57 61  1  0  0  0  0
 58 56  1  0  0  0  0
 62 57  2  0  0  0  0
 63 58  1  0  0  0  0
 63 59  1  0  0  0  0
 64 62  1  0  0  0  0
 65 60  1  1  0  0  0
 65 61  1  0  0  0  0
 66 59  1  1  0  0  0
 66 65  1  0  0  0  0
 66 64  1  0  0  0  0
M  END
>  <MODEL>
6

>  <REMARK>
 VINA RESULT:      -5.0      3.447      8.988
  Name = 
  19 active torsions:
  status: ('A' for Active; 'I' for Inactive)
    1  A    between atoms: C_1  and  C_32
    2  A    between atoms: C_2  and  C_37
    3  A    between atoms: C_2  and  C_47
    4  A    between atoms: C_3  and  C_13
    5  A    between atoms: C_10  and  C_59
    6  A    between atoms: N_12  and  C_36
    7  A    between atoms: C_13  and  C_60
    8  A    between atoms: C_14  and  C_21
    9  A    between atoms: C_18  and  C_54
   10  A    between atoms: C_19  and  C_47
   11  A    between atoms: C_29  and  C_49
   12  A    between atoms: C_31  and  S_57
   13  A    between atoms: C_33  and  O_46
   14  A    between atoms: C_38  and  C_49
   15  A    between atoms: C_42  and  O_46
   16  A    between atoms: C_53  and  C_55
   17  A    between atoms: C_53  and  S_57
   18  A    between atoms: C_59  and  C_61
   19  A    between atoms: C_61  and  C_66
                            x       y       z     vdW  Elec       q    Type
                         _______ _______ _______ _____ _____    ______ ____

>  <TORSDO>
F 19

$$$$
=
 OpenBabel11042416193D

 66 71  0  0  1  0  0  0  0  0999 V2000
  189.1060  173.8480  142.5790 C   0  0  0  0  0  1  0  0  0  0  0  0
  188.0200  175.2810  138.4170 C   0  0  1  0  0  3  0  0  0  0  0  0
  188.2590  173.8330  141.3100 C   0  0  2  0  0  3  0  0  0  0  0  0
  188.1850  173.8370  137.9180 C   0  0  2  0  0  3  0  0  0  0  0  0
  187.5010  176.0660  137.3890 O   0  0  0  0  0  1  0  0  0  0  0  0
  187.1020  175.3780  139.6260 C   0  0  0  0  0  2  0  0  0  0  0  0
  189.0120  173.0690  140.2010 C   0  0  2  0  0  3  0  0  0  0  0  0
  187.9120  175.2860  140.9190 C   0  0  1  0  0  3  0  0  0  0  0  0
  188.1040  172.7670  139.0110 C   0  0  0  0  0  2  0  0  0  0  0  0
  190.5050  172.8450  137.5430 N   0  0  0  0  0  2  0  0  0  0  0  0
  189.4700  174.2090  135.9400 O   0  0  0  0  0  0  0  0  0  0  0  0
  189.4150  173.6500  137.0720 C   0  0  0  0  0  0  0  0  0  0  0  0
  192.8860  173.8780  136.5280 S   0  0  0  0  0  0  0  0  0  0  0  0
  191.7740  172.6650  136.8980 C   0  0  0  0  0  0  0  0  0  0  0  0
  192.3050  171.4300  136.5230 C   0  0  0  0  0  0  0  0  0  0  0  0
  193.5830  171.5270  135.9510 C   0  0  0  0  0  3  0  0  0  0  0  0
  194.0390  172.8380  135.8760 C   0  0  0  0  0  0  0  0  0  0  0  0
  191.6530  170.0940  136.7670 C   0  0  2  0  0  3  0  0  0  0  0  0
  190.3280  170.0890  136.3210 O   0  0  0  0  0  1  0  0  0  0  0  0
  192.9090  168.6800  138.4710 C   0  0  0  0  0  1  0  0  0  0  0  0
  191.7350  169.6130  138.2210 C   0  0  0  0  0  3  0  0  0  0  0  0
  190.4380  168.9580  138.6640 C   0  0  0  0  0  1  0  0  0  0  0  0
  195.3820  173.2390  135.3640 C   0  0  0  0  0  2  0  0  0  0  0  0
  196.9260  174.4410  136.7210 O   0  0  0  0  0  1  0  0  0  0  0  0
  195.7960  174.5930  135.9120 C   0  0  1  0  0  3  0  0  0  0  0  0
  196.1180  175.5170  134.7540 C   0  0  0  0  0  2  0  0  0  0  0  0
  196.7710  176.7880  135.2620 C   0  0  0  0  0  1  0  0  0  0  0  0
  187.0930  175.9410  142.0260 C   0  0  0  0  0  2  0  0  0  0  0  0
  185.9530  177.1660  141.3190 S   0  0  0  0  0  0  0  0  0  0  0  0
  187.7410  178.2670  144.4840 C   0  0  2  0  0  3  0  0  0  0  0  0
  185.6770  178.8830  143.4260 C   0  0  0  0  0  2  0  0  0  0  0  0
  186.2450  178.3120  144.7080 C   0  0  0  0  0  2  0  0  0  0  0  0
  186.6520  178.5050  142.3240 C   0  0  1  0  0  3  0  0  0  0  0  0
  187.9210  178.0160  143.0030 C   0  0  0  0  0  2  0  0  0  0  0  0
  188.3890  177.1490  145.2820 C   0  0  0  0  0  2  0  0  0  0  0  0
  190.5850  175.8530  145.5000 C   0  0  1  0  0  3  0  0  0  0  0  0
  191.7190  175.0500  144.8050 C   0  0  1  0  0  3  0  0  0  0  0  0
  190.9190  177.3830  142.4760 C   0  0  0  0  0  2  0  0  0  0  0  0
  192.4610  175.7890  143.6680 C   0  0  2  0  0  3  0  0  0  0  0  0
  190.2620  177.7750  143.7970 C   0  0  2  0  0  3  0  0  0  0  0  0
  191.5370  175.9900  142.4780 C   0  0  0  0  0  2  0  0  0  0  0  0
  191.1930  178.6210  144.6560 C   0  0  0  0  0  1  0  0  0  0  0  0
  189.6130  176.6030  144.5480 C   0  0  2  0  0  3  0  0  0  0  0  0
  193.6690  175.0410  143.1920 C   0  0  0  0  0  0  0  0  0  0  0  0
  194.5240  175.6290  142.4780 O   0  0  0  0  0  0  0  0  0  0  0  0
  193.8480  173.7050  143.5300 O   0  0  0  0  0  1  0  0  0  0  0  0
  189.8310  174.9380  146.4230 C   0  0  0  0  0  0  0  0  0  0  0  0
  189.3160  173.7340  145.9560 O   0  0  0  0  0  0  0  0  0  0  0  0
  189.6630  175.2630  147.6280 O   0  0  0  0  0  1  0  0  0  0  0  0
  192.6960  174.4960  145.8550 C   0  0  0  0  0  2  0  0  0  0  0  0
  193.1900  175.5820  146.8090 C   0  0  0  0  0  2  0  0  0  0  0  0
  195.4920  175.6130  146.1370 O   0  0  0  0  0  1  0  0  0  0  0  0
  194.3300  176.3850  146.1990 C   0  0  0  0  0  3  0  0  0  0  0  0
  194.5670  177.5400  146.9460 O   0  0  0  0  0  1  0  0  0  0  0  0
  189.6020  171.8540  140.6790 O   0  0  0  0  0  0  0  0  0  0  0  0
  196.1740  170.8990  140.8340 C   0  0  0  0  0  2  0  0  0  0  0  0
  191.2990  170.7060  141.9380 C   0  0  0  0  0  3  0  0  0  0  0  0
  196.4970  172.1410  140.1430 N   0  0  0  0  0  2  0  0  0  0  0  0
  194.2610  173.0740  139.8690 C   0  0  0  0  0  2  0  0  0  0  0  0
  195.1020  171.1400  141.8880 C   0  0  0  0  0  2  0  0  0  0  0  0
  192.7160  170.6340  142.4230 C   0  0  0  0  0  2  0  0  0  0  0  0
  190.9190  171.7160  141.1470 C   0  0  0  0  0  0  0  0  0  0  0  0
  195.4470  172.4240  139.1730 C   0  0  0  0  0  2  0  0  0  0  0  0
  191.9410  172.7340  140.7410 C   0  0  0  0  0  2  0  0  0  0  0  0
  193.7120  170.9300  141.2930 C   0  0  1  0  0  3  0  0  0  0  0  0
  193.2260  172.0320  140.2900 C   0  0  2  0  0  3  0  0  0  0  0  0
  2  5  1  6  0  0  0
  2  6  1  0  0  0  0
  3  1  1  1  0  0  0
  4 12  1  1  0  0  0
  4  2  1  0  0  0  0
  4  9  1  0  0  0  0
  6  8  1  0  0  0  0
  7 55  1  1  0  0  0
  7  3  1  0  0  0  0
  8  3  1  0  0  0  0
  8 28  1  1  0  0  0
  9  7  1  0  0  0  0
 11 12  2  0  0  0  0
 12 10  1  0  0  0  0
 13 14  1  0  0  0  0
 14 10  1  0  0  0  0
 15 18  1  0  0  0  0
 15 14  2  0  0  0  0
 16 15  1  0  0  0  0
 17 16  2  0  0  0  0
 17 13  1  0  0  0  0
 18 19  1  1  0  0  0
 18 21  1  0  0  0  0
 21 20  1  0  0  0  0
 21 22  1  0  0  0  0
 23 17  1  0  0  0  0
 23 25  1  0  0  0  0
 25 24  1  1  0  0  0
 26 27  1  0  0  0  0
 26 25  1  0  0  0  0
 29 28  1  0  0  0  0
 30 32  1  0  0  0  0
 30 35  1  1  0  0  0
 31 32  1  0  0  0  0
 33 29  1  1  0  0  0
 33 34  1  0  0  0  0
 33 31  1  0  0  0  0
 34 30  1  0  0  0  0
 36 47  1  6  0  0  0
 37 36  1  0  0  0  0
 37 50  1  1  0  0  0
 38 41  1  0  0  0  0
 38 40  1  0  0  0  0
 39 44  1  6  0  0  0
 39 37  1  0  0  0  0
 40 43  1  0  0  0  0
 40 42  1  1  0  0  0
 41 39  1  0  0  0  0
 43 35  1  1  0  0  0
 43 36  1  0  0  0  0
 44 46  1  0  0  0  0
 45 44  2  0  0  0  0
 47 49  1  0  0  0  0
 48 47  2  0  0  0  0
 50 51  1  0  0  0  0
 52 53  1  0  0  0  0
 53 51  1  0  0  0  0
 53 54  1  0  0  0  0
 55 62  1  0  0  0  0
 56 60  1  0  0  0  0
 57 61  1  0  0  0  0
 58 56  1  0  0  0  0
 62 57  2  0  0  0  0
 63 59  1  0  0  0  0
 63 58  1  0  0  0  0
 64 62  1  0  0  0  0
 65 60  1  1  0  0  0
 65 61  1  0  0  0  0
 66 59  1  1  0  0  0
 66 64  1  0  0  0  0
 66 65  1  0  0  0  0
M  END
>  <MODEL>
7

>  <REMARK>
 VINA RESULT:      -4.9      3.407      9.232
  Name = 
  19 active torsions:
  status: ('A' for Active; 'I' for Inactive)
    1  A    between atoms: C_1  and  C_32
    2  A    between atoms: C_2  and  C_37
    3  A    between atoms: C_2  and  C_47
    4  A    between atoms: C_3  and  C_13
    5  A    between atoms: C_10  and  C_59
    6  A    between atoms: N_12  and  C_36
    7  A    between atoms: C_13  and  C_60
    8  A    between atoms: C_14  and  C_21
    9  A    between atoms: C_18  and  C_54
   10  A    between atoms: C_19  and  C_47
   11  A    between atoms: C_29  and  C_49
   12  A    between atoms: C_31  and  S_57
   13  A    between atoms: C_33  and  O_46
   14  A    between atoms: C_38  and  C_49
   15  A    between atoms: C_42  and  O_46
   16  A    between atoms: C_53  and  C_55
   17  A    between atoms: C_53  and  S_57
   18  A    between atoms: C_59  and  C_61
   19  A    between atoms: C_61  and  C_66
                            x       y       z     vdW  Elec       q    Type
                         _______ _______ _______ _____ _____    ______ ____

>  <TORSDO>
F 19

$$$$
=
 OpenBabel11042416193D

 66 71  0  0  1  0  0  0  0  0999 V2000
  190.8230  178.4040  144.5640 C   0  0  0  0  0  1  0  0  0  0  0  0
  189.9560  174.0820  145.6240 C   0  0  1  0  0  3  0  0  0  0  0  0
  191.0080  177.1430  145.4030 C   0  0  2  0  0  3  0  0  0  0  0  0
  191.4530  173.7790  145.4530 C   0  0  2  0  0  3  0  0  0  0  0  0
  189.3160  172.9560  146.1370 O   0  0  0  0  0  1  0  0  0  0  0  0
  189.7020  175.2610  146.5510 C   0  0  0  0  0  2  0  0  0  0  0  0
  191.9090  176.1500  144.6410 C   0  0  2  0  0  3  0  0  0  0  0  0
  189.6200  176.5600  145.7500 C   0  0  1  0  0  3  0  0  0  0  0  0
  192.3690  175.0050  145.5400 C   0  0  0  0  0  2  0  0  0  0  0  0
  191.7740  171.5400  144.2730 N   0  0  0  0  0  2  0  0  0  0  0  0
  191.9650  173.5790  143.1300 O   0  0  0  0  0  0  0  0  0  0  0  0
  191.7470  172.9740  144.2170 C   0  0  0  0  0  0  0  0  0  0  0  0
  191.3200  170.4490  141.7500 S   0  0  0  0  0  0  0  0  0  0  0  0
  192.1410  170.6520  143.2080 C   0  0  0  0  0  0  0  0  0  0  0  0
  193.2830  169.8490  143.2040 C   0  0  0  0  0  0  0  0  0  0  0  0
  193.4340  169.1070  142.0220 C   0  0  0  0  0  3  0  0  0  0  0  0
  192.4050  169.3280  141.1150 C   0  0  0  0  0  0  0  0  0  0  0  0
  194.3250  169.8140  144.2920 C   0  0  2  0  0  3  0  0  0  0  0  0
  193.7590  169.4750  145.5240 O   0  0  0  0  0  1  0  0  0  0  0  0
  196.6460  170.8590  144.3370 C   0  0  0  0  0  1  0  0  0  0  0  0
  195.1480  171.1040  144.4130 C   0  0  0  0  0  3  0  0  0  0  0  0
  194.8020  171.8670  145.6790 C   0  0  0  0  0  1  0  0  0  0  0  0
  192.3300  168.7180  139.7560 C   0  0  0  0  0  2  0  0  0  0  0  0
  194.3540  169.3150  138.6520 O   0  0  0  0  0  1  0  0  0  0  0  0
  192.9900  169.6080  138.7170 C   0  0  1  0  0  3  0  0  0  0  0  0
  192.3480  169.3520  137.3680 C   0  0  0  0  0  2  0  0  0  0  0  0
  191.1070  168.4950  137.5310 C   0  0  0  0  0  1  0  0  0  0  0  0
  188.8270  177.5650  146.5770 C   0  0  0  0  0  2  0  0  0  0  0  0
  187.4910  176.7210  147.4740 S   0  0  0  0  0  0  0  0  0  0  0  0
  186.5800  176.7780  143.7870 C   0  0  2  0  0  3  0  0  0  0  0  0
  186.6230  178.4290  145.5270 C   0  0  0  0  0  2  0  0  0  0  0  0
  187.2110  178.0980  144.1710 C   0  0  0  0  0  2  0  0  0  0  0  0
  186.2800  177.1000  146.1770 C   0  0  1  0  0  3  0  0  0  0  0  0
  186.3570  176.0410  145.0900 C   0  0  0  0  0  2  0  0  0  0  0  0
  187.4940  175.9670  142.8830 C   0  0  0  0  0  2  0  0  0  0  0  0
  188.0170  175.3510  140.4550 C   0  0  1  0  0  3  0  0  0  0  0  0
  187.5150  175.2030  138.9930 C   0  0  1  0  0  3  0  0  0  0  0  0
  185.7790  177.8940  140.1120 C   0  0  0  0  0  2  0  0  0  0  0  0
  186.9090  176.4780  138.3630 C   0  0  2  0  0  3  0  0  0  0  0  0
  186.8880  177.5840  141.1150 C   0  0  2  0  0  3  0  0  0  0  0  0
  185.5930  176.8270  139.0410 C   0  0  0  0  0  2  0  0  0  0  0  0
  188.1870  178.2880  140.7490 C   0  0  0  0  0  1  0  0  0  0  0  0
  187.0540  176.0880  141.4250 C   0  0  2  0  0  3  0  0  0  0  0  0
  186.6440  176.3220  136.8960 C   0  0  0  0  0  0  0  0  0  0  0  0
  185.6390  175.6660  136.5120 O   0  0  0  0  0  1  0  0  0  0  0  0
  187.5010  176.8900  135.9610 O   0  0  0  0  0  0  0  0  0  0  0  0
  188.3770  173.9920  140.9890 C   0  0  0  0  0  0  0  0  0  0  0  0
  187.3830  173.0900  141.3470 O   0  0  0  0  0  1  0  0  0  0  0  0
  189.5880  173.6700  141.1140 O   0  0  0  0  0  0  0  0  0  0  0  0
  188.6230  174.6060  138.1100 C   0  0  0  0  0  2  0  0  0  0  0  0
  188.3790  173.1300  137.8020 C   0  0  0  0  0  2  0  0  0  0  0  0
  189.4210  171.4880  136.3970 O   0  0  0  0  0  1  0  0  0  0  0  0
  189.6670  172.4210  137.4060 C   0  0  0  0  0  3  0  0  0  0  0  0
  190.2340  171.7850  138.5120 O   0  0  0  0  0  1  0  0  0  0  0  0
  193.0490  176.7890  144.0520 O   0  0  0  0  0  0  0  0  0  0  0  0
  196.3300  172.3730  140.3270 C   0  0  0  0  0  2  0  0  0  0  0  0
  195.1320  175.5910  143.9650 C   0  0  0  0  0  3  0  0  0  0  0  0
  195.6330  172.7110  139.0920 N   0  0  0  0  0  2  0  0  0  0  0  0
  194.2070  174.5230  139.8830 C   0  0  0  0  0  2  0  0  0  0  0  0
  196.7190  173.6390  141.0800 C   0  0  0  0  0  2  0  0  0  0  0  0
  196.2080  174.9330  143.1530 C   0  0  0  0  0  2  0  0  0  0  0  0
  194.0770  176.1370  143.3510 C   0  0  0  0  0  0  0  0  0  0  0  0
  194.2600  173.0770  139.4130 C   0  0  0  0  0  2  0  0  0  0  0  0
  193.9870  176.0430  141.8580 C   0  0  0  0  0  2  0  0  0  0  0  0
  195.6150  174.0400  142.0540 C   0  0  1  0  0  3  0  0  0  0  0  0
  194.3090  174.6150  141.4050 C   0  0  2  0  0  3  0  0  0  0  0  0
  2  5  1  1  0  0  0
  2  6  1  0  0  0  0
  3  1  1  6  0  0  0
  3  8  1  0  0  0  0
  4 12  1  6  0  0  0
  4  9  1  0  0  0  0
  4  2  1  0  0  0  0
  7 55  1  1  0  0  0
  7  3  1  0  0  0  0
  7  9  1  0  0  0  0
  8  6  1  0  0  0  0
  8 28  1  1  0  0  0
 11 12  2  0  0  0  0
 12 10  1  0  0  0  0
 13 14  1  0  0  0  0
 14 10  1  0  0  0  0
 15 14  2  0  0  0  0
 15 18  1  0  0  0  0
 16 15  1  0  0  0  0
 17 13  1  0  0  0  0
 17 16  2  0  0  0  0
 18 21  1  0  0  0  0
 18 19  1  1  0  0  0
 20 21  1  0  0  0  0
 21 22  1  0  0  0  0
 23 17  1  0  0  0  0
 25 24  1  6  0  0  0
 25 23  1  0  0  0  0
 26 27  1  0  0  0  0
 26 25  1  0  0  0  0
 28 29  1  0  0  0  0
 30 35  1  6  0  0  0
 30 32  1  0  0  0  0
 30 34  1  0  0  0  0
 31 33  1  0  0  0  0
 32 31  1  0  0  0  0
 33 29  1  1  0  0  0
 34 33  1  0  0  0  0
 36 47  1  1  0  0  0
 36 43  1  0  0  0  0
 37 50  1  6  0  0  0
 37 36  1  0  0  0  0
 38 40  1  0  0  0  0
 39 44  1  6  0  0  0
 39 37  1  0  0  0  0
 39 41  1  0  0  0  0
 40 42  1  6  0  0  0
 40 43  1  0  0  0  0
 41 38  1  0  0  0  0
 43 35  1  1  0  0  0
 45 44  1  0  0  0  0
 46 44  2  0  0  0  0
 47 49  2  0  0  0  0
 47 48  1  0  0  0  0
 51 50  1  0  0  0  0
 52 53  1  0  0  0  0
 53 51  1  0  0  0  0
 53 54  1  0  0  0  0
 56 60  1  0  0  0  0
 58 63  1  0  0  0  0
 58 56  1  0  0  0  0
 61 57  1  0  0  0  0
 62 57  2  0  0  0  0
 62 55  1  0  0  0  0
 63 59  1  0  0  0  0
 64 62  1  0  0  0  0
 65 60  1  6  0  0  0
 65 61  1  0  0  0  0
 66 59  1  6  0  0  0
 66 64  1  0  0  0  0
 66 65  1  0  0  0  0
M  END
>  <MODEL>
8

>  <REMARK>
 VINA RESULT:      -4.6      3.478     10.464
  Name = 
  19 active torsions:
  status: ('A' for Active; 'I' for Inactive)
    1  A    between atoms: C_1  and  C_32
    2  A    between atoms: C_2  and  C_37
    3  A    between atoms: C_2  and  C_47
    4  A    between atoms: C_3  and  C_13
    5  A    between atoms: C_10  and  C_59
    6  A    between atoms: N_12  and  C_36
    7  A    between atoms: C_13  and  C_60
    8  A    between atoms: C_14  and  C_21
    9  A    between atoms: C_18  and  C_54
   10  A    between atoms: C_19  and  C_47
   11  A    between atoms: C_29  and  C_49
   12  A    between atoms: C_31  and  S_57
   13  A    between atoms: C_33  and  O_46
   14  A    between atoms: C_38  and  C_49
   15  A    between atoms: C_42  and  O_46
   16  A    between atoms: C_53  and  C_55
   17  A    between atoms: C_53  and  S_57
   18  A    between atoms: C_59  and  C_61
   19  A    between atoms: C_61  and  C_66
                            x       y       z     vdW  Elec       q    Type
                         _______ _______ _______ _____ _____    ______ ____

>  <TORSDO>
F 19

$$$$
=
 OpenBabel11042416193D

 66 71  0  0  1  0  0  0  0  0999 V2000
  195.0370  176.4610  142.9730 C   0  0  0  0  0  1  0  0  0  0  0  0
  196.5380  172.3270  144.0730 C   0  0  1  0  0  3  0  0  0  0  0  0
  196.1280  175.4620  143.3450 C   0  0  2  0  0  3  0  0  0  0  0  0
  197.4800  172.3880  142.8590 C   0  0  2  0  0  3  0  0  0  0  0  0
  196.8270  171.1880  144.8210 O   0  0  0  0  0  1  0  0  0  0  0  0
  196.6610  173.5520  144.9670 C   0  0  0  0  0  2  0  0  0  0  0  0
  196.4820  174.6090  142.1100 C   0  0  2  0  0  3  0  0  0  0  0  0
  195.6510  174.6200  144.5490 C   0  0  1  0  0  3  0  0  0  0  0  0
  197.7580  173.8000  142.3330 C   0  0  0  0  0  2  0  0  0  0  0  0
  195.6600  171.2680  141.4660 N   0  0  0  0  0  2  0  0  0  0  0  0
  197.9380  170.8920  141.0560 O   0  0  0  0  0  0  0  0  0  0  0  0
  197.0530  171.4730  141.7450 C   0  0  0  0  0  0  0  0  0  0  0  0
  195.5760  170.1820  138.9010 S   0  0  0  0  0  0  0  0  0  0  0  0
  195.1070  170.3510  140.5110 C   0  0  0  0  0  0  0  0  0  0  0  0
  194.1160  169.4100  140.7980 C   0  0  0  0  0  0  0  0  0  0  0  0
  193.7840  168.6030  139.7000 C   0  0  0  0  0  3  0  0  0  0  0  0
  194.5110  168.9230  138.5590 C   0  0  0  0  0  0  0  0  0  0  0  0
  193.5000  169.1830  142.1540 C   0  0  2  0  0  3  0  0  0  0  0  0
  192.4530  168.2580  142.0860 O   0  0  0  0  0  1  0  0  0  0  0  0
  192.6550  170.2420  144.3090 C   0  0  0  0  0  1  0  0  0  0  0  0
  193.0400  170.4670  142.8560 C   0  0  0  0  0  3  0  0  0  0  0  0
  191.8990  171.1330  142.1060 C   0  0  0  0  0  1  0  0  0  0  0  0
  194.4070  168.2000  137.2590 C   0  0  0  0  0  2  0  0  0  0  0  0
  195.3980  170.2270  136.4970 O   0  0  0  0  0  1  0  0  0  0  0  0
  194.6170  169.1430  136.0870 C   0  0  1  0  0  3  0  0  0  0  0  0
  195.3230  168.3970  134.9730 C   0  0  0  0  0  2  0  0  0  0  0  0
  196.5430  169.1710  134.5130 C   0  0  0  0  0  1  0  0  0  0  0  0
  195.4080  175.5240  145.7520 C   0  0  0  0  0  2  0  0  0  0  0  0
  193.6250  175.7720  145.9980 S   0  0  0  0  0  0  0  0  0  0  0  0
  191.3780  174.2650  143.3330 C   0  0  2  0  0  3  0  0  0  0  0  0
  192.0510  173.5880  145.5340 C   0  0  0  0  0  2  0  0  0  0  0  0
  190.8320  173.9270  144.7020 C   0  0  0  0  0  2  0  0  0  0  0  0
  193.2070  174.3660  144.9300 C   0  0  1  0  0  3  0  0  0  0  0  0
  192.7370  174.8820  143.5790 C   0  0  0  0  0  2  0  0  0  0  0  0
  190.4830  175.2550  142.6060 C   0  0  0  0  0  2  0  0  0  0  0  0
  188.0910  176.1270  142.8600 C   0  0  1  0  0  3  0  0  0  0  0  0
  186.9080  176.4850  143.8020 C   0  0  1  0  0  3  0  0  0  0  0  0
  189.6230  177.3330  145.6520 C   0  0  0  0  0  2  0  0  0  0  0  0
  187.2240  177.5190  144.9070 C   0  0  2  0  0  3  0  0  0  0  0  0
  190.0760  177.0860  144.2150 C   0  0  2  0  0  3  0  0  0  0  0  0
  188.1810  176.9230  145.9280 C   0  0  0  0  0  2  0  0  0  0  0  0
  189.9720  178.3490  143.3710 C   0  0  0  0  0  1  0  0  0  0  0  0
  189.4480  175.8460  143.5620 C   0  0  2  0  0  3  0  0  0  0  0  0
  185.9960  177.9700  145.6360 C   0  0  0  0  0  0  0  0  0  0  0  0
  185.7140  179.1970  145.6810 O   0  0  0  0  0  0  0  0  0  0  0  0
  185.1700  177.0460  146.2650 O   0  0  0  0  0  1  0  0  0  0  0  0
  187.6890  174.9700  141.9880 C   0  0  0  0  0  0  0  0  0  0  0  0
  187.9840  174.9770  140.6290 O   0  0  0  0  0  0  0  0  0  0  0  0
  187.0820  173.9890  142.4910 O   0  0  0  0  0  1  0  0  0  0  0  0
  185.6780  176.8950  142.9760 C   0  0  0  0  0  2  0  0  0  0  0  0
  185.9700  178.0840  142.0630 C   0  0  0  0  0  2  0  0  0  0  0  0
  186.8970  177.8850  139.8590 O   0  0  0  0  0  1  0  0  0  0  0  0
  185.7220  177.7400  140.6010 C   0  0  0  0  0  3  0  0  0  0  0  0
  184.7220  178.5560  140.0700 O   0  0  0  0  0  1  0  0  0  0  0  0
  196.6130  175.3970  140.9210 O   0  0  0  0  0  0  0  0  0  0  0  0
  192.6730  172.6840  136.3110 C   0  0  0  0  0  2  0  0  0  0  0  0
  196.6290  174.6930  138.6220 C   0  0  0  0  0  3  0  0  0  0  0  0
  191.4320  173.1450  136.9220 N   0  0  0  0  0  2  0  0  0  0  0  0
  192.3220  174.4080  138.8070 C   0  0  0  0  0  2  0  0  0  0  0  0
  193.7100  173.7990  136.3120 C   0  0  0  0  0  2  0  0  0  0  0  0
  195.8870  174.4640  137.3390 C   0  0  0  0  0  2  0  0  0  0  0  0
  195.9720  175.1410  139.6970 C   0  0  0  0  0  0  0  0  0  0  0  0
  191.5940  173.1460  138.3700 C   0  0  0  0  0  2  0  0  0  0  0  0
  194.4950  175.3680  139.5940 C   0  0  0  0  0  2  0  0  0  0  0  0
  194.5540  173.7420  137.5820 C   0  0  1  0  0  3  0  0  0  0  0  0
  193.8300  174.1740  138.9030 C   0  0  2  0  0  3  0  0  0  0  0  0
  2  5  1  1  0  0  0
  2  6  1  0  0  0  0
  3  1  1  6  0  0  0
  3  8  1  0  0  0  0
  4 12  1  6  0  0  0
  4  2  1  0  0  0  0
  7 55  1  6  0  0  0
  7  9  1  0  0  0  0
  7  3  1  0  0  0  0
  8  6  1  0  0  0  0
  8 28  1  1  0  0  0
  9  4  1  0  0  0  0
 10 12  1  0  0  0  0
 11 12  2  0  0  0  0
 13 14  1  0  0  0  0
 14 15  2  0  0  0  0
 14 10  1  0  0  0  0
 15 18  1  0  0  0  0
 16 15  1  0  0  0  0
 17 13  1  0  0  0  0
 17 16  2  0  0  0  0
 18 19  1  6  0  0  0
 18 21  1  0  0  0  0
 21 20  1  0  0  0  0
 22 21  1  0  0  0  0
 23 17  1  0  0  0  0
 25 24  1  1  0  0  0
 25 23  1  0  0  0  0
 26 25  1  0  0  0  0
 27 26  1  0  0  0  0
 28 29  1  0  0  0  0
 30 35  1  1  0  0  0
 30 34  1  0  0  0  0
 30 32  1  0  0  0  0
 32 31  1  0  0  0  0
 33 31  1  0  0  0  0
 33 29  1  1  0  0  0
 34 33  1  0  0  0  0
 36 47  1  1  0  0  0
 36 43  1  0  0  0  0
 36 37  1  0  0  0  0
 37 50  1  6  0  0  0
 37 39  1  0  0  0  0
 38 41  1  0  0  0  0
 39 44  1  1  0  0  0
 39 41  1  0  0  0  0
 40 42  1  6  0  0  0
 40 38  1  0  0  0  0
 43 35  1  6  0  0  0
 43 40  1  0  0  0  0
 44 45  2  0  0  0  0
 44 46  1  0  0  0  0
 47 49  1  0  0  0  0
 48 47  2  0  0  0  0
 51 50  1  0  0  0  0
 52 53  1  0  0  0  0
 53 51  1  0  0  0  0
 54 53  1  0  0  0  0
 56 60  1  0  0  0  0
 56 58  1  0  0  0  0
 57 62  2  0  0  0  0
 58 63  1  0  0  0  0
 61 65  1  0  0  0  0
 61 57  1  0  0  0  0
 62 55  1  0  0  0  0
 63 59  1  0  0  0  0
 64 62  1  0  0  0  0
 65 60  1  6  0  0  0
 65 66  1  0  0  0  0
 66 59  1  6  0  0  0
 66 64  1  0  0  0  0
M  END
>  <MODEL>
9

>  <REMARK>
 VINA RESULT:      -4.5      3.610     11.458
  Name = 
  19 active torsions:
  status: ('A' for Active; 'I' for Inactive)
    1  A    between atoms: C_1  and  C_32
    2  A    between atoms: C_2  and  C_37
    3  A    between atoms: C_2  and  C_47
    4  A    between atoms: C_3  and  C_13
    5  A    between atoms: C_10  and  C_59
    6  A    between atoms: N_12  and  C_36
    7  A    between atoms: C_13  and  C_60
    8  A    between atoms: C_14  and  C_21
    9  A    between atoms: C_18  and  C_54
   10  A    between atoms: C_19  and  C_47
   11  A    between atoms: C_29  and  C_49
   12  A    between atoms: C_31  and  S_57
   13  A    between atoms: C_33  and  O_46
   14  A    between atoms: C_38  and  C_49
   15  A    between atoms: C_42  and  O_46
   16  A    between atoms: C_53  and  C_55
   17  A    between atoms: C_53  and  S_57
   18  A    between atoms: C_59  and  C_61
   19  A    between atoms: C_61  and  C_66
                            x       y       z     vdW  Elec       q    Type
                         _______ _______ _______ _____ _____    ______ ____

>  <TORSDO>
F 19

$$$$
