=
 OpenBabel11042417223D

 26 29  0  0  1  0  0  0  0  0999 V2000
  187.7210  176.2870  144.4260 C   0  0  1  0  0  3  0  0  0  0  0  0
  189.6970  175.1350  145.4740 N   0  0  0  0  0  0  0  0  0  0  0  0
  190.0960  177.0600  144.3020 N   0  0  0  0  0  2  0  0  0  0  0  0
  192.0250  174.7140  146.1180 C   0  0  0  0  0  3  0  0  0  0  0  0
  189.1810  176.1540  144.7360 C   0  0  0  0  0  0  0  0  0  0  0  0
  193.5790  176.4100  145.2780 C   0  0  0  0  0  3  0  0  0  0  0  0
  191.0040  175.4280  145.4960 C   0  0  0  0  0  0  0  0  0  0  0  0
  191.2420  176.5730  144.7990 C   0  0  0  0  0  0  0  0  0  0  0  0
  193.3330  175.2220  146.0020 C   0  0  0  0  0  3  0  0  0  0  0  0
  192.5220  177.1060  144.6630 C   0  0  0  0  0  3  0  0  0  0  0  0
  185.5760  176.7110  145.6980 C   0  0  0  0  0  3  0  0  0  0  0  0
  187.7650  177.3410  146.6850 C   0  0  0  0  0  3  0  0  0  0  0  0
  187.4230  178.1810  147.6600 C   0  0  0  0  0  3  0  0  0  0  0  0
  186.2500  180.4880  148.6170 Cl  0  0  0  0  0  0  0  0  0  0  0  0
  186.1960  179.0030  147.6920 C   0  0  0  0  0  0  0  0  0  0  0  0
  184.7120  177.3850  146.4560 C   0  0  0  0  0  3  0  0  0  0  0  0
  186.9730  177.1790  145.4280 C   0  0  1  0  0  3  0  0  0  0  0  0
  185.0100  178.6240  147.2000 C   0  0  0  0  0  3  0  0  0  0  0  0
  186.9490  177.0640  140.2560 C   0  0  0  0  0  0  0  0  0  0  0  0
  186.7880  177.7530  142.5760 C   0  0  0  0  0  3  0  0  0  0  0  0
  187.4470  176.5810  142.9760 C   0  0  0  0  0  0  0  0  0  0  0  0
  187.8510  175.6540  142.0090 C   0  0  0  0  0  3  0  0  0  0  0  0
  186.5400  177.9940  141.2230 C   0  0  0  0  0  3  0  0  0  0  0  0
  187.6040  175.8950  140.6550 C   0  0  0  0  0  3  0  0  0  0  0  0
  186.6770  176.2720  138.0250 O   0  0  0  0  0  1  0  0  0  0  0  0
  186.7110  177.2870  138.9010 O   0  0  0  0  0  0  0  0  0  0  0  0
  1 21  1  6  0  0  0
  1  5  1  0  0  0  0
  2  7  1  0  0  0  0
  3  5  1  0  0  0  0
  3  8  1  0  0  0  0
  5  2  2  0  0  0  0
  6  9  2  0  0  0  0
  7  4  2  0  0  0  0
  8  7  1  0  0  0  0
  9  4  1  0  0  0  0
 10  8  2  0  0  0  0
 10  6  1  0  0  0  0
 11 16  2  0  0  0  0
 12 13  2  0  0  0  0
 13 15  1  0  0  0  0
 15 14  1  0  0  0  0
 16 18  1  0  0  0  0
 17  1  1  6  0  0  0
 17 11  1  0  0  0  0
 17 12  1  0  0  0  0
 18 15  2  0  0  0  0
 19 24  2  0  0  0  0
 19 23  1  0  0  0  0
 20 21  1  0  0  0  0
 22 21  2  0  0  0  0
 23 20  2  0  0  0  0
 24 22  1  0  0  0  0
 25 26  1  0  0  0  0
 26 19  1  0  0  0  0
M  END
>  <MODEL>
1

>  <REMARK>
 VINA RESULT:      -7.2      0.000      0.000
  Name = 
  4 active torsions:
  status: ('A' for Active; 'I' for Inactive)
    1  A    between atoms: C_2  and  O_11
    2  A    between atoms: C_7  and  C_24
    3  A    between atoms: C_10  and  C_24
    4  A    between atoms: C_22  and  C_24
                            x       y       z     vdW  Elec       q    Type
                         _______ _______ _______ _____ _____    ______ ____

>  <TORSDO>
F 4

$$$$
=
 OpenBabel11042417223D

 26 29  0  0  1  0  0  0  0  0999 V2000
  189.3120  175.2330  144.1820 C   0  0  1  0  0  3  0  0  0  0  0  0
  187.9320  177.1320  143.2770 N   0  0  0  0  0  0  0  0  0  0  0  0
  187.5480  176.4830  145.4380 N   0  0  0  0  0  2  0  0  0  0  0  0
  186.2640  178.9290  143.2250 C   0  0  0  0  0  3  0  0  0  0  0  0
  188.2550  176.2890  144.2940 C   0  0  0  0  0  0  0  0  0  0  0  0
  185.0540  179.1810  145.3400 C   0  0  0  0  0  3  0  0  0  0  0  0
  186.9700  177.8870  143.8230 C   0  0  0  0  0  0  0  0  0  0  0  0
  186.7410  177.5020  145.1090 C   0  0  0  0  0  0  0  0  0  0  0  0
  185.2910  179.5820  144.0050 C   0  0  0  0  0  3  0  0  0  0  0  0
  185.7870  178.1240  145.9100 C   0  0  0  0  0  3  0  0  0  0  0  0
  190.7630  173.9840  142.5280 C   0  0  0  0  0  3  0  0  0  0  0  0
  188.2900  173.7940  142.4210 C   0  0  0  0  0  3  0  0  0  0  0  0
  188.0810  173.2970  141.2040 C   0  0  0  0  0  3  0  0  0  0  0  0
  188.2630  173.3790  138.4520 Cl  0  0  0  0  0  0  0  0  0  0  0  0
  188.9820  173.4590  140.0450 C   0  0  0  0  0  0  0  0  0  0  0  0
  191.1420  173.5090  141.3430 C   0  0  0  0  0  3  0  0  0  0  0  0
  189.4520  174.6720  142.7590 C   0  0  1  0  0  3  0  0  0  0  0  0
  190.3180  173.5080  140.1180 C   0  0  0  0  0  3  0  0  0  0  0  0
  193.0160  176.3860  146.0650 C   0  0  0  0  0  0  0  0  0  0  0  0
  191.0640  174.9490  145.9980 C   0  0  0  0  0  3  0  0  0  0  0  0
  190.6050  175.6150  144.8510 C   0  0  0  0  0  0  0  0  0  0  0  0
  191.3580  176.6680  144.3190 C   0  0  0  0  0  3  0  0  0  0  0  0
  192.2630  175.3310  146.6010 C   0  0  0  0  0  3  0  0  0  0  0  0
  192.5580  177.0510  144.9230 C   0  0  0  0  0  3  0  0  0  0  0  0
  194.9490  177.7780  146.1330 O   0  0  0  0  0  1  0  0  0  0  0  0
  194.2160  176.7830  146.6520 O   0  0  0  0  0  0  0  0  0  0  0  0
  1  5  1  6  0  0  0
  1 21  1  0  0  0  0
  2  7  1  0  0  0  0
  2  5  2  0  0  0  0
  4  7  2  0  0  0  0
  4  9  1  0  0  0  0
  5  3  1  0  0  0  0
  6 10  1  0  0  0  0
  7  8  1  0  0  0  0
  8  3  1  0  0  0  0
  8 10  2  0  0  0  0
  9  6  2  0  0  0  0
 11 17  1  0  0  0  0
 12 17  1  0  0  0  0
 13 12  2  0  0  0  0
 14 15  1  0  0  0  0
 15 18  2  0  0  0  0
 15 13  1  0  0  0  0
 16 11  2  0  0  0  0
 17  1  1  1  0  0  0
 18 16  1  0  0  0  0
 19 23  1  0  0  0  0
 19 26  1  0  0  0  0
 20 23  2  0  0  0  0
 21 20  1  0  0  0  0
 22 21  2  0  0  0  0
 22 24  1  0  0  0  0
 24 19  2  0  0  0  0
 25 26  1  0  0  0  0
M  END
>  <MODEL>
2

>  <REMARK>
 VINA RESULT:      -7.1      4.348      7.487
  Name = 
  4 active torsions:
  status: ('A' for Active; 'I' for Inactive)
    1  A    between atoms: C_2  and  O_11
    2  A    between atoms: C_7  and  C_24
    3  A    between atoms: C_10  and  C_24
    4  A    between atoms: C_22  and  C_24
                            x       y       z     vdW  Elec       q    Type
                         _______ _______ _______ _____ _____    ______ ____

>  <TORSDO>
F 4

$$$$
=
 OpenBabel11042417223D

 26 29  0  0  1  0  0  0  0  0999 V2000
  189.2960  176.6180  143.6200 C   0  0  1  0  0  3  0  0  0  0  0  0
  187.5560  176.5390  145.4360 N   0  0  0  0  0  0  0  0  0  0  0  0
  187.2890  178.1000  143.7840 N   0  0  0  0  0  2  0  0  0  0  0  0
  185.5370  177.1220  146.6990 C   0  0  0  0  0  3  0  0  0  0  0  0
  188.0410  177.0880  144.2890 C   0  0  0  0  0  0  0  0  0  0  0  0
  184.2680  178.9590  145.6920 C   0  0  0  0  0  3  0  0  0  0  0  0
  186.4440  177.2530  145.6500 C   0  0  0  0  0  0  0  0  0  0  0  0
  186.2840  178.1830  144.6680 C   0  0  0  0  0  0  0  0  0  0  0  0
  184.4320  177.9940  146.7120 C   0  0  0  0  0  3  0  0  0  0  0  0
  185.2040  179.0620  144.6470 C   0  0  0  0  0  3  0  0  0  0  0  0
  190.5220  175.0170  145.1480 C   0  0  0  0  0  3  0  0  0  0  0  0
  191.7530  176.8310  143.9830 C   0  0  0  0  0  3  0  0  0  0  0  0
  192.8980  176.8980  144.6600 C   0  0  0  0  0  3  0  0  0  0  0  0
  194.3740  177.2800  146.9600 Cl  0  0  0  0  0  0  0  0  0  0  0  0
  193.0850  176.4990  146.0700 C   0  0  0  0  0  0  0  0  0  0  0  0
  191.3860  174.6380  146.0890 C   0  0  0  0  0  3  0  0  0  0  0  0
  190.4590  176.4110  144.6020 C   0  0  1  0  0  3  0  0  0  0  0  0
  192.4490  175.4840  146.6670 C   0  0  0  0  0  3  0  0  0  0  0  0
  188.6990  173.3800  140.8360 C   0  0  0  0  0  0  0  0  0  0  0  0
  187.8460  174.7940  142.6130 C   0  0  0  0  0  3  0  0  0  0  0  0
  189.0650  175.4890  142.6520 C   0  0  0  0  0  0  0  0  0  0  0  0
  190.0960  175.1210  141.7820 C   0  0  0  0  0  3  0  0  0  0  0  0
  187.6640  173.7450  141.7090 C   0  0  0  0  0  3  0  0  0  0  0  0
  189.9140  174.0720  140.8770 C   0  0  0  0  0  3  0  0  0  0  0  0
  188.3180  172.5750  138.6260 O   0  0  0  0  0  1  0  0  0  0  0  0
  188.5370  172.3360  139.9270 O   0  0  0  0  0  0  0  0  0  0  0  0
  1 21  1  1  0  0  0
  1  5  1  0  0  0  0
  2  7  1  0  0  0  0
  3  5  1  0  0  0  0
  3  8  1  0  0  0  0
  4  9  1  0  0  0  0
  5  2  2  0  0  0  0
  6  9  2  0  0  0  0
  7  4  2  0  0  0  0
  8  7  1  0  0  0  0
 10  8  2  0  0  0  0
 10  6  1  0  0  0  0
 11 16  2  0  0  0  0
 12 17  1  0  0  0  0
 12 13  2  0  0  0  0
 13 15  1  0  0  0  0
 15 18  2  0  0  0  0
 15 14  1  0  0  0  0
 16 18  1  0  0  0  0
 17  1  1  6  0  0  0
 17 11  1  0  0  0  0
 19 24  2  0  0  0  0
 19 23  1  0  0  0  0
 20 21  1  0  0  0  0
 22 21  2  0  0  0  0
 23 20  2  0  0  0  0
 24 22  1  0  0  0  0
 25 26  1  0  0  0  0
 26 19  1  0  0  0  0
M  END
>  <MODEL>
3

>  <REMARK>
 VINA RESULT:      -7.0      2.735      5.641
  Name = 
  4 active torsions:
  status: ('A' for Active; 'I' for Inactive)
    1  A    between atoms: C_2  and  O_11
    2  A    between atoms: C_7  and  C_24
    3  A    between atoms: C_10  and  C_24
    4  A    between atoms: C_22  and  C_24
                            x       y       z     vdW  Elec       q    Type
                         _______ _______ _______ _____ _____    ______ ____

>  <TORSDO>
F 4

$$$$
=
 OpenBabel11042417223D

 26 29  0  0  1  0  0  0  0  0999 V2000
  189.4620  175.9190  142.8370 C   0  0  1  0  0  3  0  0  0  0  0  0
  187.1370  176.6640  143.4440 N   0  0  0  0  0  0  0  0  0  0  0  0
  187.8120  176.9690  141.2790 N   0  0  0  0  0  2  0  0  0  0  0  0
  184.8880  177.6020  143.1690 C   0  0  0  0  0  3  0  0  0  0  0  0
  188.1280  176.5240  142.5230 C   0  0  0  0  0  0  0  0  0  0  0  0
  184.4370  178.3710  140.8880 C   0  0  0  0  0  3  0  0  0  0  0  0
  186.1560  177.2290  142.7280 C   0  0  0  0  0  0  0  0  0  0  0  0
  186.5560  177.4110  141.4400 C   0  0  0  0  0  0  0  0  0  0  0  0
  184.0200  178.1820  142.2250 C   0  0  0  0  0  3  0  0  0  0  0  0
  185.7260  177.9810  140.4790 C   0  0  0  0  0  3  0  0  0  0  0  0
  189.4740  174.5300  144.9510 C   0  0  0  0  0  3  0  0  0  0  0  0
  191.1560  176.3260  144.6210 C   0  0  0  0  0  3  0  0  0  0  0  0
  191.6280  176.5230  145.8500 C   0  0  0  0  0  3  0  0  0  0  0  0
  191.3450  177.1830  148.5140 Cl  0  0  0  0  0  0  0  0  0  0  0  0
  190.8960  176.2500  147.1040 C   0  0  0  0  0  0  0  0  0  0  0  0
  189.5640  174.2850  146.2580 C   0  0  0  0  0  3  0  0  0  0  0  0
  189.7600  175.8690  144.3430 C   0  0  1  0  0  3  0  0  0  0  0  0
  190.0300  175.2440  147.2790 C   0  0  0  0  0  3  0  0  0  0  0  0
  190.1470  172.2490  140.6800 C   0  0  0  0  0  0  0  0  0  0  0  0
  191.0140  174.2940  141.6560 C   0  0  0  0  0  3  0  0  0  0  0  0
  189.7240  174.6400  142.0880 C   0  0  0  0  0  0  0  0  0  0  0  0
  188.6520  173.7860  141.8090 C   0  0  0  0  0  3  0  0  0  0  0  0
  191.2240  173.1040  140.9560 C   0  0  0  0  0  3  0  0  0  0  0  0
  188.8620  172.5960  141.1090 C   0  0  0  0  0  3  0  0  0  0  0  0
  190.9600  170.0130  140.5460 O   0  0  0  0  0  1  0  0  0  0  0  0
  190.3370  171.0570  139.9820 O   0  0  0  0  0  0  0  0  0  0  0  0
  1 21  1  1  0  0  0
  3  8  1  0  0  0  0
  3  5  1  0  0  0  0
  5  1  1  0  0  0  0
  5  2  2  0  0  0  0
  6  9  1  0  0  0  0
  7  4  1  0  0  0  0
  7  2  1  0  0  0  0
  8  7  2  0  0  0  0
  9  4  2  0  0  0  0
 10  6  2  0  0  0  0
 10  8  1  0  0  0  0
 11 16  2  0  0  0  0
 12 13  2  0  0  0  0
 13 15  1  0  0  0  0
 15 18  2  0  0  0  0
 15 14  1  0  0  0  0
 16 18  1  0  0  0  0
 17  1  1  6  0  0  0
 17 12  1  0  0  0  0
 17 11  1  0  0  0  0
 19 23  2  0  0  0  0
 19 24  1  0  0  0  0
 20 21  2  0  0  0  0
 22 21  1  0  0  0  0
 23 20  1  0  0  0  0
 24 22  2  0  0  0  0
 26 25  1  0  0  0  0
 26 19  1  0  0  0  0
M  END
>  <MODEL>
4

>  <REMARK>
 VINA RESULT:      -6.8      3.281      5.944
  Name = 
  4 active torsions:
  status: ('A' for Active; 'I' for Inactive)
    1  A    between atoms: C_2  and  O_11
    2  A    between atoms: C_7  and  C_24
    3  A    between atoms: C_10  and  C_24
    4  A    between atoms: C_22  and  C_24
                            x       y       z     vdW  Elec       q    Type
                         _______ _______ _______ _____ _____    ______ ____

>  <TORSDO>
F 4

$$$$
=
 OpenBabel11042417223D

 26 29  0  0  1  0  0  0  0  0999 V2000
  189.2480  174.8830  144.6260 C   0  0  1  0  0  3  0  0  0  0  0  0
  191.0960  175.6130  146.1690 N   0  0  0  0  0  0  0  0  0  0  0  0
  191.5350  175.6090  143.9230 N   0  0  0  0  0  2  0  0  0  0  0  0
  193.3000  176.4160  146.8830 C   0  0  0  0  0  3  0  0  0  0  0  0
  190.6360  175.3680  144.9130 C   0  0  0  0  0  0  0  0  0  0  0  0
  194.8320  176.8110  145.0130 C   0  0  0  0  0  3  0  0  0  0  0  0
  192.3490  176.0260  145.9420 C   0  0  0  0  0  0  0  0  0  0  0  0
  192.6120  176.0240  144.6060 C   0  0  0  0  0  0  0  0  0  0  0  0
  194.5610  176.8140  146.4000 C   0  0  0  0  0  3  0  0  0  0  0  0
  193.8470  176.4120  144.0920 C   0  0  0  0  0  3  0  0  0  0  0  0
  187.8730  176.0410  146.4060 C   0  0  0  0  0  3  0  0  0  0  0  0
  188.5190  177.2490  144.3350 C   0  0  0  0  0  3  0  0  0  0  0  0
  187.6900  178.2910  144.3270 C   0  0  0  0  0  3  0  0  0  0  0  0
  185.1790  179.4330  144.2910 Cl  0  0  0  0  0  0  0  0  0  0  0  0
  186.3600  178.3350  144.9690 C   0  0  0  0  0  0  0  0  0  0  0  0
  186.9040  176.8110  146.9000 C   0  0  0  0  0  3  0  0  0  0  0  0
  188.1680  175.9280  144.9410 C   0  0  1  0  0  3  0  0  0  0  0  0
  186.0450  177.7180  146.1140 C   0  0  0  0  0  3  0  0  0  0  0  0
  188.8730  173.0220  140.7540 C   0  0  0  0  0  0  0  0  0  0  0  0
  189.5130  172.8790  143.0900 C   0  0  0  0  0  3  0  0  0  0  0  0
  189.1200  174.2120  143.2850 C   0  0  0  0  0  0  0  0  0  0  0  0
  188.6060  174.9430  142.2080 C   0  0  0  0  0  3  0  0  0  0  0  0
  189.3900  172.2870  141.8310 C   0  0  0  0  0  3  0  0  0  0  0  0
  188.4820  174.3510  140.9490 C   0  0  0  0  0  3  0  0  0  0  0  0
  188.1910  173.1260  138.4740 O   0  0  0  0  0  1  0  0  0  0  0  0
  188.7420  172.4490  139.4910 O   0  0  0  0  0  0  0  0  0  0  0  0
  1 21  1  6  0  0  0
  1  5  1  0  0  0  0
  3  8  1  0  0  0  0
  3  5  1  0  0  0  0
  5  2  2  0  0  0  0
  6  9  2  0  0  0  0
  7  2  1  0  0  0  0
  7  4  2  0  0  0  0
  8  7  1  0  0  0  0
  9  4  1  0  0  0  0
 10  8  2  0  0  0  0
 10  6  1  0  0  0  0
 11 16  2  0  0  0  0
 12 17  1  0  0  0  0
 13 12  2  0  0  0  0
 13 15  1  0  0  0  0
 14 15  1  0  0  0  0
 15 18  2  0  0  0  0
 17  1  1  1  0  0  0
 17 11  1  0  0  0  0
 18 16  1  0  0  0  0
 19 24  2  0  0  0  0
 19 23  1  0  0  0  0
 20 21  1  0  0  0  0
 22 21  2  0  0  0  0
 23 20  2  0  0  0  0
 24 22  1  0  0  0  0
 25 26  1  0  0  0  0
 26 19  1  0  0  0  0
M  END
>  <MODEL>
5

>  <REMARK>
 VINA RESULT:      -6.8      2.236      3.053
  Name = 
  4 active torsions:
  status: ('A' for Active; 'I' for Inactive)
    1  A    between atoms: C_2  and  O_11
    2  A    between atoms: C_7  and  C_24
    3  A    between atoms: C_10  and  C_24
    4  A    between atoms: C_22  and  C_24
                            x       y       z     vdW  Elec       q    Type
                         _______ _______ _______ _____ _____    ______ ____

>  <TORSDO>
F 4

$$$$
=
 OpenBabel11042417223D

 26 29  0  0  1  0  0  0  0  0999 V2000
  188.9580  177.2520  143.5150 C   0  0  1  0  0  3  0  0  0  0  0  0
  188.9220  174.7930  142.9880 N   0  0  0  0  0  0  0  0  0  0  0  0
  188.5040  176.2460  141.2710 N   0  0  0  0  0  2  0  0  0  0  0  0
  188.7110  172.7360  141.6690 C   0  0  0  0  0  3  0  0  0  0  0  0
  188.7910  176.0860  142.5890 C   0  0  0  0  0  0  0  0  0  0  0  0
  188.1910  173.1530  139.3120 C   0  0  0  0  0  3  0  0  0  0  0  0
  188.7020  174.1170  141.8530 C   0  0  0  0  0  0  0  0  0  0  0  0
  188.4540  174.9810  140.8300 C   0  0  0  0  0  0  0  0  0  0  0  0
  188.4500  172.2550  140.3720 C   0  0  0  0  0  3  0  0  0  0  0  0
  188.1920  174.5420  139.5350 C   0  0  0  0  0  3  0  0  0  0  0  0
  186.8180  178.5330  143.0840 C   0  0  0  0  0  3  0  0  0  0  0  0
  186.8460  176.6410  144.6910 C   0  0  0  0  0  3  0  0  0  0  0  0
  185.7250  176.8230  145.3870 C   0  0  0  0  0  3  0  0  0  0  0  0
  184.0670  178.2880  147.0350 Cl  0  0  0  0  0  0  0  0  0  0  0  0
  185.0460  178.1180  145.5950 C   0  0  0  0  0  0  0  0  0  0  0  0
  185.6780  179.1520  143.3850 C   0  0  0  0  0  3  0  0  0  0  0  0
  187.6250  177.7630  144.0850 C   0  0  1  0  0  3  0  0  0  0  0  0
  184.9980  179.1080  144.6940 C   0  0  0  0  0  3  0  0  0  0  0  0
  192.1440  176.7020  146.3670 C   0  0  0  0  0  0  0  0  0  0  0  0
  189.7780  176.9660  145.9000 C   0  0  0  0  0  3  0  0  0  0  0  0
  190.0540  177.0540  144.5270 C   0  0  0  0  0  0  0  0  0  0  0  0
  191.3780  176.9680  144.0830 C   0  0  0  0  0  3  0  0  0  0  0  0
  190.8180  176.7900  146.8160 C   0  0  0  0  0  3  0  0  0  0  0  0
  192.4180  176.7920  144.9990 C   0  0  0  0  0  3  0  0  0  0  0  0
  194.4560  176.3680  146.8380 O   0  0  0  0  0  1  0  0  0  0  0  0
  193.1950  176.5270  147.2650 O   0  0  0  0  0  0  0  0  0  0  0  0
  1  5  1  1  0  0  0
  1 21  1  0  0  0  0
  3  5  1  0  0  0  0
  4  7  1  0  0  0  0
  5  2  2  0  0  0  0
  6 10  2  0  0  0  0
  6  9  1  0  0  0  0
  7  2  1  0  0  0  0
  8  3  1  0  0  0  0
  8  7  2  0  0  0  0
  9  4  2  0  0  0  0
 10  8  1  0  0  0  0
 11 16  2  0  0  0  0
 11 17  1  0  0  0  0
 12 13  2  0  0  0  0
 13 15  1  0  0  0  0
 15 14  1  0  0  0  0
 16 18  1  0  0  0  0
 17  1  1  6  0  0  0
 17 12  1  0  0  0  0
 18 15  2  0  0  0  0
 19 23  1  0  0  0  0
 19 26  1  0  0  0  0
 20 23  2  0  0  0  0
 21 20  1  0  0  0  0
 22 21  2  0  0  0  0
 22 24  1  0  0  0  0
 24 19  2  0  0  0  0
 25 26  1  0  0  0  0
M  END
>  <MODEL>
6

>  <REMARK>
 VINA RESULT:      -6.8      3.619      5.634
  Name = 
  4 active torsions:
  status: ('A' for Active; 'I' for Inactive)
    1  A    between atoms: C_2  and  O_11
    2  A    between atoms: C_7  and  C_24
    3  A    between atoms: C_10  and  C_24
    4  A    between atoms: C_22  and  C_24
                            x       y       z     vdW  Elec       q    Type
                         _______ _______ _______ _____ _____    ______ ____

>  <TORSDO>
F 4

$$$$
=
 OpenBabel11042417223D

 26 29  0  0  1  0  0  0  0  0999 V2000
  188.6710  176.8160  142.9080 C   0  0  1  0  0  3  0  0  0  0  0  0
  188.0230  175.2210  141.0730 N   0  0  0  0  0  0  0  0  0  0  0  0
  190.0580  174.9100  142.0720 N   0  0  0  0  0  2  0  0  0  0  0  0
  188.1920  173.3410  139.5070 C   0  0  0  0  0  3  0  0  0  0  0  0
  188.9160  175.6440  142.0070 C   0  0  0  0  0  0  0  0  0  0  0  0
  190.2920  172.0980  139.7180 C   0  0  0  0  0  3  0  0  0  0  0  0
  188.6500  174.1690  140.5300 C   0  0  0  0  0  0  0  0  0  0  0  0
  189.8600  173.9830  141.1240 C   0  0  0  0  0  0  0  0  0  0  0  0
  189.0350  172.2890  139.1010 C   0  0  0  0  0  3  0  0  0  0  0  0
  190.7210  172.9540  140.7490 C   0  0  0  0  0  3  0  0  0  0  0  0
  186.8620  178.1190  144.1030 C   0  0  0  0  0  3  0  0  0  0  0  0
  186.8480  177.9350  141.6280 C   0  0  0  0  0  3  0  0  0  0  0  0
  185.6050  178.2910  141.3090 C   0  0  0  0  0  3  0  0  0  0  0  0
  182.8630  178.0040  141.4140 Cl  0  0  0  0  0  0  0  0  0  0  0  0
  184.4240  178.1640  142.1880 C   0  0  0  0  0  0  0  0  0  0  0  0
  185.6270  178.5410  144.3700 C   0  0  0  0  0  3  0  0  0  0  0  0
  187.2030  177.2690  142.9180 C   0  0  1  0  0  3  0  0  0  0  0  0
  184.4420  178.3180  143.5170 C   0  0  0  0  0  3  0  0  0  0  0  0
  190.4580  176.3220  146.8010 C   0  0  0  0  0  0  0  0  0  0  0  0
  190.3760  177.4750  144.6680 C   0  0  0  0  0  3  0  0  0  0  0  0
  189.3050  176.6640  144.2640 C   0  0  0  0  0  0  0  0  0  0  0  0
  188.8180  175.6830  145.1340 C   0  0  0  0  0  3  0  0  0  0  0  0
  190.9500  177.3050  145.9300 C   0  0  0  0  0  3  0  0  0  0  0  0
  189.3900  175.5130  146.3970 C   0  0  0  0  0  3  0  0  0  0  0  0
  191.5660  177.1570  148.7380 O   0  0  0  0  0  1  0  0  0  0  0  0
  191.0160  176.1370  148.0640 O   0  0  0  0  0  0  0  0  0  0  0  0
  1  5  1  1  0  0  0
  1 21  1  0  0  0  0
  2  5  2  0  0  0  0
  4  7  1  0  0  0  0
  5  3  1  0  0  0  0
  6 10  2  0  0  0  0
  7  2  1  0  0  0  0
  7  8  2  0  0  0  0
  8  3  1  0  0  0  0
  9  4  2  0  0  0  0
  9  6  1  0  0  0  0
 10  8  1  0  0  0  0
 11 16  2  0  0  0  0
 12 17  1  0  0  0  0
 13 12  2  0  0  0  0
 13 15  1  0  0  0  0
 14 15  1  0  0  0  0
 15 18  2  0  0  0  0
 17  1  1  6  0  0  0
 17 11  1  0  0  0  0
 18 16  1  0  0  0  0
 19 26  1  0  0  0  0
 20 23  1  0  0  0  0
 21 20  2  0  0  0  0
 21 22  1  0  0  0  0
 22 24  2  0  0  0  0
 23 19  2  0  0  0  0
 24 19  1  0  0  0  0
 26 25  1  0  0  0  0
M  END
>  <MODEL>
7

>  <REMARK>
 VINA RESULT:      -6.7      4.080      6.031
  Name = 
  4 active torsions:
  status: ('A' for Active; 'I' for Inactive)
    1  A    between atoms: C_2  and  O_11
    2  A    between atoms: C_7  and  C_24
    3  A    between atoms: C_10  and  C_24
    4  A    between atoms: C_22  and  C_24
                            x       y       z     vdW  Elec       q    Type
                         _______ _______ _______ _____ _____    ______ ____

>  <TORSDO>
F 4

$$$$
=
 OpenBabel11042417223D

 26 29  0  0  1  0  0  0  0  0999 V2000
  189.6050  176.5850  143.5360 C   0  0  1  0  0  3  0  0  0  0  0  0
  191.4380  175.0080  144.2310 N   0  0  0  0  0  0  0  0  0  0  0  0
  191.7500  177.2370  144.6420 N   0  0  0  0  0  2  0  0  0  0  0  0
  193.5700  174.2490  145.1730 C   0  0  0  0  0  3  0  0  0  0  0  0
  190.9410  176.2710  144.1360 C   0  0  0  0  0  0  0  0  0  0  0  0
  194.9410  176.0790  146.0500 C   0  0  0  0  0  3  0  0  0  0  0  0
  192.6210  175.2070  144.8260 C   0  0  0  0  0  0  0  0  0  0  0  0
  192.8080  176.5330  145.0710 C   0  0  0  0  0  0  0  0  0  0  0  0
  194.7480  174.7020  145.7960 C   0  0  0  0  0  3  0  0  0  0  0  0
  193.9600  177.0180  145.6860 C   0  0  0  0  0  3  0  0  0  0  0  0
  188.6940  174.2960  142.9620 C   0  0  0  0  0  3  0  0  0  0  0  0
  188.2230  176.2390  141.4900 C   0  0  0  0  0  3  0  0  0  0  0  0
  187.8180  175.6650  140.3590 C   0  0  0  0  0  3  0  0  0  0  0  0
  188.1740  174.0130  138.1780 Cl  0  0  0  0  0  0  0  0  0  0  0  0
  188.1930  174.3110  139.9020 C   0  0  0  0  0  0  0  0  0  0  0  0
  188.3790  173.2600  142.1850 C   0  0  0  0  0  3  0  0  0  0  0  0
  189.1970  175.6020  142.4290 C   0  0  1  0  0  3  0  0  0  0  0  0
  188.3930  173.2620  140.7090 C   0  0  0  0  0  3  0  0  0  0  0  0
  186.6020  177.3620  146.5320 C   0  0  0  0  0  0  0  0  0  0  0  0
  187.5430  177.8250  144.3450 C   0  0  0  0  0  3  0  0  0  0  0  0
  188.5440  176.8670  144.5660 C   0  0  0  0  0  0  0  0  0  0  0  0
  188.5680  176.1630  145.7740 C   0  0  0  0  0  3  0  0  0  0  0  0
  186.5760  178.0710  145.3230 C   0  0  0  0  0  3  0  0  0  0  0  0
  187.6010  176.4080  146.7530 C   0  0  0  0  0  3  0  0  0  0  0  0
  184.5330  178.2910  147.2610 O   0  0  0  0  0  1  0  0  0  0  0  0
  185.6470  177.5930  147.5200 O   0  0  0  0  0  0  0  0  0  0  0  0
  1  5  1  1  0  0  0
  1 21  1  0  0  0  0
  2  7  1  0  0  0  0
  3  8  1  0  0  0  0
  4  9  1  0  0  0  0
  5  2  2  0  0  0  0
  5  3  1  0  0  0  0
  7  8  1  0  0  0  0
  7  4  2  0  0  0  0
  8 10  2  0  0  0  0
  9  6  2  0  0  0  0
 10  6  1  0  0  0  0
 12 17  1  0  0  0  0
 13 12  2  0  0  0  0
 14 15  1  0  0  0  0
 15 13  1  0  0  0  0
 15 18  2  0  0  0  0
 16 11  2  0  0  0  0
 17 11  1  0  0  0  0
 17  1  1  1  0  0  0
 18 16  1  0  0  0  0
 19 24  1  0  0  0  0
 19 26  1  0  0  0  0
 20 21  2  0  0  0  0
 20 23  1  0  0  0  0
 21 22  1  0  0  0  0
 22 24  2  0  0  0  0
 23 19  2  0  0  0  0
 25 26  1  0  0  0  0
M  END
>  <MODEL>
8

>  <REMARK>
 VINA RESULT:      -6.7      3.804      5.610
  Name = 
  4 active torsions:
  status: ('A' for Active; 'I' for Inactive)
    1  A    between atoms: C_2  and  O_11
    2  A    between atoms: C_7  and  C_24
    3  A    between atoms: C_10  and  C_24
    4  A    between atoms: C_22  and  C_24
                            x       y       z     vdW  Elec       q    Type
                         _______ _______ _______ _____ _____    ______ ____

>  <TORSDO>
F 4

$$$$
=
 OpenBabel11042417223D

 26 29  0  0  1  0  0  0  0  0999 V2000
  189.7110  175.0020  144.1200 C   0  0  1  0  0  3  0  0  0  0  0  0
  188.4820  173.8110  142.2760 N   0  0  0  0  0  0  0  0  0  0  0  0
  190.6590  174.4000  141.8850 N   0  0  0  0  0  2  0  0  0  0  0  0
  188.0840  172.7580  140.0970 C   0  0  0  0  0  3  0  0  0  0  0  0
  189.6110  174.4020  142.7510 C   0  0  0  0  0  0  0  0  0  0  0  0
  190.0410  172.8170  138.6260 C   0  0  0  0  0  3  0  0  0  0  0  0
  188.8540  173.4240  141.0480 C   0  0  0  0  0  0  0  0  0  0  0  0
  190.1480  173.7740  140.8150 C   0  0  0  0  0  0  0  0  0  0  0  0
  188.6970  172.4530  138.8670 C   0  0  0  0  0  3  0  0  0  0  0  0
  190.7880  173.4890  139.6120 C   0  0  0  0  0  3  0  0  0  0  0  0
  191.4390  176.8230  144.4320 C   0  0  0  0  0  3  0  0  0  0  0  0
  191.4800  174.7960  145.8640 C   0  0  0  0  0  3  0  0  0  0  0  0
  192.7040  174.8250  146.3880 C   0  0  0  0  0  3  0  0  0  0  0  0
  195.4570  174.8320  146.2010 Cl  0  0  0  0  0  0  0  0  0  0  0  0
  193.8840  175.4690  145.7760 C   0  0  0  0  0  0  0  0  0  0  0  0
  192.6480  177.3450  144.6340 C   0  0  0  0  0  3  0  0  0  0  0  0
  191.1520  175.3550  144.5180 C   0  0  1  0  0  3  0  0  0  0  0  0
  193.8490  176.5930  145.0480 C   0  0  0  0  0  3  0  0  0  0  0  0
  186.8050  178.0900  144.8990 C   0  0  0  0  0  0  0  0  0  0  0  0
  188.2840  176.9550  143.3480 C   0  0  0  0  0  3  0  0  0  0  0  0
  188.6940  176.0820  144.3690 C   0  0  0  0  0  0  0  0  0  0  0  0
  188.1550  176.2230  145.6520 C   0  0  0  0  0  3  0  0  0  0  0  0
  187.3440  177.9530  143.6120 C   0  0  0  0  0  3  0  0  0  0  0  0
  187.2140  177.2210  145.9160 C   0  0  0  0  0  3  0  0  0  0  0  0
  185.6200  180.0740  144.3170 O   0  0  0  0  0  1  0  0  0  0  0  0
  185.8660  179.0800  145.1830 O   0  0  0  0  0  0  0  0  0  0  0  0
  1  5  1  6  0  0  0
  1 21  1  0  0  0  0
  2  5  2  0  0  0  0
  3  5  1  0  0  0  0
  4  7  1  0  0  0  0
  6  9  1  0  0  0  0
  6 10  2  0  0  0  0
  7  2  1  0  0  0  0
  8  7  2  0  0  0  0
  8  3  1  0  0  0  0
  9  4  2  0  0  0  0
 10  8  1  0  0  0  0
 11 17  1  0  0  0  0
 11 16  2  0  0  0  0
 12 13  2  0  0  0  0
 15 14  1  0  0  0  0
 15 13  1  0  0  0  0
 16 18  1  0  0  0  0
 17  1  1  1  0  0  0
 17 12  1  0  0  0  0
 18 15  2  0  0  0  0
 19 26  1  0  0  0  0
 19 24  1  0  0  0  0
 20 23  1  0  0  0  0
 20 21  2  0  0  0  0
 21 22  1  0  0  0  0
 22 24  2  0  0  0  0
 23 19  2  0  0  0  0
 25 26  1  0  0  0  0
M  END
>  <MODEL>
9

>  <REMARK>
 VINA RESULT:      -6.6      3.547      6.165
  Name = 
  4 active torsions:
  status: ('A' for Active; 'I' for Inactive)
    1  A    between atoms: C_2  and  O_11
    2  A    between atoms: C_7  and  C_24
    3  A    between atoms: C_10  and  C_24
    4  A    between atoms: C_22  and  C_24
                            x       y       z     vdW  Elec       q    Type
                         _______ _______ _______ _____ _____    ______ ____

>  <TORSDO>
F 4

$$$$
