=
 OpenBabel11042417153D

 31 35  0  0  1  0  0  0  0  0999 V2000
  190.3190  177.3320  145.5790 C   0  0  0  0  0  1  0  0  0  0  0  0
  190.6160  174.2430  141.9070 C   0  0  0  0  0  0  0  0  0  0  0  0
  188.4720  175.1470  141.0170 C   0  0  0  0  0  2  0  0  0  0  0  0
  191.6180  173.9680  140.8340 C   0  0  0  0  0  2  0  0  0  0  0  0
  187.6970  176.4460  140.9990 C   0  0  2  0  0  3  0  0  0  0  0  0
  189.1200  175.0800  143.4600 C   0  0  0  0  0  0  0  0  0  0  0  0
  187.9750  175.7720  144.1550 C   0  0  0  0  0  2  0  0  0  0  0  0
  192.2750  172.0960  144.0890 O   0  0  0  0  0  0  0  0  0  0  0  0
  186.7020  176.5430  142.1570 C   0  0  1  0  0  3  0  0  0  0  0  0
  191.8990  172.7200  143.0640 C   0  0  0  0  0  0  0  0  0  0  0  0
  184.7530  178.0050  142.1220 O   0  0  0  0  0  0  0  0  0  0  0  0
  186.3730  177.6000  144.3570 N   0  0  0  0  0  2  0  0  0  0  0  0
  189.1960  174.3980  146.4190 C   0  0  0  0  0  2  0  0  0  0  0  0
  188.3690  177.9560  143.2160 O   0  0  0  0  0  1  0  0  0  0  0  0
  187.3740  177.0060  143.4690 C   0  0  1  0  0  0  0  0  0  0  0  0
  192.7320  172.6430  141.4820 S   0  0  0  0  0  0  0  0  0  0  0  0
  188.4340  177.1590  147.2970 C   0  0  0  0  0  3  0  0  0  0  0  0
  190.1740  175.3320  147.1280 C   0  0  0  0  0  2  0  0  0  0  0  0
  185.7100  177.4380  141.5320 C   0  0  0  0  0  0  0  0  0  0  0  0
  186.5790  178.0880  145.6950 C   0  0  0  0  0  0  0  0  0  0  0  0
  189.8550  176.8160  146.9320 C   0  0  1  0  0  3  0  0  0  0  0  0
  189.8480  173.6980  145.3660 O   0  0  0  0  0  0  0  0  0  0  0  0
  185.8900  177.4830  140.1340 N   0  0  0  0  0  2  0  0  0  0  0  0
  190.7820  173.6240  143.0320 C   0  0  0  0  0  0  0  0  0  0  0  0
  189.8810  174.1390  144.0350 C   0  0  0  0  0  0  0  0  0  0  0  0
  186.9660  176.6690  139.7480 N   0  0  0  0  0  2  0  0  0  0  0  0
  189.5900  175.3150  142.0340 C   0  0  1  0  0  3  0  0  0  0  0  0
  187.5350  177.6290  146.4660 C   0  0  0  0  0  0  0  0  0  0  0  0
  184.2850  178.9790  145.4870 C   0  0  0  0  0  1  0  0  0  0  0  0
  185.5600  178.9930  146.3060 C   0  0  0  0  0  3  0  0  0  0  0  0
  185.2600  178.5770  147.7340 C   0  0  0  0  0  1  0  0  0  0  0  0
  2 27  1  0  0  0  0
  2 24  2  0  0  0  0
  4 16  1  0  0  0  0
  4  2  1  0  0  0  0
  5  3  1  6  0  0  0
  5  9  1  0  0  0  0
  6 25  2  0  0  0  0
  6  7  1  0  0  0  0
  9 19  1  6  0  0  0
  9 15  1  0  0  0  0
 10  8  2  0  0  0  0
 12 20  1  0  0  0  0
 13 18  1  0  0  0  0
 15 14  1  6  0  0  0
 15  7  1  0  0  0  0
 15 12  1  0  0  0  0
 16 10  1  0  0  0  0
 19 11  2  0  0  0  0
 20 30  1  0  0  0  0
 20 28  2  0  0  0  0
 21  1  1  6  0  0  0
 21 18  1  0  0  0  0
 21 17  1  0  0  0  0
 22 13  1  0  0  0  0
 23 19  1  0  0  0  0
 24 10  1  0  0  0  0
 24 25  1  0  0  0  0
 25 22  1  0  0  0  0
 26 23  1  0  0  0  0
 26  5  1  0  0  0  0
 27  3  1  6  0  0  0
 27  6  1  0  0  0  0
 28 17  2  0  0  0  0
 29 30  1  0  0  0  0
 30 31  1  0  0  0  0
M  END
>  <MODEL>
1

>  <REMARK>
 VINA RESULT:      -8.8      0.000      0.000
  Name = 
  1 active torsions:
  status: ('A' for Active; 'I' for Inactive)
    1  A    between atoms: C_21  and  C_30
                            x       y       z     vdW  Elec       q    Type
                         _______ _______ _______ _____ _____    ______ ____

>  <TORSDO>
F 1

$$$$
=
 OpenBabel11042417153D

 31 35  0  0  1  0  0  0  0  0999 V2000
  189.4420  172.4420  143.3330 C   0  0  0  0  0  1  0  0  0  0  0  0
  190.0130  176.5750  145.7210 C   0  0  0  0  0  0  0  0  0  0  0  0
  188.6740  177.7340  143.9680 C   0  0  0  0  0  2  0  0  0  0  0  0
  189.6970  177.0530  147.0990 C   0  0  0  0  0  2  0  0  0  0  0  0
  187.5460  177.4350  143.0050 C   0  0  2  0  0  3  0  0  0  0  0  0
  190.1010  175.6820  143.5890 C   0  0  0  0  0  0  0  0  0  0  0  0
  189.8550  175.3340  142.1420 C   0  0  0  0  0  2  0  0  0  0  0  0
  193.0780  175.3180  146.7920 O   0  0  0  0  0  0  0  0  0  0  0  0
  188.0570  176.9820  141.6360 C   0  0  1  0  0  3  0  0  0  0  0  0
  191.9770  175.9230  146.7310 C   0  0  0  0  0  0  0  0  0  0  0  0
  186.7310  177.1420  139.5990 O   0  0  0  0  0  0  0  0  0  0  0  0
  188.3700  174.9770  140.2410 N   0  0  0  0  0  2  0  0  0  0  0  0
  192.3010  173.8200  142.6260 C   0  0  0  0  0  2  0  0  0  0  0  0
  187.5350  174.7370  142.3990 O   0  0  0  0  0  1  0  0  0  0  0  0
  188.4220  175.4810  141.6150 C   0  0  1  0  0  0  0  0  0  0  0  0
  191.2090  176.7500  148.1200 S   0  0  0  0  0  0  0  0  0  0  0  0
  190.4460  172.1150  141.0060 C   0  0  0  0  0  3  0  0  0  0  0  0
  191.9550  172.3860  143.0160 C   0  0  0  0  0  2  0  0  0  0  0  0
  186.9220  177.4330  140.8080 C   0  0  0  0  0  0  0  0  0  0  0  0
  188.7070  173.6540  139.7880 C   0  0  0  0  0  0  0  0  0  0  0  0
  190.5950  171.9180  142.4920 C   0  0  1  0  0  3  0  0  0  0  0  0
  192.3350  174.6570  143.7770 O   0  0  0  0  0  0  0  0  0  0  0  0
  186.1240  178.3550  141.5150 N   0  0  0  0  0  2  0  0  0  0  0  0
  191.1550  175.9890  145.5540 C   0  0  0  0  0  0  0  0  0  0  0  0
  191.2370  175.3950  144.2400 C   0  0  0  0  0  0  0  0  0  0  0  0
  186.6400  178.5700  142.8030 N   0  0  0  0  0  2  0  0  0  0  0  0
  189.1430  176.3980  144.5250 C   0  0  1  0  0  3  0  0  0  0  0  0
  189.5570  172.8910  140.4330 C   0  0  0  0  0  0  0  0  0  0  0  0
  187.9640  174.3980  137.5540 C   0  0  0  0  0  1  0  0  0  0  0  0
  188.2430  173.2020  138.4420 C   0  0  0  0  0  3  0  0  0  0  0  0
  189.2790  172.3060  137.7890 C   0  0  0  0  0  1  0  0  0  0  0  0
  2  4  1  0  0  0  0
  4 16  1  0  0  0  0
  5  3  1  1  0  0  0
  6 25  2  0  0  0  0
  6 27  1  0  0  0  0
  7  6  1  0  0  0  0
  9 19  1  6  0  0  0
  9  5  1  0  0  0  0
 10  8  2  0  0  0  0
 10 16  1  0  0  0  0
 11 19  2  0  0  0  0
 12 15  1  0  0  0  0
 13 18  1  0  0  0  0
 13 22  1  0  0  0  0
 15  9  1  0  0  0  0
 15  7  1  0  0  0  0
 15 14  1  1  0  0  0
 17 21  1  0  0  0  0
 19 23  1  0  0  0  0
 20 12  1  0  0  0  0
 20 28  2  0  0  0  0
 21 18  1  0  0  0  0
 21  1  1  1  0  0  0
 22 25  1  0  0  0  0
 23 26  1  0  0  0  0
 24  2  2  0  0  0  0
 24 10  1  0  0  0  0
 25 24  1  0  0  0  0
 26  5  1  0  0  0  0
 27  3  1  6  0  0  0
 27  2  1  0  0  0  0
 28 17  2  0  0  0  0
 29 30  1  0  0  0  0
 30 20  1  0  0  0  0
 31 30  1  0  0  0  0
M  END
>  <MODEL>
2

>  <REMARK>
 VINA RESULT:      -8.1      2.642      5.653
  Name = 
  1 active torsions:
  status: ('A' for Active; 'I' for Inactive)
    1  A    between atoms: C_21  and  C_30
                            x       y       z     vdW  Elec       q    Type
                         _______ _______ _______ _____ _____    ______ ____

>  <TORSDO>
F 1

$$$$
=
 OpenBabel11042417153D

 31 35  0  0  1  0  0  0  0  0999 V2000
  189.3380  174.5410  146.7790 C   0  0  0  0  0  1  0  0  0  0  0  0
  186.9730  176.7520  143.2250 C   0  0  0  0  0  0  0  0  0  0  0  0
  188.4960  175.6630  141.5810 C   0  0  0  0  0  2  0  0  0  0  0  0
  185.5550  176.7910  142.7630 C   0  0  0  0  0  2  0  0  0  0  0  0
  189.2950  174.3870  141.4310 C   0  0  2  0  0  3  0  0  0  0  0  0
  189.1130  176.2670  143.9570 C   0  0  0  0  0  0  0  0  0  0  0  0
  190.5170  175.7370  144.1090 C   0  0  0  0  0  2  0  0  0  0  0  0
  186.3720  179.3340  145.4820 O   0  0  0  0  0  0  0  0  0  0  0  0
  190.7310  174.5410  141.9350 C   0  0  1  0  0  3  0  0  0  0  0  0
  186.2650  178.4980  144.5480 C   0  0  0  0  0  0  0  0  0  0  0  0
  192.5570  173.0960  141.2170 O   0  0  0  0  0  0  0  0  0  0  0  0
  192.1960  173.9900  143.8360 N   0  0  0  0  0  2  0  0  0  0  0  0
  190.4150  177.5810  146.3670 C   0  0  0  0  0  2  0  0  0  0  0  0
  189.9460  173.4030  143.9320 O   0  0  0  0  0  1  0  0  0  0  0  0
  190.8340  174.3800  143.4680 C   0  0  1  0  0  0  0  0  0  0  0  0
  184.7650  178.2320  143.6090 S   0  0  0  0  0  0  0  0  0  0  0  0
  191.7900  175.0750  147.2630 C   0  0  0  0  0  3  0  0  0  0  0  0
  190.0090  176.8300  147.6320 C   0  0  0  0  0  2  0  0  0  0  0  0
  191.3810  173.5250  141.0840 C   0  0  0  0  0  0  0  0  0  0  0  0
  192.7180  173.8070  145.1640 C   0  0  0  0  0  0  0  0  0  0  0  0
  190.3440  175.3370  147.5940 C   0  0  1  0  0  3  0  0  0  0  0  0
  189.2640  178.0370  145.6650 O   0  0  0  0  0  0  0  0  0  0  0  0
  190.5500  173.1760  140.0010 N   0  0  0  0  0  2  0  0  0  0  0  0
  187.3120  177.6030  144.1400 C   0  0  0  0  0  0  0  0  0  0  0  0
  188.6360  177.3150  144.6400 C   0  0  0  0  0  0  0  0  0  0  0  0
  189.3440  173.8920  140.0520 N   0  0  0  0  0  2  0  0  0  0  0  0
  188.0370  175.7280  143.0300 C   0  0  1  0  0  3  0  0  0  0  0  0
  192.2160  174.4300  146.2030 C   0  0  0  0  0  0  0  0  0  0  0  0
  194.1760  172.0450  144.2310 C   0  0  0  0  0  1  0  0  0  0  0  0
  193.9930  173.0520  145.3500 C   0  0  0  0  0  3  0  0  0  0  0  0
  195.1780  174.0000  145.3880 C   0  0  0  0  0  1  0  0  0  0  0  0
  2 24  2  0  0  0  0
  4  2  1  0  0  0  0
  4 16  1  0  0  0  0
  5  3  1  6  0  0  0
  5  9  1  0  0  0  0
  6  7  1  0  0  0  0
  6 25  2  0  0  0  0
  9 19  1  6  0  0  0
  9 15  1  0  0  0  0
 10  8  2  0  0  0  0
 12 20  1  0  0  0  0
 13 18  1  0  0  0  0
 15 12  1  0  0  0  0
 15 14  1  1  0  0  0
 15  7  1  0  0  0  0
 16 10  1  0  0  0  0
 17 21  1  0  0  0  0
 19 11  2  0  0  0  0
 20 30  1  0  0  0  0
 20 28  2  0  0  0  0
 21  1  1  6  0  0  0
 21 18  1  0  0  0  0
 22 13  1  0  0  0  0
 23 26  1  0  0  0  0
 23 19  1  0  0  0  0
 24 10  1  0  0  0  0
 24 25  1  0  0  0  0
 25 22  1  0  0  0  0
 26  5  1  0  0  0  0
 27  3  1  6  0  0  0
 27  2  1  0  0  0  0
 27  6  1  0  0  0  0
 28 17  2  0  0  0  0
 29 30  1  0  0  0  0
 30 31  1  0  0  0  0
M  END
>  <MODEL>
3

>  <REMARK>
 VINA RESULT:      -7.9      3.013      6.256
  Name = 
  1 active torsions:
  status: ('A' for Active; 'I' for Inactive)
    1  A    between atoms: C_21  and  C_30
                            x       y       z     vdW  Elec       q    Type
                         _______ _______ _______ _____ _____    ______ ____

>  <TORSDO>
F 1

$$$$
=
 OpenBabel11042417153D

 31 35  0  0  1  0  0  0  0  0999 V2000
  191.3250  174.6610  143.5140 C   0  0  0  0  0  1  0  0  0  0  0  0
  189.2020  173.5860  139.3360 C   0  0  0  0  0  0  0  0  0  0  0  0
  187.4420  175.2780  139.8350 C   0  0  0  0  0  2  0  0  0  0  0  0
  189.6220  173.5930  137.9040 C   0  0  0  0  0  2  0  0  0  0  0  0
  187.2910  176.5890  140.5740 C   0  0  2  0  0  3  0  0  0  0  0  0
  188.7310  173.9660  141.5690 C   0  0  0  0  0  0  0  0  0  0  0  0
  188.2370  174.5230  142.8810 C   0  0  0  0  0  2  0  0  0  0  0  0
  190.4440  170.3600  139.7480 O   0  0  0  0  0  0  0  0  0  0  0  0
  186.8320  176.3890  142.0200 C   0  0  1  0  0  3  0  0  0  0  0  0
  190.0530  171.4490  139.2540 C   0  0  0  0  0  0  0  0  0  0  0  0
  185.7290  178.1300  143.3200 O   0  0  0  0  0  0  0  0  0  0  0  0
  187.6540  176.3870  144.3410 N   0  0  0  0  0  2  0  0  0  0  0  0
  189.4380  172.0280  143.7990 C   0  0  0  0  0  2  0  0  0  0  0  0
  189.1640  176.7290  142.6040 O   0  0  0  0  0  1  0  0  0  0  0  0
  188.0030  176.0360  142.9630 C   0  0  1  0  0  0  0  0  0  0  0  0
  190.2500  171.8950  137.5320 S   0  0  0  0  0  0  0  0  0  0  0  0
  190.1640  174.1910  145.7420 C   0  0  0  0  0  3  0  0  0  0  0  0
  190.8760  172.2780  144.2480 C   0  0  0  0  0  2  0  0  0  0  0  0
  186.1420  177.6780  142.2200 C   0  0  0  0  0  0  0  0  0  0  0  0
  188.4420  176.1550  145.5220 C   0  0  0  0  0  0  0  0  0  0  0  0
  191.1380  173.7200  144.6930 C   0  0  1  0  0  3  0  0  0  0  0  0
  189.3930  171.7440  142.4060 O   0  0  0  0  0  0  0  0  0  0  0  0
  185.8840  178.3040  140.9830 N   0  0  0  0  0  2  0  0  0  0  0  0
  189.4450  172.5080  140.0100 C   0  0  0  0  0  0  0  0  0  0  0  0
  189.1860  172.7150  141.4160 C   0  0  0  0  0  0  0  0  0  0  0  0
  186.3630  177.5190  139.9230 N   0  0  0  0  0  2  0  0  0  0  0  0
  188.7880  174.6970  140.2390 C   0  0  1  0  0  3  0  0  0  0  0  0
  189.3200  175.1840  145.5960 C   0  0  0  0  0  0  0  0  0  0  0  0
  189.3370  177.6570  147.2670 C   0  0  0  0  0  1  0  0  0  0  0  0
  188.1180  176.9020  146.7740 C   0  0  0  0  0  3  0  0  0  0  0  0
  186.9730  177.8700  146.5410 C   0  0  0  0  0  1  0  0  0  0  0  0
  2 24  2  0  0  0  0
  2 27  1  0  0  0  0
  4  2  1  0  0  0  0
  5  3  1  6  0  0  0
  5  9  1  0  0  0  0
  6  7  1  0  0  0  0
  7 15  1  0  0  0  0
  9 19  1  1  0  0  0
  9 15  1  0  0  0  0
 10  8  2  0  0  0  0
 10 24  1  0  0  0  0
 12 20  1  0  0  0  0
 13 18  1  0  0  0  0
 15 14  1  6  0  0  0
 15 12  1  0  0  0  0
 16  4  1  0  0  0  0
 16 10  1  0  0  0  0
 18 21  1  0  0  0  0
 19 11  2  0  0  0  0
 20 28  2  0  0  0  0
 20 30  1  0  0  0  0
 21  1  1  6  0  0  0
 21 17  1  0  0  0  0
 22 13  1  0  0  0  0
 23 19  1  0  0  0  0
 24 25  1  0  0  0  0
 25  6  2  0  0  0  0
 25 22  1  0  0  0  0
 26  5  1  0  0  0  0
 26 23  1  0  0  0  0
 27  3  1  6  0  0  0
 27  6  1  0  0  0  0
 28 17  2  0  0  0  0
 30 29  1  0  0  0  0
 31 30  1  0  0  0  0
M  END
>  <MODEL>
4

>  <REMARK>
 VINA RESULT:      -7.7      2.107      3.051
  Name = 
  1 active torsions:
  status: ('A' for Active; 'I' for Inactive)
    1  A    between atoms: C_21  and  C_30
                            x       y       z     vdW  Elec       q    Type
                         _______ _______ _______ _____ _____    ______ ____

>  <TORSDO>
F 1

$$$$
=
 OpenBabel11042417153D

 31 35  0  0  1  0  0  0  0  0999 V2000
  192.9960  174.2720  142.9770 C   0  0  0  0  0  1  0  0  0  0  0  0
  189.6420  172.9090  139.8140 C   0  0  0  0  0  0  0  0  0  0  0  0
  188.1070  174.6350  140.7500 C   0  0  0  0  0  2  0  0  0  0  0  0
  189.5670  172.8140  138.3260 C   0  0  0  0  0  2  0  0  0  0  0  0
  188.1790  175.9950  141.4080 C   0  0  2  0  0  3  0  0  0  0  0  0
  189.9220  173.4460  142.0470 C   0  0  0  0  0  0  0  0  0  0  0  0
  189.8760  174.0940  143.4070 C   0  0  0  0  0  2  0  0  0  0  0  0
  191.0200  169.7170  140.0090 O   0  0  0  0  0  0  0  0  0  0  0  0
  188.2250  175.8980  142.9340 C   0  0  1  0  0  3  0  0  0  0  0  0
  190.4640  170.7690  139.5990 C   0  0  0  0  0  0  0  0  0  0  0  0
  187.5740  177.7270  144.4060 O   0  0  0  0  0  0  0  0  0  0  0  0
  189.7650  176.0580  144.8490 N   0  0  0  0  0  2  0  0  0  0  0  0
  191.3660  171.6690  144.0440 C   0  0  0  0  0  2  0  0  0  0  0  0
  190.6120  176.2740  142.6930 O   0  0  0  0  0  1  0  0  0  0  0  0
  189.6490  175.6100  143.4600 C   0  0  1  0  0  0  0  0  0  0  0  0
  190.0750  171.0930  137.8830 S   0  0  0  0  0  0  0  0  0  0  0  0
  192.6430  173.9620  145.4890 C   0  0  0  0  0  3  0  0  0  0  0  0
  192.8650  171.9480  143.9760 C   0  0  0  0  0  2  0  0  0  0  0  0
  187.6120  177.1990  143.2640 C   0  0  0  0  0  0  0  0  0  0  0  0
  190.9030  175.9090  145.7170 C   0  0  0  0  0  0  0  0  0  0  0  0
  193.2280  173.4160  144.2120 C   0  0  1  0  0  3  0  0  0  0  0  0
  190.8710  171.2870  142.7650 O   0  0  0  0  0  0  0  0  0  0  0  0
  186.9480  177.7360  142.1420 N   0  0  0  0  0  2  0  0  0  0  0  0
  190.1150  171.8800  140.4410 C   0  0  0  0  0  0  0  0  0  0  0  0
  190.3290  172.1870  141.8360 C   0  0  0  0  0  0  0  0  0  0  0  0
  187.0690  176.8780  141.0390 N   0  0  0  0  0  2  0  0  0  0  0  0
  189.5240  174.0810  140.7260 C   0  0  1  0  0  3  0  0  0  0  0  0
  191.7770  174.9430  145.5630 C   0  0  0  0  0  0  0  0  0  0  0  0
  189.7100  177.5270  147.1520 C   0  0  0  0  0  1  0  0  0  0  0  0
  190.9920  176.7430  146.9530 C   0  0  0  0  0  3  0  0  0  0  0  0
  191.2570  175.8740  148.1690 C   0  0  0  0  0  1  0  0  0  0  0  0
  2 24  2  0  0  0  0
  2 27  1  0  0  0  0
  4  2  1  0  0  0  0
  5  3  1  6  0  0  0
  5  9  1  0  0  0  0
  6  7  1  0  0  0  0
  7 15  1  0  0  0  0
  9 19  1  1  0  0  0
  9 15  1  0  0  0  0
 10  8  2  0  0  0  0
 10 24  1  0  0  0  0
 12 20  1  0  0  0  0
 15 14  1  6  0  0  0
 15 12  1  0  0  0  0
 16  4  1  0  0  0  0
 16 10  1  0  0  0  0
 17 28  2  0  0  0  0
 18 13  1  0  0  0  0
 18 21  1  0  0  0  0
 19 11  2  0  0  0  0
 20 30  1  0  0  0  0
 21  1  1  6  0  0  0
 21 17  1  0  0  0  0
 22 13  1  0  0  0  0
 23 19  1  0  0  0  0
 24 25  1  0  0  0  0
 25  6  2  0  0  0  0
 25 22  1  0  0  0  0
 26  5  1  0  0  0  0
 26 23  1  0  0  0  0
 27  3  1  1  0  0  0
 27  6  1  0  0  0  0
 28 20  2  0  0  0  0
 30 29  1  0  0  0  0
 30 31  1  0  0  0  0
M  END
>  <MODEL>
5

>  <REMARK>
 VINA RESULT:      -7.3      2.359      3.957
  Name = 
  1 active torsions:
  status: ('A' for Active; 'I' for Inactive)
    1  A    between atoms: C_21  and  C_30
                            x       y       z     vdW  Elec       q    Type
                         _______ _______ _______ _____ _____    ______ ____

>  <TORSDO>
F 1

$$$$
=
 OpenBabel11042417153D

 31 35  0  0  1  0  0  0  0  0999 V2000
  189.3180  172.2040  142.9900 C   0  0  0  0  0  1  0  0  0  0  0  0
  193.6540  173.0230  144.8990 C   0  0  0  0  0  0  0  0  0  0  0  0
  192.7300  175.0310  146.0490 C   0  0  0  0  0  2  0  0  0  0  0  0
  194.5950  172.2460  145.7580 C   0  0  0  0  0  2  0  0  0  0  0  0
  191.4190  175.5170  146.6290 C   0  0  2  0  0  3  0  0  0  0  0  0
  191.8970  174.1030  143.8510 C   0  0  0  0  0  0  0  0  0  0  0  0
  190.7190  174.9820  143.5120 C   0  0  0  0  0  2  0  0  0  0  0  0
  194.9870  171.5780  142.0250 O   0  0  0  0  0  0  0  0  0  0  0  0
  190.5970  176.3130  145.6130 C   0  0  1  0  0  3  0  0  0  0  0  0
  194.7930  171.9460  143.2130 C   0  0  0  0  0  0  0  0  0  0  0  0
  188.8690  177.9070  146.2540 O   0  0  0  0  0  0  0  0  0  0  0  0
  188.6550  176.1330  144.1120 N   0  0  0  0  0  2  0  0  0  0  0  0
  191.2390  173.7910  140.9010 C   0  0  0  0  0  2  0  0  0  0  0  0
  189.3160  174.2690  145.3370 O   0  0  0  0  0  1  0  0  0  0  0  0
  189.7940  175.3980  144.6630 C   0  0  1  0  0  0  0  0  0  0  0  0
  195.7400  171.3560  144.6120 S   0  0  0  0  0  0  0  0  0  0  0  0
  188.2750  173.8470  141.3330 C   0  0  0  0  0  3  0  0  0  0  0  0
  190.3590  172.5590  140.7070 C   0  0  0  0  0  2  0  0  0  0  0  0
  189.8470  177.1710  146.5500 C   0  0  0  0  0  0  0  0  0  0  0  0
  187.7050  175.6600  143.1390 C   0  0  0  0  0  0  0  0  0  0  0  0
  189.0740  172.5860  141.5390 C   0  0  1  0  0  3  0  0  0  0  0  0
  192.4580  173.4370  141.5450 O   0  0  0  0  0  0  0  0  0  0  0  0
  190.4510  177.1660  147.8240 N   0  0  0  0  0  2  0  0  0  0  0  0
  193.7500  172.8460  143.6200 C   0  0  0  0  0  0  0  0  0  0  0  0
  192.6530  173.4860  142.9320 C   0  0  0  0  0  0  0  0  0  0  0  0
  191.5850  176.3410  147.8300 N   0  0  0  0  0  2  0  0  0  0  0  0
  192.4170  173.7810  145.2410 C   0  0  1  0  0  3  0  0  0  0  0  0
  188.0060  174.7290  142.2650 C   0  0  0  0  0  0  0  0  0  0  0  0
  185.9550  176.9590  144.3000 C   0  0  0  0  0  1  0  0  0  0  0  0
  186.4090  176.3830  142.9730 C   0  0  0  0  0  3  0  0  0  0  0  0
  186.5400  177.4940  141.9470 C   0  0  0  0  0  1  0  0  0  0  0  0
  2 27  1  0  0  0  0
  2  4  1  0  0  0  0
  5  3  1  6  0  0  0
  5 26  1  0  0  0  0
  6 27  1  0  0  0  0
  7  6  1  0  0  0  0
  7 15  1  0  0  0  0
  8 10  2  0  0  0  0
  9 19  1  1  0  0  0
  9  5  1  0  0  0  0
 10 24  1  0  0  0  0
 10 16  1  0  0  0  0
 11 19  2  0  0  0  0
 12 15  1  0  0  0  0
 13 22  1  0  0  0  0
 15 14  1  1  0  0  0
 15  9  1  0  0  0  0
 16  4  1  0  0  0  0
 17 21  1  0  0  0  0
 17 28  2  0  0  0  0
 18 13  1  0  0  0  0
 18 21  1  0  0  0  0
 19 23  1  0  0  0  0
 20 12  1  0  0  0  0
 21  1  1  1  0  0  0
 22 25  1  0  0  0  0
 23 26  1  0  0  0  0
 24  2  2  0  0  0  0
 25 24  1  0  0  0  0
 25  6  2  0  0  0  0
 27  3  1  1  0  0  0
 28 20  2  0  0  0  0
 30 20  1  0  0  0  0
 30 29  1  0  0  0  0
 31 30  1  0  0  0  0
M  END
>  <MODEL>
6

>  <REMARK>
 VINA RESULT:      -7.3      2.593      5.351
  Name = 
  1 active torsions:
  status: ('A' for Active; 'I' for Inactive)
    1  A    between atoms: C_21  and  C_30
                            x       y       z     vdW  Elec       q    Type
                         _______ _______ _______ _____ _____    ______ ____

>  <TORSDO>
F 1

$$$$
=
 OpenBabel11042417153D

 31 35  0  0  1  0  0  0  0  0999 V2000
  193.1640  177.2040  144.6310 C   0  0  0  0  0  1  0  0  0  0  0  0
  194.9380  174.6480  140.9660 C   0  0  0  0  0  0  0  0  0  0  0  0
  192.6580  173.7390  140.5410 C   0  0  0  0  0  2  0  0  0  0  0  0
  195.6750  174.9730  139.7090 C   0  0  0  0  0  2  0  0  0  0  0  0
  191.2120  174.1590  140.6870 C   0  0  2  0  0  3  0  0  0  0  0  0
  193.5360  174.4670  142.7970 C   0  0  0  0  0  0  0  0  0  0  0  0
  192.3520  174.2960  143.7160 C   0  0  0  0  0  2  0  0  0  0  0  0
  197.9240  174.5070  142.7530 O   0  0  0  0  0  0  0  0  0  0  0  0
  190.6150  173.7220  142.0260 C   0  0  1  0  0  3  0  0  0  0  0  0
  197.0710  174.5650  141.8290 C   0  0  0  0  0  0  0  0  0  0  0  0
  188.2200  173.4680  142.3980 O   0  0  0  0  0  0  0  0  0  0  0  0
  189.9890  174.5750  144.2500 N   0  0  0  0  0  2  0  0  0  0  0  0
  194.5090  174.4340  145.6750 C   0  0  0  0  0  2  0  0  0  0  0  0
  190.9890  176.0180  142.7230 O   0  0  0  0  0  1  0  0  0  0  0  0
  190.9740  174.6930  143.1730 C   0  0  1  0  0  0  0  0  0  0  0  0
  197.4760  174.8490  140.1090 S   0  0  0  0  0  0  0  0  0  0  0  0
  192.2040  176.0510  146.7000 C   0  0  0  0  0  3  0  0  0  0  0  0
  194.6700  175.8690  146.1700 C   0  0  0  0  0  2  0  0  0  0  0  0
  189.2000  173.6170  141.6220 C   0  0  0  0  0  0  0  0  0  0  0  0
  190.0040  175.2550  145.5180 C   0  0  0  0  0  0  0  0  0  0  0  0
  193.3940  176.7070  146.0490 C   0  0  1  0  0  3  0  0  0  0  0  0
  195.2930  174.2180  144.5070 O   0  0  0  0  0  0  0  0  0  0  0  0
  189.0840  173.5770  140.2170 N   0  0  0  0  0  2  0  0  0  0  0  0
  195.6520  174.4670  142.0310 C   0  0  0  0  0  0  0  0  0  0  0  0
  194.8100  174.3750  143.2000 C   0  0  0  0  0  0  0  0  0  0  0  0
  190.3490  173.6540  139.6150 N   0  0  0  0  0  2  0  0  0  0  0  0
  193.4920  174.7550  141.3060 C   0  0  1  0  0  3  0  0  0  0  0  0
  191.1160  175.6710  146.0740 C   0  0  0  0  0  0  0  0  0  0  0  0
  188.9320  174.5550  147.6300 C   0  0  0  0  0  1  0  0  0  0  0  0
  188.7510  175.3120  146.3290 C   0  0  0  0  0  3  0  0  0  0  0  0
  188.3660  176.7510  146.6210 C   0  0  0  0  0  1  0  0  0  0  0  0
  2 27  1  0  0  0  0
  2 24  2  0  0  0  0
  4 16  1  0  0  0  0
  4  2  1  0  0  0  0
  5  3  1  6  0  0  0
  5  9  1  0  0  0  0
  6 25  2  0  0  0  0
  6  7  1  0  0  0  0
  9 19  1  6  0  0  0
  9 15  1  0  0  0  0
 10 24  1  0  0  0  0
 10  8  2  0  0  0  0
 12 20  1  0  0  0  0
 13 18  1  0  0  0  0
 15 14  1  6  0  0  0
 15  7  1  0  0  0  0
 15 12  1  0  0  0  0
 16 10  1  0  0  0  0
 19 11  2  0  0  0  0
 20 28  2  0  0  0  0
 20 30  1  0  0  0  0
 21  1  1  6  0  0  0
 21 18  1  0  0  0  0
 21 17  1  0  0  0  0
 22 13  1  0  0  0  0
 23 19  1  0  0  0  0
 24 25  1  0  0  0  0
 25 22  1  0  0  0  0
 26 23  1  0  0  0  0
 26  5  1  0  0  0  0
 27  3  1  6  0  0  0
 27  6  1  0  0  0  0
 28 17  2  0  0  0  0
 30 31  1  0  0  0  0
 30 29  1  0  0  0  0
M  END
>  <MODEL>
7

>  <REMARK>
 VINA RESULT:      -7.0      3.315      4.766
  Name = 
  1 active torsions:
  status: ('A' for Active; 'I' for Inactive)
    1  A    between atoms: C_21  and  C_30
                            x       y       z     vdW  Elec       q    Type
                         _______ _______ _______ _____ _____    ______ ____

>  <TORSDO>
F 1

$$$$
=
 OpenBabel11042417153D

 31 35  0  0  1  0  0  0  0  0999 V2000
  190.8380  177.8090  144.6470 C   0  0  0  0  0  1  0  0  0  0  0  0
  194.1500  174.6060  143.2760 C   0  0  0  0  0  0  0  0  0  0  0  0
  192.5000  173.6310  141.6840 C   0  0  0  0  0  2  0  0  0  0  0  0
  195.5270  174.6870  142.7040 C   0  0  0  0  0  2  0  0  0  0  0  0
  191.3180  174.0710  140.8480 C   0  0  2  0  0  3  0  0  0  0  0  0
  191.9190  174.7740  143.8630 C   0  0  0  0  0  0  0  0  0  0  0  0
  190.4110  174.7800  143.8760 C   0  0  0  0  0  2  0  0  0  0  0  0
  195.4170  174.8070  146.5130 O   0  0  0  0  0  0  0  0  0  0  0  0
  189.9890  173.8960  141.5860 C   0  0  1  0  0  3  0  0  0  0  0  0
  195.3070  174.6880  145.2650 C   0  0  0  0  0  0  0  0  0  0  0  0
  187.8440  173.7160  140.4450 O   0  0  0  0  0  0  0  0  0  0  0  0
  188.2550  175.1540  142.8000 N   0  0  0  0  0  2  0  0  0  0  0  0
  190.9520  175.2870  146.6970 C   0  0  0  0  0  2  0  0  0  0  0  0
  190.1320  176.2820  142.0130 O   0  0  0  0  0  1  0  0  0  0  0  0
  189.6950  175.0660  142.5500 C   0  0  1  0  0  0  0  0  0  0  0  0
  196.6950  174.6420  144.1370 S   0  0  0  0  0  0  0  0  0  0  0  0
  188.7010  177.0680  145.8370 C   0  0  0  0  0  3  0  0  0  0  0  0
  190.9470  176.7900  146.9650 C   0  0  0  0  0  2  0  0  0  0  0  0
  189.1030  173.7150  140.4210 C   0  0  0  0  0  0  0  0  0  0  0  0
  187.5820  176.0620  143.6910 C   0  0  0  0  0  0  0  0  0  0  0  0
  190.1090  177.5890  145.9630 C   0  0  1  0  0  3  0  0  0  0  0  0
  192.2490  174.8540  146.3050 O   0  0  0  0  0  0  0  0  0  0  0  0
  189.8530  173.4100  139.2660 N   0  0  0  0  0  2  0  0  0  0  0  0
  194.0530  174.6290  144.5660 C   0  0  0  0  0  0  0  0  0  0  0  0
  192.6730  174.7600  144.9710 C   0  0  0  0  0  0  0  0  0  0  0  0
  191.2230  173.3730  139.5630 N   0  0  0  0  0  2  0  0  0  0  0  0
  192.8150  174.7740  142.6370 C   0  0  1  0  0  3  0  0  0  0  0  0
  188.1740  176.5760  144.7410 C   0  0  0  0  0  0  0  0  0  0  0  0
  185.5380  176.8860  144.8060 C   0  0  0  0  0  1  0  0  0  0  0  0
  186.1110  176.2710  143.5440 C   0  0  0  0  0  3  0  0  0  0  0  0
  185.8120  177.1660  142.3550 C   0  0  0  0  0  1  0  0  0  0  0  0
  2 24  2  0  0  0  0
  4  2  1  0  0  0  0
  4 16  1  0  0  0  0
  5  9  1  0  0  0  0
  5  3  1  1  0  0  0
  6  7  1  0  0  0  0
  6 25  2  0  0  0  0
  9 19  1  6  0  0  0
  9 15  1  0  0  0  0
 10  8  2  0  0  0  0
 12 20  1  0  0  0  0
 13 18  1  0  0  0  0
 15 14  1  6  0  0  0
 15 12  1  0  0  0  0
 15  7  1  0  0  0  0
 16 10  1  0  0  0  0
 17 21  1  0  0  0  0
 19 11  2  0  0  0  0
 20 28  2  0  0  0  0
 21  1  1  6  0  0  0
 21 18  1  0  0  0  0
 22 13  1  0  0  0  0
 23 26  1  0  0  0  0
 23 19  1  0  0  0  0
 24 25  1  0  0  0  0
 24 10  1  0  0  0  0
 25 22  1  0  0  0  0
 26  5  1  0  0  0  0
 27  3  1  6  0  0  0
 27  2  1  0  0  0  0
 27  6  1  0  0  0  0
 28 17  2  0  0  0  0
 30 20  1  0  0  0  0
 30 29  1  0  0  0  0
 31 30  1  0  0  0  0
M  END
>  <MODEL>
8

>  <REMARK>
 VINA RESULT:      -7.0      2.809      3.786
  Name = 
  1 active torsions:
  status: ('A' for Active; 'I' for Inactive)
    1  A    between atoms: C_21  and  C_30
                            x       y       z     vdW  Elec       q    Type
                         _______ _______ _______ _____ _____    ______ ____

>  <TORSDO>
F 1

$$$$
=
 OpenBabel11042417153D

 31 35  0  0  1  0  0  0  0  0999 V2000
  192.3950  174.9950  146.3190 C   0  0  0  0  0  1  0  0  0  0  0  0
  189.4090  174.6890  142.5640 C   0  0  0  0  0  0  0  0  0  0  0  0
  190.4530  172.5110  141.9540 C   0  0  0  0  0  2  0  0  0  0  0  0
  187.9260  174.6890  142.3900 C   0  0  0  0  0  2  0  0  0  0  0  0
  191.1250  171.3350  142.6280 C   0  0  2  0  0  3  0  0  0  0  0  0
  191.6290  174.4050  143.1470 C   0  0  0  0  0  0  0  0  0  0  0  0
  192.9990  173.8480  143.4430 C   0  0  0  0  0  2  0  0  0  0  0  0
  189.4810  178.1690  142.4600 O   0  0  0  0  0  0  0  0  0  0  0  0
  192.6450  171.4980  142.6970 C   0  0  1  0  0  3  0  0  0  0  0  0
  189.1180  176.9660  142.3880 C   0  0  0  0  0  0  0  0  0  0  0  0
  194.1770  169.6210  142.9540 O   0  0  0  0  0  0  0  0  0  0  0  0
  194.4720  172.0770  144.2430 N   0  0  0  0  0  2  0  0  0  0  0  0
  193.5160  176.6980  143.7870 C   0  0  0  0  0  2  0  0  0  0  0  0
  192.2750  172.1610  145.0040 O   0  0  0  0  0  1  0  0  0  0  0  0
  193.0860  172.3820  143.8850 C   0  0  1  0  0  0  0  0  0  0  0  0
  187.4310  176.4460  142.0950 S   0  0  0  0  0  0  0  0  0  0  0  0
  194.9190  175.2180  145.9820 C   0  0  0  0  0  3  0  0  0  0  0  0
  193.3680  177.0790  145.2570 C   0  0  0  0  0  2  0  0  0  0  0  0
  193.0270  170.0730  142.7120 C   0  0  0  0  0  0  0  0  0  0  0  0
  195.2720  172.7260  145.2480 C   0  0  0  0  0  0  0  0  0  0  0  0
  193.6030  175.9130  146.2200 C   0  0  1  0  0  3  0  0  0  0  0  0
  192.2630  176.7860  143.1190 O   0  0  0  0  0  0  0  0  0  0  0  0
  191.9530  169.2640  142.2890 N   0  0  0  0  0  2  0  0  0  0  0  0
  189.9930  175.8440  142.5830 C   0  0  0  0  0  0  0  0  0  0  0  0
  191.3780  175.7090  142.9700 C   0  0  0  0  0  0  0  0  0  0  0  0
  190.8320  170.0510  141.9830 N   0  0  0  0  0  2  0  0  0  0  0  0
  190.3420  173.6120  142.9980 C   0  0  1  0  0  3  0  0  0  0  0  0
  195.0550  173.9650  145.6200 C   0  0  0  0  0  0  0  0  0  0  0  0
  196.2130  170.6240  146.1390 C   0  0  0  0  0  1  0  0  0  0  0  0
  196.5130  172.0550  145.7390 C   0  0  0  0  0  3  0  0  0  0  0  0
  197.5930  172.0760  144.6730 C   0  0  0  0  0  1  0  0  0  0  0  0
  2 24  2  0  0  0  0
  2 27  1  0  0  0  0
  4  2  1  0  0  0  0
  5  3  1  6  0  0  0
  5  9  1  0  0  0  0
  6  7  1  0  0  0  0
  7 15  1  0  0  0  0
  9 19  1  1  0  0  0
  9 15  1  0  0  0  0
 10  8  2  0  0  0  0
 10 24  1  0  0  0  0
 12 20  1  0  0  0  0
 13 18  1  0  0  0  0
 15 12  1  0  0  0  0
 15 14  1  1  0  0  0
 16 10  1  0  0  0  0
 16  4  1  0  0  0  0
 17 21  1  0  0  0  0
 18 21  1  0  0  0  0
 19 11  2  0  0  0  0
 20 28  2  0  0  0  0
 20 30  1  0  0  0  0
 21  1  1  6  0  0  0
 22 13  1  0  0  0  0
 23 19  1  0  0  0  0
 24 25  1  0  0  0  0
 25 22  1  0  0  0  0
 25  6  2  0  0  0  0
 26 23  1  0  0  0  0
 26  5  1  0  0  0  0
 27  3  1  6  0  0  0
 27  6  1  0  0  0  0
 28 17  2  0  0  0  0
 30 29  1  0  0  0  0
 31 30  1  0  0  0  0
M  END
>  <MODEL>
9

>  <REMARK>
 VINA RESULT:      -6.9      4.255      7.717
  Name = 
  1 active torsions:
  status: ('A' for Active; 'I' for Inactive)
    1  A    between atoms: C_21  and  C_30
                            x       y       z     vdW  Elec       q    Type
                         _______ _______ _______ _____ _____    ______ ____

>  <TORSDO>
F 1

$$$$
