=
 OpenBabel11042417483D

 25 27  0  0  0  0  0  0  0  0999 V2000
  188.1160  177.1940  147.2280 C   0  0  0  0  0  3  0  0  0  0  0  0
  188.7960  176.8150  143.7510 C   0  0  0  0  0  0  0  0  0  0  0  0
  190.0100  176.8040  145.7330 C   0  0  0  0  0  0  0  0  0  0  0  0
  185.9740  177.4170  146.0620 C   0  0  0  0  0  0  0  0  0  0  0  0
  191.1750  176.7090  146.6720 C   0  0  0  0  0  3  0  0  0  0  0  0
  192.4680  176.4460  145.9170 C   0  0  0  0  0  0  0  0  0  0  0  0
  190.1460  176.6720  144.3020 C   0  0  0  0  0  0  0  0  0  0  0  0
  188.7260  177.0060  145.9900 C   0  0  0  0  0  0  0  0  0  0  0  0
  186.7290  177.4000  147.2570 C   0  0  0  0  0  3  0  0  0  0  0  0
  193.6440  176.3280  146.6440 O   0  0  0  0  0  1  0  0  0  0  0  0
  187.9930  177.0140  144.8050 C   0  0  0  0  0  0  0  0  0  0  0  0
  186.6120  177.2250  144.8260 C   0  0  0  0  0  3  0  0  0  0  0  0
  191.3160  176.4360  143.7180 C   0  0  0  0  0  2  0  0  0  0  0  0
  192.5190  176.3240  144.5750 C   0  0  0  0  0  3  0  0  0  0  0  0
  188.2490  175.4790  141.7280 C   0  0  0  0  0  3  0  0  0  0  0  0
  187.9080  175.3900  140.5180 O   0  0  0  0  0  0  0  0  0  0  0  0
  188.4150  176.7530  142.3600 N   0  0  0  0  0  0  0  0  0  0  0  0
  188.1410  177.9700  141.5970 C   0  0  0  0  0  2  0  0  0  0  0  0
  186.7250  178.4610  141.8600 C   0  0  0  0  0  2  0  0  0  0  0  0
  185.8260  178.1540  140.6770 C   0  0  0  0  0  2  0  0  0  0  0  0
  184.0740  177.9410  142.4350 O   0  0  0  0  0  1  0  0  0  0  0  0
  184.4020  178.1710  141.1060 C   0  0  0  0  0  0  0  0  0  0  0  0
  183.4960  178.4240  140.2710 O   0  0  0  0  0  0  0  0  0  0  0  0
  184.5240  177.6330  146.0840 C   0  0  0  0  0  3  0  0  0  0  0  0
  184.0090  178.7820  145.7920 N   0  0  0  0  0  2  0  0  0  0  0  0
  1  9  1  0  0  0  0
  2  7  2  0  0  0  0
  2 11  1  0  0  0  0
  3  8  1  0  0  0  0
  3  5  2  0  0  0  0
  4 24  1  0  0  0  0
  4  9  2  0  0  0  0
  6 10  1  0  0  0  0
  6  5  1  0  0  0  0
  7  3  1  0  0  0  0
  8  1  2  0  0  0  0
 11 12  2  0  0  0  0
 11  8  1  0  0  0  0
 12  4  1  0  0  0  0
 13  7  1  0  0  0  0
 13 14  1  0  0  0  0
 14  6  2  0  0  0  0
 15 17  1  0  0  0  0
 16 15  2  0  0  0  0
 17  2  1  0  0  0  0
 18 19  1  0  0  0  0
 18 17  1  0  0  0  0
 20 22  1  0  0  0  0
 20 19  1  0  0  0  0
 22 21  1  0  0  0  0
 23 22  2  0  0  0  0
 25 24  2  0  0  0  0
M  END
>  <MODEL>
1

>  <REMARK>
 VINA RESULT:      -6.8      0.000      0.000
  Name = 
  6 active torsions:
  status: ('A' for Active; 'I' for Inactive)
    1  A    between atoms: C_2  and  N_15
    2  A    between atoms: C_4  and  C_17
    3  A    between atoms: C_8  and  C_25
    4  A    between atoms: C_14  and  N_15
    5  A    between atoms: C_14  and  C_19
    6  A    between atoms: C_19  and  C_25
                            x       y       z     vdW  Elec       q    Type
                         _______ _______ _______ _____ _____    ______ ____

>  <TORSDO>
F 6

$$$$
=
 OpenBabel11042417483D

 25 27  0  0  1  0  0  0  0  0999 V2000
  184.9430  178.0590  142.3380 C   0  0  0  0  0  3  0  0  0  0  0  0
  188.1240  177.3140  143.7620 C   0  0  0  0  0  0  0  0  0  0  0  0
  186.0120  177.9090  144.5300 C   0  0  0  0  0  0  0  0  0  0  0  0
  186.4550  177.5720  140.4740 C   0  0  0  0  0  0  0  0  0  0  0  0
  184.9000  178.2470  145.4780 C   0  0  0  0  0  3  0  0  0  0  0  0
  185.3730  178.1900  146.9220 C   0  0  0  0  0  0  0  0  0  0  0  0
  187.3480  177.5900  144.9740 C   0  0  1  0  0  3  0  0  0  0  0  0
  186.0070  177.8320  143.2080 C   0  0  0  0  0  0  0  0  0  0  0  0
  185.1760  177.9260  140.9600 C   0  0  0  0  0  3  0  0  0  0  0  0
  184.4600  178.4740  147.9280 O   0  0  0  0  0  1  0  0  0  0  0  0
  187.2710  177.4760  142.7410 C   0  0  0  0  0  0  0  0  0  0  0  0
  187.5110  177.3480  141.3710 C   0  0  0  0  0  3  0  0  0  0  0  0
  187.6800  177.5560  146.2600 C   0  0  0  0  0  3  0  0  0  0  0  0
  186.6390  177.8740  147.2640 C   0  0  0  0  0  3  0  0  0  0  0  0
  190.5230  177.9160  143.9980 C   0  0  0  0  0  3  0  0  0  0  0  0
  191.7480  177.6230  143.9520 O   0  0  0  0  0  0  0  0  0  0  0  0
  189.5170  176.9450  143.6890 N   0  0  0  0  0  0  0  0  0  0  0  0
  189.9200  175.5780  143.3590 C   0  0  0  0  0  2  0  0  0  0  0  0
  189.3320  174.5900  144.3550 C   0  0  0  0  0  2  0  0  0  0  0  0
  190.3600  174.2200  145.4080 C   0  0  0  0  0  2  0  0  0  0  0  0
  188.9880  174.4410  147.4760 O   0  0  0  0  0  1  0  0  0  0  0  0
  190.0370  174.9000  146.6900 C   0  0  0  0  0  0  0  0  0  0  0  0
  190.7330  175.8730  147.0790 O   0  0  0  0  0  0  0  0  0  0  0  0
  186.7070  177.4320  139.0350 C   0  0  0  0  0  3  0  0  0  0  0  0
  186.7010  176.2750  138.4590 N   0  0  0  0  0  2  0  0  0  0  0  0
  1  8  1  0  0  0  0
  2  7  1  0  0  0  0
  3  7  1  0  0  0  0
  3  5  1  0  0  0  0
  4  9  1  0  0  0  0
  4 12  2  0  0  0  0
  5  6  2  0  0  0  0
  6 14  1  0  0  0  0
  6 10  1  0  0  0  0
  7 13  1  1  0  0  0
  8  3  2  0  0  0  0
  9  1  2  0  0  0  0
 11  8  1  0  0  0  0
 11  2  2  0  0  0  0
 12 11  1  0  0  0  0
 13 14  2  0  0  0  0
 16 15  2  0  0  0  0
 17  2  1  0  0  0  0
 17 15  1  0  0  0  0
 18 17  1  0  0  0  0
 18 19  1  0  0  0  0
 19 20  1  0  0  0  0
 20 22  1  0  0  0  0
 22 23  2  0  0  0  0
 22 21  1  0  0  0  0
 24  4  1  0  0  0  0
 25 24  2  0  0  0  0
M  END
>  <MODEL>
2

>  <REMARK>
 VINA RESULT:      -6.8      2.947      6.118
  Name = 
  6 active torsions:
  status: ('A' for Active; 'I' for Inactive)
    1  A    between atoms: C_2  and  N_15
    2  A    between atoms: C_4  and  C_17
    3  A    between atoms: C_8  and  C_25
    4  A    between atoms: C_14  and  N_15
    5  A    between atoms: C_14  and  C_19
    6  A    between atoms: C_19  and  C_25
                            x       y       z     vdW  Elec       q    Type
                         _______ _______ _______ _____ _____    ______ ____

>  <TORSDO>
F 6

$$$$
=
 OpenBabel11042417483D

 25 27  0  0  0  0  0  0  0  0999 V2000
  188.4730  177.2350  146.8090 C   0  0  0  0  0  3  0  0  0  0  0  0
  188.5970  176.8400  143.2700 C   0  0  0  0  0  0  0  0  0  0  0  0
  190.1190  176.9650  145.0230 C   0  0  0  0  0  0  0  0  0  0  0  0
  186.1570  177.2680  146.0140 C   0  0  0  0  0  0  0  0  0  0  0  0
  191.4260  176.9790  145.7550 C   0  0  0  0  0  3  0  0  0  0  0  0
  192.5940  176.8030  144.7980 C   0  0  0  0  0  0  0  0  0  0  0  0
  190.0260  176.8140  143.5890 C   0  0  0  0  0  0  0  0  0  0  0  0
  188.8820  177.0710  145.4880 C   0  0  0  0  0  0  0  0  0  0  0  0
  187.0970  177.3340  147.0670 C   0  0  0  0  0  3  0  0  0  0  0  0
  193.8800  176.7910  145.3190 O   0  0  0  0  0  1  0  0  0  0  0  0
  187.9660  176.9980  144.4410 C   0  0  0  0  0  0  0  0  0  0  0  0
  186.5950  177.1010  144.6900 C   0  0  0  0  0  3  0  0  0  0  0  0
  191.0990  176.6590  142.8210 C   0  0  0  0  0  2  0  0  0  0  0  0
  192.4320  176.6580  143.4660 C   0  0  0  0  0  3  0  0  0  0  0  0
  187.3470  177.8550  141.3760 C   0  0  0  0  0  3  0  0  0  0  0  0
  186.8220  177.7870  140.2320 O   0  0  0  0  0  0  0  0  0  0  0  0
  187.9980  176.7210  141.9620 N   0  0  0  0  0  0  0  0  0  0  0  0
  188.0930  175.4780  141.1980 C   0  0  0  0  0  2  0  0  0  0  0  0
  188.0300  174.2730  142.1230 C   0  0  0  0  0  2  0  0  0  0  0  0
  189.3080  173.4600  142.0280 C   0  0  0  0  0  2  0  0  0  0  0  0
  190.5810  173.4510  144.1700 O   0  0  0  0  0  1  0  0  0  0  0  0
  189.6260  172.8620  143.3520 C   0  0  0  0  0  0  0  0  0  0  0  0
  189.0090  171.8390  143.7450 O   0  0  0  0  0  0  0  0  0  0  0  0
  184.7170  177.3710  146.2750 C   0  0  0  0  0  3  0  0  0  0  0  0
  184.0770  178.4800  146.0970 N   0  0  0  0  0  2  0  0  0  0  0  0
  1  9  1  0  0  0  0
  2  7  2  0  0  0  0
  2 11  1  0  0  0  0
  3  8  1  0  0  0  0
  3  5  2  0  0  0  0
  4 24  1  0  0  0  0
  4  9  2  0  0  0  0
  6 10  1  0  0  0  0
  6  5  1  0  0  0  0
  7  3  1  0  0  0  0
  8  1  2  0  0  0  0
 11 12  2  0  0  0  0
 11  8  1  0  0  0  0
 12  4  1  0  0  0  0
 13 14  1  0  0  0  0
 13  7  1  0  0  0  0
 14  6  2  0  0  0  0
 15 17  1  0  0  0  0
 16 15  2  0  0  0  0
 17  2  1  0  0  0  0
 18 17  1  0  0  0  0
 18 19  1  0  0  0  0
 20 19  1  0  0  0  0
 20 22  1  0  0  0  0
 22 23  2  0  0  0  0
 22 21  1  0  0  0  0
 25 24  2  0  0  0  0
M  END
>  <MODEL>
3

>  <REMARK>
 VINA RESULT:      -6.8      1.821      3.445
  Name = 
  6 active torsions:
  status: ('A' for Active; 'I' for Inactive)
    1  A    between atoms: C_2  and  N_15
    2  A    between atoms: C_4  and  C_17
    3  A    between atoms: C_8  and  C_25
    4  A    between atoms: C_14  and  N_15
    5  A    between atoms: C_14  and  C_19
    6  A    between atoms: C_19  and  C_25
                            x       y       z     vdW  Elec       q    Type
                         _______ _______ _______ _____ _____    ______ ____

>  <TORSDO>
F 6

$$$$
=
 OpenBabel11042417483D

 25 27  0  0  1  0  0  0  0  0999 V2000
  184.9690  178.0600  141.9630 C   0  0  0  0  0  3  0  0  0  0  0  0
  187.8430  176.5690  143.4530 C   0  0  0  0  0  0  0  0  0  0  0  0
  185.8830  177.5880  144.1800 C   0  0  0  0  0  0  0  0  0  0  0  0
  186.4140  177.3240  140.1280 C   0  0  0  0  0  0  0  0  0  0  0  0
  184.8350  178.1260  145.1060 C   0  0  0  0  0  3  0  0  0  0  0  0
  185.2210  177.9070  146.5600 C   0  0  0  0  0  0  0  0  0  0  0  0
  187.0960  176.9620  144.6510 C   0  0  1  0  0  3  0  0  0  0  0  0
  185.9190  177.5670  142.8560 C   0  0  0  0  0  0  0  0  0  0  0  0
  185.2250  177.9330  140.5890 C   0  0  0  0  0  3  0  0  0  0  0  0
  184.3510  178.3480  147.5480 O   0  0  0  0  0  1  0  0  0  0  0  0
  187.0910  176.9580  142.4140 C   0  0  0  0  0  0  0  0  0  0  0  0
  187.3560  176.8340  141.0480 C   0  0  0  0  0  3  0  0  0  0  0  0
  187.3570  176.8030  145.9450 C   0  0  0  0  0  3  0  0  0  0  0  0
  186.3700  177.3050  146.9280 C   0  0  0  0  0  3  0  0  0  0  0  0
  189.1800  174.4750  143.5190 C   0  0  0  0  0  3  0  0  0  0  0  0
  190.2790  173.8620  143.4740 O   0  0  0  0  0  0  0  0  0  0  0  0
  189.1220  175.9020  143.4080 N   0  0  0  0  0  0  0  0  0  0  0  0
  190.3580  176.6530  143.1930 C   0  0  0  0  0  2  0  0  0  0  0  0
  190.7060  177.4790  144.4220 C   0  0  0  0  0  2  0  0  0  0  0  0
  191.6730  176.7250  145.3150 C   0  0  0  0  0  2  0  0  0  0  0  0
  190.4410  177.1430  147.4400 O   0  0  0  0  0  1  0  0  0  0  0  0
  190.9650  176.2370  146.5280 C   0  0  0  0  0  0  0  0  0  0  0  0
  190.8130  175.0020  146.7130 O   0  0  0  0  0  0  0  0  0  0  0  0
  186.6900  177.1890  138.6940 C   0  0  0  0  0  3  0  0  0  0  0  0
  186.8400  176.0300  138.1420 N   0  0  0  0  0  2  0  0  0  0  0  0
  1  8  1  0  0  0  0
  2  7  1  0  0  0  0
  3  7  1  0  0  0  0
  3  5  1  0  0  0  0
  4  9  1  0  0  0  0
  4 12  2  0  0  0  0
  5  6  2  0  0  0  0
  6 14  1  0  0  0  0
  6 10  1  0  0  0  0
  7 13  1  1  0  0  0
  8  3  2  0  0  0  0
  9  1  2  0  0  0  0
 11  8  1  0  0  0  0
 11  2  2  0  0  0  0
 12 11  1  0  0  0  0
 13 14  2  0  0  0  0
 16 15  2  0  0  0  0
 17  2  1  0  0  0  0
 17 15  1  0  0  0  0
 18 17  1  0  0  0  0
 18 19  1  0  0  0  0
 19 20  1  0  0  0  0
 20 22  1  0  0  0  0
 22 23  2  0  0  0  0
 22 21  1  0  0  0  0
 24  4  1  0  0  0  0
 25 24  2  0  0  0  0
M  END
>  <MODEL>
4

>  <REMARK>
 VINA RESULT:      -6.8      2.634      6.146
  Name = 
  6 active torsions:
  status: ('A' for Active; 'I' for Inactive)
    1  A    between atoms: C_2  and  N_15
    2  A    between atoms: C_4  and  C_17
    3  A    between atoms: C_8  and  C_25
    4  A    between atoms: C_14  and  N_15
    5  A    between atoms: C_14  and  C_19
    6  A    between atoms: C_19  and  C_25
                            x       y       z     vdW  Elec       q    Type
                         _______ _______ _______ _____ _____    ______ ____

>  <TORSDO>
F 6

$$$$
=
 OpenBabel11042417483D

 25 27  0  0  0  0  0  0  0  0999 V2000
  189.9710  177.1580  147.6660 C   0  0  0  0  0  3  0  0  0  0  0  0
  188.6920  176.2760  144.4590 C   0  0  0  0  0  0  0  0  0  0  0  0
  187.8610  177.1760  146.4350 C   0  0  0  0  0  0  0  0  0  0  0  0
  191.8510  176.2600  146.3800 C   0  0  0  0  0  0  0  0  0  0  0  0
  186.8920  177.7550  147.4210 C   0  0  0  0  0  3  0  0  0  0  0  0
  185.4990  177.8650  146.8230 C   0  0  0  0  0  0  0  0  0  0  0  0
  187.4740  176.7750  145.1020 C   0  0  0  0  0  0  0  0  0  0  0  0
  189.1580  176.9360  146.5570 C   0  0  0  0  0  0  0  0  0  0  0  0
  191.3280  176.8150  147.5690 C   0  0  0  0  0  3  0  0  0  0  0  0
  184.4810  178.3870  147.6090 O   0  0  0  0  0  1  0  0  0  0  0  0
  189.6620  176.3950  145.3770 C   0  0  0  0  0  0  0  0  0  0  0  0
  191.0110  176.0460  145.2750 C   0  0  0  0  0  3  0  0  0  0  0  0
  186.2310  176.9090  144.6520 C   0  0  0  0  0  2  0  0  0  0  0  0
  185.2110  177.4770  145.5640 C   0  0  0  0  0  3  0  0  0  0  0  0
  188.4220  174.4150  142.8340 C   0  0  0  0  0  3  0  0  0  0  0  0
  188.5090  173.9400  141.6700 O   0  0  0  0  0  0  0  0  0  0  0  0
  188.8170  175.7630  143.1160 N   0  0  0  0  0  0  0  0  0  0  0  0
  189.2860  176.6140  142.0230 C   0  0  0  0  0  2  0  0  0  0  0  0
  188.3160  177.7600  141.7790 C   0  0  0  0  0  2  0  0  0  0  0  0
  187.2560  177.3560  140.7710 C   0  0  0  0  0  2  0  0  0  0  0  0
  185.9280  178.9960  142.0940 O   0  0  0  0  0  1  0  0  0  0  0  0
  185.9880  178.0780  141.0550 C   0  0  0  0  0  0  0  0  0  0  0  0
  184.9760  177.8790  140.3340 O   0  0  0  0  0  0  0  0  0  0  0  0
  193.2680  175.8980  146.2710 C   0  0  0  0  0  3  0  0  0  0  0  0
  194.2040  176.7280  146.5970 N   0  0  0  0  0  2  0  0  0  0  0  0
  2  7  2  0  0  0  0
  2 11  1  0  0  0  0
  3  8  1  0  0  0  0
  3  5  2  0  0  0  0
  4  9  2  0  0  0  0
  6  5  1  0  0  0  0
  6 10  1  0  0  0  0
  7  3  1  0  0  0  0
  8  1  2  0  0  0  0
  9  1  1  0  0  0  0
 11  8  1  0  0  0  0
 12 11  2  0  0  0  0
 12  4  1  0  0  0  0
 13  7  1  0  0  0  0
 13 14  1  0  0  0  0
 14  6  2  0  0  0  0
 15 17  1  0  0  0  0
 16 15  2  0  0  0  0
 17  2  1  0  0  0  0
 18 17  1  0  0  0  0
 19 18  1  0  0  0  0
 20 22  1  0  0  0  0
 20 19  1  0  0  0  0
 22 21  1  0  0  0  0
 23 22  2  0  0  0  0
 24  4  1  0  0  0  0
 24 25  2  0  0  0  0
M  END
>  <MODEL>
5

>  <REMARK>
 VINA RESULT:      -6.7      2.268      4.725
  Name = 
  6 active torsions:
  status: ('A' for Active; 'I' for Inactive)
    1  A    between atoms: C_2  and  N_15
    2  A    between atoms: C_4  and  C_17
    3  A    between atoms: C_8  and  C_25
    4  A    between atoms: C_14  and  N_15
    5  A    between atoms: C_14  and  C_19
    6  A    between atoms: C_19  and  C_25
                            x       y       z     vdW  Elec       q    Type
                         _______ _______ _______ _____ _____    ______ ____

>  <TORSDO>
F 6

$$$$
=
 OpenBabel11042417483D

 25 27  0  0  1  0  0  0  0  0999 V2000
  188.5570  174.1260  141.3260 C   0  0  0  0  0  3  0  0  0  0  0  0
  188.4640  176.0980  144.2930 C   0  0  0  0  0  0  0  0  0  0  0  0
  187.5970  176.2210  142.1390 C   0  0  0  0  0  0  0  0  0  0  0  0
  189.9010  172.9470  142.9990 C   0  0  0  0  0  0  0  0  0  0  0  0
  186.8410  176.7360  140.9520 C   0  0  0  0  0  3  0  0  0  0  0  0
  186.1470  178.0500  141.2710 C   0  0  0  0  0  0  0  0  0  0  0  0
  187.6440  176.9220  143.4010 C   0  0  0  0  0  0  0  0  0  0  0  0
  188.3120  175.1140  142.2770 C   0  0  0  0  0  0  0  0  0  0  0  0
  189.3590  173.0360  141.6980 C   0  0  0  0  0  3  0  0  0  0  0  0
  185.3980  178.6610  140.2750 O   0  0  0  0  0  1  0  0  0  0  0  0
  188.8350  175.0350  143.5660 C   0  0  1  0  0  3  0  0  0  0  0  0
  189.6400  173.9550  143.9400 C   0  0  0  0  0  3  0  0  0  0  0  0
  187.0020  178.0680  143.6010 C   0  0  0  0  0  3  0  0  0  0  0  0
  186.2270  178.6450  142.4790 C   0  0  0  0  0  3  0  0  0  0  0  0
  189.9910  177.1150  145.9700 C   0  0  0  0  0  3  0  0  0  0  0  0
  190.3070  177.3840  147.1590 O   0  0  0  0  0  0  0  0  0  0  0  0
  188.8000  176.3780  145.6680 N   0  0  0  0  0  0  0  0  0  0  0  0
  187.9160  175.9710  146.7590 C   0  0  0  0  0  2  0  0  0  0  0  0
  186.9170  177.0730  147.0810 C   0  0  0  0  0  2  0  0  0  0  0  0
  185.5430  176.7210  146.5410 C   0  0  0  0  0  2  0  0  0  0  0  0
  184.5710  178.7270  147.6530 O   0  0  0  0  0  1  0  0  0  0  0  0
  184.6830  177.9340  146.5200 C   0  0  0  0  0  0  0  0  0  0  0  0
  184.0810  178.2590  145.4640 O   0  0  0  0  0  0  0  0  0  0  0  0
  190.7410  171.8110  143.3950 C   0  0  0  0  0  3  0  0  0  0  0  0
  191.9310  171.9850  143.8690 N   0  0  0  0  0  2  0  0  0  0  0  0
  1  9  2  0  0  0  0
  1  8  1  0  0  0  0
  2 17  1  0  0  0  0
  3  8  2  0  0  0  0
  3  7  1  0  0  0  0
  4 24  1  0  0  0  0
  4 12  2  0  0  0  0
  5  6  2  0  0  0  0
  5  3  1  0  0  0  0
  6 14  1  0  0  0  0
  7 13  1  0  0  0  0
  7  2  2  0  0  0  0
  8 11  1  0  0  0  0
  9  4  1  0  0  0  0
 10  6  1  0  0  0  0
 11 12  1  6  0  0  0
 11  2  1  0  0  0  0
 14 13  2  0  0  0  0
 15 16  2  0  0  0  0
 17 15  1  0  0  0  0
 17 18  1  0  0  0  0
 18 19  1  0  0  0  0
 20 19  1  0  0  0  0
 22 20  1  0  0  0  0
 22 21  1  0  0  0  0
 23 22  2  0  0  0  0
 24 25  2  0  0  0  0
M  END
>  <MODEL>
6

>  <REMARK>
 VINA RESULT:      -6.6      2.599      6.262
  Name = 
  6 active torsions:
  status: ('A' for Active; 'I' for Inactive)
    1  A    between atoms: C_2  and  N_15
    2  A    between atoms: C_4  and  C_17
    3  A    between atoms: C_8  and  C_25
    4  A    between atoms: C_14  and  N_15
    5  A    between atoms: C_14  and  C_19
    6  A    between atoms: C_19  and  C_25
                            x       y       z     vdW  Elec       q    Type
                         _______ _______ _______ _____ _____    ______ ____

>  <TORSDO>
F 6

$$$$
=
 OpenBabel11042417483D

 25 27  0  0  0  0  0  0  0  0999 V2000
  184.0750  178.7270  145.5410 C   0  0  0  0  0  3  0  0  0  0  0  0
  186.4140  177.5300  143.1340 C   0  0  0  0  0  0  0  0  0  0  0  0
  184.2130  178.2780  143.1430 C   0  0  0  0  0  0  0  0  0  0  0  0
  186.1390  178.2140  146.7570 C   0  0  0  0  0  0  0  0  0  0  0  0
  182.8540  178.6630  142.6430 C   0  0  0  0  0  3  0  0  0  0  0  0
  182.7460  178.4660  141.1390 C   0  0  0  0  0  0  0  0  0  0  0  0
  185.2530  177.7770  142.2760 C   0  0  0  0  0  0  0  0  0  0  0  0
  184.7100  178.3160  144.3710 C   0  0  0  0  0  0  0  0  0  0  0  0
  184.8020  178.6730  146.7410 C   0  0  0  0  0  3  0  0  0  0  0  0
  181.5470  178.7810  140.5160 O   0  0  0  0  0  1  0  0  0  0  0  0
  186.0290  177.8680  144.3720 C   0  0  0  0  0  0  0  0  0  0  0  0
  186.7560  177.8060  145.5640 C   0  0  0  0  0  3  0  0  0  0  0  0
  185.0800  177.6390  140.9660 C   0  0  0  0  0  2  0  0  0  0  0  0
  183.7650  178.0010  140.3880 C   0  0  0  0  0  3  0  0  0  0  0  0
  187.9330  175.6130  142.6920 C   0  0  0  0  0  3  0  0  0  0  0  0
  189.0440  175.1410  142.3320 O   0  0  0  0  0  0  0  0  0  0  0  0
  187.7040  177.0260  142.7260 N   0  0  0  0  0  0  0  0  0  0  0  0
  188.7660  177.9330  142.2910 C   0  0  0  0  0  2  0  0  0  0  0  0
  189.6760  178.2920  143.4560 C   0  0  0  0  0  2  0  0  0  0  0  0
  191.1020  177.8570  143.1730 C   0  0  0  0  0  2  0  0  0  0  0  0
  190.7830  176.2130  145.0170 O   0  0  0  0  0  1  0  0  0  0  0  0
  191.6260  177.0670  144.3190 C   0  0  0  0  0  0  0  0  0  0  0  0
  192.8400  177.1480  144.6360 O   0  0  0  0  0  0  0  0  0  0  0  0
  186.9050  178.1540  148.0060 C   0  0  0  0  0  3  0  0  0  0  0  0
  187.1410  179.2160  148.7040 N   0  0  0  0  0  2  0  0  0  0  0  0
  1  9  1  0  0  0  0
  2 11  1  0  0  0  0
  3  8  1  0  0  0  0
  4 24  1  0  0  0  0
  5  3  2  0  0  0  0
  6  5  1  0  0  0  0
  7  2  2  0  0  0  0
  7  3  1  0  0  0  0
  8 11  1  0  0  0  0
  8  1  2  0  0  0  0
  9  4  2  0  0  0  0
 10  6  1  0  0  0  0
 11 12  2  0  0  0  0
 12  4  1  0  0  0  0
 13  7  1  0  0  0  0
 14 13  1  0  0  0  0
 14  6  2  0  0  0  0
 15 17  1  0  0  0  0
 16 15  2  0  0  0  0
 17  2  1  0  0  0  0
 18 17  1  0  0  0  0
 18 19  1  0  0  0  0
 20 19  1  0  0  0  0
 20 22  1  0  0  0  0
 22 23  2  0  0  0  0
 22 21  1  0  0  0  0
 24 25  2  0  0  0  0
M  END
>  <MODEL>
7

>  <REMARK>
 VINA RESULT:      -6.6      1.866      6.278
  Name = 
  6 active torsions:
  status: ('A' for Active; 'I' for Inactive)
    1  A    between atoms: C_2  and  N_15
    2  A    between atoms: C_4  and  C_17
    3  A    between atoms: C_8  and  C_25
    4  A    between atoms: C_14  and  N_15
    5  A    between atoms: C_14  and  C_19
    6  A    between atoms: C_19  and  C_25
                            x       y       z     vdW  Elec       q    Type
                         _______ _______ _______ _____ _____    ______ ____

>  <TORSDO>
F 6

$$$$
=
 OpenBabel11042417483D

 25 27  0  0  0  0  0  0  0  0999 V2000
  189.8390  177.2010  146.3150 C   0  0  0  0  0  3  0  0  0  0  0  0
  187.8850  176.9620  143.3440 C   0  0  0  0  0  0  0  0  0  0  0  0
  187.5230  177.4700  145.5830 C   0  0  0  0  0  0  0  0  0  0  0  0
  191.3680  176.5550  144.5150 C   0  0  0  0  0  0  0  0  0  0  0  0
  186.8070  177.8550  146.8430 C   0  0  0  0  0  3  0  0  0  0  0  0
  185.3270  178.0870  146.5850 C   0  0  0  0  0  0  0  0  0  0  0  0
  186.8510  177.3360  144.3120 C   0  0  0  0  0  0  0  0  0  0  0  0
  188.8040  177.2020  145.3820 C   0  0  0  0  0  0  0  0  0  0  0  0
  191.1290  176.8750  145.8700 C   0  0  0  0  0  3  0  0  0  0  0  0
  184.5200  178.4550  147.6520 O   0  0  0  0  0  1  0  0  0  0  0  0
  189.0280  176.8960  144.0410 C   0  0  0  0  0  0  0  0  0  0  0  0
  190.3090  176.5640  143.5930 C   0  0  0  0  0  3  0  0  0  0  0  0
  185.5500  177.5630  144.1690 C   0  0  0  0  0  2  0  0  0  0  0  0
  184.7680  177.9510  145.3650 C   0  0  0  0  0  3  0  0  0  0  0  0
  187.1860  177.7560  141.0950 C   0  0  0  0  0  3  0  0  0  0  0  0
  187.0260  177.5780  139.8580 O   0  0  0  0  0  0  0  0  0  0  0  0
  187.7050  176.7170  141.9330 N   0  0  0  0  0  0  0  0  0  0  0  0
  188.0970  175.4430  141.3310 C   0  0  0  0  0  2  0  0  0  0  0  0
  187.5750  174.2760  142.1560 C   0  0  0  0  0  2  0  0  0  0  0  0
  188.2490  172.9830  141.7370 C   0  0  0  0  0  2  0  0  0  0  0  0
  190.6080  173.1750  142.5140 O   0  0  0  0  0  0  0  0  0  0  0  0
  189.3360  172.6470  142.6940 C   0  0  0  0  0  0  0  0  0  0  0  0
  189.0980  171.9090  143.6840 O   0  0  0  0  0  1  0  0  0  0  0  0
  192.7140  176.2120  144.0420 C   0  0  0  0  0  3  0  0  0  0  0  0
  193.7710  176.6860  144.6140 N   0  0  0  0  0  2  0  0  0  0  0  0
  2 11  1  0  0  0  0
  2  7  2  0  0  0  0
  3  5  2  0  0  0  0
  4  9  2  0  0  0  0
  6  5  1  0  0  0  0
  6 10  1  0  0  0  0
  7  3  1  0  0  0  0
  8  3  1  0  0  0  0
  8  1  2  0  0  0  0
  9  1  1  0  0  0  0
 11  8  1  0  0  0  0
 12 11  2  0  0  0  0
 12  4  1  0  0  0  0
 13  7  1  0  0  0  0
 13 14  1  0  0  0  0
 14  6  2  0  0  0  0
 15 17  1  0  0  0  0
 16 15  2  0  0  0  0
 17  2  1  0  0  0  0
 18 17  1  0  0  0  0
 18 19  1  0  0  0  0
 20 19  1  0  0  0  0
 20 22  1  0  0  0  0
 21 22  2  0  0  0  0
 22 23  1  0  0  0  0
 24  4  1  0  0  0  0
 24 25  2  0  0  0  0
M  END
>  <MODEL>
8

>  <REMARK>
 VINA RESULT:      -6.5      2.343      5.693
  Name = 
  6 active torsions:
  status: ('A' for Active; 'I' for Inactive)
    1  A    between atoms: C_2  and  N_15
    2  A    between atoms: C_4  and  C_17
    3  A    between atoms: C_8  and  C_25
    4  A    between atoms: C_14  and  N_15
    5  A    between atoms: C_14  and  C_19
    6  A    between atoms: C_19  and  C_25
                            x       y       z     vdW  Elec       q    Type
                         _______ _______ _______ _____ _____    ______ ____

>  <TORSDO>
F 6

$$$$
=
 OpenBabel11042417483D

 25 27  0  0  1  0  0  0  0  0999 V2000
  186.2120  177.1150  142.2390 C   0  0  0  0  0  3  0  0  0  0  0  0
  188.8450  176.0480  144.3910 C   0  0  0  0  0  0  0  0  0  0  0  0
  188.1460  175.6210  142.2150 C   0  0  1  0  0  3  0  0  0  0  0  0
  185.8970  178.2790  144.3710 C   0  0  0  0  0  0  0  0  0  0  0  0
  188.1160  175.0420  140.8330 C   0  0  0  0  0  3  0  0  0  0  0  0
  189.2740  174.0820  140.6140 C   0  0  0  0  0  0  0  0  0  0  0  0
  189.1560  175.2730  143.1870 C   0  0  0  0  0  0  0  0  0  0  0  0
  187.3350  176.4980  142.7880 C   0  0  0  0  0  0  0  0  0  0  0  0
  185.4920  178.0120  143.0430 C   0  0  0  0  0  3  0  0  0  0  0  0
  189.3920  173.4600  139.3790 O   0  0  0  0  0  1  0  0  0  0  0  0
  187.7480  176.7580  144.0930 C   0  0  0  0  0  0  0  0  0  0  0  0
  187.0320  177.6450  144.9010 C   0  0  0  0  0  3  0  0  0  0  0  0
  190.1420  174.4260  142.9140 C   0  0  0  0  0  3  0  0  0  0  0  0
  190.1880  173.8100  141.5680 C   0  0  0  0  0  3  0  0  0  0  0  0
  189.4040  174.9550  146.5520 C   0  0  0  0  0  3  0  0  0  0  0  0
  190.0320  174.9170  147.6440 O   0  0  0  0  0  0  0  0  0  0  0  0
  189.5730  176.0450  145.6370 N   0  0  0  0  0  0  0  0  0  0  0  0
  190.5250  177.1070  145.9590 C   0  0  0  0  0  2  0  0  0  0  0  0
  191.6540  177.1430  144.9410 C   0  0  0  0  0  2  0  0  0  0  0  0
  192.6680  176.0520  145.2290 C   0  0  0  0  0  2  0  0  0  0  0  0
  194.1690  177.1570  146.8820 O   0  0  0  0  0  1  0  0  0  0  0  0
  193.9730  176.6600  145.6010 C   0  0  0  0  0  0  0  0  0  0  0  0
  194.9120  176.6960  144.7640 O   0  0  0  0  0  0  0  0  0  0  0  0
  185.1500  179.2140  145.2180 C   0  0  0  0  0  3  0  0  0  0  0  0
  184.0450  178.8690  145.7920 N   0  0  0  0  0  2  0  0  0  0  0  0
  1  8  2  0  0  0  0
  1  9  1  0  0  0  0
  2 17  1  0  0  0  0
  3  5  1  6  0  0  0
  3  8  1  0  0  0  0
  3  7  1  0  0  0  0
  4 12  1  0  0  0  0
  4 24  1  0  0  0  0
  6  5  2  0  0  0  0
  6 14  1  0  0  0  0
  7  2  2  0  0  0  0
  8 11  1  0  0  0  0
  9  4  2  0  0  0  0
 10  6  1  0  0  0  0
 11  2  1  0  0  0  0
 11 12  2  0  0  0  0
 13  7  1  0  0  0  0
 14 13  2  0  0  0  0
 15 16  2  0  0  0  0
 17 18  1  0  0  0  0
 17 15  1  0  0  0  0
 19 20  1  0  0  0  0
 19 18  1  0  0  0  0
 20 22  1  0  0  0  0
 22 21  1  0  0  0  0
 23 22  2  0  0  0  0
 24 25  2  0  0  0  0
M  END
>  <MODEL>
9

>  <REMARK>
 VINA RESULT:      -6.5      2.720      6.011
  Name = 
  6 active torsions:
  status: ('A' for Active; 'I' for Inactive)
    1  A    between atoms: C_2  and  N_15
    2  A    between atoms: C_4  and  C_17
    3  A    between atoms: C_8  and  C_25
    4  A    between atoms: C_14  and  N_15
    5  A    between atoms: C_14  and  C_19
    6  A    between atoms: C_19  and  C_25
                            x       y       z     vdW  Elec       q    Type
                         _______ _______ _______ _____ _____    ______ ____

>  <TORSDO>
F 6

$$$$
