=
 OpenBabel11042417213D

 26 29  0  0  0  0  0  0  0  0999 V2000
  184.1970  178.6460  146.1220 C   0  0  0  0  0  3  0  0  0  0  0  0
  186.6260  177.0330  146.3480 C   0  0  0  0  0  0  0  0  0  0  0  0
  185.4170  177.8640  141.6080 C   0  0  0  0  0  3  0  0  0  0  0  0
  184.7670  178.1520  145.0280 C   0  0  0  0  0  0  0  0  0  0  0  0
  186.0620  177.5130  147.4660 C   0  0  0  0  0  3  0  0  0  0  0  0
  184.3770  178.4060  143.6840 N   0  0  0  0  0  0  0  0  0  0  0  0
  187.4380  176.6670  143.1960 C   0  0  0  0  0  3  0  0  0  0  0  0
  185.9890  177.3880  145.0600 C   0  0  0  0  0  0  0  0  0  0  0  0
  186.5330  177.2610  141.0070 C   0  0  0  0  0  0  0  0  0  0  0  0
  186.3150  177.2500  143.7800 C   0  0  0  0  0  0  0  0  0  0  0  0
  184.8180  178.3920  147.4820 C   0  0  0  0  0  2  0  0  0  0  0  0
  185.3290  177.8510  143.0010 C   0  0  0  0  0  0  0  0  0  0  0  0
  187.5400  176.6720  141.7960 C   0  0  0  0  0  3  0  0  0  0  0  0
  186.6490  177.2520  139.6240 O   0  0  0  0  0  1  0  0  0  0  0  0
  187.7590  176.1700  146.4740 N   0  0  0  0  0  2  0  0  0  0  0  0
  191.0440  172.8200  144.4810 C   0  0  0  0  0  1  0  0  0  0  0  0
  192.4330  174.5520  145.5520 N   0  0  0  0  0  0  0  0  0  0  0  0
  190.0900  174.7720  145.6450 N   0  0  0  0  0  0  0  0  0  0  0  0
  191.1940  174.0850  145.2470 C   0  0  0  0  0  0  0  0  0  0  0  0
  189.0440  176.6410  146.7690 N   0  0  0  0  0  2  0  0  0  0  0  0
  192.5900  175.7090  146.2500 C   0  0  0  0  0  0  0  0  0  0  0  0
  191.4690  176.4240  146.6710 C   0  0  0  0  0  3  0  0  0  0  0  0
  190.2050  175.9290  146.3490 C   0  0  0  0  0  0  0  0  0  0  0  0
  193.9580  176.1930  146.5920 C   0  0  0  0  0  2  0  0  0  0  0  0
  194.4720  177.1570  145.5350 C   0  0  0  0  0  2  0  0  0  0  0  0
  195.3110  176.4510  144.5810 N   0  0  0  0  0  1  0  0  0  0  0  0
  1 11  1  0  0  0  0
  2 15  1  0  0  0  0
  2  5  2  0  0  0  0
  3 12  1  0  0  0  0
  4  8  1  0  0  0  0
  4  1  2  0  0  0  0
  5 11  1  0  0  0  0
  6  4  1  0  0  0  0
  7 10  1  0  0  0  0
  8  2  1  0  0  0  0
  9  3  2  0  0  0  0
  9 13  1  0  0  0  0
 10  8  2  0  0  0  0
 12  6  2  0  0  0  0
 12 10  1  0  0  0  0
 13  7  2  0  0  0  0
 14  9  1  0  0  0  0
 15 20  1  0  0  0  0
 16 19  1  0  0  0  0
 17 21  1  0  0  0  0
 18 23  2  0  0  0  0
 19 17  2  0  0  0  0
 19 18  1  0  0  0  0
 21 24  1  0  0  0  0
 21 22  2  0  0  0  0
 23 22  1  0  0  0  0
 23 20  1  0  0  0  0
 25 24  1  0  0  0  0
 26 25  1  0  0  0  0
M  END
>  <MODEL>
1

>  <REMARK>
 VINA RESULT:      -8.0      0.000      0.000
  Name = 
  4 active torsions:
  status: ('A' for Active; 'I' for Inactive)
    1  A    between atoms: C_2  and  N_4
    2  A    between atoms: N_4  and  N_10
    3  A    between atoms: C_13  and  C_23
    4  A    between atoms: C_17  and  C_23
                            x       y       z     vdW  Elec       q    Type
                         _______ _______ _______ _____ _____    ______ ____

>  <TORSDO>
F 4

$$$$
=
 OpenBabel11042417213D

 26 29  0  0  1  0  0  0  0  0999 V2000
  185.4230  178.2440  140.5530 C   0  0  0  0  0  3  0  0  0  0  0  0
  187.3340  176.4420  141.8380 C   0  0  0  0  0  0  0  0  0  0  0  0
  184.3810  178.6450  145.1610 C   0  0  0  0  0  3  0  0  0  0  0  0
  185.4850  178.1810  141.8800 C   0  0  0  0  0  0  0  0  0  0  0  0
  187.2980  176.4970  140.4990 C   0  0  0  0  0  3  0  0  0  0  0  0
  184.6240  178.8430  142.7980 N   0  0  0  0  0  0  0  0  0  0  0  0
  186.4410  176.7050  144.9790 C   0  0  0  0  0  3  0  0  0  0  0  0
  186.3690  177.2830  142.5790 C   0  0  0  0  0  0  0  0  0  0  0  0
  184.8350  177.9760  146.3090 C   0  0  2  0  0  3  0  0  0  0  0  0
  185.9960  177.3900  143.8500 C   0  0  0  0  0  0  0  0  0  0  0  0
  186.3270  177.3660  139.7100 C   0  0  0  0  0  3  0  0  0  0  0  0
  184.9740  178.3330  143.9370 C   0  0  0  0  0  0  0  0  0  0  0  0
  185.8540  177.0080  146.2170 C   0  0  0  0  0  3  0  0  0  0  0  0
  184.2700  178.2660  147.5430 O   0  0  0  0  0  1  0  0  0  0  0  0
  188.3330  175.6280  142.4580 N   0  0  0  0  0  2  0  0  0  0  0  0
  189.5240  174.8840  147.3590 C   0  0  0  0  0  1  0  0  0  0  0  0
  191.5480  175.8350  146.3230 N   0  0  0  0  0  0  0  0  0  0  0  0
  189.6520  175.4840  144.9720 N   0  0  0  0  0  0  0  0  0  0  0  0
  190.2630  175.4150  146.1840 C   0  0  0  0  0  0  0  0  0  0  0  0
  189.6600  176.0450  142.6190 N   0  0  0  0  0  2  0  0  0  0  0  0
  192.2410  176.3210  145.2600 C   0  0  0  0  0  0  0  0  0  0  0  0
  191.6290  176.4040  144.0100 C   0  0  0  0  0  3  0  0  0  0  0  0
  190.3090  175.9700  143.8860 C   0  0  0  0  0  0  0  0  0  0  0  0
  193.6440  176.7950  145.4380 C   0  0  0  0  0  2  0  0  0  0  0  0
  194.3740  175.9540  146.4730 C   0  0  0  0  0  2  0  0  0  0  0  0
  195.2150  174.9700  145.8130 N   0  0  0  0  0  1  0  0  0  0  0  0
  1  4  1  0  0  0  0
  2 15  1  0  0  0  0
  2  8  1  0  0  0  0
  3  9  1  0  0  0  0
  4  8  1  0  0  0  0
  4  6  2  0  0  0  0
  5  2  2  0  0  0  0
  6 12  1  0  0  0  0
  7 13  2  0  0  0  0
  8 10  2  0  0  0  0
  9 14  1  6  0  0  0
 10 12  1  0  0  0  0
 10  7  1  0  0  0  0
 11  5  1  0  0  0  0
 11  1  2  0  0  0  0
 12  3  2  0  0  0  0
 13  9  1  0  0  0  0
 15 20  1  0  0  0  0
 18 19  1  0  0  0  0
 19 17  2  0  0  0  0
 19 16  1  0  0  0  0
 20 23  1  0  0  0  0
 21 24  1  0  0  0  0
 21 17  1  0  0  0  0
 22 21  2  0  0  0  0
 23 22  1  0  0  0  0
 23 18  2  0  0  0  0
 24 25  1  0  0  0  0
 26 25  1  0  0  0  0
M  END
>  <MODEL>
2

>  <REMARK>
 VINA RESULT:      -7.8      2.247      3.969
  Name = 
  4 active torsions:
  status: ('A' for Active; 'I' for Inactive)
    1  A    between atoms: C_2  and  N_4
    2  A    between atoms: N_4  and  N_10
    3  A    between atoms: C_13  and  C_23
    4  A    between atoms: C_17  and  C_23
                            x       y       z     vdW  Elec       q    Type
                         _______ _______ _______ _____ _____    ______ ____

>  <TORSDO>
F 4

$$$$
=
 OpenBabel11042417213D

 26 29  0  0  0  0  0  0  0  0999 V2000
  184.2330  178.6910  146.2800 C   0  0  0  0  0  3  0  0  0  0  0  0
  186.9730  177.6770  146.3900 C   0  0  0  0  0  0  0  0  0  0  0  0
  185.3440  178.0380  141.7180 C   0  0  0  0  0  3  0  0  0  0  0  0
  184.8380  178.2980  145.1640 C   0  0  0  0  0  0  0  0  0  0  0  0
  186.3790  178.0570  147.5300 C   0  0  0  0  0  3  0  0  0  0  0  0
  184.3260  178.4070  143.8410 N   0  0  0  0  0  0  0  0  0  0  0  0
  187.6700  177.3870  143.2020 C   0  0  0  0  0  3  0  0  0  0  0  0
  186.2020  177.8320  145.1370 C   0  0  0  0  0  0  0  0  0  0  0  0
  186.5320  177.6810  141.0610 C   0  0  0  0  0  0  0  0  0  0  0  0
  186.4780  177.7230  143.8420 C   0  0  0  0  0  0  0  0  0  0  0  0
  184.9710  178.6340  147.6030 C   0  0  0  0  0  2  0  0  0  0  0  0
  185.3390  178.0570  143.1130 C   0  0  0  0  0  0  0  0  0  0  0  0
  187.6890  177.3640  141.7980 C   0  0  0  0  0  3  0  0  0  0  0  0
  186.5680  177.6470  139.6740 O   0  0  0  0  0  1  0  0  0  0  0  0
  188.2780  177.0970  146.4640 N   0  0  0  0  0  2  0  0  0  0  0  0
  192.5020  176.7280  143.6340 C   0  0  0  0  0  1  0  0  0  0  0  0
  191.7730  174.4090  144.0400 N   0  0  0  0  0  0  0  0  0  0  0  0
  190.5020  176.1650  144.9590 N   0  0  0  0  0  0  0  0  0  0  0  0
  191.5660  175.7390  144.2290 C   0  0  0  0  0  0  0  0  0  0  0  0
  188.5140  175.7310  146.2680 N   0  0  0  0  0  2  0  0  0  0  0  0
  190.9290  173.4890  144.5780 C   0  0  0  0  0  0  0  0  0  0  0  0
  189.8290  173.9080  145.3250 C   0  0  0  0  0  3  0  0  0  0  0  0
  189.6320  175.2770  145.5090 C   0  0  0  0  0  0  0  0  0  0  0  0
  191.1630  172.0350  144.3420 C   0  0  0  0  0  2  0  0  0  0  0  0
  191.0970  171.7080  142.8580 C   0  0  0  0  0  2  0  0  0  0  0  0
  189.7140  171.5470  142.4430 N   0  0  0  0  0  1  0  0  0  0  0  0
  1 11  1  0  0  0  0
  2 15  1  0  0  0  0
  2  5  2  0  0  0  0
  3 12  1  0  0  0  0
  4  1  2  0  0  0  0
  5 11  1  0  0  0  0
  6  4  1  0  0  0  0
  7 10  1  0  0  0  0
  8  4  1  0  0  0  0
  8  2  1  0  0  0  0
  9  3  2  0  0  0  0
  9 13  1  0  0  0  0
 10  8  2  0  0  0  0
 12  6  2  0  0  0  0
 12 10  1  0  0  0  0
 13  7  2  0  0  0  0
 14  9  1  0  0  0  0
 16 19  1  0  0  0  0
 17 19  2  0  0  0  0
 17 21  1  0  0  0  0
 18 23  2  0  0  0  0
 19 18  1  0  0  0  0
 20 15  1  0  0  0  0
 21 22  2  0  0  0  0
 22 23  1  0  0  0  0
 23 20  1  0  0  0  0
 24 21  1  0  0  0  0
 25 24  1  0  0  0  0
 26 25  1  0  0  0  0
M  END
>  <MODEL>
3

>  <REMARK>
 VINA RESULT:      -7.7      1.519      2.732
  Name = 
  4 active torsions:
  status: ('A' for Active; 'I' for Inactive)
    1  A    between atoms: C_2  and  N_4
    2  A    between atoms: N_4  and  N_10
    3  A    between atoms: C_13  and  C_23
    4  A    between atoms: C_17  and  C_23
                            x       y       z     vdW  Elec       q    Type
                         _______ _______ _______ _____ _____    ______ ____

>  <TORSDO>
F 4

$$$$
=
 OpenBabel11042417213D

 26 29  0  0  0  0  0  0  0  0999 V2000
  185.0570  178.6170  147.1630 C   0  0  0  0  0  3  0  0  0  0  0  0
  187.4230  177.5110  145.8490 C   0  0  0  0  0  0  0  0  0  0  0  0
  183.7940  178.4410  142.5960 C   0  0  0  0  0  3  0  0  0  0  0  0
  185.0200  178.3320  145.8650 C   0  0  0  0  0  0  0  0  0  0  0  0
  187.4790  177.7810  147.1610 C   0  0  0  0  0  3  0  0  0  0  0  0
  183.9490  178.6040  144.9690 N   0  0  0  0  0  0  0  0  0  0  0  0
  186.4850  177.5560  142.7100 C   0  0  0  0  0  3  0  0  0  0  0  0
  186.1620  177.8290  145.1430 C   0  0  0  0  0  0  0  0  0  0  0  0
  184.4900  178.1220  141.4200 C   0  0  0  0  0  0  0  0  0  0  0  0
  185.7760  177.8560  143.8720 C   0  0  0  0  0  0  0  0  0  0  0  0
  186.3300  178.3900  147.9530 C   0  0  0  0  0  2  0  0  0  0  0  0
  184.4580  178.3050  143.8150 C   0  0  0  0  0  0  0  0  0  0  0  0
  185.8290  177.6880  141.4760 C   0  0  0  0  0  3  0  0  0  0  0  0
  183.8560  178.2410  140.1910 O   0  0  0  0  0  1  0  0  0  0  0  0
  188.5530  176.8850  145.2340 N   0  0  0  0  0  2  0  0  0  0  0  0
  191.1530  172.5710  144.4550 C   0  0  0  0  0  1  0  0  0  0  0  0
  192.7820  174.1650  145.3940 N   0  0  0  0  0  0  0  0  0  0  0  0
  190.5640  174.8840  145.0660 N   0  0  0  0  0  0  0  0  0  0  0  0
  191.5110  173.9120  144.9860 C   0  0  0  0  0  0  0  0  0  0  0  0
  189.8700  177.1300  145.6390 N   0  0  0  0  0  2  0  0  0  0  0  0
  193.1280  175.3860  145.8800 C   0  0  0  0  0  0  0  0  0  0  0  0
  192.1690  176.3940  145.9750 C   0  0  0  0  0  3  0  0  0  0  0  0
  190.8690  176.1170  145.5520 C   0  0  0  0  0  0  0  0  0  0  0  0
  194.5240  175.6360  146.3410 C   0  0  0  0  0  2  0  0  0  0  0  0
  195.5310  175.1930  145.2920 C   0  0  0  0  0  2  0  0  0  0  0  0
  195.6440  176.2000  144.2510 N   0  0  0  0  0  1  0  0  0  0  0  0
  1 11  1  0  0  0  0
  2  5  2  0  0  0  0
  3 12  1  0  0  0  0
  4  1  2  0  0  0  0
  5 11  1  0  0  0  0
  6  4  1  0  0  0  0
  7 10  1  0  0  0  0
  8  2  1  0  0  0  0
  8  4  1  0  0  0  0
  9 13  1  0  0  0  0
  9  3  2  0  0  0  0
 10  8  2  0  0  0  0
 12 10  1  0  0  0  0
 12  6  2  0  0  0  0
 13  7  2  0  0  0  0
 14  9  1  0  0  0  0
 15 20  1  0  0  0  0
 15  2  1  0  0  0  0
 16 19  1  0  0  0  0
 17 21  1  0  0  0  0
 18 23  2  0  0  0  0
 19 18  1  0  0  0  0
 19 17  2  0  0  0  0
 21 22  2  0  0  0  0
 21 24  1  0  0  0  0
 23 20  1  0  0  0  0
 23 22  1  0  0  0  0
 25 24  1  0  0  0  0
 26 25  1  0  0  0  0
M  END
>  <MODEL>
4

>  <REMARK>
 VINA RESULT:      -7.7      1.214      1.409
  Name = 
  4 active torsions:
  status: ('A' for Active; 'I' for Inactive)
    1  A    between atoms: C_2  and  N_4
    2  A    between atoms: N_4  and  N_10
    3  A    between atoms: C_13  and  C_23
    4  A    between atoms: C_17  and  C_23
                            x       y       z     vdW  Elec       q    Type
                         _______ _______ _______ _____ _____    ______ ____

>  <TORSDO>
F 4

$$$$
=
 OpenBabel11042417213D

 26 29  0  0  1  0  0  0  0  0999 V2000
  184.8710  178.1990  141.0720 C   0  0  0  0  0  3  0  0  0  0  0  0
  187.5610  177.6810  142.0930 C   0  0  0  0  0  0  0  0  0  0  0  0
  184.3700  178.6630  145.7640 C   0  0  0  0  0  3  0  0  0  0  0  0
  185.1250  178.3460  142.3680 C   0  0  0  0  0  0  0  0  0  0  0  0
  187.3290  177.5380  140.7800 C   0  0  0  0  0  3  0  0  0  0  0  0
  184.1790  178.6430  143.3870 N   0  0  0  0  0  0  0  0  0  0  0  0
  187.0660  177.9020  145.3240 C   0  0  0  0  0  3  0  0  0  0  0  0
  186.4150  178.0630  142.9480 C   0  0  0  0  0  0  0  0  0  0  0  0
  185.2340  178.4380  146.8480 C   0  0  2  0  0  3  0  0  0  0  0  0
  186.2040  178.1480  144.2560 C   0  0  0  0  0  0  0  0  0  0  0  0
  185.9670  177.7430  140.1300 C   0  0  0  0  0  3  0  0  0  0  0  0
  184.8750  178.5070  144.4720 C   0  0  0  0  0  0  0  0  0  0  0  0
  186.5710  178.0540  146.6290 C   0  0  0  0  0  3  0  0  0  0  0  0
  184.7640  178.5890  148.1450 O   0  0  0  0  0  1  0  0  0  0  0  0
  188.8990  177.5150  142.5700 N   0  0  0  0  0  2  0  0  0  0  0  0
  188.9910  175.0010  147.0040 C   0  0  0  0  0  1  0  0  0  0  0  0
  190.2930  173.6190  145.4330 N   0  0  0  0  0  0  0  0  0  0  0  0
  189.3480  175.6280  144.6470 N   0  0  0  0  0  0  0  0  0  0  0  0
  189.5600  174.7410  145.6560 C   0  0  0  0  0  0  0  0  0  0  0  0
  189.6420  176.3480  142.3570 N   0  0  0  0  0  2  0  0  0  0  0  0
  190.8200  173.3630  144.2060 C   0  0  0  0  0  0  0  0  0  0  0  0
  190.6180  174.2650  143.1600 C   0  0  0  0  0  3  0  0  0  0  0  0
  189.8630  175.4110  143.4080 C   0  0  0  0  0  0  0  0  0  0  0  0
  191.6380  172.1370  143.9870 C   0  0  0  0  0  2  0  0  0  0  0  0
  193.1230  172.4640  144.0050 C   0  0  0  0  0  2  0  0  0  0  0  0
  193.6570  172.2900  145.3450 N   0  0  0  0  0  1  0  0  0  0  0  0
  1  4  1  0  0  0  0
  2 15  1  0  0  0  0
  2  8  1  0  0  0  0
  3  9  1  0  0  0  0
  4  8  1  0  0  0  0
  4  6  2  0  0  0  0
  5  2  2  0  0  0  0
  6 12  1  0  0  0  0
  7 13  2  0  0  0  0
  8 10  2  0  0  0  0
  9 14  1  1  0  0  0
 10 12  1  0  0  0  0
 10  7  1  0  0  0  0
 11  5  1  0  0  0  0
 11  1  2  0  0  0  0
 12  3  2  0  0  0  0
 13  9  1  0  0  0  0
 17 19  2  0  0  0  0
 18 19  1  0  0  0  0
 19 16  1  0  0  0  0
 20 15  1  0  0  0  0
 20 23  1  0  0  0  0
 21 17  1  0  0  0  0
 22 23  1  0  0  0  0
 22 21  2  0  0  0  0
 23 18  2  0  0  0  0
 24 25  1  0  0  0  0
 24 21  1  0  0  0  0
 25 26  1  0  0  0  0
M  END
>  <MODEL>
5

>  <REMARK>
 VINA RESULT:      -7.3      2.765      4.430
  Name = 
  4 active torsions:
  status: ('A' for Active; 'I' for Inactive)
    1  A    between atoms: C_2  and  N_4
    2  A    between atoms: N_4  and  N_10
    3  A    between atoms: C_13  and  C_23
    4  A    between atoms: C_17  and  C_23
                            x       y       z     vdW  Elec       q    Type
                         _______ _______ _______ _____ _____    ______ ____

>  <TORSDO>
F 4

$$$$
=
 OpenBabel11042417213D

 26 29  0  0  0  0  0  0  0  0999 V2000
  185.0710  178.5120  147.1830 C   0  0  0  0  0  3  0  0  0  0  0  0
  187.4890  177.6110  145.8080 C   0  0  0  0  0  0  0  0  0  0  0  0
  183.7840  178.4670  142.6200 C   0  0  0  0  0  3  0  0  0  0  0  0
  185.0410  178.2840  145.8740 C   0  0  0  0  0  0  0  0  0  0  0  0
  187.5390  177.8240  147.1310 C   0  0  0  0  0  3  0  0  0  0  0  0
  183.9480  178.5310  144.9980 N   0  0  0  0  0  0  0  0  0  0  0  0
  186.5250  177.7410  142.6800 C   0  0  0  0  0  3  0  0  0  0  0  0
  186.2050  177.8840  145.1240 C   0  0  0  0  0  0  0  0  0  0  0  0
  184.4890  178.2440  141.4270 C   0  0  0  0  0  0  0  0  0  0  0  0
  185.8080  177.9450  143.8580 C   0  0  0  0  0  0  0  0  0  0  0  0
  186.3610  178.3260  147.9560 C   0  0  0  0  0  2  0  0  0  0  0  0
  184.4660  178.3160  143.8290 C   0  0  0  0  0  0  0  0  0  0  0  0
  185.8520  177.8890  141.4570 C   0  0  0  0  0  3  0  0  0  0  0  0
  183.8400  178.3810  140.2080 O   0  0  0  0  0  1  0  0  0  0  0  0
  188.6490  177.0830  145.1600 N   0  0  0  0  0  2  0  0  0  0  0  0
  193.4330  175.6120  146.1240 C   0  0  0  0  0  1  0  0  0  0  0  0
  192.3240  173.6470  145.1330 N   0  0  0  0  0  0  0  0  0  0  0  0
  191.0720  175.6210  145.4190 N   0  0  0  0  0  0  0  0  0  0  0  0
  192.2420  174.9400  145.5430 C   0  0  0  0  0  0  0  0  0  0  0  0
  188.7500  175.7470  144.7530 N   0  0  0  0  0  2  0  0  0  0  0  0
  191.2450  173.0150  144.6010 C   0  0  0  0  0  0  0  0  0  0  0  0
  190.0370  173.6990  144.4600 C   0  0  0  0  0  3  0  0  0  0  0  0
  189.9710  175.0260  144.8860 C   0  0  0  0  0  0  0  0  0  0  0  0
  191.3610  171.6020  144.1380 C   0  0  0  0  0  2  0  0  0  0  0  0
  191.4590  171.5330  142.6230 C   0  0  0  0  0  2  0  0  0  0  0  0
  190.3640  170.7410  142.0870 N   0  0  0  0  0  1  0  0  0  0  0  0
  1 11  1  0  0  0  0
  2  5  2  0  0  0  0
  3 12  1  0  0  0  0
  4  1  2  0  0  0  0
  5 11  1  0  0  0  0
  6  4  1  0  0  0  0
  7 10  1  0  0  0  0
  8  2  1  0  0  0  0
  8  4  1  0  0  0  0
  9 13  1  0  0  0  0
  9  3  2  0  0  0  0
 10  8  2  0  0  0  0
 12 10  1  0  0  0  0
 12  6  2  0  0  0  0
 13  7  2  0  0  0  0
 14  9  1  0  0  0  0
 15  2  1  0  0  0  0
 17 19  2  0  0  0  0
 18 19  1  0  0  0  0
 19 16  1  0  0  0  0
 20 23  1  0  0  0  0
 20 15  1  0  0  0  0
 21 17  1  0  0  0  0
 22 21  2  0  0  0  0
 22 23  1  0  0  0  0
 23 18  2  0  0  0  0
 24 21  1  0  0  0  0
 25 24  1  0  0  0  0
 26 25  1  0  0  0  0
M  END
>  <MODEL>
6

>  <REMARK>
 VINA RESULT:      -7.2      1.717      3.063
  Name = 
  4 active torsions:
  status: ('A' for Active; 'I' for Inactive)
    1  A    between atoms: C_2  and  N_4
    2  A    between atoms: N_4  and  N_10
    3  A    between atoms: C_13  and  C_23
    4  A    between atoms: C_17  and  C_23
                            x       y       z     vdW  Elec       q    Type
                         _______ _______ _______ _____ _____    ______ ____

>  <TORSDO>
F 4

$$$$
=
 OpenBabel11042417213D

 26 29  0  0  1  0  0  0  0  0999 V2000
  185.5110  178.1310  140.6670 C   0  0  0  0  0  3  0  0  0  0  0  0
  187.5220  176.5220  142.0500 C   0  0  0  0  0  0  0  0  0  0  0  0
  184.3760  178.6520  145.2400 C   0  0  0  0  0  3  0  0  0  0  0  0
  185.5570  178.1290  141.9950 C   0  0  0  0  0  0  0  0  0  0  0  0
  187.5010  176.5180  140.7090 C   0  0  0  0  0  3  0  0  0  0  0  0
  184.6390  178.7670  142.8740 N   0  0  0  0  0  0  0  0  0  0  0  0
  186.5670  176.8530  145.1650 C   0  0  0  0  0  3  0  0  0  0  0  0
  186.4900  177.3240  142.7430 C   0  0  0  0  0  0  0  0  0  0  0  0
  184.8580  178.0650  146.4210 C   0  0  2  0  0  3  0  0  0  0  0  0
  186.0920  177.4580  144.0030 C   0  0  0  0  0  0  0  0  0  0  0  0
  186.4850  177.2840  139.8720 C   0  0  0  0  0  3  0  0  0  0  0  0
  185.0060  178.3310  144.0380 C   0  0  0  0  0  0  0  0  0  0  0  0
  185.9420  177.1670  146.3830 C   0  0  0  0  0  3  0  0  0  0  0  0
  184.2560  178.3670  147.6350 O   0  0  0  0  0  1  0  0  0  0  0  0
  188.5660  175.8060  142.7160 N   0  0  0  0  0  2  0  0  0  0  0  0
  191.5960  176.3320  146.7810 C   0  0  0  0  0  1  0  0  0  0  0  0
  193.1120  176.1390  144.8470 N   0  0  0  0  0  0  0  0  0  0  0  0
  190.7890  176.0420  144.4710 N   0  0  0  0  0  0  0  0  0  0  0  0
  191.8400  176.1650  145.3240 C   0  0  0  0  0  0  0  0  0  0  0  0
  189.8830  175.7710  142.2440 N   0  0  0  0  0  2  0  0  0  0  0  0
  193.3540  175.9860  143.5180 C   0  0  0  0  0  0  0  0  0  0  0  0
  192.2880  175.8640  142.6260 C   0  0  0  0  0  3  0  0  0  0  0  0
  190.9900  175.8930  143.1340 C   0  0  0  0  0  0  0  0  0  0  0  0
  194.7560  175.9800  143.0120 C   0  0  0  0  0  2  0  0  0  0  0  0
  195.7420  176.2410  144.1400 C   0  0  0  0  0  2  0  0  0  0  0  0
  196.4810  175.0290  144.4480 N   0  0  0  0  0  1  0  0  0  0  0  0
  1  4  1  0  0  0  0
  2 15  1  0  0  0  0
  2  8  1  0  0  0  0
  3  9  1  0  0  0  0
  4  8  1  0  0  0  0
  4  6  2  0  0  0  0
  5  2  2  0  0  0  0
  6 12  1  0  0  0  0
  7 13  2  0  0  0  0
  8 10  2  0  0  0  0
  9 14  1  6  0  0  0
 10 12  1  0  0  0  0
 10  7  1  0  0  0  0
 11  1  2  0  0  0  0
 11  5  1  0  0  0  0
 12  3  2  0  0  0  0
 13  9  1  0  0  0  0
 17 19  2  0  0  0  0
 18 19  1  0  0  0  0
 19 16  1  0  0  0  0
 20 15  1  0  0  0  0
 20 23  1  0  0  0  0
 21 17  1  0  0  0  0
 22 23  1  0  0  0  0
 22 21  2  0  0  0  0
 23 18  2  0  0  0  0
 24 21  1  0  0  0  0
 24 25  1  0  0  0  0
 25 26  1  0  0  0  0
M  END
>  <MODEL>
7

>  <REMARK>
 VINA RESULT:      -7.2      2.442      4.166
  Name = 
  4 active torsions:
  status: ('A' for Active; 'I' for Inactive)
    1  A    between atoms: C_2  and  N_4
    2  A    between atoms: N_4  and  N_10
    3  A    between atoms: C_13  and  C_23
    4  A    between atoms: C_17  and  C_23
                            x       y       z     vdW  Elec       q    Type
                         _______ _______ _______ _____ _____    ______ ____

>  <TORSDO>
F 4

$$$$
=
 OpenBabel11042417213D

 26 29  0  0  0  0  0  0  0  0999 V2000
  186.6340  177.5030  146.8000 C   0  0  0  0  0  3  0  0  0  0  0  0
  188.7210  177.5390  144.7510 C   0  0  0  0  0  0  0  0  0  0  0  0
  184.2040  178.0770  142.7700 C   0  0  0  0  0  3  0  0  0  0  0  0
  186.2980  177.5490  145.5140 C   0  0  0  0  0  0  0  0  0  0  0  0
  189.0820  177.4810  146.0410 C   0  0  0  0  0  3  0  0  0  0  0  0
  184.9840  177.6900  144.9890 N   0  0  0  0  0  0  0  0  0  0  0  0
  186.9460  178.0650  142.0480 C   0  0  0  0  0  3  0  0  0  0  0  0
  187.2730  177.6160  144.4540 C   0  0  0  0  0  0  0  0  0  0  0  0
  184.5920  178.2880  141.4370 C   0  0  0  0  0  0  0  0  0  0  0  0
  186.5470  177.8360  143.3640 C   0  0  0  0  0  0  0  0  0  0  0  0
  188.0960  177.4920  147.2020 C   0  0  0  0  0  2  0  0  0  0  0  0
  185.2000  177.8570  143.7210 C   0  0  0  0  0  0  0  0  0  0  0  0
  185.9540  178.2880  141.0800 C   0  0  0  0  0  3  0  0  0  0  0  0
  183.6250  178.5060  140.4650 O   0  0  0  0  0  1  0  0  0  0  0  0
  189.7430  177.4640  143.7540 N   0  0  0  0  0  2  0  0  0  0  0  0
  191.5820  172.7400  144.2920 C   0  0  0  0  0  1  0  0  0  0  0  0
  193.4950  174.2440  144.6850 N   0  0  0  0  0  0  0  0  0  0  0  0
  191.4020  175.1950  144.1790 N   0  0  0  0  0  0  0  0  0  0  0  0
  192.1770  174.0990  144.3870 C   0  0  0  0  0  0  0  0  0  0  0  0
  191.1040  177.5930  144.0510 N   0  0  0  0  0  2  0  0  0  0  0  0
  194.0580  175.4780  144.7740 C   0  0  0  0  0  0  0  0  0  0  0  0
  193.2760  176.6150  144.5690 C   0  0  0  0  0  3  0  0  0  0  0  0
  191.9250  176.4470  144.2640 C   0  0  0  0  0  0  0  0  0  0  0  0
  195.5010  175.6160  145.1220 C   0  0  0  0  0  2  0  0  0  0  0  0
  196.3740  175.4790  143.8850 C   0  0  0  0  0  2  0  0  0  0  0  0
  196.7130  176.7920  143.3640 N   0  0  0  0  0  1  0  0  0  0  0  0
  1 11  1  0  0  0  0
  2  5  2  0  0  0  0
  3 12  1  0  0  0  0
  4  1  2  0  0  0  0
  5 11  1  0  0  0  0
  6  4  1  0  0  0  0
  7 10  1  0  0  0  0
  8  2  1  0  0  0  0
  8  4  1  0  0  0  0
  9  3  2  0  0  0  0
 10 12  1  0  0  0  0
 10  8  2  0  0  0  0
 12  6  2  0  0  0  0
 13  9  1  0  0  0  0
 13  7  2  0  0  0  0
 14  9  1  0  0  0  0
 15 20  1  0  0  0  0
 15  2  1  0  0  0  0
 16 19  1  0  0  0  0
 17 21  1  0  0  0  0
 18 23  2  0  0  0  0
 18 19  1  0  0  0  0
 19 17  2  0  0  0  0
 20 23  1  0  0  0  0
 21 24  1  0  0  0  0
 22 21  2  0  0  0  0
 23 22  1  0  0  0  0
 25 24  1  0  0  0  0
 26 25  1  0  0  0  0
M  END
>  <MODEL>
8

>  <REMARK>
 VINA RESULT:      -7.1      1.867      2.367
  Name = 
  4 active torsions:
  status: ('A' for Active; 'I' for Inactive)
    1  A    between atoms: C_2  and  N_4
    2  A    between atoms: N_4  and  N_10
    3  A    between atoms: C_13  and  C_23
    4  A    between atoms: C_17  and  C_23
                            x       y       z     vdW  Elec       q    Type
                         _______ _______ _______ _____ _____    ______ ____

>  <TORSDO>
F 4

$$$$
=
 OpenBabel11042417213D

 26 29  0  0  1  0  0  0  0  0999 V2000
  184.0680  178.3370  141.4730 C   0  0  0  0  0  3  0  0  0  0  0  0
  186.8810  177.5620  141.6580 C   0  0  0  0  0  0  0  0  0  0  0  0
  184.8670  178.2160  146.1450 C   0  0  0  0  0  3  0  0  0  0  0  0
  184.6680  178.3030  142.6590 C   0  0  0  0  0  0  0  0  0  0  0  0
  186.2990  177.6010  140.4510 C   0  0  0  0  0  3  0  0  0  0  0  0
  184.0520  178.5110  143.9240 N   0  0  0  0  0  0  0  0  0  0  0  0
  187.2780  177.3880  144.9050 C   0  0  0  0  0  3  0  0  0  0  0  0
  186.0370  177.8860  142.8300 C   0  0  0  0  0  0  0  0  0  0  0  0
  185.9650  177.8120  146.9200 C   0  0  2  0  0  3  0  0  0  0  0  0
  186.1880  177.8110  144.1470 C   0  0  0  0  0  0  0  0  0  0  0  0
  184.8350  177.9540  140.2230 C   0  0  0  0  0  3  0  0  0  0  0  0
  184.9980  178.2040  144.7560 C   0  0  0  0  0  0  0  0  0  0  0  0
  187.1610  177.3950  146.3040 C   0  0  0  0  0  3  0  0  0  0  0  0
  185.8690  177.8170  148.3050 O   0  0  0  0  0  1  0  0  0  0  0  0
  188.2790  177.2720  141.7300 N   0  0  0  0  0  2  0  0  0  0  0  0
  188.2880  173.4210  138.3900 C   0  0  0  0  0  1  0  0  0  0  0  0
  189.1770  172.4800  140.4870 N   0  0  0  0  0  0  0  0  0  0  0  0
  188.5680  174.7540  140.4440 N   0  0  0  0  0  0  0  0  0  0  0  0
  188.6900  173.5550  139.8150 C   0  0  0  0  0  0  0  0  0  0  0  0
  188.7890  176.1550  142.4040 N   0  0  0  0  0  2  0  0  0  0  0  0
  189.5520  172.5840  141.7900 C   0  0  0  0  0  0  0  0  0  0  0  0
  189.4280  173.8040  142.4540 C   0  0  0  0  0  3  0  0  0  0  0  0
  188.9260  174.8970  141.7480 C   0  0  0  0  0  0  0  0  0  0  0  0
  190.0650  171.3870  142.5150 C   0  0  0  0  0  2  0  0  0  0  0  0
  190.8650  171.7960  143.7420 C   0  0  0  0  0  2  0  0  0  0  0  0
  192.0360  170.9470  143.8810 N   0  0  0  0  0  1  0  0  0  0  0  0
  1  4  1  0  0  0  0
  2 15  1  0  0  0  0
  2  8  1  0  0  0  0
  3  9  1  0  0  0  0
  4  8  1  0  0  0  0
  4  6  2  0  0  0  0
  5  2  2  0  0  0  0
  6 12  1  0  0  0  0
  7 13  2  0  0  0  0
  8 10  2  0  0  0  0
  9 14  1  6  0  0  0
 10 12  1  0  0  0  0
 10  7  1  0  0  0  0
 11  5  1  0  0  0  0
 11  1  2  0  0  0  0
 12  3  2  0  0  0  0
 13  9  1  0  0  0  0
 15 20  1  0  0  0  0
 16 19  1  0  0  0  0
 17 21  1  0  0  0  0
 18 23  2  0  0  0  0
 19 18  1  0  0  0  0
 19 17  2  0  0  0  0
 21 22  2  0  0  0  0
 21 24  1  0  0  0  0
 23 20  1  0  0  0  0
 23 22  1  0  0  0  0
 24 25  1  0  0  0  0
 25 26  1  0  0  0  0
M  END
>  <MODEL>
9

>  <REMARK>
 VINA RESULT:      -7.1      3.639      5.356
  Name = 
  4 active torsions:
  status: ('A' for Active; 'I' for Inactive)
    1  A    between atoms: C_2  and  N_4
    2  A    between atoms: N_4  and  N_10
    3  A    between atoms: C_13  and  C_23
    4  A    between atoms: C_17  and  C_23
                            x       y       z     vdW  Elec       q    Type
                         _______ _______ _______ _____ _____    ______ ____

>  <TORSDO>
F 4

$$$$
