=
 OpenBabel11042417503D

 57 63  0  0  1  0  0  0  0  0999 V2000
  188.5550  175.8290  142.0960 C   0  0  0  0  0  0  0  0  0  0  0  0
  185.3990  176.9460  146.8330 N   0  0  0  0  0  2  0  0  0  0  0  0
  187.4580  177.8620  147.4460 C   0  0  0  0  0  2  0  0  0  0  0  0
  189.2500  176.2350  145.3950 C   0  0  0  0  0  2  0  0  0  0  0  0
  187.3620  177.9090  145.9540 C   0  0  1  0  0  3  0  0  0  0  0  0
  186.3560  176.7460  142.0470 C   0  0  0  0  0  0  0  0  0  0  0  0
  188.6970  177.6540  145.2390 C   0  0  0  0  0  2  0  0  0  0  0  0
  183.8870  178.2830  143.0040 C   0  0  0  0  0  3  0  0  0  0  0  0
  190.1720  175.8890  144.2180 C   0  0  2  0  0  3  0  0  0  0  0  0
  186.1800  176.3680  143.2790 N   0  0  0  0  0  0  0  0  0  0  0  0
  185.6160  177.0940  144.3750 C   0  0  0  0  0  0  0  0  0  0  0  0
  189.3650  175.8180  142.9860 C   0  0  0  0  0  0  0  0  0  0  0  0
  186.1570  177.4020  147.9360 N   0  0  0  0  0  2  0  0  0  0  0  0
  187.3600  175.9490  141.2430 C   0  0  1  0  0  3  0  0  0  0  0  0
  185.9080  178.1020  141.5930 C   0  0  0  0  0  2  0  0  0  0  0  0
  184.4400  178.2830  141.7890 C   0  0  0  0  0  0  0  0  0  0  0  0
  186.3010  176.8840  145.6930 C   0  0  2  0  0  3  0  0  0  0  0  0
  184.5860  177.9430  144.2550 C   0  0  0  0  0  3  0  0  0  0  0  0
  193.1310  173.5500  145.1930 C   0  0  2  0  0  3  0  0  0  0  0  0
  190.1910  173.3860  144.7160 C   0  0  0  0  0  2  0  0  0  0  0  0
  192.4960  172.3620  143.0550 N   0  0  0  0  0  2  0  0  0  0  0  0
  193.2270  172.3550  144.3260 C   0  0  1  0  0  0  0  0  0  0  0  0
  190.0760  172.6160  143.4050 C   0  0  0  0  0  2  0  0  0  0  0  0
  192.3400  174.7050  144.6280 C   0  0  0  0  0  0  0  0  0  0  0  0
  192.9470  175.7810  144.3560 O   0  0  0  0  0  0  0  0  0  0  0  0
  190.9760  170.7890  142.0020 C   0  0  0  0  0  1  0  0  0  0  0  0
  194.7390  173.3950  144.2720 S   0  0  0  0  0  0  0  0  0  0  0  0
  190.9060  174.6460  144.4930 N   0  0  0  0  0  0  0  0  0  0  0  0
  191.2320  171.6470  143.2240 C   0  0  1  0  0  3  0  0  0  0  0  0
  194.6440  170.6840  145.4110 C   0  0  0  0  0  0  0  0  0  0  0  0
  196.8020  171.3090  146.0390 O   0  0  0  0  0  1  0  0  0  0  0  0
  196.1500  168.9060  146.0490 C   0  0  0  0  0  1  0  0  0  0  0  0
  195.8330  170.3390  145.8210 C   0  0  0  0  0  0  0  0  0  0  0  0
  193.4550  171.0360  145.0040 C   0  0  0  0  0  3  0  0  0  0  0  0
  183.6050  178.6400  140.6040 C   0  0  0  0  0  2  0  0  0  0  0  0
  182.3470  177.9070  140.6250 N   0  0  0  0  0  2  0  0  0  0  0  0
  181.3190  178.8550  140.4940 N   0  0  0  0  0  2  0  0  0  0  0  0
  180.0970  178.2250  140.9750 C   0  0  0  0  0  2  0  0  0  0  0  0
  179.0030  181.1110  140.2840 C   0  0  0  0  0  2  0  0  0  0  0  0
  177.6980  178.3620  137.6150 S   0  0  0  0  0  0  0  0  0  0  0  0
  177.7940  179.9520  138.4770 C   0  0  1  0  0  3  0  0  0  0  0  0
  179.0930  182.3730  139.4190 C   0  0  0  0  0  2  0  0  0  0  0  0
  179.0110  179.8950  139.3640 C   0  0  2  0  0  3  0  0  0  0  0  0
  177.9100  181.1460  137.5410 C   0  0  0  0  0  2  0  0  0  0  0  0
  177.9550  182.4240  138.3870 C   0  0  0  0  0  2  0  0  0  0  0  0
  178.9010  178.5650  140.0740 C   0  0  1  0  0  3  0  0  0  0  0  0
  178.5300  177.5100  139.0140 C   0  0  2  0  0  3  0  0  0  0  0  0
  179.7320  176.7320  138.4800 C   0  0  0  0  0  2  0  0  0  0  0  0
  179.3770  175.9650  137.2180 C   0  0  0  0  0  2  0  0  0  0  0  0
  180.2980  174.9380  137.0040 O   0  0  0  0  0  1  0  0  0  0  0  0
  187.7170  176.5950  139.9080 C   0  0  0  0  0  2  0  0  0  0  0  0
  186.6050  176.3710  138.8970 C   0  0  0  0  0  2  0  0  0  0  0  0
  187.1510  175.6980  137.6510 C   0  0  0  0  0  2  0  0  0  0  0  0
  187.8980  174.5040  138.0170 N   0  0  0  0  0  2  0  0  0  0  0  0
  189.0070  174.0420  137.2420 C   0  0  0  0  0  0  0  0  0  0  0  0
  189.6940  172.9030  137.6390 O   0  0  0  0  0  1  0  0  0  0  0  0
  189.3720  174.6610  136.2030 O   0  0  0  0  0  0  0  0  0  0  0  0
  1 12  3  0  0  0  0
  2 13  1  0  0  0  0
  3 13  1  0  0  0  0
  5  7  1  6  0  0  0
  5  3  1  0  0  0  0
  6 10  2  0  0  0  0
  7  4  1  0  0  0  0
  8 18  1  0  0  0  0
  9 12  1  6  0  0  0
  9 28  1  0  0  0  0
  9  4  1  0  0  0  0
 10 11  1  0  0  0  0
 14 51  1  6  0  0  0
 14  6  1  0  0  0  0
 14  1  1  0  0  0  0
 15 16  1  0  0  0  0
 15  6  1  0  0  0  0
 16  8  2  0  0  0  0
 17 11  1  6  0  0  0
 17  5  1  0  0  0  0
 17  2  1  0  0  0  0
 18 11  2  0  0  0  0
 19 27  1  6  0  0  0
 21 29  1  0  0  0  0
 21 22  1  0  0  0  0
 22 34  1  1  0  0  0
 22 19  1  0  0  0  0
 23 20  1  0  0  0  0
 24 19  1  0  0  0  0
 25 24  2  0  0  0  0
 27 22  1  0  0  0  0
 28 24  1  0  0  0  0
 28 20  1  0  0  0  0
 29 26  1  6  0  0  0
 29 23  1  0  0  0  0
 30 33  2  0  0  0  0
 33 31  1  0  0  0  0
 33 32  1  0  0  0  0
 34 30  2  0  0  0  0
 35 36  1  0  0  0  0
 35 16  1  0  0  0  0
 37 36  1  0  0  0  0
 37 38  1  0  0  0  0
 40 41  1  0  0  0  0
 40 47  1  0  0  0  0
 41 44  1  6  0  0  0
 41 43  1  0  0  0  0
 42 39  1  0  0  0  0
 43 46  1  0  0  0  0
 43 39  1  1  0  0  0
 44 45  1  0  0  0  0
 45 42  1  0  0  0  0
 46 38  1  6  0  0  0
 47 48  1  6  0  0  0
 47 46  1  0  0  0  0
 49 48  1  0  0  0  0
 50 49  1  0  0  0  0
 52 51  1  0  0  0  0
 53 54  1  0  0  0  0
 53 52  1  0  0  0  0
 55 56  1  0  0  0  0
 55 54  1  0  0  0  0
 57 55  2  0  0  0  0
M  END
>  <MODEL>
1

>  <REMARK>
 VINA RESULT:      -8.1      0.000      0.000
  Name = 
  13 active torsions:
  status: ('A' for Active; 'I' for Inactive)
    1  A    between atoms: N_2  and  C_27
    2  A    between atoms: N_5  and  C_22
    3  A    between atoms: N_5  and  N_48
    4  A    between atoms: C_9  and  C_26
    5  A    between atoms: C_14  and  C_27
    6  A    between atoms: C_14  and  C_50
    7  A    between atoms: C_22  and  C_54
    8  A    between atoms: C_23  and  C_46
    9  A    between atoms: C_26  and  C_52
   10  A    between atoms: C_30  and  N_53
   11  A    between atoms: C_43  and  C_50
   12  A    between atoms: C_44  and  C_47
   13  A    between atoms: C_44  and  N_48
                            x       y       z     vdW  Elec       q    Type
                         _______ _______ _______ _____ _____    ______ ____

>  <TORSDO>
F 13

$$$$
=
 OpenBabel11042417503D

 57 63  0  0  1  0  0  0  0  0999 V2000
  189.5220  174.4960  144.1280 C   0  0  0  0  0  0  0  0  0  0  0  0
  189.3750  171.0750  139.4470 N   0  0  0  0  0  2  0  0  0  0  0  0
  189.6350  173.1720  138.4540 C   0  0  0  0  0  2  0  0  0  0  0  0
  188.5770  174.9060  140.8920 C   0  0  0  0  0  2  0  0  0  0  0  0
  190.2350  173.2360  139.8230 C   0  0  1  0  0  3  0  0  0  0  0  0
  190.7600  172.4710  143.9170 C   0  0  0  0  0  0  0  0  0  0  0  0
  190.0290  174.5850  140.5280 C   0  0  0  0  0  2  0  0  0  0  0  0
  192.2490  170.1690  142.5540 C   0  0  0  0  0  3  0  0  0  0  0  0
  188.5270  175.8810  142.0750 C   0  0  2  0  0  3  0  0  0  0  0  0
  189.9980  172.1180  142.9240 N   0  0  0  0  0  0  0  0  0  0  0  0
  190.3630  171.5580  141.6600 C   0  0  0  0  0  0  0  0  0  0  0  0
  189.0480  175.2020  143.2750 C   0  0  0  0  0  0  0  0  0  0  0  0
  189.2620  171.7750  138.2240 N   0  0  0  0  0  2  0  0  0  0  0  0
  190.1480  173.4240  144.9210 C   0  0  1  0  0  3  0  0  0  0  0  0
  192.2440  172.2740  143.8480 C   0  0  0  0  0  2  0  0  0  0  0  0
  192.5930  170.8360  143.6580 C   0  0  0  0  0  0  0  0  0  0  0  0
  189.5740  172.0690  140.4910 C   0  0  2  0  0  3  0  0  0  0  0  0
  191.3630  170.6810  141.4940 C   0  0  0  0  0  3  0  0  0  0  0  0
  185.0290  177.3230  141.1490 C   0  0  2  0  0  3  0  0  0  0  0  0
  186.4410  176.1810  143.5150 C   0  0  0  0  0  2  0  0  0  0  0  0
  185.5940  179.0210  142.9340 N   0  0  0  0  0  2  0  0  0  0  0  0
  184.5890  178.3960  142.0680 C   0  0  1  0  0  0  0  0  0  0  0  0
  186.6400  177.3790  144.4360 C   0  0  0  0  0  2  0  0  0  0  0  0
  186.5100  177.0360  141.1420 C   0  0  0  0  0  0  0  0  0  0  0  0
  187.1710  177.2810  140.0920 O   0  0  0  0  0  0  0  0  0  0  0  0
  185.6830  179.4840  145.3150 C   0  0  0  0  0  1  0  0  0  0  0  0
  184.7150  178.9610  140.3260 S   0  0  0  0  0  0  0  0  0  0  0  0
  187.1610  176.3950  142.2560 N   0  0  0  0  0  0  0  0  0  0  0  0
  185.5340  178.4070  144.2590 C   0  0  1  0  0  3  0  0  0  0  0  0
  182.1750  178.2280  141.7230 C   0  0  0  0  0  0  0  0  0  0  0  0
  181.4030  177.6160  139.6080 O   0  0  0  0  0  1  0  0  0  0  0  0
  179.8140  178.5180  141.2990 C   0  0  0  0  0  1  0  0  0  0  0  0
  181.1820  178.1130  140.8860 C   0  0  0  0  0  0  0  0  0  0  0  0
  183.1720  178.3390  142.5570 C   0  0  0  0  0  3  0  0  0  0  0  0
  193.4940  170.1870  144.6550 C   0  0  0  0  0  2  0  0  0  0  0  0
  194.8900  170.3770  144.2850 N   0  0  0  0  0  2  0  0  0  0  0  0
  195.2620  171.6530  144.7360 N   0  0  0  0  0  2  0  0  0  0  0  0
  196.5650  171.9460  144.1540 C   0  0  0  0  0  2  0  0  0  0  0  0
  195.2050  172.5700  141.3680 C   0  0  0  0  0  2  0  0  0  0  0  0
  195.9420  175.9670  143.4400 S   0  0  0  0  0  0  0  0  0  0  0  0
  195.5060  174.9240  142.0250 C   0  0  1  0  0  3  0  0  0  0  0  0
  193.9450  172.9470  140.5810 C   0  0  0  0  0  2  0  0  0  0  0  0
  195.3380  173.5220  142.5500 C   0  0  2  0  0  3  0  0  0  0  0  0
  194.2280  175.3560  141.3220 C   0  0  0  0  0  2  0  0  0  0  0  0
  193.9860  174.4170  140.1340 C   0  0  0  0  0  2  0  0  0  0  0  0
  196.5560  173.2910  143.4150 C   0  0  1  0  0  3  0  0  0  0  0  0
  196.7420  174.5470  144.2890 C   0  0  2  0  0  3  0  0  0  0  0  0
  196.1510  174.4060  145.6910 C   0  0  0  0  0  2  0  0  0  0  0  0
  194.7560  175.0020  145.7640 C   0  0  0  0  0  2  0  0  0  0  0  0
  194.7130  176.0090  146.7310 O   0  0  0  0  0  1  0  0  0  0  0  0
  191.1610  174.0050  145.9020 C   0  0  0  0  0  2  0  0  0  0  0  0
  190.4910  175.0090  146.8250 C   0  0  0  0  0  2  0  0  0  0  0  0
  191.2490  176.3230  146.8170 C   0  0  0  0  0  2  0  0  0  0  0  0
  190.6490  177.2390  145.8590 N   0  0  0  0  0  2  0  0  0  0  0  0
  191.2790  177.5460  144.6130 C   0  0  0  0  0  0  0  0  0  0  0  0
  190.6610  178.4180  143.7290 O   0  0  0  0  0  0  0  0  0  0  0  0
  192.3900  177.0290  144.3060 O   0  0  0  0  0  1  0  0  0  0  0  0
  1 14  1  0  0  0  0
  5  3  1  6  0  0  0
  5 17  1  0  0  0  0
  5  7  1  0  0  0  0
  6 14  1  0  0  0  0
  7  4  1  0  0  0  0
  8 16  2  0  0  0  0
  9  4  1  6  0  0  0
  9 28  1  0  0  0  0
  9 12  1  0  0  0  0
 10  6  2  0  0  0  0
 11 10  1  0  0  0  0
 12  1  3  0  0  0  0
 13  3  1  0  0  0  0
 13  2  1  0  0  0  0
 14 51  1  1  0  0  0
 15  6  1  0  0  0  0
 16 15  1  0  0  0  0
 16 35  1  0  0  0  0
 17  2  1  6  0  0  0
 17 11  1  0  0  0  0
 18 11  2  0  0  0  0
 18  8  1  0  0  0  0
 19 27  1  6  0  0  0
 19 22  1  0  0  0  0
 20 23  1  0  0  0  0
 21 29  1  0  0  0  0
 22 34  1  1  0  0  0
 22 21  1  0  0  0  0
 24 19  1  0  0  0  0
 24 28  1  0  0  0  0
 25 24  2  0  0  0  0
 27 22  1  0  0  0  0
 28 20  1  0  0  0  0
 29 23  1  0  0  0  0
 29 26  1  1  0  0  0
 30 34  2  0  0  0  0
 31 33  1  0  0  0  0
 33 32  1  0  0  0  0
 33 30  2  0  0  0  0
 36 35  1  0  0  0  0
 36 37  1  0  0  0  0
 38 37  1  0  0  0  0
 40 47  1  0  0  0  0
 41 44  1  1  0  0  0
 41 43  1  0  0  0  0
 41 40  1  0  0  0  0
 42 39  1  0  0  0  0
 43 39  1  6  0  0  0
 43 46  1  0  0  0  0
 45 42  1  0  0  0  0
 45 44  1  0  0  0  0
 46 38  1  1  0  0  0
 46 47  1  0  0  0  0
 47 48  1  1  0  0  0
 48 49  1  0  0  0  0
 49 50  1  0  0  0  0
 51 52  1  0  0  0  0
 53 52  1  0  0  0  0
 54 53  1  0  0  0  0
 55 54  1  0  0  0  0
 56 55  2  0  0  0  0
 57 55  1  0  0  0  0
M  END
>  <MODEL>
2

>  <REMARK>
 VINA RESULT:      -7.9      3.005     12.493
  Name = 
  13 active torsions:
  status: ('A' for Active; 'I' for Inactive)
    1  A    between atoms: N_2  and  C_27
    2  A    between atoms: N_5  and  C_22
    3  A    between atoms: N_5  and  N_48
    4  A    between atoms: C_9  and  C_26
    5  A    between atoms: C_14  and  C_27
    6  A    between atoms: C_14  and  C_50
    7  A    between atoms: C_22  and  C_54
    8  A    between atoms: C_23  and  C_46
    9  A    between atoms: C_26  and  C_52
   10  A    between atoms: C_30  and  N_53
   11  A    between atoms: C_43  and  C_50
   12  A    between atoms: C_44  and  C_47
   13  A    between atoms: C_44  and  N_48
                            x       y       z     vdW  Elec       q    Type
                         _______ _______ _______ _____ _____    ______ ____

>  <TORSDO>
F 13

$$$$
=
 OpenBabel11042417503D

 57 63  0  0  1  0  0  0  0  0999 V2000
  190.2460  175.0370  144.4290 C   0  0  0  0  0  0  0  0  0  0  0  0
  190.0210  170.8370  140.4350 N   0  0  0  0  0  2  0  0  0  0  0  0
  190.0730  172.7360  139.0770 C   0  0  0  0  0  2  0  0  0  0  0  0
  189.0650  174.8140  141.2530 C   0  0  0  0  0  2  0  0  0  0  0  0
  190.7570  173.0750  140.3640 C   0  0  1  0  0  3  0  0  0  0  0  0
  191.6010  173.0770  144.4770 C   0  0  0  0  0  0  0  0  0  0  0  0
  190.5070  174.5140  140.8390 C   0  0  0  0  0  2  0  0  0  0  0  0
  193.1480  170.6550  143.4220 C   0  0  0  0  0  3  0  0  0  0  0  0
  189.0270  175.9790  142.2510 C   0  0  2  0  0  3  0  0  0  0  0  0
  190.8000  172.5120  143.6210 N   0  0  0  0  0  0  0  0  0  0  0  0
  191.1180  171.7580  142.4480 C   0  0  0  0  0  0  0  0  0  0  0  0
  189.6710  175.5530  143.5060 C   0  0  0  0  0  0  0  0  0  0  0  0
  189.7800  171.3020  139.1220 N   0  0  0  0  0  2  0  0  0  0  0  0
  190.9940  174.1580  145.3450 C   0  0  1  0  0  3  0  0  0  0  0  0
  193.0880  172.9530  144.3290 C   0  0  0  0  0  2  0  0  0  0  0  0
  193.5190  171.5250  144.3640 C   0  0  0  0  0  0  0  0  0  0  0  0
  190.2220  172.0100  141.2730 C   0  0  2  0  0  3  0  0  0  0  0  0
  192.1620  170.9220  142.3610 C   0  0  0  0  0  3  0  0  0  0  0  0
  185.4230  177.1550  141.3530 C   0  0  2  0  0  3  0  0  0  0  0  0
  186.9890  176.3160  143.7490 C   0  0  0  0  0  2  0  0  0  0  0  0
  185.9710  179.0420  142.9420 N   0  0  0  0  0  2  0  0  0  0  0  0
  184.9660  178.2890  142.1860 C   0  0  1  0  0  0  0  0  0  0  0  0
  187.1620  177.6060  144.5430 C   0  0  0  0  0  2  0  0  0  0  0  0
  186.9160  176.9400  141.3050 C   0  0  0  0  0  0  0  0  0  0  0  0
  187.5200  177.1150  140.2080 O   0  0  0  0  0  0  0  0  0  0  0  0
  186.1320  179.7360  145.2630 C   0  0  0  0  0  1  0  0  0  0  0  0
  184.9900  178.6890  140.3940 S   0  0  0  0  0  0  0  0  0  0  0  0
  187.6450  176.4420  142.4440 N   0  0  0  0  0  0  0  0  0  0  0  0
  185.9980  178.5570  144.3210 C   0  0  1  0  0  3  0  0  0  0  0  0
  182.5330  178.2080  141.9570 C   0  0  0  0  0  0  0  0  0  0  0  0
  181.6370  177.8350  139.8350 O   0  0  0  0  0  1  0  0  0  0  0  0
  180.1620  178.5900  141.6930 C   0  0  0  0  0  1  0  0  0  0  0  0
  181.4950  178.2010  141.1670 C   0  0  0  0  0  0  0  0  0  0  0  0
  183.5740  178.2110  142.7430 C   0  0  0  0  0  3  0  0  0  0  0  0
  194.5260  171.1120  145.3860 C   0  0  0  0  0  2  0  0  0  0  0  0
  195.5200  172.1590  145.5780 N   0  0  0  0  0  2  0  0  0  0  0  0
  196.5070  171.9690  144.5970 N   0  0  0  0  0  2  0  0  0  0  0  0
  197.3130  173.1830  144.5660 C   0  0  0  0  0  2  0  0  0  0  0  0
  196.4290  172.1610  141.7070 C   0  0  0  0  0  2  0  0  0  0  0  0
  195.4430  176.0480  142.2500 S   0  0  0  0  0  0  0  0  0  0  0  0
  195.7170  174.4940  141.3630 C   0  0  1  0  0  3  0  0  0  0  0  0
  195.3110  171.6780  140.7770 C   0  0  0  0  0  2  0  0  0  0  0  0
  195.9610  173.4320  142.4040 C   0  0  2  0  0  3  0  0  0  0  0  0
  194.5450  174.0790  140.4870 C   0  0  0  0  0  2  0  0  0  0  0  0
  194.9100  172.7710  139.7730 C   0  0  0  0  0  2  0  0  0  0  0  0
  196.9720  174.0470  143.3440 C   0  0  1  0  0  3  0  0  0  0  0  0
  196.5060  175.4860  143.6400 C   0  0  2  0  0  3  0  0  0  0  0  0
  195.7290  175.6190  144.9490 C   0  0  0  0  0  2  0  0  0  0  0  0
  194.9750  176.9360  145.0120 C   0  0  0  0  0  2  0  0  0  0  0  0
  194.7540  177.3010  146.3410 O   0  0  0  0  0  1  0  0  0  0  0  0
  192.0290  174.9580  146.1300 C   0  0  0  0  0  2  0  0  0  0  0  0
  191.5730  176.3980  146.2930 C   0  0  0  0  0  2  0  0  0  0  0  0
  190.8610  176.5810  147.6200 C   0  0  0  0  0  2  0  0  0  0  0  0
  189.4500  176.8550  147.3950 N   0  0  0  0  0  2  0  0  0  0  0  0
  188.4610  175.8240  147.4600 C   0  0  0  0  0  0  0  0  0  0  0  0
  187.1270  176.1390  147.2480 O   0  0  0  0  0  0  0  0  0  0  0  0
  188.7880  174.6310  147.7140 O   0  0  0  0  0  1  0  0  0  0  0  0
  1 14  1  0  0  0  0
  3 13  1  0  0  0  0
  5  3  1  6  0  0  0
  5  7  1  0  0  0  0
  5 17  1  0  0  0  0
  6 14  1  0  0  0  0
  7  4  1  0  0  0  0
  8 16  2  0  0  0  0
  9  4  1  6  0  0  0
  9 28  1  0  0  0  0
  9 12  1  0  0  0  0
 10  6  2  0  0  0  0
 11 10  1  0  0  0  0
 12  1  3  0  0  0  0
 13  2  1  0  0  0  0
 14 51  1  6  0  0  0
 15 16  1  0  0  0  0
 15  6  1  0  0  0  0
 16 35  1  0  0  0  0
 17  2  1  6  0  0  0
 17 11  1  0  0  0  0
 18 11  2  0  0  0  0
 18  8  1  0  0  0  0
 19 27  1  6  0  0  0
 19 22  1  0  0  0  0
 20 23  1  0  0  0  0
 21 29  1  0  0  0  0
 22 34  1  1  0  0  0
 22 21  1  0  0  0  0
 24 19  1  0  0  0  0
 24 28  1  0  0  0  0
 25 24  2  0  0  0  0
 27 22  1  0  0  0  0
 28 20  1  0  0  0  0
 29 23  1  0  0  0  0
 29 26  1  1  0  0  0
 30 34  2  0  0  0  0
 31 33  1  0  0  0  0
 33 32  1  0  0  0  0
 33 30  2  0  0  0  0
 35 36  1  0  0  0  0
 37 36  1  0  0  0  0
 38 37  1  0  0  0  0
 40 47  1  0  0  0  0
 41 44  1  1  0  0  0
 41 40  1  0  0  0  0
 41 43  1  0  0  0  0
 42 39  1  0  0  0  0
 43 39  1  6  0  0  0
 43 46  1  0  0  0  0
 45 44  1  0  0  0  0
 45 42  1  0  0  0  0
 46 47  1  0  0  0  0
 46 38  1  1  0  0  0
 47 48  1  1  0  0  0
 48 49  1  0  0  0  0
 49 50  1  0  0  0  0
 51 52  1  0  0  0  0
 52 53  1  0  0  0  0
 54 55  1  0  0  0  0
 54 53  1  0  0  0  0
 55 57  1  0  0  0  0
 56 55  2  0  0  0  0
M  END
>  <MODEL>
3

>  <REMARK>
 VINA RESULT:      -7.9      3.098     12.693
  Name = 
  13 active torsions:
  status: ('A' for Active; 'I' for Inactive)
    1  A    between atoms: N_2  and  C_27
    2  A    between atoms: N_5  and  C_22
    3  A    between atoms: N_5  and  N_48
    4  A    between atoms: C_9  and  C_26
    5  A    between atoms: C_14  and  C_27
    6  A    between atoms: C_14  and  C_50
    7  A    between atoms: C_22  and  C_54
    8  A    between atoms: C_23  and  C_46
    9  A    between atoms: C_26  and  C_52
   10  A    between atoms: C_30  and  N_53
   11  A    between atoms: C_43  and  C_50
   12  A    between atoms: C_44  and  C_47
   13  A    between atoms: C_44  and  N_48
                            x       y       z     vdW  Elec       q    Type
                         _______ _______ _______ _____ _____    ______ ____

>  <TORSDO>
F 13

$$$$
=
 OpenBabel11042417503D

 57 63  0  0  1  0  0  0  0  0999 V2000
  192.4310  172.7710  141.4260 C   0  0  0  0  0  0  0  0  0  0  0  0
  197.4650  175.6470  141.5990 N   0  0  0  0  0  2  0  0  0  0  0  0
  197.0600  175.3260  143.8770 C   0  0  0  0  0  2  0  0  0  0  0  0
  193.9320  174.8370  143.6640 C   0  0  0  0  0  2  0  0  0  0  0  0
  196.3840  174.2190  143.1310 C   0  0  1  0  0  3  0  0  0  0  0  0
  194.3100  172.2530  140.0550 C   0  0  0  0  0  0  0  0  0  0  0  0
  195.0430  173.7870  143.7430 C   0  0  0  0  0  2  0  0  0  0  0  0
  197.2400  172.0570  139.1920 C   0  0  0  0  0  3  0  0  0  0  0  0
  192.5550  174.1600  143.7010 C   0  0  2  0  0  3  0  0  0  0  0  0
  194.8210  173.4180  140.3300 N   0  0  0  0  0  0  0  0  0  0  0  0
  196.1640  173.7510  140.6940 C   0  0  0  0  0  0  0  0  0  0  0  0
  192.3800  173.3700  142.4690 C   0  0  0  0  0  0  0  0  0  0  0  0
  197.8360  176.0830  142.8920 N   0  0  0  0  0  2  0  0  0  0  0  0
  192.8020  172.1500  140.1430 C   0  0  1  0  0  3  0  0  0  0  0  0
  195.1670  171.0240  140.0520 C   0  0  0  0  0  2  0  0  0  0  0  0
  196.2790  171.1390  139.0640 C   0  0  0  0  0  0  0  0  0  0  0  0
  196.2890  174.8040  141.7550 C   0  0  2  0  0  3  0  0  0  0  0  0
  197.2460  173.1500  140.1800 C   0  0  0  0  0  3  0  0  0  0  0  0
  190.0140  176.4610  145.5510 C   0  0  2  0  0  3  0  0  0  0  0  0
  191.1360  176.0880  142.8140 C   0  0  0  0  0  2  0  0  0  0  0  0
  188.3820  175.4800  143.8900 N   0  0  0  0  0  2  0  0  0  0  0  0
  188.6950  176.5120  144.8840 C   0  0  1  0  0  0  0  0  0  0  0  0
  189.9700  175.5200  142.0140 C   0  0  0  0  0  2  0  0  0  0  0  0
  190.8830  175.2810  145.1910 C   0  0  0  0  0  0  0  0  0  0  0  0
  191.1500  174.4280  146.0850 O   0  0  0  0  0  0  0  0  0  0  0  0
  187.5280  175.5610  141.6190 C   0  0  0  0  0  1  0  0  0  0  0  0
  188.5950  175.8820  146.6050 S   0  0  0  0  0  0  0  0  0  0  0  0
  191.4980  175.1640  143.8930 N   0  0  0  0  0  0  0  0  0  0  0  0
  188.6350  176.0100  142.5510 C   0  0  1  0  0  3  0  0  0  0  0  0
  186.7940  178.0470  144.9740 C   0  0  0  0  0  0  0  0  0  0  0  0
  184.8480  177.3310  146.0430 O   0  0  0  0  0  1  0  0  0  0  0  0
  184.8130  179.3900  144.6440 C   0  0  0  0  0  1  0  0  0  0  0  0
  185.5280  178.2270  145.2290 C   0  0  0  0  0  0  0  0  0  0  0  0
  188.0610  177.8630  144.7240 C   0  0  0  0  0  3  0  0  0  0  0  0
  196.4020  170.0920  138.0080 C   0  0  0  0  0  2  0  0  0  0  0  0
  196.2310  170.6760  136.6850 N   0  0  0  0  0  2  0  0  0  0  0  0
  194.8490  170.7700  136.4550 N   0  0  0  0  0  2  0  0  0  0  0  0
  194.6700  171.6310  135.2930 C   0  0  0  0  0  2  0  0  0  0  0  0
  191.6640  170.7930  135.8040 C   0  0  0  0  0  2  0  0  0  0  0  0
  192.3170  174.6470  136.8520 S   0  0  0  0  0  0  0  0  0  0  0  0
  191.3770  173.1480  136.4670 C   0  0  1  0  0  3  0  0  0  0  0  0
  190.5710  170.3770  136.7940 C   0  0  0  0  0  2  0  0  0  0  0  0
  192.3730  172.0230  136.3580 C   0  0  2  0  0  3  0  0  0  0  0  0
  190.3340  172.7960  137.5170 C   0  0  0  0  0  2  0  0  0  0  0  0
  189.5940  171.5320  137.0640 C   0  0  0  0  0  2  0  0  0  0  0  0
  193.4710  172.5710  135.4750 C   0  0  1  0  0  3  0  0  0  0  0  0
  193.7930  173.9930  135.9750 C   0  0  2  0  0  3  0  0  0  0  0  0
  194.9970  174.0510  136.9130 C   0  0  0  0  0  2  0  0  0  0  0  0
  195.7390  175.3700  136.7790 C   0  0  0  0  0  2  0  0  0  0  0  0
  197.0390  175.2440  137.2710 O   0  0  0  0  0  1  0  0  0  0  0  0
  192.2870  170.7170  140.0720 C   0  0  0  0  0  2  0  0  0  0  0  0
  190.8860  170.6270  140.6520 C   0  0  0  0  0  2  0  0  0  0  0  0
  190.8500  169.6290  141.7940 C   0  0  0  0  0  2  0  0  0  0  0  0
  192.1930  169.1450  142.0770 N   0  0  0  0  0  2  0  0  0  0  0  0
  192.8860  169.5020  143.2750 C   0  0  0  0  0  0  0  0  0  0  0  0
  194.1620  169.0060  143.5020 O   0  0  0  0  0  0  0  0  0  0  0  0
  192.3500  170.2600  144.1310 O   0  0  0  0  0  1  0  0  0  0  0  0
  1 12  3  0  0  0  0
  2 17  1  0  0  0  0
  2 13  1  0  0  0  0
  4  9  1  0  0  0  0
  4  7  1  0  0  0  0
  5  7  1  1  0  0  0
  5  3  1  0  0  0  0
  6 14  1  0  0  0  0
  6 10  2  0  0  0  0
  8 18  1  0  0  0  0
  9 12  1  6  0  0  0
  9 28  1  0  0  0  0
 10 11  1  0  0  0  0
 13  3  1  0  0  0  0
 14 51  1  1  0  0  0
 14  1  1  0  0  0  0
 15  6  1  0  0  0  0
 16  8  2  0  0  0  0
 16 15  1  0  0  0  0
 17 11  1  6  0  0  0
 17  5  1  0  0  0  0
 18 11  2  0  0  0  0
 19 24  1  6  0  0  0
 19 27  1  0  0  0  0
 20 28  1  0  0  0  0
 21 22  1  0  0  0  0
 22 34  1  6  0  0  0
 22 19  1  0  0  0  0
 22 27  1  0  0  0  0
 23 29  1  0  0  0  0
 23 20  1  0  0  0  0
 24 25  2  0  0  0  0
 28 24  1  0  0  0  0
 29 26  1  6  0  0  0
 29 21  1  0  0  0  0
 30 33  2  0  0  0  0
 32 33  1  0  0  0  0
 33 31  1  0  0  0  0
 34 30  2  0  0  0  0
 35 16  1  0  0  0  0
 36 35  1  0  0  0  0
 37 36  1  0  0  0  0
 38 37  1  0  0  0  0
 39 42  1  0  0  0  0
 41 40  1  0  0  0  0
 41 44  1  1  0  0  0
 42 45  1  0  0  0  0
 43 39  1  6  0  0  0
 43 41  1  0  0  0  0
 45 44  1  0  0  0  0
 46 38  1  1  0  0  0
 46 47  1  0  0  0  0
 46 43  1  0  0  0  0
 47 40  1  0  0  0  0
 47 48  1  1  0  0  0
 49 48  1  0  0  0  0
 49 50  1  0  0  0  0
 51 52  1  0  0  0  0
 52 53  1  0  0  0  0
 53 54  1  0  0  0  0
 54 55  1  0  0  0  0
 55 56  2  0  0  0  0
 55 57  1  0  0  0  0
M  END
>  <MODEL>
4

>  <REMARK>
 VINA RESULT:      -7.7      5.453     11.510
  Name = 
  13 active torsions:
  status: ('A' for Active; 'I' for Inactive)
    1  A    between atoms: N_2  and  C_27
    2  A    between atoms: N_5  and  C_22
    3  A    between atoms: N_5  and  N_48
    4  A    between atoms: C_9  and  C_26
    5  A    between atoms: C_14  and  C_27
    6  A    between atoms: C_14  and  C_50
    7  A    between atoms: C_22  and  C_54
    8  A    between atoms: C_23  and  C_46
    9  A    between atoms: C_26  and  C_52
   10  A    between atoms: C_30  and  N_53
   11  A    between atoms: C_43  and  C_50
   12  A    between atoms: C_44  and  C_47
   13  A    between atoms: C_44  and  N_48
                            x       y       z     vdW  Elec       q    Type
                         _______ _______ _______ _____ _____    ______ ____

>  <TORSDO>
F 13

$$$$
=
 OpenBabel11042417503D

 57 63  0  0  1  0  0  0  0  0999 V2000
  192.2700  172.4210  141.6050 C   0  0  0  0  0  0  0  0  0  0  0  0
  196.3550  176.5370  141.5410 N   0  0  0  0  0  2  0  0  0  0  0  0
  196.2800  176.0240  143.8180 C   0  0  0  0  0  2  0  0  0  0  0  0
  193.3880  174.7180  143.8410 C   0  0  0  0  0  2  0  0  0  0  0  0
  195.8500  174.8080  143.0600 C   0  0  1  0  0  3  0  0  0  0  0  0
  194.0720  172.4870  140.0470 C   0  0  0  0  0  0  0  0  0  0  0  0
  194.7400  174.0050  143.7540 C   0  0  0  0  0  2  0  0  0  0  0  0
  196.8480  173.1240  138.9260 C   0  0  0  0  0  3  0  0  0  0  0  0
  192.2500  173.6950  143.9490 C   0  0  2  0  0  3  0  0  0  0  0  0
  194.2820  173.7330  140.3550 N   0  0  0  0  0  0  0  0  0  0  0  0
  195.5180  174.4010  140.6240 C   0  0  0  0  0  0  0  0  0  0  0  0
  192.1670  172.9390  142.6870 C   0  0  0  0  0  0  0  0  0  0  0  0
  196.7260  177.0020  142.8240 N   0  0  0  0  0  2  0  0  0  0  0  0
  192.6620  171.9780  140.2560 C   0  0  1  0  0  3  0  0  0  0  0  0
  195.2190  171.5350  139.8880 C   0  0  0  0  0  2  0  0  0  0  0  0
  196.1560  171.9870  138.8190 C   0  0  0  0  0  0  0  0  0  0  0  0
  195.4660  175.4030  141.7390 C   0  0  2  0  0  3  0  0  0  0  0  0
  196.6630  174.1350  139.9800 C   0  0  0  0  0  3  0  0  0  0  0  0
  188.9180  175.6550  143.4710 C   0  0  2  0  0  3  0  0  0  0  0  0
  190.3610  174.1500  145.6040 C   0  0  0  0  0  2  0  0  0  0  0  0
  189.8670  177.1130  145.3030 N   0  0  0  0  0  2  0  0  0  0  0  0
  188.7130  176.6980  144.4990 C   0  0  1  0  0  0  0  0  0  0  0  0
  190.8040  175.2330  146.5800 C   0  0  0  0  0  2  0  0  0  0  0  0
  190.3380  175.1760  143.2990 C   0  0  0  0  0  0  0  0  0  0  0  0
  190.9320  175.4170  142.2080 O   0  0  0  0  0  0  0  0  0  0  0  0
  190.2280  177.3670  147.6900 C   0  0  0  0  0  1  0  0  0  0  0  0
  188.7610  177.3800  142.7960 S   0  0  0  0  0  0  0  0  0  0  0  0
  190.9900  174.3670  144.2980 N   0  0  0  0  0  0  0  0  0  0  0  0
  189.8400  176.4080  146.5830 C   0  0  1  0  0  3  0  0  0  0  0  0
  186.5330  177.7590  144.8170 C   0  0  0  0  0  0  0  0  0  0  0  0
  185.8930  179.4320  143.3230 O   0  0  0  0  0  1  0  0  0  0  0  0
  184.6080  179.0860  145.4260 C   0  0  0  0  0  1  0  0  0  0  0  0
  185.7190  178.7290  144.5080 C   0  0  0  0  0  0  0  0  0  0  0  0
  187.3500  176.7880  145.1210 C   0  0  0  0  0  3  0  0  0  0  0  0
  196.4450  171.0570  137.6880 C   0  0  0  0  0  2  0  0  0  0  0  0
  195.9120  171.5860  136.4410 N   0  0  0  0  0  2  0  0  0  0  0  0
  194.5510  171.2430  136.3990 N   0  0  0  0  0  2  0  0  0  0  0  0
  193.9440  172.0410  135.3420 C   0  0  0  0  0  2  0  0  0  0  0  0
  191.6110  170.0390  136.0840 C   0  0  0  0  0  2  0  0  0  0  0  0
  190.7450  173.8120  137.2640 S   0  0  0  0  0  0  0  0  0  0  0  0
  190.4620  172.0630  136.8910 C   0  0  1  0  0  3  0  0  0  0  0  0
  190.8920  169.2020  137.1480 C   0  0  0  0  0  2  0  0  0  0  0  0
  191.8120  171.4470  136.6330 C   0  0  2  0  0  3  0  0  0  0  0  0
  189.7690  171.3060  138.0130 C   0  0  0  0  0  2  0  0  0  0  0  0
  189.5640  169.8530  137.5660 C   0  0  0  0  0  2  0  0  0  0  0  0
  192.4920  172.4050  135.6810 C   0  0  1  0  0  3  0  0  0  0  0  0
  192.2580  173.8290  136.2220 C   0  0  2  0  0  3  0  0  0  0  0  0
  193.4260  174.3670  137.0470 C   0  0  0  0  0  2  0  0  0  0  0  0
  193.9180  175.6980  136.5040 C   0  0  0  0  0  2  0  0  0  0  0  0
  192.8330  176.5090  136.1630 O   0  0  0  0  0  1  0  0  0  0  0  0
  192.5400  170.4620  140.1320 C   0  0  0  0  0  2  0  0  0  0  0  0
  191.5270  169.9290  141.1320 C   0  0  0  0  0  2  0  0  0  0  0  0
  192.1320  168.8010  141.9470 C   0  0  0  0  0  2  0  0  0  0  0  0
  192.3970  169.2550  143.3040 N   0  0  0  0  0  2  0  0  0  0  0  0
  193.6880  169.7240  143.7030 C   0  0  0  0  0  0  0  0  0  0  0  0
  193.8870  170.1560  145.0070 O   0  0  0  0  0  1  0  0  0  0  0  0
  194.6470  169.7540  142.8830 O   0  0  0  0  0  0  0  0  0  0  0  0
  1 12  3  0  0  0  0
  2 17  1  0  0  0  0
  2 13  1  0  0  0  0
  4  9  1  0  0  0  0
  5  7  1  1  0  0  0
  5  3  1  0  0  0  0
  6 14  1  0  0  0  0
  6 10  2  0  0  0  0
  7  4  1  0  0  0  0
  8 18  1  0  0  0  0
  9 12  1  6  0  0  0
  9 28  1  0  0  0  0
 10 11  1  0  0  0  0
 13  3  1  0  0  0  0
 14 51  1  1  0  0  0
 14  1  1  0  0  0  0
 15  6  1  0  0  0  0
 16  8  2  0  0  0  0
 16 15  1  0  0  0  0
 17 11  1  6  0  0  0
 17  5  1  0  0  0  0
 18 11  2  0  0  0  0
 19 27  1  6  0  0  0
 19 22  1  0  0  0  0
 20 23  1  0  0  0  0
 21 29  1  0  0  0  0
 22 34  1  1  0  0  0
 22 21  1  0  0  0  0
 23 29  1  0  0  0  0
 24 19  1  0  0  0  0
 24 28  1  0  0  0  0
 25 24  2  0  0  0  0
 27 22  1  0  0  0  0
 28 20  1  0  0  0  0
 29 26  1  1  0  0  0
 30 34  2  0  0  0  0
 31 33  1  0  0  0  0
 33 30  2  0  0  0  0
 33 32  1  0  0  0  0
 35 16  1  0  0  0  0
 36 35  1  0  0  0  0
 37 36  1  0  0  0  0
 38 37  1  0  0  0  0
 39 42  1  0  0  0  0
 41 40  1  0  0  0  0
 41 44  1  1  0  0  0
 42 45  1  0  0  0  0
 43 39  1  6  0  0  0
 43 41  1  0  0  0  0
 45 44  1  0  0  0  0
 46 38  1  1  0  0  0
 46 47  1  0  0  0  0
 46 43  1  0  0  0  0
 47 48  1  1  0  0  0
 47 40  1  0  0  0  0
 49 48  1  0  0  0  0
 50 49  1  0  0  0  0
 51 52  1  0  0  0  0
 52 53  1  0  0  0  0
 53 54  1  0  0  0  0
 54 55  1  0  0  0  0
 55 56  1  0  0  0  0
 57 55  2  0  0  0  0
M  END
>  <MODEL>
5

>  <REMARK>
 VINA RESULT:      -7.7      5.509     11.230
  Name = 
  13 active torsions:
  status: ('A' for Active; 'I' for Inactive)
    1  A    between atoms: N_2  and  C_27
    2  A    between atoms: N_5  and  C_22
    3  A    between atoms: N_5  and  N_48
    4  A    between atoms: C_9  and  C_26
    5  A    between atoms: C_14  and  C_27
    6  A    between atoms: C_14  and  C_50
    7  A    between atoms: C_22  and  C_54
    8  A    between atoms: C_23  and  C_46
    9  A    between atoms: C_26  and  C_52
   10  A    between atoms: C_30  and  N_53
   11  A    between atoms: C_43  and  C_50
   12  A    between atoms: C_44  and  C_47
   13  A    between atoms: C_44  and  N_48
                            x       y       z     vdW  Elec       q    Type
                         _______ _______ _______ _____ _____    ______ ____

>  <TORSDO>
F 13

$$$$
=
 OpenBabel11042417503D

 57 63  0  0  1  0  0  0  0  0999 V2000
  192.1480  172.8920  142.2550 C   0  0  0  0  0  0  0  0  0  0  0  0
  196.8660  176.1630  141.4360 N   0  0  0  0  0  2  0  0  0  0  0  0
  196.6980  176.2060  143.7650 C   0  0  0  0  0  2  0  0  0  0  0  0
  193.6270  175.4290  143.9600 C   0  0  0  0  0  2  0  0  0  0  0  0
  196.0720  174.9350  143.2840 C   0  0  1  0  0  3  0  0  0  0  0  0
  193.9410  172.3050  140.8000 C   0  0  0  0  0  0  0  0  0  0  0  0
  194.8400  174.5040  144.0930 C   0  0  0  0  0  2  0  0  0  0  0  0
  196.7890  172.2070  139.6830 C   0  0  0  0  0  3  0  0  0  0  0  0
  192.3340  174.6560  144.2490 C   0  0  2  0  0  3  0  0  0  0  0  0
  194.3560  173.5370  140.8280 N   0  0  0  0  0  0  0  0  0  0  0  0
  195.6860  174.0380  140.9910 C   0  0  0  0  0  0  0  0  0  0  0  0
  192.1300  173.6550  143.1870 C   0  0  0  0  0  0  0  0  0  0  0  0
  197.3050  176.8440  142.5950 N   0  0  0  0  0  2  0  0  0  0  0  0
  192.4650  172.0930  141.0590 C   0  0  1  0  0  3  0  0  0  0  0  0
  194.9120  171.1680  140.9090 C   0  0  0  0  0  2  0  0  0  0  0  0
  195.9160  171.2050  139.8060 C   0  0  0  0  0  0  0  0  0  0  0  0
  195.7990  175.2650  141.8480 C   0  0  2  0  0  3  0  0  0  0  0  0
  196.7730  173.4500  140.4730 C   0  0  0  0  0  3  0  0  0  0  0  0
  189.5200  176.7420  145.9540 C   0  0  2  0  0  3  0  0  0  0  0  0
  190.8640  176.5160  143.3010 C   0  0  0  0  0  2  0  0  0  0  0  0
  188.0820  175.7080  144.1510 N   0  0  0  0  0  2  0  0  0  0  0  0
  188.2530  176.7290  145.1900 C   0  0  1  0  0  0  0  0  0  0  0  0
  189.7980  175.8990  142.4030 C   0  0  0  0  0  2  0  0  0  0  0  0
  190.4870  175.6290  145.6340 C   0  0  0  0  0  0  0  0  0  0  0  0
  190.7410  174.7690  146.5250 O   0  0  0  0  0  0  0  0  0  0  0  0
  187.3950  175.8000  141.8240 C   0  0  0  0  0  1  0  0  0  0  0  0
  188.0660  176.0470  146.8830 S   0  0  0  0  0  0  0  0  0  0  0  0
  191.2030  175.5860  144.3830 N   0  0  0  0  0  0  0  0  0  0  0  0
  188.3990  176.2900  142.8480 C   0  0  1  0  0  3  0  0  0  0  0  0
  186.2850  178.1750  145.3120 C   0  0  0  0  0  0  0  0  0  0  0  0
  184.4230  177.4050  146.4890 O   0  0  0  0  0  1  0  0  0  0  0  0
  184.2280  179.4100  145.0260 C   0  0  0  0  0  1  0  0  0  0  0  0
  185.0240  178.3030  145.6170 C   0  0  0  0  0  0  0  0  0  0  0  0
  187.5480  178.0420  145.0130 C   0  0  0  0  0  3  0  0  0  0  0  0
  196.0490  170.0050  138.9270 C   0  0  0  0  0  2  0  0  0  0  0  0
  194.7370  169.4840  138.5710 N   0  0  0  0  0  2  0  0  0  0  0  0
  194.1100  170.4600  137.7800 N   0  0  0  0  0  2  0  0  0  0  0  0
  194.6200  170.3010  136.4250 C   0  0  0  0  0  2  0  0  0  0  0  0
  191.5710  170.3430  135.5840 C   0  0  0  0  0  2  0  0  0  0  0  0
  193.3670  173.8820  134.7910 S   0  0  0  0  0  0  0  0  0  0  0  0
  192.0850  172.6030  134.7500 C   0  0  1  0  0  3  0  0  0  0  0  0
  190.1350  170.7790  135.8910 C   0  0  0  0  0  2  0  0  0  0  0  0
  192.4870  171.5500  135.7500 C   0  0  2  0  0  3  0  0  0  0  0  0
  190.6970  173.1200  135.0940 C   0  0  0  0  0  2  0  0  0  0  0  0
  189.7060  171.9540  134.9980 C   0  0  0  0  0  2  0  0  0  0  0  0
  193.9450  171.2820  135.4560 C   0  0  1  0  0  3  0  0  0  0  0  0
  194.6360  172.6500  135.2850 C   0  0  2  0  0  3  0  0  0  0  0  0
  195.3410  173.1380  136.5500 C   0  0  0  0  0  2  0  0  0  0  0  0
  194.5620  174.2590  137.2170 C   0  0  0  0  0  2  0  0  0  0  0  0
  195.4340  175.2590  137.6520 O   0  0  0  0  0  1  0  0  0  0  0  0
  192.0910  170.6310  141.2760 C   0  0  0  0  0  2  0  0  0  0  0  0
  190.7330  170.3340  140.6620 C   0  0  0  0  0  2  0  0  0  0  0  0
  190.5900  171.0410  139.3270 C   0  0  0  0  0  2  0  0  0  0  0  0
  189.3810  171.8500  139.3190 N   0  0  0  0  0  2  0  0  0  0  0  0
  189.3900  173.2150  138.8940 C   0  0  0  0  0  0  0  0  0  0  0  0
  188.2070  173.9410  138.8950 O   0  0  0  0  0  1  0  0  0  0  0  0
  190.4610  173.7660  138.5130 O   0  0  0  0  0  0  0  0  0  0  0  0
  1 12  3  0  0  0  0
  2 17  1  0  0  0  0
  2 13  1  0  0  0  0
  4  7  1  0  0  0  0
  4  9  1  0  0  0  0
  5  3  1  1  0  0  0
  5  7  1  0  0  0  0
  6 10  2  0  0  0  0
  6 15  1  0  0  0  0
  6 14  1  0  0  0  0
  8 16  2  0  0  0  0
  8 18  1  0  0  0  0
  9 12  1  6  0  0  0
  9 28  1  0  0  0  0
 10 11  1  0  0  0  0
 13  3  1  0  0  0  0
 14 51  1  1  0  0  0
 14  1  1  0  0  0  0
 16 15  1  0  0  0  0
 17 11  1  6  0  0  0
 17  5  1  0  0  0  0
 18 11  2  0  0  0  0
 19 24  1  6  0  0  0
 19 27  1  0  0  0  0
 20 28  1  0  0  0  0
 21 22  1  0  0  0  0
 22 34  1  6  0  0  0
 22 19  1  0  0  0  0
 22 27  1  0  0  0  0
 23 29  1  0  0  0  0
 23 20  1  0  0  0  0
 24 25  2  0  0  0  0
 28 24  1  0  0  0  0
 29 26  1  6  0  0  0
 29 21  1  0  0  0  0
 30 33  2  0  0  0  0
 32 33  1  0  0  0  0
 33 31  1  0  0  0  0
 34 30  2  0  0  0  0
 35 16  1  0  0  0  0
 36 35  1  0  0  0  0
 37 36  1  0  0  0  0
 38 37  1  0  0  0  0
 39 42  1  0  0  0  0
 40 47  1  0  0  0  0
 41 40  1  0  0  0  0
 41 44  1  1  0  0  0
 41 43  1  0  0  0  0
 43 39  1  6  0  0  0
 45 44  1  0  0  0  0
 45 42  1  0  0  0  0
 46 43  1  0  0  0  0
 46 38  1  1  0  0  0
 47 46  1  0  0  0  0
 47 48  1  1  0  0  0
 48 49  1  0  0  0  0
 49 50  1  0  0  0  0
 52 51  1  0  0  0  0
 53 52  1  0  0  0  0
 54 53  1  0  0  0  0
 55 56  1  0  0  0  0
 55 54  1  0  0  0  0
 57 55  2  0  0  0  0
M  END
>  <MODEL>
6

>  <REMARK>
 VINA RESULT:      -7.4      5.214     11.259
  Name = 
  13 active torsions:
  status: ('A' for Active; 'I' for Inactive)
    1  A    between atoms: N_2  and  C_27
    2  A    between atoms: N_5  and  C_22
    3  A    between atoms: N_5  and  N_48
    4  A    between atoms: C_9  and  C_26
    5  A    between atoms: C_14  and  C_27
    6  A    between atoms: C_14  and  C_50
    7  A    between atoms: C_22  and  C_54
    8  A    between atoms: C_23  and  C_46
    9  A    between atoms: C_26  and  C_52
   10  A    between atoms: C_30  and  N_53
   11  A    between atoms: C_43  and  C_50
   12  A    between atoms: C_44  and  C_47
   13  A    between atoms: C_44  and  N_48
                            x       y       z     vdW  Elec       q    Type
                         _______ _______ _______ _____ _____    ______ ____

>  <TORSDO>
F 13

$$$$
=
 OpenBabel11042417503D

 57 63  0  0  1  0  0  0  0  0999 V2000
  190.6850  172.9060  139.7980 C   0  0  0  0  0  0  0  0  0  0  0  0
  194.6630  170.3970  143.1930 N   0  0  0  0  0  2  0  0  0  0  0  0
  192.6920  169.7040  144.2350 C   0  0  0  0  0  2  0  0  0  0  0  0
  190.7990  171.9630  143.0580 C   0  0  0  0  0  2  0  0  0  0  0  0
  192.3860  169.9410  142.7900 C   0  0  1  0  0  3  0  0  0  0  0  0
  192.5630  171.6910  138.9770 C   0  0  0  0  0  0  0  0  0  0  0  0
  190.9930  170.5360  142.5400 C   0  0  0  0  0  2  0  0  0  0  0  0
  194.8300  169.6340  138.9350 C   0  0  0  0  0  3  0  0  0  0  0  0
  189.6950  172.6740  142.2650 C   0  0  2  0  0  3  0  0  0  0  0  0
  193.1250  171.7840  140.1460 N   0  0  0  0  0  0  0  0  0  0  0  0
  193.7930  170.7770  140.9110 C   0  0  0  0  0  0  0  0  0  0  0  0
  190.1520  172.8640  140.8770 C   0  0  0  0  0  0  0  0  0  0  0  0
  194.1400  169.8520  144.3880 N   0  0  0  0  0  2  0  0  0  0  0  0
  191.5690  172.7760  138.6260 C   0  0  1  0  0  3  0  0  0  0  0  0
  192.5940  170.4000  138.2160 C   0  0  0  0  0  2  0  0  0  0  0  0
  193.9940  169.9600  137.9470 C   0  0  0  0  0  0  0  0  0  0  0  0
  193.5290  170.8230  142.3860 C   0  0  2  0  0  3  0  0  0  0  0  0
  194.5620  169.8210  140.3720 C   0  0  0  0  0  3  0  0  0  0  0  0
  187.5090  175.7170  143.3320 C   0  0  2  0  0  3  0  0  0  0  0  0
  190.1260  174.4680  144.0290 C   0  0  0  0  0  2  0  0  0  0  0  0
  189.5230  177.0410  142.5700 N   0  0  0  0  0  2  0  0  0  0  0  0
  188.2530  176.9960  143.3030 C   0  0  1  0  0  0  0  0  0  0  0  0
  191.1570  175.4540  143.4940 C   0  0  0  0  0  2  0  0  0  0  0  0
  188.1070  174.5950  142.5200 C   0  0  0  0  0  0  0  0  0  0  0  0
  187.4710  174.1660  141.5150 O   0  0  0  0  0  0  0  0  0  0  0  0
  191.7460  177.8310  143.1420 C   0  0  0  0  0  1  0  0  0  0  0  0
  186.7970  176.9960  142.1850 S   0  0  0  0  0  0  0  0  0  0  0  0
  189.3240  173.9350  142.9230 N   0  0  0  0  0  0  0  0  0  0  0  0
  190.6270  176.8790  143.5140 C   0  0  1  0  0  3  0  0  0  0  0  0
  187.0390  177.8230  145.2570 C   0  0  0  0  0  0  0  0  0  0  0  0
  185.2660  176.5460  146.0750 O   0  0  0  0  0  1  0  0  0  0  0  0
  185.5910  178.8810  146.8760 C   0  0  0  0  0  1  0  0  0  0  0  0
  185.9970  177.7260  146.0350 C   0  0  0  0  0  0  0  0  0  0  0  0
  188.0810  177.9140  144.4780 C   0  0  0  0  0  3  0  0  0  0  0  0
  194.4040  169.7230  136.5320 C   0  0  0  0  0  2  0  0  0  0  0  0
  194.6280  170.9870  135.8450 N   0  0  0  0  0  2  0  0  0  0  0  0
  196.0150  171.2080  135.8390 N   0  0  0  0  0  2  0  0  0  0  0  0
  196.2140  172.6510  135.8210 C   0  0  0  0  0  2  0  0  0  0  0  0
  196.1820  173.0190  138.9620 C   0  0  0  0  0  2  0  0  0  0  0  0
  193.7230  175.6700  137.1440 S   0  0  0  0  0  0  0  0  0  0  0  0
  194.4710  174.7290  138.4990 C   0  0  1  0  0  3  0  0  0  0  0  0
  196.6420  173.8070  140.1930 C   0  0  0  0  0  2  0  0  0  0  0  0
  195.6610  174.0060  137.9240 C   0  0  2  0  0  3  0  0  0  0  0  0
  194.9230  175.5950  139.6640 C   0  0  0  0  0  2  0  0  0  0  0  0
  195.5090  174.6840  140.7490 C   0  0  0  0  0  2  0  0  0  0  0  0
  195.1440  173.3730  136.6520 C   0  0  1  0  0  3  0  0  0  0  0  0
  194.3170  174.4420  135.9120 C   0  0  2  0  0  3  0  0  0  0  0  0
  195.0990  175.1690  134.8200 C   0  0  0  0  0  2  0  0  0  0  0  0
  195.4980  176.5660  135.2630 C   0  0  0  0  0  2  0  0  0  0  0  0
  196.8600  176.6030  135.5710 O   0  0  0  0  0  1  0  0  0  0  0  0
  190.7550  172.4720  137.3730 C   0  0  0  0  0  2  0  0  0  0  0  0
  190.4860  173.7480  136.5930 C   0  0  0  0  0  2  0  0  0  0  0  0
  189.1110  174.2940  136.9300 C   0  0  0  0  0  2  0  0  0  0  0  0
  188.6790  175.2280  135.9010 N   0  0  0  0  0  2  0  0  0  0  0  0
  187.4200  175.9010  135.9750 C   0  0  0  0  0  0  0  0  0  0  0  0
  187.0590  176.7910  134.9730 O   0  0  0  0  0  0  0  0  0  0  0  0
  186.6350  175.6990  136.9430 O   0  0  0  0  0  1  0  0  0  0  0  0
  1 12  3  0  0  0  0
  2 13  1  0  0  0  0
  3 13  1  0  0  0  0
  5  7  1  1  0  0  0
  5  3  1  0  0  0  0
  6 10  2  0  0  0  0
  7  4  1  0  0  0  0
  8 18  1  0  0  0  0
  9 12  1  6  0  0  0
  9 28  1  0  0  0  0
  9  4  1  0  0  0  0
 10 11  1  0  0  0  0
 14 51  1  6  0  0  0
 14  6  1  0  0  0  0
 14  1  1  0  0  0  0
 15  6  1  0  0  0  0
 16 15  1  0  0  0  0
 16  8  2  0  0  0  0
 17 11  1  6  0  0  0
 17  5  1  0  0  0  0
 17  2  1  0  0  0  0
 18 11  2  0  0  0  0
 19 27  1  6  0  0  0
 21 22  1  0  0  0  0
 21 29  1  0  0  0  0
 22 19  1  0  0  0  0
 22 34  1  1  0  0  0
 23 29  1  0  0  0  0
 23 20  1  0  0  0  0
 24 28  1  0  0  0  0
 24 19  1  0  0  0  0
 25 24  2  0  0  0  0
 27 22  1  0  0  0  0
 28 20  1  0  0  0  0
 29 26  1  6  0  0  0
 30 33  2  0  0  0  0
 33 31  1  0  0  0  0
 33 32  1  0  0  0  0
 34 30  2  0  0  0  0
 35 16  1  0  0  0  0
 36 35  1  0  0  0  0
 37 36  1  0  0  0  0
 38 37  1  0  0  0  0
 39 42  1  0  0  0  0
 40 41  1  0  0  0  0
 41 44  1  1  0  0  0
 42 45  1  0  0  0  0
 43 41  1  0  0  0  0
 43 39  1  1  0  0  0
 44 45  1  0  0  0  0
 46 38  1  6  0  0  0
 46 43  1  0  0  0  0
 47 48  1  6  0  0  0
 47 46  1  0  0  0  0
 47 40  1  0  0  0  0
 48 49  1  0  0  0  0
 49 50  1  0  0  0  0
 52 53  1  0  0  0  0
 52 51  1  0  0  0  0
 54 55  1  0  0  0  0
 54 53  1  0  0  0  0
 55 57  1  0  0  0  0
 56 55  2  0  0  0  0
M  END
>  <MODEL>
7

>  <REMARK>
 VINA RESULT:      -7.4      5.714     11.567
  Name = 
  13 active torsions:
  status: ('A' for Active; 'I' for Inactive)
    1  A    between atoms: N_2  and  C_27
    2  A    between atoms: N_5  and  C_22
    3  A    between atoms: N_5  and  N_48
    4  A    between atoms: C_9  and  C_26
    5  A    between atoms: C_14  and  C_27
    6  A    between atoms: C_14  and  C_50
    7  A    between atoms: C_22  and  C_54
    8  A    between atoms: C_23  and  C_46
    9  A    between atoms: C_26  and  C_52
   10  A    between atoms: C_30  and  N_53
   11  A    between atoms: C_43  and  C_50
   12  A    between atoms: C_44  and  C_47
   13  A    between atoms: C_44  and  N_48
                            x       y       z     vdW  Elec       q    Type
                         _______ _______ _______ _____ _____    ______ ____

>  <TORSDO>
F 13

$$$$
=
 OpenBabel11042417503D

 57 63  0  0  1  0  0  0  0  0999 V2000
  192.3550  172.7620  142.9070 C   0  0  0  0  0  0  0  0  0  0  0  0
  196.5880  176.2030  140.9380 N   0  0  0  0  0  2  0  0  0  0  0  0
  196.6200  176.7230  143.2140 C   0  0  0  0  0  2  0  0  0  0  0  0
  193.6840  175.7270  143.8940 C   0  0  0  0  0  2  0  0  0  0  0  0
  196.1010  175.3270  143.0700 C   0  0  1  0  0  3  0  0  0  0  0  0
  194.0700  172.0460  141.4150 C   0  0  0  0  0  0  0  0  0  0  0  0
  195.0000  174.9670  144.0780 C   0  0  0  0  0  2  0  0  0  0  0  0
  196.8030  171.9750  140.0380 C   0  0  0  0  0  3  0  0  0  0  0  0
  192.5150  174.9180  144.4710 C   0  0  2  0  0  3  0  0  0  0  0  0
  194.3450  173.2890  141.1480 N   0  0  0  0  0  0  0  0  0  0  0  0
  195.6190  173.9330  141.0610 C   0  0  0  0  0  0  0  0  0  0  0  0
  192.3330  173.7000  143.6620 C   0  0  0  0  0  0  0  0  0  0  0  0
  197.0470  177.1510  141.8800 N   0  0  0  0  0  2  0  0  0  0  0  0
  192.6550  171.7600  141.8700 C   0  0  1  0  0  3  0  0  0  0  0  0
  195.1680  171.0520  141.6450 C   0  0  0  0  0  2  0  0  0  0  0  0
  196.0620  170.9460  140.4550 C   0  0  0  0  0  0  0  0  0  0  0  0
  195.6680  175.3180  141.6350 C   0  0  2  0  0  3  0  0  0  0  0  0
  196.7160  173.3500  140.5570 C   0  0  0  0  0  3  0  0  0  0  0  0
  189.4780  176.8090  146.0130 C   0  0  2  0  0  3  0  0  0  0  0  0
  190.9170  176.6000  143.4090 C   0  0  0  0  0  2  0  0  0  0  0  0
  188.1920  175.5810  144.2170 N   0  0  0  0  0  2  0  0  0  0  0  0
  188.2410  176.6530  145.2160 C   0  0  1  0  0  0  0  0  0  0  0  0
  189.9370  175.8570  142.5080 C   0  0  0  0  0  2  0  0  0  0  0  0
  190.5500  175.7760  145.7650 C   0  0  0  0  0  0  0  0  0  0  0  0
  190.8510  174.9770  146.6980 O   0  0  0  0  0  0  0  0  0  0  0  0
  187.5710  175.5210  141.8710 C   0  0  0  0  0  1  0  0  0  0  0  0
  188.0650  176.0240  146.9310 S   0  0  0  0  0  0  0  0  0  0  0  0
  191.3030  175.7480  144.5370 N   0  0  0  0  0  0  0  0  0  0  0  0
  188.4960  176.1380  142.9000 C   0  0  1  0  0  3  0  0  0  0  0  0
  186.1670  177.9460  145.2950 C   0  0  0  0  0  0  0  0  0  0  0  0
  184.4040  177.1230  146.5820 O   0  0  0  0  0  1  0  0  0  0  0  0
  184.0110  178.9910  144.9840 C   0  0  0  0  0  1  0  0  0  0  0  0
  184.9080  177.9980  145.6280 C   0  0  0  0  0  0  0  0  0  0  0  0
  187.4290  177.8910  144.9670 C   0  0  0  0  0  3  0  0  0  0  0  0
  196.2510  169.6040  139.8270 C   0  0  0  0  0  2  0  0  0  0  0  0
  195.0300  169.1740  139.1620 N   0  0  0  0  0  2  0  0  0  0  0  0
  195.2380  169.3330  137.7830 N   0  0  0  0  0  2  0  0  0  0  0  0
  193.9590  169.7200  137.2020 C   0  0  0  0  0  2  0  0  0  0  0  0
  195.0250  172.6970  137.2070 C   0  0  0  0  0  2  0  0  0  0  0  0
  191.1630  172.5160  138.4010 S   0  0  0  0  0  0  0  0  0  0  0  0
  192.8010  173.2340  138.1180 C   0  0  1  0  0  3  0  0  0  0  0  0
  195.0810  174.0690  136.5260 C   0  0  0  0  0  2  0  0  0  0  0  0
  193.5700  172.2520  137.2730 C   0  0  2  0  0  3  0  0  0  0  0  0
  192.7620  174.5810  137.4130 C   0  0  0  0  0  2  0  0  0  0  0  0
  194.1990  175.0920  137.2590 C   0  0  0  0  0  2  0  0  0  0  0  0
  193.3470  170.9160  137.9460 C   0  0  1  0  0  3  0  0  0  0  0  0
  191.8450  170.8140  138.2750 C   0  0  2  0  0  3  0  0  0  0  0  0
  191.0450  170.0310  137.2360 C   0  0  0  0  0  2  0  0  0  0  0  0
  190.1000  169.0430  137.8980 C   0  0  0  0  0  2  0  0  0  0  0  0
  190.4840  168.8220  139.2220 O   0  0  0  0  0  1  0  0  0  0  0  0
  192.4670  170.3490  142.4170 C   0  0  0  0  0  2  0  0  0  0  0  0
  193.1980  170.1910  143.7400 C   0  0  0  0  0  2  0  0  0  0  0  0
  193.3860  168.7220  144.0690 C   0  0  0  0  0  2  0  0  0  0  0  0
  193.3280  168.5230  145.5090 N   0  0  0  0  0  2  0  0  0  0  0  0
  194.5100  168.4780  146.3120 C   0  0  0  0  0  0  0  0  0  0  0  0
  194.4010  168.2950  147.6840 O   0  0  0  0  0  1  0  0  0  0  0  0
  195.6520  168.6060  145.7890 O   0  0  0  0  0  0  0  0  0  0  0  0
  1 12  3  0  0  0  0
  2 13  1  0  0  0  0
  4  7  1  0  0  0  0
  4  9  1  0  0  0  0
  5  3  1  1  0  0  0
  5  7  1  0  0  0  0
  6 15  1  0  0  0  0
  6 14  1  0  0  0  0
  8 16  2  0  0  0  0
  8 18  1  0  0  0  0
  9 12  1  6  0  0  0
  9 28  1  0  0  0  0
 10  6  2  0  0  0  0
 11 10  1  0  0  0  0
 11 17  1  0  0  0  0
 13  3  1  0  0  0  0
 14 51  1  1  0  0  0
 14  1  1  0  0  0  0
 16 15  1  0  0  0  0
 17  2  1  6  0  0  0
 17  5  1  0  0  0  0
 18 11  2  0  0  0  0
 19 24  1  6  0  0  0
 19 27  1  0  0  0  0
 20 28  1  0  0  0  0
 21 22  1  0  0  0  0
 22 34  1  6  0  0  0
 22 19  1  0  0  0  0
 22 27  1  0  0  0  0
 23 29  1  0  0  0  0
 23 20  1  0  0  0  0
 24 25  2  0  0  0  0
 28 24  1  0  0  0  0
 29 26  1  6  0  0  0
 29 21  1  0  0  0  0
 30 33  2  0  0  0  0
 32 33  1  0  0  0  0
 33 31  1  0  0  0  0
 34 30  2  0  0  0  0
 35 16  1  0  0  0  0
 36 35  1  0  0  0  0
 37 36  1  0  0  0  0
 38 37  1  0  0  0  0
 41 44  1  6  0  0  0
 41 40  1  0  0  0  0
 42 39  1  0  0  0  0
 42 45  1  0  0  0  0
 43 39  1  1  0  0  0
 43 46  1  0  0  0  0
 43 41  1  0  0  0  0
 45 44  1  0  0  0  0
 46 38  1  6  0  0  0
 46 47  1  0  0  0  0
 47 48  1  6  0  0  0
 47 40  1  0  0  0  0
 48 49  1  0  0  0  0
 49 50  1  0  0  0  0
 51 52  1  0  0  0  0
 52 53  1  0  0  0  0
 53 54  1  0  0  0  0
 54 55  1  0  0  0  0
 55 56  1  0  0  0  0
 57 55  2  0  0  0  0
M  END
>  <MODEL>
8

>  <REMARK>
 VINA RESULT:      -7.4      5.239     11.693
  Name = 
  13 active torsions:
  status: ('A' for Active; 'I' for Inactive)
    1  A    between atoms: N_2  and  C_27
    2  A    between atoms: N_5  and  C_22
    3  A    between atoms: N_5  and  N_48
    4  A    between atoms: C_9  and  C_26
    5  A    between atoms: C_14  and  C_27
    6  A    between atoms: C_14  and  C_50
    7  A    between atoms: C_22  and  C_54
    8  A    between atoms: C_23  and  C_46
    9  A    between atoms: C_26  and  C_52
   10  A    between atoms: C_30  and  N_53
   11  A    between atoms: C_43  and  C_50
   12  A    between atoms: C_44  and  C_47
   13  A    between atoms: C_44  and  N_48
                            x       y       z     vdW  Elec       q    Type
                         _______ _______ _______ _____ _____    ______ ____

>  <TORSDO>
F 13

$$$$
=
 OpenBabel11042417503D

 57 63  0  0  1  0  0  0  0  0999 V2000
  192.3520  173.0720  143.9510 C   0  0  0  0  0  0  0  0  0  0  0  0
  196.3420  177.2510  144.4600 N   0  0  0  0  0  2  0  0  0  0  0  0
  194.8380  177.8690  146.1360 C   0  0  0  0  0  2  0  0  0  0  0  0
  192.3200  176.2960  145.0160 C   0  0  0  0  0  2  0  0  0  0  0  0
  194.7290  176.3890  145.9460 C   0  0  1  0  0  3  0  0  0  0  0  0
  194.7010  172.6750  143.9890 C   0  0  0  0  0  0  0  0  0  0  0  0
  193.3010  175.8470  146.1020 C   0  0  0  0  0  2  0  0  0  0  0  0
  197.6590  173.1310  144.6320 C   0  0  0  0  0  3  0  0  0  0  0  0
  191.1770  175.2820  144.8770 C   0  0  2  0  0  3  0  0  0  0  0  0
  194.9100  173.9340  143.7390 N   0  0  0  0  0  0  0  0  0  0  0  0
  195.8410  174.8330  144.3480 C   0  0  0  0  0  0  0  0  0  0  0  0
  191.7240  174.0170  144.3540 C   0  0  0  0  0  0  0  0  0  0  0  0
  195.9560  178.3180  145.3030 N   0  0  0  0  0  2  0  0  0  0  0  0
  193.3800  172.1120  143.5130 C   0  0  1  0  0  3  0  0  0  0  0  0
  195.5210  171.9530  145.0150 C   0  0  0  0  0  2  0  0  0  0  0  0
  196.9730  171.9870  144.6730 C   0  0  0  0  0  0  0  0  0  0  0  0
  195.3210  176.2210  144.5800 C   0  0  2  0  0  3  0  0  0  0  0  0
  197.0730  174.4780  144.7400 C   0  0  0  0  0  3  0  0  0  0  0  0
  187.9190  177.1900  143.9200 C   0  0  2  0  0  3  0  0  0  0  0  0
  190.2700  175.9350  142.5830 C   0  0  0  0  0  2  0  0  0  0  0  0
  187.3870  175.0460  142.6930 N   0  0  0  0  0  2  0  0  0  0  0  0
  187.1030  176.4670  142.9200 C   0  0  1  0  0  0  0  0  0  0  0  0
  189.6900  174.6990  141.9060 C   0  0  0  0  0  2  0  0  0  0  0  0
  188.9220  176.3520  144.6740 C   0  0  0  0  0  0  0  0  0  0  0  0
  188.7620  176.1850  145.9180 O   0  0  0  0  0  0  0  0  0  0  0  0
  187.7670  173.7250  140.6910 C   0  0  0  0  0  1  0  0  0  0  0  0
  186.2020  176.7590  144.4930 S   0  0  0  0  0  0  0  0  0  0  0  0
  190.1050  175.8330  144.0350 N   0  0  0  0  0  0  0  0  0  0  0  0
  188.2370  174.9100  141.5110 C   0  0  1  0  0  3  0  0  0  0  0  0
  185.3480  177.7710  141.8270 C   0  0  0  0  0  0  0  0  0  0  0  0
  183.5240  178.4570  143.1090 O   0  0  0  0  0  1  0  0  0  0  0  0
  183.4400  178.6440  140.6280 C   0  0  0  0  0  1  0  0  0  0  0  0
  184.1460  178.2730  141.8810 C   0  0  0  0  0  0  0  0  0  0  0  0
  186.5510  177.2700  141.7790 C   0  0  0  0  0  3  0  0  0  0  0  0
  197.7020  170.6910  144.5400 C   0  0  0  0  0  2  0  0  0  0  0  0
  197.3140  170.0090  143.3130 N   0  0  0  0  0  2  0  0  0  0  0  0
  197.9370  170.6880  142.2540 N   0  0  0  0  0  2  0  0  0  0  0  0
  197.1520  170.4180  141.0570 C   0  0  0  0  0  2  0  0  0  0  0  0
  197.1850  173.5790  141.1360 C   0  0  0  0  0  2  0  0  0  0  0  0
  193.7320  172.1830  139.5540 S   0  0  0  0  0  0  0  0  0  0  0  0
  194.8930  173.3820  140.2570 C   0  0  1  0  0  3  0  0  0  0  0  0
  197.3610  174.9060  140.3890 C   0  0  0  0  0  2  0  0  0  0  0  0
  196.2330  172.6990  140.3350 C   0  0  2  0  0  3  0  0  0  0  0  0
  195.0240  174.6550  139.4360 C   0  0  0  0  0  2  0  0  0  0  0  0
  196.0080  175.5930  140.1460 C   0  0  0  0  0  2  0  0  0  0  0  0
  195.9390  171.3540  140.9610 C   0  0  1  0  0  3  0  0  0  0  0  0
  194.6950  170.7830  140.2530 C   0  0  2  0  0  3  0  0  0  0  0  0
  195.0290  169.7980  139.1340 C   0  0  0  0  0  2  0  0  0  0  0  0
  194.3600  168.4540  139.3640 C   0  0  0  0  0  2  0  0  0  0  0  0
  193.4700  168.1750  138.3250 O   0  0  0  0  0  1  0  0  0  0  0  0
  193.0820  170.7200  144.0610 C   0  0  0  0  0  2  0  0  0  0  0  0
  191.6380  170.3370  143.7800 C   0  0  0  0  0  2  0  0  0  0  0  0
  191.5150  169.7090  142.4040 C   0  0  0  0  0  2  0  0  0  0  0  0
  190.9040  170.6510  141.4790 N   0  0  0  0  0  2  0  0  0  0  0  0
  190.4400  170.2460  140.1880 C   0  0  0  0  0  0  0  0  0  0  0  0
  189.8540  171.1810  139.3460 O   0  0  0  0  0  0  0  0  0  0  0  0
  190.5540  169.0480  139.8070 O   0  0  0  0  0  1  0  0  0  0  0  0
  1 12  3  0  0  0  0
  2 17  1  0  0  0  0
  2 13  1  0  0  0  0
  4  7  1  0  0  0  0
  5  7  1  6  0  0  0
  5  3  1  0  0  0  0
  6 15  1  0  0  0  0
  8 16  2  0  0  0  0
  8 18  1  0  0  0  0
  9 28  1  6  0  0  0
  9  4  1  0  0  0  0
 10  6  2  0  0  0  0
 10 11  1  0  0  0  0
 11 18  2  0  0  0  0
 12  9  1  0  0  0  0
 13  3  1  0  0  0  0
 14  1  1  0  0  0  0
 14  6  1  0  0  0  0
 14 51  1  1  0  0  0
 16 15  1  0  0  0  0
 17 11  1  1  0  0  0
 17  5  1  0  0  0  0
 19 27  1  1  0  0  0
 19 24  1  0  0  0  0
 20 28  1  0  0  0  0
 21 22  1  0  0  0  0
 22 34  1  6  0  0  0
 22 19  1  0  0  0  0
 22 27  1  0  0  0  0
 23 20  1  0  0  0  0
 24 25  2  0  0  0  0
 28 24  1  0  0  0  0
 29 26  1  1  0  0  0
 29 23  1  0  0  0  0
 29 21  1  0  0  0  0
 30 33  2  0  0  0  0
 32 33  1  0  0  0  0
 33 31  1  0  0  0  0
 34 30  2  0  0  0  0
 35 16  1  0  0  0  0
 36 35  1  0  0  0  0
 37 36  1  0  0  0  0
 38 37  1  0  0  0  0
 40 47  1  0  0  0  0
 40 41  1  0  0  0  0
 41 44  1  6  0  0  0
 41 43  1  0  0  0  0
 42 39  1  0  0  0  0
 43 46  1  0  0  0  0
 43 39  1  1  0  0  0
 44 45  1  0  0  0  0
 45 42  1  0  0  0  0
 46 38  1  6  0  0  0
 47 48  1  6  0  0  0
 47 46  1  0  0  0  0
 48 49  1  0  0  0  0
 50 49  1  0  0  0  0
 52 51  1  0  0  0  0
 53 52  1  0  0  0  0
 54 53  1  0  0  0  0
 55 54  1  0  0  0  0
 56 55  2  0  0  0  0
 57 55  1  0  0  0  0
M  END
>  <MODEL>
9

>  <REMARK>
 VINA RESULT:      -7.2      4.137     12.148
  Name = 
  13 active torsions:
  status: ('A' for Active; 'I' for Inactive)
    1  A    between atoms: N_2  and  C_27
    2  A    between atoms: N_5  and  C_22
    3  A    between atoms: N_5  and  N_48
    4  A    between atoms: C_9  and  C_26
    5  A    between atoms: C_14  and  C_27
    6  A    between atoms: C_14  and  C_50
    7  A    between atoms: C_22  and  C_54
    8  A    between atoms: C_23  and  C_46
    9  A    between atoms: C_26  and  C_52
   10  A    between atoms: C_30  and  N_53
   11  A    between atoms: C_43  and  C_50
   12  A    between atoms: C_44  and  C_47
   13  A    between atoms: C_44  and  N_48
                            x       y       z     vdW  Elec       q    Type
                         _______ _______ _______ _____ _____    ______ ____

>  <TORSDO>
F 13

$$$$
