=
 OpenBabel11042414493D

 28 31  0  0  1  0  0  0  0  0999 V2000
  188.9050  177.6460  143.4850 C   0  0  2  0  0  3  0  0  0  0  0  0
  191.4150  175.8260  145.7890 C   0  0  0  0  0  0  0  0  0  0  0  0
  190.5880  175.8530  146.9560 C   0  0  0  0  0  0  0  0  0  0  0  0
  190.9200  176.3930  144.5930 C   0  0  0  0  0  3  0  0  0  0  0  0
  187.6790  177.6580  145.4270 N   0  0  0  0  0  0  0  0  0  0  0  0
  191.0030  175.2550  148.1800 N   0  0  0  0  0  1  0  0  0  0  0  0
  189.6480  176.9620  144.5870 C   0  0  0  0  0  0  0  0  0  0  0  0
  188.8890  176.9960  145.7030 C   0  0  0  0  0  0  0  0  0  0  0  0
  187.6260  178.0880  144.0830 N   0  0  0  0  0  2  0  0  0  0  0  0
  189.3160  176.4480  146.9100 C   0  0  0  0  0  3  0  0  0  0  0  0
  195.1970  175.4230  145.9950 C   0  0  0  0  0  3  0  0  0  0  0  0
  196.5780  173.5140  145.6460 F   0  0  0  0  0  0  0  0  0  0  0  0
  195.3440  174.0700  145.6850 C   0  0  0  0  0  0  0  0  0  0  0  0
  192.7780  175.2260  145.7730 C   0  0  0  0  0  0  0  0  0  0  0  0
  194.2170  173.2910  145.4110 C   0  0  0  0  0  3  0  0  0  0  0  0
  193.9230  175.9960  146.0360 C   0  0  0  0  0  3  0  0  0  0  0  0
  192.9440  173.8660  145.4530 C   0  0  0  0  0  3  0  0  0  0  0  0
  186.6150  177.8710  146.4050 C   0  0  0  0  0  2  0  0  0  0  0  0
  184.5700  179.0310  145.6500 C   0  0  0  0  0  2  0  0  0  0  0  0
  185.2390  177.6810  145.7900 C   0  0  0  0  0  3  0  0  0  0  0  0
  184.1840  178.1110  146.7890 C   0  0  0  0  0  2  0  0  0  0  0  0
  188.6150  176.6830  142.3380 C   0  0  0  0  0  2  0  0  0  0  0  0
  187.1440  176.7060  141.9550 C   0  0  0  0  0  2  0  0  0  0  0  0
  186.9830  177.2620  140.6230 N   0  0  0  0  0  2  0  0  0  0  0  0
  185.6800  177.9040  140.5930 C   0  0  0  0  0  2  0  0  0  0  0  0
  185.0760  177.9140  141.9850 C   0  0  0  0  0  2  0  0  0  0  0  0
  183.3120  178.2030  140.4920 C   0  0  0  0  0  1  0  0  0  0  0  0
  183.6480  178.1670  141.9040 N   0  0  0  0  0  2  0  0  0  0  0  0
  1 22  1  6  0  0  0
  1  9  1  0  0  0  0
  1  7  1  0  0  0  0
  2  3  1  0  0  0  0
  3  6  1  0  0  0  0
  4  2  2  0  0  0  0
  5  8  1  0  0  0  0
  5 18  1  0  0  0  0
  7  4  1  0  0  0  0
  7  8  2  0  0  0  0
  8 10  1  0  0  0  0
  9  5  1  0  0  0  0
 10  3  2  0  0  0  0
 11 16  1  0  0  0  0
 12 13  1  0  0  0  0
 13 11  2  0  0  0  0
 14  2  1  0  0  0  0
 14 16  2  0  0  0  0
 15 17  2  0  0  0  0
 15 13  1  0  0  0  0
 17 14  1  0  0  0  0
 19 20  1  0  0  0  0
 19 21  1  0  0  0  0
 20 18  1  0  0  0  0
 20 21  1  0  0  0  0
 23 22  1  0  0  0  0
 24 23  1  0  0  0  0
 25 24  1  0  0  0  0
 25 26  1  0  0  0  0
 27 28  1  0  0  0  0
 28 26  1  0  0  0  0
M  END
>  <MODEL>
1

>  <REMARK>
 VINA RESULT:      -6.8      0.000      0.000
  Name = 
  9 active torsions:
  status: ('A' for Active; 'I' for Inactive)
    1  A    between atoms: C_1  and  C_16
    2  A    between atoms: C_2  and  C_15
    3  A    between atoms: C_6  and  C_10
    4  A    between atoms: C_6  and  N_12
    5  A    between atoms: C_11  and  C_16
    6  A    between atoms: C_11  and  N_27
    7  A    between atoms: C_17  and  C_18
    8  A    between atoms: C_17  and  N_27
    9  A    between atoms: C_18  and  N_22
                            x       y       z     vdW  Elec       q    Type
                         _______ _______ _______ _____ _____    ______ ____

>  <TORSDO>
F 9

$$$$
=
 OpenBabel11042414493D

 28 31  0  0  1  0  0  0  0  0999 V2000
  188.3010  178.1950  143.1010 C   0  0  2  0  0  3  0  0  0  0  0  0
  190.5500  176.1570  145.4900 C   0  0  0  0  0  0  0  0  0  0  0  0
  189.4930  175.7200  146.3490 C   0  0  0  0  0  0  0  0  0  0  0  0
  190.2310  176.9750  144.3820 C   0  0  0  0  0  3  0  0  0  0  0  0
  186.6910  177.4590  144.5640 N   0  0  0  0  0  0  0  0  0  0  0  0
  189.7370  174.8540  147.4540 N   0  0  0  0  0  1  0  0  0  0  0  0
  188.9020  177.3310  144.1630 C   0  0  0  0  0  0  0  0  0  0  0  0
  187.9190  176.9260  144.9950 C   0  0  0  0  0  0  0  0  0  0  0  0
  186.8550  178.2530  143.4100 N   0  0  0  0  0  2  0  0  0  0  0  0
  188.1670  176.1140  146.0990 C   0  0  0  0  0  3  0  0  0  0  0  0
  194.1950  176.2830  146.5920 C   0  0  0  0  0  3  0  0  0  0  0  0
  195.9820  174.7510  146.2270 F   0  0  0  0  0  0  0  0  0  0  0  0
  194.6820  175.0890  146.0560 C   0  0  0  0  0  0  0  0  0  0  0  0
  191.9780  175.7900  145.7070 C   0  0  0  0  0  0  0  0  0  0  0  0
  193.8280  174.2460  145.3410 C   0  0  0  0  0  3  0  0  0  0  0  0
  192.8520  176.6310  146.4150 C   0  0  0  0  0  3  0  0  0  0  0  0
  192.4870  174.5960  145.1660 C   0  0  0  0  0  3  0  0  0  0  0  0
  185.4120  177.2200  145.2290 C   0  0  0  0  0  2  0  0  0  0  0  0
  185.6820  179.1220  146.7810 C   0  0  0  0  0  2  0  0  0  0  0  0
  184.7860  178.5120  145.7240 C   0  0  0  0  0  3  0  0  0  0  0  0
  184.4370  178.3650  147.1910 C   0  0  0  0  0  2  0  0  0  0  0  0
  188.4940  177.5820  141.7180 C   0  0  0  0  0  2  0  0  0  0  0  0
  187.4630  176.4980  141.4440 C   0  0  0  0  0  2  0  0  0  0  0  0
  188.1250  175.2720  141.0330 N   0  0  0  0  0  2  0  0  0  0  0  0
  188.0830  174.3730  142.1720 C   0  0  0  0  0  2  0  0  0  0  0  0
  189.4720  173.8300  142.4550 C   0  0  0  0  0  2  0  0  0  0  0  0
  190.3360  171.9650  143.5500 C   0  0  0  0  0  1  0  0  0  0  0  0
  189.4790  173.1240  143.7240 N   0  0  0  0  0  2  0  0  0  0  0  0
  1 22  1  6  0  0  0
  1  9  1  0  0  0  0
  1  7  1  0  0  0  0
  2 14  1  0  0  0  0
  2  3  1  0  0  0  0
  3  6  1  0  0  0  0
  4  2  2  0  0  0  0
  5  8  1  0  0  0  0
  5 18  1  0  0  0  0
  7  4  1  0  0  0  0
  7  8  2  0  0  0  0
  8 10  1  0  0  0  0
  9  5  1  0  0  0  0
 10  3  2  0  0  0  0
 13 12  1  0  0  0  0
 13 11  2  0  0  0  0
 14 16  2  0  0  0  0
 15 13  1  0  0  0  0
 16 11  1  0  0  0  0
 17 15  2  0  0  0  0
 17 14  1  0  0  0  0
 18 20  1  0  0  0  0
 19 21  1  0  0  0  0
 20 19  1  0  0  0  0
 20 21  1  0  0  0  0
 23 22  1  0  0  0  0
 24 23  1  0  0  0  0
 24 25  1  0  0  0  0
 25 26  1  0  0  0  0
 26 28  1  0  0  0  0
 27 28  1  0  0  0  0
M  END
>  <MODEL>
2

>  <REMARK>
 VINA RESULT:      -6.8      1.734      3.021
  Name = 
  9 active torsions:
  status: ('A' for Active; 'I' for Inactive)
    1  A    between atoms: C_1  and  C_16
    2  A    between atoms: C_2  and  C_15
    3  A    between atoms: C_6  and  C_10
    4  A    between atoms: C_6  and  N_12
    5  A    between atoms: C_11  and  C_16
    6  A    between atoms: C_11  and  N_27
    7  A    between atoms: C_17  and  C_18
    8  A    between atoms: C_17  and  N_27
    9  A    between atoms: C_18  and  N_22
                            x       y       z     vdW  Elec       q    Type
                         _______ _______ _______ _____ _____    ______ ____

>  <TORSDO>
F 9

$$$$
=
 OpenBabel11042414493D

 28 31  0  0  1  0  0  0  0  0999 V2000
  190.2310  173.7230  143.7540 C   0  0  2  0  0  3  0  0  0  0  0  0
  188.3680  176.5190  145.6610 C   0  0  0  0  0  0  0  0  0  0  0  0
  189.4450  176.8330  146.5480 C   0  0  0  0  0  0  0  0  0  0  0  0
  188.5570  175.5020  144.6970 C   0  0  0  0  0  3  0  0  0  0  0  0
  191.8780  174.2930  145.2490 N   0  0  0  0  0  0  0  0  0  0  0  0
  189.3400  177.8780  147.5100 N   0  0  0  0  0  1  0  0  0  0  0  0
  189.7810  174.8390  144.6420 C   0  0  0  0  0  0  0  0  0  0  0  0
  190.7800  175.1350  145.5000 C   0  0  0  0  0  0  0  0  0  0  0  0
  191.6060  173.3970  144.1930 N   0  0  0  0  0  2  0  0  0  0  0  0
  190.6590  176.1290  146.4670 C   0  0  0  0  0  3  0  0  0  0  0  0
  184.7650  177.4010  146.5300 C   0  0  0  0  0  3  0  0  0  0  0  0
  183.3590  179.1510  145.7340 F   0  0  0  0  0  0  0  0  0  0  0  0
  184.5580  178.5210  145.7220 C   0  0  0  0  0  0  0  0  0  0  0  0
  187.0510  177.2130  145.7040 C   0  0  0  0  0  0  0  0  0  0  0  0
  185.5850  178.9880  144.9000 C   0  0  0  0  0  3  0  0  0  0  0  0
  186.0030  176.7510  146.5180 C   0  0  0  0  0  3  0  0  0  0  0  0
  186.8210  178.3360  144.8900 C   0  0  0  0  0  3  0  0  0  0  0  0
  193.1370  174.3400  145.9890 C   0  0  0  0  0  2  0  0  0  0  0  0
  195.5580  174.8240  145.9170 C   0  0  0  0  0  2  0  0  0  0  0  0
  194.2550  174.9460  145.1570 C   0  0  0  0  0  3  0  0  0  0  0  0
  194.8230  176.1470  145.8860 C   0  0  0  0  0  2  0  0  0  0  0  0
  190.2620  174.1610  142.2940 C   0  0  0  0  0  2  0  0  0  0  0  0
  189.2270  173.4110  141.4680 C   0  0  0  0  0  2  0  0  0  0  0  0
  187.9470  174.0950  141.5320 N   0  0  0  0  0  2  0  0  0  0  0  0
  188.1280  175.3800  140.8810 C   0  0  0  0  0  2  0  0  0  0  0  0
  187.2830  176.4340  141.5740 C   0  0  0  0  0  2  0  0  0  0  0  0
  188.9110  178.0480  141.9830 C   0  0  0  0  0  1  0  0  0  0  0  0
  187.7310  177.7600  141.1880 N   0  0  0  0  0  2  0  0  0  0  0  0
  1 22  1  6  0  0  0
  1  9  1  0  0  0  0
  1  7  1  0  0  0  0
  2 14  1  0  0  0  0
  2  3  1  0  0  0  0
  3  6  1  0  0  0  0
  4  2  2  0  0  0  0
  5  8  1  0  0  0  0
  5 18  1  0  0  0  0
  7  4  1  0  0  0  0
  7  8  2  0  0  0  0
  8 10  1  0  0  0  0
  9  5  1  0  0  0  0
 10  3  2  0  0  0  0
 13 12  1  0  0  0  0
 13 11  2  0  0  0  0
 14 16  2  0  0  0  0
 15 13  1  0  0  0  0
 16 11  1  0  0  0  0
 17 15  2  0  0  0  0
 17 14  1  0  0  0  0
 20 21  1  0  0  0  0
 20 19  1  0  0  0  0
 20 18  1  0  0  0  0
 21 19  1  0  0  0  0
 23 24  1  0  0  0  0
 23 22  1  0  0  0  0
 25 24  1  0  0  0  0
 25 26  1  0  0  0  0
 28 26  1  0  0  0  0
 28 27  1  0  0  0  0
M  END
>  <MODEL>
3

>  <REMARK>
 VINA RESULT:      -6.7      3.342      6.957
  Name = 
  9 active torsions:
  status: ('A' for Active; 'I' for Inactive)
    1  A    between atoms: C_1  and  C_16
    2  A    between atoms: C_2  and  C_15
    3  A    between atoms: C_6  and  C_10
    4  A    between atoms: C_6  and  N_12
    5  A    between atoms: C_11  and  C_16
    6  A    between atoms: C_11  and  N_27
    7  A    between atoms: C_17  and  C_18
    8  A    between atoms: C_17  and  N_27
    9  A    between atoms: C_18  and  N_22
                            x       y       z     vdW  Elec       q    Type
                         _______ _______ _______ _____ _____    ______ ____

>  <TORSDO>
F 9

$$$$
=
 OpenBabel11042414493D

 28 31  0  0  1  0  0  0  0  0999 V2000
  188.6950  177.4820  142.4490 C   0  0  2  0  0  3  0  0  0  0  0  0
  191.1380  176.5160  145.2800 C   0  0  0  0  0  0  0  0  0  0  0  0
  190.2770  176.9010  146.3550 C   0  0  0  0  0  0  0  0  0  0  0  0
  190.6780  176.6700  143.9530 C   0  0  0  0  0  3  0  0  0  0  0  0
  187.4100  178.0940  144.2520 N   0  0  0  0  0  0  0  0  0  0  0  0
  190.6560  176.7280  147.7170 N   0  0  0  0  0  1  0  0  0  0  0  0
  189.4060  177.1910  143.7320 C   0  0  0  0  0  0  0  0  0  0  0  0
  188.6130  177.5690  144.7580 C   0  0  0  0  0  0  0  0  0  0  0  0
  187.3970  178.0760  142.8410 N   0  0  0  0  0  2  0  0  0  0  0  0
  189.0050  177.4370  146.0870 C   0  0  0  0  0  3  0  0  0  0  0  0
  194.9050  176.2530  145.7880 C   0  0  0  0  0  3  0  0  0  0  0  0
  196.3120  174.3450  146.0180 F   0  0  0  0  0  0  0  0  0  0  0  0
  195.0750  174.8690  145.8450 C   0  0  0  0  0  0  0  0  0  0  0  0
  192.5030  175.9580  145.4930 C   0  0  0  0  0  0  0  0  0  0  0  0
  193.9690  174.0240  145.7210 C   0  0  0  0  0  3  0  0  0  0  0  0
  193.6270  176.7930  145.6100 C   0  0  0  0  0  3  0  0  0  0  0  0
  192.6940  174.5660  145.5440 C   0  0  0  0  0  3  0  0  0  0  0  0
  186.3170  178.5930  145.0820 C   0  0  0  0  0  2  0  0  0  0  0  0
  184.2560  178.0370  146.3240 C   0  0  0  0  0  2  0  0  0  0  0  0
  185.2400  177.5420  145.2860 C   0  0  0  0  0  3  0  0  0  0  0  0
  185.3130  177.0240  146.7080 C   0  0  0  0  0  2  0  0  0  0  0  0
  188.4420  176.2020  141.6590 C   0  0  0  0  0  2  0  0  0  0  0  0
  187.5050  175.2660  142.4060 C   0  0  0  0  0  2  0  0  0  0  0  0
  187.7690  173.8890  142.0290 N   0  0  0  0  0  2  0  0  0  0  0  0
  189.1230  173.5900  142.4610 C   0  0  0  0  0  2  0  0  0  0  0  0
  189.7650  172.6000  141.5060 C   0  0  0  0  0  2  0  0  0  0  0  0
  191.5430  174.0980  141.3760 C   0  0  0  0  0  1  0  0  0  0  0  0
  190.6330  173.3000  140.5760 N   0  0  0  0  0  2  0  0  0  0  0  0
  1 22  1  1  0  0  0
  1  9  1  0  0  0  0
  1  7  1  0  0  0  0
  2 14  1  0  0  0  0
  2  3  1  0  0  0  0
  3  6  1  0  0  0  0
  4  2  2  0  0  0  0
  5  8  1  0  0  0  0
  5 18  1  0  0  0  0
  7  4  1  0  0  0  0
  7  8  2  0  0  0  0
  8 10  1  0  0  0  0
  9  5  1  0  0  0  0
 10  3  2  0  0  0  0
 11 13  1  0  0  0  0
 13 12  1  0  0  0  0
 14 17  2  0  0  0  0
 14 16  1  0  0  0  0
 15 13  2  0  0  0  0
 16 11  2  0  0  0  0
 17 15  1  0  0  0  0
 18 20  1  0  0  0  0
 19 21  1  0  0  0  0
 20 19  1  0  0  0  0
 20 21  1  0  0  0  0
 22 23  1  0  0  0  0
 24 23  1  0  0  0  0
 24 25  1  0  0  0  0
 26 25  1  0  0  0  0
 28 27  1  0  0  0  0
 28 26  1  0  0  0  0
M  END
>  <MODEL>
4

>  <REMARK>
 VINA RESULT:      -6.5      1.974      3.200
  Name = 
  9 active torsions:
  status: ('A' for Active; 'I' for Inactive)
    1  A    between atoms: C_1  and  C_16
    2  A    between atoms: C_2  and  C_15
    3  A    between atoms: C_6  and  C_10
    4  A    between atoms: C_6  and  N_12
    5  A    between atoms: C_11  and  C_16
    6  A    between atoms: C_11  and  N_27
    7  A    between atoms: C_17  and  C_18
    8  A    between atoms: C_17  and  N_27
    9  A    between atoms: C_18  and  N_22
                            x       y       z     vdW  Elec       q    Type
                         _______ _______ _______ _____ _____    ______ ____

>  <TORSDO>
F 9

$$$$
=
 OpenBabel11042414493D

 28 31  0  0  1  0  0  0  0  0999 V2000
  190.2270  173.7890  143.2460 C   0  0  2  0  0  3  0  0  0  0  0  0
  188.3730  176.4560  145.3370 C   0  0  0  0  0  0  0  0  0  0  0  0
  189.4330  176.6720  146.2720 C   0  0  0  0  0  0  0  0  0  0  0  0
  188.5660  175.5190  144.2960 C   0  0  0  0  0  3  0  0  0  0  0  0
  191.8480  174.1970  144.8210 N   0  0  0  0  0  0  0  0  0  0  0  0
  189.3260  177.6360  147.3150 N   0  0  0  0  0  1  0  0  0  0  0  0
  189.7780  174.8370  144.2130 C   0  0  0  0  0  0  0  0  0  0  0  0
  190.7610  175.0390  145.1170 C   0  0  0  0  0  0  0  0  0  0  0  0
  191.5840  173.3980  143.6880 N   0  0  0  0  0  2  0  0  0  0  0  0
  190.6350  175.9510  146.1600 C   0  0  0  0  0  3  0  0  0  0  0  0
  185.6080  179.0100  144.7520 C   0  0  0  0  0  3  0  0  0  0  0  0
  183.4260  179.1810  145.6930 F   0  0  0  0  0  0  0  0  0  0  0  0
  184.6100  178.5290  145.6020 C   0  0  0  0  0  0  0  0  0  0  0  0
  187.0690  177.1730  145.4070 C   0  0  0  0  0  0  0  0  0  0  0  0
  184.8350  177.3780  146.3610 C   0  0  0  0  0  3  0  0  0  0  0  0
  186.8300  178.3370  144.6590 C   0  0  0  0  0  3  0  0  0  0  0  0
  186.0570  176.7070  146.2650 C   0  0  0  0  0  3  0  0  0  0  0  0
  193.0890  174.1550  145.5910 C   0  0  0  0  0  2  0  0  0  0  0  0
  195.3780  175.0430  145.8650 C   0  0  0  0  0  2  0  0  0  0  0  0
  194.0520  175.2500  145.1640 C   0  0  0  0  0  3  0  0  0  0  0  0
  194.4120  176.0940  146.3700 C   0  0  0  0  0  2  0  0  0  0  0  0
  190.3030  174.3460  141.8280 C   0  0  0  0  0  2  0  0  0  0  0  0
  189.9090  173.2980  140.8000 C   0  0  0  0  0  2  0  0  0  0  0  0
  188.4720  173.3190  140.5900 N   0  0  0  0  0  2  0  0  0  0  0  0
  188.2330  172.7440  139.2780 C   0  0  0  0  0  2  0  0  0  0  0  0
  188.4850  173.7850  138.2030 C   0  0  0  0  0  2  0  0  0  0  0  0
  187.2420  175.4620  137.1720 C   0  0  0  0  0  1  0  0  0  0  0  0
  187.6870  174.9700  138.4630 N   0  0  0  0  0  2  0  0  0  0  0  0
  1 22  1  6  0  0  0
  1  9  1  0  0  0  0
  1  7  1  0  0  0  0
  2 14  1  0  0  0  0
  2  3  1  0  0  0  0
  3  6  1  0  0  0  0
  4  2  2  0  0  0  0
  5  8  1  0  0  0  0
  5 18  1  0  0  0  0
  7  4  1  0  0  0  0
  7  8  2  0  0  0  0
  8 10  1  0  0  0  0
  9  5  1  0  0  0  0
 10  3  2  0  0  0  0
 11 13  1  0  0  0  0
 13 12  1  0  0  0  0
 13 15  2  0  0  0  0
 14 17  2  0  0  0  0
 16 11  2  0  0  0  0
 16 14  1  0  0  0  0
 17 15  1  0  0  0  0
 19 21  1  0  0  0  0
 20 18  1  0  0  0  0
 20 19  1  0  0  0  0
 20 21  1  0  0  0  0
 23 22  1  0  0  0  0
 24 23  1  0  0  0  0
 25 24  1  0  0  0  0
 26 28  1  0  0  0  0
 26 25  1  0  0  0  0
 27 28  1  0  0  0  0
M  END
>  <MODEL>
5

>  <REMARK>
 VINA RESULT:      -6.4      3.781      7.093
  Name = 
  9 active torsions:
  status: ('A' for Active; 'I' for Inactive)
    1  A    between atoms: C_1  and  C_16
    2  A    between atoms: C_2  and  C_15
    3  A    between atoms: C_6  and  C_10
    4  A    between atoms: C_6  and  N_12
    5  A    between atoms: C_11  and  C_16
    6  A    between atoms: C_11  and  N_27
    7  A    between atoms: C_17  and  C_18
    8  A    between atoms: C_17  and  N_27
    9  A    between atoms: C_18  and  N_22
                            x       y       z     vdW  Elec       q    Type
                         _______ _______ _______ _____ _____    ______ ____

>  <TORSDO>
F 9

$$$$
=
 OpenBabel11042414493D

 28 31  0  0  1  0  0  0  0  0999 V2000
  189.0320  176.3660  146.7100 C   0  0  2  0  0  3  0  0  0  0  0  0
  189.1960  174.6440  143.2570 C   0  0  0  0  0  0  0  0  0  0  0  0
  188.2070  175.4690  142.6340 C   0  0  0  0  0  0  0  0  0  0  0  0
  189.5310  174.8880  144.6080 C   0  0  0  0  0  3  0  0  0  0  0  0
  187.4390  177.6080  145.6160 N   0  0  0  0  0  0  0  0  0  0  0  0
  187.8570  175.3110  141.2630 N   0  0  0  0  0  1  0  0  0  0  0  0
  188.8900  175.9190  145.2900 C   0  0  0  0  0  0  0  0  0  0  0  0
  187.9450  176.6760  144.6930 C   0  0  0  0  0  0  0  0  0  0  0  0
  188.0590  177.4690  146.8770 N   0  0  0  0  0  2  0  0  0  0  0  0
  187.5750  176.4910  143.3640 C   0  0  0  0  0  3  0  0  0  0  0  0
  190.1480  171.1670  142.0230 C   0  0  0  0  0  3  0  0  0  0  0  0
  191.9180  170.4560  140.5960 F   0  0  0  0  0  0  0  0  0  0  0  0
  191.2610  171.4560  141.2310 C   0  0  0  0  0  0  0  0  0  0  0  0
  189.8920  173.5340  142.5470 C   0  0  0  0  0  0  0  0  0  0  0  0
  191.7000  172.7750  141.0980 C   0  0  0  0  0  3  0  0  0  0  0  0
  189.4710  172.2000  142.6780 C   0  0  0  0  0  3  0  0  0  0  0  0
  191.0200  173.8050  141.7540 C   0  0  0  0  0  3  0  0  0  0  0  0
  186.4050  178.5930  145.3080 C   0  0  0  0  0  2  0  0  0  0  0  0
  184.5830  177.4400  146.5130 C   0  0  0  0  0  2  0  0  0  0  0  0
  185.3930  178.7160  146.4350 C   0  0  0  0  0  3  0  0  0  0  0  0
  183.9940  178.6700  145.8540 C   0  0  0  0  0  2  0  0  0  0  0  0
  190.4370  176.8920  146.9830 C   0  0  0  0  0  2  0  0  0  0  0  0
  191.1870  175.9910  147.9510 C   0  0  0  0  0  2  0  0  0  0  0  0
  192.1540  175.1800  147.2320 N   0  0  0  0  0  2  0  0  0  0  0  0
  192.7220  176.0270  146.1980 C   0  0  0  0  0  2  0  0  0  0  0  0
  194.1800  176.3130  146.5060 C   0  0  0  0  0  2  0  0  0  0  0  0
  195.2790  176.4430  144.4560 C   0  0  0  0  0  1  0  0  0  0  0  0
  194.7190  177.2440  145.5300 N   0  0  0  0  0  2  0  0  0  0  0  0
  1  9  1  0  0  0  0
  1 22  1  6  0  0  0
  2  4  1  0  0  0  0
  3  2  2  0  0  0  0
  3 10  1  0  0  0  0
  4  7  2  0  0  0  0
  5  9  1  0  0  0  0
  6  3  1  0  0  0  0
  7  1  1  0  0  0  0
  8  7  1  0  0  0  0
  8  5  1  0  0  0  0
 10  8  2  0  0  0  0
 11 16  1  0  0  0  0
 12 13  1  0  0  0  0
 13 11  2  0  0  0  0
 14 16  2  0  0  0  0
 14  2  1  0  0  0  0
 15 13  1  0  0  0  0
 15 17  2  0  0  0  0
 17 14  1  0  0  0  0
 18  5  1  0  0  0  0
 18 20  1  0  0  0  0
 20 19  1  0  0  0  0
 21 20  1  0  0  0  0
 21 19  1  0  0  0  0
 22 23  1  0  0  0  0
 24 23  1  0  0  0  0
 25 26  1  0  0  0  0
 25 24  1  0  0  0  0
 27 28  1  0  0  0  0
 28 26  1  0  0  0  0
M  END
>  <MODEL>
6

>  <REMARK>
 VINA RESULT:      -6.2      2.936      6.146
  Name = 
  9 active torsions:
  status: ('A' for Active; 'I' for Inactive)
    1  A    between atoms: C_1  and  C_16
    2  A    between atoms: C_2  and  C_15
    3  A    between atoms: C_6  and  C_10
    4  A    between atoms: C_6  and  N_12
    5  A    between atoms: C_11  and  C_16
    6  A    between atoms: C_11  and  N_27
    7  A    between atoms: C_17  and  C_18
    8  A    between atoms: C_17  and  N_27
    9  A    between atoms: C_18  and  N_22
                            x       y       z     vdW  Elec       q    Type
                         _______ _______ _______ _____ _____    ______ ____

>  <TORSDO>
F 9

$$$$
=
 OpenBabel11042414493D

 28 31  0  0  1  0  0  0  0  0999 V2000
  187.9230  176.0870  145.4100 C   0  0  2  0  0  3  0  0  0  0  0  0
  191.6500  175.8000  144.4360 C   0  0  0  0  0  0  0  0  0  0  0  0
  191.5380  176.5300  143.2110 C   0  0  0  0  0  0  0  0  0  0  0  0
  190.4930  175.6200  145.2270 C   0  0  0  0  0  3  0  0  0  0  0  0
  187.8570  177.2160  143.4110 N   0  0  0  0  0  0  0  0  0  0  0  0
  192.6710  176.7910  142.3900 N   0  0  0  0  0  1  0  0  0  0  0  0
  189.2830  176.1550  144.7920 C   0  0  0  0  0  0  0  0  0  0  0  0
  189.1910  176.8240  143.6230 C   0  0  0  0  0  0  0  0  0  0  0  0
  187.0240  176.7900  144.4680 N   0  0  0  0  0  2  0  0  0  0  0  0
  190.2940  177.0410  142.8020 C   0  0  0  0  0  3  0  0  0  0  0  0
  195.0180  175.3940  146.1680 C   0  0  0  0  0  3  0  0  0  0  0  0
  196.5440  173.5650  146.1910 F   0  0  0  0  0  0  0  0  0  0  0  0
  195.3720  174.1020  145.7760 C   0  0  0  0  0  0  0  0  0  0  0  0
  192.9330  175.2170  144.9200 C   0  0  0  0  0  0  0  0  0  0  0  0
  194.5180  173.3650  144.9520 C   0  0  0  0  0  3  0  0  0  0  0  0
  193.8080  175.9480  145.7400 C   0  0  0  0  0  3  0  0  0  0  0  0
  193.3080  173.9200  144.5260 C   0  0  0  0  0  3  0  0  0  0  0  0
  187.3940  177.9670  142.2460 C   0  0  0  0  0  2  0  0  0  0  0  0
  186.3470  177.5400  140.0510 C   0  0  0  0  0  2  0  0  0  0  0  0
  186.2560  177.2560  141.5350 C   0  0  0  0  0  3  0  0  0  0  0  0
  185.3430  178.2870  140.9020 C   0  0  0  0  0  2  0  0  0  0  0  0
  187.8960  176.8020  146.7570 C   0  0  0  0  0  2  0  0  0  0  0  0
  186.4760  176.9290  147.2880 C   0  0  0  0  0  2  0  0  0  0  0  0
  186.3260  178.1760  148.0170 N   0  0  0  0  0  2  0  0  0  0  0  0
  185.4700  179.0300  147.2120 C   0  0  0  0  0  2  0  0  0  0  0  0
  184.4380  178.1890  146.4850 C   0  0  0  0  0  2  0  0  0  0  0  0
  184.8310  179.4490  144.5660 C   0  0  0  0  0  1  0  0  0  0  0  0
  183.7860  178.9830  145.4580 N   0  0  0  0  0  2  0  0  0  0  0  0
  1 22  1  1  0  0  0
  2 14  1  0  0  0  0
  2  4  1  0  0  0  0
  3  2  2  0  0  0  0
  5  8  1  0  0  0  0
  5  9  1  0  0  0  0
  6  3  1  0  0  0  0
  7  4  2  0  0  0  0
  7  1  1  0  0  0  0
  8  7  1  0  0  0  0
  9  1  1  0  0  0  0
 10  3  1  0  0  0  0
 10  8  2  0  0  0  0
 13 11  1  0  0  0  0
 13 12  1  0  0  0  0
 14 16  1  0  0  0  0
 15 13  2  0  0  0  0
 16 11  2  0  0  0  0
 17 14  2  0  0  0  0
 17 15  1  0  0  0  0
 18  5  1  0  0  0  0
 19 21  1  0  0  0  0
 19 20  1  0  0  0  0
 20 18  1  0  0  0  0
 21 20  1  0  0  0  0
 22 23  1  0  0  0  0
 23 24  1  0  0  0  0
 25 24  1  0  0  0  0
 26 25  1  0  0  0  0
 27 28  1  0  0  0  0
 28 26  1  0  0  0  0
M  END
>  <MODEL>
7

>  <REMARK>
 VINA RESULT:      -6.2      1.719      3.833
  Name = 
  9 active torsions:
  status: ('A' for Active; 'I' for Inactive)
    1  A    between atoms: C_1  and  C_16
    2  A    between atoms: C_2  and  C_15
    3  A    between atoms: C_6  and  C_10
    4  A    between atoms: C_6  and  N_12
    5  A    between atoms: C_11  and  C_16
    6  A    between atoms: C_11  and  N_27
    7  A    between atoms: C_17  and  C_18
    8  A    between atoms: C_17  and  N_27
    9  A    between atoms: C_18  and  N_22
                            x       y       z     vdW  Elec       q    Type
                         _______ _______ _______ _____ _____    ______ ____

>  <TORSDO>
F 9

$$$$
=
 OpenBabel11042414493D

 28 31  0  0  1  0  0  0  0  0999 V2000
  190.0830  173.5310  143.7980 C   0  0  2  0  0  3  0  0  0  0  0  0
  188.3600  176.4700  145.6190 C   0  0  0  0  0  0  0  0  0  0  0  0
  189.4820  176.8140  146.4360 C   0  0  0  0  0  0  0  0  0  0  0  0
  188.4870  175.3960  144.7090 C   0  0  0  0  0  3  0  0  0  0  0  0
  191.8080  174.1540  145.1810 N   0  0  0  0  0  0  0  0  0  0  0  0
  189.4410  177.9160  147.3370 N   0  0  0  0  0  1  0  0  0  0  0  0
  189.6950  174.7060  144.6380 C   0  0  0  0  0  0  0  0  0  0  0  0
  190.7380  175.0310  145.4310 C   0  0  0  0  0  0  0  0  0  0  0  0
  191.4710  173.2030  144.1930 N   0  0  0  0  0  2  0  0  0  0  0  0
  190.6790  176.0820  146.3420 C   0  0  0  0  0  3  0  0  0  0  0  0
  184.8130  177.4660  146.5850 C   0  0  0  0  0  3  0  0  0  0  0  0
  183.4080  179.2050  145.7630 F   0  0  0  0  0  0  0  0  0  0  0  0
  184.5930  178.5500  145.7340 C   0  0  0  0  0  0  0  0  0  0  0  0
  187.0590  177.1920  145.6800 C   0  0  0  0  0  0  0  0  0  0  0  0
  185.5950  178.9570  144.8500 C   0  0  0  0  0  3  0  0  0  0  0  0
  186.0360  176.7900  146.5550 C   0  0  0  0  0  3  0  0  0  0  0  0
  186.8180  178.2810  144.8220 C   0  0  0  0  0  3  0  0  0  0  0  0
  193.1010  174.2190  145.8580 C   0  0  0  0  0  2  0  0  0  0  0  0
  195.4380  175.0130  145.7590 C   0  0  0  0  0  2  0  0  0  0  0  0
  194.0600  175.1610  145.1490 C   0  0  0  0  0  3  0  0  0  0  0  0
  194.5660  176.1910  146.1380 C   0  0  0  0  0  2  0  0  0  0  0  0
  190.0540  173.8820  142.3140 C   0  0  0  0  0  2  0  0  0  0  0  0
  188.7810  173.3780  141.6510 C   0  0  0  0  0  2  0  0  0  0  0  0
  189.0560  172.9800  140.2820 N   0  0  0  0  0  2  0  0  0  0  0  0
  188.6140  174.0720  139.4320 C   0  0  0  0  0  2  0  0  0  0  0  0
  188.1920  173.5350  138.0770 C   0  0  0  0  0  2  0  0  0  0  0  0
  190.1780  173.5650  136.8610 C   0  0  0  0  0  1  0  0  0  0  0  0
  188.9020  174.2380  137.0230 N   0  0  0  0  0  2  0  0  0  0  0  0
  1 22  1  6  0  0  0
  1  9  1  0  0  0  0
  1  7  1  0  0  0  0
  2 14  1  0  0  0  0
  2  3  1  0  0  0  0
  3  6  1  0  0  0  0
  4  2  2  0  0  0  0
  5  8  1  0  0  0  0
  5 18  1  0  0  0  0
  7  4  1  0  0  0  0
  7  8  2  0  0  0  0
  8 10  1  0  0  0  0
  9  5  1  0  0  0  0
 10  3  2  0  0  0  0
 13 12  1  0  0  0  0
 13 11  2  0  0  0  0
 14 16  2  0  0  0  0
 15 13  1  0  0  0  0
 16 11  1  0  0  0  0
 17 15  2  0  0  0  0
 17 14  1  0  0  0  0
 19 21  1  0  0  0  0
 20 19  1  0  0  0  0
 20 18  1  0  0  0  0
 20 21  1  0  0  0  0
 23 22  1  0  0  0  0
 24 23  1  0  0  0  0
 25 24  1  0  0  0  0
 26 25  1  0  0  0  0
 27 28  1  0  0  0  0
 28 26  1  0  0  0  0
M  END
>  <MODEL>
8

>  <REMARK>
 VINA RESULT:      -6.2      3.911      7.316
  Name = 
  9 active torsions:
  status: ('A' for Active; 'I' for Inactive)
    1  A    between atoms: C_1  and  C_16
    2  A    between atoms: C_2  and  C_15
    3  A    between atoms: C_6  and  C_10
    4  A    between atoms: C_6  and  N_12
    5  A    between atoms: C_11  and  C_16
    6  A    between atoms: C_11  and  N_27
    7  A    between atoms: C_17  and  C_18
    8  A    between atoms: C_17  and  N_27
    9  A    between atoms: C_18  and  N_22
                            x       y       z     vdW  Elec       q    Type
                         _______ _______ _______ _____ _____    ______ ____

>  <TORSDO>
F 9

$$$$
=
 OpenBabel11042414493D

 28 31  0  0  1  0  0  0  0  0999 V2000
  190.3030  172.6330  144.8090 C   0  0  2  0  0  3  0  0  0  0  0  0
  189.1140  176.2980  145.0680 C   0  0  0  0  0  0  0  0  0  0  0  0
  190.3890  176.8860  144.7980 C   0  0  0  0  0  0  0  0  0  0  0  0
  189.0030  174.8890  145.0790 C   0  0  0  0  0  3  0  0  0  0  0  0
  192.3060  173.6860  144.4160 N   0  0  0  0  0  0  0  0  0  0  0  0
  190.5620  178.2980  144.7220 N   0  0  0  0  0  1  0  0  0  0  0  0
  190.1360  174.1180  144.8290 C   0  0  0  0  0  0  0  0  0  0  0  0
  191.3370  174.6890  144.5950 C   0  0  0  0  0  0  0  0  0  0  0  0
  191.7400  172.3990  144.5410 N   0  0  0  0  0  2  0  0  0  0  0  0
  191.5100  176.0700  144.5640 C   0  0  0  0  0  3  0  0  0  0  0  0
  186.0830  177.8020  146.8190 C   0  0  0  0  0  3  0  0  0  0  0  0
  184.4270  179.3220  146.0290 F   0  0  0  0  0  0  0  0  0  0  0  0
  185.5510  178.5990  145.8040 C   0  0  0  0  0  0  0  0  0  0  0  0
  187.8900  177.1030  145.3400 C   0  0  0  0  0  0  0  0  0  0  0  0
  186.1750  178.6490  144.5560 C   0  0  0  0  0  3  0  0  0  0  0  0
  187.2430  177.0580  146.5870 C   0  0  0  0  0  3  0  0  0  0  0  0
  187.3350  177.9040  144.3260 C   0  0  0  0  0  3  0  0  0  0  0  0
  193.7170  173.9440  144.1370 C   0  0  0  0  0  2  0  0  0  0  0  0
  194.8840  175.1800  145.9290 C   0  0  0  0  0  2  0  0  0  0  0  0
  194.5710  173.8020  145.3860 C   0  0  0  0  0  3  0  0  0  0  0  0
  195.9290  174.4270  145.1330 C   0  0  0  0  0  2  0  0  0  0  0  0
  189.4760  172.0010  143.6940 C   0  0  0  0  0  2  0  0  0  0  0  0
  190.3520  171.5830  142.5240 C   0  0  0  0  0  2  0  0  0  0  0  0
  190.3110  172.5940  141.4820 N   0  0  0  0  0  2  0  0  0  0  0  0
  188.9610  173.1290  141.4730 C   0  0  0  0  0  2  0  0  0  0  0  0
  188.9980  174.6240  141.2200 C   0  0  0  0  0  2  0  0  0  0  0  0
  187.5430  176.4200  140.9330 C   0  0  0  0  0  1  0  0  0  0  0  0
  187.7980  175.2470  141.7490 N   0  0  0  0  0  2  0  0  0  0  0  0
  1 22  1  6  0  0  0
  1  7  1  0  0  0  0
  2  4  1  0  0  0  0
  2 14  1  0  0  0  0
  3  2  2  0  0  0  0
  5  9  1  0  0  0  0
  5  8  1  0  0  0  0
  6  3  1  0  0  0  0
  7  4  2  0  0  0  0
  8  7  1  0  0  0  0
  9  1  1  0  0  0  0
 10  8  2  0  0  0  0
 10  3  1  0  0  0  0
 13 12  1  0  0  0  0
 13 11  2  0  0  0  0
 14 16  2  0  0  0  0
 15 13  1  0  0  0  0
 16 11  1  0  0  0  0
 17 15  2  0  0  0  0
 17 14  1  0  0  0  0
 18  5  1  0  0  0  0
 18 20  1  0  0  0  0
 20 19  1  0  0  0  0
 21 20  1  0  0  0  0
 21 19  1  0  0  0  0
 23 22  1  0  0  0  0
 24 23  1  0  0  0  0
 25 24  1  0  0  0  0
 26 25  1  0  0  0  0
 26 28  1  0  0  0  0
 27 28  1  0  0  0  0
M  END
>  <MODEL>
9

>  <REMARK>
 VINA RESULT:      -6.2      3.624      7.180
  Name = 
  9 active torsions:
  status: ('A' for Active; 'I' for Inactive)
    1  A    between atoms: C_1  and  C_16
    2  A    between atoms: C_2  and  C_15
    3  A    between atoms: C_6  and  C_10
    4  A    between atoms: C_6  and  N_12
    5  A    between atoms: C_11  and  C_16
    6  A    between atoms: C_11  and  N_27
    7  A    between atoms: C_17  and  C_18
    8  A    between atoms: C_17  and  N_27
    9  A    between atoms: C_18  and  N_22
                            x       y       z     vdW  Elec       q    Type
                         _______ _______ _______ _____ _____    ______ ____

>  <TORSDO>
F 9

$$$$
