=
 OpenBabel11042414043D

 31 33  0  0  1  0  0  0  0  0999 V2000
  193.8410  174.3700  142.8200 C   0  0  0  0  0  0  0  0  0  0  0  0
  189.6650  176.6550  144.5890 C   0  0  0  0  0  3  0  0  0  0  0  0
  192.7350  175.2290  146.3660 C   0  0  2  0  0  3  0  0  0  0  0  0
  193.1300  173.6930  140.4960 C   0  0  0  0  0  2  0  0  0  0  0  0
  194.3210  173.5300  145.4480 C   0  0  0  0  0  3  0  0  0  0  0  0
  187.2990  176.5700  147.1210 O   0  0  0  0  0  0  0  0  0  0  0  0
  193.4220  174.5750  145.2060 C   0  0  0  0  0  0  0  0  0  0  0  0
  191.2340  175.4380  146.1230 C   0  0  1  0  0  3  0  0  0  0  0  0
  191.8010  173.0770  140.9100 C   0  0  0  0  0  2  0  0  0  0  0  0
  189.3200  173.3500  140.8460 C   0  0  1  0  0  3  0  0  0  0  0  0
  194.9790  172.9050  144.3840 C   0  0  0  0  0  3  0  0  0  0  0  0
  193.1950  175.0000  143.8890 C   0  0  0  0  0  3  0  0  0  0  0  0
  190.6570  174.0470  140.6590 C   0  0  0  0  0  2  0  0  0  0  0  0
  190.4730  175.3900  147.4360 C   0  0  0  0  0  2  0  0  0  0  0  0
  188.0740  174.6880  142.5290 C   0  0  0  0  0  2  0  0  0  0  0  0
  188.2410  174.3980  141.0520 C   0  0  0  0  0  2  0  0  0  0  0  0
  188.2340  176.0070  146.4940 C   0  0  0  0  0  0  0  0  0  0  0  0
  193.4730  176.4810  146.8260 C   0  0  0  0  0  1  0  0  0  0  0  0
  194.7390  173.3230  143.0720 C   0  0  0  0  0  3  0  0  0  0  0  0
  193.5510  174.8360  141.4240 C   0  0  2  0  0  3  0  0  0  0  0  0
  190.9260  176.7430  145.3920 C   0  0  0  0  0  2  0  0  0  0  0  0
  188.4560  176.3310  145.0710 C   0  0  0  0  0  0  0  0  0  0  0  0
  187.2450  176.4020  144.1780 C   0  0  0  0  0  2  0  0  0  0  0  0
  187.5170  176.0890  142.7060 C   0  0  0  0  0  2  0  0  0  0  0  0
  189.0380  174.9520  147.1910 C   0  0  0  0  0  2  0  0  0  0  0  0
  194.7070  175.5960  140.8560 C   0  0  0  0  0  0  0  0  0  0  0  0
  195.4540  175.0390  139.8270 O   0  0  0  0  0  0  0  0  0  0  0  0
  194.9870  176.7510  141.2780 O   0  0  0  0  0  1  0  0  0  0  0  0
  189.0030  172.5180  139.6110 C   0  0  0  0  0  2  0  0  0  0  0  0
  188.8810  173.7250  137.5840 O   0  0  0  0  0  0  0  0  0  0  0  0
  188.2930  173.3350  138.5800 C   0  0  0  0  0  3  0  0  0  0  0  0
  1 19  2  0  0  0  0
  1 12  1  0  0  0  0
  2 22  2  0  0  0  0
  2 21  1  0  0  0  0
  3 18  1  6  0  0  0
  4  9  1  0  0  0  0
  4 20  1  0  0  0  0
  7  5  1  0  0  0  0
  7  3  1  0  0  0  0
  8 21  1  1  0  0  0
  8  3  1  0  0  0  0
  8 14  1  0  0  0  0
 10 29  1  6  0  0  0
 10 16  1  0  0  0  0
 11  5  2  0  0  0  0
 12  7  2  0  0  0  0
 13 10  1  0  0  0  0
 13  9  1  0  0  0  0
 15 24  1  0  0  0  0
 16 15  1  0  0  0  0
 17  6  2  0  0  0  0
 17 25  1  0  0  0  0
 19 11  1  0  0  0  0
 20 26  1  6  0  0  0
 20  1  1  0  0  0  0
 22 17  1  0  0  0  0
 23 22  1  0  0  0  0
 24 23  1  0  0  0  0
 25 14  1  0  0  0  0
 26 28  1  0  0  0  0
 27 26  2  0  0  0  0
 30 31  2  0  0  0  0
 31 29  1  0  0  0  0
M  END
>  <MODEL>
1

>  <REMARK>
 VINA RESULT:      -7.5      0.000      0.000
  Name = 
  3 active torsions:
  status: ('A' for Active; 'I' for Inactive)
    1  A    between atoms: C_9  and  C_26
    2  A    between atoms: C_11  and  C_23
    3  A    between atoms: C_23  and  C_24
                            x       y       z     vdW  Elec       q    Type
                         _______ _______ _______ _____ _____    ______ ____

>  <TORSDO>
F 3

$$$$
=
 OpenBabel11042414043D

 31 33  0  0  1  0  0  0  0  0999 V2000
  195.1390  174.7050  143.0380 C   0  0  0  0  0  0  0  0  0  0  0  0
  190.5950  176.4900  144.4340 C   0  0  0  0  0  3  0  0  0  0  0  0
  193.7720  175.7680  146.4350 C   0  0  2  0  0  3  0  0  0  0  0  0
  194.6350  173.6700  140.7930 C   0  0  0  0  0  2  0  0  0  0  0  0
  195.6350  174.2470  145.7570 C   0  0  0  0  0  3  0  0  0  0  0  0
  188.1690  176.3180  146.9040 O   0  0  0  0  0  0  0  0  0  0  0  0
  194.5970  175.1050  145.3750 C   0  0  0  0  0  0  0  0  0  0  0  0
  192.2680  175.7110  146.1340 C   0  0  1  0  0  3  0  0  0  0  0  0
  193.3990  172.9040  141.2450 C   0  0  0  0  0  2  0  0  0  0  0  0
  190.9110  172.7760  141.0940 C   0  0  1  0  0  3  0  0  0  0  0  0
  196.4230  173.6190  144.7870 C   0  0  0  0  0  3  0  0  0  0  0  0
  194.3620  175.3400  144.0120 C   0  0  0  0  0  3  0  0  0  0  0  0
  192.1320  173.6490  140.8570 C   0  0  0  0  0  2  0  0  0  0  0  0
  191.4700  175.6920  147.4270 C   0  0  0  0  0  2  0  0  0  0  0  0
  189.4080  174.0820  142.5810 C   0  0  0  0  0  2  0  0  0  0  0  0
  189.6770  173.6590  141.1520 C   0  0  0  0  0  2  0  0  0  0  0  0
  189.2040  175.8420  146.3690 C   0  0  0  0  0  0  0  0  0  0  0  0
  194.2900  177.1650  146.7620 C   0  0  0  0  0  1  0  0  0  0  0  0
  196.1750  173.8460  143.4310 C   0  0  0  0  0  3  0  0  0  0  0  0
  194.8380  174.9610  141.5910 C   0  0  2  0  0  3  0  0  0  0  0  0
  191.7940  176.8640  145.2510 C   0  0  0  0  0  2  0  0  0  0  0  0
  189.4310  176.0360  144.9230 C   0  0  0  0  0  0  0  0  0  0  0  0
  188.2600  175.8180  144.0010 C   0  0  0  0  0  2  0  0  0  0  0  0
  188.6370  175.3890  142.5810 C   0  0  0  0  0  2  0  0  0  0  0  0
  190.1300  175.0100  147.2020 C   0  0  0  0  0  2  0  0  0  0  0  0
  195.8860  175.8250  140.9660 C   0  0  0  0  0  0  0  0  0  0  0  0
  196.7040  175.2990  139.9740 O   0  0  0  0  0  0  0  0  0  0  0  0
  196.0100  177.0330  141.3040 O   0  0  0  0  0  1  0  0  0  0  0  0
  190.7750  171.7720  139.9570 C   0  0  0  0  0  2  0  0  0  0  0  0
  190.5750  170.1250  141.6390 O   0  0  0  0  0  0  0  0  0  0  0  0
  190.8270  170.3690  140.4710 C   0  0  0  0  0  3  0  0  0  0  0  0
  1 19  2  0  0  0  0
  1 12  1  0  0  0  0
  2 22  2  0  0  0  0
  2 21  1  0  0  0  0
  3 18  1  6  0  0  0
  4  9  1  0  0  0  0
  4 20  1  0  0  0  0
  7  5  1  0  0  0  0
  7  3  1  0  0  0  0
  8 21  1  6  0  0  0
  8  3  1  0  0  0  0
  8 14  1  0  0  0  0
 10 29  1  6  0  0  0
 10 16  1  0  0  0  0
 11  5  2  0  0  0  0
 12  7  2  0  0  0  0
 13 10  1  0  0  0  0
 13  9  1  0  0  0  0
 16 15  1  0  0  0  0
 17  6  2  0  0  0  0
 17 25  1  0  0  0  0
 19 11  1  0  0  0  0
 20 26  1  6  0  0  0
 20  1  1  0  0  0  0
 22 17  1  0  0  0  0
 23 22  1  0  0  0  0
 24 15  1  0  0  0  0
 24 23  1  0  0  0  0
 25 14  1  0  0  0  0
 26 28  1  0  0  0  0
 27 26  2  0  0  0  0
 29 31  1  0  0  0  0
 31 30  2  0  0  0  0
M  END
>  <MODEL>
2

>  <REMARK>
 VINA RESULT:      -7.2      1.610      1.816
  Name = 
  3 active torsions:
  status: ('A' for Active; 'I' for Inactive)
    1  A    between atoms: C_9  and  C_26
    2  A    between atoms: C_11  and  C_23
    3  A    between atoms: C_23  and  C_24
                            x       y       z     vdW  Elec       q    Type
                         _______ _______ _______ _____ _____    ______ ____

>  <TORSDO>
F 3

$$$$
=
 OpenBabel11042414043D

 31 33  0  0  1  0  0  0  0  0999 V2000
  192.0570  175.5570  145.3250 C   0  0  0  0  0  0  0  0  0  0  0  0
  187.7850  177.7810  143.7130 C   0  0  0  0  0  3  0  0  0  0  0  0
  189.1310  177.0960  147.2260 C   0  0  2  0  0  3  0  0  0  0  0  0
  192.8080  174.3020  143.2700 C   0  0  0  0  0  2  0  0  0  0  0  0
  190.8480  175.3900  147.8470 C   0  0  0  0  0  3  0  0  0  0  0  0
  184.3830  178.0550  144.3180 O   0  0  0  0  0  0  0  0  0  0  0  0
  190.3280  176.2620  146.8830 C   0  0  0  0  0  0  0  0  0  0  0  0
  188.0760  177.1010  146.1110 C   0  0  1  0  0  3  0  0  0  0  0  0
  191.4550  173.6740  142.9640 C   0  0  0  0  0  2  0  0  0  0  0  0
  189.5080  173.6890  141.4020 C   0  0  1  0  0  3  0  0  0  0  0  0
  191.9660  174.6030  147.5540 C   0  0  0  0  0  3  0  0  0  0  0  0
  190.9450  176.3510  145.6270 C   0  0  0  0  0  3  0  0  0  0  0  0
  190.7390  174.4480  141.8690 C   0  0  0  0  0  2  0  0  0  0  0  0
  186.6870  177.2840  146.6970 C   0  0  0  0  0  2  0  0  0  0  0  0
  187.5940  175.2540  141.6600 C   0  0  0  0  0  2  0  0  0  0  0  0
  188.5800  174.6500  140.6800 C   0  0  0  0  0  2  0  0  0  0  0  0
  185.4720  177.4540  144.5120 C   0  0  0  0  0  0  0  0  0  0  0  0
  189.5310  178.4850  147.7120 C   0  0  0  0  0  1  0  0  0  0  0  0
  192.5690  174.6850  146.2970 C   0  0  0  0  0  3  0  0  0  0  0  0
  192.6710  175.6610  143.9610 C   0  0  2  0  0  3  0  0  0  0  0  0
  188.3350  178.1700  145.0510 C   0  0  0  0  0  2  0  0  0  0  0  0
  186.5070  177.4630  143.4600 C   0  0  0  0  0  0  0  0  0  0  0  0
  186.0590  177.2140  142.0430 C   0  0  0  0  0  2  0  0  0  0  0  0
  187.1250  176.5980  141.1350 C   0  0  0  0  0  2  0  0  0  0  0  0
  185.6470  176.6670  145.7760 C   0  0  0  0  0  2  0  0  0  0  0  0
  193.9830  176.3770  144.0130 C   0  0  0  0  0  0  0  0  0  0  0  0
  194.2270  177.2880  145.0330 O   0  0  0  0  0  1  0  0  0  0  0  0
  194.8820  176.1360  143.1620 O   0  0  0  0  0  0  0  0  0  0  0  0
  189.9280  172.5700  140.4590 C   0  0  0  0  0  2  0  0  0  0  0  0
  189.2900  171.8910  138.2880 O   0  0  0  0  0  0  0  0  0  0  0  0
  188.9550  172.4220  139.3340 C   0  0  0  0  0  3  0  0  0  0  0  0
  1 12  2  0  0  0  0
  1 19  1  0  0  0  0
  2 21  1  0  0  0  0
  3 18  1  6  0  0  0
  4 20  1  0  0  0  0
  6 17  2  0  0  0  0
  7  3  1  0  0  0  0
  7  5  2  0  0  0  0
  8 21  1  6  0  0  0
  8 14  1  0  0  0  0
  8  3  1  0  0  0  0
  9  4  1  0  0  0  0
 10 29  1  6  0  0  0
 10 13  1  0  0  0  0
 11  5  1  0  0  0  0
 12  7  1  0  0  0  0
 13  9  1  0  0  0  0
 16 10  1  0  0  0  0
 16 15  1  0  0  0  0
 17 25  1  0  0  0  0
 19 11  2  0  0  0  0
 20 26  1  1  0  0  0
 20  1  1  0  0  0  0
 22  2  2  0  0  0  0
 22 17  1  0  0  0  0
 23 22  1  0  0  0  0
 24 15  1  0  0  0  0
 24 23  1  0  0  0  0
 25 14  1  0  0  0  0
 26 27  1  0  0  0  0
 28 26  2  0  0  0  0
 30 31  2  0  0  0  0
 31 29  1  0  0  0  0
M  END
>  <MODEL>
3

>  <REMARK>
 VINA RESULT:      -7.1      1.915      3.242
  Name = 
  3 active torsions:
  status: ('A' for Active; 'I' for Inactive)
    1  A    between atoms: C_9  and  C_26
    2  A    between atoms: C_11  and  C_23
    3  A    between atoms: C_23  and  C_24
                            x       y       z     vdW  Elec       q    Type
                         _______ _______ _______ _____ _____    ______ ____

>  <TORSDO>
F 3

$$$$
=
 OpenBabel11042414043D

 31 33  0  0  1  0  0  0  0  0999 V2000
  189.1750  175.2960  142.6370 C   0  0  0  0  0  0  0  0  0  0  0  0
  194.2520  175.4060  142.6290 C   0  0  0  0  0  3  0  0  0  0  0  0
  191.7480  173.2460  140.7090 C   0  0  2  0  0  3  0  0  0  0  0  0
  188.6220  176.5080  144.7790 C   0  0  0  0  0  2  0  0  0  0  0  0
  189.3690  172.8180  141.3440 C   0  0  0  0  0  3  0  0  0  0  0  0
  197.0850  173.4100  142.5550 O   0  0  0  0  0  0  0  0  0  0  0  0
  190.4770  173.6740  141.3750 C   0  0  0  0  0  0  0  0  0  0  0  0
  192.9870  173.5120  141.5750 C   0  0  1  0  0  3  0  0  0  0  0  0
  189.6010  175.7370  145.6540 C   0  0  0  0  0  2  0  0  0  0  0  0
  191.7400  175.8790  146.9330 C   0  0  1  0  0  3  0  0  0  0  0  0
  188.1690  173.1950  141.9550 C   0  0  0  0  0  3  0  0  0  0  0  0
  190.3690  174.9190  142.0140 C   0  0  0  0  0  3  0  0  0  0  0  0
  190.8730  176.5400  145.8740 C   0  0  0  0  0  2  0  0  0  0  0  0
  194.0720  172.4910  141.2750 C   0  0  0  0  0  2  0  0  0  0  0  0
  193.9600  175.5150  145.8760 C   0  0  0  0  0  2  0  0  0  0  0  0
  193.1600  176.4040  146.8050 C   0  0  0  0  0  2  0  0  0  0  0  0
  195.8420  173.5190  142.7200 C   0  0  0  0  0  0  0  0  0  0  0  0
  191.8510  173.7900  139.2880 C   0  0  0  0  0  1  0  0  0  0  0  0
  188.0720  174.4300  142.6010 C   0  0  0  0  0  3  0  0  0  0  0  0
  189.1080  176.6230  143.3320 C   0  0  2  0  0  3  0  0  0  0  0  0
  193.5430  174.9240  141.4000 C   0  0  0  0  0  2  0  0  0  0  0  0
  195.2820  174.7880  143.2250 C   0  0  0  0  0  0  0  0  0  0  0  0
  195.9880  175.4460  144.3830 C   0  0  0  0  0  2  0  0  0  0  0  0
  195.0920  176.3190  145.2630 C   0  0  0  0  0  2  0  0  0  0  0  0
  194.9750  172.3200  142.4860 C   0  0  0  0  0  2  0  0  0  0  0  0
  188.2800  177.5980  142.5580 C   0  0  0  0  0  0  0  0  0  0  0  0
  186.9410  177.7690  142.8840 O   0  0  0  0  0  1  0  0  0  0  0  0
  188.7930  178.2910  141.6380 O   0  0  0  0  0  0  0  0  0  0  0  0
  191.1920  176.2040  148.3150 C   0  0  0  0  0  2  0  0  0  0  0  0
  191.5660  177.9160  149.9000 O   0  0  0  0  0  0  0  0  0  0  0  0
  191.5510  177.5970  148.7220 C   0  0  0  0  0  3  0  0  0  0  0  0
  1 20  1  0  0  0  0
  2 22  2  0  0  0  0
  3 18  1  6  0  0  0
  3  7  1  0  0  0  0
  3  8  1  0  0  0  0
  4  9  1  0  0  0  0
  5  7  2  0  0  0  0
  5 11  1  0  0  0  0
  6 17  2  0  0  0  0
  7 12  1  0  0  0  0
  8 14  1  6  0  0  0
  9 13  1  0  0  0  0
 10 29  1  1  0  0  0
 11 19  2  0  0  0  0
 12  1  2  0  0  0  0
 13 10  1  0  0  0  0
 14 25  1  0  0  0  0
 15 16  1  0  0  0  0
 16 10  1  0  0  0  0
 17 22  1  0  0  0  0
 19  1  1  0  0  0  0
 20 26  1  6  0  0  0
 20  4  1  0  0  0  0
 21  8  1  0  0  0  0
 21  2  1  0  0  0  0
 22 23  1  0  0  0  0
 23 24  1  0  0  0  0
 24 15  1  0  0  0  0
 25 17  1  0  0  0  0
 26 27  1  0  0  0  0
 28 26  2  0  0  0  0
 29 31  1  0  0  0  0
 31 30  2  0  0  0  0
M  END
>  <MODEL>
4

>  <REMARK>
 VINA RESULT:      -6.8      2.193      7.584
  Name = 
  3 active torsions:
  status: ('A' for Active; 'I' for Inactive)
    1  A    between atoms: C_9  and  C_26
    2  A    between atoms: C_11  and  C_23
    3  A    between atoms: C_23  and  C_24
                            x       y       z     vdW  Elec       q    Type
                         _______ _______ _______ _____ _____    ______ ____

>  <TORSDO>
F 3

$$$$
=
 OpenBabel11042414043D

 31 33  0  0  1  0  0  0  0  0999 V2000
  192.5290  175.8190  145.8110 C   0  0  0  0  0  0  0  0  0  0  0  0
  190.3960  172.1600  143.0100 C   0  0  0  0  0  3  0  0  0  0  0  0
  193.9890  172.6820  144.2090 C   0  0  2  0  0  3  0  0  0  0  0  0
  190.8260  177.6730  145.6460 C   0  0  0  0  0  2  0  0  0  0  0  0
  195.0060  174.8450  144.9390 C   0  0  0  0  0  3  0  0  0  0  0  0
  190.8780  170.1220  140.2470 O   0  0  0  0  0  0  0  0  0  0  0  0
  193.8620  174.0480  144.8100 C   0  0  0  0  0  0  0  0  0  0  0  0
  192.8890  172.3850  143.1800 C   0  0  1  0  0  3  0  0  0  0  0  0
  190.6550  177.5970  144.1350 C   0  0  0  0  0  2  0  0  0  0  0  0
  189.1060  176.9420  142.2900 C   0  0  1  0  0  3  0  0  0  0  0  0
  194.9160  176.1220  145.5000 C   0  0  0  0  0  3  0  0  0  0  0  0
  192.6260  174.5370  145.2600 C   0  0  0  0  0  3  0  0  0  0  0  0
  189.4030  176.8140  143.7750 C   0  0  0  0  0  2  0  0  0  0  0  0
  193.4000  171.4230  142.1210 C   0  0  0  0  0  2  0  0  0  0  0  0
  188.9740  174.6210  141.4100 C   0  0  0  0  0  2  0  0  0  0  0  0
  188.1720  175.8200  141.8740 C   0  0  0  0  0  2  0  0  0  0  0  0
  191.2190  171.1270  140.9230 C   0  0  0  0  0  0  0  0  0  0  0  0
  194.1480  171.6070  145.2790 C   0  0  0  0  0  1  0  0  0  0  0  0
  193.6800  176.6090  145.9350 C   0  0  0  0  0  3  0  0  0  0  0  0
  191.1850  176.3150  146.2560 C   0  0  2  0  0  3  0  0  0  0  0  0
  191.6160  171.8280  143.8140 C   0  0  0  0  0  2  0  0  0  0  0  0
  190.2060  171.8480  141.7190 C   0  0  0  0  0  0  0  0  0  0  0  0
  188.8790  172.1280  141.0630 C   0  0  0  0  0  2  0  0  0  0  0  0
  188.1490  173.3610  141.5990 C   0  0  0  0  0  2  0  0  0  0  0  0
  192.6310  171.6190  140.8240 C   0  0  0  0  0  2  0  0  0  0  0  0
  191.0880  176.3480  147.7480 C   0  0  0  0  0  0  0  0  0  0  0  0
  190.8410  177.5540  148.3910 O   0  0  0  0  0  0  0  0  0  0  0  0
  191.1910  175.2890  148.4230 O   0  0  0  0  0  1  0  0  0  0  0  0
  188.4500  178.2880  142.0170 C   0  0  0  0  0  2  0  0  0  0  0  0
  186.3150  179.0310  142.7030 O   0  0  0  0  0  0  0  0  0  0  0  0
  186.9610  178.1880  142.1030 C   0  0  0  0  0  3  0  0  0  0  0  0
  1 19  1  0  0  0  0
  1 20  1  0  0  0  0
  2 21  1  0  0  0  0
  3  7  1  0  0  0  0
  3 18  1  1  0  0  0
  4 20  1  0  0  0  0
  5 11  1  0  0  0  0
  6 17  2  0  0  0  0
  7  5  2  0  0  0  0
  7 12  1  0  0  0  0
  8 14  1  6  0  0  0
  8 21  1  0  0  0  0
  8  3  1  0  0  0  0
  9  4  1  0  0  0  0
 10 29  1  1  0  0  0
 10 13  1  0  0  0  0
 11 19  2  0  0  0  0
 12  1  2  0  0  0  0
 13  9  1  0  0  0  0
 15 24  1  0  0  0  0
 15 16  1  0  0  0  0
 16 10  1  0  0  0  0
 17 22  1  0  0  0  0
 20 26  1  1  0  0  0
 22  2  2  0  0  0  0
 23 24  1  0  0  0  0
 23 22  1  0  0  0  0
 25 17  1  0  0  0  0
 25 14  1  0  0  0  0
 26 27  2  0  0  0  0
 26 28  1  0  0  0  0
 29 31  1  0  0  0  0
 31 30  2  0  0  0  0
M  END
>  <MODEL>
5

>  <REMARK>
 VINA RESULT:      -6.7      2.781      5.777
  Name = 
  3 active torsions:
  status: ('A' for Active; 'I' for Inactive)
    1  A    between atoms: C_9  and  C_26
    2  A    between atoms: C_11  and  C_23
    3  A    between atoms: C_23  and  C_24
                            x       y       z     vdW  Elec       q    Type
                         _______ _______ _______ _____ _____    ______ ____

>  <TORSDO>
F 3

$$$$
=
 OpenBabel11042414043D

 31 33  0  0  1  0  0  0  0  0999 V2000
  195.6240  174.9160  143.7670 C   0  0  0  0  0  0  0  0  0  0  0  0
  191.7190  172.1010  142.1500 C   0  0  0  0  0  3  0  0  0  0  0  0
  194.4120  174.0460  140.2580 C   0  0  2  0  0  3  0  0  0  0  0  0
  194.9850  175.3820  146.1620 C   0  0  0  0  0  2  0  0  0  0  0  0
  195.7890  175.9260  141.1600 C   0  0  0  0  0  3  0  0  0  0  0  0
  189.1950  171.9310  139.7800 O   0  0  0  0  0  0  0  0  0  0  0  0
  195.0740  174.7480  141.4040 C   0  0  0  0  0  0  0  0  0  0  0  0
  192.9790  173.6030  140.5850 C   0  0  1  0  0  3  0  0  0  0  0  0
  193.5530  175.8060  145.8650 C   0  0  0  0  0  2  0  0  0  0  0  0
  191.1500  175.1600  146.0710 C   0  0  1  0  0  3  0  0  0  0  0  0
  196.4200  176.5990  142.2110 C   0  0  0  0  0  3  0  0  0  0  0  0
  195.0050  174.2400  142.7100 C   0  0  0  0  0  3  0  0  0  0  0  0
  192.5860  174.6650  146.1380 C   0  0  0  0  0  2  0  0  0  0  0  0
  192.1290  173.5890  139.3260 C   0  0  0  0  0  2  0  0  0  0  0  0
  190.0020  173.7180  144.4030 C   0  0  0  0  0  2  0  0  0  0  0  0
  190.2270  173.9690  145.8800 C   0  0  0  0  0  2  0  0  0  0  0  0
  190.0780  172.6020  140.3740 C   0  0  0  0  0  0  0  0  0  0  0  0
  195.2930  172.9390  139.6890 C   0  0  0  0  0  1  0  0  0  0  0  0
  196.3370  176.0960  143.5120 C   0  0  0  0  0  3  0  0  0  0  0  0
  195.5040  174.3550  145.1530 C   0  0  2  0  0  3  0  0  0  0  0  0
  192.9200  172.2370  141.2650 C   0  0  0  0  0  2  0  0  0  0  0  0
  190.4440  172.2580  141.7620 C   0  0  0  0  0  0  0  0  0  0  0  0
  189.3220  171.9670  142.7240 C   0  0  0  0  0  2  0  0  0  0  0  0
  189.6480  172.2580  144.1910 C   0  0  0  0  0  2  0  0  0  0  0  0
  190.6660  173.7950  139.6830 C   0  0  0  0  0  2  0  0  0  0  0  0
  196.7970  173.7550  145.6070 C   0  0  0  0  0  0  0  0  0  0  0  0
  197.6520  173.1850  144.6730 O   0  0  0  0  0  0  0  0  0  0  0  0
  197.1330  173.7950  146.8210 O   0  0  0  0  0  1  0  0  0  0  0  0
  190.8010  175.8830  147.3640 C   0  0  0  0  0  2  0  0  0  0  0  0
  189.9210  177.5560  145.9470 O   0  0  0  0  0  0  0  0  0  0  0  0
  190.0400  177.1400  147.0880 C   0  0  0  0  0  3  0  0  0  0  0  0
  1 20  1  0  0  0  0
  3 18  1  1  0  0  0
  3  8  1  0  0  0  0
  3  7  1  0  0  0  0
  5  7  2  0  0  0  0
  5 11  1  0  0  0  0
  6 17  2  0  0  0  0
  7 12  1  0  0  0  0
  8 14  1  6  0  0  0
  8 21  1  0  0  0  0
  9 13  1  0  0  0  0
  9  4  1  0  0  0  0
 10 13  1  0  0  0  0
 10 29  1  1  0  0  0
 11 19  2  0  0  0  0
 12  1  2  0  0  0  0
 14 25  1  0  0  0  0
 15 16  1  0  0  0  0
 16 10  1  0  0  0  0
 17 22  1  0  0  0  0
 19  1  1  0  0  0  0
 20 26  1  1  0  0  0
 20  4  1  0  0  0  0
 21  2  1  0  0  0  0
 22  2  2  0  0  0  0
 22 23  1  0  0  0  0
 23 24  1  0  0  0  0
 24 15  1  0  0  0  0
 25 17  1  0  0  0  0
 26 28  1  0  0  0  0
 27 26  2  0  0  0  0
 30 31  2  0  0  0  0
 31 29  1  0  0  0  0
M  END
>  <MODEL>
6

>  <REMARK>
 VINA RESULT:      -6.6      2.432      6.211
  Name = 
  3 active torsions:
  status: ('A' for Active; 'I' for Inactive)
    1  A    between atoms: C_9  and  C_26
    2  A    between atoms: C_11  and  C_23
    3  A    between atoms: C_23  and  C_24
                            x       y       z     vdW  Elec       q    Type
                         _______ _______ _______ _____ _____    ______ ____

>  <TORSDO>
F 3

$$$$
=
 OpenBabel11042414043D

 31 33  0  0  1  0  0  0  0  0999 V2000
  190.9480  172.0780  141.8470 C   0  0  0  0  0  0  0  0  0  0  0  0
  194.8220  174.3840  144.1840 C   0  0  0  0  0  3  0  0  0  0  0  0
  194.5800  171.0340  142.3570 C   0  0  2  0  0  3  0  0  0  0  0  0
  188.9550  173.3040  142.7890 C   0  0  0  0  0  2  0  0  0  0  0  0
  192.4900  169.7400  141.9090 C   0  0  0  0  0  3  0  0  0  0  0  0
  197.5500  173.8470  146.2540 O   0  0  0  0  0  0  0  0  0  0  0  0
  193.1030  170.9820  142.1130 C   0  0  0  0  0  0  0  0  0  0  0  0
  194.9540  171.9690  143.5150 C   0  0  1  0  0  3  0  0  0  0  0  0
  189.3880  173.2150  144.2460 C   0  0  0  0  0  2  0  0  0  0  0  0
  190.2440  174.5100  146.2020 C   0  0  1  0  0  3  0  0  0  0  0  0
  191.1130  169.6630  141.6760 C   0  0  0  0  0  3  0  0  0  0  0  0
  192.3270  172.1500  142.0680 C   0  0  0  0  0  3  0  0  0  0  0  0
  190.0310  174.5170  144.6970 C   0  0  0  0  0  2  0  0  0  0  0  0
  196.2240  171.4870  144.1960 C   0  0  0  0  0  2  0  0  0  0  0  0
  192.6620  174.9590  146.5590 C   0  0  0  0  0  2  0  0  0  0  0  0
  191.2740  175.5660  146.5590 C   0  0  0  0  0  2  0  0  0  0  0  0
  196.4710  173.4320  145.7560 C   0  0  0  0  0  0  0  0  0  0  0  0
  195.3560  171.2930  141.0700 C   0  0  0  0  0  1  0  0  0  0  0  0
  190.3430  170.8290  141.6450 C   0  0  0  0  0  3  0  0  0  0  0  0
  190.1500  173.3480  141.8330 C   0  0  2  0  0  3  0  0  0  0  0  0
  195.1230  173.4230  143.0750 C   0  0  0  0  0  2  0  0  0  0  0  0
  195.4210  174.4000  145.3840 C   0  0  0  0  0  0  0  0  0  0  0  0
  195.1140  175.5020  146.3640 C   0  0  0  0  0  2  0  0  0  0  0  0
  193.6850  176.0460  146.2880 C   0  0  0  0  0  2  0  0  0  0  0  0
  196.2490  171.9550  145.6420 C   0  0  0  0  0  2  0  0  0  0  0  0
  189.7200  173.7010  140.4450 C   0  0  0  0  0  0  0  0  0  0  0  0
  190.6110  173.5430  139.3910 O   0  0  0  0  0  0  0  0  0  0  0  0
  188.5480  174.1050  140.2170 O   0  0  0  0  0  1  0  0  0  0  0  0
  188.9270  174.8150  146.9020 C   0  0  0  0  0  2  0  0  0  0  0  0
  187.2370  176.4590  146.7480 O   0  0  0  0  0  0  0  0  0  0  0  0
  188.3800  176.1360  146.4670 C   0  0  0  0  0  3  0  0  0  0  0  0
  1 12  1  0  0  0  0
  2 22  2  0  0  0  0
  3 18  1  6  0  0  0
  3  8  1  0  0  0  0
  4  9  1  0  0  0  0
  5  7  1  0  0  0  0
  7  3  1  0  0  0  0
  8 21  1  6  0  0  0
  8 14  1  0  0  0  0
  9 13  1  0  0  0  0
 10 16  1  0  0  0  0
 10 29  1  1  0  0  0
 11  5  2  0  0  0  0
 12  7  2  0  0  0  0
 13 10  1  0  0  0  0
 14 25  1  0  0  0  0
 16 15  1  0  0  0  0
 17  6  2  0  0  0  0
 19 11  1  0  0  0  0
 19  1  2  0  0  0  0
 20 26  1  6  0  0  0
 20  1  1  0  0  0  0
 20  4  1  0  0  0  0
 21  2  1  0  0  0  0
 22 17  1  0  0  0  0
 22 23  1  0  0  0  0
 24 23  1  0  0  0  0
 24 15  1  0  0  0  0
 25 17  1  0  0  0  0
 27 26  2  0  0  0  0
 28 26  1  0  0  0  0
 31 30  2  0  0  0  0
 31 29  1  0  0  0  0
M  END
>  <MODEL>
7

>  <REMARK>
 VINA RESULT:      -6.5      2.230      6.542
  Name = 
  3 active torsions:
  status: ('A' for Active; 'I' for Inactive)
    1  A    between atoms: C_9  and  C_26
    2  A    between atoms: C_11  and  C_23
    3  A    between atoms: C_23  and  C_24
                            x       y       z     vdW  Elec       q    Type
                         _______ _______ _______ _____ _____    ______ ____

>  <TORSDO>
F 3

$$$$
=
 OpenBabel11042414043D

 31 33  0  0  1  0  0  0  0  0999 V2000
  192.0910  172.6530  142.3680 C   0  0  0  0  0  0  0  0  0  0  0  0
  188.0420  175.3120  143.8910 C   0  0  0  0  0  3  0  0  0  0  0  0
  189.2090  174.2140  140.4190 C   0  0  2  0  0  3  0  0  0  0  0  0
  193.6170  172.8210  144.3690 C   0  0  0  0  0  2  0  0  0  0  0  0
  191.5350  173.5620  139.7780 C   0  0  0  0  0  3  0  0  0  0  0  0
  186.0410  178.0360  143.1180 O   0  0  0  0  0  0  0  0  0  0  0  0
  190.5490  173.6430  140.7690 C   0  0  0  0  0  0  0  0  0  0  0  0
  188.6990  175.2090  141.4710 C   0  0  1  0  0  3  0  0  0  0  0  0
  193.4710  174.3250  144.5550 C   0  0  0  0  0  2  0  0  0  0  0  0
  192.5080  176.1160  146.0030 C   0  0  1  0  0  3  0  0  0  0  0  0
  192.7920  173.0290  140.0760 C   0  0  0  0  0  3  0  0  0  0  0  0
  190.8300  173.1750  142.0610 C   0  0  0  0  0  3  0  0  0  0  0  0
  192.4740  174.6350  145.6590 C   0  0  0  0  0  2  0  0  0  0  0  0
  187.8100  176.2560  140.8220 C   0  0  0  0  0  2  0  0  0  0  0  0
  190.1750  176.9360  145.7490 C   0  0  0  0  0  2  0  0  0  0  0  0
  191.2300  176.4810  146.7370 C   0  0  0  0  0  2  0  0  0  0  0  0
  187.1090  177.3930  142.9430 C   0  0  0  0  0  0  0  0  0  0  0  0
  188.2080  173.1230  140.0550 C   0  0  0  0  0  1  0  0  0  0  0  0
  193.0710  172.5760  141.3680 C   0  0  0  0  0  3  0  0  0  0  0  0
  192.3600  172.1870  143.7680 C   0  0  2  0  0  3  0  0  0  0  0  0
  187.9480  174.5310  142.6160 C   0  0  0  0  0  2  0  0  0  0  0  0
  187.6660  176.5900  144.0490 C   0  0  0  0  0  0  0  0  0  0  0  0
  187.6940  177.2200  145.4180 C   0  0  0  0  0  2  0  0  0  0  0  0
  188.7980  176.6960  146.3390 C   0  0  0  0  0  2  0  0  0  0  0  0
  187.8340  177.5380  141.6390 C   0  0  0  0  0  2  0  0  0  0  0  0
  192.4180  170.6950  143.8400 C   0  0  0  0  0  0  0  0  0  0  0  0
  191.6210  169.9370  142.9920 O   0  0  0  0  0  0  0  0  0  0  0  0
  193.2080  170.1190  144.6360 O   0  0  0  0  0  1  0  0  0  0  0  0
  193.7120  176.4050  146.8870 C   0  0  0  0  0  2  0  0  0  0  0  0
  194.8280  177.4820  145.1050 O   0  0  0  0  0  0  0  0  0  0  0  0
  194.5670  177.4810  146.2970 C   0  0  0  0  0  3  0  0  0  0  0  0
  1 20  1  0  0  0  0
  2 22  2  0  0  0  0
  3 18  1  1  0  0  0
  3  7  1  0  0  0  0
  3  8  1  0  0  0  0
  4  9  1  0  0  0  0
  5 11  2  0  0  0  0
  5  7  1  0  0  0  0
  7 12  2  0  0  0  0
  8 14  1  6  0  0  0
  8 21  1  0  0  0  0
  9 13  1  0  0  0  0
 10 16  1  0  0  0  0
 10 29  1  1  0  0  0
 11 19  1  0  0  0  0
 12  1  1  0  0  0  0
 13 10  1  0  0  0  0
 14 25  1  0  0  0  0
 15 24  1  0  0  0  0
 15 16  1  0  0  0  0
 17  6  2  0  0  0  0
 17 22  1  0  0  0  0
 19  1  2  0  0  0  0
 20 26  1  6  0  0  0
 20  4  1  0  0  0  0
 21  2  1  0  0  0  0
 22 23  1  0  0  0  0
 23 24  1  0  0  0  0
 25 17  1  0  0  0  0
 26 28  1  0  0  0  0
 27 26  2  0  0  0  0
 30 31  2  0  0  0  0
 31 29  1  0  0  0  0
M  END
>  <MODEL>
8

>  <REMARK>
 VINA RESULT:      -6.5      2.489      5.946
  Name = 
  3 active torsions:
  status: ('A' for Active; 'I' for Inactive)
    1  A    between atoms: C_9  and  C_26
    2  A    between atoms: C_11  and  C_23
    3  A    between atoms: C_23  and  C_24
                            x       y       z     vdW  Elec       q    Type
                         _______ _______ _______ _____ _____    ______ ____

>  <TORSDO>
F 3

$$$$
=
 OpenBabel11042414043D

 31 33  0  0  1  0  0  0  0  0999 V2000
  189.9200  176.5750  144.4160 C   0  0  0  0  0  0  0  0  0  0  0  0
  192.9260  172.4840  144.5340 C   0  0  0  0  0  3  0  0  0  0  0  0
  193.6680  176.2050  145.0140 C   0  0  2  0  0  3  0  0  0  0  0  0
  187.8800  175.6990  143.2190 C   0  0  0  0  0  2  0  0  0  0  0  0
  192.2560  178.1090  144.2240 C   0  0  0  0  0  3  0  0  0  0  0  0
  196.0330  171.2780  143.5830 O   0  0  0  0  0  0  0  0  0  0  0  0
  192.3310  176.7800  144.6570 C   0  0  0  0  0  0  0  0  0  0  0  0
  193.8820  174.8020  144.4280 C   0  0  1  0  0  3  0  0  0  0  0  0
  188.6380  175.0320  142.0800 C   0  0  0  0  0  2  0  0  0  0  0  0
  189.3140  172.8430  141.0880 C   0  0  1  0  0  3  0  0  0  0  0  0
  191.0210  178.6720  143.8880 C   0  0  0  0  0  3  0  0  0  0  0  0
  191.1560  176.0210  144.7630 C   0  0  0  0  0  3  0  0  0  0  0  0
  188.7730  173.5380  142.3270 C   0  0  0  0  0  2  0  0  0  0  0  0
  195.3580  174.5600  144.1610 C   0  0  0  0  0  2  0  0  0  0  0  0
  191.3420  171.6070  141.8210 C   0  0  0  0  0  2  0  0  0  0  0  0
  189.8690  171.4870  141.4860 C   0  0  0  0  0  2  0  0  0  0  0  0
  195.1380  172.1570  143.4860 C   0  0  0  0  0  0  0  0  0  0  0  0
  193.9430  176.3040  146.5100 C   0  0  0  0  0  1  0  0  0  0  0  0
  189.8550  177.9070  143.9830 C   0  0  0  0  0  3  0  0  0  0  0  0
  188.6900  175.7230  144.5180 C   0  0  2  0  0  3  0  0  0  0  0  0
  193.3290  173.6930  145.3220 C   0  0  0  0  0  2  0  0  0  0  0  0
  193.7270  171.7880  143.7140 C   0  0  0  0  0  0  0  0  0  0  0  0
  193.2310  170.5150  143.0790 C   0  0  0  0  0  2  0  0  0  0  0  0
  191.7320  170.4940  142.7760 C   0  0  0  0  0  2  0  0  0  0  0  0
  195.5250  173.5370  143.0490 C   0  0  0  0  0  2  0  0  0  0  0  0
  187.8420  176.1330  145.6790 C   0  0  0  0  0  0  0  0  0  0  0  0
  186.6570  176.8210  145.4510 O   0  0  0  0  0  0  0  0  0  0  0  0
  188.1730  175.8300  146.8570 O   0  0  0  0  0  1  0  0  0  0  0  0
  188.1920  172.6650  140.0740 C   0  0  0  0  0  2  0  0  0  0  0  0
  188.1870  174.4920  138.5760 O   0  0  0  0  0  0  0  0  0  0  0  0
  188.5250  173.3380  138.7810 C   0  0  0  0  0  3  0  0  0  0  0  0
  1 20  1  0  0  0  0
  1 12  1  0  0  0  0
  2 21  1  0  0  0  0
  3 18  1  1  0  0  0
  4 20  1  0  0  0  0
  5  7  1  0  0  0  0
  7 12  2  0  0  0  0
  7  3  1  0  0  0  0
  8 14  1  1  0  0  0
  8  3  1  0  0  0  0
  8 21  1  0  0  0  0
  9 13  1  0  0  0  0
  9  4  1  0  0  0  0
 10 29  1  6  0  0  0
 10 16  1  0  0  0  0
 10 13  1  0  0  0  0
 11 19  1  0  0  0  0
 11  5  2  0  0  0  0
 15 24  1  0  0  0  0
 16 15  1  0  0  0  0
 17  6  2  0  0  0  0
 17 22  1  0  0  0  0
 19  1  2  0  0  0  0
 20 26  1  1  0  0  0
 22  2  2  0  0  0  0
 23 22  1  0  0  0  0
 24 23  1  0  0  0  0
 25 17  1  0  0  0  0
 25 14  1  0  0  0  0
 26 28  1  0  0  0  0
 27 26  2  0  0  0  0
 30 31  2  0  0  0  0
 31 29  1  0  0  0  0
M  END
>  <MODEL>
9

>  <REMARK>
 VINA RESULT:      -6.4      2.099      5.851
  Name = 
  3 active torsions:
  status: ('A' for Active; 'I' for Inactive)
    1  A    between atoms: C_9  and  C_26
    2  A    between atoms: C_11  and  C_23
    3  A    between atoms: C_23  and  C_24
                            x       y       z     vdW  Elec       q    Type
                         _______ _______ _______ _____ _____    ______ ____

>  <TORSDO>
F 3

$$$$
