=
 OpenBabel11042419253D

 40 45  0  0  1  0  0  0  0  0999 V2000
  185.2280  178.1090  144.2540 C   0  0  0  0  0  0  0  0  0  0  0  0
  186.0960  177.8040  145.2660 C   0  0  0  0  0  0  0  0  0  0  0  0
  184.0290  178.5810  144.7480 O   0  0  0  0  0  0  0  0  0  0  0  0
  187.7750  177.1440  143.6440 C   0  0  0  0  0  0  0  0  0  0  0  0
  186.8540  177.4580  142.6190 C   0  0  0  0  0  3  0  0  0  0  0  0
  184.0560  178.6200  146.1700 C   0  0  0  0  0  3  0  0  0  0  0  0
  187.3940  177.3190  145.0000 C   0  0  0  0  0  0  0  0  0  0  0  0
  185.4520  178.1130  146.5740 C   0  0  0  0  0  3  0  0  0  0  0  0
  185.5700  177.9460  142.9070 C   0  0  0  0  0  0  0  0  0  0  0  0
  191.5510  177.4110  143.1270 C   0  0  0  0  0  3  0  0  0  0  0  0
  190.3690  174.5870  142.4240 C   0  0  0  0  0  3  0  0  0  0  0  0
  191.6390  174.9540  142.3120 C   0  0  0  0  0  3  0  0  0  0  0  0
  192.1810  176.2390  142.6120 N   0  0  0  0  0  0  0  0  0  0  0  0
  189.2100  175.3690  142.8610 C   0  0  0  0  0  3  0  0  0  0  0  0
  190.2590  177.5690  143.4050 C   0  0  0  0  0  2  0  0  0  0  0  0
  189.1230  176.6390  143.2700 C   0  0  0  0  0  0  0  0  0  0  0  0
  184.6410  178.2700  141.8050 C   0  0  0  0  0  0  0  0  0  0  0  0
  185.1010  178.5940  140.6750 O   0  0  0  0  0  0  0  0  0  0  0  0
  183.2270  178.2450  142.0090 N   0  0  0  0  0  0  0  0  0  0  0  0
  177.6920  179.1100  139.4130 N   0  0  0  0  0  1  0  0  0  0  0  0
  180.0510  179.0610  140.0390 C   0  0  0  0  0  2  0  0  0  0  0  0
  182.3450  178.5420  140.9620 N   0  0  0  0  0  0  0  0  0  0  0  0
  178.1960  178.1630  141.6150 C   0  0  0  0  0  2  0  0  0  0  0  0
  180.9490  178.7250  141.1910 C   0  0  0  0  0  0  0  0  0  0  0  0
  180.4630  178.6560  142.3930 N   0  0  0  0  0  0  0  0  0  0  0  0
  178.6860  178.3670  140.1690 C   0  0  1  0  0  3  0  0  0  0  0  0
  179.0460  178.9120  142.6410 C   0  0  0  0  0  2  0  0  0  0  0  0
  188.3200  177.0300  146.0120 O   0  0  0  0  0  0  0  0  0  0  0  0
  188.5650  175.7350  146.5500 C   0  0  0  0  0  2  0  0  0  0  0  0
  192.8840  177.0550  147.5430 C   0  0  0  0  0  2  0  0  0  0  0  0
  190.8710  174.7690  146.2830 C   0  0  0  0  0  2  0  0  0  0  0  0
  190.5830  177.0490  147.1960 C   0  0  1  0  0  3  0  0  0  0  0  0
  194.2510  175.0220  144.8080 O   0  0  0  0  0  0  0  0  0  0  0  0
  189.9630  175.6680  147.1520 C   0  0  1  0  0  3  0  0  0  0  0  0
  194.7600  177.2850  145.2950 C   0  0  0  0  0  1  0  0  0  0  0  0
  192.3210  174.6490  146.8010 C   0  0  0  0  0  2  0  0  0  0  0  0
  190.5270  177.9430  148.4120 C   0  0  0  0  0  2  0  0  0  0  0  0
  193.0870  175.9030  146.6380 N   0  0  0  0  0  0  0  0  0  0  0  0
  194.0290  176.0100  145.5590 C   0  0  0  0  0  0  0  0  0  0  0  0
  191.5930  176.8750  148.3160 C   0  0  2  0  0  3  0  0  0  0  0  0
  1  3  1  0  0  0  0
  1  2  1  0  0  0  0
  2  8  1  0  0  0  0
  3  6  1  0  0  0  0
  4  7  1  0  0  0  0
  5  9  1  0  0  0  0
  5  4  2  0  0  0  0
  6  8  2  0  0  0  0
  7  2  2  0  0  0  0
  7 28  1  0  0  0  0
  9  1  2  0  0  0  0
 10 15  1  0  0  0  0
 11 14  1  0  0  0  0
 12 11  2  0  0  0  0
 12 13  1  0  0  0  0
 13 10  2  0  0  0  0
 14 16  2  0  0  0  0
 16 15  1  0  0  0  0
 16  4  1  0  0  0  0
 17 19  1  0  0  0  0
 17  9  1  0  0  0  0
 18 17  2  0  0  0  0
 21 26  1  0  0  0  0
 21 24  1  0  0  0  0
 22 24  1  0  0  0  0
 22 19  2  0  0  0  0
 23 27  1  0  0  0  0
 24 25  2  0  0  0  0
 25 27  1  0  0  0  0
 26 20  1  6  0  0  0
 26 23  1  0  0  0  0
 28 29  1  0  0  0  0
 31 36  1  0  0  0  0
 31 34  1  0  0  0  0
 32 40  1  0  0  0  0
 32 37  1  1  0  0  0
 33 39  2  0  0  0  0
 34 29  1  6  0  0  0
 34 32  1  0  0  0  0
 35 39  1  0  0  0  0
 38 36  1  0  0  0  0
 38 30  1  0  0  0  0
 39 38  1  0  0  0  0
 40 30  1  6  0  0  0
 40 37  1  0  0  0  0
M  END
>  <MODEL>
1

>  <REMARK>
 VINA RESULT:      -9.0      0.000      0.000
  Name = 
  6 active torsions:
  status: ('A' for Active; 'I' for Inactive)
    1  A    between atoms: C_8  and  C_34
    2  A    between atoms: C_9  and  O_18
    3  A    between atoms: C_9  and  C_21
    4  A    between atoms: N_10  and  N_39
    5  A    between atoms: C_16  and  C_37
    6  A    between atoms: O_18  and  C_29
                            x       y       z     vdW  Elec       q    Type
                         _______ _______ _______ _____ _____    ______ ____

>  <TORSDO>
F 6

$$$$
=
 OpenBabel11042419253D

 40 45  0  0  1  0  0  0  0  0999 V2000
  191.6980  176.2730  144.6930 C   0  0  0  0  0  0  0  0  0  0  0  0
  192.9250  176.0550  145.2560 C   0  0  0  0  0  0  0  0  0  0  0  0
  190.7690  176.6440  145.6420 O   0  0  0  0  0  0  0  0  0  0  0  0
  193.8480  175.5270  143.0750 C   0  0  0  0  0  0  0  0  0  0  0  0
  192.5670  175.7500  142.5220 C   0  0  0  0  0  3  0  0  0  0  0  0
  191.3680  176.6990  146.9320 C   0  0  0  0  0  3  0  0  0  0  0  0
  194.0380  175.6820  144.4740 C   0  0  0  0  0  0  0  0  0  0  0  0
  192.8460  176.3200  146.7200 C   0  0  0  0  0  3  0  0  0  0  0  0
  191.4760  176.1270  143.3190 C   0  0  0  0  0  0  0  0  0  0  0  0
  196.8590  176.1750  140.8150 C   0  0  0  0  0  3  0  0  0  0  0  0
  196.1060  173.1380  141.0890 C   0  0  0  0  0  3  0  0  0  0  0  0
  197.0880  173.6370  140.3500 C   0  0  0  0  0  3  0  0  0  0  0  0
  197.4250  175.0160  140.2060 N   0  0  0  0  0  0  0  0  0  0  0  0
  195.1240  173.8340  141.9250 C   0  0  0  0  0  3  0  0  0  0  0  0
  195.8220  176.2160  141.6470 C   0  0  0  0  0  2  0  0  0  0  0  0
  194.9640  175.1380  142.1740 C   0  0  0  0  0  0  0  0  0  0  0  0
  190.1550  176.3580  142.6970 C   0  0  0  0  0  0  0  0  0  0  0  0
  189.4700  175.3750  142.3010 O   0  0  0  0  0  0  0  0  0  0  0  0
  189.6540  177.6840  142.5170 N   0  0  0  0  0  2  0  0  0  0  0  0
  183.5280  178.4460  142.5300 N   0  0  0  0  0  1  0  0  0  0  0  0
  185.9230  178.3940  142.0640 C   0  0  0  0  0  2  0  0  0  0  0  0
  188.3980  177.9050  141.9370 N   0  0  0  0  0  2  0  0  0  0  0  0
  184.9600  177.6970  144.3700 C   0  0  0  0  0  2  0  0  0  0  0  0
  187.2400  178.1450  142.7340 C   0  0  0  0  0  0  0  0  0  0  0  0
  187.3300  178.2010  144.0280 N   0  0  0  0  0  0  0  0  0  0  0  0
  184.7640  177.7520  142.8430 C   0  0  1  0  0  3  0  0  0  0  0  0
  186.1600  178.5160  144.8440 C   0  0  0  0  0  2  0  0  0  0  0  0
  195.3160  175.4850  145.0150 O   0  0  0  0  0  0  0  0  0  0  0  0
  195.6390  174.5330  146.0230 C   0  0  0  0  0  2  0  0  0  0  0  0
  194.3980  170.1140  145.4680 C   0  0  0  0  0  2  0  0  0  0  0  0
  196.7950  172.3010  146.0520 C   0  0  0  0  0  2  0  0  0  0  0  0
  194.3400  172.4200  145.7730 C   0  0  1  0  0  3  0  0  0  0  0  0
  197.1690  168.9570  147.5810 O   0  0  0  0  0  0  0  0  0  0  0  0
  195.6380  173.1260  145.4410 C   0  0  1  0  0  3  0  0  0  0  0  0
  194.8980  168.2940  147.7180 C   0  0  0  0  0  1  0  0  0  0  0  0
  196.8710  170.8460  145.5380 C   0  0  0  0  0  2  0  0  0  0  0  0
  193.1550  172.3850  144.8380 C   0  0  0  0  0  2  0  0  0  0  0  0
  195.7590  170.0090  146.0380 N   0  0  0  0  0  0  0  0  0  0  0  0
  196.0050  169.0940  147.1170 C   0  0  0  0  0  0  0  0  0  0  0  0
  194.2800  171.3900  144.6590 C   0  0  2  0  0  3  0  0  0  0  0  0
  1  2  1  0  0  0  0
  1  3  1  0  0  0  0
  2  8  1  0  0  0  0
  3  6  1  0  0  0  0
  4  7  1  0  0  0  0
  5  4  2  0  0  0  0
  5  9  1  0  0  0  0
  7 28  1  0  0  0  0
  7  2  2  0  0  0  0
  8  6  2  0  0  0  0
  9  1  2  0  0  0  0
 10 15  1  0  0  0  0
 11 14  1  0  0  0  0
 12 11  2  0  0  0  0
 13 12  1  0  0  0  0
 13 10  2  0  0  0  0
 14 16  2  0  0  0  0
 15 16  1  0  0  0  0
 16  4  1  0  0  0  0
 17  9  1  0  0  0  0
 18 17  2  0  0  0  0
 19 17  1  0  0  0  0
 21 24  1  0  0  0  0
 21 26  1  0  0  0  0
 22 19  1  0  0  0  0
 22 24  1  0  0  0  0
 23 27  1  0  0  0  0
 24 25  2  0  0  0  0
 25 27  1  0  0  0  0
 26 20  1  1  0  0  0
 26 23  1  0  0  0  0
 28 29  1  0  0  0  0
 30 38  1  0  0  0  0
 32 37  1  6  0  0  0
 34 32  1  0  0  0  0
 34 29  1  1  0  0  0
 34 31  1  0  0  0  0
 36 38  1  0  0  0  0
 36 31  1  0  0  0  0
 38 39  1  0  0  0  0
 39 33  2  0  0  0  0
 39 35  1  0  0  0  0
 40 37  1  1  0  0  0
 40 30  1  0  0  0  0
 40 32  1  0  0  0  0
M  END
>  <MODEL>
2

>  <REMARK>
 VINA RESULT:      -8.9      3.812      6.717
  Name = 
  6 active torsions:
  status: ('A' for Active; 'I' for Inactive)
    1  A    between atoms: C_8  and  C_34
    2  A    between atoms: C_9  and  O_18
    3  A    between atoms: C_9  and  C_21
    4  A    between atoms: N_10  and  N_39
    5  A    between atoms: C_16  and  C_37
    6  A    between atoms: O_18  and  C_29
                            x       y       z     vdW  Elec       q    Type
                         _______ _______ _______ _____ _____    ______ ____

>  <TORSDO>
F 6

$$$$
=
 OpenBabel11042419253D

 40 45  0  0  1  0  0  0  0  0999 V2000
  185.6610  177.9440  143.8480 C   0  0  0  0  0  0  0  0  0  0  0  0
  186.5420  177.3900  144.7360 C   0  0  0  0  0  0  0  0  0  0  0  0
  184.8790  178.9060  144.4520 O   0  0  0  0  0  0  0  0  0  0  0  0
  187.4340  175.9680  142.9850 C   0  0  0  0  0  0  0  0  0  0  0  0
  186.5070  176.5500  142.0920 C   0  0  0  0  0  3  0  0  0  0  0  0
  185.2290  179.0460  145.8240 C   0  0  0  0  0  3  0  0  0  0  0  0
  187.4570  176.3940  144.3400 C   0  0  0  0  0  0  0  0  0  0  0  0
  186.3720  178.0430  146.0650 C   0  0  0  0  0  3  0  0  0  0  0  0
  185.6090  177.5460  142.5080 C   0  0  0  0  0  0  0  0  0  0  0  0
  188.4590  172.4140  142.0280 C   0  0  0  0  0  3  0  0  0  0  0  0
  190.7140  174.5530  141.5730 C   0  0  0  0  0  3  0  0  0  0  0  0
  190.8140  173.2500  141.3470 C   0  0  0  0  0  3  0  0  0  0  0  0
  189.8020  172.2700  141.5680 N   0  0  0  0  0  0  0  0  0  0  0  0
  189.5830  175.3210  142.1010 C   0  0  0  0  0  3  0  0  0  0  0  0
  187.8590  173.5400  142.4070 C   0  0  0  0  0  2  0  0  0  0  0  0
  188.3630  174.9240  142.4780 C   0  0  0  0  0  0  0  0  0  0  0  0
  184.6620  178.1340  141.5390 C   0  0  0  0  0  0  0  0  0  0  0  0
  185.1020  178.7480  140.5270 O   0  0  0  0  0  0  0  0  0  0  0  0
  183.2500  178.0370  141.7450 N   0  0  0  0  0  0  0  0  0  0  0  0
  177.6910  179.0610  139.2620 N   0  0  0  0  0  1  0  0  0  0  0  0
  180.0190  179.0980  139.9930 C   0  0  0  0  0  2  0  0  0  0  0  0
  182.3500  178.5850  140.8210 N   0  0  0  0  0  0  0  0  0  0  0  0
  178.2970  177.4310  140.9860 C   0  0  0  0  0  2  0  0  0  0  0  0
  180.9400  178.4770  141.0010 C   0  0  0  0  0  0  0  0  0  0  0  0
  180.4500  177.8960  142.0530 N   0  0  0  0  0  0  0  0  0  0  0  0
  178.7740  178.2300  139.7580 C   0  0  1  0  0  3  0  0  0  0  0  0
  179.0070  177.8460  142.2750 C   0  0  0  0  0  2  0  0  0  0  0  0
  188.3970  175.8320  145.2150 O   0  0  0  0  0  0  0  0  0  0  0  0
  188.9740  176.4990  146.3330 C   0  0  0  0  0  2  0  0  0  0  0  0
  193.0960  176.2420  144.2540 C   0  0  0  0  0  2  0  0  0  0  0  0
  191.1610  175.3390  146.7660 C   0  0  0  0  0  2  0  0  0  0  0  0
  190.8530  176.6650  144.7020 C   0  0  1  0  0  3  0  0  0  0  0  0
  193.7220  172.9100  145.6670 O   0  0  0  0  0  0  0  0  0  0  0  0
  190.4850  176.5940  146.1690 C   0  0  1  0  0  3  0  0  0  0  0  0
  194.0010  173.5780  143.4100 C   0  0  0  0  0  1  0  0  0  0  0  0
  192.7000  175.3300  146.6350 C   0  0  0  0  0  2  0  0  0  0  0  0
  191.0840  177.9650  143.9690 C   0  0  0  0  0  2  0  0  0  0  0  0
  193.1490  175.1390  145.2390 N   0  0  0  0  0  0  0  0  0  0  0  0
  193.6230  173.8470  144.8290 C   0  0  0  0  0  0  0  0  0  0  0  0
  192.2050  177.3500  144.7760 C   0  0  2  0  0  3  0  0  0  0  0  0
  1  3  1  0  0  0  0
  1  2  1  0  0  0  0
  2  8  1  0  0  0  0
  3  6  1  0  0  0  0
  4  7  1  0  0  0  0
  5  9  1  0  0  0  0
  5  4  2  0  0  0  0
  6  8  2  0  0  0  0
  7  2  2  0  0  0  0
  7 28  1  0  0  0  0
  9  1  2  0  0  0  0
 10 15  1  0  0  0  0
 11 14  1  0  0  0  0
 12 13  1  0  0  0  0
 12 11  2  0  0  0  0
 13 10  2  0  0  0  0
 14 16  2  0  0  0  0
 15 16  1  0  0  0  0
 16  4  1  0  0  0  0
 17 19  1  0  0  0  0
 17  9  1  0  0  0  0
 18 17  2  0  0  0  0
 21 24  1  0  0  0  0
 22 24  1  0  0  0  0
 22 19  2  0  0  0  0
 23 27  1  0  0  0  0
 24 25  2  0  0  0  0
 25 27  1  0  0  0  0
 26 20  1  1  0  0  0
 26 21  1  0  0  0  0
 26 23  1  0  0  0  0
 28 29  1  0  0  0  0
 30 40  1  0  0  0  0
 30 38  1  0  0  0  0
 32 37  1  6  0  0  0
 32 40  1  0  0  0  0
 32 34  1  0  0  0  0
 34 29  1  6  0  0  0
 34 31  1  0  0  0  0
 35 39  1  0  0  0  0
 36 31  1  0  0  0  0
 38 36  1  0  0  0  0
 39 38  1  0  0  0  0
 39 33  2  0  0  0  0
 40 37  1  6  0  0  0
M  END
>  <MODEL>
3

>  <REMARK>
 VINA RESULT:      -8.3      1.514      2.197
  Name = 
  6 active torsions:
  status: ('A' for Active; 'I' for Inactive)
    1  A    between atoms: C_8  and  C_34
    2  A    between atoms: C_9  and  O_18
    3  A    between atoms: C_9  and  C_21
    4  A    between atoms: N_10  and  N_39
    5  A    between atoms: C_16  and  C_37
    6  A    between atoms: O_18  and  C_29
                            x       y       z     vdW  Elec       q    Type
                         _______ _______ _______ _____ _____    ______ ____

>  <TORSDO>
F 6

$$$$
=
 OpenBabel11042419253D

 40 45  0  0  1  0  0  0  0  0999 V2000
  191.9500  176.5490  145.2360 C   0  0  0  0  0  0  0  0  0  0  0  0
  193.1900  176.0500  145.5280 C   0  0  0  0  0  0  0  0  0  0  0  0
  191.2300  176.8040  146.3840 O   0  0  0  0  0  0  0  0  0  0  0  0
  193.7140  175.9320  143.1620 C   0  0  0  0  0  0  0  0  0  0  0  0
  192.4240  176.4400  142.8900 C   0  0  0  0  0  3  0  0  0  0  0  0
  191.9970  176.4790  147.5380 C   0  0  0  0  0  3  0  0  0  0  0  0
  194.1120  175.7300  144.5100 C   0  0  0  0  0  0  0  0  0  0  0  0
  193.3510  175.9740  147.0070 C   0  0  0  0  0  3  0  0  0  0  0  0
  191.5250  176.7570  143.9200 C   0  0  0  0  0  0  0  0  0  0  0  0
  194.8800  173.9750  140.0950 C   0  0  0  0  0  3  0  0  0  0  0  0
  196.7580  176.3730  140.8620 C   0  0  0  0  0  3  0  0  0  0  0  0
  196.9440  175.5220  139.8610 C   0  0  0  0  0  3  0  0  0  0  0  0
  196.1060  174.4210  139.5170 N   0  0  0  0  0  0  0  0  0  0  0  0
  195.6880  176.4130  141.8620 C   0  0  0  0  0  3  0  0  0  0  0  0
  194.2590  174.4920  141.1520 C   0  0  0  0  0  2  0  0  0  0  0  0
  194.6210  175.6240  142.0250 C   0  0  0  0  0  0  0  0  0  0  0  0
  190.1880  177.2940  143.5900 C   0  0  0  0  0  0  0  0  0  0  0  0
  190.0870  178.2910  142.8220 O   0  0  0  0  0  0  0  0  0  0  0  0
  189.0090  176.7140  144.1510 N   0  0  0  0  0  2  0  0  0  0  0  0
  183.4240  179.0410  145.3830 N   0  0  0  0  0  1  0  0  0  0  0  0
  185.5560  178.3380  144.4250 C   0  0  0  0  0  2  0  0  0  0  0  0
  187.7400  177.2150  143.8320 N   0  0  0  0  0  2  0  0  0  0  0  0
  185.0330  178.0660  146.9520 C   0  0  0  0  0  2  0  0  0  0  0  0
  186.8970  177.7990  144.8230 C   0  0  0  0  0  0  0  0  0  0  0  0
  187.3030  177.9140  146.0510 N   0  0  0  0  0  0  0  0  0  0  0  0
  184.4980  178.0710  145.5070 C   0  0  1  0  0  3  0  0  0  0  0  0
  186.4710  178.5740  147.0530 C   0  0  0  0  0  2  0  0  0  0  0  0
  195.4020  175.2500  144.7750 O   0  0  0  0  0  0  0  0  0  0  0  0
  195.7340  174.3270  145.8070 C   0  0  0  0  0  2  0  0  0  0  0  0
  194.2670  169.9630  145.3840 C   0  0  0  0  0  2  0  0  0  0  0  0
  196.7640  172.0390  145.9550 C   0  0  0  0  0  2  0  0  0  0  0  0
  194.3280  172.2790  145.6000 C   0  0  1  0  0  3  0  0  0  0  0  0
  196.9110  168.7420  147.6210 O   0  0  0  0  0  0  0  0  0  0  0  0
  195.6720  172.9000  145.2800 C   0  0  1  0  0  3  0  0  0  0  0  0
  194.6030  168.2090  147.7170 C   0  0  0  0  0  1  0  0  0  0  0  0
  196.7740  170.5630  145.5000 C   0  0  0  0  0  2  0  0  0  0  0  0
  193.1690  172.2710  144.6320 C   0  0  0  0  0  2  0  0  0  0  0  0
  195.6040  169.8070  145.9980 N   0  0  0  0  0  0  0  0  0  0  0  0
  195.7690  168.9240  147.1180 C   0  0  0  0  0  0  0  0  0  0  0  0
  194.2420  171.2100  144.5250 C   0  0  2  0  0  3  0  0  0  0  0  0
  1  2  1  0  0  0  0
  1  3  1  0  0  0  0
  2  8  1  0  0  0  0
  3  6  1  0  0  0  0
  4  7  1  0  0  0  0
  5  4  2  0  0  0  0
  5  9  1  0  0  0  0
  7 28  1  0  0  0  0
  7  2  2  0  0  0  0
  8  6  2  0  0  0  0
  9  1  2  0  0  0  0
 10 15  1  0  0  0  0
 11 14  1  0  0  0  0
 12 11  2  0  0  0  0
 13 12  1  0  0  0  0
 13 10  2  0  0  0  0
 14 16  2  0  0  0  0
 15 16  1  0  0  0  0
 16  4  1  0  0  0  0
 17  9  1  0  0  0  0
 17 19  1  0  0  0  0
 18 17  2  0  0  0  0
 21 24  1  0  0  0  0
 21 26  1  0  0  0  0
 22 19  1  0  0  0  0
 22 24  1  0  0  0  0
 23 27  1  0  0  0  0
 24 25  2  0  0  0  0
 25 27  1  0  0  0  0
 26 20  1  1  0  0  0
 26 23  1  0  0  0  0
 28 29  1  0  0  0  0
 30 38  1  0  0  0  0
 32 37  1  6  0  0  0
 34 32  1  0  0  0  0
 34 29  1  1  0  0  0
 34 31  1  0  0  0  0
 36 31  1  0  0  0  0
 36 38  1  0  0  0  0
 38 39  1  0  0  0  0
 39 33  2  0  0  0  0
 39 35  1  0  0  0  0
 40 37  1  1  0  0  0
 40 30  1  0  0  0  0
 40 32  1  0  0  0  0
M  END
>  <MODEL>
4

>  <REMARK>
 VINA RESULT:      -8.0      3.877      7.006
  Name = 
  6 active torsions:
  status: ('A' for Active; 'I' for Inactive)
    1  A    between atoms: C_8  and  C_34
    2  A    between atoms: C_9  and  O_18
    3  A    between atoms: C_9  and  C_21
    4  A    between atoms: N_10  and  N_39
    5  A    between atoms: C_16  and  C_37
    6  A    between atoms: O_18  and  C_29
                            x       y       z     vdW  Elec       q    Type
                         _______ _______ _______ _____ _____    ______ ____

>  <TORSDO>
F 6

$$$$
=
 OpenBabel11042419253D

 40 45  0  0  1  0  0  0  0  0999 V2000
  191.3560  176.3150  144.7320 C   0  0  0  0  0  0  0  0  0  0  0  0
  192.6000  176.1220  145.2670 C   0  0  0  0  0  0  0  0  0  0  0  0
  190.4300  176.6120  145.7100 O   0  0  0  0  0  0  0  0  0  0  0  0
  193.5040  175.7170  143.0530 C   0  0  0  0  0  0  0  0  0  0  0  0
  192.2070  175.9120  142.5290 C   0  0  0  0  0  3  0  0  0  0  0  0
  191.0480  176.6390  146.9920 C   0  0  0  0  0  3  0  0  0  0  0  0
  193.7120  175.8240  144.4540 C   0  0  0  0  0  0  0  0  0  0  0  0
  192.5350  176.3260  146.7420 C   0  0  0  0  0  3  0  0  0  0  0  0
  191.1160  176.2150  143.3570 C   0  0  0  0  0  0  0  0  0  0  0  0
  196.7740  176.4270  141.2090 C   0  0  0  0  0  3  0  0  0  0  0  0
  195.5110  173.6340  140.5260 C   0  0  0  0  0  3  0  0  0  0  0  0
  196.6250  174.1360  140.0100 C   0  0  0  0  0  3  0  0  0  0  0  0
  197.1960  175.4110  140.3010 N   0  0  0  0  0  0  0  0  0  0  0  0
  194.5850  174.2260  141.4950 C   0  0  0  0  0  3  0  0  0  0  0  0
  195.6870  176.4150  141.9750 C   0  0  0  0  0  2  0  0  0  0  0  0
  194.6190  175.4080  142.1190 C   0  0  0  0  0  0  0  0  0  0  0  0
  189.7770  176.4190  142.7660 C   0  0  0  0  0  0  0  0  0  0  0  0
  189.0210  175.4280  142.5720 O   0  0  0  0  0  0  0  0  0  0  0  0
  189.3370  177.7260  142.3880 N   0  0  0  0  0  2  0  0  0  0  0  0
  183.2280  178.6060  142.5550 N   0  0  0  0  0  1  0  0  0  0  0  0
  185.6030  178.4700  142.0110 C   0  0  0  0  0  2  0  0  0  0  0  0
  188.0630  177.9230  141.8370 N   0  0  0  0  0  2  0  0  0  0  0  0
  184.7140  177.9810  144.3990 C   0  0  0  0  0  2  0  0  0  0  0  0
  186.9400  178.2490  142.6520 C   0  0  0  0  0  0  0  0  0  0  0  0
  187.0780  178.4100  143.9330 N   0  0  0  0  0  0  0  0  0  0  0  0
  184.4630  177.9160  142.8800 C   0  0  1  0  0  3  0  0  0  0  0  0
  185.9450  178.8130  144.7620 C   0  0  0  0  0  2  0  0  0  0  0  0
  195.0060  175.6550  144.9660 O   0  0  0  0  0  0  0  0  0  0  0  0
  195.3310  174.9150  146.1380 C   0  0  0  0  0  2  0  0  0  0  0  0
  196.2990  171.2620  143.4740 C   0  0  0  0  0  2  0  0  0  0  0  0
  194.3500  172.6330  145.7510 C   0  0  0  0  0  2  0  0  0  0  0  0
  196.2780  173.3940  144.4030 C   0  0  1  0  0  3  0  0  0  0  0  0
  192.7780  170.2210  143.4330 O   0  0  0  0  0  0  0  0  0  0  0  0
  195.6500  173.4690  145.7790 C   0  0  1  0  0  3  0  0  0  0  0  0
  194.2300  170.4120  141.5700 C   0  0  0  0  0  1  0  0  0  0  0  0
  194.5630  171.1490  145.3790 C   0  0  0  0  0  2  0  0  0  0  0  0
  197.7710  173.3690  144.1760 C   0  0  0  0  0  2  0  0  0  0  0  0
  194.9330  170.9680  143.9580 N   0  0  0  0  0  0  0  0  0  0  0  0
  193.9330  170.5230  143.0280 C   0  0  0  0  0  0  0  0  0  0  0  0
  197.0410  172.0860  144.5060 C   0  0  2  0  0  3  0  0  0  0  0  0
  1  2  1  0  0  0  0
  1  3  1  0  0  0  0
  2  8  1  0  0  0  0
  3  6  1  0  0  0  0
  4  7  1  0  0  0  0
  5  4  2  0  0  0  0
  5  9  1  0  0  0  0
  7 28  1  0  0  0  0
  7  2  2  0  0  0  0
  8  6  2  0  0  0  0
  9  1  2  0  0  0  0
 10 15  1  0  0  0  0
 11 14  1  0  0  0  0
 12 13  1  0  0  0  0
 12 11  2  0  0  0  0
 13 10  2  0  0  0  0
 14 16  2  0  0  0  0
 15 16  1  0  0  0  0
 16  4  1  0  0  0  0
 17  9  1  0  0  0  0
 18 17  2  0  0  0  0
 19 17  1  0  0  0  0
 21 24  1  0  0  0  0
 21 26  1  0  0  0  0
 22 19  1  0  0  0  0
 22 24  1  0  0  0  0
 23 27  1  0  0  0  0
 24 25  2  0  0  0  0
 25 27  1  0  0  0  0
 26 20  1  1  0  0  0
 26 23  1  0  0  0  0
 28 29  1  0  0  0  0
 30 38  1  0  0  0  0
 31 34  1  0  0  0  0
 32 37  1  1  0  0  0
 32 40  1  0  0  0  0
 32 34  1  0  0  0  0
 34 29  1  6  0  0  0
 35 39  1  0  0  0  0
 36 31  1  0  0  0  0
 37 40  1  0  0  0  0
 38 36  1  0  0  0  0
 39 33  2  0  0  0  0
 39 38  1  0  0  0  0
 40 30  1  6  0  0  0
M  END
>  <MODEL>
5

>  <REMARK>
 VINA RESULT:      -7.7      3.454      6.408
  Name = 
  6 active torsions:
  status: ('A' for Active; 'I' for Inactive)
    1  A    between atoms: C_8  and  C_34
    2  A    between atoms: C_9  and  O_18
    3  A    between atoms: C_9  and  C_21
    4  A    between atoms: N_10  and  N_39
    5  A    between atoms: C_16  and  C_37
    6  A    between atoms: O_18  and  C_29
                            x       y       z     vdW  Elec       q    Type
                         _______ _______ _______ _____ _____    ______ ____

>  <TORSDO>
F 6

$$$$
=
 OpenBabel11042419253D

 40 45  0  0  1  0  0  0  0  0999 V2000
  189.9500  173.8630  141.1220 C   0  0  0  0  0  0  0  0  0  0  0  0
  191.1330  173.2440  140.8240 C   0  0  0  0  0  0  0  0  0  0  0  0
  188.8800  173.1970  140.5620 O   0  0  0  0  0  0  0  0  0  0  0  0
  192.3430  174.9120  142.1050 C   0  0  0  0  0  0  0  0  0  0  0  0
  191.1070  175.5360  142.3880 C   0  0  0  0  0  3  0  0  0  0  0  0
  189.3260  172.0510  139.8450 C   0  0  0  0  0  3  0  0  0  0  0  0
  192.3620  173.7390  141.3050 C   0  0  0  0  0  0  0  0  0  0  0  0
  190.8570  172.0290  140.0070 C   0  0  0  0  0  3  0  0  0  0  0  0
  189.8940  175.0220  141.9040 C   0  0  0  0  0  0  0  0  0  0  0  0
  195.8310  176.4550  141.8900 C   0  0  0  0  0  3  0  0  0  0  0  0
  194.7530  176.1550  144.8250 C   0  0  0  0  0  3  0  0  0  0  0  0
  195.9380  176.6350  144.4710 C   0  0  0  0  0  3  0  0  0  0  0  0
  196.4420  176.7590  143.1430 N   0  0  0  0  0  2  0  0  0  0  0  0
  193.6750  175.6280  143.9840 C   0  0  0  0  0  3  0  0  0  0  0  0
  194.6250  175.9290  141.6940 C   0  0  0  0  0  3  0  0  0  0  0  0
  193.5910  175.5030  142.6560 C   0  0  0  0  0  0  0  0  0  0  0  0
  188.6240  175.7020  142.2320 C   0  0  0  0  0  0  0  0  0  0  0  0
  187.5600  175.0290  142.3220 O   0  0  0  0  0  0  0  0  0  0  0  0
  188.5810  177.1180  142.4230 N   0  0  0  0  0  2  0  0  0  0  0  0
  183.9650  178.8510  146.1390 N   0  0  0  0  0  1  0  0  0  0  0  0
  185.6380  178.5780  144.3840 C   0  0  0  0  0  2  0  0  0  0  0  0
  187.3790  177.7630  142.7440 N   0  0  0  0  0  2  0  0  0  0  0  0
  185.7170  177.1970  146.5790 C   0  0  0  0  0  2  0  0  0  0  0  0
  186.9220  177.8600  144.0910 C   0  0  0  0  0  0  0  0  0  0  0  0
  187.6320  177.3810  145.0670 N   0  0  0  0  0  0  0  0  0  0  0  0
  184.8510  177.8880  145.5090 C   0  0  1  0  0  3  0  0  0  0  0  0
  187.2010  177.5410  146.4530 C   0  0  0  0  0  2  0  0  0  0  0  0
  193.5880  173.1090  141.0490 O   0  0  0  0  0  0  0  0  0  0  0  0
  194.0320  171.9050  141.6650 C   0  0  0  0  0  2  0  0  0  0  0  0
  196.7360  171.7830  145.4130 C   0  0  0  0  0  2  0  0  0  0  0  0
  193.7860  171.1970  144.0640 C   0  0  0  0  0  2  0  0  0  0  0  0
  195.9790  171.9700  143.2220 C   0  0  1  0  0  3  0  0  0  0  0  0
  194.8350  168.9770  146.8270 O   0  0  0  0  0  0  0  0  0  0  0  0
  194.4840  172.1770  143.0930 C   0  0  1  0  0  3  0  0  0  0  0  0
  197.1920  169.1560  146.6460 C   0  0  0  0  0  1  0  0  0  0  0  0
  194.1910  171.3790  145.5430 C   0  0  0  0  0  2  0  0  0  0  0  0
  196.9820  173.0920  143.1060 C   0  0  0  0  0  2  0  0  0  0  0  0
  195.5810  170.9480  145.8080 N   0  0  0  0  0  0  0  0  0  0  0  0
  195.8090  169.6780  146.4400 C   0  0  0  0  0  0  0  0  0  0  0  0
  196.2880  172.8410  144.4260 C   0  0  2  0  0  3  0  0  0  0  0  0
  1  9  1  0  0  0  0
  2  1  2  0  0  0  0
  2  7  1  0  0  0  0
  3  1  1  0  0  0  0
  4  5  1  0  0  0  0
  4 16  1  0  0  0  0
  6  8  2  0  0  0  0
  6  3  1  0  0  0  0
  7  4  2  0  0  0  0
  8  2  1  0  0  0  0
  9 17  1  0  0  0  0
  9  5  2  0  0  0  0
 10 13  1  0  0  0  0
 12 11  2  0  0  0  0
 13 12  1  0  0  0  0
 14 11  1  0  0  0  0
 15 10  2  0  0  0  0
 15 16  1  0  0  0  0
 16 14  2  0  0  0  0
 17 18  2  0  0  0  0
 17 19  1  0  0  0  0
 19 22  1  0  0  0  0
 21 26  1  0  0  0  0
 22 24  1  0  0  0  0
 24 21  1  0  0  0  0
 24 25  2  0  0  0  0
 25 27  1  0  0  0  0
 26 20  1  1  0  0  0
 26 23  1  0  0  0  0
 27 23  1  0  0  0  0
 28  7  1  0  0  0  0
 28 29  1  0  0  0  0
 30 38  1  0  0  0  0
 31 36  1  0  0  0  0
 32 37  1  6  0  0  0
 32 40  1  0  0  0  0
 34 29  1  6  0  0  0
 34 32  1  0  0  0  0
 34 31  1  0  0  0  0
 36 38  1  0  0  0  0
 38 39  1  0  0  0  0
 39 35  1  0  0  0  0
 39 33  2  0  0  0  0
 40 37  1  6  0  0  0
 40 30  1  0  0  0  0
M  END
>  <MODEL>
6

>  <REMARK>
 VINA RESULT:      -7.6      4.111      6.989
  Name = 
  6 active torsions:
  status: ('A' for Active; 'I' for Inactive)
    1  A    between atoms: C_8  and  C_34
    2  A    between atoms: C_9  and  O_18
    3  A    between atoms: C_9  and  C_21
    4  A    between atoms: N_10  and  N_39
    5  A    between atoms: C_16  and  C_37
    6  A    between atoms: O_18  and  C_29
                            x       y       z     vdW  Elec       q    Type
                         _______ _______ _______ _____ _____    ______ ____

>  <TORSDO>
F 6

$$$$
=
 OpenBabel11042419253D

 40 45  0  0  1  0  0  0  0  0999 V2000
  192.7100  175.6430  145.8520 C   0  0  0  0  0  0  0  0  0  0  0  0
  193.8990  175.3770  145.2310 C   0  0  0  0  0  0  0  0  0  0  0  0
  192.8430  176.6580  146.7770 O   0  0  0  0  0  0  0  0  0  0  0  0
  192.8310  173.6600  143.8920 C   0  0  0  0  0  0  0  0  0  0  0  0
  191.6180  173.9490  144.5560 C   0  0  0  0  0  3  0  0  0  0  0  0
  194.1830  177.1360  146.8050 C   0  0  0  0  0  3  0  0  0  0  0  0
  194.0020  174.3880  144.2320 C   0  0  0  0  0  0  0  0  0  0  0  0
  194.9420  176.3040  145.7550 C   0  0  0  0  0  3  0  0  0  0  0  0
  191.5380  174.9440  145.5430 C   0  0  0  0  0  0  0  0  0  0  0  0
  192.9390  172.3240  140.3140 C   0  0  0  0  0  3  0  0  0  0  0  0
  192.7960  170.0780  142.5060 C   0  0  0  0  0  3  0  0  0  0  0  0
  192.8190  169.8900  141.1920 C   0  0  0  0  0  3  0  0  0  0  0  0
  192.8650  170.9040  140.1910 N   0  0  0  0  0  0  0  0  0  0  0  0
  192.8030  171.3300  143.2660 C   0  0  0  0  0  3  0  0  0  0  0  0
  192.9340  173.0300  141.4410 C   0  0  0  0  0  2  0  0  0  0  0  0
  192.8460  172.6000  142.8490 C   0  0  0  0  0  0  0  0  0  0  0  0
  190.2470  175.2190  146.2070 C   0  0  0  0  0  0  0  0  0  0  0  0
  190.0940  174.9220  147.4240 O   0  0  0  0  0  0  0  0  0  0  0  0
  189.1600  175.7970  145.4800 N   0  0  0  0  0  0  0  0  0  0  0  0
  183.7420  178.6660  146.2120 N   0  0  0  0  0  1  0  0  0  0  0  0
  185.6620  177.1600  146.2180 C   0  0  0  0  0  2  0  0  0  0  0  0
  187.9390  176.0690  146.1110 N   0  0  0  0  0  0  0  0  0  0  0  0
  185.5670  179.2510  144.6860 C   0  0  0  0  0  2  0  0  0  0  0  0
  186.9620  176.9160  145.5110 C   0  0  0  0  0  0  0  0  0  0  0  0
  187.1670  177.4330  144.3370 N   0  0  0  0  0  0  0  0  0  0  0  0
  185.1820  178.6070  146.0320 C   0  0  1  0  0  3  0  0  0  0  0  0
  186.1400  178.2440  143.6890 C   0  0  0  0  0  2  0  0  0  0  0  0
  195.1970  174.1150  143.5520 O   0  0  0  0  0  0  0  0  0  0  0  0
  196.4830  174.0410  144.1570 C   0  0  0  0  0  2  0  0  0  0  0  0
  196.2010  169.4300  143.9570 C   0  0  0  0  0  2  0  0  0  0  0  0
  196.4740  172.1450  145.8080 C   0  0  0  0  0  2  0  0  0  0  0  0
  196.1630  171.6880  143.3970 C   0  0  1  0  0  3  0  0  0  0  0  0
  194.7010  169.2680  147.3050 O   0  0  0  0  0  0  0  0  0  0  0  0
  196.8790  172.5870  144.3830 C   0  0  1  0  0  3  0  0  0  0  0  0
  193.9410  168.1690  145.3470 C   0  0  0  0  0  1  0  0  0  0  0  0
  196.8170  170.6740  146.1320 C   0  0  0  0  0  2  0  0  0  0  0  0
  196.7730  171.2420  142.0900 C   0  0  0  0  0  2  0  0  0  0  0  0
  195.9690  169.7170  145.3900 N   0  0  0  0  0  0  0  0  0  0  0  0
  194.8820  169.0730  146.0730 C   0  0  0  0  0  0  0  0  0  0  0  0
  197.1000  170.4940  143.3630 C   0  0  2  0  0  3  0  0  0  0  0  0
  1  3  1  0  0  0  0
  2  8  1  0  0  0  0
  2  1  2  0  0  0  0
  3  6  1  0  0  0  0
  4  7  2  0  0  0  0
  4  5  1  0  0  0  0
  5  9  2  0  0  0  0
  7  2  1  0  0  0  0
  8  6  2  0  0  0  0
  9  1  1  0  0  0  0
  9 17  1  0  0  0  0
 10 15  1  0  0  0  0
 11 14  1  0  0  0  0
 12 11  2  0  0  0  0
 13 10  2  0  0  0  0
 13 12  1  0  0  0  0
 15 16  1  0  0  0  0
 16 14  2  0  0  0  0
 16  4  1  0  0  0  0
 17 18  2  0  0  0  0
 19 22  2  0  0  0  0
 19 17  1  0  0  0  0
 23 26  1  0  0  0  0
 24 22  1  0  0  0  0
 24 21  1  0  0  0  0
 25 24  2  0  0  0  0
 26 20  1  6  0  0  0
 26 21  1  0  0  0  0
 27 25  1  0  0  0  0
 27 23  1  0  0  0  0
 28 29  1  0  0  0  0
 28  7  1  0  0  0  0
 30 38  1  0  0  0  0
 31 36  1  0  0  0  0
 32 37  1  6  0  0  0
 32 34  1  0  0  0  0
 34 29  1  6  0  0  0
 34 31  1  0  0  0  0
 35 39  1  0  0  0  0
 38 39  1  0  0  0  0
 38 36  1  0  0  0  0
 39 33  2  0  0  0  0
 40 37  1  6  0  0  0
 40 32  1  0  0  0  0
 40 30  1  0  0  0  0
M  END
>  <MODEL>
7

>  <REMARK>
 VINA RESULT:      -7.5      4.246      7.749
  Name = 
  6 active torsions:
  status: ('A' for Active; 'I' for Inactive)
    1  A    between atoms: C_8  and  C_34
    2  A    between atoms: C_9  and  O_18
    3  A    between atoms: C_9  and  C_21
    4  A    between atoms: N_10  and  N_39
    5  A    between atoms: C_16  and  C_37
    6  A    between atoms: O_18  and  C_29
                            x       y       z     vdW  Elec       q    Type
                         _______ _______ _______ _____ _____    ______ ____

>  <TORSDO>
F 6

$$$$
=
 OpenBabel11042419253D

 40 45  0  0  1  0  0  0  0  0999 V2000
  190.3110  173.1020  143.3780 C   0  0  0  0  0  0  0  0  0  0  0  0
  191.2410  172.3830  142.6770 C   0  0  0  0  0  0  0  0  0  0  0  0
  189.0860  173.0900  142.7440 O   0  0  0  0  0  0  0  0  0  0  0  0
  192.9130  172.8760  144.3640 C   0  0  0  0  0  0  0  0  0  0  0  0
  191.9350  173.6190  145.0620 C   0  0  0  0  0  3  0  0  0  0  0  0
  189.1500  172.3220  141.5480 C   0  0  0  0  0  3  0  0  0  0  0  0
  192.5640  172.2410  143.1430 C   0  0  0  0  0  0  0  0  0  0  0  0
  190.5980  171.8040  141.4640 C   0  0  0  0  0  3  0  0  0  0  0  0
  190.6220  173.7420  144.5830 C   0  0  0  0  0  0  0  0  0  0  0  0
  195.9510  171.0410  145.7770 C   0  0  0  0  0  3  0  0  0  0  0  0
  196.3070  174.1580  145.6250 C   0  0  0  0  0  3  0  0  0  0  0  0
  197.1940  173.2910  146.0950 C   0  0  0  0  0  3  0  0  0  0  0  0
  197.0340  171.8770  146.1850 N   0  0  0  0  0  2  0  0  0  0  0  0
  194.9620  173.9180  145.0940 C   0  0  0  0  0  3  0  0  0  0  0  0
  194.7960  171.4310  145.2460 C   0  0  0  0  0  3  0  0  0  0  0  0
  194.2830  172.7770  144.9320 C   0  0  0  0  0  0  0  0  0  0  0  0
  189.6280  174.5220  145.3490 C   0  0  0  0  0  0  0  0  0  0  0  0
  189.3130  174.1580  146.5160 O   0  0  0  0  0  0  0  0  0  0  0  0
  189.0020  175.6720  144.7760 N   0  0  0  0  0  2  0  0  0  0  0  0
  184.0190  179.2430  145.5080 N   0  0  0  0  0  1  0  0  0  0  0  0
  185.9100  177.7160  145.7240 C   0  0  0  0  0  2  0  0  0  0  0  0
  188.0670  176.4190  145.5050 N   0  0  0  0  0  2  0  0  0  0  0  0
  185.1440  178.6310  143.4200 C   0  0  0  0  0  2  0  0  0  0  0  0
  186.8880  176.9400  144.8950 C   0  0  0  0  0  0  0  0  0  0  0  0
  186.6310  176.7010  143.6450 N   0  0  0  0  0  0  0  0  0  0  0  0
  185.3030  178.8840  144.9320 C   0  0  1  0  0  3  0  0  0  0  0  0
  185.3910  177.1730  143.0340 C   0  0  0  0  0  2  0  0  0  0  0  0
  193.5300  171.4830  142.4680 O   0  0  0  0  0  0  0  0  0  0  0  0
  193.7540  171.5090  141.0620 C   0  0  0  0  0  2  0  0  0  0  0  0
  197.5490  174.0380  141.8210 C   0  0  0  0  0  2  0  0  0  0  0  0
  194.6160  173.7580  140.3430 C   0  0  0  0  0  2  0  0  0  0  0  0
  195.9060  172.3970  141.9550 C   0  0  1  0  0  3  0  0  0  0  0  0
  195.7080  177.1660  141.2660 O   0  0  0  0  0  0  0  0  0  0  0  0
  195.0050  172.3150  140.7400 C   0  0  1  0  0  3  0  0  0  0  0  0
  197.1720  176.6720  143.0640 C   0  0  0  0  0  1  0  0  0  0  0  0
  195.8200  174.6670  140.0120 C   0  0  0  0  0  2  0  0  0  0  0  0
  197.0550  171.4470  142.1970 C   0  0  0  0  0  2  0  0  0  0  0  0
  196.6170  175.0100  141.2090 N   0  0  0  0  0  0  0  0  0  0  0  0
  196.4600  176.3090  141.8030 C   0  0  0  0  0  0  0  0  0  0  0  0
  197.2520  172.6480  141.2980 C   0  0  2  0  0  3  0  0  0  0  0  0
  1  9  1  0  0  0  0
  2  7  1  0  0  0  0
  2  1  2  0  0  0  0
  3  1  1  0  0  0  0
  4 16  1  0  0  0  0
  4  5  1  0  0  0  0
  6  3  1  0  0  0  0
  7  4  2  0  0  0  0
  8  6  2  0  0  0  0
  8  2  1  0  0  0  0
  9  5  2  0  0  0  0
  9 17  1  0  0  0  0
 10 13  1  0  0  0  0
 11 12  2  0  0  0  0
 12 13  1  0  0  0  0
 14 11  1  0  0  0  0
 15 10  2  0  0  0  0
 16 14  2  0  0  0  0
 16 15  1  0  0  0  0
 17 18  2  0  0  0  0
 19 17  1  0  0  0  0
 19 22  1  0  0  0  0
 23 26  1  0  0  0  0
 24 22  1  0  0  0  0
 24 21  1  0  0  0  0
 25 24  2  0  0  0  0
 26 20  1  1  0  0  0
 26 21  1  0  0  0  0
 27 23  1  0  0  0  0
 27 25  1  0  0  0  0
 28  7  1  0  0  0  0
 29 28  1  0  0  0  0
 31 34  1  0  0  0  0
 32 37  1  6  0  0  0
 33 39  2  0  0  0  0
 34 29  1  1  0  0  0
 34 32  1  0  0  0  0
 36 31  1  0  0  0  0
 36 38  1  0  0  0  0
 38 39  1  0  0  0  0
 38 30  1  0  0  0  0
 39 35  1  0  0  0  0
 40 30  1  1  0  0  0
 40 32  1  0  0  0  0
 40 37  1  0  0  0  0
M  END
>  <MODEL>
8

>  <REMARK>
 VINA RESULT:      -7.3      4.105      7.631
  Name = 
  6 active torsions:
  status: ('A' for Active; 'I' for Inactive)
    1  A    between atoms: C_8  and  C_34
    2  A    between atoms: C_9  and  O_18
    3  A    between atoms: C_9  and  C_21
    4  A    between atoms: N_10  and  N_39
    5  A    between atoms: C_16  and  C_37
    6  A    between atoms: O_18  and  C_29
                            x       y       z     vdW  Elec       q    Type
                         _______ _______ _______ _____ _____    ______ ____

>  <TORSDO>
F 6

$$$$
=
 OpenBabel11042419253D

 40 45  0  0  1  0  0  0  0  0999 V2000
  192.3370  175.6140  144.3920 C   0  0  0  0  0  0  0  0  0  0  0  0
  193.3880  175.2810  143.5820 C   0  0  0  0  0  0  0  0  0  0  0  0
  191.7180  176.7690  143.9610 O   0  0  0  0  0  0  0  0  0  0  0  0
  193.8250  173.3140  144.9330 C   0  0  0  0  0  0  0  0  0  0  0  0
  192.7400  173.6870  145.7580 C   0  0  0  0  0  3  0  0  0  0  0  0
  192.3530  177.2690  142.7900 C   0  0  0  0  0  3  0  0  0  0  0  0
  194.1610  174.1260  143.8170 C   0  0  0  0  0  0  0  0  0  0  0  0
  193.4920  176.2800  142.4800 C   0  0  0  0  0  3  0  0  0  0  0  0
  191.9800  174.8380  145.5000 C   0  0  0  0  0  0  0  0  0  0  0  0
  194.3270  169.5390  145.2280 C   0  0  0  0  0  3  0  0  0  0  0  0
  196.8180  171.2270  146.1320 C   0  0  0  0  0  3  0  0  0  0  0  0
  196.7180  169.9040  146.1560 C   0  0  0  0  0  3  0  0  0  0  0  0
  195.5850  169.1310  145.7650 N   0  0  0  0  0  2  0  0  0  0  0  0
  195.8280  172.2260  145.7220 C   0  0  0  0  0  3  0  0  0  0  0  0
  193.9150  170.7850  145.0130 C   0  0  0  0  0  3  0  0  0  0  0  0
  194.5830  172.0780  145.2560 C   0  0  0  0  0  0  0  0  0  0  0  0
  190.8490  175.1860  146.3850 C   0  0  0  0  0  0  0  0  0  0  0  0
  191.0380  175.3010  147.6270 O   0  0  0  0  0  0  0  0  0  0  0  0
  189.5350  175.3720  145.8520 N   0  0  0  0  0  2  0  0  0  0  0  0
  184.4260  178.4480  147.4490 N   0  0  0  0  0  1  0  0  0  0  0  0
  186.2750  176.8810  147.1680 C   0  0  0  0  0  2  0  0  0  0  0  0
  188.4630  175.7120  146.6880 N   0  0  0  0  0  2  0  0  0  0  0  0
  185.9390  178.9020  145.5770 C   0  0  0  0  0  2  0  0  0  0  0  0
  187.4100  176.5630  146.2410 C   0  0  0  0  0  0  0  0  0  0  0  0
  187.3990  177.0180  145.0250 N   0  0  0  0  0  0  0  0  0  0  0  0
  185.8030  178.3340  147.0030 C   0  0  1  0  0  3  0  0  0  0  0  0
  186.2870  177.8330  144.5420 C   0  0  0  0  0  2  0  0  0  0  0  0
  195.2210  173.7380  142.9860 O   0  0  0  0  0  0  0  0  0  0  0  0
  195.0810  173.2610  141.6520 C   0  0  0  0  0  2  0  0  0  0  0  0
  197.9350  175.6100  138.8740 C   0  0  0  0  0  2  0  0  0  0  0  0
  196.2950  172.8180  139.4950 C   0  0  0  0  0  2  0  0  0  0  0  0
  196.4210  175.0520  140.5500 C   0  0  1  0  0  3  0  0  0  0  0  0
  196.8440  173.6840  135.9440 O   0  0  0  0  0  0  0  0  0  0  0  0
  196.3360  173.5690  140.8460 C   0  0  1  0  0  3  0  0  0  0  0  0
  197.0500  176.0400  136.1060 C   0  0  0  0  0  1  0  0  0  0  0  0
  197.5200  173.0790  138.5920 C   0  0  0  0  0  2  0  0  0  0  0  0
  197.2030  176.0230  141.4020 C   0  0  0  0  0  2  0  0  0  0  0  0
  197.5380  174.4520  138.0430 N   0  0  0  0  0  0  0  0  0  0  0  0
  197.1370  174.6640  136.6800 C   0  0  0  0  0  0  0  0  0  0  0  0
  197.9150  175.2190  140.3370 C   0  0  2  0  0  3  0  0  0  0  0  0
  1  9  1  0  0  0  0
  2  7  1  0  0  0  0
  2  1  2  0  0  0  0
  3  1  1  0  0  0  0
  4 16  1  0  0  0  0
  4  5  1  0  0  0  0
  6  3  1  0  0  0  0
  7  4  2  0  0  0  0
  8  6  2  0  0  0  0
  8  2  1  0  0  0  0
  9  5  2  0  0  0  0
  9 17  1  0  0  0  0
 10 13  1  0  0  0  0
 11 12  2  0  0  0  0
 13 12  1  0  0  0  0
 14 11  1  0  0  0  0
 15 10  2  0  0  0  0
 15 16  1  0  0  0  0
 16 14  2  0  0  0  0
 17 18  2  0  0  0  0
 19 17  1  0  0  0  0
 19 22  1  0  0  0  0
 23 26  1  0  0  0  0
 24 22  1  0  0  0  0
 24 21  1  0  0  0  0
 25 24  2  0  0  0  0
 26 21  1  0  0  0  0
 26 20  1  6  0  0  0
 27 25  1  0  0  0  0
 27 23  1  0  0  0  0
 28  7  1  0  0  0  0
 29 28  1  0  0  0  0
 31 34  1  0  0  0  0
 32 34  1  0  0  0  0
 32 37  1  1  0  0  0
 33 39  2  0  0  0  0
 34 29  1  6  0  0  0
 35 39  1  0  0  0  0
 36 31  1  0  0  0  0
 38 36  1  0  0  0  0
 38 30  1  0  0  0  0
 39 38  1  0  0  0  0
 40 30  1  6  0  0  0
 40 32  1  0  0  0  0
 40 37  1  0  0  0  0
M  END
>  <MODEL>
9

>  <REMARK>
 VINA RESULT:      -7.2      4.776      8.742
  Name = 
  6 active torsions:
  status: ('A' for Active; 'I' for Inactive)
    1  A    between atoms: C_8  and  C_34
    2  A    between atoms: C_9  and  O_18
    3  A    between atoms: C_9  and  C_21
    4  A    between atoms: N_10  and  N_39
    5  A    between atoms: C_16  and  C_37
    6  A    between atoms: O_18  and  C_29
                            x       y       z     vdW  Elec       q    Type
                         _______ _______ _______ _____ _____    ______ ____

>  <TORSDO>
F 6

$$$$
