=
 OpenBabel11042418093D

 40 44  0  0  1  0  0  0  0  0999 V2000
  189.8300  175.1960  146.6700 C   0  0  0  0  0  3  0  0  0  0  0  0
  190.0060  176.0400  145.6280 C   0  0  0  0  0  0  0  0  0  0  0  0
  189.1670  177.9650  144.1120 C   0  0  0  0  0  1  0  0  0  0  0  0
  187.5800  176.1610  147.0720 C   0  0  0  0  0  0  0  0  0  0  0  0
  188.6000  175.1820  147.5560 C   0  0  0  0  0  2  0  0  0  0  0  0
  186.3780  176.3890  147.5850 C   0  0  0  0  0  3  0  0  0  0  0  0
  185.7560  177.4680  146.7940 C   0  0  0  0  0  3  0  0  0  0  0  0
  188.9520  177.0290  145.2570 C   0  0  0  0  0  0  0  0  0  0  0  0
  187.8190  177.0490  145.9620 C   0  0  0  0  0  0  0  0  0  0  0  0
  186.6050  177.8480  145.8410 C   0  0  0  0  0  0  0  0  0  0  0  0
  193.6510  176.5930  144.5660 C   0  0  0  0  0  2  0  0  0  0  0  0
  194.0400  175.1770  144.5340 N   0  0  0  0  0  0  0  0  0  0  0  0
  192.9860  174.4650  143.7990 C   0  0  0  0  0  2  0  0  0  0  0  0
  191.6820  174.4980  144.5890 C   0  0  0  0  0  2  0  0  0  0  0  0
  191.2570  175.9510  144.8040 C   0  0  2  0  0  3  0  0  0  0  0  0
  192.3940  176.7740  145.4090 C   0  0  0  0  0  2  0  0  0  0  0  0
  195.3130  175.0460  143.8030 C   0  0  1  0  0  3  0  0  0  0  0  0
  197.2180  173.9620  144.9550 C   0  0  0  0  0  2  0  0  0  0  0  0
  196.0030  173.7230  144.1430 C   0  0  1  0  0  3  0  0  0  0  0  0
  196.0090  173.5450  145.5400 O   0  0  0  0  0  0  0  0  0  0  0  0
  195.0790  175.0600  142.2890 C   0  0  0  0  0  2  0  0  0  0  0  0
  196.7770  176.7910  142.5210 N   0  0  0  0  0  1  0  0  0  0  0  0
  195.7390  176.2690  141.6490 C   0  0  0  0  0  2  0  0  0  0  0  0
  186.3430  178.9480  144.8660 C   0  0  0  0  0  2  0  0  0  0  0  0
  184.9340  178.8390  144.2980 C   0  0  0  0  0  2  0  0  0  0  0  0
  184.9570  178.7530  142.7790 C   0  0  0  0  0  2  0  0  0  0  0  0
  185.9230  176.4500  142.9660 C   0  0  0  0  0  3  0  0  0  0  0  0
  186.8250  175.4650  142.5510 C   0  0  0  0  0  3  0  0  0  0  0  0
  187.6780  176.9600  140.8500 C   0  0  0  0  0  3  0  0  0  0  0  0
  187.7070  175.7130  141.4890 C   0  0  0  0  0  0  0  0  0  0  0  0
  185.8980  177.6900  142.3220 C   0  0  0  0  0  0  0  0  0  0  0  0
  186.7780  177.9460  141.2650 C   0  0  0  0  0  3  0  0  0  0  0  0
  188.6600  174.6750  141.0620 C   0  0  0  0  0  0  0  0  0  0  0  0
  188.7130  174.3300  139.8490 O   0  0  0  0  0  0  0  0  0  0  0  0
  189.5030  174.0770  142.0040 O   0  0  0  0  0  0  0  0  0  0  0  0
  189.5290  172.6720  142.2250 C   0  0  0  0  0  2  0  0  0  0  0  0
  190.7480  172.0460  141.5640 C   0  0  2  0  0  3  0  0  0  0  0  0
  190.3730  171.4220  140.3760 O   0  0  0  0  0  1  0  0  0  0  0  0
  191.4230  171.0430  142.4910 C   0  0  0  0  0  2  0  0  0  0  0  0
  191.0520  171.2710  143.8180 O   0  0  0  0  0  1  0  0  0  0  0  0
  1  5  1  0  0  0  0
  2  1  2  0  0  0  0
  3  8  1  0  0  0  0
  4  5  1  0  0  0  0
  4  6  2  0  0  0  0
  7  6  1  0  0  0  0
  8  2  1  0  0  0  0
  8  9  2  0  0  0  0
  9  4  1  0  0  0  0
 10  9  1  0  0  0  0
 10  7  2  0  0  0  0
 11 16  1  0  0  0  0
 12 11  1  0  0  0  0
 13 12  1  0  0  0  0
 13 14  1  0  0  0  0
 14 15  1  0  0  0  0
 15 16  1  0  0  0  0
 15  2  1  1  0  0  0
 17 21  1  6  0  0  0
 17 12  1  0  0  0  0
 18 20  1  0  0  0  0
 19 17  1  1  0  0  0
 19 18  1  0  0  0  0
 19 20  1  0  0  0  0
 23 21  1  0  0  0  0
 23 22  1  0  0  0  0
 24 10  1  0  0  0  0
 25 24  1  0  0  0  0
 26 25  1  0  0  0  0
 28 27  1  0  0  0  0
 29 32  2  0  0  0  0
 29 30  1  0  0  0  0
 30 28  2  0  0  0  0
 31 26  1  0  0  0  0
 31 27  2  0  0  0  0
 32 31  1  0  0  0  0
 33 30  1  0  0  0  0
 33 35  1  0  0  0  0
 34 33  2  0  0  0  0
 35 36  1  0  0  0  0
 37 38  1  6  0  0  0
 37 36  1  0  0  0  0
 37 39  1  0  0  0  0
 39 40  1  0  0  0  0
M  END
>  <MODEL>
1

>  <REMARK>
 VINA RESULT:      -6.8      0.000      0.000
  Name = 
  14 active torsions:
  status: ('A' for Active; 'I' for Inactive)
    1  A    between atoms: C_1  and  C_24
    2  A    between atoms: C_1  and  C_35
    3  A    between atoms: O_2  and  C_12
    4  A    between atoms: O_2  and  C_25
    5  A    between atoms: N_7  and  C_32
    6  A    between atoms: C_9  and  C_39
    7  A    between atoms: C_12  and  C_17
    8  A    between atoms: C_13  and  C_15
    9  A    between atoms: C_17  and  C_19
   10  A    between atoms: C_21  and  C_32
   11  A    between atoms: C_23  and  C_24
   12  A    between atoms: C_23  and  C_40
   13  A    between atoms: C_25  and  C_34
   14  A    between atoms: C_32  and  C_39
                            x       y       z     vdW  Elec       q    Type
                         _______ _______ _______ _____ _____    ______ ____

>  <TORSDO>
F 14

$$$$
=
 OpenBabel11042418093D

 40 44  0  0  1  0  0  0  0  0999 V2000
  189.9890  175.2800  146.7650 C   0  0  0  0  0  3  0  0  0  0  0  0
  190.2940  176.1840  145.8070 C   0  0  0  0  0  0  0  0  0  0  0  0
  189.6300  178.1590  144.2700 C   0  0  0  0  0  1  0  0  0  0  0  0
  187.6670  176.1490  146.8460 C   0  0  0  0  0  0  0  0  0  0  0  0
  188.6360  175.1790  147.4410 C   0  0  0  0  0  2  0  0  0  0  0  0
  186.3910  176.3100  147.1690 C   0  0  0  0  0  3  0  0  0  0  0  0
  185.8590  177.4100  146.3420 C   0  0  0  0  0  3  0  0  0  0  0  0
  189.2740  177.1560  145.3180 C   0  0  0  0  0  0  0  0  0  0  0  0
  188.0430  177.1020  145.8320 C   0  0  0  0  0  0  0  0  0  0  0  0
  186.8330  177.8670  145.5560 C   0  0  0  0  0  0  0  0  0  0  0  0
  194.1220  176.3060  145.5640 C   0  0  0  0  0  2  0  0  0  0  0  0
  194.2970  174.9930  144.9290 N   0  0  0  0  0  0  0  0  0  0  0  0
  193.3280  174.9230  143.8280 C   0  0  0  0  0  2  0  0  0  0  0  0
  191.9070  174.9050  144.3820 C   0  0  0  0  0  2  0  0  0  0  0  0
  191.6620  176.1790  145.1910 C   0  0  2  0  0  3  0  0  0  0  0  0
  192.7570  176.3840  146.2390 C   0  0  0  0  0  2  0  0  0  0  0  0
  195.6620  174.9070  144.3790 C   0  0  1  0  0  3  0  0  0  0  0  0
  197.4670  173.6880  145.5560 C   0  0  0  0  0  2  0  0  0  0  0  0
  196.2850  173.5410  144.6760 C   0  0  1  0  0  3  0  0  0  0  0  0
  196.2150  173.2890  146.0590 O   0  0  0  0  0  0  0  0  0  0  0  0
  195.6500  175.0790  142.8560 C   0  0  0  0  0  2  0  0  0  0  0  0
  195.6470  176.8270  141.1600 N   0  0  0  0  0  1  0  0  0  0  0  0
  196.1750  176.4470  142.4590 C   0  0  0  0  0  2  0  0  0  0  0  0
  186.6840  179.0090  144.6060 C   0  0  0  0  0  2  0  0  0  0  0  0
  185.5190  178.7700  143.6550 C   0  0  0  0  0  2  0  0  0  0  0  0
  186.0090  178.4800  142.2430 C   0  0  0  0  0  2  0  0  0  0  0  0
  186.3200  176.0600  142.8070 C   0  0  0  0  0  3  0  0  0  0  0  0
  187.0850  174.8900  142.7930 C   0  0  0  0  0  3  0  0  0  0  0  0
  188.8330  176.0450  141.5830 C   0  0  0  0  0  3  0  0  0  0  0  0
  188.3460  174.8740  142.1800 C   0  0  0  0  0  0  0  0  0  0  0  0
  186.8110  177.2230  142.2070 C   0  0  0  0  0  0  0  0  0  0  0  0
  188.0700  177.2160  141.5980 C   0  0  0  0  0  3  0  0  0  0  0  0
  189.1510  173.6410  142.1760 C   0  0  0  0  0  0  0  0  0  0  0  0
  189.1970  172.9150  143.2070 O   0  0  0  0  0  0  0  0  0  0  0  0
  189.8610  173.2810  141.0250 O   0  0  0  0  0  0  0  0  0  0  0  0
  189.3820  172.3080  140.1050 C   0  0  0  0  0  2  0  0  0  0  0  0
  189.6880  172.7250  138.6740 C   0  0  2  0  0  3  0  0  0  0  0  0
  190.6670  173.7160  138.6700 O   0  0  0  0  0  1  0  0  0  0  0  0
  188.4350  173.2250  137.9660 C   0  0  0  0  0  2  0  0  0  0  0  0
  188.0440  174.4650  138.4740 O   0  0  0  0  0  1  0  0  0  0  0  0
  1  5  1  0  0  0  0
  2  1  2  0  0  0  0
  3  8  1  0  0  0  0
  4  6  2  0  0  0  0
  4  5  1  0  0  0  0
  7  6  1  0  0  0  0
  8  2  1  0  0  0  0
  8  9  2  0  0  0  0
  9  4  1  0  0  0  0
 10  9  1  0  0  0  0
 10  7  2  0  0  0  0
 11 16  1  0  0  0  0
 12 11  1  0  0  0  0
 13 14  1  0  0  0  0
 13 12  1  0  0  0  0
 14 15  1  0  0  0  0
 15  2  1  1  0  0  0
 15 16  1  0  0  0  0
 17 21  1  6  0  0  0
 17 12  1  0  0  0  0
 18 20  1  0  0  0  0
 19 17  1  1  0  0  0
 19 18  1  0  0  0  0
 19 20  1  0  0  0  0
 22 23  1  0  0  0  0
 23 21  1  0  0  0  0
 24 10  1  0  0  0  0
 25 24  1  0  0  0  0
 26 25  1  0  0  0  0
 28 27  1  0  0  0  0
 29 32  2  0  0  0  0
 29 30  1  0  0  0  0
 30 28  2  0  0  0  0
 31 26  1  0  0  0  0
 31 27  2  0  0  0  0
 32 31  1  0  0  0  0
 33 30  1  0  0  0  0
 33 34  2  0  0  0  0
 35 33  1  0  0  0  0
 36 35  1  0  0  0  0
 37 38  1  1  0  0  0
 37 36  1  0  0  0  0
 39 40  1  0  0  0  0
 39 37  1  0  0  0  0
M  END
>  <MODEL>
2

>  <REMARK>
 VINA RESULT:      -6.6      1.199      1.901
  Name = 
  14 active torsions:
  status: ('A' for Active; 'I' for Inactive)
    1  A    between atoms: C_1  and  C_24
    2  A    between atoms: C_1  and  C_35
    3  A    between atoms: O_2  and  C_12
    4  A    between atoms: O_2  and  C_25
    5  A    between atoms: N_7  and  C_32
    6  A    between atoms: C_9  and  C_39
    7  A    between atoms: C_12  and  C_17
    8  A    between atoms: C_13  and  C_15
    9  A    between atoms: C_17  and  C_19
   10  A    between atoms: C_21  and  C_32
   11  A    between atoms: C_23  and  C_24
   12  A    between atoms: C_23  and  C_40
   13  A    between atoms: C_25  and  C_34
   14  A    between atoms: C_32  and  C_39
                            x       y       z     vdW  Elec       q    Type
                         _______ _______ _______ _____ _____    ______ ____

>  <TORSDO>
F 14

$$$$
=
 OpenBabel11042418093D

 40 44  0  0  1  0  0  0  0  0999 V2000
  190.1730  175.4800  146.3810 C   0  0  0  0  0  3  0  0  0  0  0  0
  190.2500  176.4150  145.4090 C   0  0  0  0  0  0  0  0  0  0  0  0
  189.1990  178.3470  144.0410 C   0  0  0  0  0  1  0  0  0  0  0  0
  187.8320  176.1570  146.8460 C   0  0  0  0  0  0  0  0  0  0  0  0
  188.9560  175.2620  147.2580 C   0  0  0  0  0  2  0  0  0  0  0  0
  186.6150  176.2110  147.3690 C   0  0  0  0  0  3  0  0  0  0  0  0
  185.8740  177.2730  146.6610 C   0  0  0  0  0  3  0  0  0  0  0  0
  189.0930  177.3070  145.1090 C   0  0  0  0  0  0  0  0  0  0  0  0
  187.9670  177.1480  145.8080 C   0  0  0  0  0  0  0  0  0  0  0  0
  186.6720  177.8160  145.7430 C   0  0  0  0  0  0  0  0  0  0  0  0
  193.9660  176.1900  144.4730 C   0  0  0  0  0  2  0  0  0  0  0  0
  193.8010  175.2890  143.3250 N   0  0  0  0  0  0  0  0  0  0  0  0
  192.7010  175.8300  142.5160 C   0  0  0  0  0  2  0  0  0  0  0  0
  191.3880  175.7310  143.2860 C   0  0  0  0  0  2  0  0  0  0  0  0
  191.5000  176.5280  144.5860 C   0  0  2  0  0  3  0  0  0  0  0  0
  192.7410  176.1160  145.3790 C   0  0  0  0  0  2  0  0  0  0  0  0
  195.0410  175.3010  142.5270 C   0  0  1  0  0  3  0  0  0  0  0  0
  195.7680  175.0800  140.1710 C   0  0  0  0  0  2  0  0  0  0  0  0
  194.7480  175.6660  141.0700 C   0  0  1  0  0  3  0  0  0  0  0  0
  194.5020  174.4900  140.3360 O   0  0  0  0  0  0  0  0  0  0  0  0
  196.0290  176.3410  143.0650 C   0  0  0  0  0  2  0  0  0  0  0  0
  197.2420  174.5800  144.2310 N   0  0  0  0  0  1  0  0  0  0  0  0
  197.3850  175.7130  143.3340 C   0  0  0  0  0  2  0  0  0  0  0  0
  186.2860  178.9520  144.8550 C   0  0  0  0  0  2  0  0  0  0  0  0
  185.0470  178.6030  144.0430 C   0  0  0  0  0  2  0  0  0  0  0  0
  185.3670  178.5150  142.5570 C   0  0  0  0  0  2  0  0  0  0  0  0
  187.2270  177.4420  141.2690 C   0  0  0  0  0  3  0  0  0  0  0  0
  188.0460  176.3440  140.9900 C   0  0  0  0  0  3  0  0  0  0  0  0
  186.9310  175.0700  142.7190 C   0  0  0  0  0  3  0  0  0  0  0  0
  187.9040  175.1510  141.7130 C   0  0  0  0  0  0  0  0  0  0  0  0
  186.2610  177.3550  142.2750 C   0  0  0  0  0  0  0  0  0  0  0  0
  186.1100  176.1670  142.9970 C   0  0  0  0  0  3  0  0  0  0  0  0
  188.7640  173.9950  141.4100 C   0  0  0  0  0  0  0  0  0  0  0  0
  189.6090  174.0660  140.4750 O   0  0  0  0  0  0  0  0  0  0  0  0
  188.6390  172.8220  142.1620 O   0  0  0  0  0  0  0  0  0  0  0  0
  189.6610  171.8340  142.2110 C   0  0  0  0  0  2  0  0  0  0  0  0
  190.3060  171.7950  143.5900 C   0  0  2  0  0  3  0  0  0  0  0  0
  189.7120  172.7480  144.4150 O   0  0  0  0  0  1  0  0  0  0  0  0
  191.8060  172.0410  143.5030 C   0  0  0  0  0  2  0  0  0  0  0  0
  192.1700  172.4220  142.2090 O   0  0  0  0  0  1  0  0  0  0  0  0
  1  5  1  0  0  0  0
  2  1  2  0  0  0  0
  3  8  1  0  0  0  0
  4  5  1  0  0  0  0
  4  6  2  0  0  0  0
  7  6  1  0  0  0  0
  8  2  1  0  0  0  0
  8  9  2  0  0  0  0
  9  4  1  0  0  0  0
 10  9  1  0  0  0  0
 10  7  2  0  0  0  0
 11 16  1  0  0  0  0
 12 11  1  0  0  0  0
 13 14  1  0  0  0  0
 13 12  1  0  0  0  0
 14 15  1  0  0  0  0
 15 16  1  0  0  0  0
 15  2  1  1  0  0  0
 17 21  1  1  0  0  0
 17 12  1  0  0  0  0
 18 20  1  0  0  0  0
 18 19  1  0  0  0  0
 19 17  1  1  0  0  0
 20 19  1  0  0  0  0
 21 23  1  0  0  0  0
 23 22  1  0  0  0  0
 24 10  1  0  0  0  0
 25 24  1  0  0  0  0
 26 25  1  0  0  0  0
 27 31  1  0  0  0  0
 28 27  2  0  0  0  0
 28 30  1  0  0  0  0
 29 32  1  0  0  0  0
 30 29  2  0  0  0  0
 31 26  1  0  0  0  0
 31 32  2  0  0  0  0
 33 30  1  0  0  0  0
 33 35  1  0  0  0  0
 34 33  2  0  0  0  0
 35 36  1  0  0  0  0
 36 37  1  0  0  0  0
 37 38  1  1  0  0  0
 39 37  1  0  0  0  0
 40 39  1  0  0  0  0
M  END
>  <MODEL>
3

>  <REMARK>
 VINA RESULT:      -6.5      1.454      2.012
  Name = 
  14 active torsions:
  status: ('A' for Active; 'I' for Inactive)
    1  A    between atoms: C_1  and  C_24
    2  A    between atoms: C_1  and  C_35
    3  A    between atoms: O_2  and  C_12
    4  A    between atoms: O_2  and  C_25
    5  A    between atoms: N_7  and  C_32
    6  A    between atoms: C_9  and  C_39
    7  A    between atoms: C_12  and  C_17
    8  A    between atoms: C_13  and  C_15
    9  A    between atoms: C_17  and  C_19
   10  A    between atoms: C_21  and  C_32
   11  A    between atoms: C_23  and  C_24
   12  A    between atoms: C_23  and  C_40
   13  A    between atoms: C_25  and  C_34
   14  A    between atoms: C_32  and  C_39
                            x       y       z     vdW  Elec       q    Type
                         _______ _______ _______ _____ _____    ______ ____

>  <TORSDO>
F 14

$$$$
=
 OpenBabel11042418093D

 40 44  0  0  1  0  0  0  0  0999 V2000
  190.7700  173.1270  144.7860 C   0  0  0  0  0  3  0  0  0  0  0  0
  191.2770  174.2760  145.2850 C   0  0  0  0  0  0  0  0  0  0  0  0
  193.2890  175.7060  146.0690 C   0  0  0  0  0  1  0  0  0  0  0  0
  193.0450  172.1390  144.7460 C   0  0  0  0  0  0  0  0  0  0  0  0
  191.6050  171.9200  144.4100 C   0  0  0  0  0  3  0  0  0  0  0  0
  194.0460  171.2850  144.5850 C   0  0  0  0  0  3  0  0  0  0  0  0
  195.2820  171.9640  145.0200 C   0  0  0  0  0  3  0  0  0  0  0  0
  192.7410  174.4250  145.5310 C   0  0  0  0  0  0  0  0  0  0  0  0
  193.5410  173.3880  145.2670 C   0  0  1  0  0  3  0  0  0  0  0  0
  194.9770  173.1960  145.4240 C   0  0  0  0  0  0  0  0  0  0  0  0
  189.0400  177.3630  144.8430 C   0  0  0  0  0  2  0  0  0  0  0  0
  187.8020  176.7530  145.3440 N   0  0  0  0  0  0  0  0  0  0  0  0
  188.1450  176.0620  146.5940 C   0  0  0  0  0  2  0  0  0  0  0  0
  189.0740  174.8870  146.3050 C   0  0  0  0  0  2  0  0  0  0  0  0
  190.3520  175.4030  145.6430 C   0  0  2  0  0  3  0  0  0  0  0  0
  190.0310  176.2790  144.4320 C   0  0  0  0  0  2  0  0  0  0  0  0
  186.8260  177.8200  145.6320 C   0  0  1  0  0  3  0  0  0  0  0  0
  185.6830  179.3850  144.0900 C   0  0  0  0  0  2  0  0  0  0  0  0
  185.8220  177.9640  144.4860 C   0  0  1  0  0  3  0  0  0  0  0  0
  186.4780  178.4860  143.3550 O   0  0  0  0  0  0  0  0  0  0  0  0
  186.0250  177.5010  146.8990 C   0  0  0  0  0  2  0  0  0  0  0  0
  187.0140  179.1290  148.4170 N   0  0  0  0  0  1  0  0  0  0  0  0
  185.7930  178.7540  147.7250 C   0  0  0  0  0  2  0  0  0  0  0  0
  195.9760  174.2000  145.8970 C   0  0  0  0  0  2  0  0  0  0  0  0
  197.0000  174.4950  144.8090 C   0  0  0  0  0  2  0  0  0  0  0  0
  196.5420  175.6410  143.9170 C   0  0  0  0  0  2  0  0  0  0  0  0
  195.7020  174.0320  142.1920 C   0  0  0  0  0  3  0  0  0  0  0  0
  194.7300  173.6200  141.2750 C   0  0  0  0  0  3  0  0  0  0  0  0
  193.3480  175.5090  141.8890 C   0  0  0  0  0  3  0  0  0  0  0  0
  193.5460  174.3540  141.1190 C   0  0  0  0  0  0  0  0  0  0  0  0
  195.4960  175.1820  142.9580 C   0  0  0  0  0  0  0  0  0  0  0  0
  194.3200  175.9230  142.8030 C   0  0  0  0  0  3  0  0  0  0  0  0
  192.5290  173.9200  140.1460 C   0  0  0  0  0  0  0  0  0  0  0  0
  192.7140  174.1120  138.9120 O   0  0  0  0  0  0  0  0  0  0  0  0
  191.3610  173.2940  140.5960 O   0  0  0  0  0  0  0  0  0  0  0  0
  190.0630  173.7540  140.2420 C   0  0  0  0  0  2  0  0  0  0  0  0
  189.2390  174.0510  141.4870 C   0  0  2  0  0  3  0  0  0  0  0  0
  188.6100  172.8880  141.9250 O   0  0  0  0  0  1  0  0  0  0  0  0
  188.2040  175.1350  141.2180 C   0  0  0  0  0  2  0  0  0  0  0  0
  187.3360  175.2690  142.3030 O   0  0  0  0  0  1  0  0  0  0  0  0
  1  2  1  0  0  0  0
  2  8  2  0  0  0  0
  5  4  1  0  0  0  0
  5  1  2  0  0  0  0
  6  4  2  0  0  0  0
  6  7  1  0  0  0  0
  7 10  2  0  0  0  0
  8  3  1  0  0  0  0
  9  4  1  1  0  0  0
  9 10  1  0  0  0  0
  9  8  1  0  0  0  0
 10 24  1  0  0  0  0
 11 12  1  0  0  0  0
 12 17  1  0  0  0  0
 12 13  1  0  0  0  0
 14 13  1  0  0  0  0
 15  2  1  6  0  0  0
 15 14  1  0  0  0  0
 16 11  1  0  0  0  0
 16 15  1  0  0  0  0
 17 21  1  1  0  0  0
 18 19  1  0  0  0  0
 19 17  1  1  0  0  0
 20 18  1  0  0  0  0
 20 19  1  0  0  0  0
 21 23  1  0  0  0  0
 23 22  1  0  0  0  0
 25 24  1  0  0  0  0
 26 25  1  0  0  0  0
 27 31  1  0  0  0  0
 28 27  2  0  0  0  0
 29 32  1  0  0  0  0
 30 28  1  0  0  0  0
 30 29  2  0  0  0  0
 31 26  1  0  0  0  0
 32 31  2  0  0  0  0
 33 35  1  0  0  0  0
 33 30  1  0  0  0  0
 34 33  2  0  0  0  0
 36 35  1  0  0  0  0
 36 37  1  0  0  0  0
 37 38  1  6  0  0  0
 39 37  1  0  0  0  0
 39 40  1  0  0  0  0
M  END
>  <MODEL>
4

>  <REMARK>
 VINA RESULT:      -6.5      2.613      7.808
  Name = 
  14 active torsions:
  status: ('A' for Active; 'I' for Inactive)
    1  A    between atoms: C_1  and  C_24
    2  A    between atoms: C_1  and  C_35
    3  A    between atoms: O_2  and  C_12
    4  A    between atoms: O_2  and  C_25
    5  A    between atoms: N_7  and  C_32
    6  A    between atoms: C_9  and  C_39
    7  A    between atoms: C_12  and  C_17
    8  A    between atoms: C_13  and  C_15
    9  A    between atoms: C_17  and  C_19
   10  A    between atoms: C_21  and  C_32
   11  A    between atoms: C_23  and  C_24
   12  A    between atoms: C_23  and  C_40
   13  A    between atoms: C_25  and  C_34
   14  A    between atoms: C_32  and  C_39
                            x       y       z     vdW  Elec       q    Type
                         _______ _______ _______ _____ _____    ______ ____

>  <TORSDO>
F 14

$$$$
=
 OpenBabel11042418093D

 40 44  0  0  1  0  0  0  0  0999 V2000
  190.0180  175.2590  146.7430 C   0  0  0  0  0  3  0  0  0  0  0  0
  190.2560  176.0820  145.6980 C   0  0  0  0  0  0  0  0  0  0  0  0
  189.4860  177.9310  144.0560 C   0  0  0  0  0  1  0  0  0  0  0  0
  187.7050  176.1400  146.9120 C   0  0  0  0  0  0  0  0  0  0  0  0
  188.7140  175.2170  147.5150 C   0  0  0  0  0  2  0  0  0  0  0  0
  186.4540  176.3310  147.3070 C   0  0  0  0  0  3  0  0  0  0  0  0
  185.8650  177.3630  146.4320 C   0  0  0  0  0  3  0  0  0  0  0  0
  189.2030  177.0170  145.2030 C   0  0  0  0  0  0  0  0  0  0  0  0
  188.0100  177.0080  145.8020 C   0  0  0  0  0  0  0  0  0  0  0  0
  186.7830  177.7530  145.5480 C   0  0  0  0  0  0  0  0  0  0  0  0
  194.0270  176.4750  145.1030 C   0  0  0  0  0  2  0  0  0  0  0  0
  194.3110  175.0570  144.8500 N   0  0  0  0  0  0  0  0  0  0  0  0
  193.2950  174.5830  143.9020 C   0  0  0  0  0  2  0  0  0  0  0  0
  191.9180  174.5980  144.5580 C   0  0  0  0  0  2  0  0  0  0  0  0
  191.5800  176.0240  144.9930 C   0  0  2  0  0  3  0  0  0  0  0  0
  192.7010  176.6220  145.8420 C   0  0  0  0  0  2  0  0  0  0  0  0
  195.6440  174.9390  144.2320 C   0  0  1  0  0  3  0  0  0  0  0  0
  197.1960  176.1320  142.7150 C   0  0  0  0  0  2  0  0  0  0  0  0
  196.1390  176.3010  143.7390 C   0  0  1  0  0  3  0  0  0  0  0  0
  195.8660  176.4260  142.3640 O   0  0  0  0  0  0  0  0  0  0  0  0
  196.6730  174.4210  145.2430 C   0  0  0  0  0  2  0  0  0  0  0  0
  196.9070  172.0380  144.8000 N   0  0  0  0  0  1  0  0  0  0  0  0
  196.3240  173.0160  145.7010 C   0  0  0  0  0  2  0  0  0  0  0  0
  186.5680  178.8160  144.5230 C   0  0  0  0  0  2  0  0  0  0  0  0
  185.1390  178.7770  143.9980 C   0  0  0  0  0  2  0  0  0  0  0  0
  185.1030  178.4040  142.5220 C   0  0  0  0  0  2  0  0  0  0  0  0
  186.1090  176.1440  142.9140 C   0  0  0  0  0  3  0  0  0  0  0  0
  187.0760  175.1730  142.6410 C   0  0  0  0  0  3  0  0  0  0  0  0
  188.0630  176.6220  140.9730 C   0  0  0  0  0  3  0  0  0  0  0  0
  188.0590  175.4040  141.6680 C   0  0  0  0  0  0  0  0  0  0  0  0
  186.1170  177.3540  142.2150 C   0  0  0  0  0  0  0  0  0  0  0  0
  187.0970  177.5940  141.2470 C   0  0  0  0  0  3  0  0  0  0  0  0
  189.0810  174.3810  141.3910 C   0  0  0  0  0  0  0  0  0  0  0  0
  190.3010  174.6370  141.5930 O   0  0  0  0  0  0  0  0  0  0  0  0
  188.6940  173.1280  140.9040 O   0  0  0  0  0  0  0  0  0  0  0  0
  188.0530  172.9610  139.6460 C   0  0  0  0  0  2  0  0  0  0  0  0
  188.9020  173.5490  138.5270 C   0  0  2  0  0  3  0  0  0  0  0  0
  188.1200  174.3790  137.7270 O   0  0  0  0  0  1  0  0  0  0  0  0
  189.5340  172.4520  137.6810 C   0  0  0  0  0  2  0  0  0  0  0  0
  189.3560  172.7140  136.3210 O   0  0  0  0  0  1  0  0  0  0  0  0
  1  5  1  0  0  0  0
  2  1  2  0  0  0  0
  3  8  1  0  0  0  0
  4  6  2  0  0  0  0
  4  5  1  0  0  0  0
  7  6  1  0  0  0  0
  8  2  1  0  0  0  0
  8  9  2  0  0  0  0
  9  4  1  0  0  0  0
 10  9  1  0  0  0  0
 10  7  2  0  0  0  0
 11 16  1  0  0  0  0
 12 11  1  0  0  0  0
 13 14  1  0  0  0  0
 13 12  1  0  0  0  0
 14 15  1  0  0  0  0
 15  2  1  1  0  0  0
 15 16  1  0  0  0  0
 17 12  1  0  0  0  0
 17 21  1  1  0  0  0
 18 19  1  0  0  0  0
 19 17  1  6  0  0  0
 20 18  1  0  0  0  0
 20 19  1  0  0  0  0
 21 23  1  0  0  0  0
 22 23  1  0  0  0  0
 24 10  1  0  0  0  0
 25 24  1  0  0  0  0
 26 25  1  0  0  0  0
 28 27  1  0  0  0  0
 29 32  2  0  0  0  0
 29 30  1  0  0  0  0
 30 28  2  0  0  0  0
 31 26  1  0  0  0  0
 31 27  2  0  0  0  0
 32 31  1  0  0  0  0
 33 34  2  0  0  0  0
 33 30  1  0  0  0  0
 35 33  1  0  0  0  0
 36 35  1  0  0  0  0
 37 38  1  6  0  0  0
 37 36  1  0  0  0  0
 39 37  1  0  0  0  0
 40 39  1  0  0  0  0
M  END
>  <MODEL>
5

>  <REMARK>
 VINA RESULT:      -6.4      1.606      2.496
  Name = 
  14 active torsions:
  status: ('A' for Active; 'I' for Inactive)
    1  A    between atoms: C_1  and  C_24
    2  A    between atoms: C_1  and  C_35
    3  A    between atoms: O_2  and  C_12
    4  A    between atoms: O_2  and  C_25
    5  A    between atoms: N_7  and  C_32
    6  A    between atoms: C_9  and  C_39
    7  A    between atoms: C_12  and  C_17
    8  A    between atoms: C_13  and  C_15
    9  A    between atoms: C_17  and  C_19
   10  A    between atoms: C_21  and  C_32
   11  A    between atoms: C_23  and  C_24
   12  A    between atoms: C_23  and  C_40
   13  A    between atoms: C_25  and  C_34
   14  A    between atoms: C_32  and  C_39
                            x       y       z     vdW  Elec       q    Type
                         _______ _______ _______ _____ _____    ______ ____

>  <TORSDO>
F 14

$$$$
=
 OpenBabel11042418093D

 40 44  0  0  1  0  0  0  0  0999 V2000
  186.1870  178.0990  141.3020 C   0  0  0  0  0  3  0  0  0  0  0  0
  185.4620  177.9620  142.4340 C   0  0  0  0  0  0  0  0  0  0  0  0
  185.3160  177.6620  145.0020 C   0  0  0  0  0  1  0  0  0  0  0  0
  188.2800  177.8960  142.6170 C   0  0  0  0  0  0  0  0  0  0  0  0
  187.7020  178.1270  141.2580 C   0  0  0  0  0  3  0  0  0  0  0  0
  189.5640  177.8230  142.9410 C   0  0  0  0  0  3  0  0  0  0  0  0
  189.6420  177.6250  144.4010 C   0  0  0  0  0  3  0  0  0  0  0  0
  186.1310  177.7970  143.7580 C   0  0  0  0  0  0  0  0  0  0  0  0
  187.4650  177.7660  143.7980 C   0  0  1  0  0  3  0  0  0  0  0  0
  188.4060  177.5880  144.8970 C   0  0  0  0  0  0  0  0  0  0  0  0
  181.8120  178.9940  143.0150 C   0  0  0  0  0  2  0  0  0  0  0  0
  181.4550  179.1740  141.6020 N   0  0  0  0  0  0  0  0  0  0  0  0
  181.9530  177.9930  140.8850 C   0  0  0  0  0  2  0  0  0  0  0  0
  183.4780  177.9710  140.9070 C   0  0  0  0  0  2  0  0  0  0  0  0
  183.9630  177.9270  142.3570 C   0  0  2  0  0  3  0  0  0  0  0  0
  183.3260  179.0420  143.1850 C   0  0  0  0  0  2  0  0  0  0  0  0
  179.9870  179.2310  141.4820 C   0  0  1  0  0  3  0  0  0  0  0  0
  178.6750  181.0070  140.3620 C   0  0  0  0  0  2  0  0  0  0  0  0
  179.5720  179.8480  140.1450 C   0  0  1  0  0  3  0  0  0  0  0  0
  180.0430  181.1730  140.0780 O   0  0  0  0  0  0  0  0  0  0  0  0
  179.3790  177.8250  141.5420 C   0  0  0  0  0  2  0  0  0  0  0  0
  178.2660  178.9360  143.4020 N   0  0  0  0  0  1  0  0  0  0  0  0
  178.2310  177.7710  142.5340 C   0  0  0  0  0  2  0  0  0  0  0  0
  188.0830  177.4430  146.3480 C   0  0  0  0  0  2  0  0  0  0  0  0
  187.6060  176.0300  146.6550 C   0  0  0  0  0  2  0  0  0  0  0  0
  188.5470  175.3280  147.6240 C   0  0  0  0  0  2  0  0  0  0  0  0
  191.0260  175.6770  147.5820 C   0  0  0  0  0  3  0  0  0  0  0  0
  192.2760  175.4950  146.9830 C   0  0  0  0  0  3  0  0  0  0  0  0
  191.2460  174.1890  145.2260 C   0  0  0  0  0  3  0  0  0  0  0  0
  192.3950  174.7490  145.8020 C   0  0  0  0  0  0  0  0  0  0  0  0
  189.8860  175.1140  147.0040 C   0  0  0  0  0  0  0  0  0  0  0  0
  189.9960  174.3720  145.8230 C   0  0  0  0  0  3  0  0  0  0  0  0
  193.7130  174.5670  145.1710 C   0  0  0  0  0  0  0  0  0  0  0  0
  194.4160  173.5580  145.4580 O   0  0  0  0  0  0  0  0  0  0  0  0
  194.1790  175.5140  144.2540 O   0  0  0  0  0  0  0  0  0  0  0  0
  195.4000  176.2210  144.4390 C   0  0  0  0  0  2  0  0  0  0  0  0
  196.2780  176.1120  143.2000 C   0  0  2  0  0  3  0  0  0  0  0  0
  197.1690  177.1820  143.1570 O   0  0  0  0  0  1  0  0  0  0  0  0
  195.4380  176.0800  141.9300 C   0  0  0  0  0  2  0  0  0  0  0  0
  195.9550  175.1570  141.0190 O   0  0  0  0  0  1  0  0  0  0  0  0
  1  2  1  0  0  0  0
  2  8  2  0  0  0  0
  4  6  2  0  0  0  0
  5  1  2  0  0  0  0
  5  4  1  0  0  0  0
  6  7  1  0  0  0  0
  7 10  2  0  0  0  0
  8  9  1  0  0  0  0
  8  3  1  0  0  0  0
  9  4  1  6  0  0  0
  9 10  1  0  0  0  0
 10 24  1  0  0  0  0
 11 16  1  0  0  0  0
 12 11  1  0  0  0  0
 13 14  1  0  0  0  0
 13 12  1  0  0  0  0
 14 15  1  0  0  0  0
 15  2  1  6  0  0  0
 15 16  1  0  0  0  0
 17 21  1  6  0  0  0
 17 12  1  0  0  0  0
 19 18  1  0  0  0  0
 19 17  1  1  0  0  0
 20 19  1  0  0  0  0
 20 18  1  0  0  0  0
 21 23  1  0  0  0  0
 23 22  1  0  0  0  0
 24 25  1  0  0  0  0
 25 26  1  0  0  0  0
 28 27  2  0  0  0  0
 29 30  2  0  0  0  0
 29 32  1  0  0  0  0
 30 28  1  0  0  0  0
 31 27  1  0  0  0  0
 31 26  1  0  0  0  0
 32 31  2  0  0  0  0
 33 34  2  0  0  0  0
 33 30  1  0  0  0  0
 35 36  1  0  0  0  0
 35 33  1  0  0  0  0
 37 38  1  6  0  0  0
 37 36  1  0  0  0  0
 39 37  1  0  0  0  0
 40 39  1  0  0  0  0
M  END
>  <MODEL>
6

>  <REMARK>
 VINA RESULT:      -6.3      4.703      9.973
  Name = 
  14 active torsions:
  status: ('A' for Active; 'I' for Inactive)
    1  A    between atoms: C_1  and  C_24
    2  A    between atoms: C_1  and  C_35
    3  A    between atoms: O_2  and  C_12
    4  A    between atoms: O_2  and  C_25
    5  A    between atoms: N_7  and  C_32
    6  A    between atoms: C_9  and  C_39
    7  A    between atoms: C_12  and  C_17
    8  A    between atoms: C_13  and  C_15
    9  A    between atoms: C_17  and  C_19
   10  A    between atoms: C_21  and  C_32
   11  A    between atoms: C_23  and  C_24
   12  A    between atoms: C_23  and  C_40
   13  A    between atoms: C_25  and  C_34
   14  A    between atoms: C_32  and  C_39
                            x       y       z     vdW  Elec       q    Type
                         _______ _______ _______ _____ _____    ______ ____

>  <TORSDO>
F 14

$$$$
=
 OpenBabel11042418093D

 40 44  0  0  1  0  0  0  0  0999 V2000
  190.7270  177.5710  142.9890 C   0  0  0  0  0  3  0  0  0  0  0  0
  189.9910  176.5620  142.4710 C   0  0  0  0  0  0  0  0  0  0  0  0
  189.8090  174.1820  141.4670 C   0  0  0  0  0  1  0  0  0  0  0  0
  192.7920  176.2350  142.6580 C   0  0  0  0  0  0  0  0  0  0  0  0
  192.2290  177.5140  143.1890 C   0  0  0  0  0  2  0  0  0  0  0  0
  194.0650  175.8660  142.6360 C   0  0  0  0  0  3  0  0  0  0  0  0
  194.1240  174.5110  142.0560 C   0  0  0  0  0  3  0  0  0  0  0  0
  190.6370  175.2940  142.0230 C   0  0  0  0  0  0  0  0  0  0  0  0
  191.9640  175.1830  142.1240 C   0  0  0  0  0  0  0  0  0  0  0  0
  192.8870  174.1180  141.7540 C   0  0  0  0  0  0  0  0  0  0  0  0
  186.2380  176.3390  143.2380 C   0  0  0  0  0  2  0  0  0  0  0  0
  185.9760  177.7840  143.2450 N   0  0  0  0  0  0  0  0  0  0  0  0
  186.6180  178.3380  142.0450 C   0  0  0  0  0  2  0  0  0  0  0  0
  188.1340  178.2110  142.1580 C   0  0  0  0  0  2  0  0  0  0  0  0
  188.5110  176.7360  142.3000 C   0  0  2  0  0  3  0  0  0  0  0  0
  187.7270  176.0740  143.4330 C   0  0  0  0  0  2  0  0  0  0  0  0
  184.5210  178.0080  143.1620 C   0  0  1  0  0  3  0  0  0  0  0  0
  183.8170  178.8440  145.3840 C   0  0  0  0  0  2  0  0  0  0  0  0
  184.1090  179.2310  143.9840 C   0  0  1  0  0  3  0  0  0  0  0  0
  185.0430  179.4320  145.0200 O   0  0  0  0  0  0  0  0  0  0  0  0
  184.0890  178.2670  141.7150 C   0  0  0  0  0  2  0  0  0  0  0  0
  182.2260  177.9150  140.1860 N   0  0  0  0  0  1  0  0  0  0  0  0
  182.5810  178.1650  141.5720 C   0  0  0  0  0  2  0  0  0  0  0  0
  192.5420  172.7810  141.1840 C   0  0  0  0  0  2  0  0  0  0  0  0
  193.1480  171.6650  142.0250 C   0  0  0  0  0  2  0  0  0  0  0  0
  192.1060  171.0340  142.9370 C   0  0  0  0  0  2  0  0  0  0  0  0
  190.1900  172.1940  144.0570 C   0  0  0  0  0  3  0  0  0  0  0  0
  189.6910  173.1520  144.9450 C   0  0  0  0  0  3  0  0  0  0  0  0
  191.9510  173.7960  145.5230 C   0  0  0  0  0  3  0  0  0  0  0  0
  190.5670  173.9580  145.6850 C   0  0  0  0  0  0  0  0  0  0  0  0
  191.5700  172.0350  143.9030 C   0  0  0  0  0  0  0  0  0  0  0  0
  192.4500  172.8400  144.6340 C   0  0  0  0  0  3  0  0  0  0  0  0
  190.0370  174.9710  146.6120 C   0  0  0  0  0  0  0  0  0  0  0  0
  189.7850  174.6590  147.8100 O   0  0  0  0  0  0  0  0  0  0  0  0
  189.8150  176.2760  146.1610 O   0  0  0  0  0  0  0  0  0  0  0  0
  189.3700  177.3170  147.0220 C   0  0  0  0  0  2  0  0  0  0  0  0
  187.9100  177.6520  146.7510 C   0  0  2  0  0  3  0  0  0  0  0  0
  187.4820  178.6450  147.6300 O   0  0  0  0  0  1  0  0  0  0  0  0
  187.0270  176.4190  146.8870 C   0  0  0  0  0  2  0  0  0  0  0  0
  185.7090  176.7840  147.1670 O   0  0  0  0  0  1  0  0  0  0  0  0
  1  5  1  0  0  0  0
  2  1  2  0  0  0  0
  3  8  1  0  0  0  0
  4  5  1  0  0  0  0
  6  4  2  0  0  0  0
  7  6  1  0  0  0  0
  8  9  2  0  0  0  0
  8  2  1  0  0  0  0
  9  4  1  0  0  0  0
 10  7  2  0  0  0  0
 10  9  1  0  0  0  0
 11 12  1  0  0  0  0
 11 16  1  0  0  0  0
 13 14  1  0  0  0  0
 13 12  1  0  0  0  0
 14 15  1  0  0  0  0
 15  2  1  1  0  0  0
 15 16  1  0  0  0  0
 17 21  1  6  0  0  0
 17 12  1  0  0  0  0
 19 17  1  6  0  0  0
 19 20  1  0  0  0  0
 19 18  1  0  0  0  0
 20 18  1  0  0  0  0
 22 23  1  0  0  0  0
 23 21  1  0  0  0  0
 24 10  1  0  0  0  0
 24 25  1  0  0  0  0
 25 26  1  0  0  0  0
 26 31  1  0  0  0  0
 27 28  1  0  0  0  0
 28 30  2  0  0  0  0
 29 30  1  0  0  0  0
 30 33  1  0  0  0  0
 31 27  2  0  0  0  0
 31 32  1  0  0  0  0
 32 29  2  0  0  0  0
 33 34  2  0  0  0  0
 35 33  1  0  0  0  0
 35 36  1  0  0  0  0
 37 39  1  0  0  0  0
 37 36  1  0  0  0  0
 37 38  1  1  0  0  0
 39 40  1  0  0  0  0
M  END
>  <MODEL>
7

>  <REMARK>
 VINA RESULT:      -6.0      3.694      8.611
  Name = 
  14 active torsions:
  status: ('A' for Active; 'I' for Inactive)
    1  A    between atoms: C_1  and  C_24
    2  A    between atoms: C_1  and  C_35
    3  A    between atoms: O_2  and  C_12
    4  A    between atoms: O_2  and  C_25
    5  A    between atoms: N_7  and  C_32
    6  A    between atoms: C_9  and  C_39
    7  A    between atoms: C_12  and  C_17
    8  A    between atoms: C_13  and  C_15
    9  A    between atoms: C_17  and  C_19
   10  A    between atoms: C_21  and  C_32
   11  A    between atoms: C_23  and  C_24
   12  A    between atoms: C_23  and  C_40
   13  A    between atoms: C_25  and  C_34
   14  A    between atoms: C_32  and  C_39
                            x       y       z     vdW  Elec       q    Type
                         _______ _______ _______ _____ _____    ______ ____

>  <TORSDO>
F 14

$$$$
=
 OpenBabel11042418093D

 40 44  0  0  1  0  0  0  0  0999 V2000
  192.6030  176.5860  146.1280 C   0  0  0  0  0  3  0  0  0  0  0  0
  191.7940  175.6070  145.6660 C   0  0  0  0  0  0  0  0  0  0  0  0
  191.4220  173.1710  144.8680 C   0  0  0  0  0  1  0  0  0  0  0  0
  194.5390  175.0390  146.0200 C   0  0  0  0  0  0  0  0  0  0  0  0
  194.0820  176.4090  146.4060 C   0  0  0  0  0  2  0  0  0  0  0  0
  195.7700  174.5520  146.0950 C   0  0  0  0  0  3  0  0  0  0  0  0
  195.7200  173.1490  145.6410 C   0  0  0  0  0  3  0  0  0  0  0  0
  192.3310  174.2480  145.3650 C   0  0  0  0  0  0  0  0  0  0  0  0
  193.6350  174.0240  145.5410 C   0  0  0  0  0  0  0  0  0  0  0  0
  194.4650  172.8470  145.3130 C   0  0  0  0  0  0  0  0  0  0  0  0
  188.0530  176.1120  146.3550 C   0  0  0  0  0  2  0  0  0  0  0  0
  187.9780  177.5050  145.8970 N   0  0  0  0  0  0  0  0  0  0  0  0
  188.6710  177.5640  144.6030 C   0  0  0  0  0  2  0  0  0  0  0  0
  190.1590  177.2900  144.7930 C   0  0  0  0  0  2  0  0  0  0  0  0
  190.3460  175.9010  145.4050 C   0  0  2  0  0  3  0  0  0  0  0  0
  189.4980  175.7380  146.6670 C   0  0  0  0  0  2  0  0  0  0  0  0
  186.5630  177.8710  145.7070 C   0  0  1  0  0  3  0  0  0  0  0  0
  185.0600  178.3040  147.6260 C   0  0  0  0  0  2  0  0  0  0  0  0
  186.1150  178.8840  146.7620 C   0  0  1  0  0  3  0  0  0  0  0  0
  186.4010  178.3770  148.0450 O   0  0  0  0  0  0  0  0  0  0  0  0
  186.3450  178.5190  144.3350 C   0  0  0  0  0  2  0  0  0  0  0  0
  183.9720  178.7410  143.8340 N   0  0  0  0  0  1  0  0  0  0  0  0
  185.1370  179.4370  144.3540 C   0  0  0  0  0  2  0  0  0  0  0  0
  194.0150  171.5010  144.8480 C   0  0  0  0  0  2  0  0  0  0  0  0
  194.8040  171.0650  143.6210 C   0  0  0  0  0  2  0  0  0  0  0  0
  194.9470  172.2050  142.6230 C   0  0  0  0  0  2  0  0  0  0  0  0
  193.2070  173.8100  141.8060 C   0  0  0  0  0  3  0  0  0  0  0  0
  191.9750  174.0740  141.2010 C   0  0  0  0  0  3  0  0  0  0  0  0
  191.6160  171.7000  140.8930 C   0  0  0  0  0  3  0  0  0  0  0  0
  191.1720  173.0210  140.7390 C   0  0  0  0  0  0  0  0  0  0  0  0
  193.6460  172.4920  141.9530 C   0  0  0  0  0  0  0  0  0  0  0  0
  192.8470  171.4360  141.5000 C   0  0  0  0  0  3  0  0  0  0  0  0
  189.8710  173.3040  140.1100 C   0  0  0  0  0  0  0  0  0  0  0  0
  189.3230  172.4340  139.3770 O   0  0  0  0  0  0  0  0  0  0  0  0
  189.2470  174.5360  140.3300 O   0  0  0  0  0  0  0  0  0  0  0  0
  187.9040  174.6430  140.7870 C   0  0  0  0  0  2  0  0  0  0  0  0
  187.7420  175.8450  141.7060 C   0  0  2  0  0  3  0  0  0  0  0  0
  186.6830  175.6280  142.5850 O   0  0  0  0  0  1  0  0  0  0  0  0
  187.5070  177.1200  140.9080 C   0  0  0  0  0  2  0  0  0  0  0  0
  186.6980  176.8660  139.7990 O   0  0  0  0  0  1  0  0  0  0  0  0
  1  5  1  0  0  0  0
  2  1  2  0  0  0  0
  3  8  1  0  0  0  0
  4  6  2  0  0  0  0
  4  5  1  0  0  0  0
  7  6  1  0  0  0  0
  8  9  2  0  0  0  0
  8  2  1  0  0  0  0
  9  4  1  0  0  0  0
 10  9  1  0  0  0  0
 10  7  2  0  0  0  0
 11 16  1  0  0  0  0
 12 11  1  0  0  0  0
 13 14  1  0  0  0  0
 13 12  1  0  0  0  0
 14 15  1  0  0  0  0
 15  2  1  1  0  0  0
 15 16  1  0  0  0  0
 17 21  1  6  0  0  0
 17 12  1  0  0  0  0
 18 20  1  0  0  0  0
 19 17  1  6  0  0  0
 19 18  1  0  0  0  0
 19 20  1  0  0  0  0
 21 23  1  0  0  0  0
 22 23  1  0  0  0  0
 24 10  1  0  0  0  0
 25 24  1  0  0  0  0
 26 25  1  0  0  0  0
 27 31  1  0  0  0  0
 28 27  2  0  0  0  0
 29 32  1  0  0  0  0
 30 29  2  0  0  0  0
 30 28  1  0  0  0  0
 31 26  1  0  0  0  0
 32 31  2  0  0  0  0
 33 35  1  0  0  0  0
 33 30  1  0  0  0  0
 34 33  2  0  0  0  0
 35 36  1  0  0  0  0
 36 37  1  0  0  0  0
 37 38  1  1  0  0  0
 39 37  1  0  0  0  0
 40 39  1  0  0  0  0
M  END
>  <MODEL>
8

>  <REMARK>
 VINA RESULT:      -6.0      2.905      7.846
  Name = 
  14 active torsions:
  status: ('A' for Active; 'I' for Inactive)
    1  A    between atoms: C_1  and  C_24
    2  A    between atoms: C_1  and  C_35
    3  A    between atoms: O_2  and  C_12
    4  A    between atoms: O_2  and  C_25
    5  A    between atoms: N_7  and  C_32
    6  A    between atoms: C_9  and  C_39
    7  A    between atoms: C_12  and  C_17
    8  A    between atoms: C_13  and  C_15
    9  A    between atoms: C_17  and  C_19
   10  A    between atoms: C_21  and  C_32
   11  A    between atoms: C_23  and  C_24
   12  A    between atoms: C_23  and  C_40
   13  A    between atoms: C_25  and  C_34
   14  A    between atoms: C_32  and  C_39
                            x       y       z     vdW  Elec       q    Type
                         _______ _______ _______ _____ _____    ______ ____

>  <TORSDO>
F 14

$$$$
=
 OpenBabel11042418093D

 40 44  0  0  1  0  0  0  0  0999 V2000
  192.3340  176.5290  146.1040 C   0  0  0  0  0  3  0  0  0  0  0  0
  191.4870  175.5380  145.7450 C   0  0  0  0  0  0  0  0  0  0  0  0
  191.0520  173.0930  145.0110 C   0  0  0  0  0  1  0  0  0  0  0  0
  194.2610  175.0010  145.7820 C   0  0  0  0  0  0  0  0  0  0  0  0
  193.8370  176.3690  146.2100 C   0  0  0  0  0  2  0  0  0  0  0  0
  195.4980  174.5270  145.7160 C   0  0  0  0  0  3  0  0  0  0  0  0
  195.4110  173.1200  145.2810 C   0  0  0  0  0  3  0  0  0  0  0  0
  192.0010  174.1820  145.3920 C   0  0  0  0  0  0  0  0  0  0  0  0
  193.3190  173.9730  145.4180 C   0  0  0  0  0  0  0  0  0  0  0  0
  194.1300  172.8030  145.1030 C   0  0  0  0  0  0  0  0  0  0  0  0
  188.0940  177.1860  146.4480 C   0  0  0  0  0  2  0  0  0  0  0  0
  187.8320  177.6370  145.0750 N   0  0  0  0  0  0  0  0  0  0  0  0
  188.1130  176.4960  144.1930 C   0  0  0  0  0  2  0  0  0  0  0  0
  189.6020  176.1660  144.2220 C   0  0  0  0  0  2  0  0  0  0  0  0
  190.0160  175.8160  145.6520 C   0  0  2  0  0  3  0  0  0  0  0  0
  189.5810  176.9040  146.6340 C   0  0  0  0  0  2  0  0  0  0  0  0
  186.4090  178.0030  144.9550 C   0  0  1  0  0  3  0  0  0  0  0  0
  185.0470  179.0340  143.1630 C   0  0  0  0  0  2  0  0  0  0  0  0
  185.9410  177.9030  143.5020 C   0  0  1  0  0  3  0  0  0  0  0  0
  186.4030  179.0230  142.7850 O   0  0  0  0  0  0  0  0  0  0  0  0
  185.5290  177.0590  145.7820 C   0  0  0  0  0  2  0  0  0  0  0  0
  185.0310  178.6950  147.5160 N   0  0  0  0  0  1  0  0  0  0  0  0
  184.4420  177.8280  146.5100 C   0  0  0  0  0  2  0  0  0  0  0  0
  193.6440  171.4490  144.7010 C   0  0  0  0  0  2  0  0  0  0  0  0
  194.3600  170.9710  143.4450 C   0  0  0  0  0  2  0  0  0  0  0  0
  194.3630  172.0460  142.3680 C   0  0  0  0  0  2  0  0  0  0  0  0
  191.9730  171.4960  141.8590 C   0  0  0  0  0  3  0  0  0  0  0  0
  190.6760  171.8860  141.5140 C   0  0  0  0  0  3  0  0  0  0  0  0
  191.3740  174.2020  141.4990 C   0  0  0  0  0  3  0  0  0  0  0  0
  190.3670  173.2410  141.3330 C   0  0  0  0  0  0  0  0  0  0  0  0
  192.9710  172.4600  142.0260 C   0  0  0  0  0  0  0  0  0  0  0  0
  192.6720  173.8140  141.8430 C   0  0  0  0  0  3  0  0  0  0  0  0
  189.0010  173.6460  140.9620 C   0  0  0  0  0  0  0  0  0  0  0  0
  188.0820  173.6330  141.8270 O   0  0  0  0  0  0  0  0  0  0  0  0
  188.7290  174.0440  139.6490 O   0  0  0  0  0  0  0  0  0  0  0  0
  188.1940  173.1550  138.6750 C   0  0  0  0  0  2  0  0  0  0  0  0
  189.2760  172.7130  137.6990 C   0  0  2  0  0  3  0  0  0  0  0  0
  189.8640  171.5320  138.1490 O   0  0  0  0  0  1  0  0  0  0  0  0
  190.3370  173.7920  137.5280 C   0  0  0  0  0  2  0  0  0  0  0  0
  191.5690  173.3560  138.0220 O   0  0  0  0  0  1  0  0  0  0  0  0
  1  5  1  0  0  0  0
  2  1  2  0  0  0  0
  3  8  1  0  0  0  0
  4  5  1  0  0  0  0
  6  4  2  0  0  0  0
  7  6  1  0  0  0  0
  8  9  2  0  0  0  0
  8  2  1  0  0  0  0
  9  4  1  0  0  0  0
 10  7  2  0  0  0  0
 10  9  1  0  0  0  0
 11 16  1  0  0  0  0
 12 11  1  0  0  0  0
 13 14  1  0  0  0  0
 13 12  1  0  0  0  0
 14 15  1  0  0  0  0
 15  2  1  6  0  0  0
 15 16  1  0  0  0  0
 17 12  1  0  0  0  0
 17 21  1  1  0  0  0
 18 19  1  0  0  0  0
 19 17  1  1  0  0  0
 20 18  1  0  0  0  0
 20 19  1  0  0  0  0
 21 23  1  0  0  0  0
 23 22  1  0  0  0  0
 24 10  1  0  0  0  0
 25 24  1  0  0  0  0
 26 25  1  0  0  0  0
 27 31  1  0  0  0  0
 28 27  2  0  0  0  0
 29 32  1  0  0  0  0
 30 29  2  0  0  0  0
 30 28  1  0  0  0  0
 31 26  1  0  0  0  0
 32 31  2  0  0  0  0
 33 30  1  0  0  0  0
 33 34  2  0  0  0  0
 35 33  1  0  0  0  0
 36 35  1  0  0  0  0
 37 38  1  1  0  0  0
 37 36  1  0  0  0  0
 39 37  1  0  0  0  0
 39 40  1  0  0  0  0
M  END
>  <MODEL>
9

>  <REMARK>
 VINA RESULT:      -6.0      2.891      7.588
  Name = 
  14 active torsions:
  status: ('A' for Active; 'I' for Inactive)
    1  A    between atoms: C_1  and  C_24
    2  A    between atoms: C_1  and  C_35
    3  A    between atoms: O_2  and  C_12
    4  A    between atoms: O_2  and  C_25
    5  A    between atoms: N_7  and  C_32
    6  A    between atoms: C_9  and  C_39
    7  A    between atoms: C_12  and  C_17
    8  A    between atoms: C_13  and  C_15
    9  A    between atoms: C_17  and  C_19
   10  A    between atoms: C_21  and  C_32
   11  A    between atoms: C_23  and  C_24
   12  A    between atoms: C_23  and  C_40
   13  A    between atoms: C_25  and  C_34
   14  A    between atoms: C_32  and  C_39
                            x       y       z     vdW  Elec       q    Type
                         _______ _______ _______ _____ _____    ______ ____

>  <TORSDO>
F 14

$$$$
