=
 OpenBabel11042415543D

 50 53  0  0  1  0  0  0  0  0999 V2000
  191.9390  174.5370  143.6880 C   0  0  0  0  0  3  0  0  0  0  0  0
  193.0350  173.7700  139.6940 C   0  0  0  0  0  0  0  0  0  0  0  0
  191.7010  173.3410  140.2020 C   0  0  0  0  0  0  0  0  0  0  0  0
  193.0980  176.7940  146.5040 C   0  0  0  0  0  3  0  0  0  0  0  0
  194.2130  175.4810  144.2920 C   0  0  0  0  0  0  0  0  0  0  0  0
  194.1260  173.7830  140.5610 O   0  0  0  0  0  0  0  0  0  0  0  0
  195.3670  174.3960  140.2560 C   0  0  0  0  0  2  0  0  0  0  0  0
  192.2220  174.2810  142.4160 C   0  0  0  0  0  3  0  0  0  0  0  0
  191.3430  173.5320  141.4950 C   0  0  0  0  0  0  0  0  0  0  0  0
  196.9250  173.0300  141.4960 C   0  0  0  0  0  2  0  0  0  0  0  0
  196.0780  175.0590  142.6510 C   0  0  2  0  0  3  0  0  0  0  0  0
  194.9930  176.3220  145.0990 C   0  0  0  0  0  3  0  0  0  0  0  0
  190.0110  173.0610  141.9990 C   0  0  0  0  0  1  0  0  0  0  0  0
  194.8100  174.7560  143.2430 O   0  0  0  0  0  0  0  0  0  0  0  0
  192.8260  175.3340  144.5700 C   0  0  0  0  0  0  0  0  0  0  0  0
  196.2850  174.2000  141.4190 C   0  0  0  0  0  0  0  0  0  0  0  0
  193.1840  174.0910  138.4830 O   0  0  0  0  0  0  0  0  0  0  0  0
  194.4420  176.9720  146.1970 C   0  0  0  0  0  3  0  0  0  0  0  0
  192.2720  175.9870  145.7080 C   0  0  0  0  0  0  0  0  0  0  0  0
  188.1490  175.7160  146.8870 C   0  0  0  0  0  3  0  0  0  0  0  0
  189.0880  174.8170  147.3980 C   0  0  0  0  0  3  0  0  0  0  0  0
  189.8870  176.7930  145.5990 C   0  0  0  0  0  3  0  0  0  0  0  0
  190.8390  175.8870  146.0910 C   0  0  0  0  0  0  0  0  0  0  0  0
  188.5440  176.7110  145.9840 C   0  0  0  0  0  0  0  0  0  0  0  0
  190.4250  174.9050  147.0050 C   0  0  0  0  0  3  0  0  0  0  0  0
  187.6120  178.0330  144.1020 O   0  0  0  0  0  0  0  0  0  0  0  0
  186.6660  178.1490  146.1820 O   0  0  0  0  0  1  0  0  0  0  0  0
  187.5620  177.6630  145.4410 C   0  0  0  0  0  0  0  0  0  0  0  0
  189.9400  172.8630  136.9840 C   0  0  0  0  0  2  0  0  0  0  0  0
  190.1990  173.6890  138.2220 C   0  0  0  0  0  2  0  0  0  0  0  0
  190.9590  171.7420  137.0250 C   0  0  2  0  0  3  0  0  0  0  0  0
  190.3990  170.5750  136.5060 O   0  0  0  0  0  1  0  0  0  0  0  0
  191.3210  171.5350  138.4850 C   0  0  0  0  0  2  0  0  0  0  0  0
  190.7180  172.7030  139.2490 C   0  0  1  0  0  3  0  0  0  0  0  0
  197.1580  174.0020  144.5660 C   0  0  0  0  0  0  0  0  0  0  0  0
  197.1720  173.4440  146.8230 O   0  0  0  0  0  1  0  0  0  0  0  0
  197.1990  174.9220  143.6440 C   0  0  0  0  0  3  0  0  0  0  0  0
  197.1120  173.0760  145.4850 C   0  0  0  0  0  0  0  0  0  0  0  0
  196.0040  170.8460  145.7610 N   0  0  0  0  0  2  0  0  0  0  0  0
  197.7620  171.1490  144.2580 O   0  0  0  0  0  0  0  0  0  0  0  0
  196.9940  171.6550  145.1220 C   0  0  0  0  0  0  0  0  0  0  0  0
  195.8060  169.4380  145.4380 C   0  0  1  0  0  3  0  0  0  0  0  0
  197.0810  168.8500  147.5130 C   0  0  0  0  0  1  0  0  0  0  0  0
  194.5970  168.7860  147.5710 C   0  0  0  0  0  1  0  0  0  0  0  0
  195.8290  168.5760  146.7040 C   0  0  0  0  0  3  0  0  0  0  0  0
  194.5040  169.2540  144.6660 C   0  0  0  0  0  2  0  0  0  0  0  0
  194.8020  169.3740  142.8760 S   0  0  0  0  0  0  0  0  0  0  0  0
  192.7120  170.3310  141.5850 O   0  0  0  0  0  1  0  0  0  0  0  0
  192.7140  170.7800  143.9150 C   0  0  0  0  0  1  0  0  0  0  0  0
  193.5420  170.6640  142.6550 C   0  0  1  0  0  3  0  0  0  0  0  0
  1 15  1  0  0  0  0
  2  3  1  0  0  0  0
  2  6  1  0  0  0  0
  3  9  2  0  0  0  0
  5 15  2  0  0  0  0
  5 12  1  0  0  0  0
  7  6  1  0  0  0  0
  7 16  1  0  0  0  0
  8  1  2  0  0  0  0
  9 13  1  0  0  0  0
  9  8  1  0  0  0  0
 11 14  1  0  0  0  0
 11 37  1  1  0  0  0
 12 18  2  0  0  0  0
 14  5  1  0  0  0  0
 15 19  1  0  0  0  0
 16 10  2  0  0  0  0
 16 11  1  0  0  0  0
 17  2  2  0  0  0  0
 18  4  1  0  0  0  0
 19 23  1  0  0  0  0
 19  4  2  0  0  0  0
 20 21  1  0  0  0  0
 22 24  1  0  0  0  0
 22 23  2  0  0  0  0
 23 25  1  0  0  0  0
 24 20  2  0  0  0  0
 25 21  2  0  0  0  0
 26 28  2  0  0  0  0
 28 24  1  0  0  0  0
 28 27  1  0  0  0  0
 29 31  1  0  0  0  0
 29 30  1  0  0  0  0
 30 34  1  0  0  0  0
 31 32  1  1  0  0  0
 31 33  1  0  0  0  0
 33 34  1  0  0  0  0
 34  3  1  6  0  0  0
 35 38  2  0  0  0  0
 37 35  2  0  0  0  0
 38 36  1  0  0  0  0
 40 41  2  0  0  0  0
 41 38  1  0  0  0  0
 41 39  1  0  0  0  0
 42 46  1  1  0  0  0
 42 39  1  0  0  0  0
 42 45  1  0  0  0  0
 45 43  1  0  0  0  0
 45 44  1  0  0  0  0
 47 46  1  0  0  0  0
 48 50  1  0  0  0  0
 50 47  1  0  0  0  0
 50 49  1  1  0  0  0
M  END
>  <MODEL>
1

>  <REMARK>
 VINA RESULT:      -7.7      0.000      0.000
  Name = 
  10 active torsions:
  status: ('A' for Active; 'I' for Inactive)
    1  A    between atoms: N_3  and  C_13
    2  A    between atoms: C_9  and  C_50
    3  A    between atoms: C_13  and  C_27
    4  A    between atoms: C_13  and  C_45
    5  A    between atoms: C_20  and  C_24
    6  A    between atoms: C_27  and  S_39
    7  A    between atoms: C_30  and  C_49
    8  A    between atoms: C_35  and  C_40
    9  A    between atoms: C_36  and  C_37
   10  A    between atoms: S_39  and  C_48
                            x       y       z     vdW  Elec       q    Type
                         _______ _______ _______ _____ _____    ______ ____

>  <TORSDO>
F 10

$$$$
=
 OpenBabel11042415543D

 50 53  0  0  1  0  0  0  0  0999 V2000
  193.1530  172.3220  141.6180 C   0  0  0  0  0  3  0  0  0  0  0  0
  195.7640  175.6130  141.3110 C   0  0  0  0  0  0  0  0  0  0  0  0
  195.8830  174.4700  140.3620 C   0  0  0  0  0  0  0  0  0  0  0  0
  189.8270  171.5570  143.2660 C   0  0  0  0  0  3  0  0  0  0  0  0
  192.0550  173.1940  143.7300 C   0  0  0  0  0  0  0  0  0  0  0  0
  195.3430  175.3760  142.6190 O   0  0  0  0  0  0  0  0  0  0  0  0
  194.9650  176.4010  143.5230 C   0  0  0  0  0  2  0  0  0  0  0  0
  193.9950  173.3370  141.4620 C   0  0  0  0  0  3  0  0  0  0  0  0
  195.0870  173.3780  140.4700 C   0  0  0  0  0  0  0  0  0  0  0  0
  195.5760  175.4470  145.6550 C   0  0  0  0  0  2  0  0  0  0  0  0
  193.2350  175.0800  144.9140 C   0  0  2  0  0  3  0  0  0  0  0  0
  190.9360  173.2450  144.5730 C   0  0  0  0  0  3  0  0  0  0  0  0
  195.2440  172.2200  139.5280 C   0  0  0  0  0  1  0  0  0  0  0  0
  193.2010  173.9530  144.0320 O   0  0  0  0  0  0  0  0  0  0  0  0
  192.0370  172.3370  142.5940 C   0  0  0  0  0  0  0  0  0  0  0  0
  194.5830  175.7650  144.8190 C   0  0  0  0  0  0  0  0  0  0  0  0
  196.0690  176.7810  140.9460 O   0  0  0  0  0  0  0  0  0  0  0  0
  189.8310  172.4330  144.3460 C   0  0  0  0  0  3  0  0  0  0  0  0
  190.9110  171.4940  142.3790 C   0  0  0  0  0  0  0  0  0  0  0  0
  190.5280  168.7540  139.0900 C   0  0  0  0  0  3  0  0  0  0  0  0
  190.7600  168.2750  140.3820 C   0  0  0  0  0  3  0  0  0  0  0  0
  190.5500  171.0200  139.9300 C   0  0  0  0  0  3  0  0  0  0  0  0
  190.8000  170.5550  141.2300 C   0  0  0  0  0  0  0  0  0  0  0  0
  190.4200  170.1300  138.8570 C   0  0  0  0  0  0  0  0  0  0  0  0
  190.8910  169.1710  141.4460 C   0  0  0  0  0  3  0  0  0  0  0  0
  190.6090  169.9260  136.3910 O   0  0  0  0  0  0  0  0  0  0  0  0
  189.5660  171.7340  137.3290 O   0  0  0  0  0  1  0  0  0  0  0  0
  190.1740  170.6430  137.5000 C   0  0  0  0  0  0  0  0  0  0  0  0
  197.9410  173.1620  137.5810 C   0  0  0  0  0  2  0  0  0  0  0  0
  197.6340  173.2330  139.0580 C   0  0  0  0  0  2  0  0  0  0  0  0
  196.8060  173.8960  136.8960 C   0  0  2  0  0  3  0  0  0  0  0  0
  197.2880  174.5760  135.7780 O   0  0  0  0  0  1  0  0  0  0  0  0
  196.2550  174.8880  137.9050 C   0  0  0  0  0  2  0  0  0  0  0  0
  196.8930  174.5420  139.2410 C   0  0  1  0  0  3  0  0  0  0  0  0
  191.8820  175.2540  146.9370 C   0  0  0  0  0  0  0  0  0  0  0  0
  191.0960  176.4920  148.7410 O   0  0  0  0  0  1  0  0  0  0  0  0
  192.8840  174.6890  146.3230 C   0  0  0  0  0  3  0  0  0  0  0  0
  190.8760  175.8210  147.5450 C   0  0  0  0  0  0  0  0  0  0  0  0
  188.8690  176.9720  146.5850 N   0  0  0  0  0  2  0  0  0  0  0  0
  188.9290  174.6540  146.8450 O   0  0  0  0  0  0  0  0  0  0  0  0
  189.5200  175.7620  146.9790 C   0  0  0  0  0  0  0  0  0  0  0  0
  187.5370  176.9950  145.9920 C   0  0  1  0  0  3  0  0  0  0  0  0
  186.5700  178.4620  147.7780 C   0  0  0  0  0  1  0  0  0  0  0  0
  185.0530  176.9520  146.5130 C   0  0  0  0  0  1  0  0  0  0  0  0
  186.4580  177.1260  147.0710 C   0  0  0  0  0  3  0  0  0  0  0  0
  187.4370  178.1230  144.9700 C   0  0  0  0  0  2  0  0  0  0  0  0
  187.2670  177.4480  143.2900 S   0  0  0  0  0  0  0  0  0  0  0  0
  184.9940  178.1280  142.1430 O   0  0  0  0  0  1  0  0  0  0  0  0
  185.5790  179.4560  144.0210 C   0  0  0  0  0  1  0  0  0  0  0  0
  186.0740  178.7240  142.7930 C   0  0  1  0  0  3  0  0  0  0  0  0
  1 15  1  0  0  0  0
  2  6  1  0  0  0  0
  3  9  2  0  0  0  0
  3  2  1  0  0  0  0
  4 18  1  0  0  0  0
  5 14  1  0  0  0  0
  5 12  1  0  0  0  0
  6  7  1  0  0  0  0
  7 16  1  0  0  0  0
  8  1  2  0  0  0  0
  9  8  1  0  0  0  0
 11 37  1  1  0  0  0
 13  9  1  0  0  0  0
 14 11  1  0  0  0  0
 15  5  2  0  0  0  0
 16 11  1  0  0  0  0
 16 10  2  0  0  0  0
 17  2  2  0  0  0  0
 18 12  2  0  0  0  0
 19 15  1  0  0  0  0
 19  4  2  0  0  0  0
 20 21  1  0  0  0  0
 21 25  2  0  0  0  0
 22 23  2  0  0  0  0
 23 25  1  0  0  0  0
 23 19  1  0  0  0  0
 24 20  2  0  0  0  0
 24 22  1  0  0  0  0
 26 28  2  0  0  0  0
 27 28  1  0  0  0  0
 28 24  1  0  0  0  0
 29 30  1  0  0  0  0
 30 34  1  0  0  0  0
 31 32  1  6  0  0  0
 31 29  1  0  0  0  0
 31 33  1  0  0  0  0
 33 34  1  0  0  0  0
 34  3  1  1  0  0  0
 35 38  2  0  0  0  0
 37 35  2  0  0  0  0
 38 36  1  0  0  0  0
 39 41  1  0  0  0  0
 40 41  2  0  0  0  0
 41 38  1  0  0  0  0
 42 46  1  6  0  0  0
 42 39  1  0  0  0  0
 42 45  1  0  0  0  0
 44 45  1  0  0  0  0
 45 43  1  0  0  0  0
 47 46  1  0  0  0  0
 48 50  1  0  0  0  0
 50 47  1  0  0  0  0
 50 49  1  1  0  0  0
M  END
>  <MODEL>
2

>  <REMARK>
 VINA RESULT:      -6.7      3.584      8.050
  Name = 
  10 active torsions:
  status: ('A' for Active; 'I' for Inactive)
    1  A    between atoms: N_3  and  C_13
    2  A    between atoms: C_9  and  C_50
    3  A    between atoms: C_13  and  C_27
    4  A    between atoms: C_13  and  C_45
    5  A    between atoms: C_20  and  C_24
    6  A    between atoms: C_27  and  S_39
    7  A    between atoms: C_30  and  C_49
    8  A    between atoms: C_35  and  C_40
    9  A    between atoms: C_36  and  C_37
   10  A    between atoms: S_39  and  C_48
                            x       y       z     vdW  Elec       q    Type
                         _______ _______ _______ _____ _____    ______ ____

>  <TORSDO>
F 10

$$$$
=
 OpenBabel11042415543D

 50 53  0  0  1  0  0  0  0  0999 V2000
  190.2360  174.8930  141.9920 C   0  0  0  0  0  3  0  0  0  0  0  0
  189.1890  176.0530  145.9040 C   0  0  0  0  0  0  0  0  0  0  0  0
  188.3180  176.4250  144.7520 C   0  0  0  0  0  0  0  0  0  0  0  0
  192.5580  172.3760  140.3680 C   0  0  0  0  0  3  0  0  0  0  0  0
  192.4570  173.9050  142.7160 C   0  0  0  0  0  0  0  0  0  0  0  0
  190.5680  175.9600  145.7180 O   0  0  0  0  0  0  0  0  0  0  0  0
  191.4530  175.3850  146.6650 C   0  0  0  0  0  2  0  0  0  0  0  0
  189.8470  175.2740  143.2030 C   0  0  0  0  0  3  0  0  0  0  0  0
  188.6580  176.1060  143.4800 C   0  0  0  0  0  0  0  0  0  0  0  0
  193.4850  176.6300  146.2780 C   0  0  0  0  0  2  0  0  0  0  0  0
  193.2480  174.4940  145.0340 C   0  0  2  0  0  3  0  0  0  0  0  0
  193.4970  172.9920  142.4950 C   0  0  0  0  0  3  0  0  0  0  0  0
  187.7880  176.5190  142.3280 C   0  0  0  0  0  1  0  0  0  0  0  0
  192.4710  174.7310  143.8540 O   0  0  0  0  0  0  0  0  0  0  0  0
  191.4100  174.0170  141.7580 C   0  0  0  0  0  0  0  0  0  0  0  0
  192.8410  175.4700  146.1190 C   0  0  0  0  0  0  0  0  0  0  0  0
  188.6890  175.8530  147.0440 O   0  0  0  0  0  0  0  0  0  0  0  0
  193.5510  172.2340  141.3300 C   0  0  0  0  0  3  0  0  0  0  0  0
  191.4810  173.2530  140.5590 C   0  0  0  0  0  0  0  0  0  0  0  0
  188.4530  173.4620  137.5170 C   0  0  0  0  0  3  0  0  0  0  0  0
  188.1550  172.9240  138.7710 C   0  0  0  0  0  3  0  0  0  0  0  0
  190.7270  173.8610  138.2320 C   0  0  0  0  0  3  0  0  0  0  0  0
  190.4460  173.3080  139.4910 C   0  0  0  0  0  0  0  0  0  0  0  0
  189.7420  173.9350  137.2400 C   0  0  0  0  0  0  0  0  0  0  0  0
  189.1450  172.8510  139.7540 C   0  0  0  0  0  3  0  0  0  0  0  0
  189.0460  174.8580  135.0450 O   0  0  0  0  0  0  0  0  0  0  0  0
  191.2630  174.6790  135.5780 O   0  0  0  0  0  1  0  0  0  0  0  0
  190.0640  174.5050  135.9230 C   0  0  0  0  0  0  0  0  0  0  0  0
  185.0530  177.0230  146.3850 C   0  0  0  0  0  2  0  0  0  0  0  0
  185.9210  176.2040  145.4580 C   0  0  0  0  0  2  0  0  0  0  0  0
  185.9890  178.0200  147.0390 C   0  0  2  0  0  3  0  0  0  0  0  0
  185.3270  179.2300  147.2390 O   0  0  0  0  0  1  0  0  0  0  0  0
  187.1520  178.2190  146.0840 C   0  0  0  0  0  2  0  0  0  0  0  0
  187.0190  177.1490  145.0120 C   0  0  1  0  0  3  0  0  0  0  0  0
  195.5300  173.6700  145.2860 C   0  0  0  0  0  0  0  0  0  0  0  0
  197.3880  173.2420  146.6170 O   0  0  0  0  0  1  0  0  0  0  0  0
  194.7220  174.5370  144.7430 C   0  0  0  0  0  3  0  0  0  0  0  0
  196.3330  172.7960  145.8310 C   0  0  0  0  0  0  0  0  0  0  0  0
  195.4960  170.8940  144.4320 N   0  0  0  0  0  2  0  0  0  0  0  0
  196.5120  170.5250  146.4990 O   0  0  0  0  0  0  0  0  0  0  0  0
  196.1320  171.3540  145.6260 C   0  0  0  0  0  0  0  0  0  0  0  0
  195.2840  169.4810  144.1430 C   0  0  1  0  0  3  0  0  0  0  0  0
  193.6380  168.1740  145.5070 C   0  0  0  0  0  1  0  0  0  0  0  0
  192.9110  170.3160  144.4760 C   0  0  0  0  0  1  0  0  0  0  0  0
  193.8110  169.0990  144.3190 C   0  0  0  0  0  3  0  0  0  0  0  0
  195.7770  169.1520  142.7380 C   0  0  0  0  0  2  0  0  0  0  0  0
  196.8750  170.4660  142.1240 S   0  0  0  0  0  0  0  0  0  0  0  0
  195.3810  169.3730  140.2470 O   0  0  0  0  0  1  0  0  0  0  0  0
  196.6510  171.2440  139.5240 C   0  0  0  0  0  1  0  0  0  0  0  0
  196.6190  170.0020  140.3870 C   0  0  1  0  0  3  0  0  0  0  0  0
  1  8  2  0  0  0  0
  2 17  2  0  0  0  0
  3  2  1  0  0  0  0
  4 19  2  0  0  0  0
  4 18  1  0  0  0  0
  5 14  1  0  0  0  0
  6  2  1  0  0  0  0
  6  7  1  0  0  0  0
  8  9  1  0  0  0  0
  9  3  2  0  0  0  0
 11 37  1  6  0  0  0
 11 16  1  0  0  0  0
 12  5  1  0  0  0  0
 13  9  1  0  0  0  0
 14 11  1  0  0  0  0
 15  1  1  0  0  0  0
 15  5  2  0  0  0  0
 16 10  2  0  0  0  0
 16  7  1  0  0  0  0
 18 12  2  0  0  0  0
 19 15  1  0  0  0  0
 20 21  1  0  0  0  0
 21 25  2  0  0  0  0
 22 23  2  0  0  0  0
 23 25  1  0  0  0  0
 23 19  1  0  0  0  0
 24 20  2  0  0  0  0
 24 22  1  0  0  0  0
 26 28  2  0  0  0  0
 27 28  1  0  0  0  0
 28 24  1  0  0  0  0
 29 31  1  0  0  0  0
 30 29  1  0  0  0  0
 31 32  1  6  0  0  0
 33 31  1  0  0  0  0
 34  3  1  1  0  0  0
 34 30  1  0  0  0  0
 34 33  1  0  0  0  0
 35 38  2  0  0  0  0
 37 35  2  0  0  0  0
 38 36  1  0  0  0  0
 39 41  1  0  0  0  0
 41 38  1  0  0  0  0
 41 40  2  0  0  0  0
 42 46  1  6  0  0  0
 42 45  1  0  0  0  0
 42 39  1  0  0  0  0
 45 44  1  0  0  0  0
 45 43  1  0  0  0  0
 47 46  1  0  0  0  0
 48 50  1  0  0  0  0
 50 49  1  6  0  0  0
 50 47  1  0  0  0  0
M  END
>  <MODEL>
3

>  <REMARK>
 VINA RESULT:      -6.6      2.048      6.803
  Name = 
  10 active torsions:
  status: ('A' for Active; 'I' for Inactive)
    1  A    between atoms: N_3  and  C_13
    2  A    between atoms: C_9  and  C_50
    3  A    between atoms: C_13  and  C_27
    4  A    between atoms: C_13  and  C_45
    5  A    between atoms: C_20  and  C_24
    6  A    between atoms: C_27  and  S_39
    7  A    between atoms: C_30  and  C_49
    8  A    between atoms: C_35  and  C_40
    9  A    between atoms: C_36  and  C_37
   10  A    between atoms: S_39  and  C_48
                            x       y       z     vdW  Elec       q    Type
                         _______ _______ _______ _____ _____    ______ ____

>  <TORSDO>
F 10

$$$$
=
 OpenBabel11042415543D

 50 53  0  0  1  0  0  0  0  0999 V2000
  191.5280  172.8060  142.6790 C   0  0  0  0  0  3  0  0  0  0  0  0
  189.7290  176.1540  144.4950 C   0  0  0  0  0  0  0  0  0  0  0  0
  189.2310  175.6550  143.1820 C   0  0  0  0  0  0  0  0  0  0  0  0
  193.7900  169.9530  143.7320 C   0  0  0  0  0  3  0  0  0  0  0  0
  193.3360  172.6260  144.4470 C   0  0  0  0  0  0  0  0  0  0  0  0
  191.0840  176.0320  144.8050 O   0  0  0  0  0  0  0  0  0  0  0  0
  191.6160  176.2460  146.1020 C   0  0  0  0  0  2  0  0  0  0  0  0
  190.9110  173.8560  143.2090 C   0  0  0  0  0  3  0  0  0  0  0  0
  189.8240  174.6100  142.5540 C   0  0  0  0  0  0  0  0  0  0  0  0
  193.8390  177.0500  145.6080 C   0  0  0  0  0  2  0  0  0  0  0  0
  193.6100  174.6060  145.9810 C   0  0  2  0  0  3  0  0  0  0  0  0
  194.2570  171.8380  145.1520 C   0  0  0  0  0  3  0  0  0  0  0  0
  189.3320  174.1430  141.2150 C   0  0  0  0  0  1  0  0  0  0  0  0
  193.1890  173.9900  144.7590 O   0  0  0  0  0  0  0  0  0  0  0  0
  192.5840  172.0440  143.3880 C   0  0  0  0  0  0  0  0  0  0  0  0
  193.0940  176.0290  146.0420 C   0  0  0  0  0  0  0  0  0  0  0  0
  188.9410  176.7090  145.3080 O   0  0  0  0  0  0  0  0  0  0  0  0
  194.4850  170.5130  144.7980 C   0  0  0  0  0  3  0  0  0  0  0  0
  192.8370  170.6930  143.0180 C   0  0  0  0  0  0  0  0  0  0  0  0
  190.6870  168.6980  139.8760 C   0  0  0  0  0  3  0  0  0  0  0  0
  190.7000  168.1670  141.1680 C   0  0  0  0  0  3  0  0  0  0  0  0
  192.0800  170.5290  140.6200 C   0  0  0  0  0  3  0  0  0  0  0  0
  192.1150  169.9980  141.9180 C   0  0  0  0  0  0  0  0  0  0  0  0
  191.3770  169.8840  139.5940 C   0  0  0  0  0  0  0  0  0  0  0  0
  191.4070  168.8150  142.1840 C   0  0  0  0  0  3  0  0  0  0  0  0
  190.9640  171.7660  138.0310 O   0  0  0  0  0  1  0  0  0  0  0  0
  191.7270  169.7550  137.2510 O   0  0  0  0  0  0  0  0  0  0  0  0
  191.3680  170.4520  138.2370 C   0  0  0  0  0  0  0  0  0  0  0  0
  185.7550  176.9100  143.0450 C   0  0  0  0  0  2  0  0  0  0  0  0
  186.7260  175.7540  143.0970 C   0  0  0  0  0  2  0  0  0  0  0  0
  186.5960  178.1550  143.2460 C   0  0  2  0  0  3  0  0  0  0  0  0
  186.0800  179.2020  142.4840 O   0  0  0  0  0  1  0  0  0  0  0  0
  187.9980  177.8140  142.7730 C   0  0  0  0  0  2  0  0  0  0  0  0
  188.0260  176.3100  142.5520 C   0  0  1  0  0  3  0  0  0  0  0  0
  195.8830  174.3810  145.1220 C   0  0  0  0  0  0  0  0  0  0  0  0
  197.5100  173.1440  144.0140 O   0  0  0  0  0  1  0  0  0  0  0  0
  195.1010  174.5250  146.1560 C   0  0  0  0  0  3  0  0  0  0  0  0
  196.6590  174.2400  144.0820 C   0  0  0  0  0  0  0  0  0  0  0  0
  196.6210  174.7610  141.6320 N   0  0  0  0  0  2  0  0  0  0  0  0
  196.6450  176.4580  143.2330 O   0  0  0  0  0  0  0  0  0  0  0  0
  196.6400  175.2200  142.9850 C   0  0  0  0  0  0  0  0  0  0  0  0
  196.5760  175.6670  140.4910 C   0  0  1  0  0  3  0  0  0  0  0  0
  197.9410  173.7600  139.6110 C   0  0  0  0  0  1  0  0  0  0  0  0
  196.8960  175.3340  137.9950 C   0  0  0  0  0  1  0  0  0  0  0  0
  197.5170  175.1970  139.3770 C   0  0  0  0  0  3  0  0  0  0  0  0
  195.1430  175.8020  139.9850 C   0  0  0  0  0  2  0  0  0  0  0  0
  194.0370  174.6830  140.8970 S   0  0  0  0  0  0  0  0  0  0  0  0
  193.4210  174.8060  138.3370 O   0  0  0  0  0  1  0  0  0  0  0  0
  194.3650  172.7380  139.0190 C   0  0  0  0  0  1  0  0  0  0  0  0
  193.4410  173.8800  139.3800 C   0  0  1  0  0  3  0  0  0  0  0  0
  1  8  2  0  0  0  0
  1 15  1  0  0  0  0
  2  6  1  0  0  0  0
  2 17  2  0  0  0  0
  3  2  1  0  0  0  0
  4 18  1  0  0  0  0
  5 14  1  0  0  0  0
  5 12  1  0  0  0  0
  6  7  1  0  0  0  0
  9  3  2  0  0  0  0
  9  8  1  0  0  0  0
 10 16  2  0  0  0  0
 11 16  1  0  0  0  0
 11 37  1  6  0  0  0
 13  9  1  0  0  0  0
 14 11  1  0  0  0  0
 15  5  2  0  0  0  0
 16  7  1  0  0  0  0
 18 12  2  0  0  0  0
 19 15  1  0  0  0  0
 19  4  2  0  0  0  0
 20 21  1  0  0  0  0
 21 25  2  0  0  0  0
 22 23  2  0  0  0  0
 23 25  1  0  0  0  0
 23 19  1  0  0  0  0
 24 20  2  0  0  0  0
 24 22  1  0  0  0  0
 26 28  1  0  0  0  0
 27 28  2  0  0  0  0
 28 24  1  0  0  0  0
 29 30  1  0  0  0  0
 29 31  1  0  0  0  0
 31 32  1  6  0  0  0
 33 31  1  0  0  0  0
 34 33  1  0  0  0  0
 34 30  1  0  0  0  0
 34  3  1  1  0  0  0
 35 37  2  0  0  0  0
 36 38  1  0  0  0  0
 38 35  2  0  0  0  0
 39 41  1  0  0  0  0
 41 40  2  0  0  0  0
 41 38  1  0  0  0  0
 42 46  1  6  0  0  0
 42 39  1  0  0  0  0
 44 45  1  0  0  0  0
 45 43  1  0  0  0  0
 45 42  1  0  0  0  0
 46 47  1  0  0  0  0
 48 50  1  0  0  0  0
 50 49  1  6  0  0  0
 50 47  1  0  0  0  0
M  END
>  <MODEL>
4

>  <REMARK>
 VINA RESULT:      -6.5      2.380      7.032
  Name = 
  10 active torsions:
  status: ('A' for Active; 'I' for Inactive)
    1  A    between atoms: N_3  and  C_13
    2  A    between atoms: C_9  and  C_50
    3  A    between atoms: C_13  and  C_27
    4  A    between atoms: C_13  and  C_45
    5  A    between atoms: C_20  and  C_24
    6  A    between atoms: C_27  and  S_39
    7  A    between atoms: C_30  and  C_49
    8  A    between atoms: C_35  and  C_40
    9  A    between atoms: C_36  and  C_37
   10  A    between atoms: S_39  and  C_48
                            x       y       z     vdW  Elec       q    Type
                         _______ _______ _______ _____ _____    ______ ____

>  <TORSDO>
F 10

$$$$
=
 OpenBabel11042415543D

 50 53  0  0  1  0  0  0  0  0999 V2000
  190.8000  175.3340  143.0990 C   0  0  0  0  0  3  0  0  0  0  0  0
  187.4100  176.0980  140.7180 C   0  0  0  0  0  0  0  0  0  0  0  0
  187.4180  176.4830  142.1580 C   0  0  0  0  0  0  0  0  0  0  0  0
  194.4590  174.5160  142.5450 C   0  0  0  0  0  3  0  0  0  0  0  0
  192.0090  174.0910  141.2490 C   0  0  0  0  0  0  0  0  0  0  0  0
  188.1170  174.9690  140.3070 O   0  0  0  0  0  0  0  0  0  0  0  0
  188.3770  174.6540  138.9500 C   0  0  0  0  0  2  0  0  0  0  0  0
  189.7090  175.6140  142.3960 C   0  0  0  0  0  3  0  0  0  0  0  0
  188.4770  176.2040  142.9570 C   0  0  0  0  0  0  0  0  0  0  0  0
  188.4500  172.2400  138.9950 C   0  0  0  0  0  2  0  0  0  0  0  0
  190.6230  173.4120  139.2580 C   0  0  2  0  0  3  0  0  0  0  0  0
  193.2140  173.6750  140.6660 C   0  0  0  0  0  3  0  0  0  0  0  0
  188.4530  176.5660  144.4130 C   0  0  0  0  0  1  0  0  0  0  0  0
  190.7820  173.7860  140.6310 O   0  0  0  0  0  0  0  0  0  0  0  0
  192.0360  174.7850  142.4910 C   0  0  0  0  0  0  0  0  0  0  0  0
  189.1490  173.3750  138.9050 C   0  0  0  0  0  0  0  0  0  0  0  0
  186.7480  176.7700  139.8810 O   0  0  0  0  0  0  0  0  0  0  0  0
  194.4300  173.8830  141.3080 C   0  0  0  0  0  3  0  0  0  0  0  0
  193.2830  174.9770  143.1520 C   0  0  0  0  0  0  0  0  0  0  0  0
  193.6660  177.0670  146.8880 C   0  0  0  0  0  3  0  0  0  0  0  0
  194.6740  177.1560  145.9250 C   0  0  0  0  0  3  0  0  0  0  0  0
  192.4050  175.6110  145.4280 C   0  0  0  0  0  3  0  0  0  0  0  0
  193.4160  175.6780  144.4580 C   0  0  0  0  0  0  0  0  0  0  0  0
  192.5240  176.2940  146.6440 C   0  0  0  0  0  0  0  0  0  0  0  0
  194.5480  176.4680  144.7150 C   0  0  0  0  0  3  0  0  0  0  0  0
  191.3370  177.1660  148.6410 O   0  0  0  0  0  1  0  0  0  0  0  0
  190.6420  175.2350  147.6290 O   0  0  0  0  0  0  0  0  0  0  0  0
  191.4570  176.1960  147.6520 C   0  0  0  0  0  0  0  0  0  0  0  0
  185.2730  177.8660  144.8360 C   0  0  0  0  0  2  0  0  0  0  0  0
  185.8220  176.6760  144.0850 C   0  0  0  0  0  2  0  0  0  0  0  0
  186.0400  179.0640  144.3120 C   0  0  2  0  0  3  0  0  0  0  0  0
  185.2040  180.1780  144.2660 O   0  0  0  0  0  1  0  0  0  0  0  0
  186.5020  178.7070  142.9100 C   0  0  0  0  0  2  0  0  0  0  0  0
  186.2320  177.2210  142.7320 C   0  0  1  0  0  3  0  0  0  0  0  0
  191.7160  171.8470  137.7390 C   0  0  0  0  0  0  0  0  0  0  0  0
  191.6390  170.4410  135.8890 O   0  0  0  0  0  1  0  0  0  0  0  0
  191.3220  172.1170  138.9530 C   0  0  0  0  0  3  0  0  0  0  0  0
  192.1100  171.5840  136.5230 C   0  0  0  0  0  0  0  0  0  0  0  0
  193.9070  173.3280  136.5730 N   0  0  0  0  0  2  0  0  0  0  0  0
  193.0660  172.5100  134.5560 O   0  0  0  0  0  0  0  0  0  0  0  0
  193.0380  172.4810  135.8180 C   0  0  0  0  0  0  0  0  0  0  0  0
  194.8730  174.2260  135.9490 C   0  0  1  0  0  3  0  0  0  0  0  0
  195.2350  176.6220  135.3150 C   0  0  0  0  0  1  0  0  0  0  0  0
  193.0860  175.9740  136.3840 C   0  0  0  0  0  1  0  0  0  0  0  0
  194.5770  175.6850  136.3090 C   0  0  0  0  0  3  0  0  0  0  0  0
  196.2910  173.8320  136.3510 C   0  0  0  0  0  2  0  0  0  0  0  0
  196.3120  173.1700  138.0450 S   0  0  0  0  0  0  0  0  0  0  0  0
  197.8370  175.3150  137.8870 O   0  0  0  0  0  1  0  0  0  0  0  0
  197.9410  174.1890  139.9740 C   0  0  0  0  0  1  0  0  0  0  0  0
  197.8440  174.0480  138.4710 C   0  0  1  0  0  3  0  0  0  0  0  0
  2  3  1  0  0  0  0
  3  9  2  0  0  0  0
  4 19  1  0  0  0  0
  5 15  1  0  0  0  0
  6  2  1  0  0  0  0
  7  6  1  0  0  0  0
  8  9  1  0  0  0  0
  8  1  2  0  0  0  0
  9 13  1  0  0  0  0
 11 37  1  1  0  0  0
 11 14  1  0  0  0  0
 12  5  2  0  0  0  0
 12 18  1  0  0  0  0
 14  5  1  0  0  0  0
 15  1  1  0  0  0  0
 15 19  2  0  0  0  0
 16  7  1  0  0  0  0
 16 10  2  0  0  0  0
 16 11  1  0  0  0  0
 17  2  2  0  0  0  0
 18  4  2  0  0  0  0
 19 23  1  0  0  0  0
 21 20  2  0  0  0  0
 22 24  2  0  0  0  0
 23 25  2  0  0  0  0
 23 22  1  0  0  0  0
 24 20  1  0  0  0  0
 24 28  1  0  0  0  0
 25 21  1  0  0  0  0
 27 28  2  0  0  0  0
 28 26  1  0  0  0  0
 30 29  1  0  0  0  0
 31 32  1  6  0  0  0
 31 29  1  0  0  0  0
 33 31  1  0  0  0  0
 34  3  1  1  0  0  0
 34 33  1  0  0  0  0
 34 30  1  0  0  0  0
 35 37  2  0  0  0  0
 36 38  1  0  0  0  0
 38 35  2  0  0  0  0
 40 41  2  0  0  0  0
 41 38  1  0  0  0  0
 41 39  1  0  0  0  0
 42 45  1  0  0  0  0
 42 46  1  1  0  0  0
 42 39  1  0  0  0  0
 43 45  1  0  0  0  0
 45 44  1  0  0  0  0
 46 47  1  0  0  0  0
 47 50  1  0  0  0  0
 48 50  1  0  0  0  0
 50 49  1  1  0  0  0
M  END
>  <MODEL>
5

>  <REMARK>
 VINA RESULT:      -6.4      3.800      7.890
  Name = 
  10 active torsions:
  status: ('A' for Active; 'I' for Inactive)
    1  A    between atoms: N_3  and  C_13
    2  A    between atoms: C_9  and  C_50
    3  A    between atoms: C_13  and  C_27
    4  A    between atoms: C_13  and  C_45
    5  A    between atoms: C_20  and  C_24
    6  A    between atoms: C_27  and  S_39
    7  A    between atoms: C_30  and  C_49
    8  A    between atoms: C_35  and  C_40
    9  A    between atoms: C_36  and  C_37
   10  A    between atoms: S_39  and  C_48
                            x       y       z     vdW  Elec       q    Type
                         _______ _______ _______ _____ _____    ______ ____

>  <TORSDO>
F 10

$$$$
=
 OpenBabel11042415543D

 50 53  0  0  1  0  0  0  0  0999 V2000
  190.0870  174.9290  142.3150 C   0  0  0  0  0  3  0  0  0  0  0  0
  192.0940  172.9850  139.1630 C   0  0  0  0  0  0  0  0  0  0  0  0
  190.7080  172.5800  139.5330 C   0  0  0  0  0  0  0  0  0  0  0  0
  190.4480  178.1550  144.2700 C   0  0  0  0  0  3  0  0  0  0  0  0
  192.1080  176.3240  142.9470 C   0  0  0  0  0  0  0  0  0  0  0  0
  192.9600  173.4460  140.1540 O   0  0  0  0  0  0  0  0  0  0  0  0
  194.2000  174.0790  139.8840 C   0  0  0  0  0  2  0  0  0  0  0  0
  190.6620  174.2890  141.3040 C   0  0  0  0  0  3  0  0  0  0  0  0
  190.0590  173.1560  140.5740 C   0  0  0  0  0  0  0  0  0  0  0  0
  195.5180  173.4520  141.8080 C   0  0  0  0  0  2  0  0  0  0  0  0
  194.3140  175.6180  141.9560 C   0  0  2  0  0  3  0  0  0  0  0  0
  192.6350  177.4900  143.5190 C   0  0  0  0  0  3  0  0  0  0  0  0
  188.6780  172.7110  140.9560 C   0  0  0  0  0  1  0  0  0  0  0  0
  192.9660  175.3700  142.3690 O   0  0  0  0  0  0  0  0  0  0  0  0
  190.7040  176.0940  142.9930 C   0  0  0  0  0  0  0  0  0  0  0  0
  194.8430  174.4240  141.1880 C   0  0  0  0  0  0  0  0  0  0  0  0
  192.4920  172.8850  137.9710 O   0  0  0  0  0  0  0  0  0  0  0  0
  191.8140  178.3980  144.1780 C   0  0  0  0  0  3  0  0  0  0  0  0
  189.8720  177.0180  143.6860 C   0  0  0  0  0  0  0  0  0  0  0  0
  185.6180  176.4960  144.0090 C   0  0  0  0  0  3  0  0  0  0  0  0
  186.2590  176.3100  142.7810 C   0  0  0  0  0  3  0  0  0  0  0  0
  187.7420  177.0290  145.0330 C   0  0  0  0  0  3  0  0  0  0  0  0
  188.3970  176.8630  143.8030 C   0  0  0  0  0  0  0  0  0  0  0  0
  186.3570  176.8560  145.1430 C   0  0  0  0  0  0  0  0  0  0  0  0
  187.6410  176.4890  142.6810 C   0  0  0  0  0  3  0  0  0  0  0  0
  184.3860  177.5290  146.4910 O   0  0  0  0  0  0  0  0  0  0  0  0
  186.2930  176.7870  147.5140 O   0  0  0  0  0  1  0  0  0  0  0  0
  185.6900  177.0510  146.4400 C   0  0  0  0  0  0  0  0  0  0  0  0
  189.7290  170.7970  136.4440 C   0  0  0  0  0  2  0  0  0  0  0  0
  189.6540  172.0210  137.3260 C   0  0  0  0  0  2  0  0  0  0  0  0
  190.7900  169.9130  137.0680 C   0  0  2  0  0  3  0  0  0  0  0  0
  190.4400  168.5730  136.9120 O   0  0  0  0  0  1  0  0  0  0  0  0
  190.8390  170.2660  138.5430 C   0  0  0  0  0  2  0  0  0  0  0  0
  190.0040  171.5250  138.7150 C   0  0  1  0  0  3  0  0  0  0  0  0
  195.2250  175.2380  144.1880 C   0  0  0  0  0  0  0  0  0  0  0  0
  194.9230  175.0280  146.4830 O   0  0  0  0  0  1  0  0  0  0  0  0
  195.1900  175.9880  143.1210 C   0  0  0  0  0  3  0  0  0  0  0  0
  195.2570  174.4810  145.2510 C   0  0  0  0  0  0  0  0  0  0  0  0
  194.6200  172.0600  145.1880 N   0  0  0  0  0  2  0  0  0  0  0  0
  196.8510  172.7310  145.0590 O   0  0  0  0  0  0  0  0  0  0  0  0
  195.6370  173.0640  145.1590 C   0  0  0  0  0  0  0  0  0  0  0  0
  194.9130  170.6350  145.0760 C   0  0  1  0  0  3  0  0  0  0  0  0
  194.2540  168.6690  146.4810 C   0  0  0  0  0  1  0  0  0  0  0  0
  196.4480  169.7620  146.8980 C   0  0  0  0  0  1  0  0  0  0  0  0
  195.0090  169.9840  146.4590 C   0  0  0  0  0  3  0  0  0  0  0  0
  193.8590  169.9500  144.2120 C   0  0  0  0  0  2  0  0  0  0  0  0
  192.4690  171.0760  143.8890 S   0  0  0  0  0  0  0  0  0  0  0  0
  193.3100  169.6220  141.8580 O   0  0  0  0  0  1  0  0  0  0  0  0
  190.9490  169.8050  142.0210 C   0  0  0  0  0  1  0  0  0  0  0  0
  192.2800  170.5080  142.1740 C   0  0  1  0  0  3  0  0  0  0  0  0
  1 15  1  0  0  0  0
  2  3  1  0  0  0  0
  2  6  1  0  0  0  0
  3  9  2  0  0  0  0
  5 15  2  0  0  0  0
  5 12  1  0  0  0  0
  7  6  1  0  0  0  0
  7 16  1  0  0  0  0
  8  1  2  0  0  0  0
  9 13  1  0  0  0  0
  9  8  1  0  0  0  0
 11 14  1  0  0  0  0
 11 37  1  1  0  0  0
 12 18  2  0  0  0  0
 14  5  1  0  0  0  0
 15 19  1  0  0  0  0
 16 10  2  0  0  0  0
 16 11  1  0  0  0  0
 17  2  2  0  0  0  0
 18  4  1  0  0  0  0
 19 23  1  0  0  0  0
 19  4  2  0  0  0  0
 20 24  1  0  0  0  0
 21 20  2  0  0  0  0
 22 24  2  0  0  0  0
 23 22  1  0  0  0  0
 24 28  1  0  0  0  0
 25 21  1  0  0  0  0
 25 23  2  0  0  0  0
 28 26  2  0  0  0  0
 28 27  1  0  0  0  0
 29 31  1  0  0  0  0
 29 30  1  0  0  0  0
 30 34  1  0  0  0  0
 31 32  1  1  0  0  0
 31 33  1  0  0  0  0
 33 34  1  0  0  0  0
 34  3  1  6  0  0  0
 35 38  2  0  0  0  0
 37 35  2  0  0  0  0
 38 36  1  0  0  0  0
 40 41  2  0  0  0  0
 41 39  1  0  0  0  0
 41 38  1  0  0  0  0
 42 46  1  6  0  0  0
 42 39  1  0  0  0  0
 42 45  1  0  0  0  0
 45 43  1  0  0  0  0
 45 44  1  0  0  0  0
 47 46  1  0  0  0  0
 48 50  1  0  0  0  0
 50 49  1  1  0  0  0
 50 47  1  0  0  0  0
M  END
>  <MODEL>
6

>  <REMARK>
 VINA RESULT:      -6.4      1.926      2.520
  Name = 
  10 active torsions:
  status: ('A' for Active; 'I' for Inactive)
    1  A    between atoms: N_3  and  C_13
    2  A    between atoms: C_9  and  C_50
    3  A    between atoms: C_13  and  C_27
    4  A    between atoms: C_13  and  C_45
    5  A    between atoms: C_20  and  C_24
    6  A    between atoms: C_27  and  S_39
    7  A    between atoms: C_30  and  C_49
    8  A    between atoms: C_35  and  C_40
    9  A    between atoms: C_36  and  C_37
   10  A    between atoms: S_39  and  C_48
                            x       y       z     vdW  Elec       q    Type
                         _______ _______ _______ _____ _____    ______ ____

>  <TORSDO>
F 10

$$$$
=
 OpenBabel11042415543D

 50 53  0  0  1  0  0  0  0  0999 V2000
  192.5190  173.5740  140.6950 C   0  0  0  0  0  3  0  0  0  0  0  0
  196.0650  175.6960  141.5100 C   0  0  0  0  0  0  0  0  0  0  0  0
  195.9500  174.8760  140.2720 C   0  0  0  0  0  0  0  0  0  0  0  0
  188.9180  173.6220  141.8740 C   0  0  0  0  0  3  0  0  0  0  0  0
  191.4580  174.1900  142.9140 C   0  0  0  0  0  0  0  0  0  0  0  0
  195.4000  175.2890  142.6660 O   0  0  0  0  0  0  0  0  0  0  0  0
  195.2420  176.1060  143.8140 C   0  0  0  0  0  2  0  0  0  0  0  0
  193.6560  174.2320  140.8900 C   0  0  0  0  0  3  0  0  0  0  0  0
  194.8390  174.1450  140.0100 C   0  0  0  0  0  0  0  0  0  0  0  0
  195.1880  174.4760  145.5940 C   0  0  0  0  0  2  0  0  0  0  0  0
  192.9910  175.1610  144.6620 C   0  0  2  0  0  3  0  0  0  0  0  0
  190.3030  174.4080  143.6770 C   0  0  0  0  0  3  0  0  0  0  0  0
  194.7530  173.2960  138.7760 C   0  0  0  0  0  1  0  0  0  0  0  0
  192.7290  174.3910  143.4830 O   0  0  0  0  0  0  0  0  0  0  0  0
  191.3350  173.7240  141.5750 C   0  0  0  0  0  0  0  0  0  0  0  0
  194.4870  175.3290  144.8420 C   0  0  0  0  0  0  0  0  0  0  0  0
  196.7810  176.7350  141.5240 O   0  0  0  0  0  0  0  0  0  0  0  0
  189.0420  174.1250  143.1640 C   0  0  0  0  0  3  0  0  0  0  0  0
  190.0430  173.4180  141.0630 C   0  0  0  0  0  0  0  0  0  0  0  0
  189.3060  171.9230  137.1010 C   0  0  0  0  0  3  0  0  0  0  0  0
  189.6560  171.0460  138.1310 C   0  0  0  0  0  3  0  0  0  0  0  0
  189.4390  173.7800  138.6430 C   0  0  0  0  0  3  0  0  0  0  0  0
  189.8080  172.9130  139.6830 C   0  0  0  0  0  0  0  0  0  0  0  0
  189.1940  173.2960  137.3520 C   0  0  0  0  0  0  0  0  0  0  0  0
  189.9020  171.5380  139.4150 C   0  0  0  0  0  3  0  0  0  0  0  0
  187.9450  175.2740  136.5250 O   0  0  0  0  0  1  0  0  0  0  0  0
  189.3010  174.0860  135.1160 O   0  0  0  0  0  0  0  0  0  0  0  0
  188.8240  174.2270  136.2740 C   0  0  0  0  0  0  0  0  0  0  0  0
  197.9410  173.6270  137.4150 C   0  0  0  0  0  2  0  0  0  0  0  0
  197.4660  173.4790  138.8410 C   0  0  0  0  0  2  0  0  0  0  0  0
  197.1470  174.7840  136.8430 C   0  0  2  0  0  3  0  0  0  0  0  0
  197.9400  175.5080  135.9540 O   0  0  0  0  0  1  0  0  0  0  0  0
  196.7500  175.6630  138.0150 C   0  0  0  0  0  2  0  0  0  0  0  0
  197.0840  174.8800  139.2750 C   0  0  1  0  0  3  0  0  0  0  0  0
  191.7370  175.3280  146.7480 C   0  0  0  0  0  0  0  0  0  0  0  0
  191.5590  176.0690  148.9440 O   0  0  0  0  0  1  0  0  0  0  0  0
  192.3280  174.5640  145.8710 C   0  0  0  0  0  3  0  0  0  0  0  0
  191.1440  176.0980  147.6190 C   0  0  0  0  0  0  0  0  0  0  0  0
  189.0580  176.5270  146.3000 N   0  0  0  0  0  2  0  0  0  0  0  0
  189.9880  178.1720  147.6680 O   0  0  0  0  0  0  0  0  0  0  0  0
  190.0510  176.9960  147.2150 C   0  0  0  0  0  0  0  0  0  0  0  0
  187.9300  177.3460  145.8710 C   0  0  1  0  0  3  0  0  0  0  0  0
  186.1620  176.4130  144.3600 C   0  0  0  0  0  1  0  0  0  0  0  0
  187.5990  178.2630  143.5290 C   0  0  0  0  0  1  0  0  0  0  0  0
  187.5440  177.0330  144.4220 C   0  0  0  0  0  3  0  0  0  0  0  0
  186.7480  177.1450  146.8150 C   0  0  0  0  0  2  0  0  0  0  0  0
  186.3320  178.7030  147.6560 S   0  0  0  0  0  0  0  0  0  0  0  0
  184.6410  179.3330  145.7340 O   0  0  0  0  0  1  0  0  0  0  0  0
  184.1350  177.3050  146.8590 C   0  0  0  0  0  1  0  0  0  0  0  0
  184.6420  178.7240  146.9890 C   0  0  1  0  0  3  0  0  0  0  0  0
  1  8  2  0  0  0  0
  1 15  1  0  0  0  0
  2 17  2  0  0  0  0
  2  6  1  0  0  0  0
  3  2  1  0  0  0  0
  4 18  1  0  0  0  0
  5 14  1  0  0  0  0
  5 12  1  0  0  0  0
  6  7  1  0  0  0  0
  7 16  1  0  0  0  0
  9  3  2  0  0  0  0
  9  8  1  0  0  0  0
 11 16  1  0  0  0  0
 11 37  1  1  0  0  0
 13  9  1  0  0  0  0
 14 11  1  0  0  0  0
 15  5  2  0  0  0  0
 16 10  2  0  0  0  0
 18 12  2  0  0  0  0
 19 15  1  0  0  0  0
 19  4  2  0  0  0  0
 20 24  2  0  0  0  0
 20 21  1  0  0  0  0
 21 25  2  0  0  0  0
 22 23  2  0  0  0  0
 23 19  1  0  0  0  0
 24 22  1  0  0  0  0
 25 23  1  0  0  0  0
 27 28  2  0  0  0  0
 28 26  1  0  0  0  0
 28 24  1  0  0  0  0
 29 30  1  0  0  0  0
 30 34  1  0  0  0  0
 31 32  1  6  0  0  0
 31 29  1  0  0  0  0
 31 33  1  0  0  0  0
 33 34  1  0  0  0  0
 34  3  1  1  0  0  0
 35 38  2  0  0  0  0
 37 35  2  0  0  0  0
 38 36  1  0  0  0  0
 39 41  1  0  0  0  0
 41 38  1  0  0  0  0
 41 40  2  0  0  0  0
 42 39  1  0  0  0  0
 42 46  1  1  0  0  0
 43 45  1  0  0  0  0
 44 45  1  0  0  0  0
 45 42  1  0  0  0  0
 46 47  1  0  0  0  0
 48 50  1  0  0  0  0
 50 49  1  6  0  0  0
 50 47  1  0  0  0  0
M  END
>  <MODEL>
7

>  <REMARK>
 VINA RESULT:      -6.1      3.668      8.155
  Name = 
  10 active torsions:
  status: ('A' for Active; 'I' for Inactive)
    1  A    between atoms: N_3  and  C_13
    2  A    between atoms: C_9  and  C_50
    3  A    between atoms: C_13  and  C_27
    4  A    between atoms: C_13  and  C_45
    5  A    between atoms: C_20  and  C_24
    6  A    between atoms: C_27  and  S_39
    7  A    between atoms: C_30  and  C_49
    8  A    between atoms: C_35  and  C_40
    9  A    between atoms: C_36  and  C_37
   10  A    between atoms: S_39  and  C_48
                            x       y       z     vdW  Elec       q    Type
                         _______ _______ _______ _____ _____    ______ ____

>  <TORSDO>
F 10

$$$$
=
 OpenBabel11042415543D

 50 53  0  0  1  0  0  0  0  0999 V2000
  193.2950  173.9770  141.4430 C   0  0  0  0  0  3  0  0  0  0  0  0
  194.0460  173.6180  137.3140 C   0  0  0  0  0  0  0  0  0  0  0  0
  194.8640  174.5430  138.1480 C   0  0  0  0  0  0  0  0  0  0  0  0
  191.4710  172.0060  144.1180 C   0  0  0  0  0  3  0  0  0  0  0  0
  191.2610  172.4650  141.3600 C   0  0  0  0  0  0  0  0  0  0  0  0
  192.7070  173.4040  137.6410 O   0  0  0  0  0  0  0  0  0  0  0  0
  191.9140  172.3740  137.0750 C   0  0  0  0  0  2  0  0  0  0  0  0
  193.5880  173.8960  140.1500 C   0  0  0  0  0  3  0  0  0  0  0  0
  194.6110  174.7130  139.4690 C   0  0  0  0  0  0  0  0  0  0  0  0
  189.7070  173.3540  137.1210 C   0  0  0  0  0  2  0  0  0  0  0  0
  190.3310  171.9550  139.0750 C   0  0  2  0  0  3  0  0  0  0  0  0
  190.3960  171.5740  142.0100 C   0  0  0  0  0  3  0  0  0  0  0  0
  195.4210  175.6760  140.2860 C   0  0  0  0  0  1  0  0  0  0  0  0
  191.0810  172.7550  139.9950 O   0  0  0  0  0  0  0  0  0  0  0  0
  192.2920  173.1050  142.1020 C   0  0  0  0  0  0  0  0  0  0  0  0
  190.5430  172.4630  137.6630 C   0  0  0  0  0  0  0  0  0  0  0  0
  194.5490  173.0550  136.3040 O   0  0  0  0  0  0  0  0  0  0  0  0
  190.4970  171.3460  143.3780 C   0  0  0  0  0  3  0  0  0  0  0  0
  192.3780  172.8830  143.5060 C   0  0  0  0  0  0  0  0  0  0  0  0
  195.4030  174.7170  145.9480 C   0  0  0  0  0  3  0  0  0  0  0  0
  195.6750  173.5300  145.2620 C   0  0  0  0  0  3  0  0  0  0  0  0
  193.1570  174.7130  145.0530 C   0  0  0  0  0  3  0  0  0  0  0  0
  193.4110  173.5130  144.3720 C   0  0  0  0  0  0  0  0  0  0  0  0
  194.1410  175.3160  145.8460 C   0  0  0  0  0  0  0  0  0  0  0  0
  194.6860  172.9340  144.4760 C   0  0  0  0  0  3  0  0  0  0  0  0
  192.7000  176.6710  147.3450 O   0  0  0  0  0  1  0  0  0  0  0  0
  194.6270  177.5510  146.4800 O   0  0  0  0  0  0  0  0  0  0  0  0
  193.8460  176.5660  146.5640 C   0  0  0  0  0  0  0  0  0  0  0  0
  197.8900  174.9340  136.0560 C   0  0  0  0  0  2  0  0  0  0  0  0
  197.2200  174.3930  137.2970 C   0  0  0  0  0  2  0  0  0  0  0  0
  196.7710  175.5070  135.2100 C   0  0  2  0  0  3  0  0  0  0  0  0
  197.2210  176.6410  134.5360 O   0  0  0  0  0  1  0  0  0  0  0  0
  195.6510  175.8820  136.1630 C   0  0  0  0  0  2  0  0  0  0  0  0
  196.0160  175.2860  137.5140 C   0  0  1  0  0  3  0  0  0  0  0  0
  188.3680  172.7690  140.2730 C   0  0  0  0  0  0  0  0  0  0  0  0
  187.2640  173.2230  142.2680 O   0  0  0  0  0  1  0  0  0  0  0  0
  188.8780  171.8920  139.4530 C   0  0  0  0  0  3  0  0  0  0  0  0
  187.8640  173.6520  141.0910 C   0  0  0  0  0  0  0  0  0  0  0  0
  187.9600  176.0350  141.8560 N   0  0  0  0  0  2  0  0  0  0  0  0
  187.9500  175.4890  139.5880 O   0  0  0  0  0  0  0  0  0  0  0  0
  187.9280  175.0900  140.7850 C   0  0  0  0  0  0  0  0  0  0  0  0
  188.0500  177.4750  141.6370 C   0  0  1  0  0  3  0  0  0  0  0  0
  185.5460  177.5510  141.5890 C   0  0  0  0  0  1  0  0  0  0  0  0
  186.7270  178.2020  143.6770 C   0  0  0  0  0  1  0  0  0  0  0  0
  186.7980  178.1880  142.1580 C   0  0  0  0  0  3  0  0  0  0  0  0
  189.3140  178.0270  142.2880 C   0  0  0  0  0  2  0  0  0  0  0  0
  190.4290  176.6720  142.7640 S   0  0  0  0  0  0  0  0  0  0  0  0
  191.3270  178.8790  143.8910 O   0  0  0  0  0  1  0  0  0  0  0  0
  189.9720  177.5380  145.3050 C   0  0  0  0  0  1  0  0  0  0  0  0
  191.0360  177.5570  144.2300 C   0  0  1  0  0  3  0  0  0  0  0  0
  1 15  1  0  0  0  0
  2  6  1  0  0  0  0
  2  3  1  0  0  0  0
  3  9  2  0  0  0  0
  5 12  2  0  0  0  0
  5 15  1  0  0  0  0
  7  6  1  0  0  0  0
  7 16  1  0  0  0  0
  8  1  2  0  0  0  0
  9  8  1  0  0  0  0
  9 13  1  0  0  0  0
 10 16  2  0  0  0  0
 11 37  1  1  0  0  0
 11 14  1  0  0  0  0
 12 18  1  0  0  0  0
 14  5  1  0  0  0  0
 15 19  2  0  0  0  0
 16 11  1  0  0  0  0
 17  2  2  0  0  0  0
 18  4  2  0  0  0  0
 19  4  1  0  0  0  0
 19 23  1  0  0  0  0
 21 20  2  0  0  0  0
 22 24  2  0  0  0  0
 23 25  2  0  0  0  0
 23 22  1  0  0  0  0
 24 20  1  0  0  0  0
 24 28  1  0  0  0  0
 25 21  1  0  0  0  0
 27 28  2  0  0  0  0
 28 26  1  0  0  0  0
 29 30  1  0  0  0  0
 30 34  1  0  0  0  0
 31 32  1  1  0  0  0
 31 29  1  0  0  0  0
 31 33  1  0  0  0  0
 33 34  1  0  0  0  0
 34  3  1  6  0  0  0
 35 38  2  0  0  0  0
 37 35  2  0  0  0  0
 38 36  1  0  0  0  0
 40 41  2  0  0  0  0
 41 38  1  0  0  0  0
 41 39  1  0  0  0  0
 42 39  1  0  0  0  0
 42 45  1  0  0  0  0
 42 46  1  1  0  0  0
 43 45  1  0  0  0  0
 45 44  1  0  0  0  0
 46 47  1  0  0  0  0
 47 50  1  0  0  0  0
 48 50  1  0  0  0  0
 50 49  1  1  0  0  0
M  END
>  <MODEL>
8

>  <REMARK>
 VINA RESULT:      -6.1      3.430      7.878
  Name = 
  10 active torsions:
  status: ('A' for Active; 'I' for Inactive)
    1  A    between atoms: N_3  and  C_13
    2  A    between atoms: C_9  and  C_50
    3  A    between atoms: C_13  and  C_27
    4  A    between atoms: C_13  and  C_45
    5  A    between atoms: C_20  and  C_24
    6  A    between atoms: C_27  and  S_39
    7  A    between atoms: C_30  and  C_49
    8  A    between atoms: C_35  and  C_40
    9  A    between atoms: C_36  and  C_37
   10  A    between atoms: S_39  and  C_48
                            x       y       z     vdW  Elec       q    Type
                         _______ _______ _______ _____ _____    ______ ____

>  <TORSDO>
F 10

$$$$
=
 OpenBabel11042415543D

 50 53  0  0  1  0  0  0  0  0999 V2000
  190.0310  175.0070  142.2070 C   0  0  0  0  0  3  0  0  0  0  0  0
  192.0320  173.0160  139.0810 C   0  0  0  0  0  0  0  0  0  0  0  0
  190.6610  172.5920  139.4850 C   0  0  0  0  0  0  0  0  0  0  0  0
  190.3520  178.2970  144.0620 C   0  0  0  0  0  3  0  0  0  0  0  0
  192.0310  176.4640  142.7650 C   0  0  0  0  0  0  0  0  0  0  0  0
  192.9030  173.5250  140.0430 O   0  0  0  0  0  0  0  0  0  0  0  0
  194.1240  174.1760  139.7350 C   0  0  0  0  0  2  0  0  0  0  0  0
  190.6050  174.3510  141.2060 C   0  0  0  0  0  3  0  0  0  0  0  0
  190.0160  173.1840  140.5190 C   0  0  0  0  0  0  0  0  0  0  0  0
  195.4850  173.6350  141.6540 C   0  0  0  0  0  2  0  0  0  0  0  0
  194.2370  175.7780  141.7590 C   0  0  2  0  0  3  0  0  0  0  0  0
  192.5410  177.6570  143.2950 C   0  0  0  0  0  3  0  0  0  0  0  0
  188.6510  172.7210  140.9360 C   0  0  0  0  0  1  0  0  0  0  0  0
  192.9010  175.5130  142.2010 O   0  0  0  0  0  0  0  0  0  0  0  0
  190.6330  176.2060  142.8410 C   0  0  0  0  0  0  0  0  0  0  0  0
  194.7800  174.5730  141.0170 C   0  0  0  0  0  0  0  0  0  0  0  0
  192.4130  172.8890  137.8850 O   0  0  0  0  0  0  0  0  0  0  0  0
  191.7110  178.5670  143.9400 C   0  0  0  0  0  3  0  0  0  0  0  0
  189.7920  177.1310  143.5200 C   0  0  0  0  0  0  0  0  0  0  0  0
  185.5560  176.5280  143.9200 C   0  0  0  0  0  3  0  0  0  0  0  0
  186.1650  176.4370  142.6660 C   0  0  0  0  0  3  0  0  0  0  0  0
  187.7000  177.0190  144.9220 C   0  0  0  0  0  3  0  0  0  0  0  0
  188.3230  176.9470  143.6660 C   0  0  0  0  0  0  0  0  0  0  0  0
  186.3210  176.8190  145.0570 C   0  0  0  0  0  0  0  0  0  0  0  0
  187.5410  176.6420  142.5410 C   0  0  0  0  0  3  0  0  0  0  0  0
  184.4590  177.5470  146.5250 O   0  0  0  0  0  0  0  0  0  0  0  0
  186.2530  176.4250  147.3960 O   0  0  0  0  0  1  0  0  0  0  0  0
  185.6890  176.9150  146.3810 C   0  0  0  0  0  0  0  0  0  0  0  0
  189.7440  170.6450  136.4760 C   0  0  0  0  0  2  0  0  0  0  0  0
  189.6580  171.9170  137.2860 C   0  0  0  0  0  2  0  0  0  0  0  0
  190.7800  169.7890  137.1770 C   0  0  2  0  0  3  0  0  0  0  0  0
  190.4210  168.4450  137.0880 O   0  0  0  0  0  1  0  0  0  0  0  0
  190.7950  170.2250  138.6310 C   0  0  0  0  0  2  0  0  0  0  0  0
  189.9670  171.4980  138.7090 C   0  0  1  0  0  3  0  0  0  0  0  0
  194.7660  175.9750  144.1330 C   0  0  0  0  0  0  0  0  0  0  0  0
  194.2800  176.8080  146.2480 O   0  0  0  0  0  1  0  0  0  0  0  0
  195.1220  176.2010  142.8980 C   0  0  0  0  0  3  0  0  0  0  0  0
  194.4060  175.7430  145.3650 C   0  0  0  0  0  0  0  0  0  0  0  0
  194.6240  173.2640  145.0770 N   0  0  0  0  0  2  0  0  0  0  0  0
  193.4510  174.1780  146.8750 O   0  0  0  0  0  0  0  0  0  0  0  0
  194.1270  174.3740  145.8270 C   0  0  0  0  0  0  0  0  0  0  0  0
  194.4130  171.8790  145.4820 C   0  0  1  0  0  3  0  0  0  0  0  0
  193.6680  169.6140  144.7140 C   0  0  0  0  0  1  0  0  0  0  0  0
  192.2440  171.5850  144.1990 C   0  0  0  0  0  1  0  0  0  0  0  0
  193.6710  171.0960  144.3950 C   0  0  0  0  0  3  0  0  0  0  0  0
  195.7470  171.2240  145.8240 C   0  0  0  0  0  2  0  0  0  0  0  0
  197.1280  172.2070  145.1660 S   0  0  0  0  0  0  0  0  0  0  0  0
  197.9400  169.7060  145.3500 O   0  0  0  0  0  1  0  0  0  0  0  0
  197.1860  170.3350  143.1890 C   0  0  0  0  0  1  0  0  0  0  0  0
  197.9380  170.7570  144.4320 C   0  0  1  0  0  3  0  0  0  0  0  0
  1 15  1  0  0  0  0
  2  3  1  0  0  0  0
  2  6  1  0  0  0  0
  3  9  2  0  0  0  0
  5 15  2  0  0  0  0
  5 12  1  0  0  0  0
  7  6  1  0  0  0  0
  7 16  1  0  0  0  0
  8  1  2  0  0  0  0
  9 13  1  0  0  0  0
  9  8  1  0  0  0  0
 11 14  1  0  0  0  0
 11 37  1  1  0  0  0
 12 18  2  0  0  0  0
 14  5  1  0  0  0  0
 15 19  1  0  0  0  0
 16 10  2  0  0  0  0
 16 11  1  0  0  0  0
 17  2  2  0  0  0  0
 18  4  1  0  0  0  0
 19 23  1  0  0  0  0
 19  4  2  0  0  0  0
 20 24  1  0  0  0  0
 21 20  2  0  0  0  0
 22 24  2  0  0  0  0
 23 22  1  0  0  0  0
 24 28  1  0  0  0  0
 25 21  1  0  0  0  0
 25 23  2  0  0  0  0
 28 26  2  0  0  0  0
 28 27  1  0  0  0  0
 29 31  1  0  0  0  0
 29 30  1  0  0  0  0
 30 34  1  0  0  0  0
 31 32  1  1  0  0  0
 31 33  1  0  0  0  0
 33 34  1  0  0  0  0
 34  3  1  6  0  0  0
 35 38  2  0  0  0  0
 37 35  2  0  0  0  0
 38 41  1  0  0  0  0
 38 36  1  0  0  0  0
 39 42  1  0  0  0  0
 39 41  1  0  0  0  0
 41 40  2  0  0  0  0
 42 46  1  6  0  0  0
 44 45  1  0  0  0  0
 45 43  1  0  0  0  0
 45 42  1  0  0  0  0
 47 46  1  0  0  0  0
 50 49  1  6  0  0  0
 50 47  1  0  0  0  0
 50 48  1  0  0  0  0
M  END
>  <MODEL>
9

>  <REMARK>
 VINA RESULT:      -5.9      2.223      3.332
  Name = 
  10 active torsions:
  status: ('A' for Active; 'I' for Inactive)
    1  A    between atoms: N_3  and  C_13
    2  A    between atoms: C_9  and  C_50
    3  A    between atoms: C_13  and  C_27
    4  A    between atoms: C_13  and  C_45
    5  A    between atoms: C_20  and  C_24
    6  A    between atoms: C_27  and  S_39
    7  A    between atoms: C_30  and  C_49
    8  A    between atoms: C_35  and  C_40
    9  A    between atoms: C_36  and  C_37
   10  A    between atoms: S_39  and  C_48
                            x       y       z     vdW  Elec       q    Type
                         _______ _______ _______ _____ _____    ______ ____

>  <TORSDO>
F 10

$$$$
