=
 OpenBabel11042414083D

 49 54  0  0  1  0  0  0  0  0999 V2000
  191.4740  175.3570  144.4390 N   0  0  0  0  0  0  0  0  0  0  0  0
  190.1050  176.8200  147.5020 F   0  0  0  0  0  0  0  0  0  0  0  0
  190.2530  176.4360  146.2090 C   0  0  0  0  0  0  0  0  0  0  0  0
  191.3640  175.8050  145.8020 C   0  0  0  0  0  0  0  0  0  0  0  0
  187.6780  175.9330  140.6840 O   0  0  0  0  0  0  0  0  0  0  0  0
  190.4740  175.3750  143.6100 C   0  0  0  0  0  0  0  0  0  0  0  0
  190.6530  174.8690  142.2890 N   0  0  0  0  0  2  0  0  0  0  0  0
  189.2000  176.8150  145.2110 C   0  0  0  0  0  2  0  0  0  0  0  0
  189.5250  174.6600  141.3830 C   0  0  2  0  0  3  0  0  0  0  0  0
  188.2420  176.3650  142.9420 C   0  0  2  0  0  3  0  0  0  0  0  0
  188.4220  175.6600  141.6130 C   0  0  0  0  0  0  0  0  0  0  0  0
  189.1000  175.7880  144.0770 C   0  0  1  0  0  3  0  0  0  0  0  0
  193.2700  176.5990  146.9690 C   0  0  0  0  0  2  0  0  0  0  0  0
  194.5600  173.4790  144.4130 S   0  0  0  0  0  0  0  0  0  0  0  0
  197.8730  175.2000  143.6100 F   0  0  0  0  0  0  0  0  0  0  0  0
  196.0560  173.6120  143.6560 C   0  0  0  0  0  0  0  0  0  0  0  0
  192.4600  175.4970  146.7800 C   0  0  2  0  0  3  0  0  0  0  0  0
  194.7590  174.9400  145.2240 C   0  0  0  0  0  0  0  0  0  0  0  0
  196.6590  174.7970  144.0580 C   0  0  0  0  0  0  0  0  0  0  0  0
  196.6210  172.6290  142.6930 C   0  0  0  0  0  1  0  0  0  0  0  0
  195.9320  175.5410  144.9330 N   0  0  0  0  0  0  0  0  0  0  0  0
  193.7850  175.5110  146.0900 N   0  0  0  0  0  0  0  0  0  0  0  0
  189.0320  173.2080  141.3820 C   0  0  2  0  0  3  0  0  0  0  0  0
  189.1270  171.9160  143.5120 C   0  0  0  0  0  1  0  0  0  0  0  0
  189.8830  172.2910  142.2540 C   0  0  0  0  0  2  0  0  0  0  0  0
  189.0020  172.6830  139.9540 C   0  0  0  0  0  2  0  0  0  0  0  0
  190.0060  173.4130  139.0770 C   0  0  0  0  0  2  0  0  0  0  0  0
  191.1580  172.4970  138.6950 C   0  0  0  0  0  2  0  0  0  0  0  0
  192.1730  172.5160  139.7390 N   0  0  0  0  0  2  0  0  0  0  0  0
  196.6610  176.0880  140.5960 C   0  0  0  0  0  3  0  0  0  0  0  0
  194.7110  175.2560  139.9610 C   0  0  1  0  0  3  0  0  0  0  0  0
  196.9670  175.3600  139.5690 N   0  0  0  0  0  0  0  0  0  0  0  0
  195.2310  176.0270  140.8960 C   0  0  0  0  0  2  0  0  0  0  0  0
  194.6440  172.5860  139.1960 C   0  0  0  0  0  0  0  0  0  0  0  0
  195.7520  174.7930  139.0100 C   0  0  1  0  0  3  0  0  0  0  0  0
  195.7690  173.2870  138.9680 C   0  0  0  0  0  3  0  0  0  0  0  0
  193.4360  174.5460  140.0740 C   0  0  0  0  0  3  0  0  0  0  0  0
  194.6890  171.1030  139.0660 C   0  0  0  0  0  1  0  0  0  0  0  0
  193.3910  173.2660  139.6550 C   0  0  0  0  0  0  0  0  0  0  0  0
  186.8410  176.3300  143.3400 N   0  0  0  0  0  2  0  0  0  0  0  0
  186.2940  177.5880  143.0490 N   0  0  0  0  0  2  0  0  0  0  0  0
  184.9060  177.4200  142.9500 N   0  0  0  0  0  2  0  0  0  0  0  0
  184.3010  178.7040  143.2520 C   0  0  0  0  0  2  0  0  0  0  0  0
  185.1400  179.4300  144.2860 C   0  0  0  0  0  2  0  0  0  0  0  0
  184.7430  179.0190  145.6950 C   0  0  0  0  0  2  0  0  0  0  0  0
  185.9050  179.5330  147.7170 O   0  0  0  0  0  1  0  0  0  0  0  0
  185.9650  178.7520  146.5620 C   0  0  1  0  0  3  0  0  0  0  0  0
  185.9970  177.2860  146.9450 C   0  0  0  0  0  2  0  0  0  0  0  0
  184.8320  176.6540  146.5060 O   0  0  0  0  0  1  0  0  0  0  0  0
  1  4  1  0  0  0  0
  3  2  1  0  0  0  0
  4  3  2  0  0  0  0
  5 11  2  0  0  0  0
  6 12  1  0  0  0  0
  6  1  2  0  0  0  0
  7  6  1  0  0  0  0
  8  3  1  0  0  0  0
  9 23  1  1  0  0  0
  9 11  1  0  0  0  0
  9  7  1  0  0  0  0
 10 40  1  1  0  0  0
 10 12  1  0  0  0  0
 11 10  1  0  0  0  0
 12  8  1  1  0  0  0
 14 18  1  0  0  0  0
 15 19  1  0  0  0  0
 16 19  2  0  0  0  0
 16 14  1  0  0  0  0
 17  4  1  6  0  0  0
 17 13  1  0  0  0  0
 18 22  1  0  0  0  0
 19 21  1  0  0  0  0
 20 16  1  0  0  0  0
 21 18  2  0  0  0  0
 22 17  1  0  0  0  0
 22 13  1  0  0  0  0
 23 26  1  6  0  0  0
 23 25  1  0  0  0  0
 25 24  1  0  0  0  0
 27 26  1  0  0  0  0
 28 27  1  0  0  0  0
 28 29  1  0  0  0  0
 30 33  1  0  0  0  0
 31 37  1  1  0  0  0
 31 33  1  0  0  0  0
 32 30  2  0  0  0  0
 34 39  1  0  0  0  0
 35 36  1  1  0  0  0
 35 32  1  0  0  0  0
 35 31  1  0  0  0  0
 36 34  2  0  0  0  0
 38 34  1  0  0  0  0
 39 29  1  0  0  0  0
 39 37  2  0  0  0  0
 41 40  1  0  0  0  0
 42 41  1  0  0  0  0
 42 43  1  0  0  0  0
 43 44  1  0  0  0  0
 44 45  1  0  0  0  0
 45 47  1  0  0  0  0
 47 48  1  0  0  0  0
 47 46  1  1  0  0  0
 49 48  1  0  0  0  0
M  END
>  <MODEL>
1

>  <REMARK>
 VINA RESULT:      -6.7      0.000      0.000
  Name = 
  16 active torsions:
  status: ('A' for Active; 'I' for Inactive)
    1  A    between atoms: N_2  and  N_38
    2  A    between atoms: N_2  and  C_42
    3  A    between atoms: C_6  and  C_19
    4  A    between atoms: C_9  and  C_22
    5  A    between atoms: C_9  and  C_39
    6  A    between atoms: C_11  and  N_30
    7  A    between atoms: C_11  and  C_43
    8  A    between atoms: C_14  and  C_31
    9  A    between atoms: C_19  and  C_26
   10  A    between atoms: C_22  and  C_47
   11  A    between atoms: N_24  and  C_39
   12  A    between atoms: N_24  and  C_48
   13  A    between atoms: C_26  and  C_43
   14  A    between atoms: N_30  and  N_38
   15  A    between atoms: C_32  and  C_47
   16  A    between atoms: C_45  and  C_47
                            x       y       z     vdW  Elec       q    Type
                         _______ _______ _______ _____ _____    ______ ____

>  <TORSDO>
F 16

$$$$
=
 OpenBabel11042414083D

 49 54  0  0  1  0  0  0  0  0999 V2000
  193.3940  176.5740  143.8050 N   0  0  0  0  0  0  0  0  0  0  0  0
  194.5270  175.7200  147.1800 F   0  0  0  0  0  0  0  0  0  0  0  0
  193.7530  176.1280  146.1420 C   0  0  0  0  0  0  0  0  0  0  0  0
  194.2490  176.1920  144.8990 C   0  0  0  0  0  0  0  0  0  0  0  0
  188.1730  177.7570  144.2400 O   0  0  0  0  0  0  0  0  0  0  0  0
  192.1060  176.6960  143.9300 C   0  0  0  0  0  0  0  0  0  0  0  0
  191.3230  177.0330  142.7870 N   0  0  0  0  0  2  0  0  0  0  0  0
  192.3590  176.6090  146.4170 C   0  0  0  0  0  2  0  0  0  0  0  0
  189.8630  176.9740  142.8070 C   0  0  2  0  0  3  0  0  0  0  0  0
  190.1140  177.1160  145.4340 C   0  0  2  0  0  3  0  0  0  0  0  0
  189.3020  177.2980  144.1670 C   0  0  0  0  0  0  0  0  0  0  0  0
  191.4260  176.3450  145.2310 C   0  0  1  0  0  3  0  0  0  0  0  0
  195.9190  175.7610  143.2710 C   0  0  0  0  0  2  0  0  0  0  0  0
  195.2070  172.1360  145.3400 S   0  0  0  0  0  0  0  0  0  0  0  0
  195.6400  169.9980  142.2060 F   0  0  0  0  0  0  0  0  0  0  0  0
  195.2410  170.6890  144.4840 C   0  0  0  0  0  0  0  0  0  0  0  0
  195.6710  175.7920  144.6290 C   0  0  2  0  0  3  0  0  0  0  0  0
  195.5960  173.0380  143.9740 C   0  0  0  0  0  0  0  0  0  0  0  0
  195.5510  170.9590  143.1570 C   0  0  0  0  0  0  0  0  0  0  0  0
  194.9580  169.3460  145.0570 C   0  0  0  0  0  1  0  0  0  0  0  0
  195.7450  172.2740  142.8720 N   0  0  0  0  0  0  0  0  0  0  0  0
  195.7120  174.4560  143.9610 N   0  0  0  0  0  0  0  0  0  0  0  0
  189.3180  175.6620  142.2270 C   0  0  2  0  0  3  0  0  0  0  0  0
  186.8360  175.6470  142.0030 C   0  0  0  0  0  1  0  0  0  0  0  0
  188.1460  175.8740  141.2770 C   0  0  0  0  0  2  0  0  0  0  0  0
  188.9040  174.7380  143.3640 C   0  0  0  0  0  2  0  0  0  0  0  0
  189.7760  173.4940  143.4090 C   0  0  0  0  0  2  0  0  0  0  0  0
  189.0790  172.3210  142.7360 C   0  0  0  0  0  2  0  0  0  0  0  0
  189.8820  171.8420  141.6200 N   0  0  0  0  0  2  0  0  0  0  0  0
  188.6820  174.8170  136.7890 C   0  0  0  0  0  3  0  0  0  0  0  0
  188.8040  173.2160  138.3110 C   0  0  1  0  0  3  0  0  0  0  0  0
  189.8850  174.3570  136.6430 N   0  0  0  0  0  0  0  0  0  0  0  0
  187.9670  174.1310  137.8640 C   0  0  0  0  0  2  0  0  0  0  0  0
  191.1570  173.0140  139.7740 C   0  0  0  0  0  0  0  0  0  0  0  0
  190.0810  173.2440  137.5560 C   0  0  1  0  0  3  0  0  0  0  0  0
  191.2300  173.4580  138.5070 C   0  0  0  0  0  3  0  0  0  0  0  0
  188.7340  172.5910  139.6330 C   0  0  0  0  0  3  0  0  0  0  0  0
  192.3460  173.1760  140.6570 C   0  0  0  0  0  1  0  0  0  0  0  0
  189.8830  172.4460  140.3200 C   0  0  0  0  0  0  0  0  0  0  0  0
  189.3150  176.4350  146.4450 N   0  0  0  0  0  2  0  0  0  0  0  0
  188.4120  177.3750  146.9630 N   0  0  0  0  0  2  0  0  0  0  0  0
  187.2120  176.6950  147.2160 N   0  0  0  0  0  2  0  0  0  0  0  0
  186.1520  177.6870  147.2040 C   0  0  0  0  0  2  0  0  0  0  0  0
  185.1910  177.3890  146.0690 C   0  0  0  0  0  2  0  0  0  0  0  0
  184.2260  178.5430  145.8550 C   0  0  0  0  0  2  0  0  0  0  0  0
  185.6980  179.9520  144.6090 O   0  0  0  0  0  1  0  0  0  0  0  0
  184.4920  179.2530  144.5350 C   0  0  1  0  0  3  0  0  0  0  0  0
  184.5710  178.2260  143.4220 C   0  0  0  0  0  2  0  0  0  0  0  0
  183.3940  178.2460  142.6720 O   0  0  0  0  0  1  0  0  0  0  0  0
  1  6  2  0  0  0  0
  1  4  1  0  0  0  0
  3  8  1  0  0  0  0
  3  2  1  0  0  0  0
  4  3  2  0  0  0  0
  6 12  1  0  0  0  0
  7  9  1  0  0  0  0
  7  6  1  0  0  0  0
  9 23  1  1  0  0  0
  9 11  1  0  0  0  0
 10 40  1  1  0  0  0
 11  5  2  0  0  0  0
 11 10  1  0  0  0  0
 12 10  1  0  0  0  0
 12  8  1  1  0  0  0
 13 22  1  0  0  0  0
 13 17  1  0  0  0  0
 15 19  1  0  0  0  0
 16 20  1  0  0  0  0
 16 14  1  0  0  0  0
 17  4  1  6  0  0  0
 18 14  1  0  0  0  0
 19 16  2  0  0  0  0
 21 19  1  0  0  0  0
 21 18  2  0  0  0  0
 22 18  1  0  0  0  0
 22 17  1  0  0  0  0
 23 25  1  6  0  0  0
 23 26  1  0  0  0  0
 25 24  1  0  0  0  0
 26 27  1  0  0  0  0
 28 27  1  0  0  0  0
 29 28  1  0  0  0  0
 30 33  1  0  0  0  0
 31 33  1  1  0  0  0
 31 37  1  0  0  0  0
 32 30  2  0  0  0  0
 32 35  1  0  0  0  0
 34 39  1  0  0  0  0
 34 38  1  0  0  0  0
 35 31  1  0  0  0  0
 35 36  1  1  0  0  0
 36 34  2  0  0  0  0
 37 39  2  0  0  0  0
 39 29  1  0  0  0  0
 40 41  1  0  0  0  0
 41 42  1  0  0  0  0
 43 42  1  0  0  0  0
 44 43  1  0  0  0  0
 45 44  1  0  0  0  0
 47 46  1  1  0  0  0
 47 45  1  0  0  0  0
 48 47  1  0  0  0  0
 49 48  1  0  0  0  0
M  END
>  <MODEL>
2

>  <REMARK>
 VINA RESULT:      -6.7      2.521      4.255
  Name = 
  16 active torsions:
  status: ('A' for Active; 'I' for Inactive)
    1  A    between atoms: N_2  and  N_38
    2  A    between atoms: N_2  and  C_42
    3  A    between atoms: C_6  and  C_19
    4  A    between atoms: C_9  and  C_22
    5  A    between atoms: C_9  and  C_39
    6  A    between atoms: C_11  and  N_30
    7  A    between atoms: C_11  and  C_43
    8  A    between atoms: C_14  and  C_31
    9  A    between atoms: C_19  and  C_26
   10  A    between atoms: C_22  and  C_47
   11  A    between atoms: N_24  and  C_39
   12  A    between atoms: N_24  and  C_48
   13  A    between atoms: C_26  and  C_43
   14  A    between atoms: N_30  and  N_38
   15  A    between atoms: C_32  and  C_47
   16  A    between atoms: C_45  and  C_47
                            x       y       z     vdW  Elec       q    Type
                         _______ _______ _______ _____ _____    ______ ____

>  <TORSDO>
F 16

$$$$
=
 OpenBabel11042414083D

 49 54  0  0  1  0  0  0  0  0999 V2000
  188.4770  175.5660  143.7440 N   0  0  0  0  0  0  0  0  0  0  0  0
  189.6810  175.8960  147.1850 F   0  0  0  0  0  0  0  0  0  0  0  0
  189.3980  175.3870  145.9600 C   0  0  0  0  0  0  0  0  0  0  0  0
  188.7180  176.1070  145.0570 C   0  0  0  0  0  0  0  0  0  0  0  0
  190.1680  170.7670  142.0260 O   0  0  0  0  0  0  0  0  0  0  0  0
  189.0380  174.4730  143.3210 C   0  0  0  0  0  0  0  0  0  0  0  0
  188.7850  174.0290  141.9890 N   0  0  0  0  0  2  0  0  0  0  0  0
  189.7640  173.9630  145.6600 C   0  0  0  0  0  2  0  0  0  0  0  0
  189.5450  172.9390  141.3820 C   0  0  2  0  0  3  0  0  0  0  0  0
  190.1280  172.2550  143.8670 C   0  0  2  0  0  3  0  0  0  0  0  0
  189.9750  171.9130  142.3980 C   0  0  0  0  0  0  0  0  0  0  0  0
  190.0600  173.7580  144.1700 C   0  0  1  0  0  3  0  0  0  0  0  0
  187.2300  177.4850  146.2850 C   0  0  0  0  0  2  0  0  0  0  0  0
  186.4150  178.0940  142.1750 S   0  0  0  0  0  0  0  0  0  0  0  0
  182.6520  178.4240  142.7370 F   0  0  0  0  0  0  0  0  0  0  0  0
  184.8210  178.3150  141.6840 C   0  0  0  0  0  0  0  0  0  0  0  0
  188.2740  177.5030  145.3810 C   0  0  2  0  0  3  0  0  0  0  0  0
  185.9770  177.9800  143.7950 C   0  0  0  0  0  0  0  0  0  0  0  0
  183.9990  178.2880  142.8030 C   0  0  0  0  0  0  0  0  0  0  0  0
  184.3730  178.4860  140.2760 C   0  0  0  0  0  1  0  0  0  0  0  0
  184.6450  178.0970  143.9840 N   0  0  0  0  0  0  0  0  0  0  0  0
  186.8960  177.7400  144.8550 N   0  0  0  0  0  0  0  0  0  0  0  0
  190.7000  173.4430  140.5070 C   0  0  2  0  0  3  0  0  0  0  0  0
  189.7990  173.7150  138.1990 C   0  0  0  0  0  1  0  0  0  0  0  0
  190.6730  172.8640  139.0970 C   0  0  0  0  0  2  0  0  0  0  0  0
  192.0260  173.1130  141.1780 C   0  0  0  0  0  2  0  0  0  0  0  0
  193.1820  173.2220  140.1980 C   0  0  0  0  0  2  0  0  0  0  0  0
  193.8890  174.5610  140.3420 C   0  0  0  0  0  2  0  0  0  0  0  0
  194.9430  174.4590  141.3420 N   0  0  0  0  0  0  0  0  0  0  0  0
  193.1220  176.3760  146.5030 C   0  0  0  0  0  3  0  0  0  0  0  0
  193.7650  176.2850  144.3880 C   0  0  1  0  0  3  0  0  0  0  0  0
  194.4120  176.2770  146.5870 N   0  0  0  0  0  0  0  0  0  0  0  0
  192.6680  176.3580  145.1140 C   0  0  0  0  0  2  0  0  0  0  0  0
  195.7690  174.4750  143.7340 C   0  0  0  0  0  0  0  0  0  0  0  0
  194.9750  176.2660  145.2480 C   0  0  1  0  0  3  0  0  0  0  0  0
  195.7860  175.0300  144.9590 C   0  0  0  0  0  3  0  0  0  0  0  0
  193.8260  175.8030  143.0070 C   0  0  0  0  0  2  0  0  0  0  0  0
  196.6470  173.3010  143.4710 C   0  0  0  0  0  1  0  0  0  0  0  0
  194.8280  174.9660  142.6770 C   0  0  0  0  0  0  0  0  0  0  0  0
  191.3860  171.7230  144.3740 N   0  0  0  0  0  2  0  0  0  0  0  0
  192.2790  172.8000  144.4810 N   0  0  0  0  0  2  0  0  0  0  0  0
  193.4100  172.3290  145.1630 N   0  0  0  0  0  2  0  0  0  0  0  0
  193.7410  171.0360  144.5920 C   0  0  0  0  0  2  0  0  0  0  0  0
  194.5830  170.2480  145.5780 C   0  0  0  0  0  2  0  0  0  0  0  0
  195.7790  169.6140  144.8870 C   0  0  0  0  0  2  0  0  0  0  0  0
  196.8600  171.1860  146.3240 O   0  0  0  0  0  1  0  0  0  0  0  0
  197.0900  170.0770  145.5080 C   0  0  1  0  0  3  0  0  0  0  0  0
  197.6760  168.9520  146.3380 C   0  0  0  0  0  2  0  0  0  0  0  0
  197.0750  168.9270  147.5970 O   0  0  0  0  0  1  0  0  0  0  0  0
  1  4  1  0  0  0  0
  3  2  1  0  0  0  0
  4  3  2  0  0  0  0
  5 11  2  0  0  0  0
  6  1  2  0  0  0  0
  6 12  1  0  0  0  0
  7  6  1  0  0  0  0
  8  3  1  0  0  0  0
  9 23  1  1  0  0  0
  9  7  1  0  0  0  0
  9 11  1  0  0  0  0
 10 12  1  0  0  0  0
 10 40  1  6  0  0  0
 11 10  1  0  0  0  0
 12  8  1  1  0  0  0
 14 18  1  0  0  0  0
 15 19  1  0  0  0  0
 16 14  1  0  0  0  0
 16 19  2  0  0  0  0
 17  4  1  6  0  0  0
 17 13  1  0  0  0  0
 18 21  2  0  0  0  0
 18 22  1  0  0  0  0
 19 21  1  0  0  0  0
 20 16  1  0  0  0  0
 22 17  1  0  0  0  0
 22 13  1  0  0  0  0
 23 25  1  6  0  0  0
 23 26  1  0  0  0  0
 24 25  1  0  0  0  0
 27 28  1  0  0  0  0
 27 26  1  0  0  0  0
 28 29  1  0  0  0  0
 29 39  2  0  0  0  0
 30 32  2  0  0  0  0
 31 37  1  1  0  0  0
 31 33  1  0  0  0  0
 31 35  1  0  0  0  0
 33 30  1  0  0  0  0
 34 36  2  0  0  0  0
 35 36  1  1  0  0  0
 35 32  1  0  0  0  0
 38 34  1  0  0  0  0
 39 37  1  0  0  0  0
 39 34  1  0  0  0  0
 40 41  1  0  0  0  0
 41 42  1  0  0  0  0
 43 42  1  0  0  0  0
 43 44  1  0  0  0  0
 45 47  1  0  0  0  0
 45 44  1  0  0  0  0
 47 46  1  1  0  0  0
 47 48  1  0  0  0  0
 48 49  1  0  0  0  0
M  END
>  <MODEL>
3

>  <REMARK>
 VINA RESULT:      -6.7      3.883      8.162
  Name = 
  16 active torsions:
  status: ('A' for Active; 'I' for Inactive)
    1  A    between atoms: N_2  and  N_38
    2  A    between atoms: N_2  and  C_42
    3  A    between atoms: C_6  and  C_19
    4  A    between atoms: C_9  and  C_22
    5  A    between atoms: C_9  and  C_39
    6  A    between atoms: C_11  and  N_30
    7  A    between atoms: C_11  and  C_43
    8  A    between atoms: C_14  and  C_31
    9  A    between atoms: C_19  and  C_26
   10  A    between atoms: C_22  and  C_47
   11  A    between atoms: N_24  and  C_39
   12  A    between atoms: N_24  and  C_48
   13  A    between atoms: C_26  and  C_43
   14  A    between atoms: N_30  and  N_38
   15  A    between atoms: C_32  and  C_47
   16  A    between atoms: C_45  and  C_47
                            x       y       z     vdW  Elec       q    Type
                         _______ _______ _______ _____ _____    ______ ____

>  <TORSDO>
F 16

$$$$
=
 OpenBabel11042414083D

 49 54  0  0  1  0  0  0  0  0999 V2000
  191.9960  175.9400  144.7770 N   0  0  0  0  0  0  0  0  0  0  0  0
  191.9380  176.9700  148.2890 F   0  0  0  0  0  0  0  0  0  0  0  0
  191.5520  176.6980  147.0170 C   0  0  0  0  0  0  0  0  0  0  0  0
  192.4390  176.2750  146.1050 C   0  0  0  0  0  0  0  0  0  0  0  0
  186.9100  176.1690  143.0700 O   0  0  0  0  0  0  0  0  0  0  0  0
  190.7410  175.8580  144.4540 C   0  0  0  0  0  0  0  0  0  0  0  0
  190.3830  175.4740  143.1280 N   0  0  0  0  0  2  0  0  0  0  0  0
  190.1350  176.9760  146.6090 C   0  0  0  0  0  2  0  0  0  0  0  0
  189.0060  175.1540  142.7620 C   0  0  2  0  0  3  0  0  0  0  0  0
  188.3450  176.5330  144.9170 C   0  0  2  0  0  3  0  0  0  0  0  0
  188.0080  175.9540  143.5580 C   0  0  0  0  0  0  0  0  0  0  0  0
  189.6680  176.0230  145.5040 C   0  0  1  0  0  3  0  0  0  0  0  0
  194.5840  177.2560  146.3550 C   0  0  0  0  0  2  0  0  0  0  0  0
  194.8870  174.3040  143.3340 S   0  0  0  0  0  0  0  0  0  0  0  0
  197.3320  176.3660  141.2470 F   0  0  0  0  0  0  0  0  0  0  0  0
  195.8750  174.5970  142.0040 C   0  0  0  0  0  0  0  0  0  0  0  0
  193.8780  176.0760  146.4840 C   0  0  2  0  0  3  0  0  0  0  0  0
  195.2910  175.7720  144.0500 C   0  0  0  0  0  0  0  0  0  0  0  0
  196.4840  175.8350  142.1620 C   0  0  0  0  0  0  0  0  0  0  0  0
  196.0410  173.6840  140.8410 C   0  0  0  0  0  1  0  0  0  0  0  0
  196.1550  176.4930  143.3040 N   0  0  0  0  0  0  0  0  0  0  0  0
  194.7530  176.2320  145.2840 N   0  0  0  0  0  0  0  0  0  0  0  0
  188.7260  173.6450  142.7860 C   0  0  2  0  0  3  0  0  0  0  0  0
  189.8660  172.0220  144.2950 C   0  0  0  0  0  1  0  0  0  0  0  0
  189.9830  172.8120  143.0070 C   0  0  0  0  0  2  0  0  0  0  0  0
  188.0530  173.2340  141.4840 C   0  0  0  0  0  2  0  0  0  0  0  0
  188.8470  173.7100  140.2780 C   0  0  0  0  0  2  0  0  0  0  0  0
  188.3800  173.0100  139.0120 C   0  0  0  0  0  2  0  0  0  0  0  0
  189.4030  172.0790  138.5540 N   0  0  0  0  0  2  0  0  0  0  0  0
  193.8580  169.4970  141.2230 C   0  0  0  0  0  3  0  0  0  0  0  0
  191.8760  170.3810  140.7910 C   0  0  1  0  0  3  0  0  0  0  0  0
  194.0750  170.7720  141.3050 N   0  0  0  0  0  0  0  0  0  0  0  0
  192.4690  169.2070  140.8710 C   0  0  0  0  0  2  0  0  0  0  0  0
  191.8020  172.6230  139.1520 C   0  0  0  0  0  0  0  0  0  0  0  0
  192.8240  171.4810  141.0970 C   0  0  1  0  0  3  0  0  0  0  0  0
  192.8780  172.4430  139.9390 C   0  0  0  0  0  3  0  0  0  0  0  0
  190.6390  170.6470  140.0550 C   0  0  0  0  0  3  0  0  0  0  0  0
  191.8730  173.6430  138.0680 C   0  0  0  0  0  1  0  0  0  0  0  0
  190.5860  171.7620  139.3000 C   0  0  0  0  0  0  0  0  0  0  0  0
  187.2690  176.2560  145.8590 N   0  0  0  0  0  2  0  0  0  0  0  0
  186.9690  177.4590  146.5140 N   0  0  0  0  0  2  0  0  0  0  0  0
  185.8600  177.2150  147.3360 N   0  0  0  0  0  2  0  0  0  0  0  0
  185.0870  178.4420  147.3800 C   0  0  0  0  0  2  0  0  0  0  0  0
  185.2800  179.2110  146.0870 C   0  0  0  0  0  2  0  0  0  0  0  0
  184.1570  178.9190  145.1070 C   0  0  0  0  0  2  0  0  0  0  0  0
  185.9660  179.2550  143.5840 O   0  0  0  0  0  1  0  0  0  0  0  0
  184.5730  179.2290  143.6750 C   0  0  1  0  0  3  0  0  0  0  0  0
  184.0260  178.1580  142.7520 C   0  0  0  0  0  2  0  0  0  0  0  0
  184.4240  178.4130  141.4390 O   0  0  0  0  0  1  0  0  0  0  0  0
  1  4  1  0  0  0  0
  3  2  1  0  0  0  0
  4  3  2  0  0  0  0
  5 11  2  0  0  0  0
  6  1  2  0  0  0  0
  6 12  1  0  0  0  0
  7  6  1  0  0  0  0
  8  3  1  0  0  0  0
  9 23  1  1  0  0  0
  9  7  1  0  0  0  0
  9 11  1  0  0  0  0
 10 12  1  0  0  0  0
 10 40  1  1  0  0  0
 11 10  1  0  0  0  0
 12  8  1  1  0  0  0
 13 17  1  0  0  0  0
 14 18  1  0  0  0  0
 15 19  1  0  0  0  0
 16 19  2  0  0  0  0
 16 14  1  0  0  0  0
 17  4  1  6  0  0  0
 18 22  1  0  0  0  0
 19 21  1  0  0  0  0
 20 16  1  0  0  0  0
 21 18  2  0  0  0  0
 22 13  1  0  0  0  0
 22 17  1  0  0  0  0
 23 26  1  6  0  0  0
 23 25  1  0  0  0  0
 25 24  1  0  0  0  0
 27 26  1  0  0  0  0
 28 27  1  0  0  0  0
 29 28  1  0  0  0  0
 29 39  1  0  0  0  0
 30 32  2  0  0  0  0
 31 37  1  6  0  0  0
 31 33  1  0  0  0  0
 31 35  1  0  0  0  0
 33 30  1  0  0  0  0
 34 39  1  0  0  0  0
 34 36  2  0  0  0  0
 35 36  1  6  0  0  0
 35 32  1  0  0  0  0
 38 34  1  0  0  0  0
 39 37  2  0  0  0  0
 40 41  1  0  0  0  0
 41 42  1  0  0  0  0
 42 43  1  0  0  0  0
 44 43  1  0  0  0  0
 45 44  1  0  0  0  0
 47 46  1  1  0  0  0
 47 45  1  0  0  0  0
 48 47  1  0  0  0  0
 49 48  1  0  0  0  0
M  END
>  <MODEL>
4

>  <REMARK>
 VINA RESULT:      -6.7      2.004      3.186
  Name = 
  16 active torsions:
  status: ('A' for Active; 'I' for Inactive)
    1  A    between atoms: N_2  and  N_38
    2  A    between atoms: N_2  and  C_42
    3  A    between atoms: C_6  and  C_19
    4  A    between atoms: C_9  and  C_22
    5  A    between atoms: C_9  and  C_39
    6  A    between atoms: C_11  and  N_30
    7  A    between atoms: C_11  and  C_43
    8  A    between atoms: C_14  and  C_31
    9  A    between atoms: C_19  and  C_26
   10  A    between atoms: C_22  and  C_47
   11  A    between atoms: N_24  and  C_39
   12  A    between atoms: N_24  and  C_48
   13  A    between atoms: C_26  and  C_43
   14  A    between atoms: N_30  and  N_38
   15  A    between atoms: C_32  and  C_47
   16  A    between atoms: C_45  and  C_47
                            x       y       z     vdW  Elec       q    Type
                         _______ _______ _______ _____ _____    ______ ____

>  <TORSDO>
F 16

$$$$
=
 OpenBabel11042414083D

 49 54  0  0  1  0  0  0  0  0999 V2000
  193.9170  175.4440  140.5850 N   0  0  0  0  0  0  0  0  0  0  0  0
  197.3100  174.6250  139.4800 F   0  0  0  0  0  0  0  0  0  0  0  0
  196.2640  175.0400  140.2390 C   0  0  0  0  0  0  0  0  0  0  0  0
  195.0190  175.0530  139.7440 C   0  0  0  0  0  0  0  0  0  0  0  0
  194.3290  176.8520  145.7510 O   0  0  0  0  0  0  0  0  0  0  0  0
  194.0400  175.6230  141.8650 C   0  0  0  0  0  0  0  0  0  0  0  0
  192.8910  175.9640  142.6370 N   0  0  0  0  0  2  0  0  0  0  0  0
  196.5290  175.5850  141.6110 C   0  0  0  0  0  2  0  0  0  0  0  0
  192.9140  175.9660  144.0980 C   0  0  2  0  0  3  0  0  0  0  0  0
  195.5360  176.1600  143.8360 C   0  0  2  0  0  3  0  0  0  0  0  0
  194.2670  176.3450  144.6420 C   0  0  0  0  0  0  0  0  0  0  0  0
  195.3500  175.3310  142.5570 C   0  0  1  0  0  3  0  0  0  0  0  0
  193.7530  175.3370  137.7580 C   0  0  0  0  0  2  0  0  0  0  0  0
  192.8640  171.4890  139.2840 S   0  0  0  0  0  0  0  0  0  0  0  0
  189.1920  171.6810  138.2550 F   0  0  0  0  0  0  0  0  0  0  0  0
  191.2910  170.9060  139.1590 C   0  0  0  0  0  0  0  0  0  0  0  0
  194.7570  174.5890  138.3400 C   0  0  2  0  0  3  0  0  0  0  0  0
  192.4760  172.9170  138.4840 C   0  0  0  0  0  0  0  0  0  0  0  0
  190.5140  171.8500  138.5000 C   0  0  0  0  0  0  0  0  0  0  0  0
  190.8140  169.6020  139.6930 C   0  0  0  0  0  1  0  0  0  0  0  0
  191.1760  172.9760  138.1260 N   0  0  0  0  0  0  0  0  0  0  0  0
  193.3990  173.9740  138.2460 N   0  0  0  0  0  0  0  0  0  0  0  0
  192.3670  174.6640  144.6970 C   0  0  2  0  0  3  0  0  0  0  0  0
  192.2320  172.5770  143.3410 C   0  0  0  0  0  1  0  0  0  0  0  0
  191.5240  173.8640  143.7100 C   0  0  0  0  0  2  0  0  0  0  0  0
  191.5470  174.9830  145.9400 C   0  0  0  0  0  2  0  0  0  0  0  0
  190.1600  174.3670  145.8590 C   0  0  0  0  0  2  0  0  0  0  0  0
  189.3280  174.7450  147.0740 C   0  0  0  0  0  2  0  0  0  0  0  0
  189.0080  176.1650  147.0320 N   0  0  0  0  0  2  0  0  0  0  0  0
  184.0480  178.7510  145.5020 C   0  0  0  0  0  3  0  0  0  0  0  0
  185.5390  177.2440  146.1360 C   0  0  1  0  0  3  0  0  0  0  0  0
  184.6550  178.4480  144.3970 N   0  0  0  0  0  0  0  0  0  0  0  0
  184.6010  178.0210  146.6410 C   0  0  0  0  0  2  0  0  0  0  0  0
  188.0840  177.4180  145.0360 C   0  0  0  0  0  0  0  0  0  0  0  0
  185.6360  177.4100  144.6650 C   0  0  1  0  0  3  0  0  0  0  0  0
  187.0380  177.8140  144.2890 C   0  0  0  0  0  3  0  0  0  0  0  0
  186.6510  176.6720  146.8960 C   0  0  0  0  0  3  0  0  0  0  0  0
  189.4590  177.7720  144.5840 C   0  0  0  0  0  1  0  0  0  0  0  0
  187.8770  176.7090  146.3390 C   0  0  0  0  0  0  0  0  0  0  0  0
  196.5640  175.5370  144.6600 N   0  0  0  0  0  2  0  0  0  0  0  0
  196.1940  174.1970  144.8440 N   0  0  0  0  0  2  0  0  0  0  0  0
  197.1800  173.6050  145.6460 N   0  0  0  0  0  2  0  0  0  0  0  0
  196.6600  172.3200  146.0770 C   0  0  0  0  0  2  0  0  0  0  0  0
  195.5320  171.8950  145.1580 C   0  0  0  0  0  2  0  0  0  0  0  0
  194.6330  170.8740  145.8340 C   0  0  0  0  0  2  0  0  0  0  0  0
  195.8030  168.9930  146.7290 O   0  0  0  0  0  1  0  0  0  0  0  0
  195.1270  169.4530  145.5970 C   0  0  1  0  0  3  0  0  0  0  0  0
  193.9420  168.5510  145.3140 C   0  0  0  0  0  2  0  0  0  0  0  0
  192.9630  169.2570  144.6150 O   0  0  0  0  0  1  0  0  0  0  0  0
  1  6  2  0  0  0  0
  2  3  1  0  0  0  0
  3  8  1  0  0  0  0
  4  3  2  0  0  0  0
  4  1  1  0  0  0  0
  6 12  1  0  0  0  0
  6  7  1  0  0  0  0
  7  9  1  0  0  0  0
  9 11  1  0  0  0  0
  9 23  1  6  0  0  0
 10 11  1  0  0  0  0
 10 40  1  1  0  0  0
 11  5  2  0  0  0  0
 12  8  1  6  0  0  0
 12 10  1  0  0  0  0
 13 22  1  0  0  0  0
 13 17  1  0  0  0  0
 15 19  1  0  0  0  0
 16 14  1  0  0  0  0
 16 20  1  0  0  0  0
 17  4  1  1  0  0  0
 18 14  1  0  0  0  0
 19 16  2  0  0  0  0
 21 18  2  0  0  0  0
 21 19  1  0  0  0  0
 22 17  1  0  0  0  0
 22 18  1  0  0  0  0
 23 25  1  6  0  0  0
 23 26  1  0  0  0  0
 24 25  1  0  0  0  0
 27 26  1  0  0  0  0
 27 28  1  0  0  0  0
 29 28  1  0  0  0  0
 30 33  1  0  0  0  0
 31 33  1  1  0  0  0
 31 37  1  0  0  0  0
 32 35  1  0  0  0  0
 32 30  2  0  0  0  0
 34 39  1  0  0  0  0
 35 36  1  1  0  0  0
 35 31  1  0  0  0  0
 36 34  2  0  0  0  0
 38 34  1  0  0  0  0
 39 37  2  0  0  0  0
 39 29  1  0  0  0  0
 40 41  1  0  0  0  0
 41 42  1  0  0  0  0
 42 43  1  0  0  0  0
 44 45  1  0  0  0  0
 44 43  1  0  0  0  0
 47 45  1  0  0  0  0
 47 46  1  1  0  0  0
 48 47  1  0  0  0  0
 49 48  1  0  0  0  0
M  END
>  <MODEL>
5

>  <REMARK>
 VINA RESULT:      -6.6      3.745      9.509
  Name = 
  16 active torsions:
  status: ('A' for Active; 'I' for Inactive)
    1  A    between atoms: N_2  and  N_38
    2  A    between atoms: N_2  and  C_42
    3  A    between atoms: C_6  and  C_19
    4  A    between atoms: C_9  and  C_22
    5  A    between atoms: C_9  and  C_39
    6  A    between atoms: C_11  and  N_30
    7  A    between atoms: C_11  and  C_43
    8  A    between atoms: C_14  and  C_31
    9  A    between atoms: C_19  and  C_26
   10  A    between atoms: C_22  and  C_47
   11  A    between atoms: N_24  and  C_39
   12  A    between atoms: N_24  and  C_48
   13  A    between atoms: C_26  and  C_43
   14  A    between atoms: N_30  and  N_38
   15  A    between atoms: C_32  and  C_47
   16  A    between atoms: C_45  and  C_47
                            x       y       z     vdW  Elec       q    Type
                         _______ _______ _______ _____ _____    ______ ____

>  <TORSDO>
F 16

$$$$
=
 OpenBabel11042414083D

 49 54  0  0  1  0  0  0  0  0999 V2000
  194.9760  175.4150  143.5870 N   0  0  0  0  0  0  0  0  0  0  0  0
  196.2800  172.1880  142.4560 F   0  0  0  0  0  0  0  0  0  0  0  0
  195.5070  173.1310  143.0500 C   0  0  0  0  0  0  0  0  0  0  0  0
  195.8410  174.4280  142.9970 C   0  0  0  0  0  0  0  0  0  0  0  0
  190.3090  174.3650  146.0280 O   0  0  0  0  0  0  0  0  0  0  0  0
  193.7850  175.1350  144.0250 C   0  0  0  0  0  0  0  0  0  0  0  0
  192.9710  176.1800  144.5530 N   0  0  0  0  0  2  0  0  0  0  0  0
  194.3220  172.6960  143.8610 C   0  0  0  0  0  2  0  0  0  0  0  0
  191.5570  175.9760  144.8590 C   0  0  2  0  0  3  0  0  0  0  0  0
  192.1660  173.4060  144.9170 C   0  0  2  0  0  3  0  0  0  0  0  0
  191.2710  174.5660  145.3040 C   0  0  0  0  0  0  0  0  0  0  0  0
  193.2100  173.7510  143.8460 C   0  0  1  0  0  3  0  0  0  0  0  0
  196.9260  176.1480  141.7770 C   0  0  0  0  0  2  0  0  0  0  0  0
  196.4060  172.8690  139.1490 S   0  0  0  0  0  0  0  0  0  0  0  0
  195.6910  175.1050  136.1370 F   0  0  0  0  0  0  0  0  0  0  0  0
  196.0300  173.1690  137.5360 C   0  0  0  0  0  0  0  0  0  0  0  0
  197.0740  174.8620  142.2580 C   0  0  2  0  0  3  0  0  0  0  0  0
  196.4990  174.5100  139.5080 C   0  0  0  0  0  0  0  0  0  0  0  0
  195.9850  174.5420  137.3340 C   0  0  0  0  0  0  0  0  0  0  0  0
  195.7660  172.1260  136.5090 C   0  0  0  0  0  1  0  0  0  0  0  0
  196.2430  175.2920  138.4370 N   0  0  0  0  0  0  0  0  0  0  0  0
  196.7700  175.0290  140.8050 N   0  0  0  0  0  0  0  0  0  0  0  0
  190.6360  176.4510  143.7280 C   0  0  2  0  0  3  0  0  0  0  0  0
  189.4410  177.7840  145.4620 C   0  0  0  0  0  1  0  0  0  0  0  0
  189.9520  177.7780  144.0360 C   0  0  0  0  0  2  0  0  0  0  0  0
  189.5900  175.3820  143.4430 C   0  0  0  0  0  2  0  0  0  0  0  0
  188.6320  175.8250  142.3490 C   0  0  0  0  0  2  0  0  0  0  0  0
  187.2910  175.1220  142.4880 C   0  0  0  0  0  2  0  0  0  0  0  0
  186.2310  176.1070  142.6540 N   0  0  0  0  0  2  0  0  0  0  0  0
  186.3450  178.3800  147.9880 C   0  0  0  0  0  3  0  0  0  0  0  0
  185.7670  177.2170  146.1970 C   0  0  1  0  0  3  0  0  0  0  0  0
  185.7770  179.2640  147.2290 N   0  0  0  0  0  0  0  0  0  0  0  0
  186.3820  177.0640  147.3530 C   0  0  0  0  0  2  0  0  0  0  0  0
  186.1590  178.4040  143.7160 C   0  0  0  0  0  0  0  0  0  0  0  0
  185.2900  178.6120  146.0260 C   0  0  1  0  0  3  0  0  0  0  0  0
  185.8700  179.1960  144.7640 C   0  0  0  0  0  3  0  0  0  0  0  0
  185.9290  176.3380  145.0390 C   0  0  0  0  0  3  0  0  0  0  0  0
  186.6550  179.0330  142.4610 C   0  0  0  0  0  1  0  0  0  0  0  0
  186.0670  176.9130  143.8280 C   0  0  0  0  0  0  0  0  0  0  0  0
  191.3580  172.2860  144.4500 N   0  0  0  0  0  2  0  0  0  0  0  0
  191.0390  172.5350  143.1070 N   0  0  0  0  0  2  0  0  0  0  0  0
  190.2270  171.4780  142.6740 N   0  0  0  0  0  2  0  0  0  0  0  0
  190.2820  171.4670  141.2240 C   0  0  0  0  0  2  0  0  0  0  0  0
  189.4140  172.5830  140.6760 C   0  0  0  0  0  2  0  0  0  0  0  0
  190.1950  173.4540  139.7050 C   0  0  0  0  0  2  0  0  0  0  0  0
  191.3470  172.3020  137.9580 O   0  0  0  0  0  1  0  0  0  0  0  0
  191.4850  172.7760  139.2640 C   0  0  1  0  0  3  0  0  0  0  0  0
  192.6210  173.7780  139.3210 C   0  0  0  0  0  2  0  0  0  0  0  0
  192.7040  174.4720  138.1130 O   0  0  0  0  0  1  0  0  0  0  0  0
  1  6  2  0  0  0  0
  2  3  1  0  0  0  0
  3  8  1  0  0  0  0
  4  3  2  0  0  0  0
  4  1  1  0  0  0  0
  6  7  1  0  0  0  0
  7  9  1  0  0  0  0
  9 23  1  6  0  0  0
  9 11  1  0  0  0  0
 10 40  1  6  0  0  0
 10 11  1  0  0  0  0
 11  5  2  0  0  0  0
 12  8  1  1  0  0  0
 12  6  1  0  0  0  0
 12 10  1  0  0  0  0
 13 17  1  0  0  0  0
 14 18  1  0  0  0  0
 15 19  1  0  0  0  0
 16 14  1  0  0  0  0
 17  4  1  1  0  0  0
 18 22  1  0  0  0  0
 19 16  2  0  0  0  0
 19 21  1  0  0  0  0
 20 16  1  0  0  0  0
 21 18  2  0  0  0  0
 22 13  1  0  0  0  0
 22 17  1  0  0  0  0
 23 26  1  1  0  0  0
 23 25  1  0  0  0  0
 25 24  1  0  0  0  0
 27 28  1  0  0  0  0
 27 26  1  0  0  0  0
 28 29  1  0  0  0  0
 29 39  1  0  0  0  0
 31 37  1  6  0  0  0
 31 33  1  0  0  0  0
 32 30  2  0  0  0  0
 33 30  1  0  0  0  0
 34 39  1  0  0  0  0
 34 36  2  0  0  0  0
 35 36  1  6  0  0  0
 35 31  1  0  0  0  0
 35 32  1  0  0  0  0
 38 34  1  0  0  0  0
 39 37  2  0  0  0  0
 41 40  1  0  0  0  0
 42 41  1  0  0  0  0
 43 42  1  0  0  0  0
 44 43  1  0  0  0  0
 45 44  1  0  0  0  0
 47 46  1  6  0  0  0
 47 48  1  0  0  0  0
 47 45  1  0  0  0  0
 49 48  1  0  0  0  0
M  END
>  <MODEL>
6

>  <REMARK>
 VINA RESULT:      -6.5      2.713      8.274
  Name = 
  16 active torsions:
  status: ('A' for Active; 'I' for Inactive)
    1  A    between atoms: N_2  and  N_38
    2  A    between atoms: N_2  and  C_42
    3  A    between atoms: C_6  and  C_19
    4  A    between atoms: C_9  and  C_22
    5  A    between atoms: C_9  and  C_39
    6  A    between atoms: C_11  and  N_30
    7  A    between atoms: C_11  and  C_43
    8  A    between atoms: C_14  and  C_31
    9  A    between atoms: C_19  and  C_26
   10  A    between atoms: C_22  and  C_47
   11  A    between atoms: N_24  and  C_39
   12  A    between atoms: N_24  and  C_48
   13  A    between atoms: C_26  and  C_43
   14  A    between atoms: N_30  and  N_38
   15  A    between atoms: C_32  and  C_47
   16  A    between atoms: C_45  and  C_47
                            x       y       z     vdW  Elec       q    Type
                         _______ _______ _______ _____ _____    ______ ____

>  <TORSDO>
F 16

$$$$
=
 OpenBabel11042414083D

 49 54  0  0  1  0  0  0  0  0999 V2000
  193.2800  175.0620  143.6580 N   0  0  0  0  0  0  0  0  0  0  0  0
  194.4840  176.3120  146.8810 F   0  0  0  0  0  0  0  0  0  0  0  0
  193.7110  176.0980  145.7870 C   0  0  0  0  0  0  0  0  0  0  0  0
  194.1400  175.3200  144.7830 C   0  0  0  0  0  0  0  0  0  0  0  0
  188.2810  176.9450  143.1020 O   0  0  0  0  0  0  0  0  0  0  0  0
  192.0270  175.4050  143.6380 C   0  0  0  0  0  0  0  0  0  0  0  0
  191.2290  175.0720  142.5040 N   0  0  0  0  0  2  0  0  0  0  0  0
  192.4060  176.8260  145.6630 C   0  0  0  0  0  2  0  0  0  0  0  0
  189.7770  175.2330  142.5080 C   0  0  2  0  0  3  0  0  0  0  0  0
  190.1900  176.9180  144.5010 C   0  0  2  0  0  3  0  0  0  0  0  0
  189.3380  176.3930  143.3640 C   0  0  0  0  0  0  0  0  0  0  0  0
  191.3820  176.0190  144.8570 C   0  0  1  0  0  3  0  0  0  0  0  0
  196.0440  174.5360  143.6070 C   0  0  0  0  0  2  0  0  0  0  0  0
  194.1820  171.1730  145.3810 S   0  0  0  0  0  0  0  0  0  0  0  0
  194.9530  168.8960  142.4140 F   0  0  0  0  0  0  0  0  0  0  0  0
  194.1500  169.7180  144.5360 C   0  0  0  0  0  0  0  0  0  0  0  0
  195.4840  174.6540  144.8630 C   0  0  2  0  0  3  0  0  0  0  0  0
  195.0530  171.9440  144.1660 C   0  0  0  0  0  0  0  0  0  0  0  0
  194.8180  169.8850  143.3300 C   0  0  0  0  0  0  0  0  0  0  0  0
  193.4890  168.4700  145.0020 C   0  0  0  0  0  1  0  0  0  0  0  0
  195.3200  171.1310  143.1220 N   0  0  0  0  0  0  0  0  0  0  0  0
  195.4340  173.3140  144.2040 N   0  0  0  0  0  0  0  0  0  0  0  0
  189.0410  173.9280  142.8380 C   0  0  2  0  0  3  0  0  0  0  0  0
  189.8390  172.4000  144.6390 C   0  0  0  0  0  1  0  0  0  0  0  0
  189.9870  172.7830  143.1810 C   0  0  0  0  0  2  0  0  0  0  0  0
  188.1550  173.5350  141.6650 C   0  0  0  0  0  2  0  0  0  0  0  0
  188.4130  174.4220  140.4580 C   0  0  0  0  0  2  0  0  0  0  0  0
  188.6340  173.5830  139.2080 C   0  0  0  0  0  2  0  0  0  0  0  0
  189.4430  172.4160  139.5320 N   0  0  0  0  0  2  0  0  0  0  0  0
  195.0430  173.7750  140.1810 C   0  0  0  0  0  3  0  0  0  0  0  0
  193.0240  173.4770  139.3250 C   0  0  1  0  0  3  0  0  0  0  0  0
  195.0030  172.5010  139.9450 N   0  0  0  0  0  0  0  0  0  0  0  0
  193.7870  174.4310  139.8220 C   0  0  0  0  0  2  0  0  0  0  0  0
  191.5970  171.2420  140.1520 C   0  0  0  0  0  0  0  0  0  0  0  0
  193.7350  172.1740  139.3180 C   0  0  1  0  0  3  0  0  0  0  0  0
  192.9380  171.1570  140.0940 C   0  0  0  0  0  3  0  0  0  0  0  0
  191.5640  173.5310  139.2400 C   0  0  0  0  0  3  0  0  0  0  0  0
  190.8450  170.1710  140.8630 C   0  0  0  0  0  1  0  0  0  0  0  0
  190.8750  172.4280  139.5920 C   0  0  0  0  0  0  0  0  0  0  0  0
  189.3700  177.1120  145.6900 N   0  0  0  0  0  2  0  0  0  0  0  0
  188.9600  175.8440  146.1250 N   0  0  0  0  0  2  0  0  0  0  0  0
  187.9810  176.0430  147.1080 N   0  0  0  0  0  2  0  0  0  0  0  0
  187.2420  177.2340  146.7350 C   0  0  0  0  0  2  0  0  0  0  0  0
  185.8270  177.1420  147.2750 C   0  0  0  0  0  2  0  0  0  0  0  0
  184.8070  177.3270  146.1640 C   0  0  0  0  0  2  0  0  0  0  0  0
  185.0550  177.3660  143.7890 O   0  0  0  0  0  1  0  0  0  0  0  0
  185.4170  178.0330  144.9610 C   0  0  1  0  0  3  0  0  0  0  0  0
  184.9090  179.4600  144.9070 C   0  0  0  0  0  2  0  0  0  0  0  0
  185.5670  180.1610  143.8960 O   0  0  0  0  0  1  0  0  0  0  0  0
  1  4  1  0  0  0  0
  3  2  1  0  0  0  0
  4  3  2  0  0  0  0
  5 11  2  0  0  0  0
  6  1  2  0  0  0  0
  6 12  1  0  0  0  0
  7  9  1  0  0  0  0
  7  6  1  0  0  0  0
  8  3  1  0  0  0  0
  9 23  1  1  0  0  0
  9 11  1  0  0  0  0
 10 12  1  0  0  0  0
 10 40  1  1  0  0  0
 11 10  1  0  0  0  0
 12  8  1  6  0  0  0
 13 22  1  0  0  0  0
 13 17  1  0  0  0  0
 15 19  1  0  0  0  0
 16 20  1  0  0  0  0
 16 14  1  0  0  0  0
 17  4  1  6  0  0  0
 18 22  1  0  0  0  0
 18 14  1  0  0  0  0
 19 16  2  0  0  0  0
 21 19  1  0  0  0  0
 21 18  2  0  0  0  0
 22 17  1  0  0  0  0
 23 26  1  6  0  0  0
 23 25  1  0  0  0  0
 25 24  1  0  0  0  0
 27 26  1  0  0  0  0
 28 29  1  0  0  0  0
 28 27  1  0  0  0  0
 29 39  1  0  0  0  0
 31 37  1  1  0  0  0
 31 33  1  0  0  0  0
 32 30  2  0  0  0  0
 33 30  1  0  0  0  0
 34 38  1  0  0  0  0
 35 31  1  0  0  0  0
 35 32  1  0  0  0  0
 35 36  1  1  0  0  0
 36 34  2  0  0  0  0
 37 39  2  0  0  0  0
 39 34  1  0  0  0  0
 40 41  1  0  0  0  0
 41 42  1  0  0  0  0
 43 42  1  0  0  0  0
 43 44  1  0  0  0  0
 45 44  1  0  0  0  0
 47 46  1  6  0  0  0
 47 45  1  0  0  0  0
 48 47  1  0  0  0  0
 49 48  1  0  0  0  0
M  END
>  <MODEL>
7

>  <REMARK>
 VINA RESULT:      -6.5      2.500      3.465
  Name = 
  16 active torsions:
  status: ('A' for Active; 'I' for Inactive)
    1  A    between atoms: N_2  and  N_38
    2  A    between atoms: N_2  and  C_42
    3  A    between atoms: C_6  and  C_19
    4  A    between atoms: C_9  and  C_22
    5  A    between atoms: C_9  and  C_39
    6  A    between atoms: C_11  and  N_30
    7  A    between atoms: C_11  and  C_43
    8  A    between atoms: C_14  and  C_31
    9  A    between atoms: C_19  and  C_26
   10  A    between atoms: C_22  and  C_47
   11  A    between atoms: N_24  and  C_39
   12  A    between atoms: N_24  and  C_48
   13  A    between atoms: C_26  and  C_43
   14  A    between atoms: N_30  and  N_38
   15  A    between atoms: C_32  and  C_47
   16  A    between atoms: C_45  and  C_47
                            x       y       z     vdW  Elec       q    Type
                         _______ _______ _______ _____ _____    ______ ____

>  <TORSDO>
F 16

$$$$
=
 OpenBabel11042414083D

 49 54  0  0  1  0  0  0  0  0999 V2000
  191.0950  175.5270  144.5320 N   0  0  0  0  0  0  0  0  0  0  0  0
  189.9290  177.5800  147.3280 F   0  0  0  0  0  0  0  0  0  0  0  0
  190.0440  177.0210  146.0980 C   0  0  0  0  0  0  0  0  0  0  0  0
  191.0260  176.1490  145.8280 C   0  0  0  0  0  0  0  0  0  0  0  0
  187.6150  176.3490  140.5250 O   0  0  0  0  0  0  0  0  0  0  0  0
  190.1470  175.6320  143.6500 C   0  0  0  0  0  0  0  0  0  0  0  0
  190.2700  174.9460  142.4060 N   0  0  0  0  0  2  0  0  0  0  0  0
  189.1200  177.4690  145.0040 C   0  0  0  0  0  2  0  0  0  0  0  0
  189.1560  174.8450  141.4660 C   0  0  2  0  0  3  0  0  0  0  0  0
  188.1730  176.9360  142.7490 C   0  0  2  0  0  3  0  0  0  0  0  0
  188.2590  176.0550  141.5190 C   0  0  0  0  0  0  0  0  0  0  0  0
  188.8630  176.3500  143.9880 C   0  0  1  0  0  3  0  0  0  0  0  0
  192.9010  176.7860  147.1330 C   0  0  0  0  0  2  0  0  0  0  0  0
  194.0860  173.5040  144.7340 S   0  0  0  0  0  0  0  0  0  0  0  0
  197.6010  174.8900  144.1770 F   0  0  0  0  0  0  0  0  0  0  0  0
  195.6430  173.4800  144.0980 C   0  0  0  0  0  0  0  0  0  0  0  0
  192.0070  175.7600  146.8950 C   0  0  2  0  0  3  0  0  0  0  0  0
  194.3590  174.9570  145.5380 C   0  0  0  0  0  0  0  0  0  0  0  0
  196.3230  174.6120  144.5320 C   0  0  0  0  0  0  0  0  0  0  0  0
  196.1860  172.4280  143.1980 C   0  0  0  0  0  1  0  0  0  0  0  0
  195.6030  175.4390  145.3340 N   0  0  0  0  0  0  0  0  0  0  0  0
  193.3770  175.6350  146.3140 N   0  0  0  0  0  0  0  0  0  0  0  0
  188.3910  173.5220  141.6000 C   0  0  2  0  0  3  0  0  0  0  0  0
  189.7440  171.5380  142.2690 C   0  0  0  0  0  1  0  0  0  0  0  0
  188.8740  172.6730  142.7700 C   0  0  0  0  0  2  0  0  0  0  0  0
  188.5110  172.7340  140.3030 C   0  0  0  0  0  2  0  0  0  0  0  0
  189.2110  173.5480  139.2260 C   0  0  0  0  0  2  0  0  0  0  0  0
  188.3240  173.7000  138.0000 C   0  0  0  0  0  2  0  0  0  0  0  0
  189.1260  173.5790  136.7910 N   0  0  0  0  0  2  0  0  0  0  0  0
  192.6210  169.2700  135.1030 C   0  0  0  0  0  3  0  0  0  0  0  0
  191.0470  170.4370  136.1320 C   0  0  1  0  0  3  0  0  0  0  0  0
  193.2820  169.9490  135.9870 N   0  0  0  0  0  0  0  0  0  0  0  0
  191.1920  169.5730  135.1470 C   0  0  0  0  0  2  0  0  0  0  0  0
  191.6080  173.0890  136.7390 C   0  0  0  0  0  0  0  0  0  0  0  0
  192.3490  170.7270  136.7830 C   0  0  1  0  0  3  0  0  0  0  0  0
  192.6240  172.2070  136.7350 C   0  0  0  0  0  3  0  0  0  0  0  0
  189.9180  171.3560  136.2830 C   0  0  0  0  0  3  0  0  0  0  0  0
  191.9270  174.5440  136.7700 C   0  0  0  0  0  1  0  0  0  0  0  0
  190.1870  172.6300  136.6280 C   0  0  0  0  0  0  0  0  0  0  0  0
  186.7780  177.2130  143.0670 N   0  0  0  0  0  2  0  0  0  0  0  0
  186.5650  178.5820  142.8460 N   0  0  0  0  0  2  0  0  0  0  0  0
  185.2180  178.8400  143.1340 N   0  0  0  0  0  2  0  0  0  0  0  0
  185.1920  179.8950  144.1310 C   0  0  0  0  0  2  0  0  0  0  0  0
  185.6030  179.3300  145.4770 C   0  0  0  0  0  2  0  0  0  0  0  0
  184.4250  178.6670  146.1720 C   0  0  0  0  0  2  0  0  0  0  0  0
  185.2030  176.4610  145.6860 O   0  0  0  0  0  1  0  0  0  0  0  0
  184.8040  177.3010  146.7280 C   0  0  1  0  0  3  0  0  0  0  0  0
  185.9450  177.4610  147.7130 C   0  0  0  0  0  2  0  0  0  0  0  0
  186.9030  176.4700  147.4970 O   0  0  0  0  0  1  0  0  0  0  0  0
  1  4  1  0  0  0  0
  3  2  1  0  0  0  0
  4  3  2  0  0  0  0
  5 11  2  0  0  0  0
  6 12  1  0  0  0  0
  6  1  2  0  0  0  0
  7  6  1  0  0  0  0
  8  3  1  0  0  0  0
  9 11  1  0  0  0  0
  9 23  1  1  0  0  0
  9  7  1  0  0  0  0
 10 40  1  1  0  0  0
 10 12  1  0  0  0  0
 11 10  1  0  0  0  0
 12  8  1  1  0  0  0
 14 18  1  0  0  0  0
 15 19  1  0  0  0  0
 16 19  2  0  0  0  0
 16 14  1  0  0  0  0
 17  4  1  6  0  0  0
 17 13  1  0  0  0  0
 18 22  1  0  0  0  0
 19 21  1  0  0  0  0
 20 16  1  0  0  0  0
 21 18  2  0  0  0  0
 22 17  1  0  0  0  0
 22 13  1  0  0  0  0
 23 26  1  6  0  0  0
 23 25  1  0  0  0  0
 24 25  1  0  0  0  0
 27 26  1  0  0  0  0
 28 27  1  0  0  0  0
 29 28  1  0  0  0  0
 30 33  1  0  0  0  0
 30 32  2  0  0  0  0
 31 33  1  6  0  0  0
 31 37  1  0  0  0  0
 31 35  1  0  0  0  0
 32 35  1  0  0  0  0
 34 38  1  0  0  0  0
 35 36  1  6  0  0  0
 36 34  2  0  0  0  0
 37 39  2  0  0  0  0
 39 34  1  0  0  0  0
 39 29  1  0  0  0  0
 41 40  1  0  0  0  0
 41 42  1  0  0  0  0
 42 43  1  0  0  0  0
 43 44  1  0  0  0  0
 44 45  1  0  0  0  0
 45 47  1  0  0  0  0
 47 46  1  6  0  0  0
 47 48  1  0  0  0  0
 49 48  1  0  0  0  0
M  END
>  <MODEL>
8

>  <REMARK>
 VINA RESULT:      -6.4      2.119      3.229
  Name = 
  16 active torsions:
  status: ('A' for Active; 'I' for Inactive)
    1  A    between atoms: N_2  and  N_38
    2  A    between atoms: N_2  and  C_42
    3  A    between atoms: C_6  and  C_19
    4  A    between atoms: C_9  and  C_22
    5  A    between atoms: C_9  and  C_39
    6  A    between atoms: C_11  and  N_30
    7  A    between atoms: C_11  and  C_43
    8  A    between atoms: C_14  and  C_31
    9  A    between atoms: C_19  and  C_26
   10  A    between atoms: C_22  and  C_47
   11  A    between atoms: N_24  and  C_39
   12  A    between atoms: N_24  and  C_48
   13  A    between atoms: C_26  and  C_43
   14  A    between atoms: N_30  and  N_38
   15  A    between atoms: C_32  and  C_47
   16  A    between atoms: C_45  and  C_47
                            x       y       z     vdW  Elec       q    Type
                         _______ _______ _______ _____ _____    ______ ____

>  <TORSDO>
F 16

$$$$
=
 OpenBabel11042414083D

 49 54  0  0  1  0  0  0  0  0999 V2000
  194.3660  175.2810  141.0450 N   0  0  0  0  0  0  0  0  0  0  0  0
  195.7220  171.9720  140.2630 F   0  0  0  0  0  0  0  0  0  0  0  0
  195.2970  173.0640  140.9460 C   0  0  0  0  0  0  0  0  0  0  0  0
  194.8630  174.1550  140.2980 C   0  0  0  0  0  0  0  0  0  0  0  0
  194.0050  175.5180  146.3970 O   0  0  0  0  0  0  0  0  0  0  0  0
  194.1490  175.2350  142.3250 C   0  0  0  0  0  0  0  0  0  0  0  0
  193.6090  176.3790  142.9830 N   0  0  0  0  0  2  0  0  0  0  0  0
  195.4150  173.0800  142.4420 C   0  0  0  0  0  2  0  0  0  0  0  0
  193.1420  176.3240  144.3670 C   0  0  2  0  0  3  0  0  0  0  0  0
  194.6640  174.1730  144.5650 C   0  0  2  0  0  3  0  0  0  0  0  0
  193.9290  175.3410  145.1920 C   0  0  0  0  0  0  0  0  0  0  0  0
  194.3240  173.9430  143.0850 C   0  0  1  0  0  3  0  0  0  0  0  0
  194.1540  175.2970  138.3450 C   0  0  0  0  0  2  0  0  0  0  0  0
  192.1510  171.5680  138.4250 S   0  0  0  0  0  0  0  0  0  0  0  0
  188.9200  173.0150  136.9930 F   0  0  0  0  0  0  0  0  0  0  0  0
  190.5560  171.4880  137.8960 C   0  0  0  0  0  0  0  0  0  0  0  0
  194.8220  174.1770  138.7980 C   0  0  2  0  0  3  0  0  0  0  0  0
  192.2620  173.2090  138.0730 C   0  0  0  0  0  0  0  0  0  0  0  0
  190.1620  172.7480  137.4660 C   0  0  0  0  0  0  0  0  0  0  0  0
  189.7060  170.2670  137.9140 C   0  0  0  0  0  1  0  0  0  0  0  0
  191.1150  173.7120  137.5690 N   0  0  0  0  0  0  0  0  0  0  0  0
  193.4180  174.0010  138.3190 N   0  0  0  0  0  0  0  0  0  0  0  0
  191.6250  176.1180  144.4670 C   0  0  2  0  0  3  0  0  0  0  0  0
  190.6550  178.2930  143.7310 C   0  0  0  0  0  1  0  0  0  0  0  0
  190.8540  176.8360  143.3660 C   0  0  0  0  0  2  0  0  0  0  0  0
  191.1390  176.5870  145.8320 C   0  0  0  0  0  2  0  0  0  0  0  0
  190.5280  175.4420  146.6220 C   0  0  0  0  0  2  0  0  0  0  0  0
  189.0160  175.4150  146.4560 C   0  0  0  0  0  2  0  0  0  0  0  0
  188.4660  176.7380  146.7150 N   0  0  0  0  0  2  0  0  0  0  0  0
  184.4170  178.0350  142.7710 C   0  0  0  0  0  3  0  0  0  0  0  0
  186.3580  177.7590  143.7980 C   0  0  1  0  0  3  0  0  0  0  0  0
  184.4750  179.0480  143.5790 N   0  0  0  0  0  0  0  0  0  0  0  0
  185.5910  177.1740  142.8990 C   0  0  0  0  0  2  0  0  0  0  0  0
  186.4440  178.2500  146.5310 C   0  0  0  0  0  0  0  0  0  0  0  0
  185.7450  179.0200  144.2840 C   0  0  1  0  0  3  0  0  0  0  0  0
  185.5870  178.9650  145.7810 C   0  0  0  0  0  3  0  0  0  0  0  0
  187.3970  177.0860  144.5790 C   0  0  0  0  0  3  0  0  0  0  0  0
  186.2990  178.2870  148.0130 C   0  0  0  0  0  1  0  0  0  0  0  0
  187.4710  177.3640  145.8950 C   0  0  0  0  0  0  0  0  0  0  0  0
  194.3910  172.9520  145.3110 N   0  0  0  0  0  2  0  0  0  0  0  0
  193.0770  172.5650  145.0090 N   0  0  0  0  0  2  0  0  0  0  0  0
  193.1070  171.1930  144.7290 N   0  0  0  0  0  2  0  0  0  0  0  0
  192.5000  171.0130  143.4220 C   0  0  0  0  0  2  0  0  0  0  0  0
  191.0210  171.3410  143.5010 C   0  0  0  0  0  2  0  0  0  0  0  0
  190.3850  171.3250  142.1210 C   0  0  0  0  0  2  0  0  0  0  0  0
  188.8930  172.6120  140.7720 O   0  0  0  0  0  1  0  0  0  0  0  0
  189.9280  172.7160  141.7030 C   0  0  1  0  0  3  0  0  0  0  0  0
  189.4370  173.4690  142.9230 C   0  0  0  0  0  2  0  0  0  0  0  0
  188.4390  174.3720  142.5540 O   0  0  0  0  0  1  0  0  0  0  0  0
  1  6  2  0  0  0  0
  2  3  1  0  0  0  0
  3  8  1  0  0  0  0
  4  3  2  0  0  0  0
  4  1  1  0  0  0  0
  6  7  1  0  0  0  0
  6 12  1  0  0  0  0
  7  9  1  0  0  0  0
  9 23  1  6  0  0  0
  9 11  1  0  0  0  0
 10 11  1  0  0  0  0
 10 40  1  1  0  0  0
 11  5  2  0  0  0  0
 12  8  1  6  0  0  0
 12 10  1  0  0  0  0
 13 17  1  0  0  0  0
 15 19  1  0  0  0  0
 16 20  1  0  0  0  0
 16 14  1  0  0  0  0
 17  4  1  1  0  0  0
 18 22  1  0  0  0  0
 18 14  1  0  0  0  0
 19 21  1  0  0  0  0
 19 16  2  0  0  0  0
 21 18  2  0  0  0  0
 22 13  1  0  0  0  0
 22 17  1  0  0  0  0
 23 25  1  6  0  0  0
 23 26  1  0  0  0  0
 25 24  1  0  0  0  0
 26 27  1  0  0  0  0
 28 27  1  0  0  0  0
 28 29  1  0  0  0  0
 30 33  1  0  0  0  0
 30 32  2  0  0  0  0
 31 33  1  1  0  0  0
 31 35  1  0  0  0  0
 31 37  1  0  0  0  0
 32 35  1  0  0  0  0
 34 38  1  0  0  0  0
 35 36  1  1  0  0  0
 36 34  2  0  0  0  0
 37 39  2  0  0  0  0
 39 34  1  0  0  0  0
 39 29  1  0  0  0  0
 41 40  1  0  0  0  0
 42 41  1  0  0  0  0
 43 44  1  0  0  0  0
 43 42  1  0  0  0  0
 45 44  1  0  0  0  0
 47 46  1  6  0  0  0
 47 45  1  0  0  0  0
 47 48  1  0  0  0  0
 49 48  1  0  0  0  0
M  END
>  <MODEL>
9

>  <REMARK>
 VINA RESULT:      -6.4      3.089      8.899
  Name = 
  16 active torsions:
  status: ('A' for Active; 'I' for Inactive)
    1  A    between atoms: N_2  and  N_38
    2  A    between atoms: N_2  and  C_42
    3  A    between atoms: C_6  and  C_19
    4  A    between atoms: C_9  and  C_22
    5  A    between atoms: C_9  and  C_39
    6  A    between atoms: C_11  and  N_30
    7  A    between atoms: C_11  and  C_43
    8  A    between atoms: C_14  and  C_31
    9  A    between atoms: C_19  and  C_26
   10  A    between atoms: C_22  and  C_47
   11  A    between atoms: N_24  and  C_39
   12  A    between atoms: N_24  and  C_48
   13  A    between atoms: C_26  and  C_43
   14  A    between atoms: N_30  and  N_38
   15  A    between atoms: C_32  and  C_47
   16  A    between atoms: C_45  and  C_47
                            x       y       z     vdW  Elec       q    Type
                         _______ _______ _______ _____ _____    ______ ____

>  <TORSDO>
F 16

$$$$
