=
 OpenBabel11042416553D

 35 39  0  0  1  0  0  0  0  0999 V2000
  191.6630  175.2180  144.2990 C   0  0  0  0  0  0  0  0  0  0  0  0
  192.6840  174.2450  142.3180 C   0  0  0  0  0  3  0  0  0  0  0  0
  190.4140  173.6450  142.9240 C   0  0  0  0  0  0  0  0  0  0  0  0
  190.4980  174.4910  144.0330 C   0  0  0  0  0  3  0  0  0  0  0  0
  191.5170  173.5240  142.0660 C   0  0  0  0  0  3  0  0  0  0  0  0
  192.7730  175.0940  143.4300 C   0  0  0  0  0  0  0  0  0  0  0  0
  185.3900  177.2520  145.5110 C   0  0  0  0  0  2  0  0  0  0  0  0
  186.0020  177.4770  144.1560 C   0  0  0  0  0  0  0  0  0  0  0  0
  190.6540  175.3260  147.6230 N   0  0  0  0  0  2  0  0  0  0  0  0
  189.9070  176.4930  147.1680 C   0  0  1  0  0  3  0  0  0  0  0  0
  189.6010  177.3480  144.8730 C   0  0  0  0  0  3  0  0  0  0  0  0
  191.6720  176.0840  145.5330 C   0  0  1  0  0  3  0  0  0  0  0  0
  186.2930  176.5500  146.3660 O   0  0  0  0  0  0  0  0  0  0  0  0
  190.3890  176.7710  145.7940 C   0  0  0  0  0  0  0  0  0  0  0  0
  187.6640  176.8140  146.3280 C   0  0  0  0  0  0  0  0  0  0  0  0
  188.2060  177.7560  145.2680 C   0  0  2  0  0  3  0  0  0  0  0  0
  187.3180  177.7170  144.0580 C   0  0  0  0  0  3  0  0  0  0  0  0
  191.8680  175.2510  146.7980 C   0  0  0  0  0  2  0  0  0  0  0  0
  188.4670  176.2230  147.1680 N   0  0  0  0  0  0  0  0  0  0  0  0
  183.9610  178.2360  142.8010 C   0  0  0  0  0  0  0  0  0  0  0  0
  185.1480  177.4570  143.0040 N   0  0  0  0  0  2  0  0  0  0  0  0
  183.5740  179.0730  143.6580 O   0  0  0  0  0  1  0  0  0  0  0  0
  183.2300  178.0700  141.6330 O   0  0  0  0  0  0  0  0  0  0  0  0
  193.9370  175.8370  143.6680 O   0  0  0  0  0  0  0  0  0  0  0  0
  196.2050  175.5340  143.1570 C   0  0  0  0  0  3  0  0  0  0  0  0
  195.1860  175.2880  143.9870 C   0  0  0  0  0  0  0  0  0  0  0  0
  196.7980  174.0560  145.5000 C   0  0  0  0  0  0  0  0  0  0  0  0
  195.3790  174.4890  145.2610 C   0  0  0  0  0  2  0  0  0  0  0  0
  197.5700  175.0510  143.4240 C   0  0  0  0  0  3  0  0  0  0  0  0
  197.8520  174.3590  144.5250 C   0  0  0  0  0  3  0  0  0  0  0  0
  197.0850  173.4170  146.5450 O   0  0  0  0  0  0  0  0  0  0  0  0
  189.2280  172.9370  142.7010 O   0  0  0  0  0  0  0  0  0  0  0  0
  188.2760  173.3000  141.7050 C   0  0  0  0  0  2  0  0  0  0  0  0
  188.1020  175.7100  141.1040 C   0  0  0  0  0  1  0  0  0  0  0  0
  187.6180  174.6280  142.0480 C   0  0  0  0  0  2  0  0  0  0  0  0
  2  6  1  0  0  0  0
  3  4  2  0  0  0  0
  4  1  1  0  0  0  0
  5  2  2  0  0  0  0
  5  3  1  0  0  0  0
  6 24  1  0  0  0  0
  6  1  2  0  0  0  0
  7 13  1  0  0  0  0
  8  7  1  0  0  0  0
 10 14  1  6  0  0  0
 10  9  1  0  0  0  0
 11 16  1  0  0  0  0
 11 14  2  0  0  0  0
 12  1  1  6  0  0  0
 12 14  1  0  0  0  0
 12 18  1  0  0  0  0
 15 13  1  0  0  0  0
 15 19  2  0  0  0  0
 16 17  1  6  0  0  0
 16 15  1  0  0  0  0
 17  8  2  0  0  0  0
 18  9  1  0  0  0  0
 19 10  1  0  0  0  0
 20 21  1  0  0  0  0
 20 22  1  0  0  0  0
 21  8  1  0  0  0  0
 23 20  2  0  0  0  0
 24 26  1  0  0  0  0
 25 29  1  0  0  0  0
 25 26  2  0  0  0  0
 26 28  1  0  0  0  0
 27 31  2  0  0  0  0
 28 27  1  0  0  0  0
 29 30  2  0  0  0  0
 30 27  1  0  0  0  0
 32  3  1  0  0  0  0
 33 35  1  0  0  0  0
 33 32  1  0  0  0  0
 34 35  1  0  0  0  0
M  END
>  <MODEL>
1

>  <REMARK>
 VINA RESULT:      -7.7      0.000      0.000
  Name = 
  7 active torsions:
  status: ('A' for Active; 'I' for Inactive)
    1  A    between atoms: C_2  and  C_14
    2  A    between atoms: C_5  and  C_23
    3  A    between atoms: O_6  and  C_7
    4  A    between atoms: O_6  and  C_29
    5  A    between atoms: C_8  and  N_17
    6  A    between atoms: C_14  and  O_31
    7  A    between atoms: C_15  and  O_31
                            x       y       z     vdW  Elec       q    Type
                         _______ _______ _______ _____ _____    ______ ____

>  <TORSDO>
F 7

$$$$
=
 OpenBabel11042416553D

 35 39  0  0  1  0  0  0  0  0999 V2000
  189.9700  175.5010  143.6560 C   0  0  0  0  0  0  0  0  0  0  0  0
  190.0890  177.8920  143.2290 C   0  0  0  0  0  3  0  0  0  0  0  0
  192.1280  176.5830  143.3440 C   0  0  0  0  0  0  0  0  0  0  0  0
  191.3650  175.4380  143.5890 C   0  0  0  0  0  3  0  0  0  0  0  0
  191.4810  177.8140  143.1660 C   0  0  0  0  0  3  0  0  0  0  0  0
  189.3210  176.7440  143.4740 C   0  0  0  0  0  0  0  0  0  0  0  0
  189.8200  171.8020  138.0650 C   0  0  0  0  0  2  0  0  0  0  0  0
  189.3340  173.2240  138.0350 C   0  0  0  0  0  0  0  0  0  0  0  0
  190.3980  172.0710  144.0210 N   0  0  0  0  0  2  0  0  0  0  0  0
  189.4470  172.0190  142.9170 C   0  0  1  0  0  3  0  0  0  0  0  0
  188.5330  173.8680  141.5620 C   0  0  0  0  0  3  0  0  0  0  0  0
  189.2320  174.2190  143.9510 C   0  0  1  0  0  3  0  0  0  0  0  0
  190.3150  171.4610  139.3610 O   0  0  0  0  0  0  0  0  0  0  0  0
  188.9430  173.4040  142.7520 C   0  0  0  0  0  0  0  0  0  0  0  0
  189.6850  171.9370  140.5140 C   0  0  0  0  0  0  0  0  0  0  0  0
  188.5510  172.9380  140.3770 C   0  0  2  0  0  3  0  0  0  0  0  0
  188.7370  173.7400  139.1200 C   0  0  0  0  0  3  0  0  0  0  0  0
  190.0760  173.2740  144.8030 C   0  0  0  0  0  2  0  0  0  0  0  0
  190.0980  171.5540  141.6890 N   0  0  0  0  0  0  0  0  0  0  0  0
  190.6960  174.6180  136.3670 C   0  0  0  0  0  0  0  0  0  0  0  0
  189.4960  173.9820  136.8280 N   0  0  0  0  0  2  0  0  0  0  0  0
  191.7740  174.5250  137.0120 O   0  0  0  0  0  1  0  0  0  0  0  0
  190.6700  175.3430  135.1840 O   0  0  0  0  0  0  0  0  0  0  0  0
  187.9220  176.8190  143.5120 O   0  0  0  0  0  0  0  0  0  0  0  0
  186.4910  178.5790  144.1030 C   0  0  0  0  0  3  0  0  0  0  0  0
  187.1830  177.5010  144.4870 C   0  0  0  0  0  0  0  0  0  0  0  0
  186.2160  177.7860  146.8090 C   0  0  0  0  0  0  0  0  0  0  0  0
  187.1300  176.9960  145.9150 C   0  0  0  0  0  2  0  0  0  0  0  0
  185.6390  179.3390  145.0330 C   0  0  0  0  0  3  0  0  0  0  0  0
  185.5060  178.9670  146.3040 C   0  0  0  0  0  3  0  0  0  0  0  0
  186.0650  177.4360  148.0070 O   0  0  0  0  0  0  0  0  0  0  0  0
  193.5210  176.4700  143.2870 O   0  0  0  0  0  0  0  0  0  0  0  0
  194.3070  175.9450  144.3530 C   0  0  0  0  0  2  0  0  0  0  0  0
  193.7530  176.6020  146.6900 C   0  0  0  0  0  1  0  0  0  0  0  0
  194.5120  176.9910  145.4370 C   0  0  0  0  0  2  0  0  0  0  0  0
  2  6  1  0  0  0  0
  3  4  2  0  0  0  0
  4  1  1  0  0  0  0
  5  2  2  0  0  0  0
  5  3  1  0  0  0  0
  6 24  1  0  0  0  0
  6  1  2  0  0  0  0
  7 13  1  0  0  0  0
  8  7  1  0  0  0  0
  8 17  2  0  0  0  0
  9 18  1  0  0  0  0
 10 19  1  6  0  0  0
 10  9  1  0  0  0  0
 11 14  2  0  0  0  0
 12  1  1  6  0  0  0
 12 18  1  0  0  0  0
 13 15  1  0  0  0  0
 14 10  1  0  0  0  0
 14 12  1  0  0  0  0
 15 19  2  0  0  0  0
 16 17  1  6  0  0  0
 16 15  1  0  0  0  0
 16 11  1  0  0  0  0
 20 21  1  0  0  0  0
 20 22  1  0  0  0  0
 21  8  1  0  0  0  0
 23 20  2  0  0  0  0
 24 26  1  0  0  0  0
 25 26  2  0  0  0  0
 25 29  1  0  0  0  0
 26 28  1  0  0  0  0
 27 31  2  0  0  0  0
 28 27  1  0  0  0  0
 29 30  2  0  0  0  0
 30 27  1  0  0  0  0
 32  3  1  0  0  0  0
 32 33  1  0  0  0  0
 33 35  1  0  0  0  0
 35 34  1  0  0  0  0
M  END
>  <MODEL>
2

>  <REMARK>
 VINA RESULT:      -7.7      3.408      7.894
  Name = 
  7 active torsions:
  status: ('A' for Active; 'I' for Inactive)
    1  A    between atoms: C_2  and  C_14
    2  A    between atoms: C_5  and  C_23
    3  A    between atoms: O_6  and  C_7
    4  A    between atoms: O_6  and  C_29
    5  A    between atoms: C_8  and  N_17
    6  A    between atoms: C_14  and  O_31
    7  A    between atoms: C_15  and  O_31
                            x       y       z     vdW  Elec       q    Type
                         _______ _______ _______ _____ _____    ______ ____

>  <TORSDO>
F 7

$$$$
=
 OpenBabel11042416553D

 35 39  0  0  1  0  0  0  0  0999 V2000
  190.1360  175.8690  144.0480 C   0  0  0  0  0  0  0  0  0  0  0  0
  190.4960  178.2570  143.7570 C   0  0  0  0  0  3  0  0  0  0  0  0
  192.2860  176.6960  143.2610 C   0  0  0  0  0  0  0  0  0  0  0  0
  191.4470  175.6380  143.6200 C   0  0  0  0  0  3  0  0  0  0  0  0
  191.8020  178.0110  143.3340 C   0  0  0  0  0  3  0  0  0  0  0  0
  189.6520  177.1960  144.1180 C   0  0  0  0  0  0  0  0  0  0  0  0
  189.5700  171.8470  138.7130 C   0  0  0  0  0  2  0  0  0  0  0  0
  189.1900  173.2970  138.6010 C   0  0  0  0  0  0  0  0  0  0  0  0
  190.3190  172.4460  144.6250 N   0  0  0  0  0  2  0  0  0  0  0  0
  189.3390  172.3970  143.5460 C   0  0  1  0  0  3  0  0  0  0  0  0
  188.5290  174.2200  142.0940 C   0  0  0  0  0  3  0  0  0  0  0  0
  189.3140  174.6670  144.4400 C   0  0  1  0  0  3  0  0  0  0  0  0
  190.0710  171.5520  140.0170 O   0  0  0  0  0  0  0  0  0  0  0  0
  188.9340  173.8020  143.3030 C   0  0  0  0  0  0  0  0  0  0  0  0
  189.5080  172.1460  141.1490 C   0  0  0  0  0  0  0  0  0  0  0  0
  188.4490  173.2190  140.9720 C   0  0  2  0  0  3  0  0  0  0  0  0
  188.6610  173.9240  139.6630 C   0  0  0  0  0  3  0  0  0  0  0  0
  190.1060  173.7170  145.3340 C   0  0  0  0  0  2  0  0  0  0  0  0
  189.9220  171.8080  142.3390 N   0  0  0  0  0  0  0  0  0  0  0  0
  190.6220  174.3770  136.7680 C   0  0  0  0  0  0  0  0  0  0  0  0
  189.3760  173.9630  137.3440 N   0  0  0  0  0  2  0  0  0  0  0  0
  191.7180  174.1420  137.3420 O   0  0  0  0  0  1  0  0  0  0  0  0
  190.6200  175.0420  135.5490 O   0  0  0  0  0  0  0  0  0  0  0  0
  188.3310  177.4420  144.5190 O   0  0  0  0  0  0  0  0  0  0  0  0
  186.0290  177.7300  144.1890 C   0  0  0  0  0  3  0  0  0  0  0  0
  187.2420  177.5740  143.6490 C   0  0  0  0  0  0  0  0  0  0  0  0
  186.1890  177.8400  141.3630 C   0  0  0  0  0  0  0  0  0  0  0  0
  187.4470  177.5940  142.1470 C   0  0  0  0  0  2  0  0  0  0  0  0
  184.8230  177.9300  143.3680 C   0  0  0  0  0  3  0  0  0  0  0  0
  184.8960  177.9860  142.0400 C   0  0  0  0  0  3  0  0  0  0  0  0
  186.2440  177.9140  140.1080 O   0  0  0  0  0  0  0  0  0  0  0  0
  193.5900  176.4150  142.8410 O   0  0  0  0  0  0  0  0  0  0  0  0
  194.5360  175.7140  143.6430 C   0  0  0  0  0  2  0  0  0  0  0  0
  194.5580  175.8410  146.1300 C   0  0  0  0  0  1  0  0  0  0  0  0
  194.9440  176.5490  144.8460 C   0  0  0  0  0  2  0  0  0  0  0  0
  1  6  1  0  0  0  0
  2  6  2  0  0  0  0
  3  5  2  0  0  0  0
  3  4  1  0  0  0  0
  4  1  2  0  0  0  0
  5  2  1  0  0  0  0
  6 24  1  0  0  0  0
  7 13  1  0  0  0  0
  8  7  1  0  0  0  0
  8 17  2  0  0  0  0
  9 18  1  0  0  0  0
 10 19  1  6  0  0  0
 10  9  1  0  0  0  0
 11 14  2  0  0  0  0
 12  1  1  6  0  0  0
 12 18  1  0  0  0  0
 13 15  1  0  0  0  0
 14 10  1  0  0  0  0
 14 12  1  0  0  0  0
 15 19  2  0  0  0  0
 16 17  1  6  0  0  0
 16 15  1  0  0  0  0
 16 11  1  0  0  0  0
 20 22  1  0  0  0  0
 20 21  1  0  0  0  0
 21  8  1  0  0  0  0
 23 20  2  0  0  0  0
 26 25  2  0  0  0  0
 26 24  1  0  0  0  0
 27 30  1  0  0  0  0
 27 28  1  0  0  0  0
 28 26  1  0  0  0  0
 29 25  1  0  0  0  0
 30 29  2  0  0  0  0
 31 27  2  0  0  0  0
 32  3  1  0  0  0  0
 32 33  1  0  0  0  0
 33 35  1  0  0  0  0
 35 34  1  0  0  0  0
M  END
>  <MODEL>
3

>  <REMARK>
 VINA RESULT:      -7.5      3.167      7.850
  Name = 
  7 active torsions:
  status: ('A' for Active; 'I' for Inactive)
    1  A    between atoms: C_2  and  C_14
    2  A    between atoms: C_5  and  C_23
    3  A    between atoms: O_6  and  C_7
    4  A    between atoms: O_6  and  C_29
    5  A    between atoms: C_8  and  N_17
    6  A    between atoms: C_14  and  O_31
    7  A    between atoms: C_15  and  O_31
                            x       y       z     vdW  Elec       q    Type
                         _______ _______ _______ _____ _____    ______ ____

>  <TORSDO>
F 7

$$$$
=
 OpenBabel11042416553D

 35 39  0  0  1  0  0  0  0  0999 V2000
  192.0490  175.0300  143.9360 C   0  0  0  0  0  0  0  0  0  0  0  0
  192.6390  174.3330  141.6820 C   0  0  0  0  0  3  0  0  0  0  0  0
  190.9170  173.1390  142.9030 C   0  0  0  0  0  0  0  0  0  0  0  0
  191.1030  174.0000  143.9870 C   0  0  0  0  0  3  0  0  0  0  0  0
  191.6940  173.3100  141.7480 C   0  0  0  0  0  3  0  0  0  0  0  0
  192.8290  175.2000  142.7690 C   0  0  0  0  0  0  0  0  0  0  0  0
  185.9520  177.0230  145.8880 C   0  0  0  0  0  2  0  0  0  0  0  0
  186.3970  177.2540  144.4710 C   0  0  0  0  0  0  0  0  0  0  0  0
  191.4390  175.1240  147.3570 N   0  0  0  0  0  2  0  0  0  0  0  0
  190.6370  176.2870  146.9970 C   0  0  1  0  0  3  0  0  0  0  0  0
  190.0570  177.1460  144.7570 C   0  0  0  0  0  3  0  0  0  0  0  0
  192.1980  175.8930  145.1640 C   0  0  1  0  0  3  0  0  0  0  0  0
  186.9530  176.3240  146.6280 O   0  0  0  0  0  0  0  0  0  0  0  0
  190.9510  176.5710  145.5760 C   0  0  0  0  0  0  0  0  0  0  0  0
  188.3080  176.5970  146.4290 C   0  0  0  0  0  0  0  0  0  0  0  0
  188.7160  177.5450  145.3150 C   0  0  2  0  0  3  0  0  0  0  0  0
  187.6910  177.5030  144.2190 C   0  0  0  0  0  3  0  0  0  0  0  0
  192.5470  175.0580  146.3940 C   0  0  0  0  0  2  0  0  0  0  0  0
  189.2080  176.0080  147.1670 N   0  0  0  0  0  0  0  0  0  0  0  0
  184.4340  178.2420  143.1490 C   0  0  0  0  0  0  0  0  0  0  0  0
  185.4130  177.2330  143.4280 N   0  0  0  0  0  2  0  0  0  0  0  0
  184.3840  179.3070  143.8190 O   0  0  0  0  0  1  0  0  0  0  0  0
  183.5300  178.0460  142.1140 O   0  0  0  0  0  0  0  0  0  0  0  0
  193.7610  176.2440  142.6930 O   0  0  0  0  0  0  0  0  0  0  0  0
  195.9270  175.8100  143.4790 C   0  0  0  0  0  3  0  0  0  0  0  0
  195.1280  176.0780  142.4390 C   0  0  0  0  0  0  0  0  0  0  0  0
  197.1390  175.8480  140.9190 C   0  0  0  0  0  0  0  0  0  0  0  0
  195.6690  176.1450  141.0240 C   0  0  0  0  0  2  0  0  0  0  0  0
  197.3690  175.5650  143.3190 C   0  0  0  0  0  3  0  0  0  0  0  0
  197.9410  175.5790  142.1170 C   0  0  0  0  0  3  0  0  0  0  0  0
  197.6900  175.8390  139.7880 O   0  0  0  0  0  0  0  0  0  0  0  0
  189.9610  172.1220  143.0010 O   0  0  0  0  0  0  0  0  0  0  0  0
  188.5800  172.3170  142.7130 C   0  0  0  0  0  2  0  0  0  0  0  0
  187.8080  174.6180  142.1540 C   0  0  0  0  0  1  0  0  0  0  0  0
  188.4020  173.3390  141.6000 C   0  0  0  0  0  2  0  0  0  0  0  0
  1  4  1  0  0  0  0
  2  5  2  0  0  0  0
  2  6  1  0  0  0  0
  3 32  1  0  0  0  0
  3  4  2  0  0  0  0
  5  3  1  0  0  0  0
  6  1  2  0  0  0  0
  7 13  1  0  0  0  0
  8  7  1  0  0  0  0
 10 14  1  6  0  0  0
 10 19  1  0  0  0  0
 10  9  1  0  0  0  0
 11 16  1  0  0  0  0
 11 14  2  0  0  0  0
 12  1  1  6  0  0  0
 12 14  1  0  0  0  0
 12 18  1  0  0  0  0
 15 13  1  0  0  0  0
 15 19  2  0  0  0  0
 16 17  1  6  0  0  0
 16 15  1  0  0  0  0
 17  8  2  0  0  0  0
 18  9  1  0  0  0  0
 20 21  1  0  0  0  0
 20 22  1  0  0  0  0
 21  8  1  0  0  0  0
 23 20  2  0  0  0  0
 24  6  1  0  0  0  0
 26 24  1  0  0  0  0
 26 25  2  0  0  0  0
 27 28  1  0  0  0  0
 27 30  1  0  0  0  0
 28 26  1  0  0  0  0
 29 25  1  0  0  0  0
 30 29  2  0  0  0  0
 31 27  2  0  0  0  0
 33 32  1  0  0  0  0
 35 34  1  0  0  0  0
 35 33  1  0  0  0  0
M  END
>  <MODEL>
4

>  <REMARK>
 VINA RESULT:      -7.4      1.377      1.909
  Name = 
  7 active torsions:
  status: ('A' for Active; 'I' for Inactive)
    1  A    between atoms: C_2  and  C_14
    2  A    between atoms: C_5  and  C_23
    3  A    between atoms: O_6  and  C_7
    4  A    between atoms: O_6  and  C_29
    5  A    between atoms: C_8  and  N_17
    6  A    between atoms: C_14  and  O_31
    7  A    between atoms: C_15  and  O_31
                            x       y       z     vdW  Elec       q    Type
                         _______ _______ _______ _____ _____    ______ ____

>  <TORSDO>
F 7

$$$$
=
 OpenBabel11042416553D

 35 39  0  0  1  0  0  0  0  0999 V2000
  193.7180  174.1280  145.3690 C   0  0  0  0  0  0  0  0  0  0  0  0
  193.9020  176.4890  145.9230 C   0  0  0  0  0  3  0  0  0  0  0  0
  195.4030  175.5130  144.2880 C   0  0  0  0  0  0  0  0  0  0  0  0
  194.7790  174.2760  144.4690 C   0  0  0  0  0  3  0  0  0  0  0  0
  194.9590  176.6210  145.0230 C   0  0  0  0  0  3  0  0  0  0  0  0
  193.2730  175.2490  146.1070 C   0  0  0  0  0  0  0  0  0  0  0  0
  188.9840  173.3390  140.6870 C   0  0  0  0  0  2  0  0  0  0  0  0
  188.9380  174.5290  141.6060 C   0  0  0  0  0  0  0  0  0  0  0  0
  193.5110  171.0120  143.8430 N   0  0  0  0  0  2  0  0  0  0  0  0
  192.0830  171.3080  143.8470 C   0  0  1  0  0  3  0  0  0  0  0  0
  190.9280  173.3960  144.4770 C   0  0  0  0  0  3  0  0  0  0  0  0
  193.1240  172.7510  145.5180 C   0  0  1  0  0  3  0  0  0  0  0  0
  190.1380  172.5400  140.9480 O   0  0  0  0  0  0  0  0  0  0  0  0
  191.9240  172.5210  144.6850 C   0  0  0  0  0  0  0  0  0  0  0  0
  190.5910  172.3450  142.2550 C   0  0  0  0  0  0  0  0  0  0  0  0
  189.9280  173.1080  143.3890 C   0  0  2  0  0  3  0  0  0  0  0  0
  189.3760  174.4040  142.8670 C   0  0  0  0  0  3  0  0  0  0  0  0
  194.0850  171.6720  145.0250 C   0  0  0  0  0  2  0  0  0  0  0  0
  191.5970  171.5490  142.4870 N   0  0  0  0  0  0  0  0  0  0  0  0
  187.2130  176.4270  141.5780 C   0  0  0  0  0  0  0  0  0  0  0  0
  188.3930  175.7600  141.1110 N   0  0  0  0  0  2  0  0  0  0  0  0
  186.5420  175.9700  142.5410 O   0  0  0  0  0  1  0  0  0  0  0  0
  186.8070  177.6030  140.9620 O   0  0  0  0  0  0  0  0  0  0  0  0
  192.1930  175.1230  146.9930 O   0  0  0  0  0  0  0  0  0  0  0  0
  189.8950  174.9540  147.4210 C   0  0  0  0  0  3  0  0  0  0  0  0
  190.8790  175.5200  146.7150 C   0  0  0  0  0  0  0  0  0  0  0  0
  189.1430  176.9700  145.5800 C   0  0  0  0  0  0  0  0  0  0  0  0
  190.5950  176.5960  145.6850 C   0  0  0  0  0  2  0  0  0  0  0  0
  188.4840  175.3340  147.2480 C   0  0  0  0  0  3  0  0  0  0  0  0
  188.1280  176.2840  146.3860 C   0  0  0  0  0  3  0  0  0  0  0  0
  188.7930  177.8790  144.7830 O   0  0  0  0  0  0  0  0  0  0  0  0
  196.4610  175.6100  143.3770 O   0  0  0  0  0  0  0  0  0  0  0  0
  196.7730  176.8040  142.6660 C   0  0  0  0  0  2  0  0  0  0  0  0
  196.1290  175.4380  140.6860 C   0  0  0  0  0  1  0  0  0  0  0  0
  196.0850  176.8190  141.3100 C   0  0  0  0  0  2  0  0  0  0  0  0
  1  6  1  0  0  0  0
  2  6  2  0  0  0  0
  3  4  1  0  0  0  0
  3  5  2  0  0  0  0
  4  1  2  0  0  0  0
  5  2  1  0  0  0  0
  6 24  1  0  0  0  0
  7 13  1  0  0  0  0
  7  8  1  0  0  0  0
  8 17  2  0  0  0  0
  9 10  1  0  0  0  0
  9 18  1  0  0  0  0
 10 19  1  6  0  0  0
 10 14  1  0  0  0  0
 11 14  2  0  0  0  0
 12  1  1  6  0  0  0
 13 15  1  0  0  0  0
 14 12  1  0  0  0  0
 15 19  2  0  0  0  0
 15 16  1  0  0  0  0
 16 17  1  6  0  0  0
 16 11  1  0  0  0  0
 18 12  1  0  0  0  0
 20 22  1  0  0  0  0
 21 20  1  0  0  0  0
 21  8  1  0  0  0  0
 23 20  2  0  0  0  0
 26 24  1  0  0  0  0
 26 25  2  0  0  0  0
 27 28  1  0  0  0  0
 27 30  1  0  0  0  0
 28 26  1  0  0  0  0
 29 25  1  0  0  0  0
 30 29  2  0  0  0  0
 31 27  2  0  0  0  0
 32  3  1  0  0  0  0
 33 32  1  0  0  0  0
 34 35  1  0  0  0  0
 35 33  1  0  0  0  0
M  END
>  <MODEL>
5

>  <REMARK>
 VINA RESULT:      -7.1      2.721      6.291
  Name = 
  7 active torsions:
  status: ('A' for Active; 'I' for Inactive)
    1  A    between atoms: C_2  and  C_14
    2  A    between atoms: C_5  and  C_23
    3  A    between atoms: O_6  and  C_7
    4  A    between atoms: O_6  and  C_29
    5  A    between atoms: C_8  and  N_17
    6  A    between atoms: C_14  and  O_31
    7  A    between atoms: C_15  and  O_31
                            x       y       z     vdW  Elec       q    Type
                         _______ _______ _______ _____ _____    ______ ____

>  <TORSDO>
F 7

$$$$
=
 OpenBabel11042416553D

 35 39  0  0  1  0  0  0  0  0999 V2000
  189.3450  174.7520  144.6640 C   0  0  0  0  0  0  0  0  0  0  0  0
  188.6190  174.4040  142.3690 C   0  0  0  0  0  3  0  0  0  0  0  0
  188.1190  176.4970  143.4890 C   0  0  0  0  0  0  0  0  0  0  0  0
  188.7660  176.0260  144.6350 C   0  0  0  0  0  3  0  0  0  0  0  0
  188.0460  175.6760  142.3540 C   0  0  0  0  0  3  0  0  0  0  0  0
  189.2700  173.9290  143.5170 C   0  0  0  0  0  0  0  0  0  0  0  0
  195.6980  176.8960  144.6460 C   0  0  0  0  0  2  0  0  0  0  0  0
  195.1780  176.0840  143.4920 C   0  0  0  0  0  0  0  0  0  0  0  0
  190.6170  175.9430  147.6720 N   0  0  0  0  0  2  0  0  0  0  0  0
  191.8470  175.3300  147.1840 C   0  0  1  0  0  3  0  0  0  0  0  0
  192.3170  174.3250  144.9800 C   0  0  0  0  0  3  0  0  0  0  0  0
  189.9990  174.3190  145.9520 C   0  0  1  0  0  3  0  0  0  0  0  0
  194.6660  177.1360  145.6040 O   0  0  0  0  0  0  0  0  0  0  0  0
  191.4600  174.5430  145.9880 C   0  0  0  0  0  0  0  0  0  0  0  0
  193.7240  176.1490  145.9010 C   0  0  0  0  0  0  0  0  0  0  0  0
  193.7190  174.8640  145.0920 C   0  0  2  0  0  3  0  0  0  0  0  0
  194.2580  175.1330  143.7160 C   0  0  0  0  0  3  0  0  0  0  0  0
  189.5030  175.1470  147.1360 C   0  0  0  0  0  2  0  0  0  0  0  0
  192.8360  176.3530  146.8340 N   0  0  0  0  0  0  0  0  0  0  0  0
  196.8040  175.6500  141.5570 C   0  0  0  0  0  0  0  0  0  0  0  0
  195.7080  176.3310  142.1830 N   0  0  0  0  0  2  0  0  0  0  0  0
  197.3990  174.7020  142.1330 O   0  0  0  0  0  1  0  0  0  0  0  0
  197.2110  176.0390  140.2880 O   0  0  0  0  0  0  0  0  0  0  0  0
  189.8680  172.6610  143.5220 O   0  0  0  0  0  0  0  0  0  0  0  0
  190.1700  170.9420  141.9570 C   0  0  0  0  0  3  0  0  0  0  0  0
  190.5880  172.1110  142.4540 C   0  0  0  0  0  0  0  0  0  0  0  0
  192.3640  172.1690  140.6520 C   0  0  0  0  0  0  0  0  0  0  0  0
  191.7660  172.8510  141.8500 C   0  0  0  0  0  2  0  0  0  0  0  0
  190.8200  170.3020  140.8010 C   0  0  0  0  0  3  0  0  0  0  0  0
  191.8490  170.8780  140.1840 C   0  0  0  0  0  3  0  0  0  0  0  0
  193.3250  172.7100  140.0460 O   0  0  0  0  0  0  0  0  0  0  0  0
  187.5550  177.7770  143.5080 O   0  0  0  0  0  0  0  0  0  0  0  0
  186.7530  178.2620  144.5810 C   0  0  0  0  0  2  0  0  0  0  0  0
  185.3740  176.8860  146.1330 C   0  0  0  0  0  1  0  0  0  0  0  0
  185.4860  177.4340  144.7240 C   0  0  0  0  0  2  0  0  0  0  0  0
  2  6  1  0  0  0  0
  3 32  1  0  0  0  0
  3  4  2  0  0  0  0
  4  1  1  0  0  0  0
  5  2  2  0  0  0  0
  5  3  1  0  0  0  0
  6 24  1  0  0  0  0
  6  1  2  0  0  0  0
  7 13  1  0  0  0  0
  8 17  2  0  0  0  0
  8  7  1  0  0  0  0
 10 14  1  6  0  0  0
 10  9  1  0  0  0  0
 11 16  1  0  0  0  0
 11 14  2  0  0  0  0
 12  1  1  6  0  0  0
 12 14  1  0  0  0  0
 12 18  1  0  0  0  0
 13 15  1  0  0  0  0
 15 19  2  0  0  0  0
 16 17  1  6  0  0  0
 16 15  1  0  0  0  0
 18  9  1  0  0  0  0
 19 10  1  0  0  0  0
 20 22  1  0  0  0  0
 20 21  1  0  0  0  0
 21  8  1  0  0  0  0
 23 20  2  0  0  0  0
 25 26  2  0  0  0  0
 26 24  1  0  0  0  0
 27 28  1  0  0  0  0
 28 26  1  0  0  0  0
 29 25  1  0  0  0  0
 30 27  1  0  0  0  0
 30 29  2  0  0  0  0
 31 27  2  0  0  0  0
 32 33  1  0  0  0  0
 33 35  1  0  0  0  0
 35 34  1  0  0  0  0
M  END
>  <MODEL>
6

>  <REMARK>
 VINA RESULT:      -6.9      2.502      7.042
  Name = 
  7 active torsions:
  status: ('A' for Active; 'I' for Inactive)
    1  A    between atoms: C_2  and  C_14
    2  A    between atoms: C_5  and  C_23
    3  A    between atoms: O_6  and  C_7
    4  A    between atoms: O_6  and  C_29
    5  A    between atoms: C_8  and  N_17
    6  A    between atoms: C_14  and  O_31
    7  A    between atoms: C_15  and  O_31
                            x       y       z     vdW  Elec       q    Type
                         _______ _______ _______ _____ _____    ______ ____

>  <TORSDO>
F 7

$$$$
=
 OpenBabel11042416553D

 35 39  0  0  1  0  0  0  0  0999 V2000
  189.5900  176.0100  143.7640 C   0  0  0  0  0  0  0  0  0  0  0  0
  187.5660  174.7850  143.2020 C   0  0  0  0  0  3  0  0  0  0  0  0
  189.4950  174.6690  141.7350 C   0  0  0  0  0  0  0  0  0  0  0  0
  190.1890  175.5200  142.5990 C   0  0  0  0  0  3  0  0  0  0  0  0
  188.1760  174.3050  142.0430 C   0  0  0  0  0  3  0  0  0  0  0  0
  188.2610  175.6390  144.0710 C   0  0  0  0  0  0  0  0  0  0  0  0
  195.4790  173.0850  145.0760 C   0  0  0  0  0  2  0  0  0  0  0  0
  194.1980  172.3560  145.3720 C   0  0  0  0  0  0  0  0  0  0  0  0
  192.4040  178.0510  143.7480 N   0  0  0  0  0  2  0  0  0  0  0  0
  192.8290  177.1630  144.8250 C   0  0  1  0  0  3  0  0  0  0  0  0
  191.7660  175.0940  145.6460 C   0  0  0  0  0  3  0  0  0  0  0  0
  190.4070  176.9440  144.6220 C   0  0  1  0  0  3  0  0  0  0  0  0
  195.2150  174.3540  144.4760 O   0  0  0  0  0  0  0  0  0  0  0  0
  191.6440  176.3380  145.1590 C   0  0  0  0  0  0  0  0  0  0  0  0
  194.1290  175.1280  144.8940 C   0  0  0  0  0  0  0  0  0  0  0  0
  193.1470  174.5460  145.8940 C   0  0  2  0  0  3  0  0  0  0  0  0
  193.1180  173.0500  145.7590 C   0  0  0  0  0  3  0  0  0  0  0  0
  190.9370  178.1250  143.8120 C   0  0  0  0  0  2  0  0  0  0  0  0
  193.9450  176.3190  144.3940 N   0  0  0  0  0  0  0  0  0  0  0  0
  193.8800  170.1600  144.0850 C   0  0  0  0  0  0  0  0  0  0  0  0
  194.1790  170.9260  145.2600 N   0  0  0  0  0  2  0  0  0  0  0  0
  193.6290  170.7200  142.9850 O   0  0  0  0  0  0  0  0  0  0  0  0
  193.8760  168.7740  144.1600 O   0  0  0  0  0  1  0  0  0  0  0  0
  187.6560  176.1000  145.2490 O   0  0  0  0  0  0  0  0  0  0  0  0
  185.6120  176.8200  146.1420 C   0  0  0  0  0  3  0  0  0  0  0  0
  186.6260  177.0480  145.3010 C   0  0  0  0  0  0  0  0  0  0  0  0
  185.5600  179.2690  144.7180 C   0  0  0  0  0  0  0  0  0  0  0  0
  186.6950  178.3150  144.4710 C   0  0  0  0  0  2  0  0  0  0  0  0
  184.5050  177.7750  146.3150 C   0  0  0  0  0  3  0  0  0  0  0  0
  184.4800  178.9280  145.6500 C   0  0  0  0  0  3  0  0  0  0  0  0
  185.5310  180.3700  144.1110 O   0  0  0  0  0  0  0  0  0  0  0  0
  190.1350  174.2060  140.5810 O   0  0  0  0  0  0  0  0  0  0  0  0
  189.7540  173.0150  139.8990 C   0  0  0  0  0  2  0  0  0  0  0  0
  190.4470  171.1440  141.3890 C   0  0  0  0  0  1  0  0  0  0  0  0
  190.7780  171.9130  140.1270 C   0  0  0  0  0  2  0  0  0  0  0  0
  1  6  1  0  0  0  0
  2  6  2  0  0  0  0
  3  5  2  0  0  0  0
  3  4  1  0  0  0  0
  4  1  2  0  0  0  0
  5  2  1  0  0  0  0
  6 24  1  0  0  0  0
  7  8  1  0  0  0  0
  8 17  2  0  0  0  0
  9 18  1  0  0  0  0
 10  9  1  6  0  0  0
 10 14  1  0  0  0  0
 12  1  1  6  0  0  0
 12 14  1  0  0  0  0
 13 15  1  0  0  0  0
 13  7  1  0  0  0  0
 14 11  2  0  0  0  0
 15 16  1  0  0  0  0
 16 11  1  6  0  0  0
 17 16  1  0  0  0  0
 18 12  1  0  0  0  0
 19 10  1  0  0  0  0
 19 15  2  0  0  0  0
 20 23  1  0  0  0  0
 20 21  1  0  0  0  0
 21  8  1  0  0  0  0
 22 20  2  0  0  0  0
 24 26  1  0  0  0  0
 25 29  1  0  0  0  0
 26 25  2  0  0  0  0
 27 30  1  0  0  0  0
 28 27  1  0  0  0  0
 28 26  1  0  0  0  0
 30 29  2  0  0  0  0
 31 27  2  0  0  0  0
 32  3  1  0  0  0  0
 33 35  1  0  0  0  0
 33 32  1  0  0  0  0
 35 34  1  0  0  0  0
M  END
>  <MODEL>
7

>  <REMARK>
 VINA RESULT:      -6.8      2.756      8.316
  Name = 
  7 active torsions:
  status: ('A' for Active; 'I' for Inactive)
    1  A    between atoms: C_2  and  C_14
    2  A    between atoms: C_5  and  C_23
    3  A    between atoms: O_6  and  C_7
    4  A    between atoms: O_6  and  C_29
    5  A    between atoms: C_8  and  N_17
    6  A    between atoms: C_14  and  O_31
    7  A    between atoms: C_15  and  O_31
                            x       y       z     vdW  Elec       q    Type
                         _______ _______ _______ _____ _____    ______ ____

>  <TORSDO>
F 7

$$$$
=
 OpenBabel11042416553D

 35 39  0  0  1  0  0  0  0  0999 V2000
  189.5200  175.8970  143.0480 C   0  0  0  0  0  0  0  0  0  0  0  0
  189.5540  177.9360  144.3750 C   0  0  0  0  0  3  0  0  0  0  0  0
  190.5290  175.9010  145.2640 C   0  0  0  0  0  0  0  0  0  0  0  0
  190.1790  175.2320  144.0870 C   0  0  0  0  0  3  0  0  0  0  0  0
  190.2110  177.2590  145.4030 C   0  0  0  0  0  3  0  0  0  0  0  0
  189.2020  177.2680  143.1920 C   0  0  0  0  0  0  0  0  0  0  0  0
  193.5400  170.5380  142.7850 C   0  0  0  0  0  2  0  0  0  0  0  0
  194.1340  171.9140  142.9050 C   0  0  0  0  0  0  0  0  0  0  0  0
  188.0880  172.8990  142.0280 N   0  0  0  0  0  2  0  0  0  0  0  0
  189.3950  172.6950  141.4130 C   0  0  1  0  0  3  0  0  0  0  0  0
  191.4420  174.0570  141.6210 C   0  0  0  0  0  3  0  0  0  0  0  0
  189.1580  175.0880  141.8280 C   0  0  1  0  0  3  0  0  0  0  0  0
  192.1140  170.5970  142.7970 O   0  0  0  0  0  0  0  0  0  0  0  0
  190.1050  173.9910  141.5340 C   0  0  0  0  0  0  0  0  0  0  0  0
  191.4370  171.6340  142.1500 C   0  0  0  0  0  0  0  0  0  0  0  0
  192.2360  172.7800  141.5540 C   0  0  2  0  0  3  0  0  0  0  0  0
  193.5170  172.9510  142.3190 C   0  0  0  0  0  3  0  0  0  0  0  0
  187.8370  174.3470  142.0220 C   0  0  0  0  0  2  0  0  0  0  0  0
  190.1340  171.6330  142.1010 N   0  0  0  0  0  0  0  0  0  0  0  0
  195.5470  172.0310  145.0420 C   0  0  0  0  0  0  0  0  0  0  0  0
  195.3670  172.0730  143.6200 N   0  0  0  0  0  2  0  0  0  0  0  0
  194.5810  171.8040  145.8170 O   0  0  0  0  0  1  0  0  0  0  0  0
  196.8130  172.2360  145.5730 O   0  0  0  0  0  0  0  0  0  0  0  0
  188.5650  177.9540  142.1490 O   0  0  0  0  0  0  0  0  0  0  0  0
  186.6250  177.9080  140.8330 C   0  0  0  0  0  3  0  0  0  0  0  0
  187.1790  178.1230  142.0320 C   0  0  0  0  0  0  0  0  0  0  0  0
  184.8590  178.5270  142.9600 C   0  0  0  0  0  0  0  0  0  0  0  0
  186.3350  178.4810  143.2390 C   0  0  0  0  0  2  0  0  0  0  0  0
  185.1740  178.0050  140.6100 C   0  0  0  0  0  3  0  0  0  0  0  0
  184.3410  178.2920  141.6080 C   0  0  0  0  0  3  0  0  0  0  0  0
  184.0580  178.7790  143.8960 O   0  0  0  0  0  0  0  0  0  0  0  0
  191.1870  175.1920  146.2750 O   0  0  0  0  0  0  0  0  0  0  0  0
  192.4110  174.4940  146.0720 C   0  0  0  0  0  2  0  0  0  0  0  0
  194.6130  175.6450  146.2320 C   0  0  0  0  0  1  0  0  0  0  0  0
  193.4170  175.3720  145.3430 C   0  0  0  0  0  2  0  0  0  0  0  0
  1  6  2  0  0  0  0
  1  4  1  0  0  0  0
  2  5  2  0  0  0  0
  3  5  1  0  0  0  0
  3 32  1  0  0  0  0
  4  3  2  0  0  0  0
  6  2  1  0  0  0  0
  7 13  1  0  0  0  0
  7  8  1  0  0  0  0
  8 21  1  0  0  0  0
 10 14  1  1  0  0  0
 10  9  1  0  0  0  0
 10 19  1  0  0  0  0
 12 18  1  0  0  0  0
 12  1  1  1  0  0  0
 14 11  2  0  0  0  0
 14 12  1  0  0  0  0
 15 13  1  0  0  0  0
 16 11  1  1  0  0  0
 16 15  1  0  0  0  0
 16 17  1  0  0  0  0
 17  8  2  0  0  0  0
 18  9  1  0  0  0  0
 19 15  2  0  0  0  0
 20 23  2  0  0  0  0
 20 22  1  0  0  0  0
 21 20  1  0  0  0  0
 24  6  1  0  0  0  0
 25 26  2  0  0  0  0
 26 24  1  0  0  0  0
 26 28  1  0  0  0  0
 27 28  1  0  0  0  0
 27 31  2  0  0  0  0
 29 25  1  0  0  0  0
 29 30  2  0  0  0  0
 30 27  1  0  0  0  0
 33 32  1  0  0  0  0
 35 33  1  0  0  0  0
 35 34  1  0  0  0  0
M  END
>  <MODEL>
8

>  <REMARK>
 VINA RESULT:      -6.7      2.777      8.920
  Name = 
  7 active torsions:
  status: ('A' for Active; 'I' for Inactive)
    1  A    between atoms: C_2  and  C_14
    2  A    between atoms: C_5  and  C_23
    3  A    between atoms: O_6  and  C_7
    4  A    between atoms: O_6  and  C_29
    5  A    between atoms: C_8  and  N_17
    6  A    between atoms: C_14  and  O_31
    7  A    between atoms: C_15  and  O_31
                            x       y       z     vdW  Elec       q    Type
                         _______ _______ _______ _____ _____    ______ ____

>  <TORSDO>
F 7

$$$$
=
 OpenBabel11042416553D

 35 39  0  0  1  0  0  0  0  0999 V2000
  189.2490  176.7020  143.2590 C   0  0  0  0  0  0  0  0  0  0  0  0
  187.2500  176.5170  141.8860 C   0  0  0  0  0  3  0  0  0  0  0  0
  189.0570  174.9230  141.6080 C   0  0  0  0  0  0  0  0  0  0  0  0
  189.7760  175.5800  142.6100 C   0  0  0  0  0  3  0  0  0  0  0  0
  187.7890  175.4000  141.2470 C   0  0  0  0  0  3  0  0  0  0  0  0
  187.9680  177.1780  142.8930 C   0  0  0  0  0  0  0  0  0  0  0  0
  194.4980  172.7230  144.5140 C   0  0  0  0  0  2  0  0  0  0  0  0
  193.1020  172.1710  144.5990 C   0  0  0  0  0  0  0  0  0  0  0  0
  192.3180  178.2520  143.7650 N   0  0  0  0  0  2  0  0  0  0  0  0
  192.5050  177.1630  144.7170 C   0  0  1  0  0  3  0  0  0  0  0  0
  191.0790  175.1910  145.1250 C   0  0  0  0  0  3  0  0  0  0  0  0
  190.1070  177.3610  144.3090 C   0  0  1  0  0  3  0  0  0  0  0  0
  194.4790  174.0910  144.1040 O   0  0  0  0  0  0  0  0  0  0  0  0
  191.1860  176.4950  144.8320 C   0  0  0  0  0  0  0  0  0  0  0  0
  193.4830  174.9590  144.5580 C   0  0  0  0  0  0  0  0  0  0  0  0
  192.3360  174.4010  145.3820 C   0  0  2  0  0  3  0  0  0  0  0  0
  192.1030  172.9640  145.0120 C   0  0  0  0  0  3  0  0  0  0  0  0
  190.8780  178.5470  143.7350 C   0  0  0  0  0  2  0  0  0  0  0  0
  193.5230  176.2230  144.2400 N   0  0  0  0  0  0  0  0  0  0  0  0
  193.0010  170.1970  142.9640 C   0  0  0  0  0  0  0  0  0  0  0  0
  192.8860  170.7930  144.2630 N   0  0  0  0  0  2  0  0  0  0  0  0
  193.3580  170.8740  141.9630 O   0  0  0  0  0  0  0  0  0  0  0  0
  192.7240  168.8460  142.8080 O   0  0  0  0  0  1  0  0  0  0  0  0
  187.4160  178.2850  143.5530 O   0  0  0  0  0  0  0  0  0  0  0  0
  185.2920  178.7370  144.4360 C   0  0  0  0  0  3  0  0  0  0  0  0
  186.5080  178.2100  144.6170 C   0  0  0  0  0  0  0  0  0  0  0  0
  185.7600  177.4290  146.9050 C   0  0  0  0  0  0  0  0  0  0  0  0
  186.8800  177.5040  145.9060 C   0  0  0  0  0  2  0  0  0  0  0  0
  184.2440  178.6670  145.4670 C   0  0  0  0  0  3  0  0  0  0  0  0
  184.4600  178.0500  146.6270 C   0  0  0  0  0  3  0  0  0  0  0  0
  185.9420  176.8340  147.9980 O   0  0  0  0  0  0  0  0  0  0  0  0
  189.6270  173.8070  140.9860 O   0  0  0  0  0  0  0  0  0  0  0  0
  190.5040  172.9040  141.6530 C   0  0  0  0  0  2  0  0  0  0  0  0
  189.1500  171.9190  143.4960 C   0  0  0  0  0  1  0  0  0  0  0  0
  189.7490  171.6710  142.1260 C   0  0  0  0  0  2  0  0  0  0  0  0
  2  6  2  0  0  0  0
  3  4  1  0  0  0  0
  4  1  2  0  0  0  0
  5  3  2  0  0  0  0
  5  2  1  0  0  0  0
  6  1  1  0  0  0  0
  6 24  1  0  0  0  0
  7  8  1  0  0  0  0
  8 17  2  0  0  0  0
 10  9  1  6  0  0  0
 10 14  1  0  0  0  0
 11 16  1  0  0  0  0
 12  1  1  6  0  0  0
 12 14  1  0  0  0  0
 13  7  1  0  0  0  0
 13 15  1  0  0  0  0
 14 11  2  0  0  0  0
 15 16  1  0  0  0  0
 16 17  1  6  0  0  0
 18  9  1  0  0  0  0
 18 12  1  0  0  0  0
 19 15  2  0  0  0  0
 19 10  1  0  0  0  0
 20 21  1  0  0  0  0
 21  8  1  0  0  0  0
 22 20  2  0  0  0  0
 23 20  1  0  0  0  0
 24 26  1  0  0  0  0
 25 26  2  0  0  0  0
 25 29  1  0  0  0  0
 26 28  1  0  0  0  0
 27 31  2  0  0  0  0
 28 27  1  0  0  0  0
 29 30  2  0  0  0  0
 30 27  1  0  0  0  0
 32  3  1  0  0  0  0
 32 33  1  0  0  0  0
 33 35  1  0  0  0  0
 35 34  1  0  0  0  0
M  END
>  <MODEL>
9

>  <REMARK>
 VINA RESULT:      -6.7      2.748      7.988
  Name = 
  7 active torsions:
  status: ('A' for Active; 'I' for Inactive)
    1  A    between atoms: C_2  and  C_14
    2  A    between atoms: C_5  and  C_23
    3  A    between atoms: O_6  and  C_7
    4  A    between atoms: O_6  and  C_29
    5  A    between atoms: C_8  and  N_17
    6  A    between atoms: C_14  and  O_31
    7  A    between atoms: C_15  and  O_31
                            x       y       z     vdW  Elec       q    Type
                         _______ _______ _______ _____ _____    ______ ____

>  <TORSDO>
F 7

$$$$
