=
 OpenBabel11042414553D

 55 62  0  0  1  0  0  0  0  0999 V2000
  185.1500  177.1570  142.2510 C   0  0  0  0  0  3  0  0  0  0  0  0
  190.4280  175.3860  145.3520 C   0  0  0  0  0  2  0  0  0  0  0  0
  192.1540  176.1580  147.2660 C   0  0  1  0  0  3  0  0  0  0  0  0
  185.7530  178.2940  144.3300 C   0  0  0  0  0  3  0  0  0  0  0  0
  187.6920  177.8290  145.5950 O   0  0  0  0  0  0  0  0  0  0  0  0
  186.4320  176.3690  142.2480 C   0  0  0  0  0  2  0  0  0  0  0  0
  188.8410  177.0610  145.7890 C   0  0  0  0  0  0  0  0  0  0  0  0
  186.8710  177.5880  144.4890 C   0  0  0  0  0  0  0  0  0  0  0  0
  189.7640  177.2170  146.9410 C   0  0  0  0  0  2  0  0  0  0  0  0
  189.1910  176.1030  144.9350 C   0  0  0  0  0  0  0  0  0  0  0  0
  190.7740  176.1330  146.6310 C   0  0  1  0  0  0  0  0  0  0  0  0
  187.2500  176.5340  143.5080 C   0  0  0  0  0  0  0  0  0  0  0  0
  188.3770  175.8100  143.7250 C   0  0  0  0  0  0  0  0  0  0  0  0
  184.8430  178.0540  143.1910 C   0  0  0  0  0  0  0  0  0  0  0  0
  191.0710  175.2300  147.8050 C   0  0  0  0  0  2  0  0  0  0  0  0
  189.4200  173.9840  140.4370 C   0  0  0  0  0  3  0  0  0  0  0  0
  189.0260  173.5130  143.2240 C   0  0  0  0  0  3  0  0  0  0  0  0
  189.4790  172.4510  142.3200 C   0  0  0  0  0  0  0  0  0  0  0  0
  188.8300  174.7610  142.7810 C   0  0  0  0  0  0  0  0  0  0  0  0
  189.7400  171.3120  142.7890 O   0  0  0  0  0  0  0  0  0  0  0  0
  189.5950  172.7340  140.8700 C   0  0  0  0  0  0  0  0  0  0  0  0
  189.1820  175.1490  141.3630 C   0  0  0  0  0  2  0  0  0  0  0  0
  189.8130  171.9350  138.5980 N   0  0  0  0  0  0  0  0  0  0  0  0
  189.8550  171.6900  139.8680 C   0  0  0  0  0  3  0  0  0  0  0  0
  189.5270  169.7890  137.7160 O   0  0  0  0  0  0  0  0  0  0  0  0
  190.0600  170.9290  137.6100 C   0  0  0  0  0  0  0  0  0  0  0  0
  194.0870  172.3170  134.8800 C   0  0  0  0  0  3  0  0  0  0  0  0
  193.7160  170.9470  135.0430 N   0  0  0  0  0  2  0  0  0  0  0  0
  190.9360  171.2340  136.4630 C   0  0  0  0  0  0  0  0  0  0  0  0
  192.5290  173.1160  136.6700 C   0  0  1  0  0  3  0  0  0  0  0  0
  191.1890  172.6650  136.0960 C   0  0  0  0  0  2  0  0  0  0  0  0
  192.4180  170.4500  134.6110 C   0  0  0  0  0  2  0  0  0  0  0  0
  193.5430  173.3100  135.5860 C   0  0  0  0  0  3  0  0  0  0  0  0
  191.5130  170.2380  135.7830 C   0  0  0  0  0  3  0  0  0  0  0  0
  192.6180  174.1560  138.8470 O   0  0  0  0  0  1  0  0  0  0  0  0
  192.3940  174.3980  137.4900 C   0  0  1  0  0  3  0  0  0  0  0  0
  193.3240  175.4050  137.0100 N   0  0  0  0  0  1  0  0  0  0  0  0
  193.1640  175.3500  146.4640 C   0  0  0  0  0  2  0  0  0  0  0  0
  194.4930  177.4770  146.5930 C   0  0  0  0  0  1  0  0  0  0  0  0
  194.1280  176.2780  145.7320 C   0  0  2  0  0  3  0  0  0  0  0  0
  193.6240  176.6860  144.4160 N   0  0  0  0  0  2  0  0  0  0  0  0
  194.0430  175.7430  143.3830 C   0  0  0  0  0  2  0  0  0  0  0  0
  195.4470  176.0810  142.9330 C   0  0  0  0  0  1  0  0  0  0  0  0
  183.6400  178.7570  143.0830 O   0  0  0  0  0  0  0  0  0  0  0  0
  182.9400  178.8200  141.8960 N   0  0  0  0  0  2  0  0  0  0  0  0
  181.5410  179.0630  142.2290 C   0  0  0  0  0  2  0  0  0  0  0  0
  178.5000  177.7050  140.7050 O   0  0  0  0  0  0  0  0  0  0  0  0
  180.6090  178.4710  141.1580 C   0  0  2  0  0  0  0  0  0  0  0  0
  178.0800  179.5200  141.9490 O   0  0  0  0  0  0  0  0  0  0  0  0
  181.4140  177.5930  140.2110 C   0  0  0  0  0  1  0  0  0  0  0  0
  179.8510  179.5170  140.3340 C   0  0  1  0  0  3  0  0  0  0  0  0
  179.4260  177.6730  141.7380 C   0  0  1  0  0  3  0  0  0  0  0  0
  178.7120  178.5500  142.7470 C   0  0  0  0  0  2  0  0  0  0  0  0
  178.4080  179.0960  140.6390 C   0  0  1  0  0  3  0  0  0  0  0  0
  180.0890  180.8320  140.7550 O   0  0  0  0  0  1  0  0  0  0  0  0
  1 14  2  0  0  0  0
  3 38  1  6  0  0  0
  3 15  1  0  0  0  0
  4  8  2  0  0  0  0
  5  7  1  0  0  0  0
  6  1  1  0  0  0  0
  6 12  1  0  0  0  0
  7  9  1  0  0  0  0
  8  5  1  0  0  0  0
 10  2  1  0  0  0  0
 10  7  2  0  0  0  0
 11  2  1  6  0  0  0
 11  9  1  0  0  0  0
 11  3  1  0  0  0  0
 11 15  1  0  0  0  0
 12 13  2  0  0  0  0
 12  8  1  0  0  0  0
 13 10  1  0  0  0  0
 14  4  1  0  0  0  0
 16 21  2  0  0  0  0
 16 22  1  0  0  0  0
 18 20  2  0  0  0  0
 18 17  1  0  0  0  0
 19 17  2  0  0  0  0
 19 13  1  0  0  0  0
 21 18  1  0  0  0  0
 22 19  1  0  0  0  0
 23 24  2  0  0  0  0
 24 21  1  0  0  0  0
 26 25  2  0  0  0  0
 26 23  1  0  0  0  0
 27 28  1  0  0  0  0
 27 33  2  0  0  0  0
 29 26  1  0  0  0  0
 30 36  1  6  0  0  0
 31 29  1  0  0  0  0
 31 30  1  0  0  0  0
 32 28  1  0  0  0  0
 32 34  1  0  0  0  0
 33 30  1  0  0  0  0
 34 29  2  0  0  0  0
 36 37  1  6  0  0  0
 36 35  1  0  0  0  0
 40 38  1  0  0  0  0
 40 39  1  1  0  0  0
 41 40  1  0  0  0  0
 42 41  1  0  0  0  0
 43 42  1  0  0  0  0
 44 14  1  0  0  0  0
 45 46  1  0  0  0  0
 45 44  1  0  0  0  0
 47 52  1  0  0  0  0
 48 50  1  6  0  0  0
 48 52  1  0  0  0  0
 48 46  1  0  0  0  0
 49 53  1  0  0  0  0
 51 54  1  0  0  0  0
 51 55  1  1  0  0  0
 51 48  1  0  0  0  0
 52 53  1  1  0  0  0
 54 47  1  1  0  0  0
 54 49  1  0  0  0  0
M  END
>  <MODEL>
1

>  <REMARK>
 VINA RESULT:      -7.8      0.000      0.000
  Name = 
  13 active torsions:
  status: ('A' for Active; 'I' for Inactive)
    1  A    between atoms: C_1  and  C_5
    2  A    between atoms: C_1  and  C_48
    3  A    between atoms: C_11  and  C_38
    4  A    between atoms: O_14  and  N_23
    5  A    between atoms: O_14  and  C_46
    6  A    between atoms: C_18  and  C_44
    7  A    between atoms: C_20  and  C_24
    8  A    between atoms: C_22  and  C_37
    9  A    between atoms: N_23  and  C_37
   10  A    between atoms: N_28  and  C_35
   11  A    between atoms: N_28  and  C_48
   12  A    between atoms: C_32  and  C_39
   13  A    between atoms: N_36  and  C_38
                            x       y       z     vdW  Elec       q    Type
                         _______ _______ _______ _____ _____    ______ ____

>  <TORSDO>
F 13

$$$$
=
 OpenBabel11042414553D

 55 62  0  0  1  0  0  0  0  0999 V2000
  188.5340  175.2780  145.2170 C   0  0  0  0  0  3  0  0  0  0  0  0
  194.6630  173.9440  144.0860 C   0  0  0  0  0  2  0  0  0  0  0  0
  197.1710  174.6280  144.7750 C   0  0  1  0  0  3  0  0  0  0  0  0
  190.2390  176.0720  146.7800 C   0  0  0  0  0  3  0  0  0  0  0  0
  192.5610  175.7360  146.5120 O   0  0  0  0  0  0  0  0  0  0  0  0
  189.5750  174.7590  144.2620 C   0  0  0  0  0  2  0  0  0  0  0  0
  193.6150  175.1720  145.7900 C   0  0  0  0  0  0  0  0  0  0  0  0
  191.2450  175.5700  146.0670 C   0  0  0  0  0  0  0  0  0  0  0  0
  195.0420  175.2660  146.1890 C   0  0  0  0  0  2  0  0  0  0  0  0
  193.4050  174.4860  144.6710 C   0  0  0  0  0  0  0  0  0  0  0  0
  195.6890  174.4730  145.0740 C   0  0  1  0  0  0  0  0  0  0  0  0
  190.9840  174.8210  144.8070 C   0  0  0  0  0  0  0  0  0  0  0  0
  192.0330  174.2920  144.1290 C   0  0  0  0  0  0  0  0  0  0  0  0
  188.8330  175.8980  146.3620 C   0  0  0  0  0  0  0  0  0  0  0  0
  196.6630  173.4260  145.5630 C   0  0  0  0  0  2  0  0  0  0  0  0
  191.5980  173.5070  140.3300 C   0  0  0  0  0  3  0  0  0  0  0  0
  191.6650  172.2280  142.8800 C   0  0  0  0  0  3  0  0  0  0  0  0
  191.4880  171.4650  141.6410 C   0  0  0  0  0  0  0  0  0  0  0  0
  191.8530  173.5540  142.8560 C   0  0  0  0  0  0  0  0  0  0  0  0
  191.4050  170.2100  141.6960 O   0  0  0  0  0  0  0  0  0  0  0  0
  191.3870  172.1890  140.3520 C   0  0  0  0  0  0  0  0  0  0  0  0
  192.0120  174.2940  141.5470 C   0  0  0  0  0  2  0  0  0  0  0  0
  190.8660  172.1970  137.9910 N   0  0  0  0  0  0  0  0  0  0  0  0
  191.0220  171.5310  139.0890 C   0  0  0  0  0  3  0  0  0  0  0  0
  189.3810  171.7960  136.2310 O   0  0  0  0  0  0  0  0  0  0  0  0
  190.5080  171.5710  136.7540 C   0  0  0  0  0  0  0  0  0  0  0  0
  194.6090  168.7500  135.8450 C   0  0  0  0  0  3  0  0  0  0  0  0
  193.3610  168.1730  136.2360 N   0  0  0  0  0  2  0  0  0  0  0  0
  191.4660  170.6650  136.0920 C   0  0  0  0  0  0  0  0  0  0  0  0
  193.8850  171.0810  136.4040 C   0  0  1  0  0  3  0  0  0  0  0  0
  192.6970  171.2390  135.4590 C   0  0  0  0  0  2  0  0  0  0  0  0
  192.1540  168.3540  135.4420 C   0  0  0  0  0  2  0  0  0  0  0  0
  194.8520  170.0610  135.8910 C   0  0  0  0  0  3  0  0  0  0  0  0
  191.2400  169.3480  136.0850 C   0  0  0  0  0  3  0  0  0  0  0  0
  195.4120  172.7460  135.5510 O   0  0  0  0  0  1  0  0  0  0  0  0
  194.6050  172.4080  136.6390 C   0  0  1  0  0  3  0  0  0  0  0  0
  193.6430  173.4680  136.8860 N   0  0  0  0  0  1  0  0  0  0  0  0
  197.5120  174.1990  143.3550 C   0  0  0  0  0  2  0  0  0  0  0  0
  197.2740  176.6770  143.0190 C   0  0  0  0  0  1  0  0  0  0  0  0
  197.9410  175.4030  142.5220 C   0  0  2  0  0  3  0  0  0  0  0  0
  197.7210  175.1980  141.0860 N   0  0  0  0  0  2  0  0  0  0  0  0
  196.2970  175.2380  140.7670 C   0  0  0  0  0  2  0  0  0  0  0  0
  195.8200  173.8450  140.4170 C   0  0  0  0  0  1  0  0  0  0  0  0
  187.7900  176.3700  147.1620 O   0  0  0  0  0  0  0  0  0  0  0  0
  187.2940  177.6510  147.0280 N   0  0  0  0  0  2  0  0  0  0  0  0
  187.0300  177.8690  145.6110 C   0  0  0  0  0  2  0  0  0  0  0  0
  183.7930  178.9860  144.3120 O   0  0  0  0  0  0  0  0  0  0  0  0
  185.5180  177.8770  145.3280 C   0  0  2  0  0  0  0  0  0  0  0  0
  185.4150  179.1380  142.7740 O   0  0  0  0  0  0  0  0  0  0  0  0
  184.7750  177.2640  146.5070 C   0  0  0  0  0  1  0  0  0  0  0  0
  185.1120  177.1330  144.0510 C   0  0  1  0  0  3  0  0  0  0  0  0
  184.9510  179.2750  145.0180 C   0  0  1  0  0  3  0  0  0  0  0  0
  185.7810  179.8870  143.9070 C   0  0  0  0  0  2  0  0  0  0  0  0
  184.4220  178.2720  143.2910 C   0  0  1  0  0  3  0  0  0  0  0  0
  186.2060  176.6380  143.3280 O   0  0  0  0  0  1  0  0  0  0  0  0
  1 14  2  0  0  0  0
  2 10  1  0  0  0  0
  3 38  1  6  0  0  0
  3 11  1  0  0  0  0
  3 15  1  0  0  0  0
  6 12  1  0  0  0  0
  6  1  1  0  0  0  0
  7  9  1  0  0  0  0
  7  5  1  0  0  0  0
  8  5  1  0  0  0  0
  8  4  2  0  0  0  0
 10  7  2  0  0  0  0
 11  2  1  6  0  0  0
 11 15  1  0  0  0  0
 11  9  1  0  0  0  0
 12  8  1  0  0  0  0
 13 10  1  0  0  0  0
 13 12  2  0  0  0  0
 14  4  1  0  0  0  0
 14 44  1  0  0  0  0
 16 21  2  0  0  0  0
 16 22  1  0  0  0  0
 18 20  2  0  0  0  0
 18 17  1  0  0  0  0
 19 17  2  0  0  0  0
 19 13  1  0  0  0  0
 21 18  1  0  0  0  0
 22 19  1  0  0  0  0
 23 24  2  0  0  0  0
 24 21  1  0  0  0  0
 25 26  2  0  0  0  0
 26 23  1  0  0  0  0
 27 33  2  0  0  0  0
 27 28  1  0  0  0  0
 29 26  1  0  0  0  0
 30 36  1  6  0  0  0
 31 29  1  0  0  0  0
 31 30  1  0  0  0  0
 32 34  1  0  0  0  0
 32 28  1  0  0  0  0
 33 30  1  0  0  0  0
 34 29  2  0  0  0  0
 36 35  1  6  0  0  0
 36 37  1  0  0  0  0
 40 39  1  1  0  0  0
 40 38  1  0  0  0  0
 41 40  1  0  0  0  0
 42 41  1  0  0  0  0
 43 42  1  0  0  0  0
 45 44  1  0  0  0  0
 46 45  1  0  0  0  0
 47 52  1  0  0  0  0
 48 46  1  0  0  0  0
 48 50  1  1  0  0  0
 49 53  1  0  0  0  0
 51 55  1  6  0  0  0
 51 48  1  0  0  0  0
 52 53  1  6  0  0  0
 52 48  1  0  0  0  0
 54 49  1  1  0  0  0
 54 51  1  0  0  0  0
 54 47  1  0  0  0  0
M  END
>  <MODEL>
2

>  <REMARK>
 VINA RESULT:      -7.5      3.092      4.747
  Name = 
  13 active torsions:
  status: ('A' for Active; 'I' for Inactive)
    1  A    between atoms: C_1  and  C_5
    2  A    between atoms: C_1  and  C_48
    3  A    between atoms: C_11  and  C_38
    4  A    between atoms: O_14  and  N_23
    5  A    between atoms: O_14  and  C_46
    6  A    between atoms: C_18  and  C_44
    7  A    between atoms: C_20  and  C_24
    8  A    between atoms: C_22  and  C_37
    9  A    between atoms: N_23  and  C_37
   10  A    between atoms: N_28  and  C_35
   11  A    between atoms: N_28  and  C_48
   12  A    between atoms: C_32  and  C_39
   13  A    between atoms: N_36  and  C_38
                            x       y       z     vdW  Elec       q    Type
                         _______ _______ _______ _____ _____    ______ ____

>  <TORSDO>
F 13

$$$$
=
 OpenBabel11042414553D

 55 62  0  0  1  0  0  0  0  0999 V2000
  185.1620  177.4590  141.6670 C   0  0  0  0  0  3  0  0  0  0  0  0
  190.0820  175.5820  145.2560 C   0  0  0  0  0  2  0  0  0  0  0  0
  191.4630  176.1780  147.4860 C   0  0  1  0  0  3  0  0  0  0  0  0
  185.3840  178.3300  143.9410 C   0  0  0  0  0  3  0  0  0  0  0  0
  187.1590  177.8070  145.4070 O   0  0  0  0  0  0  0  0  0  0  0  0
  186.4890  176.7540  141.7510 C   0  0  0  0  0  2  0  0  0  0  0  0
  188.3270  177.0860  145.6670 C   0  0  0  0  0  0  0  0  0  0  0  0
  186.5200  177.6740  144.1700 C   0  0  0  0  0  0  0  0  0  0  0  0
  189.0670  177.1330  146.9530 C   0  0  0  0  0  2  0  0  0  0  0  0
  188.8640  176.2780  144.7570 C   0  0  0  0  0  0  0  0  0  0  0  0
  190.1900  176.1630  146.6570 C   0  0  1  0  0  0  0  0  0  0  0  0
  187.1100  176.7890  143.1280 C   0  0  0  0  0  0  0  0  0  0  0  0
  188.2490  176.1090  143.4140 C   0  0  0  0  0  0  0  0  0  0  0  0
  184.6600  178.1990  142.6600 C   0  0  0  0  0  0  0  0  0  0  0  0
  190.3910  175.1240  147.7360 C   0  0  0  0  0  2  0  0  0  0  0  0
  190.9680  174.4520  141.1550 C   0  0  0  0  0  3  0  0  0  0  0  0
  188.1660  174.3820  141.6920 C   0  0  0  0  0  3  0  0  0  0  0  0
  188.7820  173.4920  140.7040 C   0  0  0  0  0  0  0  0  0  0  0  0
  188.9060  175.2280  142.4190 C   0  0  0  0  0  0  0  0  0  0  0  0
  188.0680  172.6470  140.1040 O   0  0  0  0  0  0  0  0  0  0  0  0
  190.2290  173.6240  140.4130 C   0  0  0  0  0  0  0  0  0  0  0  0
  190.4160  175.2120  142.3350 C   0  0  0  0  0  2  0  0  0  0  0  0
  192.1830  172.8400  139.2230 N   0  0  0  0  0  0  0  0  0  0  0  0
  190.8940  172.9130  139.3110 C   0  0  0  0  0  3  0  0  0  0  0  0
  192.1750  171.4900  137.3140 O   0  0  0  0  0  0  0  0  0  0  0  0
  192.8440  172.1550  138.1540 C   0  0  0  0  0  0  0  0  0  0  0  0
  197.7610  172.2440  139.3430 C   0  0  0  0  0  3  0  0  0  0  0  0
  197.1430  171.0980  138.7530 N   0  0  0  0  0  2  0  0  0  0  0  0
  194.3120  172.2360  138.0350 C   0  0  0  0  0  0  0  0  0  0  0  0
  195.5770  173.3630  139.8390 C   0  0  1  0  0  3  0  0  0  0  0  0
  195.0090  173.5040  138.4290 C   0  0  0  0  0  2  0  0  0  0  0  0
  196.4930  171.1660  137.4530 C   0  0  0  0  0  2  0  0  0  0  0  0
  197.0710  173.2840  139.8140 C   0  0  0  0  0  3  0  0  0  0  0  0
  195.0050  171.1780  137.6030 C   0  0  0  0  0  3  0  0  0  0  0  0
  194.2760  175.3840  140.0770 O   0  0  0  0  0  1  0  0  0  0  0  0
  195.1320  174.5070  140.7480 C   0  0  1  0  0  3  0  0  0  0  0  0
  194.4730  173.9850  141.9310 N   0  0  0  0  0  1  0  0  0  0  0  0
  192.6330  175.5490  146.7430 C   0  0  0  0  0  2  0  0  0  0  0  0
  193.0910  176.9590  144.7150 C   0  0  0  0  0  1  0  0  0  0  0  0
  193.5230  176.6290  146.1360 C   0  0  2  0  0  3  0  0  0  0  0  0
  194.9480  176.2870  146.2070 N   0  0  0  0  0  2  0  0  0  0  0  0
  195.1420  174.8440  146.1070 C   0  0  0  0  0  2  0  0  0  0  0  0
  196.2190  174.5500  145.0860 C   0  0  0  0  0  1  0  0  0  0  0  0
  183.4340  178.8390  142.4670 O   0  0  0  0  0  0  0  0  0  0  0  0
  182.5100  178.3790  141.5520 N   0  0  0  0  0  2  0  0  0  0  0  0
  181.2230  178.9690  141.9000 C   0  0  0  0  0  2  0  0  0  0  0  0
  177.9120  177.9710  140.6930 O   0  0  0  0  0  0  0  0  0  0  0  0
  180.1240  178.5090  140.9260 C   0  0  2  0  0  0  0  0  0  0  0  0
  177.8160  179.7740  142.0200 O   0  0  0  0  0  0  0  0  0  0  0  0
  180.7280  177.5900  139.8750 C   0  0  0  0  0  1  0  0  0  0  0  0
  179.3910  179.6530  140.2170 C   0  0  1  0  0  3  0  0  0  0  0  0
  178.9360  177.8120  141.6150 C   0  0  1  0  0  3  0  0  0  0  0  0
  178.4290  178.7190  142.7180 C   0  0  0  0  0  2  0  0  0  0  0  0
  177.9550  179.3660  140.6710 C   0  0  1  0  0  3  0  0  0  0  0  0
  179.8060  180.9230  140.6400 O   0  0  0  0  0  1  0  0  0  0  0  0
  1  6  1  0  0  0  0
  1 14  2  0  0  0  0
  3 38  1  6  0  0  0
  3 15  1  0  0  0  0
  4  8  2  0  0  0  0
  5  7  1  0  0  0  0
  6 12  1  0  0  0  0
  7  9  1  0  0  0  0
  8  5  1  0  0  0  0
 10  2  1  0  0  0  0
 10  7  2  0  0  0  0
 11  2  1  6  0  0  0
 11  9  1  0  0  0  0
 11  3  1  0  0  0  0
 11 15  1  0  0  0  0
 12 13  2  0  0  0  0
 12  8  1  0  0  0  0
 13 10  1  0  0  0  0
 14  4  1  0  0  0  0
 16 22  1  0  0  0  0
 17 19  2  0  0  0  0
 18 17  1  0  0  0  0
 19 13  1  0  0  0  0
 20 18  2  0  0  0  0
 21 18  1  0  0  0  0
 21 16  2  0  0  0  0
 22 19  1  0  0  0  0
 23 24  2  0  0  0  0
 24 21  1  0  0  0  0
 25 26  2  0  0  0  0
 26 23  1  0  0  0  0
 27 33  2  0  0  0  0
 28 27  1  0  0  0  0
 29 26  1  0  0  0  0
 29 31  1  0  0  0  0
 30 36  1  1  0  0  0
 31 30  1  0  0  0  0
 32 34  1  0  0  0  0
 32 28  1  0  0  0  0
 33 30  1  0  0  0  0
 34 29  2  0  0  0  0
 36 35  1  6  0  0  0
 36 37  1  0  0  0  0
 40 39  1  6  0  0  0
 40 41  1  0  0  0  0
 40 38  1  0  0  0  0
 42 41  1  0  0  0  0
 43 42  1  0  0  0  0
 44 14  1  0  0  0  0
 45 46  1  0  0  0  0
 45 44  1  0  0  0  0
 47 52  1  0  0  0  0
 48 50  1  6  0  0  0
 48 52  1  0  0  0  0
 48 46  1  0  0  0  0
 49 53  1  0  0  0  0
 51 55  1  1  0  0  0
 51 54  1  0  0  0  0
 51 48  1  0  0  0  0
 52 53  1  1  0  0  0
 54 47  1  1  0  0  0
 54 49  1  0  0  0  0
M  END
>  <MODEL>
3

>  <REMARK>
 VINA RESULT:      -7.2      2.053      2.454
  Name = 
  13 active torsions:
  status: ('A' for Active; 'I' for Inactive)
    1  A    between atoms: C_1  and  C_5
    2  A    between atoms: C_1  and  C_48
    3  A    between atoms: C_11  and  C_38
    4  A    between atoms: O_14  and  N_23
    5  A    between atoms: O_14  and  C_46
    6  A    between atoms: C_18  and  C_44
    7  A    between atoms: C_20  and  C_24
    8  A    between atoms: C_22  and  C_37
    9  A    between atoms: N_23  and  C_37
   10  A    between atoms: N_28  and  C_35
   11  A    between atoms: N_28  and  C_48
   12  A    between atoms: C_32  and  C_39
   13  A    between atoms: N_36  and  C_38
                            x       y       z     vdW  Elec       q    Type
                         _______ _______ _______ _____ _____    ______ ____

>  <TORSDO>
F 13

$$$$
=
 OpenBabel11042414553D

 55 62  0  0  1  0  0  0  0  0999 V2000
  189.9470  170.8630  138.9020 C   0  0  0  0  0  3  0  0  0  0  0  0
  194.5270  171.5840  143.2750 C   0  0  0  0  0  2  0  0  0  0  0  0
  196.8800  170.5790  144.1040 C   0  0  1  0  0  3  0  0  0  0  0  0
  192.1110  169.7780  138.5570 C   0  0  0  0  0  3  0  0  0  0  0  0
  193.9130  169.8720  140.0800 O   0  0  0  0  0  0  0  0  0  0  0  0
  190.3400  171.3280  140.2790 C   0  0  0  0  0  3  0  0  0  0  0  0
  194.4520  170.3640  141.2700 C   0  0  0  0  0  0  0  0  0  0  0  0
  192.6070  170.2130  139.7140 C   0  0  1  0  0  3  0  0  0  0  0  0
  195.8340  170.0860  141.7370 C   0  0  0  0  0  2  0  0  0  0  0  0
  193.7480  171.1460  142.0840 C   0  0  0  0  0  0  0  0  0  0  0  0
  195.8500  170.8770  143.0270 C   0  0  1  0  0  0  0  0  0  0  0  0
  191.7910  171.0730  140.6150 C   0  0  0  0  0  0  0  0  0  0  0  0
  192.3460  171.5280  141.7670 C   0  0  0  0  0  0  0  0  0  0  0  0
  190.7470  170.1360  138.1180 C   0  0  0  0  0  0  0  0  0  0  0  0
  197.0580  171.7730  143.1720 C   0  0  0  0  0  2  0  0  0  0  0  0
  190.9410  174.6370  143.6640 C   0  0  0  0  0  3  0  0  0  0  0  0
  190.8560  171.7840  143.6820 C   0  0  0  0  0  3  0  0  0  0  0  0
  190.0890  172.5840  144.6420 C   0  0  0  0  0  0  0  0  0  0  0  0
  191.5880  172.3680  142.7240 C   0  0  0  0  0  0  0  0  0  0  0  0
  189.3420  172.0010  145.4710 O   0  0  0  0  0  0  0  0  0  0  0  0
  190.2290  174.0580  144.6330 C   0  0  0  0  0  0  0  0  0  0  0  0
  191.5540  173.8670  142.5220 C   0  0  0  0  0  2  0  0  0  0  0  0
  188.6140  175.6620  145.4490 N   0  0  0  0  0  0  0  0  0  0  0  0
  189.6540  174.9250  145.6720 C   0  0  0  0  0  3  0  0  0  0  0  0
  188.3730  176.3790  147.6610 O   0  0  0  0  0  0  0  0  0  0  0  0
  188.0440  176.5130  146.4490 C   0  0  0  0  0  0  0  0  0  0  0  0
  184.0880  178.8250  144.3040 C   0  0  0  0  0  3  0  0  0  0  0  0
  184.0990  178.4660  145.6870 N   0  0  0  0  0  2  0  0  0  0  0  0
  187.0750  177.5540  146.0550 C   0  0  0  0  0  0  0  0  0  0  0  0
  186.1230  177.4670  143.7720 C   0  0  1  0  0  3  0  0  0  0  0  0
  187.1520  178.1400  144.6770 C   0  0  0  0  0  2  0  0  0  0  0  0
  185.1040  178.9860  146.6030 C   0  0  0  0  0  2  0  0  0  0  0  0
  185.0070  178.4050  143.4330 C   0  0  0  0  0  3  0  0  0  0  0  0
  186.1290  177.9430  146.9150 C   0  0  0  0  0  3  0  0  0  0  0  0
  186.7770  175.5340  142.4830 O   0  0  0  0  0  1  0  0  0  0  0  0
  186.7580  176.9300  142.4910 C   0  0  1  0  0  3  0  0  0  0  0  0
  186.0390  177.4180  141.3270 N   0  0  0  0  0  1  0  0  0  0  0  0
  196.4290  171.0660  145.4740 C   0  0  0  0  0  2  0  0  0  0  0  0
  197.5710  168.9000  146.0340 C   0  0  0  0  0  1  0  0  0  0  0  0
  196.5900  169.9600  146.5120 C   0  0  2  0  0  3  0  0  0  0  0  0
  195.3050  169.3730  146.9090 N   0  0  0  0  0  2  0  0  0  0  0  0
  194.9530  168.2550  146.0400 C   0  0  0  0  0  2  0  0  0  0  0  0
  193.7180  168.6080  145.2400 C   0  0  0  0  0  1  0  0  0  0  0  0
  190.2720  169.7270  136.8690 O   0  0  0  0  0  0  0  0  0  0  0  0
  190.5490  170.4370  135.7190 N   0  0  0  0  0  2  0  0  0  0  0  0
  190.1610  171.8220  135.9590 C   0  0  0  0  0  2  0  0  0  0  0  0
  192.0710  174.7320  134.8180 O   0  0  0  0  0  0  0  0  0  0  0  0
  191.3550  172.7710  135.7580 C   0  0  2  0  0  0  0  0  0  0  0  0
  190.0600  175.3070  135.6220 O   0  0  0  0  0  0  0  0  0  0  0  0
  192.6420  171.9630  135.6860 C   0  0  0  0  0  1  0  0  0  0  0  0
  191.5030  173.8370  136.8490 C   0  0  1  0  0  3  0  0  0  0  0  0
  191.2290  173.6720  134.5150 C   0  0  1  0  0  3  0  0  0  0  0  0
  189.8920  174.3820  134.5770 C   0  0  0  0  0  2  0  0  0  0  0  0
  191.4120  175.1050  135.9910 C   0  0  1  0  0  3  0  0  0  0  0  0
  190.4760  173.8020  137.8010 O   0  0  0  0  0  1  0  0  0  0  0  0
  1  6  2  0  0  0  0
  3 38  1  1  0  0  0
  5  7  1  0  0  0  0
  6 12  1  0  0  0  0
  7  9  1  0  0  0  0
  7 10  2  0  0  0  0
  8  4  1  6  0  0  0
  8  5  1  0  0  0  0
  8 12  1  0  0  0  0
 10  2  1  0  0  0  0
 11  9  1  6  0  0  0
 11 15  1  0  0  0  0
 11  2  1  0  0  0  0
 11  3  1  0  0  0  0
 12 13  2  0  0  0  0
 13 10  1  0  0  0  0
 13 19  1  0  0  0  0
 14  4  2  0  0  0  0
 14  1  1  0  0  0  0
 15  3  1  0  0  0  0
 16 21  2  0  0  0  0
 17 18  1  0  0  0  0
 18 20  2  0  0  0  0
 19 17  2  0  0  0  0
 21 18  1  0  0  0  0
 21 24  1  0  0  0  0
 22 19  1  0  0  0  0
 22 16  1  0  0  0  0
 23 24  2  0  0  0  0
 23 26  1  0  0  0  0
 26 25  2  0  0  0  0
 27 28  1  0  0  0  0
 28 32  1  0  0  0  0
 29 26  1  0  0  0  0
 29 34  2  0  0  0  0
 30 36  1  6  0  0  0
 30 31  1  0  0  0  0
 31 29  1  0  0  0  0
 32 34  1  0  0  0  0
 33 30  1  0  0  0  0
 33 27  2  0  0  0  0
 35 36  1  0  0  0  0
 36 37  1  6  0  0  0
 38 40  1  0  0  0  0
 40 39  1  6  0  0  0
 40 41  1  0  0  0  0
 42 41  1  0  0  0  0
 43 42  1  0  0  0  0
 44 14  1  0  0  0  0
 45 46  1  0  0  0  0
 45 44  1  0  0  0  0
 48 50  1  6  0  0  0
 48 46  1  0  0  0  0
 48 51  1  0  0  0  0
 49 54  1  0  0  0  0
 51 55  1  1  0  0  0
 52 53  1  1  0  0  0
 52 47  1  0  0  0  0
 52 48  1  0  0  0  0
 53 49  1  0  0  0  0
 54 47  1  6  0  0  0
 54 51  1  0  0  0  0
M  END
>  <MODEL>
4

>  <REMARK>
 VINA RESULT:      -7.2      3.723     10.414
  Name = 
  13 active torsions:
  status: ('A' for Active; 'I' for Inactive)
    1  A    between atoms: C_1  and  C_5
    2  A    between atoms: C_1  and  C_48
    3  A    between atoms: C_11  and  C_38
    4  A    between atoms: O_14  and  N_23
    5  A    between atoms: O_14  and  C_46
    6  A    between atoms: C_18  and  C_44
    7  A    between atoms: C_20  and  C_24
    8  A    between atoms: C_22  and  C_37
    9  A    between atoms: N_23  and  C_37
   10  A    between atoms: N_28  and  C_35
   11  A    between atoms: N_28  and  C_48
   12  A    between atoms: C_32  and  C_39
   13  A    between atoms: N_36  and  C_38
                            x       y       z     vdW  Elec       q    Type
                         _______ _______ _______ _____ _____    ______ ____

>  <TORSDO>
F 13

$$$$
=
 OpenBabel11042414553D

 55 62  0  0  1  0  0  0  0  0999 V2000
  191.8410  169.8590  139.4100 C   0  0  0  0  0  3  0  0  0  0  0  0
  193.9050  175.0200  142.5290 C   0  0  0  0  0  2  0  0  0  0  0  0
  196.0010  176.0060  143.8960 C   0  0  1  0  0  3  0  0  0  0  0  0
  194.2240  170.0810  139.9080 C   0  0  0  0  0  3  0  0  0  0  0  0
  195.1800  171.8810  141.1010 O   0  0  0  0  0  0  0  0  0  0  0  0
  191.5060  171.0950  140.2020 C   0  0  0  0  0  2  0  0  0  0  0  0
  195.0250  173.1140  141.7370 C   0  0  0  0  0  0  0  0  0  0  0  0
  194.0670  171.2370  140.5520 C   0  0  0  0  0  0  0  0  0  0  0  0
  196.1420  173.8930  142.3280 C   0  0  0  0  0  2  0  0  0  0  0  0
  193.8350  173.6960  141.8500 C   0  0  0  0  0  0  0  0  0  0  0  0
  195.3920  175.1070  142.8330 C   0  0  1  0  0  0  0  0  0  0  0  0
  192.7200  171.8580  140.6800 C   0  0  0  0  0  0  0  0  0  0  0  0
  192.6060  173.0550  141.3090 C   0  0  0  0  0  0  0  0  0  0  0  0
  193.0810  169.3790  139.2890 C   0  0  0  0  0  0  0  0  0  0  0  0
  196.0220  176.4190  142.4280 C   0  0  0  0  0  2  0  0  0  0  0  0
  189.5890  174.9010  142.9590 C   0  0  0  0  0  3  0  0  0  0  0  0
  190.4270  173.7700  140.4770 C   0  0  0  0  0  3  0  0  0  0  0  0
  189.1250  174.4260  140.6230 C   0  0  0  0  0  0  0  0  0  0  0  0
  191.2960  173.7220  141.4950 C   0  0  0  0  0  0  0  0  0  0  0  0
  188.3720  174.5320  139.6190 O   0  0  0  0  0  0  0  0  0  0  0  0
  188.7120  174.9300  141.9530 C   0  0  0  0  0  0  0  0  0  0  0  0
  191.0170  174.4480  142.7920 C   0  0  0  0  0  2  0  0  0  0  0  0
  187.1250  176.6770  142.4800 N   0  0  0  0  0  0  0  0  0  0  0  0
  187.3580  175.4280  142.2380 C   0  0  0  0  0  3  0  0  0  0  0  0
  185.0120  177.4280  141.8190 O   0  0  0  0  0  0  0  0  0  0  0  0
  185.8130  177.1750  142.7620 C   0  0  0  0  0  0  0  0  0  0  0  0
  185.8450  178.6070  147.6150 C   0  0  0  0  0  3  0  0  0  0  0  0
  185.0890  179.3040  146.6220 N   0  0  0  0  0  2  0  0  0  0  0  0
  185.4000  177.3860  144.1630 C   0  0  0  0  0  0  0  0  0  0  0  0
  187.1310  177.2770  145.9280 C   0  0  1  0  0  3  0  0  0  0  0  0
  185.9940  176.5270  145.2380 C   0  0  0  0  0  2  0  0  0  0  0  0
  184.0500  178.6400  145.8490 C   0  0  0  0  0  2  0  0  0  0  0  0
  186.7500  177.6730  147.3200 C   0  0  0  0  0  3  0  0  0  0  0  0
  184.5240  178.3510  144.4600 C   0  0  0  0  0  3  0  0  0  0  0  0
  189.5400  177.2800  146.0860 O   0  0  0  0  0  1  0  0  0  0  0  0
  188.4190  176.4570  145.9540 C   0  0  1  0  0  3  0  0  0  0  0  0
  188.3840  175.4950  147.0420 N   0  0  0  0  0  1  0  0  0  0  0  0
  194.9420  176.8100  144.6360 C   0  0  0  0  0  2  0  0  0  0  0  0
  195.1670  174.8770  146.2240 C   0  0  0  0  0  1  0  0  0  0  0  0
  194.8490  176.3590  146.0900 C   0  0  2  0  0  3  0  0  0  0  0  0
  193.5580  176.6960  146.7000 N   0  0  0  0  0  2  0  0  0  0  0  0
  192.5700  175.6540  146.4380 C   0  0  0  0  0  2  0  0  0  0  0  0
  191.8120  175.3470  147.7100 C   0  0  0  0  0  1  0  0  0  0  0  0
  193.2790  168.2060  138.5580 O   0  0  0  0  0  0  0  0  0  0  0  0
  193.2790  168.2000  137.1790 N   0  0  0  0  0  2  0  0  0  0  0  0
  194.2820  169.1630  136.7400 C   0  0  0  0  0  2  0  0  0  0  0  0
  193.5350  172.4020  135.2020 O   0  0  0  0  0  0  0  0  0  0  0  0
  193.6720  170.1880  135.7690 C   0  0  2  0  0  0  0  0  0  0  0  0
  195.7140  172.1750  135.6710 O   0  0  0  0  0  0  0  0  0  0  0  0
  192.2900  169.7230  135.3370 C   0  0  0  0  0  1  0  0  0  0  0  0
  194.5160  170.4490  134.5170 C   0  0  1  0  0  3  0  0  0  0  0  0
  193.5920  171.6150  136.3430 C   0  0  1  0  0  3  0  0  0  0  0  0
  194.9670  172.0010  136.8500 C   0  0  0  0  0  2  0  0  0  0  0  0
  194.7440  171.9590  134.6630 C   0  0  1  0  0  3  0  0  0  0  0  0
  195.7350  169.7570  134.5160 O   0  0  0  0  0  1  0  0  0  0  0  0
  1  6  1  0  0  0  0
  2 11  1  0  0  0  0
  3 38  1  1  0  0  0
  4  8  2  0  0  0  0
  5  7  1  0  0  0  0
  6 12  1  0  0  0  0
  7 10  2  0  0  0  0
  7  9  1  0  0  0  0
  8 12  1  0  0  0  0
  8  5  1  0  0  0  0
 10  2  1  0  0  0  0
 11  9  1  6  0  0  0
 11  3  1  0  0  0  0
 12 13  2  0  0  0  0
 13 19  1  0  0  0  0
 13 10  1  0  0  0  0
 14  1  2  0  0  0  0
 14  4  1  0  0  0  0
 15 11  1  0  0  0  0
 15  3  1  0  0  0  0
 17 18  1  0  0  0  0
 17 19  2  0  0  0  0
 18 21  1  0  0  0  0
 19 22  1  0  0  0  0
 20 18  2  0  0  0  0
 21 24  1  0  0  0  0
 21 16  2  0  0  0  0
 22 16  1  0  0  0  0
 23 26  1  0  0  0  0
 24 23  2  0  0  0  0
 25 26  2  0  0  0  0
 26 29  1  0  0  0  0
 28 27  1  0  0  0  0
 29 34  2  0  0  0  0
 29 31  1  0  0  0  0
 30 36  1  1  0  0  0
 30 33  1  0  0  0  0
 31 30  1  0  0  0  0
 32 28  1  0  0  0  0
 33 27  2  0  0  0  0
 34 32  1  0  0  0  0
 36 35  1  1  0  0  0
 36 37  1  0  0  0  0
 38 40  1  0  0  0  0
 40 39  1  6  0  0  0
 40 41  1  0  0  0  0
 42 41  1  0  0  0  0
 42 43  1  0  0  0  0
 44 14  1  0  0  0  0
 45 44  1  0  0  0  0
 46 45  1  0  0  0  0
 47 52  1  0  0  0  0
 48 50  1  6  0  0  0
 48 52  1  0  0  0  0
 48 46  1  0  0  0  0
 49 53  1  0  0  0  0
 51 55  1  1  0  0  0
 51 54  1  0  0  0  0
 51 48  1  0  0  0  0
 52 53  1  6  0  0  0
 54 47  1  1  0  0  0
 54 49  1  0  0  0  0
M  END
>  <MODEL>
5

>  <REMARK>
 VINA RESULT:      -6.9      3.401     11.275
  Name = 
  13 active torsions:
  status: ('A' for Active; 'I' for Inactive)
    1  A    between atoms: C_1  and  C_5
    2  A    between atoms: C_1  and  C_48
    3  A    between atoms: C_11  and  C_38
    4  A    between atoms: O_14  and  N_23
    5  A    between atoms: O_14  and  C_46
    6  A    between atoms: C_18  and  C_44
    7  A    between atoms: C_20  and  C_24
    8  A    between atoms: C_22  and  C_37
    9  A    between atoms: N_23  and  C_37
   10  A    between atoms: N_28  and  C_35
   11  A    between atoms: N_28  and  C_48
   12  A    between atoms: C_32  and  C_39
   13  A    between atoms: N_36  and  C_38
                            x       y       z     vdW  Elec       q    Type
                         _______ _______ _______ _____ _____    ______ ____

>  <TORSDO>
F 13

$$$$
=
 OpenBabel11042414553D

 55 62  0  0  1  0  0  0  0  0999 V2000
  193.9300  171.5370  144.1790 C   0  0  0  0  0  3  0  0  0  0  0  0
  190.5540  170.9810  138.8020 C   0  0  0  0  0  2  0  0  0  0  0  0
  190.7150  170.1750  136.2410 C   0  0  1  0  0  3  0  0  0  0  0  0
  194.7780  170.1210  142.3760 C   0  0  0  0  0  3  0  0  0  0  0  0
  193.7130  169.8290  140.2890 O   0  0  0  0  0  0  0  0  0  0  0  0
  192.7860  172.0240  143.3300 C   0  0  0  0  0  3  0  0  0  0  0  0
  192.6240  170.0840  139.4530 C   0  0  0  0  0  0  0  0  0  0  0  0
  193.7600  170.4010  141.5640 C   0  0  1  0  0  3  0  0  0  0  0  0
  192.4630  169.5070  138.0950 C   0  0  0  0  0  2  0  0  0  0  0  0
  191.6250  170.8760  139.8310 C   0  0  0  0  0  0  0  0  0  0  0  0
  191.1290  170.1040  137.7010 C   0  0  1  0  0  0  0  0  0  0  0  0
  192.6630  171.3060  142.0060 C   0  0  0  0  0  0  0  0  0  0  0  0
  191.6240  171.5360  141.1650 C   0  0  0  0  0  0  0  0  0  0  0  0
  194.8560  170.6810  143.7410 C   0  0  0  0  0  0  0  0  0  0  0  0
  190.1520  169.0910  137.1530 C   0  0  0  0  0  2  0  0  0  0  0  0
  188.0700  172.8430  142.1140 C   0  0  0  0  0  3  0  0  0  0  0  0
  190.7120  173.7650  141.5530 C   0  0  0  0  0  3  0  0  0  0  0  0
  189.6340  174.6910  141.9110 C   0  0  0  0  0  0  0  0  0  0  0  0
  190.5080  172.4420  141.5260 C   0  0  0  0  0  0  0  0  0  0  0  0
  189.8850  175.9200  142.0150 O   0  0  0  0  0  0  0  0  0  0  0  0
  188.2650  174.1640  142.1200 C   0  0  0  0  0  0  0  0  0  0  0  0
  189.1940  171.8470  141.9800 C   0  0  0  0  0  2  0  0  0  0  0  0
  187.1940  176.2510  142.7060 N   0  0  0  0  0  0  0  0  0  0  0  0
  187.0890  175.0290  142.2930 C   0  0  0  0  0  3  0  0  0  0  0  0
  185.4870  177.6190  141.8810 O   0  0  0  0  0  0  0  0  0  0  0  0
  186.0580  177.1040  142.8830 C   0  0  0  0  0  0  0  0  0  0  0  0
  185.7470  178.7930  147.6420 C   0  0  0  0  0  3  0  0  0  0  0  0
  185.0280  179.4070  146.5700 N   0  0  0  0  0  2  0  0  0  0  0  0
  185.5540  177.3730  144.2430 C   0  0  0  0  0  0  0  0  0  0  0  0
  187.1780  177.4250  146.1090 C   0  0  1  0  0  3  0  0  0  0  0  0
  186.1120  176.5970  145.3970 C   0  0  0  0  0  2  0  0  0  0  0  0
  184.0620  178.6630  145.7750 C   0  0  0  0  0  2  0  0  0  0  0  0
  186.7010  177.8800  147.4530 C   0  0  0  0  0  3  0  0  0  0  0  0
  184.6290  178.3190  144.4350 C   0  0  0  0  0  3  0  0  0  0  0  0
  188.5360  175.5610  145.3920 O   0  0  0  0  0  1  0  0  0  0  0  0
  188.4910  176.6580  146.2560 C   0  0  1  0  0  3  0  0  0  0  0  0
  189.6200  177.5340  145.9980 N   0  0  0  0  0  1  0  0  0  0  0  0
  189.6540  171.2410  136.0010 C   0  0  0  0  0  2  0  0  0  0  0  0
  191.7740  172.5280  135.6020 C   0  0  0  0  0  1  0  0  0  0  0  0
  190.2750  172.4730  135.3520 C   0  0  2  0  0  3  0  0  0  0  0  0
  189.6090  173.7160  135.7580 N   0  0  0  0  0  2  0  0  0  0  0  0
  190.0060  174.1010  137.1090 C   0  0  0  0  0  2  0  0  0  0  0  0
  188.7830  174.1580  137.9970 C   0  0  0  0  0  1  0  0  0  0  0  0
  195.8960  170.3180  144.6000 O   0  0  0  0  0  0  0  0  0  0  0  0
  196.5850  171.2530  145.3430 N   0  0  0  0  0  2  0  0  0  0  0  0
  195.7570  172.4510  145.4100 C   0  0  0  0  0  2  0  0  0  0  0  0
  197.6560  175.2040  143.9160 O   0  0  0  0  0  0  0  0  0  0  0  0
  196.6180  173.7220  145.3190 C   0  0  2  0  0  0  0  0  0  0  0  0
  195.6990  174.8700  142.8770 O   0  0  0  0  0  0  0  0  0  0  0  0
  197.5670  173.7810  146.5080 C   0  0  0  0  0  1  0  0  0  0  0  0
  195.8140  175.0260  145.2660 C   0  0  1  0  0  3  0  0  0  0  0  0
  197.4130  173.8410  144.0050 C   0  0  1  0  0  3  0  0  0  0  0  0
  196.4460  173.6780  142.8490 C   0  0  0  0  0  2  0  0  0  0  0  0
  196.3140  175.5890  143.9300 C   0  0  1  0  0  3  0  0  0  0  0  0
  194.4290  174.8210  145.2360 O   0  0  0  0  0  1  0  0  0  0  0  0
  2 10  1  0  0  0  0
  3 38  1  1  0  0  0
  3 15  1  0  0  0  0
  3 11  1  0  0  0  0
  4 14  2  0  0  0  0
  5  8  1  0  0  0  0
  6  1  2  0  0  0  0
  7 10  2  0  0  0  0
  7  5  1  0  0  0  0
  8 12  1  0  0  0  0
  8  4  1  1  0  0  0
  9  7  1  0  0  0  0
 10 13  1  0  0  0  0
 11 15  1  1  0  0  0
 11  9  1  0  0  0  0
 11  2  1  0  0  0  0
 12  6  1  0  0  0  0
 13 19  1  0  0  0  0
 13 12  2  0  0  0  0
 14  1  1  0  0  0  0
 14 44  1  0  0  0  0
 16 21  2  0  0  0  0
 17 18  1  0  0  0  0
 18 20  2  0  0  0  0
 18 21  1  0  0  0  0
 19 17  2  0  0  0  0
 19 22  1  0  0  0  0
 21 24  1  0  0  0  0
 22 16  1  0  0  0  0
 23 26  1  0  0  0  0
 24 23  2  0  0  0  0
 25 26  2  0  0  0  0
 26 29  1  0  0  0  0
 28 27  1  0  0  0  0
 29 34  2  0  0  0  0
 29 31  1  0  0  0  0
 30 36  1  1  0  0  0
 30 33  1  0  0  0  0
 31 30  1  0  0  0  0
 32 28  1  0  0  0  0
 33 27  2  0  0  0  0
 34 32  1  0  0  0  0
 36 35  1  6  0  0  0
 37 36  1  0  0  0  0
 40 39  1  1  0  0  0
 40 41  1  0  0  0  0
 40 38  1  0  0  0  0
 41 42  1  0  0  0  0
 42 43  1  0  0  0  0
 44 45  1  0  0  0  0
 45 46  1  0  0  0  0
 47 54  1  0  0  0  0
 47 52  1  0  0  0  0
 48 46  1  0  0  0  0
 48 50  1  1  0  0  0
 51 55  1  6  0  0  0
 51 48  1  0  0  0  0
 52 53  1  6  0  0  0
 52 48  1  0  0  0  0
 53 49  1  0  0  0  0
 54 49  1  6  0  0  0
 54 51  1  0  0  0  0
M  END
>  <MODEL>
6

>  <REMARK>
 VINA RESULT:      -6.6      3.542     12.125
  Name = 
  13 active torsions:
  status: ('A' for Active; 'I' for Inactive)
    1  A    between atoms: C_1  and  C_5
    2  A    between atoms: C_1  and  C_48
    3  A    between atoms: C_11  and  C_38
    4  A    between atoms: O_14  and  N_23
    5  A    between atoms: O_14  and  C_46
    6  A    between atoms: C_18  and  C_44
    7  A    between atoms: C_20  and  C_24
    8  A    between atoms: C_22  and  C_37
    9  A    between atoms: N_23  and  C_37
   10  A    between atoms: N_28  and  C_35
   11  A    between atoms: N_28  and  C_48
   12  A    between atoms: C_32  and  C_39
   13  A    between atoms: N_36  and  C_38
                            x       y       z     vdW  Elec       q    Type
                         _______ _______ _______ _____ _____    ______ ____

>  <TORSDO>
F 13

$$$$
=
 OpenBabel11042414553D

 55 62  0  0  1  0  0  0  0  0999 V2000
  194.6630  173.5630  144.0780 C   0  0  0  0  0  3  0  0  0  0  0  0
  191.1300  170.8640  139.5110 C   0  0  0  0  0  2  0  0  0  0  0  0
  191.2710  169.2730  137.3480 C   0  0  1  0  0  3  0  0  0  0  0  0
  195.6060  171.7320  142.7620 C   0  0  0  0  0  3  0  0  0  0  0  0
  194.4880  170.6400  140.9920 O   0  0  0  0  0  0  0  0  0  0  0  0
  193.4220  173.6050  143.2270 C   0  0  0  0  0  3  0  0  0  0  0  0
  193.3340  170.4770  140.2230 C   0  0  0  0  0  0  0  0  0  0  0  0
  194.5200  171.6070  142.0020 C   0  0  1  0  0  3  0  0  0  0  0  0
  193.1860  169.4650  139.1470 C   0  0  0  0  0  2  0  0  0  0  0  0
  192.2560  171.2310  140.4150 C   0  0  0  0  0  0  0  0  0  0  0  0
  191.7640  169.7410  138.7060 C   0  0  1  0  0  0  0  0  0  0  0  0
  193.3330  172.4770  142.2250 C   0  0  0  0  0  0  0  0  0  0  0  0
  192.2310  172.2940  141.4550 C   0  0  0  0  0  0  0  0  0  0  0  0
  195.6750  172.7200  143.8570 C   0  0  0  0  0  0  0  0  0  0  0  0
  190.9090  168.4990  138.6110 C   0  0  0  0  0  2  0  0  0  0  0  0
  189.8810  175.4060  141.6370 C   0  0  0  0  0  3  0  0  0  0  0  0
  189.8560  172.5690  141.9440 C   0  0  0  0  0  3  0  0  0  0  0  0
  188.6380  173.3700  142.0960 C   0  0  0  0  0  0  0  0  0  0  0  0
  191.0210  173.1360  141.6050 C   0  0  0  0  0  0  0  0  0  0  0  0
  187.5440  172.7920  142.3270 O   0  0  0  0  0  0  0  0  0  0  0  0
  188.7250  174.8460  141.9980 C   0  0  0  0  0  0  0  0  0  0  0  0
  191.0960  174.6040  141.2460 C   0  0  0  0  0  2  0  0  0  0  0  0
  187.1160  175.8200  143.5180 N   0  0  0  0  0  0  0  0  0  0  0  0
  187.6020  175.7390  142.3220 C   0  0  0  0  0  3  0  0  0  0  0  0
  185.2260  177.0730  142.9480 O   0  0  0  0  0  0  0  0  0  0  0  0
  186.0210  176.6820  143.8470 C   0  0  0  0  0  0  0  0  0  0  0  0
  186.6020  179.0700  148.2700 C   0  0  0  0  0  3  0  0  0  0  0  0
  185.5580  179.4100  147.3540 N   0  0  0  0  0  2  0  0  0  0  0  0
  185.8230  177.1050  145.2470 C   0  0  0  0  0  0  0  0  0  0  0  0
  187.8200  177.6550  146.6020 C   0  0  1  0  0  3  0  0  0  0  0  0
  186.7590  176.5990  146.3030 C   0  0  0  0  0  2  0  0  0  0  0  0
  184.5590  178.4370  146.9400 C   0  0  0  0  0  2  0  0  0  0  0  0
  187.6140  178.2600  147.9550 C   0  0  0  0  0  3  0  0  0  0  0  0
  184.8340  177.9500  145.5530 C   0  0  0  0  0  3  0  0  0  0  0  0
  189.8380  177.4510  145.2910 O   0  0  0  0  0  1  0  0  0  0  0  0
  189.2330  177.0860  146.4960 C   0  0  1  0  0  3  0  0  0  0  0  0
  190.0460  177.5400  147.6110 N   0  0  0  0  0  1  0  0  0  0  0  0
  190.0640  170.0690  136.8750 C   0  0  0  0  0  2  0  0  0  0  0  0
  191.8430  170.6200  135.1900 C   0  0  0  0  0  1  0  0  0  0  0  0
  190.3810  170.7960  135.5710 C   0  0  2  0  0  3  0  0  0  0  0  0
  189.9940  172.2100  135.6090 N   0  0  0  0  0  2  0  0  0  0  0  0
  189.3320  172.5350  136.8690 C   0  0  0  0  0  2  0  0  0  0  0  0
  190.0240  173.7160  137.5120 C   0  0  0  0  0  1  0  0  0  0  0  0
  196.7970  172.7850  144.6870 O   0  0  0  0  0  0  0  0  0  0  0  0
  197.1260  171.7560  145.5440 N   0  0  0  0  0  2  0  0  0  0  0  0
  196.8220  170.5050  144.8590 C   0  0  0  0  0  2  0  0  0  0  0  0
  194.3940  168.6970  146.9210 O   0  0  0  0  0  0  0  0  0  0  0  0
  196.2620  169.4610  145.8410 C   0  0  2  0  0  0  0  0  0  0  0  0
  193.6050  169.1210  144.8680 O   0  0  0  0  0  0  0  0  0  0  0  0
  197.3220  169.1150  146.8760 C   0  0  0  0  0  1  0  0  0  0  0  0
  195.7810  168.1670  145.1770 C   0  0  1  0  0  3  0  0  0  0  0  0
  194.9650  169.9030  146.5430 C   0  0  1  0  0  3  0  0  0  0  0  0
  193.9730  170.3320  145.4810 C   0  0  0  0  0  2  0  0  0  0  0  0
  194.3170  168.1660  145.6320 C   0  0  1  0  0  3  0  0  0  0  0  0
  195.8720  168.1940  143.7790 O   0  0  0  0  0  1  0  0  0  0  0  0
  2 10  1  0  0  0  0
  3 38  1  1  0  0  0
  3 15  1  0  0  0  0
  3 11  1  0  0  0  0
  4 14  2  0  0  0  0
  5  8  1  0  0  0  0
  6  1  2  0  0  0  0
  7 10  2  0  0  0  0
  7  5  1  0  0  0  0
  8 12  1  0  0  0  0
  8  4  1  1  0  0  0
  9  7  1  0  0  0  0
 10 13  1  0  0  0  0
 11 15  1  1  0  0  0
 11  9  1  0  0  0  0
 11  2  1  0  0  0  0
 12  6  1  0  0  0  0
 13 19  1  0  0  0  0
 13 12  2  0  0  0  0
 14  1  1  0  0  0  0
 14 44  1  0  0  0  0
 16 21  2  0  0  0  0
 17 18  1  0  0  0  0
 18 20  2  0  0  0  0
 19 17  2  0  0  0  0
 21 18  1  0  0  0  0
 21 24  1  0  0  0  0
 22 19  1  0  0  0  0
 22 16  1  0  0  0  0
 23 26  1  0  0  0  0
 24 23  2  0  0  0  0
 25 26  2  0  0  0  0
 26 29  1  0  0  0  0
 28 27  1  0  0  0  0
 29 34  2  0  0  0  0
 29 31  1  0  0  0  0
 30 36  1  1  0  0  0
 30 33  1  0  0  0  0
 31 30  1  0  0  0  0
 32 28  1  0  0  0  0
 33 27  2  0  0  0  0
 34 32  1  0  0  0  0
 36 35  1  6  0  0  0
 36 37  1  0  0  0  0
 40 39  1  1  0  0  0
 40 41  1  0  0  0  0
 40 38  1  0  0  0  0
 41 42  1  0  0  0  0
 42 43  1  0  0  0  0
 44 45  1  0  0  0  0
 46 45  1  0  0  0  0
 46 48  1  0  0  0  0
 48 52  1  0  0  0  0
 48 50  1  1  0  0  0
 49 53  1  0  0  0  0
 51 55  1  6  0  0  0
 51 54  1  0  0  0  0
 51 48  1  0  0  0  0
 52 53  1  6  0  0  0
 52 47  1  0  0  0  0
 54 49  1  6  0  0  0
 54 47  1  0  0  0  0
M  END
>  <MODEL>
7

>  <REMARK>
 VINA RESULT:      -6.5      3.945     12.461
  Name = 
  13 active torsions:
  status: ('A' for Active; 'I' for Inactive)
    1  A    between atoms: C_1  and  C_5
    2  A    between atoms: C_1  and  C_48
    3  A    between atoms: C_11  and  C_38
    4  A    between atoms: O_14  and  N_23
    5  A    between atoms: O_14  and  C_46
    6  A    between atoms: C_18  and  C_44
    7  A    between atoms: C_20  and  C_24
    8  A    between atoms: C_22  and  C_37
    9  A    between atoms: N_23  and  C_37
   10  A    between atoms: N_28  and  C_35
   11  A    between atoms: N_28  and  C_48
   12  A    between atoms: C_32  and  C_39
   13  A    between atoms: N_36  and  C_38
                            x       y       z     vdW  Elec       q    Type
                         _______ _______ _______ _____ _____    ______ ____

>  <TORSDO>
F 13

$$$$
=
 OpenBabel11042414553D

 55 62  0  0  1  0  0  0  0  0999 V2000
  187.5160  177.4200  143.1840 C   0  0  0  0  0  3  0  0  0  0  0  0
  189.6030  173.1220  138.9670 C   0  0  0  0  0  2  0  0  0  0  0  0
  189.1160  172.0950  136.5290 C   0  0  1  0  0  3  0  0  0  0  0  0
  186.7410  177.5440  140.8690 C   0  0  0  0  0  3  0  0  0  0  0  0
  187.3470  176.0180  139.1710 O   0  0  0  0  0  0  0  0  0  0  0  0
  188.2420  176.1270  142.9280 C   0  0  0  0  0  3  0  0  0  0  0  0
  188.0930  174.9090  138.7670 C   0  0  0  0  0  0  0  0  0  0  0  0
  187.4210  176.4600  140.4960 C   0  0  1  0  0  3  0  0  0  0  0  0
  188.1080  174.3750  137.3820 C   0  0  0  0  0  2  0  0  0  0  0  0
  188.8710  174.2450  139.6170 C   0  0  0  0  0  0  0  0  0  0  0  0
  189.0810  173.2260  137.5430 C   0  0  1  0  0  0  0  0  0  0  0  0
  188.2710  175.7240  141.4720 C   0  0  0  0  0  0  0  0  0  0  0  0
  188.9780  174.6470  141.0440 C   0  0  0  0  0  0  0  0  0  0  0  0
  186.8110  178.0630  142.2500 C   0  0  0  0  0  0  0  0  0  0  0  0
  190.1650  173.2010  136.4910 C   0  0  0  0  0  2  0  0  0  0  0  0
  192.1040  173.0670  142.7670 C   0  0  0  0  0  3  0  0  0  0  0  0
  189.2520  173.0360  142.8560 C   0  0  0  0  0  3  0  0  0  0  0  0
  190.0600  172.2380  143.7830 C   0  0  0  0  0  0  0  0  0  0  0  0
  189.8270  173.8520  141.9630 C   0  0  0  0  0  0  0  0  0  0  0  0
  189.4850  171.5530  144.6690 O   0  0  0  0  0  0  0  0  0  0  0  0
  191.5350  172.2370  143.6430 C   0  0  0  0  0  0  0  0  0  0  0  0
  191.3230  174.0720  141.9580 C   0  0  0  0  0  2  0  0  0  0  0  0
  192.6170  170.1070  144.0200 N   0  0  0  0  0  0  0  0  0  0  0  0
  192.4110  171.3280  144.3960 C   0  0  0  0  0  3  0  0  0  0  0  0
  192.9850  168.1700  145.2750 O   0  0  0  0  0  0  0  0  0  0  0  0
  193.4650  169.2110  144.7450 C   0  0  0  0  0  0  0  0  0  0  0  0
  197.9000  171.6400  144.5660 C   0  0  0  0  0  3  0  0  0  0  0  0
  197.1950  171.4360  145.7920 N   0  0  0  0  0  2  0  0  0  0  0  0
  194.9060  169.5060  144.8640 C   0  0  0  0  0  0  0  0  0  0  0  0
  195.9540  170.9490  143.1490 C   0  0  1  0  0  3  0  0  0  0  0  0
  195.7550  169.5140  143.6280 C   0  0  0  0  0  2  0  0  0  0  0  0
  196.8770  170.1000  146.2770 C   0  0  0  0  0  2  0  0  0  0  0  0
  197.3640  171.4010  143.3670 C   0  0  0  0  0  3  0  0  0  0  0  0
  195.4310  169.7860  146.0600 C   0  0  0  0  0  3  0  0  0  0  0  0
  194.3770  170.4650  141.3860 O   0  0  0  0  0  1  0  0  0  0  0  0
  195.5780  171.1150  141.6780 C   0  0  1  0  0  3  0  0  0  0  0  0
  195.4690  172.5240  141.3400 N   0  0  0  0  0  1  0  0  0  0  0  0
  189.7300  170.8300  137.1090 C   0  0  0  0  0  2  0  0  0  0  0  0
  191.2080  169.6280  135.4720 C   0  0  0  0  0  1  0  0  0  0  0  0
  191.1570  170.6480  136.6000 C   0  0  2  0  0  3  0  0  0  0  0  0
  192.0990  170.3190  137.6750 N   0  0  0  0  0  2  0  0  0  0  0  0
  192.2440  168.8730  137.8160 C   0  0  0  0  0  2  0  0  0  0  0  0
  193.5760  168.5610  138.4610 C   0  0  0  0  0  1  0  0  0  0  0  0
  186.1470  179.2400  142.6010 O   0  0  0  0  0  0  0  0  0  0  0  0
  185.1790  179.2640  143.5840 N   0  0  0  0  0  2  0  0  0  0  0  0
  185.8650  179.3530  144.8670 C   0  0  0  0  0  2  0  0  0  0  0  0
  185.1620  176.7730  147.3710 O   0  0  0  0  0  0  0  0  0  0  0  0
  185.1070  178.5690  145.9520 C   0  0  2  0  0  0  0  0  0  0  0  0
  187.2490  177.5700  147.5460 O   0  0  0  0  0  0  0  0  0  0  0  0
  183.6120  178.6430  145.6830 C   0  0  0  0  0  1  0  0  0  0  0  0
  185.3740  179.0540  147.3820 C   0  0  1  0  0  3  0  0  0  0  0  0
  185.5480  177.0990  146.0790 C   0  0  1  0  0  3  0  0  0  0  0  0
  187.0540  177.0680  146.2470 C   0  0  0  0  0  2  0  0  0  0  0  0
  185.9220  177.7610  147.9990 C   0  0  1  0  0  3  0  0  0  0  0  0
  186.3230  180.0830  147.4490 O   0  0  0  0  0  1  0  0  0  0  0  0
  2 10  1  0  0  0  0
  3 38  1  1  0  0  0
  3 11  1  0  0  0  0
  4 14  2  0  0  0  0
  5  8  1  0  0  0  0
  6  1  2  0  0  0  0
  7  5  1  0  0  0  0
  7 10  2  0  0  0  0
  8  4  1  6  0  0  0
  8 12  1  0  0  0  0
  9 11  1  0  0  0  0
  9  7  1  0  0  0  0
 10 13  1  0  0  0  0
 11 15  1  6  0  0  0
 11  2  1  0  0  0  0
 12  6  1  0  0  0  0
 13 12  2  0  0  0  0
 13 19  1  0  0  0  0
 14 44  1  0  0  0  0
 14  1  1  0  0  0  0
 15  3  1  0  0  0  0
 16 21  2  0  0  0  0
 17 18  1  0  0  0  0
 18 20  2  0  0  0  0
 19 17  2  0  0  0  0
 21 18  1  0  0  0  0
 21 24  1  0  0  0  0
 22 19  1  0  0  0  0
 22 16  1  0  0  0  0
 23 24  2  0  0  0  0
 23 26  1  0  0  0  0
 26 29  1  0  0  0  0
 26 25  2  0  0  0  0
 27 28  1  0  0  0  0
 28 32  1  0  0  0  0
 29 34  2  0  0  0  0
 30 36  1  6  0  0  0
 30 33  1  0  0  0  0
 30 31  1  0  0  0  0
 31 29  1  0  0  0  0
 33 27  2  0  0  0  0
 34 32  1  0  0  0  0
 35 36  1  0  0  0  0
 36 37  1  1  0  0  0
 40 39  1  6  0  0  0
 40 38  1  0  0  0  0
 40 41  1  0  0  0  0
 41 42  1  0  0  0  0
 42 43  1  0  0  0  0
 44 45  1  0  0  0  0
 45 46  1  0  0  0  0
 46 48  1  0  0  0  0
 48 50  1  6  0  0  0
 48 52  1  0  0  0  0
 48 51  1  0  0  0  0
 49 54  1  0  0  0  0
 51 55  1  6  0  0  0
 51 54  1  0  0  0  0
 52 53  1  1  0  0  0
 52 47  1  0  0  0  0
 53 49  1  0  0  0  0
 54 47  1  6  0  0  0
M  END
>  <MODEL>
8

>  <REMARK>
 VINA RESULT:      -6.4      3.928      7.759
  Name = 
  13 active torsions:
  status: ('A' for Active; 'I' for Inactive)
    1  A    between atoms: C_1  and  C_5
    2  A    between atoms: C_1  and  C_48
    3  A    between atoms: C_11  and  C_38
    4  A    between atoms: O_14  and  N_23
    5  A    between atoms: O_14  and  C_46
    6  A    between atoms: C_18  and  C_44
    7  A    between atoms: C_20  and  C_24
    8  A    between atoms: C_22  and  C_37
    9  A    between atoms: N_23  and  C_37
   10  A    between atoms: N_28  and  C_35
   11  A    between atoms: N_28  and  C_48
   12  A    between atoms: C_32  and  C_39
   13  A    between atoms: N_36  and  C_38
                            x       y       z     vdW  Elec       q    Type
                         _______ _______ _______ _____ _____    ______ ____

>  <TORSDO>
F 13

$$$$
=
 OpenBabel11042414553D

 55 62  0  0  1  0  0  0  0  0999 V2000
  194.6020  173.8850  144.1380 C   0  0  0  0  0  3  0  0  0  0  0  0
  188.7720  176.3080  145.0010 C   0  0  0  0  0  2  0  0  0  0  0  0
  187.0780  177.2040  146.8890 C   0  0  1  0  0  3  0  0  0  0  0  0
  194.0610  174.9700  146.2610 C   0  0  0  0  0  3  0  0  0  0  0  0
  191.9490  175.8770  146.8000 O   0  0  0  0  0  0  0  0  0  0  0  0
  193.1830  174.0060  143.6530 C   0  0  0  0  0  2  0  0  0  0  0  0
  190.6420  176.1830  146.4150 C   0  0  0  0  0  0  0  0  0  0  0  0
  192.8030  175.2230  145.9070 C   0  0  0  0  0  0  0  0  0  0  0  0
  189.6650  176.8970  147.2750 C   0  0  0  0  0  2  0  0  0  0  0  0
  190.1740  175.8550  145.2140 C   0  0  0  0  0  0  0  0  0  0  0  0
  188.4740  176.9580  146.3430 C   0  0  1  0  0  0  0  0  0  0  0  0
  192.2980  174.8290  144.5620 C   0  0  0  0  0  0  0  0  0  0  0  0
  191.0210  175.1370  144.2240 C   0  0  0  0  0  0  0  0  0  0  0  0
  195.0060  174.3060  145.3390 C   0  0  0  0  0  0  0  0  0  0  0  0
  187.8630  178.3350  146.2330 C   0  0  0  0  0  2  0  0  0  0  0  0
  190.4260  173.3110  140.8260 C   0  0  0  0  0  3  0  0  0  0  0  0
  189.4370  175.4760  142.4000 C   0  0  0  0  0  3  0  0  0  0  0  0
  188.8370  175.1260  141.1090 C   0  0  0  0  0  0  0  0  0  0  0  0
  190.4430  174.7570  142.9140 C   0  0  0  0  0  0  0  0  0  0  0  0
  187.8350  175.7690  140.7000 O   0  0  0  0  0  0  0  0  0  0  0  0
  189.4380  174.0400  140.3010 C   0  0  0  0  0  0  0  0  0  0  0  0
  190.9160  173.4880  142.2400 C   0  0  0  0  0  2  0  0  0  0  0  0
  189.7070  174.1640  137.9010 N   0  0  0  0  0  0  0  0  0  0  0  0
  189.0280  173.7460  138.9200 C   0  0  0  0  0  3  0  0  0  0  0  0
  188.2990  174.4470  136.0560 O   0  0  0  0  0  0  0  0  0  0  0  0
  189.3180  173.8890  136.5510 C   0  0  0  0  0  0  0  0  0  0  0  0
  193.0400  170.8090  135.0470 C   0  0  0  0  0  3  0  0  0  0  0  0
  191.7930  170.3100  135.5370 N   0  0  0  0  0  2  0  0  0  0  0  0
  190.1200  172.9530  135.7390 C   0  0  0  0  0  0  0  0  0  0  0  0
  192.5850  173.1490  135.8110 C   0  0  1  0  0  3  0  0  0  0  0  0
  191.3250  173.4650  135.0100 C   0  0  0  0  0  2  0  0  0  0  0  0
  190.5320  170.6410  134.8900 C   0  0  0  0  0  2  0  0  0  0  0  0
  193.4010  172.0900  135.1390 C   0  0  0  0  0  3  0  0  0  0  0  0
  189.7800  171.6620  135.6820 C   0  0  0  0  0  3  0  0  0  0  0  0
  194.3450  174.5880  134.9960 O   0  0  0  0  0  1  0  0  0  0  0  0
  193.4390  174.3950  136.0410 C   0  0  1  0  0  3  0  0  0  0  0  0
  192.5950  175.5670  136.1840 N   0  0  0  0  0  1  0  0  0  0  0  0
  185.9990  176.7130  145.9340 C   0  0  0  0  0  2  0  0  0  0  0  0
  184.0670  178.2910  146.2230 C   0  0  0  0  0  1  0  0  0  0  0  0
  185.2380  177.8920  145.3370 C   0  0  2  0  0  3  0  0  0  0  0  0
  184.8150  177.6450  143.9540 N   0  0  0  0  0  2  0  0  0  0  0  0
  185.2890  178.7050  143.0690 C   0  0  0  0  0  2  0  0  0  0  0  0
  186.7340  178.4460  142.7010 C   0  0  0  0  0  1  0  0  0  0  0  0
  196.3400  174.1160  145.7050 O   0  0  0  0  0  0  0  0  0  0  0  0
  197.0760  173.0460  145.2390 N   0  0  0  0  0  2  0  0  0  0  0  0
  196.8160  171.9190  146.1270 C   0  0  0  0  0  2  0  0  0  0  0  0
  196.4280  168.3520  145.3910 O   0  0  0  0  0  0  0  0  0  0  0  0
  196.5370  170.6380  145.3230 C   0  0  2  0  0  0  0  0  0  0  0  0
  195.4540  168.9240  147.3260 O   0  0  0  0  0  0  0  0  0  0  0  0
  196.9800  170.8350  143.8810 C   0  0  0  0  0  1  0  0  0  0  0  0
  195.0700  170.1960  145.3310 C   0  0  1  0  0  3  0  0  0  0  0  0
  197.2020  169.3790  145.9110 C   0  0  1  0  0  3  0  0  0  0  0  0
  196.8140  169.2760  147.3720 C   0  0  0  0  0  2  0  0  0  0  0  0
  195.2210  168.7940  145.9360 C   0  0  1  0  0  3  0  0  0  0  0  0
  194.2530  171.0020  146.1340 O   0  0  0  0  0  1  0  0  0  0  0  0
  1 14  2  0  0  0  0
  2 10  1  0  0  0  0
  3 38  1  6  0  0  0
  6  1  1  0  0  0  0
  6 12  1  0  0  0  0
  7  5  1  0  0  0  0
  7  9  1  0  0  0  0
  8  4  2  0  0  0  0
  8  5  1  0  0  0  0
 10  7  2  0  0  0  0
 11  2  1  6  0  0  0
 11  3  1  0  0  0  0
 11  9  1  0  0  0  0
 12  8  1  0  0  0  0
 13 12  2  0  0  0  0
 13 10  1  0  0  0  0
 14 44  1  0  0  0  0
 14  4  1  0  0  0  0
 15 11  1  0  0  0  0
 15  3  1  0  0  0  0
 16 22  1  0  0  0  0
 17 19  2  0  0  0  0
 18 17  1  0  0  0  0
 19 13  1  0  0  0  0
 20 18  2  0  0  0  0
 21 16  2  0  0  0  0
 21 18  1  0  0  0  0
 22 19  1  0  0  0  0
 23 24  2  0  0  0  0
 24 21  1  0  0  0  0
 25 26  2  0  0  0  0
 26 23  1  0  0  0  0
 27 33  2  0  0  0  0
 27 28  1  0  0  0  0
 29 26  1  0  0  0  0
 30 36  1  6  0  0  0
 31 29  1  0  0  0  0
 31 30  1  0  0  0  0
 32 28  1  0  0  0  0
 32 34  1  0  0  0  0
 33 30  1  0  0  0  0
 34 29  2  0  0  0  0
 36 35  1  6  0  0  0
 36 37  1  0  0  0  0
 40 38  1  0  0  0  0
 40 39  1  1  0  0  0
 41 40  1  0  0  0  0
 42 41  1  0  0  0  0
 43 42  1  0  0  0  0
 45 44  1  0  0  0  0
 45 46  1  0  0  0  0
 47 52  1  0  0  0  0
 48 50  1  6  0  0  0
 48 51  1  0  0  0  0
 48 52  1  0  0  0  0
 48 46  1  0  0  0  0
 49 53  1  0  0  0  0
 51 54  1  0  0  0  0
 51 55  1  1  0  0  0
 52 53  1  1  0  0  0
 54 47  1  6  0  0  0
 54 49  1  0  0  0  0
M  END
>  <MODEL>
9

>  <REMARK>
 VINA RESULT:      -6.4      3.743      9.850
  Name = 
  13 active torsions:
  status: ('A' for Active; 'I' for Inactive)
    1  A    between atoms: C_1  and  C_5
    2  A    between atoms: C_1  and  C_48
    3  A    between atoms: C_11  and  C_38
    4  A    between atoms: O_14  and  N_23
    5  A    between atoms: O_14  and  C_46
    6  A    between atoms: C_18  and  C_44
    7  A    between atoms: C_20  and  C_24
    8  A    between atoms: C_22  and  C_37
    9  A    between atoms: N_23  and  C_37
   10  A    between atoms: N_28  and  C_35
   11  A    between atoms: N_28  and  C_48
   12  A    between atoms: C_32  and  C_39
   13  A    between atoms: N_36  and  C_38
                            x       y       z     vdW  Elec       q    Type
                         _______ _______ _______ _____ _____    ______ ____

>  <TORSDO>
F 13

$$$$
