=
 OpenBabel11042419583D

 41 46  0  0  1  0  0  0  0  0999 V2000
  191.8220  177.1450  143.9430 C   0  0  0  0  0  0  0  0  0  0  0  0
  192.7150  174.8430  143.5330 S   0  0  0  0  0  0  0  0  0  0  0  0
  188.6920  174.6600  141.2260 N   0  0  0  0  0  0  0  0  0  0  0  0
  193.6840  175.9740  144.3360 C   0  0  0  0  0  0  0  0  0  0  0  0
  187.9470  176.6810  142.1070 C   0  0  2  0  0  3  0  0  0  0  0  0
  190.2000  175.7590  142.7750 C   0  0  0  0  0  0  0  0  0  0  0  0
  190.9500  178.2330  143.9350 C   0  0  0  0  0  3  0  0  0  0  0  0
  193.0710  177.1740  144.4740 N   0  0  0  0  0  0  0  0  0  0  0  0
  191.4470  175.9360  143.3730 C   0  0  0  0  0  0  0  0  0  0  0  0
  187.6300  175.2620  141.9270 N   0  0  0  0  0  2  0  0  0  0  0  0
  189.7850  174.4470  142.1750 C   0  0  0  0  0  2  0  0  0  0  0  0
  189.2910  176.8410  142.7910 C   0  0  0  0  0  0  0  0  0  0  0  0
  189.6860  178.0770  143.3480 C   0  0  0  0  0  3  0  0  0  0  0  0
  195.0780  175.7140  144.7860 C   0  0  0  0  0  2  0  0  0  0  0  0
  196.5630  176.1000  143.1980 C   0  0  0  0  0  1  0  0  0  0  0  0
  195.9240  176.7040  144.2860 O   0  0  0  0  0  0  0  0  0  0  0  0
  186.8280  177.3370  142.9000 C   0  0  0  0  0  2  0  0  0  0  0  0
  186.4740  176.4850  144.1040 C   0  0  0  0  0  2  0  0  0  0  0  0
  185.4780  179.1320  146.5680 C   0  0  0  0  0  3  0  0  0  0  0  0
  186.9110  177.0700  146.5300 C   0  0  0  0  0  0  0  0  0  0  0  0
  185.5150  178.4930  145.3280 C   0  0  0  0  0  3  0  0  0  0  0  0
  186.4500  178.2510  147.6290 S   0  0  0  0  0  0  0  0  0  0  0  0
  186.3220  177.3470  145.3090 C   0  0  0  0  0  0  0  0  0  0  0  0
  187.7710  175.9580  146.7980 N   0  0  0  0  0  2  0  0  0  0  0  0
  189.5850  174.4300  146.3100 C   0  0  0  0  0  1  0  0  0  0  0  0
  189.1400  175.8810  146.3090 C   0  0  2  0  0  3  0  0  0  0  0  0
  191.0830  175.8940  147.6990 O   0  0  0  0  0  1  0  0  0  0  0  0
  190.0520  176.6970  147.2090 C   0  0  0  0  0  2  0  0  0  0  0  0
  188.2300  173.3470  140.8100 C   0  0  0  0  0  2  0  0  0  0  0  0
  189.9450  172.0480  137.8130 N   0  0  0  0  0  0  0  0  0  0  0  0
  188.2870  173.6120  138.3330 C   0  0  0  0  0  3  0  0  0  0  0  0
  188.7350  173.0480  139.4400 C   0  0  0  0  0  0  0  0  0  0  0  0
  189.7530  172.0830  139.0870 C   0  0  0  0  0  0  0  0  0  0  0  0
  189.0320  172.9990  137.1810 C   0  0  1  0  0  3  0  0  0  0  0  0
  190.5180  171.2370  140.0440 C   0  0  0  0  0  1  0  0  0  0  0  0
  191.1190  174.3830  136.6000 C   0  0  0  0  0  3  0  0  0  0  0  0
  191.3960  175.3450  135.7110 N   0  0  0  0  0  0  0  0  0  0  0  0
  192.6420  175.9650  135.5610 N   0  0  0  0  0  1  0  0  0  0  0  0
  189.7950  174.0340  136.4150 C   0  0  0  0  0  0  0  0  0  0  0  0
  190.3070  175.6170  134.9700 C   0  0  0  0  0  3  0  0  0  0  0  0
  189.2670  174.8040  135.3920 C   0  0  0  0  0  3  0  0  0  0  0  0
  1  8  1  0  0  0  0
  2  4  1  0  0  0  0
  3 10  1  0  0  0  0
  3 11  1  0  0  0  0
  4  8  2  0  0  0  0
  4 14  1  0  0  0  0
  5 12  1  0  0  0  0
  5 17  1  1  0  0  0
  6 12  2  0  0  0  0
  6  9  1  0  0  0  0
  7  1  1  0  0  0  0
  9  2  1  0  0  0  0
  9  1  2  0  0  0  0
 10  5  1  0  0  0  0
 11  6  1  0  0  0  0
 12 13  1  0  0  0  0
 13  7  2  0  0  0  0
 15 16  1  0  0  0  0
 16 14  1  0  0  0  0
 17 18  1  0  0  0  0
 18 23  1  0  0  0  0
 19 22  1  0  0  0  0
 20 24  1  0  0  0  0
 20 22  1  0  0  0  0
 21 19  2  0  0  0  0
 23 21  1  0  0  0  0
 23 20  2  0  0  0  0
 26 25  1  1  0  0  0
 26 24  1  0  0  0  0
 26 28  1  0  0  0  0
 28 27  1  0  0  0  0
 29  3  1  0  0  0  0
 30 33  2  0  0  0  0
 31 32  2  0  0  0  0
 32 29  1  0  0  0  0
 33 32  1  0  0  0  0
 33 35  1  0  0  0  0
 34 39  1  1  0  0  0
 34 30  1  0  0  0  0
 34 31  1  0  0  0  0
 37 36  1  0  0  0  0
 38 37  1  0  0  0  0
 39 36  2  0  0  0  0
 40 41  2  0  0  0  0
 40 37  1  0  0  0  0
 41 39  1  0  0  0  0
M  END
>  <MODEL>
1

>  <REMARK>
 VINA RESULT:      -7.2      0.000      0.000
  Name = 
  11 active torsions:
  status: ('A' for Active; 'I' for Inactive)
    1  A    between atoms: N_8  and  C_35
    2  A    between atoms: C_9  and  C_15
    3  A    between atoms: C_12  and  C_29
    4  A    between atoms: C_14  and  N_33
    5  A    between atoms: C_15  and  O_31
    6  A    between atoms: C_17  and  C_35
    7  A    between atoms: CA_20  and  C_27
    8  A    between atoms: CA_20  and  N_33
    9  A    between atoms: C_21  and  C_29
   10  A    between atoms: C_21  and  C_37
   11  A    between atoms: C_22  and  C_38
                            x       y       z     vdW  Elec       q    Type
                         _______ _______ _______ _____ _____    ______ ____

>  <TORSDO>
F 11

$$$$
=
 OpenBabel11042419583D

 41 46  0  0  1  0  0  0  0  0999 V2000
  189.8250  173.2670  140.9500 C   0  0  0  0  0  0  0  0  0  0  0  0
  192.1190  173.6510  140.0260 S   0  0  0  0  0  0  0  0  0  0  0  0
  192.5040  175.6240  144.2100 N   0  0  0  0  0  0  0  0  0  0  0  0
  191.0190  172.7150  139.1450 C   0  0  0  0  0  0  0  0  0  0  0  0
  190.2180  175.4910  144.6250 C   0  0  2  0  0  3  0  0  0  0  0  0
  191.1620  174.6480  142.4410 C   0  0  0  0  0  0  0  0  0  0  0  0
  188.7370  173.3210  141.8200 C   0  0  0  0  0  3  0  0  0  0  0  0
  189.8270  172.5870  139.7760 N   0  0  0  0  0  0  0  0  0  0  0  0
  191.0100  173.9210  141.2610 C   0  0  0  0  0  0  0  0  0  0  0  0
  191.3750  176.3880  144.5620 N   0  0  0  0  0  2  0  0  0  0  0  0
  192.4360  175.3700  142.7700 C   0  0  0  0  0  2  0  0  0  0  0  0
  190.0570  174.7420  143.3160 C   0  0  0  0  0  0  0  0  0  0  0  0
  188.8620  174.0550  143.0100 C   0  0  0  0  0  3  0  0  0  0  0  0
  191.3350  172.0450  137.8540 C   0  0  0  0  0  2  0  0  0  0  0  0
  190.7430  173.6110  136.4160 C   0  0  0  0  0  1  0  0  0  0  0  0
  191.8640  172.9750  136.9600 O   0  0  0  0  0  0  0  0  0  0  0  0
  188.9820  176.3100  144.9630 C   0  0  0  0  0  2  0  0  0  0  0  0
  189.0930  177.6960  144.3570 C   0  0  0  0  0  2  0  0  0  0  0  0
  187.3010  177.7630  141.0620 C   0  0  0  0  0  3  0  0  0  0  0  0
  186.7730  178.2080  143.4760 C   0  0  0  0  0  0  0  0  0  0  0  0
  188.3900  177.5960  141.9180 C   0  0  0  0  0  3  0  0  0  0  0  0
  185.9770  178.2220  142.0000 S   0  0  0  0  0  0  0  0  0  0  0  0
  188.0930  177.8530  143.2630 C   0  0  0  0  0  0  0  0  0  0  0  0
  186.1950  178.5120  144.7500 N   0  0  0  0  0  2  0  0  0  0  0  0
  184.0360  178.7190  145.8260 C   0  0  0  0  0  1  0  0  0  0  0  0
  185.0900  177.7530  145.3170 C   0  0  2  0  0  3  0  0  0  0  0  0
  186.4520  177.6400  147.2770 O   0  0  0  0  0  1  0  0  0  0  0  0
  185.5940  176.8960  146.4660 C   0  0  0  0  0  2  0  0  0  0  0  0
  193.6670  176.4640  144.4390 C   0  0  0  0  0  2  0  0  0  0  0  0
  196.9380  174.7780  144.7030 N   0  0  0  0  0  0  0  0  0  0  0  0
  194.8660  174.7470  145.7880 C   0  0  0  0  0  3  0  0  0  0  0  0
  194.8380  175.6130  144.7910 C   0  0  0  0  0  0  0  0  0  0  0  0
  196.1330  175.6140  144.1450 C   0  0  0  0  0  0  0  0  0  0  0  0
  196.2400  174.1390  145.8180 C   0  0  1  0  0  3  0  0  0  0  0  0
  196.5160  176.4430  142.9690 C   0  0  0  0  0  1  0  0  0  0  0  0
  195.0410  171.8760  145.5930 C   0  0  0  0  0  3  0  0  0  0  0  0
  195.4400  170.6110  145.4010 N   0  0  0  0  0  0  0  0  0  0  0  0
  194.5840  169.5080  145.2960 N   0  0  0  0  0  1  0  0  0  0  0  0
  196.1820  172.6550  145.6250 C   0  0  0  0  0  0  0  0  0  0  0  0
  196.7800  170.5590  145.3050 C   0  0  0  0  0  3  0  0  0  0  0  0
  197.2880  171.8410  145.4460 C   0  0  0  0  0  3  0  0  0  0  0  0
  1  9  2  0  0  0  0
  1  7  1  0  0  0  0
  2  9  1  0  0  0  0
  3 29  1  0  0  0  0
  3 10  1  0  0  0  0
  4  8  2  0  0  0  0
  4  2  1  0  0  0  0
  5 17  1  6  0  0  0
  6 11  1  0  0  0  0
  6 12  2  0  0  0  0
  7 13  2  0  0  0  0
  8  1  1  0  0  0  0
  9  6  1  0  0  0  0
 10  5  1  0  0  0  0
 11  3  1  0  0  0  0
 12  5  1  0  0  0  0
 13 12  1  0  0  0  0
 14  4  1  0  0  0  0
 15 16  1  0  0  0  0
 16 14  1  0  0  0  0
 18 17  1  0  0  0  0
 19 21  2  0  0  0  0
 19 22  1  0  0  0  0
 20 24  1  0  0  0  0
 21 23  1  0  0  0  0
 22 20  1  0  0  0  0
 23 20  2  0  0  0  0
 23 18  1  0  0  0  0
 24 26  1  0  0  0  0
 26 25  1  1  0  0  0
 26 28  1  0  0  0  0
 28 27  1  0  0  0  0
 29 32  1  0  0  0  0
 30 34  1  0  0  0  0
 31 34  1  0  0  0  0
 32 31  2  0  0  0  0
 33 30  2  0  0  0  0
 33 32  1  0  0  0  0
 34 39  1  6  0  0  0
 35 33  1  0  0  0  0
 36 39  2  0  0  0  0
 37 36  1  0  0  0  0
 38 37  1  0  0  0  0
 40 37  1  0  0  0  0
 40 41  2  0  0  0  0
 41 39  1  0  0  0  0
M  END
>  <MODEL>
2

>  <REMARK>
 VINA RESULT:      -7.1      3.255      7.379
  Name = 
  11 active torsions:
  status: ('A' for Active; 'I' for Inactive)
    1  A    between atoms: N_8  and  C_35
    2  A    between atoms: C_9  and  C_15
    3  A    between atoms: C_12  and  C_29
    4  A    between atoms: C_14  and  N_33
    5  A    between atoms: C_15  and  O_31
    6  A    between atoms: C_17  and  C_35
    7  A    between atoms: CA_20  and  C_27
    8  A    between atoms: CA_20  and  N_33
    9  A    between atoms: C_21  and  C_29
   10  A    between atoms: C_21  and  C_37
   11  A    between atoms: C_22  and  C_38
                            x       y       z     vdW  Elec       q    Type
                         _______ _______ _______ _____ _____    ______ ____

>  <TORSDO>
F 11

$$$$
=
 OpenBabel11042419583D

 41 46  0  0  1  0  0  0  0  0999 V2000
  189.8120  173.8690  141.2500 C   0  0  0  0  0  0  0  0  0  0  0  0
  192.1950  173.9910  140.4940 S   0  0  0  0  0  0  0  0  0  0  0  0
  192.4680  176.0700  144.6350 N   0  0  0  0  0  0  0  0  0  0  0  0
  191.0740  173.1350  139.5590 C   0  0  0  0  0  0  0  0  0  0  0  0
  190.1560  176.1790  144.8770 C   0  0  2  0  0  3  0  0  0  0  0  0
  191.1680  175.1660  142.7980 C   0  0  0  0  0  0  0  0  0  0  0  0
  188.6740  174.0620  142.0320 C   0  0  0  0  0  3  0  0  0  0  0  0
  189.8320  173.1490  140.1000 N   0  0  0  0  0  0  0  0  0  0  0  0
  191.0310  174.4140  141.6310 C   0  0  0  0  0  0  0  0  0  0  0  0
  191.3990  176.9540  144.8770 N   0  0  0  0  0  2  0  0  0  0  0  0
  192.4810  175.7710  143.2020 C   0  0  0  0  0  2  0  0  0  0  0  0
  190.0170  175.4010  143.5820 C   0  0  0  0  0  0  0  0  0  0  0  0
  188.7850  174.8230  143.2050 C   0  0  0  0  0  3  0  0  0  0  0  0
  191.4140  172.3900  138.3170 C   0  0  0  0  0  2  0  0  0  0  0  0
  191.9850  170.3610  138.9740 C   0  0  0  0  0  1  0  0  0  0  0  0
  190.9320  171.0850  138.4060 O   0  0  0  0  0  0  0  0  0  0  0  0
  188.9870  177.1270  145.0950 C   0  0  0  0  0  2  0  0  0  0  0  0
  187.8930  176.4320  145.8820 C   0  0  0  0  0  2  0  0  0  0  0  0
  185.3830  178.9760  147.0240 C   0  0  0  0  0  3  0  0  0  0  0  0
  185.7310  177.4590  145.0530 C   0  0  0  0  0  0  0  0  0  0  0  0
  186.5290  178.1840  147.1160 C   0  0  0  0  0  3  0  0  0  0  0  0
  184.6210  178.6080  145.5660 S   0  0  0  0  0  0  0  0  0  0  0  0
  186.7150  177.3340  146.0180 C   0  0  0  0  0  0  0  0  0  0  0  0
  185.6790  176.7250  143.8250 N   0  0  0  0  0  2  0  0  0  0  0  0
  186.8280  178.4490  142.5710 C   0  0  0  0  0  1  0  0  0  0  0  0
  185.7710  177.3610  142.5190 C   0  0  2  0  0  3  0  0  0  0  0  0
  184.4510  178.4160  140.8300 O   0  0  0  0  0  1  0  0  0  0  0  0
  184.4280  177.9710  142.1520 C   0  0  0  0  0  2  0  0  0  0  0  0
  193.6900  176.7990  144.9270 C   0  0  0  0  0  2  0  0  0  0  0  0
  196.7840  174.8120  144.6290 N   0  0  0  0  0  0  0  0  0  0  0  0
  194.9480  174.9760  146.0680 C   0  0  0  0  0  3  0  0  0  0  0  0
  194.8210  175.8420  145.0790 C   0  0  0  0  0  0  0  0  0  0  0  0
  195.9730  175.7210  144.2100 C   0  0  0  0  0  0  0  0  0  0  0  0
  196.2430  174.2420  145.8620 C   0  0  1  0  0  3  0  0  0  0  0  0
  196.2140  176.5110  142.9710 C   0  0  0  0  0  1  0  0  0  0  0  0
  194.7990  172.1480  145.4850 C   0  0  0  0  0  3  0  0  0  0  0  0
  195.0440  170.8330  145.4100 N   0  0  0  0  0  0  0  0  0  0  0  0
  194.0760  169.8480  145.1800 N   0  0  0  0  0  1  0  0  0  0  0  0
  196.0130  172.7700  145.7060 C   0  0  0  0  0  0  0  0  0  0  0  0
  196.3590  170.5990  145.5700 C   0  0  0  0  0  3  0  0  0  0  0  0
  197.0070  171.8080  145.7650 C   0  0  0  0  0  3  0  0  0  0  0  0
  1  9  2  0  0  0  0
  1  7  1  0  0  0  0
  2  9  1  0  0  0  0
  3 10  1  0  0  0  0
  3 29  1  0  0  0  0
  4  8  2  0  0  0  0
  4  2  1  0  0  0  0
  5 17  1  6  0  0  0
  6 11  1  0  0  0  0
  6 12  2  0  0  0  0
  7 13  2  0  0  0  0
  8  1  1  0  0  0  0
  9  6  1  0  0  0  0
 10  5  1  0  0  0  0
 11  3  1  0  0  0  0
 12  5  1  0  0  0  0
 13 12  1  0  0  0  0
 14 16  1  0  0  0  0
 14  4  1  0  0  0  0
 16 15  1  0  0  0  0
 17 18  1  0  0  0  0
 18 23  1  0  0  0  0
 19 21  2  0  0  0  0
 20 22  1  0  0  0  0
 20 23  2  0  0  0  0
 22 19  1  0  0  0  0
 23 21  1  0  0  0  0
 24 20  1  0  0  0  0
 26 25  1  1  0  0  0
 26 24  1  0  0  0  0
 27 28  1  0  0  0  0
 28 26  1  0  0  0  0
 29 32  1  0  0  0  0
 30 34  1  0  0  0  0
 32 31  2  0  0  0  0
 33 30  2  0  0  0  0
 33 32  1  0  0  0  0
 34 39  1  6  0  0  0
 34 31  1  0  0  0  0
 35 33  1  0  0  0  0
 36 39  2  0  0  0  0
 37 36  1  0  0  0  0
 37 40  1  0  0  0  0
 38 37  1  0  0  0  0
 39 41  1  0  0  0  0
 40 41  2  0  0  0  0
M  END
>  <MODEL>
3

>  <REMARK>
 VINA RESULT:      -7.1      3.375      7.307
  Name = 
  11 active torsions:
  status: ('A' for Active; 'I' for Inactive)
    1  A    between atoms: N_8  and  C_35
    2  A    between atoms: C_9  and  C_15
    3  A    between atoms: C_12  and  C_29
    4  A    between atoms: C_14  and  N_33
    5  A    between atoms: C_15  and  O_31
    6  A    between atoms: C_17  and  C_35
    7  A    between atoms: CA_20  and  C_27
    8  A    between atoms: CA_20  and  N_33
    9  A    between atoms: C_21  and  C_29
   10  A    between atoms: C_21  and  C_37
   11  A    between atoms: C_22  and  C_38
                            x       y       z     vdW  Elec       q    Type
                         _______ _______ _______ _____ _____    ______ ____

>  <TORSDO>
F 11

$$$$
=
 OpenBabel11042419583D

 41 46  0  0  1  0  0  0  0  0999 V2000
  194.0100  175.4280  145.4150 C   0  0  0  0  0  0  0  0  0  0  0  0
  194.1770  173.0160  144.7660 S   0  0  0  0  0  0  0  0  0  0  0  0
  189.9540  174.0800  143.1610 N   0  0  0  0  0  0  0  0  0  0  0  0
  195.5240  173.7850  145.4420 C   0  0  0  0  0  0  0  0  0  0  0  0
  189.9230  176.1430  144.2370 C   0  0  2  0  0  3  0  0  0  0  0  0
  191.9180  174.6150  144.4790 C   0  0  0  0  0  0  0  0  0  0  0  0
  193.4740  176.7020  145.5980 C   0  0  0  0  0  3  0  0  0  0  0  0
  195.2850  175.0870  145.7300 N   0  0  0  0  0  0  0  0  0  0  0  0
  193.2420  174.4100  144.8670 C   0  0  0  0  0  0  0  0  0  0  0  0
  189.2110  174.8750  144.0540 N   0  0  0  0  0  2  0  0  0  0  0  0
  191.0790  173.5110  143.9040 C   0  0  0  0  0  2  0  0  0  0  0  0
  191.3480  175.8900  144.6920 C   0  0  0  0  0  0  0  0  0  0  0  0
  192.1400  176.9300  145.2260 C   0  0  0  0  0  3  0  0  0  0  0  0
  196.8480  173.1350  145.6400 C   0  0  0  0  0  2  0  0  0  0  0  0
  197.3660  171.0120  145.3230 C   0  0  0  0  0  1  0  0  0  0  0  0
  196.6690  171.8640  146.1870 O   0  0  0  0  0  0  0  0  0  0  0  0
  189.1550  176.9980  145.2330 C   0  0  0  0  0  2  0  0  0  0  0  0
  188.1300  176.1510  145.9640 C   0  0  0  0  0  2  0  0  0  0  0  0
  185.4330  178.3340  147.3910 C   0  0  0  0  0  3  0  0  0  0  0  0
  185.9130  177.1390  145.2350 C   0  0  0  0  0  0  0  0  0  0  0  0
  186.6300  177.6160  147.3980 C   0  0  0  0  0  3  0  0  0  0  0  0
  184.7190  178.1260  145.8780 S   0  0  0  0  0  0  0  0  0  0  0  0
  186.8900  176.9440  146.1960 C   0  0  0  0  0  0  0  0  0  0  0  0
  185.9300  176.5840  143.9160 N   0  0  0  0  0  2  0  0  0  0  0  0
  185.0150  177.8470  142.0650 C   0  0  0  0  0  1  0  0  0  0  0  0
  186.2850  177.3590  142.7370 C   0  0  2  0  0  3  0  0  0  0  0  0
  187.2440  177.1580  140.5580 O   0  0  0  0  0  1  0  0  0  0  0  0
  187.0730  176.4900  141.7710 C   0  0  0  0  0  2  0  0  0  0  0  0
  189.0970  172.9720  142.7740 C   0  0  0  0  0  2  0  0  0  0  0  0
  190.2350  171.2730  139.7040 N   0  0  0  0  0  0  0  0  0  0  0  0
  189.0500  173.2010  140.2940 C   0  0  0  0  0  3  0  0  0  0  0  0
  189.4200  172.5510  141.3830 C   0  0  0  0  0  0  0  0  0  0  0  0
  190.1440  171.3620  140.9860 C   0  0  0  0  0  0  0  0  0  0  0  0
  189.5430  172.4160  139.1110 C   0  0  1  0  0  3  0  0  0  0  0  0
  190.7410  170.3590  141.9100 C   0  0  0  0  0  1  0  0  0  0  0  0
  190.1500  173.9980  137.1770 C   0  0  0  0  0  3  0  0  0  0  0  0
  191.2860  174.5500  136.7300 N   0  0  0  0  0  0  0  0  0  0  0  0
  191.3790  175.4150  135.6330 N   0  0  0  0  0  1  0  0  0  0  0  0
  190.4830  173.2280  138.2750 C   0  0  0  0  0  0  0  0  0  0  0  0
  192.3190  174.1660  137.4990 C   0  0  0  0  0  3  0  0  0  0  0  0
  191.8480  173.3210  138.4910 C   0  0  0  0  0  3  0  0  0  0  0  0
  1  7  1  0  0  0  0
  1  8  1  0  0  0  0
  2  9  1  0  0  0  0
  2  4  1  0  0  0  0
  3 11  1  0  0  0  0
  3 10  1  0  0  0  0
  4 14  1  0  0  0  0
  4  8  2  0  0  0  0
  5 12  1  0  0  0  0
  5 17  1  1  0  0  0
  6 12  2  0  0  0  0
  6  9  1  0  0  0  0
  9  1  2  0  0  0  0
 10  5  1  0  0  0  0
 11  6  1  0  0  0  0
 12 13  1  0  0  0  0
 13  7  2  0  0  0  0
 14 16  1  0  0  0  0
 15 16  1  0  0  0  0
 17 18  1  0  0  0  0
 18 23  1  0  0  0  0
 19 21  2  0  0  0  0
 20 22  1  0  0  0  0
 20 23  2  0  0  0  0
 22 19  1  0  0  0  0
 23 21  1  0  0  0  0
 24 20  1  0  0  0  0
 26 25  1  6  0  0  0
 26 24  1  0  0  0  0
 27 28  1  0  0  0  0
 28 26  1  0  0  0  0
 29  3  1  0  0  0  0
 30 33  2  0  0  0  0
 31 32  2  0  0  0  0
 32 29  1  0  0  0  0
 33 32  1  0  0  0  0
 33 35  1  0  0  0  0
 34 39  1  1  0  0  0
 34 30  1  0  0  0  0
 34 31  1  0  0  0  0
 36 39  2  0  0  0  0
 37 36  1  0  0  0  0
 37 40  1  0  0  0  0
 38 37  1  0  0  0  0
 39 41  1  0  0  0  0
 40 41  2  0  0  0  0
M  END
>  <MODEL>
4

>  <REMARK>
 VINA RESULT:      -6.7      2.441      3.413
  Name = 
  11 active torsions:
  status: ('A' for Active; 'I' for Inactive)
    1  A    between atoms: N_8  and  C_35
    2  A    between atoms: C_9  and  C_15
    3  A    between atoms: C_12  and  C_29
    4  A    between atoms: C_14  and  N_33
    5  A    between atoms: C_15  and  O_31
    6  A    between atoms: C_17  and  C_35
    7  A    between atoms: CA_20  and  C_27
    8  A    between atoms: CA_20  and  N_33
    9  A    between atoms: C_21  and  C_29
   10  A    between atoms: C_21  and  C_37
   11  A    between atoms: C_22  and  C_38
                            x       y       z     vdW  Elec       q    Type
                         _______ _______ _______ _____ _____    ______ ____

>  <TORSDO>
F 11

$$$$
=
 OpenBabel11042419583D

 41 46  0  0  1  0  0  0  0  0999 V2000
  187.1280  177.1590  142.5750 C   0  0  0  0  0  0  0  0  0  0  0  0
  187.4290  177.5750  145.0250 S   0  0  0  0  0  0  0  0  0  0  0  0
  190.6960  174.3680  144.2580 N   0  0  0  0  0  0  0  0  0  0  0  0
  186.3400  178.5310  144.1520 C   0  0  0  0  0  0  0  0  0  0  0  0
  189.9180  173.9020  142.1150 C   0  0  2  0  0  3  0  0  0  0  0  0
  188.7500  175.6270  143.5410 C   0  0  0  0  0  0  0  0  0  0  0  0
  187.2940  176.5930  141.3120 C   0  0  0  0  0  3  0  0  0  0  0  0
  186.2930  178.1960  142.8400 N   0  0  0  0  0  0  0  0  0  0  0  0
  187.8440  176.6790  143.6630 C   0  0  0  0  0  0  0  0  0  0  0  0
  190.2560  173.3260  143.4190 N   0  0  0  0  0  2  0  0  0  0  0  0
  189.5120  175.0940  144.7200 C   0  0  0  0  0  2  0  0  0  0  0  0
  188.9040  175.0190  142.2750 C   0  0  0  0  0  0  0  0  0  0  0  0
  188.1930  175.5260  141.1650 C   0  0  0  0  0  3  0  0  0  0  0  0
  185.5640  179.6600  144.7330 C   0  0  0  0  0  2  0  0  0  0  0  0
  184.0300  178.6760  145.9790 C   0  0  0  0  0  1  0  0  0  0  0  0
  185.2400  179.3740  146.0590 O   0  0  0  0  0  0  0  0  0  0  0  0
  189.4010  172.7950  141.2090 C   0  0  0  0  0  2  0  0  0  0  0  0
  190.2010  172.7590  139.9210 C   0  0  0  0  0  2  0  0  0  0  0  0
  192.7850  170.0840  140.4040 C   0  0  0  0  0  3  0  0  0  0  0  0
  192.7170  172.5820  140.1540 C   0  0  0  0  0  0  0  0  0  0  0  0
  191.4980  170.6020  140.2600 C   0  0  0  0  0  3  0  0  0  0  0  0
  193.8670  171.3770  140.3570 S   0  0  0  0  0  0  0  0  0  0  0  0
  191.4640  171.9970  140.1290 C   0  0  0  0  0  0  0  0  0  0  0  0
  192.9770  173.9840  140.0270 N   0  0  0  0  0  2  0  0  0  0  0  0
  193.1180  175.4780  141.9270 C   0  0  0  0  0  1  0  0  0  0  0  0
  193.9060  174.6960  140.8920 C   0  0  2  0  0  3  0  0  0  0  0  0
  195.4760  174.9400  139.1070 O   0  0  0  0  0  1  0  0  0  0  0  0
  194.7470  175.6510  140.0620 C   0  0  0  0  0  2  0  0  0  0  0  0
  191.2920  173.7420  145.4260 C   0  0  0  0  0  2  0  0  0  0  0  0
  194.1780  175.7620  146.5240 N   0  0  0  0  0  0  0  0  0  0  0  0
  193.7750  173.8430  145.2500 C   0  0  0  0  0  3  0  0  0  0  0  0
  192.6320  174.3400  145.6850 C   0  0  0  0  0  0  0  0  0  0  0  0
  192.9130  175.5210  146.4730 C   0  0  0  0  0  0  0  0  0  0  0  0
  194.8770  174.7230  145.7700 C   0  0  1  0  0  3  0  0  0  0  0  0
  191.8980  176.3840  147.1370 C   0  0  0  0  0  1  0  0  0  0  0  0
  196.5400  174.6590  143.8100 C   0  0  0  0  0  3  0  0  0  0  0  0
  197.0270  175.5680  142.9550 N   0  0  0  0  0  0  0  0  0  0  0  0
  197.9410  175.2960  141.9300 N   0  0  0  0  0  1  0  0  0  0  0  0
  195.6660  175.3240  144.6480 C   0  0  0  0  0  0  0  0  0  0  0  0
  196.4960  176.7760  143.2140 C   0  0  0  0  0  3  0  0  0  0  0  0
  195.6270  176.6610  144.2870 C   0  0  0  0  0  3  0  0  0  0  0  0
  1  8  1  0  0  0  0
  1  9  1  0  0  0  0
  3 11  1  0  0  0  0
  3 29  1  0  0  0  0
  4 14  1  0  0  0  0
  4  2  1  0  0  0  0
  5 17  1  6  0  0  0
  5 12  1  0  0  0  0
  5 10  1  0  0  0  0
  6  9  2  0  0  0  0
  6 11  1  0  0  0  0
  7  1  2  0  0  0  0
  8  4  2  0  0  0  0
  9  2  1  0  0  0  0
 10  3  1  0  0  0  0
 12  6  1  0  0  0  0
 13  7  1  0  0  0  0
 13 12  2  0  0  0  0
 14 16  1  0  0  0  0
 15 16  1  0  0  0  0
 18 23  1  0  0  0  0
 18 17  1  0  0  0  0
 20 22  1  0  0  0  0
 21 19  2  0  0  0  0
 22 19  1  0  0  0  0
 23 20  2  0  0  0  0
 23 21  1  0  0  0  0
 24 20  1  0  0  0  0
 24 26  1  0  0  0  0
 26 25  1  1  0  0  0
 27 28  1  0  0  0  0
 28 26  1  0  0  0  0
 29 32  1  0  0  0  0
 31 32  2  0  0  0  0
 31 34  1  0  0  0  0
 32 33  1  0  0  0  0
 33 30  2  0  0  0  0
 33 35  1  0  0  0  0
 34 39  1  6  0  0  0
 34 30  1  0  0  0  0
 36 39  2  0  0  0  0
 37 40  1  0  0  0  0
 37 36  1  0  0  0  0
 38 37  1  0  0  0  0
 40 41  2  0  0  0  0
 41 39  1  0  0  0  0
M  END
>  <MODEL>
5

>  <REMARK>
 VINA RESULT:      -6.7      3.124      8.290
  Name = 
  11 active torsions:
  status: ('A' for Active; 'I' for Inactive)
    1  A    between atoms: N_8  and  C_35
    2  A    between atoms: C_9  and  C_15
    3  A    between atoms: C_12  and  C_29
    4  A    between atoms: C_14  and  N_33
    5  A    between atoms: C_15  and  O_31
    6  A    between atoms: C_17  and  C_35
    7  A    between atoms: CA_20  and  C_27
    8  A    between atoms: CA_20  and  N_33
    9  A    between atoms: C_21  and  C_29
   10  A    between atoms: C_21  and  C_37
   11  A    between atoms: C_22  and  C_38
                            x       y       z     vdW  Elec       q    Type
                         _______ _______ _______ _____ _____    ______ ____

>  <TORSDO>
F 11

$$$$
=
 OpenBabel11042419583D

 41 46  0  0  1  0  0  0  0  0999 V2000
  190.1790  172.4010  140.3790 C   0  0  0  0  0  0  0  0  0  0  0  0
  192.6290  172.6880  139.9560 S   0  0  0  0  0  0  0  0  0  0  0  0
  191.9990  175.5760  143.5340 N   0  0  0  0  0  0  0  0  0  0  0  0
  191.7720  171.5180  139.0850 C   0  0  0  0  0  0  0  0  0  0  0  0
  189.6800  175.4180  143.4200 C   0  0  2  0  0  3  0  0  0  0  0  0
  191.1200  174.1530  141.7780 C   0  0  0  0  0  0  0  0  0  0  0  0
  188.9130  172.5910  140.9320 C   0  0  0  0  0  3  0  0  0  0  0  0
  190.4620  171.4730  139.4300 N   0  0  0  0  0  0  0  0  0  0  0  0
  191.2550  173.1700  140.7980 C   0  0  0  0  0  0  0  0  0  0  0  0
  190.8200  176.3380  143.4230 N   0  0  0  0  0  2  0  0  0  0  0  0
  192.2790  175.0000  142.2190 C   0  0  0  0  0  2  0  0  0  0  0  0
  189.8370  174.3840  142.3220 C   0  0  0  0  0  0  0  0  0  0  0  0
  188.7500  173.5810  141.9120 C   0  0  0  0  0  3  0  0  0  0  0  0
  192.3870  170.5910  138.0970 C   0  0  0  0  0  2  0  0  0  0  0  0
  191.3660  169.5430  136.4440 C   0  0  0  0  0  1  0  0  0  0  0  0
  191.8250  170.8040  136.8390 O   0  0  0  0  0  0  0  0  0  0  0  0
  188.4000  176.2240  143.2580 C   0  0  0  0  0  2  0  0  0  0  0  0
  188.4590  177.4740  144.1160 C   0  0  0  0  0  2  0  0  0  0  0  0
  185.3050  177.2490  146.1350 C   0  0  0  0  0  3  0  0  0  0  0  0
  187.7830  177.2390  146.5460 C   0  0  0  0  0  0  0  0  0  0  0  0
  186.0710  177.3830  144.9760 C   0  0  0  0  0  3  0  0  0  0  0  0
  186.3670  177.1260  147.4390 S   0  0  0  0  0  0  0  0  0  0  0  0
  187.4520  177.3850  145.2110 C   0  0  0  0  0  0  0  0  0  0  0  0
  189.1150  177.1940  147.0680 N   0  0  0  0  0  2  0  0  0  0  0  0
  189.2110  174.7820  147.2580 C   0  0  0  0  0  1  0  0  0  0  0  0
  189.9860  176.0390  146.9100 C   0  0  2  0  0  3  0  0  0  0  0  0
  191.2190  177.4530  148.3910 O   0  0  0  0  0  1  0  0  0  0  0  0
  191.1850  176.1730  147.8350 C   0  0  0  0  0  2  0  0  0  0  0  0
  193.0740  176.5080  143.8270 C   0  0  0  0  0  2  0  0  0  0  0  0
  196.3600  175.0280  144.6190 N   0  0  0  0  0  0  0  0  0  0  0  0
  194.1980  175.0520  145.5090 C   0  0  0  0  0  3  0  0  0  0  0  0
  194.2350  175.7690  144.4000 C   0  0  0  0  0  0  0  0  0  0  0  0
  195.5840  175.7400  143.8780 C   0  0  0  0  0  0  0  0  0  0  0  0
  195.5820  174.5190  145.7470 C   0  0  1  0  0  3  0  0  0  0  0  0
  196.0490  176.4150  142.6340 C   0  0  0  0  0  1  0  0  0  0  0  0
  196.7010  172.2090  145.8930 C   0  0  0  0  0  3  0  0  0  0  0  0
  196.2630  170.9430  145.8560 N   0  0  0  0  0  0  0  0  0  0  0  0
  197.0760  169.8090  145.9690 N   0  0  0  0  0  1  0  0  0  0  0  0
  195.5910  173.0220  145.7630 C   0  0  0  0  0  0  0  0  0  0  0  0
  194.9260  170.9220  145.7120 C   0  0  0  0  0  3  0  0  0  0  0  0
  194.4630  172.2270  145.6460 C   0  0  0  0  0  3  0  0  0  0  0  0
  1  9  2  0  0  0  0
  1  7  1  0  0  0  0
  2  9  1  0  0  0  0
  3 29  1  0  0  0  0
  4  8  2  0  0  0  0
  4  2  1  0  0  0  0
  5 17  1  6  0  0  0
  5 10  1  0  0  0  0
  6 11  1  0  0  0  0
  6 12  2  0  0  0  0
  7 13  2  0  0  0  0
  8  1  1  0  0  0  0
  9  6  1  0  0  0  0
 10  3  1  0  0  0  0
 11  3  1  0  0  0  0
 12  5  1  0  0  0  0
 13 12  1  0  0  0  0
 14  4  1  0  0  0  0
 15 16  1  0  0  0  0
 16 14  1  0  0  0  0
 17 18  1  0  0  0  0
 18 23  1  0  0  0  0
 19 22  1  0  0  0  0
 20 24  1  0  0  0  0
 20 22  1  0  0  0  0
 21 23  1  0  0  0  0
 21 19  2  0  0  0  0
 23 20  2  0  0  0  0
 26 24  1  0  0  0  0
 26 25  1  1  0  0  0
 26 28  1  0  0  0  0
 28 27  1  0  0  0  0
 29 32  1  0  0  0  0
 30 34  1  0  0  0  0
 31 34  1  0  0  0  0
 32 31  2  0  0  0  0
 33 32  1  0  0  0  0
 33 30  2  0  0  0  0
 34 39  1  6  0  0  0
 35 33  1  0  0  0  0
 37 36  1  0  0  0  0
 37 38  1  0  0  0  0
 39 36  2  0  0  0  0
 40 37  1  0  0  0  0
 41 40  2  0  0  0  0
 41 39  1  0  0  0  0
M  END
>  <MODEL>
6

>  <REMARK>
 VINA RESULT:      -6.6      3.152      7.043
  Name = 
  11 active torsions:
  status: ('A' for Active; 'I' for Inactive)
    1  A    between atoms: N_8  and  C_35
    2  A    between atoms: C_9  and  C_15
    3  A    between atoms: C_12  and  C_29
    4  A    between atoms: C_14  and  N_33
    5  A    between atoms: C_15  and  O_31
    6  A    between atoms: C_17  and  C_35
    7  A    between atoms: CA_20  and  C_27
    8  A    between atoms: CA_20  and  N_33
    9  A    between atoms: C_21  and  C_29
   10  A    between atoms: C_21  and  C_37
   11  A    between atoms: C_22  and  C_38
                            x       y       z     vdW  Elec       q    Type
                         _______ _______ _______ _____ _____    ______ ____

>  <TORSDO>
F 11

$$$$
=
 OpenBabel11042419583D

 41 46  0  0  1  0  0  0  0  0999 V2000
  188.3730  176.6040  144.4150 C   0  0  0  0  0  0  0  0  0  0  0  0
  189.0090  177.1510  146.7730 S   0  0  0  0  0  0  0  0  0  0  0  0
  193.1750  177.0450  144.7310 N   0  0  0  0  0  0  0  0  0  0  0  0
  187.3710  177.0870  146.3520 C   0  0  0  0  0  0  0  0  0  0  0  0
  192.3290  176.1410  142.7600 C   0  0  2  0  0  3  0  0  0  0  0  0
  190.7880  176.6170  144.7020 C   0  0  0  0  0  0  0  0  0  0  0  0
  188.5000  176.2880  143.0630 C   0  0  0  0  0  3  0  0  0  0  0  0
  187.1850  176.7910  145.0430 N   0  0  0  0  0  0  0  0  0  0  0  0
  189.4980  176.7630  145.2120 C   0  0  0  0  0  0  0  0  0  0  0  0
  193.3170  175.9730  143.8290 N   0  0  0  0  0  2  0  0  0  0  0  0
  192.0060  176.7690  145.5660 C   0  0  0  0  0  2  0  0  0  0  0  0
  190.9340  176.2610  143.3420 C   0  0  0  0  0  0  0  0  0  0  0  0
  189.7880  176.1260  142.5280 C   0  0  0  0  0  3  0  0  0  0  0  0
  186.2530  177.3850  147.2880 C   0  0  0  0  0  2  0  0  0  0  0  0
  184.3690  178.3010  146.5910 C   0  0  0  0  0  1  0  0  0  0  0  0
  185.0370  177.0750  146.6800 O   0  0  0  0  0  0  0  0  0  0  0  0
  192.4420  174.9670  141.8000 C   0  0  0  0  0  2  0  0  0  0  0  0
  192.7830  173.7010  142.5630 C   0  0  0  0  0  2  0  0  0  0  0  0
  189.9530  172.3740  144.6370 C   0  0  0  0  0  3  0  0  0  0  0  0
  190.5840  172.4940  142.2090 C   0  0  0  0  0  0  0  0  0  0  0  0
  191.1830  172.9900  144.4030 C   0  0  0  0  0  3  0  0  0  0  0  0
  189.3160  171.9160  143.1440 S   0  0  0  0  0  0  0  0  0  0  0  0
  191.5350  173.0480  143.0480 C   0  0  0  0  0  0  0  0  0  0  0  0
  190.6770  172.4310  140.7820 N   0  0  0  0  0  2  0  0  0  0  0  0
  188.5630  172.8980  139.6990 C   0  0  0  0  0  1  0  0  0  0  0  0
  189.9920  173.3660  139.9030 C   0  0  2  0  0  3  0  0  0  0  0  0
  189.7820  173.6200  137.5360 O   0  0  0  0  0  1  0  0  0  0  0  0
  190.7070  173.4260  138.5630 C   0  0  0  0  0  2  0  0  0  0  0  0
  194.3360  177.0160  145.6030 C   0  0  0  0  0  2  0  0  0  0  0  0
  196.7470  174.5420  144.3080 N   0  0  0  0  0  0  0  0  0  0  0  0
  195.0720  174.6600  145.9350 C   0  0  0  0  0  3  0  0  0  0  0  0
  195.1610  175.8130  145.3000 C   0  0  0  0  0  0  0  0  0  0  0  0
  196.2080  175.7120  144.3050 C   0  0  0  0  0  0  0  0  0  0  0  0
  196.1050  173.7400  145.3480 C   0  0  1  0  0  3  0  0  0  0  0  0
  196.6210  176.7910  143.3660 C   0  0  0  0  0  1  0  0  0  0  0  0
  194.4380  171.7830  145.3060 C   0  0  0  0  0  3  0  0  0  0  0  0
  194.1810  170.7800  144.4560 N   0  0  0  0  0  0  0  0  0  0  0  0
  193.1880  169.8090  144.6380 N   0  0  0  0  0  1  0  0  0  0  0  0
  195.4710  172.5180  144.7580 C   0  0  0  0  0  0  0  0  0  0  0  0
  195.0030  170.8510  143.3950 C   0  0  0  0  0  3  0  0  0  0  0  0
  195.8410  171.9440  143.5530 C   0  0  0  0  0  3  0  0  0  0  0  0
  1  8  1  0  0  0  0
  1  9  1  0  0  0  0
  3 11  1  0  0  0  0
  3 29  1  0  0  0  0
  4  2  1  0  0  0  0
  4 14  1  0  0  0  0
  5 17  1  6  0  0  0
  5 12  1  0  0  0  0
  5 10  1  0  0  0  0
  6  9  2  0  0  0  0
  6 11  1  0  0  0  0
  7  1  2  0  0  0  0
  8  4  2  0  0  0  0
  9  2  1  0  0  0  0
 10  3  1  0  0  0  0
 12  6  1  0  0  0  0
 13  7  1  0  0  0  0
 13 12  2  0  0  0  0
 15 16  1  0  0  0  0
 16 14  1  0  0  0  0
 17 18  1  0  0  0  0
 18 23  1  0  0  0  0
 20 23  2  0  0  0  0
 20 22  1  0  0  0  0
 21 19  2  0  0  0  0
 22 19  1  0  0  0  0
 23 21  1  0  0  0  0
 24 20  1  0  0  0  0
 26 25  1  6  0  0  0
 26 24  1  0  0  0  0
 27 28  1  0  0  0  0
 28 26  1  0  0  0  0
 30 34  1  0  0  0  0
 32 29  1  0  0  0  0
 32 31  2  0  0  0  0
 33 30  2  0  0  0  0
 33 32  1  0  0  0  0
 34 39  1  6  0  0  0
 34 31  1  0  0  0  0
 35 33  1  0  0  0  0
 37 38  1  0  0  0  0
 37 36  1  0  0  0  0
 39 36  2  0  0  0  0
 40 41  2  0  0  0  0
 40 37  1  0  0  0  0
 41 39  1  0  0  0  0
M  END
>  <MODEL>
7

>  <REMARK>
 VINA RESULT:      -6.5      3.250      8.085
  Name = 
  11 active torsions:
  status: ('A' for Active; 'I' for Inactive)
    1  A    between atoms: N_8  and  C_35
    2  A    between atoms: C_9  and  C_15
    3  A    between atoms: C_12  and  C_29
    4  A    between atoms: C_14  and  N_33
    5  A    between atoms: C_15  and  O_31
    6  A    between atoms: C_17  and  C_35
    7  A    between atoms: CA_20  and  C_27
    8  A    between atoms: CA_20  and  N_33
    9  A    between atoms: C_21  and  C_29
   10  A    between atoms: C_21  and  C_37
   11  A    between atoms: C_22  and  C_38
                            x       y       z     vdW  Elec       q    Type
                         _______ _______ _______ _____ _____    ______ ____

>  <TORSDO>
F 11

$$$$
=
 OpenBabel11042419583D

 41 46  0  0  1  0  0  0  0  0999 V2000
  188.1870  176.4150  145.4490 C   0  0  0  0  0  0  0  0  0  0  0  0
  187.1330  177.1120  143.2890 S   0  0  0  0  0  0  0  0  0  0  0  0
  189.1210  173.1030  142.0560 N   0  0  0  0  0  0  0  0  0  0  0  0
  186.8370  178.0220  144.6840 C   0  0  0  0  0  0  0  0  0  0  0  0
  190.3110  172.9320  144.0490 C   0  0  2  0  0  3  0  0  0  0  0  0
  188.8050  174.9150  143.6370 C   0  0  0  0  0  0  0  0  0  0  0  0
  188.9410  175.6780  146.3620 C   0  0  0  0  0  3  0  0  0  0  0  0
  187.4650  177.5160  145.7740 N   0  0  0  0  0  0  0  0  0  0  0  0
  188.1260  176.0350  144.1150 C   0  0  0  0  0  0  0  0  0  0  0  0
  190.4160  172.9460  142.5870 N   0  0  0  0  0  2  0  0  0  0  0  0
  188.7550  174.5130  142.1910 C   0  0  0  0  0  2  0  0  0  0  0  0
  189.6010  174.1780  144.5420 C   0  0  0  0  0  0  0  0  0  0  0  0
  189.6410  174.5520  145.9030 C   0  0  0  0  0  3  0  0  0  0  0  0
  185.9370  179.2050  144.7370 C   0  0  0  0  0  2  0  0  0  0  0  0
  184.0760  178.6700  145.7980 C   0  0  0  0  0  1  0  0  0  0  0  0
  185.3240  179.2730  145.9880 O   0  0  0  0  0  0  0  0  0  0  0  0
  191.7070  172.8050  144.6390 C   0  0  0  0  0  2  0  0  0  0  0  0
  192.7300  173.3970  143.6880 C   0  0  0  0  0  2  0  0  0  0  0  0
  196.0160  172.8550  145.4150 C   0  0  0  0  0  3  0  0  0  0  0  0
  194.6290  174.7920  144.6190 C   0  0  0  0  0  0  0  0  0  0  0  0
  194.8090  172.4800  144.8230 C   0  0  0  0  0  3  0  0  0  0  0  0
  196.1030  174.5390  145.3790 S   0  0  0  0  0  0  0  0  0  0  0  0
  194.0350  173.5640  144.3870 C   0  0  0  0  0  0  0  0  0  0  0  0
  194.0690  176.0600  144.2640 N   0  0  0  0  0  2  0  0  0  0  0  0
  192.9920  176.0280  146.4320 C   0  0  0  0  0  1  0  0  0  0  0  0
  193.2200  176.8280  145.1630 C   0  0  2  0  0  3  0  0  0  0  0  0
  191.9390  176.7340  143.1470 O   0  0  0  0  0  1  0  0  0  0  0  0
  191.8860  177.1100  144.4900 C   0  0  0  0  0  2  0  0  0  0  0  0
  189.2150  172.8240  140.6330 C   0  0  0  0  0  2  0  0  0  0  0  0
  192.5840  171.4490  140.0210 N   0  0  0  0  0  0  0  0  0  0  0  0
  191.4190  173.4420  139.6500 C   0  0  0  0  0  3  0  0  0  0  0  0
  190.6370  172.5740  140.2640 C   0  0  0  0  0  0  0  0  0  0  0  0
  191.3820  171.3510  140.4740 C   0  0  0  0  0  0  0  0  0  0  0  0
  192.7490  172.7760  139.4310 C   0  0  1  0  0  3  0  0  0  0  0  0
  190.8670  170.1250  141.1440 C   0  0  0  0  0  1  0  0  0  0  0  0
  193.9450  174.8960  140.2600 C   0  0  0  0  0  3  0  0  0  0  0  0
  195.0790  175.1390  140.9300 N   0  0  0  0  0  0  0  0  0  0  0  0
  195.5390  176.4110  141.2930 N   0  0  0  0  0  1  0  0  0  0  0  0
  193.8490  173.5250  140.1160 C   0  0  0  0  0  0  0  0  0  0  0  0
  195.7010  173.9830  141.2200 C   0  0  0  0  0  3  0  0  0  0  0  0
  194.9500  172.9340  140.7150 C   0  0  0  0  0  3  0  0  0  0  0  0
  1  8  1  0  0  0  0
  1  7  1  0  0  0  0
  2  9  1  0  0  0  0
  2  4  1  0  0  0  0
  3 11  1  0  0  0  0
  3 10  1  0  0  0  0
  4 14  1  0  0  0  0
  4  8  2  0  0  0  0
  5 12  1  0  0  0  0
  5 17  1  1  0  0  0
  6  9  1  0  0  0  0
  6 12  2  0  0  0  0
  9  1  2  0  0  0  0
 10  5  1  0  0  0  0
 11  6  1  0  0  0  0
 12 13  1  0  0  0  0
 13  7  2  0  0  0  0
 14 16  1  0  0  0  0
 15 16  1  0  0  0  0
 18 23  1  0  0  0  0
 18 17  1  0  0  0  0
 20 22  1  0  0  0  0
 21 19  2  0  0  0  0
 22 19  1  0  0  0  0
 23 20  2  0  0  0  0
 23 21  1  0  0  0  0
 24 20  1  0  0  0  0
 24 26  1  0  0  0  0
 26 25  1  1  0  0  0
 27 28  1  0  0  0  0
 28 26  1  0  0  0  0
 29  3  1  0  0  0  0
 30 33  2  0  0  0  0
 31 32  2  0  0  0  0
 32 33  1  0  0  0  0
 32 29  1  0  0  0  0
 33 35  1  0  0  0  0
 34 31  1  0  0  0  0
 34 30  1  0  0  0  0
 34 39  1  1  0  0  0
 36 37  1  0  0  0  0
 37 40  1  0  0  0  0
 37 38  1  0  0  0  0
 39 36  2  0  0  0  0
 39 41  1  0  0  0  0
 41 40  2  0  0  0  0
M  END
>  <MODEL>
8

>  <REMARK>
 VINA RESULT:      -6.4      2.831      6.419
  Name = 
  11 active torsions:
  status: ('A' for Active; 'I' for Inactive)
    1  A    between atoms: N_8  and  C_35
    2  A    between atoms: C_9  and  C_15
    3  A    between atoms: C_12  and  C_29
    4  A    between atoms: C_14  and  N_33
    5  A    between atoms: C_15  and  O_31
    6  A    between atoms: C_17  and  C_35
    7  A    between atoms: CA_20  and  C_27
    8  A    between atoms: CA_20  and  N_33
    9  A    between atoms: C_21  and  C_29
   10  A    between atoms: C_21  and  C_37
   11  A    between atoms: C_22  and  C_38
                            x       y       z     vdW  Elec       q    Type
                         _______ _______ _______ _____ _____    ______ ____

>  <TORSDO>
F 11

$$$$
=
 OpenBabel11042419583D

 41 46  0  0  1  0  0  0  0  0999 V2000
  193.9660  175.4970  145.3450 C   0  0  0  0  0  0  0  0  0  0  0  0
  194.2780  173.0280  145.0860 S   0  0  0  0  0  0  0  0  0  0  0  0
  190.1670  173.6260  143.0170 N   0  0  0  0  0  0  0  0  0  0  0  0
  195.5340  173.9550  145.7380 C   0  0  0  0  0  0  0  0  0  0  0  0
  189.9670  175.8220  143.7620 C   0  0  2  0  0  3  0  0  0  0  0  0
  191.9920  174.4500  144.3860 C   0  0  0  0  0  0  0  0  0  0  0  0
  193.3670  176.7550  145.2910 C   0  0  0  0  0  3  0  0  0  0  0  0
  195.2220  175.2720  145.8060 N   0  0  0  0  0  0  0  0  0  0  0  0
  193.2850  174.3720  144.9010 C   0  0  0  0  0  0  0  0  0  0  0  0
  189.3220  174.5070  143.7200 N   0  0  0  0  0  2  0  0  0  0  0  0
  191.2470  173.2310  143.9230 C   0  0  0  0  0  2  0  0  0  0  0  0
  191.3570  175.7120  144.3580 C   0  0  0  0  0  0  0  0  0  0  0  0
  192.0620  176.8580  144.7870 C   0  0  0  0  0  3  0  0  0  0  0  0
  196.8600  173.4100  146.1340 C   0  0  0  0  0  2  0  0  0  0  0  0
  197.5800  171.6400  145.0280 C   0  0  0  0  0  1  0  0  0  0  0  0
  196.8130  172.0160  146.1360 O   0  0  0  0  0  0  0  0  0  0  0  0
  189.0860  176.7740  144.5540 C   0  0  0  0  0  2  0  0  0  0  0  0
  188.8550  178.0500  143.7650 C   0  0  0  0  0  2  0  0  0  0  0  0
  186.0780  177.4630  141.3130 C   0  0  0  0  0  3  0  0  0  0  0  0
  186.3430  178.3550  143.6450 C   0  0  0  0  0  0  0  0  0  0  0  0
  187.3980  177.4760  141.7650 C   0  0  0  0  0  3  0  0  0  0  0  0
  185.1060  178.0770  142.5470 S   0  0  0  0  0  0  0  0  0  0  0  0
  187.5420  177.9820  143.0640 C   0  0  0  0  0  0  0  0  0  0  0  0
  186.1960  178.8890  144.9650 N   0  0  0  0  0  2  0  0  0  0  0  0
  185.5390  178.9940  147.2930 C   0  0  0  0  0  1  0  0  0  0  0  0
  185.3180  178.2960  145.9640 C   0  0  2  0  0  3  0  0  0  0  0  0
  186.6510  176.6300  147.0390 O   0  0  0  0  0  1  0  0  0  0  0  0
  185.6310  176.8160  146.1050 C   0  0  0  0  0  2  0  0  0  0  0  0
  189.3890  172.4310  142.7390 C   0  0  0  0  0  2  0  0  0  0  0  0
  190.5490  170.6620  139.7170 N   0  0  0  0  0  0  0  0  0  0  0  0
  189.1770  172.4770  140.2570 C   0  0  0  0  0  3  0  0  0  0  0  0
  189.6810  171.9520  141.3590 C   0  0  0  0  0  0  0  0  0  0  0  0
  190.5190  170.8300  140.9940 C   0  0  0  0  0  0  0  0  0  0  0  0
  189.6920  171.6720  139.0970 C   0  0  1  0  0  3  0  0  0  0  0  0
  191.2830  169.9710  141.9400 C   0  0  0  0  0  1  0  0  0  0  0  0
  191.7340  172.2450  137.6430 C   0  0  0  0  0  3  0  0  0  0  0  0
  192.0670  173.2680  136.8450 N   0  0  0  0  0  0  0  0  0  0  0  0
  193.2620  173.3640  136.1220 N   0  0  0  0  0  1  0  0  0  0  0  0
  190.4810  172.5260  138.1530 C   0  0  0  0  0  0  0  0  0  0  0  0
  191.0790  174.1790  136.8250 C   0  0  0  0  0  3  0  0  0  0  0  0
  190.0530  173.7430  137.6490 C   0  0  0  0  0  3  0  0  0  0  0  0
  1  8  1  0  0  0  0
  2  4  1  0  0  0  0
  3 10  1  0  0  0  0
  3 11  1  0  0  0  0
  4  8  2  0  0  0  0
  4 14  1  0  0  0  0
  5 12  1  0  0  0  0
  5 17  1  1  0  0  0
  6  9  1  0  0  0  0
  7  1  1  0  0  0  0
  9  2  1  0  0  0  0
  9  1  2  0  0  0  0
 10  5  1  0  0  0  0
 11  6  1  0  0  0  0
 12  6  2  0  0  0  0
 12 13  1  0  0  0  0
 13  7  2  0  0  0  0
 14 16  1  0  0  0  0
 15 16  1  0  0  0  0
 18 17  1  0  0  0  0
 19 21  2  0  0  0  0
 19 22  1  0  0  0  0
 20 24  1  0  0  0  0
 21 23  1  0  0  0  0
 22 20  1  0  0  0  0
 23 20  2  0  0  0  0
 23 18  1  0  0  0  0
 24 26  1  0  0  0  0
 26 28  1  0  0  0  0
 26 25  1  1  0  0  0
 28 27  1  0  0  0  0
 29  3  1  0  0  0  0
 30 33  2  0  0  0  0
 31 32  2  0  0  0  0
 32 29  1  0  0  0  0
 33 32  1  0  0  0  0
 33 35  1  0  0  0  0
 34 39  1  6  0  0  0
 34 30  1  0  0  0  0
 34 31  1  0  0  0  0
 36 39  2  0  0  0  0
 37 36  1  0  0  0  0
 38 37  1  0  0  0  0
 40 37  1  0  0  0  0
 40 41  2  0  0  0  0
 41 39  1  0  0  0  0
M  END
>  <MODEL>
9

>  <REMARK>
 VINA RESULT:      -6.3      2.392      3.388
  Name = 
  11 active torsions:
  status: ('A' for Active; 'I' for Inactive)
    1  A    between atoms: N_8  and  C_35
    2  A    between atoms: C_9  and  C_15
    3  A    between atoms: C_12  and  C_29
    4  A    between atoms: C_14  and  N_33
    5  A    between atoms: C_15  and  O_31
    6  A    between atoms: C_17  and  C_35
    7  A    between atoms: CA_20  and  C_27
    8  A    between atoms: CA_20  and  N_33
    9  A    between atoms: C_21  and  C_29
   10  A    between atoms: C_21  and  C_37
   11  A    between atoms: C_22  and  C_38
                            x       y       z     vdW  Elec       q    Type
                         _______ _______ _______ _____ _____    ______ ____

>  <TORSDO>
F 11

$$$$
