=
 OpenBabel11042414513D

 32 35  0  0  1  0  0  0  0  0999 V2000
  193.8100  175.4790  145.6540 C   0  0  0  0  0  0  0  0  0  0  0  0
  186.0470  177.2540  144.0460 C   0  0  0  0  0  2  0  0  0  0  0  0
  185.9410  176.9310  147.6380 C   0  0  0  0  0  1  0  0  0  0  0  0
  188.2260  173.7230  142.0480 C   0  0  0  0  0  2  0  0  0  0  0  0
  188.8910  177.4280  146.2060 N   0  0  0  0  0  2  0  0  0  0  0  0
  185.3840  177.4920  145.3280 N   0  0  0  0  0  2  0  0  0  0  0  0
  190.5100  170.8520  142.6430 O   0  0  0  0  0  1  0  0  0  0  0  0
  188.3070  176.9260  142.0140 C   0  0  1  0  0  3  0  0  0  0  0  0
  188.4810  176.8280  143.5090 C   0  0  0  0  0  0  0  0  0  0  0  0
  189.4520  172.8480  141.8740 C   0  0  0  0  0  2  0  0  0  0  0  0
  195.6050  173.7580  143.8510 C   0  0  0  0  0  3  0  0  0  0  0  0
  195.9100  174.9160  144.4500 C   0  0  0  0  0  3  0  0  0  0  0  0
  191.2010  177.0870  146.0310 O   0  0  0  0  0  0  0  0  0  0  0  0
  189.9570  176.6450  145.5770 C   0  0  2  0  0  3  0  0  0  0  0  0
  192.0980  172.6840  144.3270 N   0  0  0  0  0  0  0  0  0  0  0  0
  194.5030  172.8230  144.2810 C   0  0  2  0  0  3  0  0  0  0  0  0
  189.4920  171.7580  142.9370 C   0  0  2  0  0  3  0  0  0  0  0  0
  186.4360  177.5550  146.3480 C   0  0  2  0  0  3  0  0  0  0  0  0
  192.9750  174.9370  144.5240 C   0  0  0  0  0  2  0  0  0  0  0  0
  191.6610  176.0670  146.8650 C   0  0  0  0  0  2  0  0  0  0  0  0
  187.6340  176.7900  145.8300 C   0  0  1  0  0  3  0  0  0  0  0  0
  187.4600  175.9170  141.5420 O   0  0  0  0  0  0  0  0  0  0  0  0
  193.1830  176.0600  146.8880 C   0  0  0  0  0  2  0  0  0  0  0  0
  189.8950  176.7640  144.0430 C   0  0  0  0  0  2  0  0  0  0  0  0
  188.3140  174.9030  141.1020 C   0  0  0  0  0  2  0  0  0  0  0  0
  189.6910  172.3330  144.3410 C   0  0  0  0  0  2  0  0  0  0  0  0
  187.4420  176.8790  144.3690 C   0  0  0  0  0  0  0  0  0  0  0  0
  193.1410  173.4520  144.3800 C   0  0  0  0  0  0  0  0  0  0  0  0
  190.8210  173.1930  144.4010 O   0  0  0  0  0  0  0  0  0  0  0  0
  187.7850  178.2910  141.5980 C   0  0  0  0  0  1  0  0  0  0  0  0
  195.1420  175.5100  145.5620 C   0  0  0  0  0  3  0  0  0  0  0  0
  194.8680  172.1170  145.5760 C   0  0  0  0  0  1  0  0  0  0  0  0
  1 23  1  0  0  0  0
  2 27  1  0  0  0  0
  2  6  1  0  0  0  0
  6 18  1  0  0  0  0
  8 30  1  1  0  0  0
  8  9  1  0  0  0  0
  9 24  1  0  0  0  0
  9 27  2  0  0  0  0
 10  4  1  0  0  0  0
 10 17  1  0  0  0  0
 11 16  1  0  0  0  0
 11 12  2  0  0  0  0
 12 31  1  0  0  0  0
 13 20  1  0  0  0  0
 14 24  1  6  0  0  0
 14 13  1  0  0  0  0
 14  5  1  0  0  0  0
 15 28  2  0  0  0  0
 15 29  1  0  0  0  0
 16 28  1  0  0  0  0
 16 32  1  1  0  0  0
 17  7  1  6  0  0  0
 17 26  1  0  0  0  0
 18  3  1  1  0  0  0
 19  1  1  0  0  0  0
 20 23  1  0  0  0  0
 21 27  1  6  0  0  0
 21  5  1  0  0  0  0
 21 18  1  0  0  0  0
 22  8  1  0  0  0  0
 25 22  1  0  0  0  0
 25  4  1  0  0  0  0
 26 29  1  0  0  0  0
 28 19  1  0  0  0  0
 31  1  2  0  0  0  0
M  END
>  <MODEL>
1

>  <REMARK>
 VINA RESULT:      -9.4      0.000      0.000
  Name = 
  0 active torsions:
  status: ('A' for Active; 'I' for Inactive)
                            x       y       z     vdW  Elec       q    Type
                         _______ _______ _______ _____ _____    ______ ____

>  <TORSDO>
F 0

$$$$
=
 OpenBabel11042414513D

 32 35  0  0  1  0  0  0  0  0999 V2000
  187.2250  177.6140  146.8430 C   0  0  0  0  0  0  0  0  0  0  0  0
  192.4920  173.3600  142.3530 C   0  0  0  0  0  2  0  0  0  0  0  0
  194.6270  175.9890  143.5990 C   0  0  0  0  0  1  0  0  0  0  0  0
  188.5500  174.9990  140.6250 C   0  0  0  0  0  2  0  0  0  0  0  0
  191.7770  175.4110  145.1940 N   0  0  0  0  0  2  0  0  0  0  0  0
  193.8250  173.8980  142.6260 N   0  0  0  0  0  2  0  0  0  0  0  0
  186.3080  177.9590  140.4870 O   0  0  0  0  0  1  0  0  0  0  0  0
  189.5150  172.7770  142.7230 C   0  0  1  0  0  3  0  0  0  0  0  0
  190.2560  173.8990  143.4030 C   0  0  0  0  0  0  0  0  0  0  0  0
  187.2670  175.7930  140.7700 C   0  0  0  0  0  2  0  0  0  0  0  0
  184.2710  178.0340  146.1170 C   0  0  0  0  0  3  0  0  0  0  0  0
  184.7860  177.7130  147.3110 C   0  0  0  0  0  3  0  0  0  0  0  0
  189.8770  176.1040  146.3740 O   0  0  0  0  0  0  0  0  0  0  0  0
  190.3660  175.7940  145.1040 C   0  0  2  0  0  3  0  0  0  0  0  0
  186.7620  178.2250  143.3920 N   0  0  0  0  0  0  0  0  0  0  0  0
  185.0270  178.6980  144.9950 C   0  0  2  0  0  3  0  0  0  0  0  0
  187.5230  177.2770  140.5450 C   0  0  2  0  0  3  0  0  0  0  0  0
  193.6930  174.8070  143.7700 C   0  0  2  0  0  3  0  0  0  0  0  0
  186.9770  177.0170  145.4840 C   0  0  0  0  0  2  0  0  0  0  0  0
  189.7120  177.4910  146.3640 C   0  0  0  0  0  2  0  0  0  0  0  0
  192.2590  175.2850  143.8220 C   0  0  1  0  0  3  0  0  0  0  0  0
  189.5180  172.9450  141.3330 O   0  0  0  0  0  0  0  0  0  0  0  0
  188.6140  177.8900  147.3400 C   0  0  0  0  0  2  0  0  0  0  0  0
  189.5270  174.6580  144.4900 C   0  0  0  0  0  2  0  0  0  0  0  0
  188.3000  173.5620  141.0400 C   0  0  0  0  0  2  0  0  0  0  0  0
  188.4100  177.8780  141.6370 C   0  0  0  0  0  2  0  0  0  0  0  0
  191.5480  174.1870  143.1380 C   0  0  0  0  0  0  0  0  0  0  0  0
  186.2850  177.9900  144.5730 C   0  0  0  0  0  0  0  0  0  0  0  0
  187.9040  177.6050  142.9360 O   0  0  0  0  0  0  0  0  0  0  0  0
  190.0890  171.4200  143.0910 C   0  0  0  0  0  1  0  0  0  0  0  0
  186.2090  177.8630  147.6740 C   0  0  0  0  0  3  0  0  0  0  0  0
  185.3120  180.1540  145.3220 C   0  0  0  0  0  1  0  0  0  0  0  0
  1 23  1  0  0  0  0
  1 31  2  0  0  0  0
  2  6  1  0  0  0  0
  2 27  1  0  0  0  0
  4 10  1  0  0  0  0
  4 25  1  0  0  0  0
  6 18  1  0  0  0  0
  8 30  1  6  0  0  0
  8  9  1  0  0  0  0
  9 24  1  0  0  0  0
 11 12  2  0  0  0  0
 12 31  1  0  0  0  0
 14 24  1  1  0  0  0
 14  5  1  0  0  0  0
 14 13  1  0  0  0  0
 15 28  2  0  0  0  0
 16 32  1  1  0  0  0
 16 11  1  0  0  0  0
 17  7  1  1  0  0  0
 17 10  1  0  0  0  0
 17 26  1  0  0  0  0
 18  3  1  6  0  0  0
 18 21  1  0  0  0  0
 19  1  1  0  0  0  0
 20 13  1  0  0  0  0
 20 23  1  0  0  0  0
 21 27  1  6  0  0  0
 21  5  1  0  0  0  0
 22  8  1  0  0  0  0
 25 22  1  0  0  0  0
 26 29  1  0  0  0  0
 27  9  2  0  0  0  0
 28 16  1  0  0  0  0
 28 19  1  0  0  0  0
 29 15  1  0  0  0  0
M  END
>  <MODEL>
2

>  <REMARK>
 VINA RESULT:      -8.5      1.976      7.068
  Name = 
  0 active torsions:
  status: ('A' for Active; 'I' for Inactive)
                            x       y       z     vdW  Elec       q    Type
                         _______ _______ _______ _____ _____    ______ ____

>  <TORSDO>
F 0

$$$$
=
 OpenBabel11042414513D

 32 35  0  0  1  0  0  0  0  0999 V2000
  187.1920  176.5040  143.0780 C   0  0  0  0  0  0  0  0  0  0  0  0
  194.5980  173.3110  142.1020 C   0  0  0  0  0  2  0  0  0  0  0  0
  192.5350  170.3760  141.7200 C   0  0  0  0  0  1  0  0  0  0  0  0
  193.4500  175.7660  145.8250 C   0  0  0  0  0  2  0  0  0  0  0  0
  191.1030  173.3440  141.3440 N   0  0  0  0  0  2  0  0  0  0  0  0
  194.4170  171.9300  141.6560 N   0  0  0  0  0  2  0  0  0  0  0  0
  190.8160  176.3220  148.3880 O   0  0  0  0  0  1  0  0  0  0  0  0
  193.9300  176.2340  142.6920 C   0  0  1  0  0  3  0  0  0  0  0  0
  192.9050  175.1490  142.4850 C   0  0  0  0  0  0  0  0  0  0  0  0
  192.4330  176.5350  146.6460 C   0  0  0  0  0  2  0  0  0  0  0  0
  186.5330  178.7960  145.0130 C   0  0  0  0  0  3  0  0  0  0  0  0
  186.1300  178.6500  143.7440 C   0  0  0  0  0  3  0  0  0  0  0  0
  189.3110  174.8320  141.5800 O   0  0  0  0  0  0  0  0  0  0  0  0
  190.4940  174.3860  142.1730 C   0  0  2  0  0  3  0  0  0  0  0  0
  188.8710  176.1760  146.1720 N   0  0  0  0  0  0  0  0  0  0  0  0
  187.0060  177.6790  145.9080 C   0  0  2  0  0  3  0  0  0  0  0  0
  191.6030  175.5870  147.5020 C   0  0  2  0  0  3  0  0  0  0  0  0
  192.9950  171.7670  141.3340 C   0  0  2  0  0  3  0  0  0  0  0  0
  188.4260  176.8250  143.8780 C   0  0  0  0  0  2  0  0  0  0  0  0
  188.2920  174.3260  142.3880 C   0  0  0  0  0  2  0  0  0  0  0  0
  192.2190  172.8040  142.1150 C   0  0  1  0  0  3  0  0  0  0  0  0
  194.7140  175.9730  143.8220 O   0  0  0  0  0  0  0  0  0  0  0  0
  187.0660  175.2250  142.3030 C   0  0  0  0  0  2  0  0  0  0  0  0
  191.4570  175.5720  142.3620 C   0  0  0  0  0  2  0  0  0  0  0  0
  194.1250  176.7110  144.8510 C   0  0  0  0  0  2  0  0  0  0  0  0
  190.7210  174.6710  146.6510 C   0  0  0  0  0  2  0  0  0  0  0  0
  193.2380  173.8510  142.3260 C   0  0  0  0  0  0  0  0  0  0  0  0
  188.1350  176.8560  145.3510 C   0  0  0  0  0  0  0  0  0  0  0  0
  189.9270  175.4100  145.7330 O   0  0  0  0  0  0  0  0  0  0  0  0
  194.8110  176.4160  141.4680 C   0  0  0  0  0  1  0  0  0  0  0  0
  186.1900  177.3830  142.9900 C   0  0  0  0  0  3  0  0  0  0  0  0
  185.8460  176.7910  146.3230 C   0  0  0  0  0  1  0  0  0  0  0  0
  1 19  1  0  0  0  0
  2 27  1  0  0  0  0
  4 10  1  0  0  0  0
  5 14  1  0  0  0  0
  6  2  1  0  0  0  0
  8 30  1  6  0  0  0
  8 22  1  0  0  0  0
  9  8  1  0  0  0  0
 10 17  1  0  0  0  0
 11 16  1  0  0  0  0
 12 11  2  0  0  0  0
 13 14  1  0  0  0  0
 13 20  1  0  0  0  0
 14 24  1  6  0  0  0
 16 32  1  6  0  0  0
 17  7  1  1  0  0  0
 18  6  1  0  0  0  0
 18  3  1  1  0  0  0
 18 21  1  0  0  0  0
 19 28  1  0  0  0  0
 21  5  1  6  0  0  0
 21 27  1  0  0  0  0
 22 25  1  0  0  0  0
 23 20  1  0  0  0  0
 23  1  1  0  0  0  0
 24  9  1  0  0  0  0
 25  4  1  0  0  0  0
 26 17  1  0  0  0  0
 27  9  2  0  0  0  0
 28 16  1  0  0  0  0
 28 15  2  0  0  0  0
 29 15  1  0  0  0  0
 29 26  1  0  0  0  0
 31  1  2  0  0  0  0
 31 12  1  0  0  0  0
M  END
>  <MODEL>
3

>  <REMARK>
 VINA RESULT:      -8.2      2.182      7.493
  Name = 
  0 active torsions:
  status: ('A' for Active; 'I' for Inactive)
                            x       y       z     vdW  Elec       q    Type
                         _______ _______ _______ _____ _____    ______ ____

>  <TORSDO>
F 0

$$$$
=
 OpenBabel11042414513D

 32 35  0  0  1  0  0  0  0  0999 V2000
  189.1550  177.3880  144.1930 C   0  0  0  0  0  0  0  0  0  0  0  0
  195.8010  172.8100  143.2540 C   0  0  0  0  0  2  0  0  0  0  0  0
  196.8160  175.8370  141.5750 C   0  0  0  0  0  1  0  0  0  0  0  0
  191.6290  171.3950  141.9100 C   0  0  0  0  0  2  0  0  0  0  0  0
  194.2690  176.0120  143.6910 N   0  0  0  0  0  2  0  0  0  0  0  0
  196.8460  173.6740  142.7060 N   0  0  0  0  0  2  0  0  0  0  0  0
  188.5050  172.4110  140.1730 O   0  0  0  0  0  1  0  0  0  0  0  0
  193.1990  171.9970  144.6380 C   0  0  1  0  0  3  0  0  0  0  0  0
  193.4660  173.3610  144.0550 C   0  0  0  0  0  0  0  0  0  0  0  0
  190.1440  171.6340  141.7230 C   0  0  0  0  0  2  0  0  0  0  0  0
  186.2820  176.3060  144.1410 C   0  0  0  0  0  3  0  0  0  0  0  0
  186.8150  177.1820  145.0020 C   0  0  0  0  0  3  0  0  0  0  0  0
  192.1880  176.8390  144.3760 O   0  0  0  0  0  0  0  0  0  0  0  0
  192.8200  175.7990  143.6920 C   0  0  2  0  0  3  0  0  0  0  0  0
  188.6870  174.9380  141.6880 N   0  0  0  0  0  0  0  0  0  0  0  0
  186.8160  176.0100  142.7630 C   0  0  2  0  0  3  0  0  0  0  0  0
  189.8770  172.3770  140.4210 C   0  0  2  0  0  3  0  0  0  0  0  0
  196.3460  175.0510  142.7820 C   0  0  2  0  0  3  0  0  0  0  0  0
  189.2010  175.9250  143.8430 C   0  0  0  0  0  2  0  0  0  0  0  0
  191.5500  177.5850  143.3830 C   0  0  0  0  0  2  0  0  0  0  0  0
  194.8350  174.9980  142.8080 C   0  0  1  0  0  3  0  0  0  0  0  0
  193.2160  171.0140  143.6410 O   0  0  0  0  0  0  0  0  0  0  0  0
  190.3330  178.2910  143.9650 C   0  0  0  0  0  2  0  0  0  0  0  0
  192.4620  174.4540  144.3500 C   0  0  0  0  0  2  0  0  0  0  0  0
  191.8760  170.8280  143.2940 C   0  0  0  0  0  2  0  0  0  0  0  0
  190.4410  173.7990  140.4460 C   0  0  0  0  0  2  0  0  0  0  0  0
  194.5880  173.6530  143.3630 C   0  0  0  0  0  0  0  0  0  0  0  0
  188.2620  175.5990  142.7180 C   0  0  0  0  0  0  0  0  0  0  0  0
  189.9960  174.5210  141.5860 O   0  0  0  0  0  0  0  0  0  0  0  0
  194.1910  171.6510  145.7350 C   0  0  0  0  0  1  0  0  0  0  0  0
  188.0750  177.9160  144.7750 C   0  0  0  0  0  3  0  0  0  0  0  0
  186.5570  177.1730  141.8210 C   0  0  0  0  0  1  0  0  0  0  0  0
  1 31  2  0  0  0  0
  2 27  1  0  0  0  0
  4 25  1  0  0  0  0
  5 14  1  0  0  0  0
  6 18  1  0  0  0  0
  6  2  1  0  0  0  0
  8 30  1  1  0  0  0
  9 24  1  0  0  0  0
  9  8  1  0  0  0  0
 10  4  1  0  0  0  0
 11 12  2  0  0  0  0
 14 24  1  1  0  0  0
 14 13  1  0  0  0  0
 15 28  2  0  0  0  0
 16 32  1  6  0  0  0
 16 11  1  0  0  0  0
 17  7  1  1  0  0  0
 17 26  1  0  0  0  0
 17 10  1  0  0  0  0
 18  3  1  6  0  0  0
 18 21  1  0  0  0  0
 19  1  1  0  0  0  0
 20 23  1  0  0  0  0
 20 13  1  0  0  0  0
 21 27  1  1  0  0  0
 21  5  1  0  0  0  0
 22  8  1  0  0  0  0
 23  1  1  0  0  0  0
 25 22  1  0  0  0  0
 26 29  1  0  0  0  0
 27  9  2  0  0  0  0
 28 16  1  0  0  0  0
 28 19  1  0  0  0  0
 29 15  1  0  0  0  0
 31 12  1  0  0  0  0
M  END
>  <MODEL>
4

>  <REMARK>
 VINA RESULT:      -8.1      2.406      7.166
  Name = 
  0 active torsions:
  status: ('A' for Active; 'I' for Inactive)
                            x       y       z     vdW  Elec       q    Type
                         _______ _______ _______ _____ _____    ______ ____

>  <TORSDO>
F 0

$$$$
=
 OpenBabel11042414513D

 32 35  0  0  1  0  0  0  0  0999 V2000
  188.2870  175.4050  142.1000 C   0  0  0  0  0  0  0  0  0  0  0  0
  195.2770  171.9030  144.3070 C   0  0  0  0  0  2  0  0  0  0  0  0
  193.0190  169.0950  144.4950 C   0  0  0  0  0  1  0  0  0  0  0  0
  193.6050  175.6210  146.4500 C   0  0  0  0  0  2  0  0  0  0  0  0
  192.0820  171.7280  142.7100 N   0  0  0  0  0  2  0  0  0  0  0  0
  195.0380  170.4610  144.3620 N   0  0  0  0  0  2  0  0  0  0  0  0
  190.5380  177.1770  147.8580 O   0  0  0  0  0  1  0  0  0  0  0  0
  194.8490  174.8450  143.6000 C   0  0  1  0  0  3  0  0  0  0  0  0
  193.7760  173.7880  143.5420 C   0  0  0  0  0  0  0  0  0  0  0  0
  192.5260  176.6690  146.6410 C   0  0  0  0  0  2  0  0  0  0  0  0
  187.4810  178.2780  142.8280 C   0  0  0  0  0  3  0  0  0  0  0  0
  187.3670  177.6680  141.6410 C   0  0  0  0  0  3  0  0  0  0  0  0
  190.4770  173.2370  141.9150 O   0  0  0  0  0  0  0  0  0  0  0  0
  191.4270  173.0220  142.9150 C   0  0  2  0  0  3  0  0  0  0  0  0
  189.1530  176.2430  145.4230 N   0  0  0  0  0  0  0  0  0  0  0  0
  187.5960  177.5760  144.1570 C   0  0  2  0  0  3  0  0  0  0  0  0
  191.4130  176.1400  147.5360 C   0  0  2  0  0  3  0  0  0  0  0  0
  193.7200  170.2220  143.7640 C   0  0  2  0  0  3  0  0  0  0  0  0
  189.3320  175.9770  143.0190 C   0  0  0  0  0  2  0  0  0  0  0  0
  189.2450  173.1030  142.5590 C   0  0  0  0  0  2  0  0  0  0  0  0
  192.9160  171.4970  143.8850 C   0  0  1  0  0  3  0  0  0  0  0  0
  195.3130  175.0160  144.9100 O   0  0  0  0  0  0  0  0  0  0  0  0
  188.1900  173.9300  141.8380 C   0  0  0  0  0  2  0  0  0  0  0  0
  192.4570  174.1670  142.9030 C   0  0  0  0  0  2  0  0  0  0  0  0
  194.5960  176.1050  145.4100 C   0  0  0  0  0  2  0  0  0  0  0  0
  190.6470  174.9910  146.8780 C   0  0  0  0  0  2  0  0  0  0  0  0
  193.9770  172.5200  143.9580 C   0  0  0  0  0  0  0  0  0  0  0  0
  188.7150  176.5750  144.2500 C   0  0  0  0  0  0  0  0  0  0  0  0
  190.1820  175.3410  145.5820 O   0  0  0  0  0  0  0  0  0  0  0  0
  196.0040  174.5240  142.6680 C   0  0  0  0  0  1  0  0  0  0  0  0
  187.4460  176.2080  141.4410 C   0  0  0  0  0  3  0  0  0  0  0  0
  186.2720  176.9420  144.5510 C   0  0  0  0  0  1  0  0  0  0  0  0
  1 19  1  0  0  0  0
  2  6  1  0  0  0  0
  4 10  1  0  0  0  0
  5 14  1  0  0  0  0
  8 30  1  6  0  0  0
  8 22  1  0  0  0  0
  9  8  1  0  0  0  0
  9 27  2  0  0  0  0
 10 17  1  0  0  0  0
 11 16  1  0  0  0  0
 12 11  2  0  0  0  0
 13 20  1  0  0  0  0
 13 14  1  0  0  0  0
 14 24  1  6  0  0  0
 15 29  1  0  0  0  0
 16 28  1  0  0  0  0
 16 32  1  6  0  0  0
 17  7  1  6  0  0  0
 18 21  1  0  0  0  0
 18  6  1  0  0  0  0
 18  3  1  1  0  0  0
 19 28  1  0  0  0  0
 21  5  1  6  0  0  0
 21 27  1  0  0  0  0
 22 25  1  0  0  0  0
 23  1  1  0  0  0  0
 23 20  1  0  0  0  0
 24  9  1  0  0  0  0
 25  4  1  0  0  0  0
 26 17  1  0  0  0  0
 27  2  1  0  0  0  0
 28 15  2  0  0  0  0
 29 26  1  0  0  0  0
 31 12  1  0  0  0  0
 31  1  2  0  0  0  0
M  END
>  <MODEL>
5

>  <REMARK>
 VINA RESULT:      -8.0      1.858      7.691
  Name = 
  0 active torsions:
  status: ('A' for Active; 'I' for Inactive)
                            x       y       z     vdW  Elec       q    Type
                         _______ _______ _______ _____ _____    ______ ____

>  <TORSDO>
F 0

$$$$
=
 OpenBabel11042414513D

 32 35  0  0  1  0  0  0  0  0999 V2000
  194.1220  170.0360  144.8290 C   0  0  0  0  0  0  0  0  0  0  0  0
  188.5620  175.8290  143.5920 C   0  0  0  0  0  2  0  0  0  0  0  0
  188.5170  174.1490  140.3990 C   0  0  0  0  0  1  0  0  0  0  0  0
  192.8450  176.7880  144.9880 C   0  0  0  0  0  2  0  0  0  0  0  0
  189.7940  172.5250  142.9940 N   0  0  0  0  0  2  0  0  0  0  0  0
  187.9130  175.5380  142.3140 N   0  0  0  0  0  2  0  0  0  0  0  0
  196.4430  176.0220  144.4560 O   0  0  0  0  0  1  0  0  0  0  0  0
  190.2030  175.3810  146.1310 C   0  0  1  0  0  3  0  0  0  0  0  0
  190.2710  174.5060  144.9050 C   0  0  0  0  0  0  0  0  0  0  0  0
  194.2530  176.3530  145.3440 C   0  0  0  0  0  2  0  0  0  0  0  0
  196.6640  170.4020  146.5130 C   0  0  0  0  0  3  0  0  0  0  0  0
  195.8130  169.3670  146.5220 C   0  0  0  0  0  3  0  0  0  0  0  0
  191.3380  171.0660  143.9780 O   0  0  0  0  0  0  0  0  0  0  0  0
  191.0710  172.4080  143.7010 C   0  0  2  0  0  3  0  0  0  0  0  0
  195.6400  173.1850  144.3030 N   0  0  0  0  0  0  0  0  0  0  0  0
  196.8240  171.3830  145.3800 C   0  0  2  0  0  3  0  0  0  0  0  0
  195.1120  176.2270  144.0930 C   0  0  2  0  0  3  0  0  0  0  0  0
  188.3540  174.2000  141.9050 C   0  0  2  0  0  3  0  0  0  0  0  0
  194.2080  171.4760  145.2580 C   0  0  0  0  0  2  0  0  0  0  0  0
  192.3820  170.7240  143.1170 C   0  0  0  0  0  2  0  0  0  0  0  0
  189.6790  173.9200  142.5790 C   0  0  1  0  0  3  0  0  0  0  0  0
  190.6280  176.6830  145.8420 O   0  0  0  0  0  0  0  0  0  0  0  0
  193.2070  169.5960  143.7220 C   0  0  0  0  0  2  0  0  0  0  0  0
  191.0490  173.2130  145.0130 C   0  0  0  0  0  2  0  0  0  0  0  0
  191.9710  176.7200  146.2240 C   0  0  0  0  0  2  0  0  0  0  0  0
  194.6350  175.0950  143.1820 C   0  0  0  0  0  2  0  0  0  0  0  0
  189.6070  174.7930  143.7660 C   0  0  0  0  0  0  0  0  0  0  0  0
  195.5540  172.0630  144.9460 C   0  0  0  0  0  0  0  0  0  0  0  0
  194.5180  173.8670  143.8860 O   0  0  0  0  0  0  0  0  0  0  0  0
  188.8070  175.4010  146.7290 C   0  0  0  0  0  1  0  0  0  0  0  0
  194.8210  169.0920  145.4650 C   0  0  0  0  0  3  0  0  0  0  0  0
  197.5190  170.7340  144.1950 C   0  0  0  0  0  1  0  0  0  0  0  0
  1 19  1  0  0  0  0
  1 31  2  0  0  0  0
  2 27  1  0  0  0  0
  4 10  1  0  0  0  0
  4 25  1  0  0  0  0
  5 14  1  0  0  0  0
  6  2  1  0  0  0  0
  8 30  1  6  0  0  0
  9 24  1  0  0  0  0
  9  8  1  0  0  0  0
 11 12  2  0  0  0  0
 14 13  1  0  0  0  0
 14 24  1  1  0  0  0
 15 28  2  0  0  0  0
 16 32  1  6  0  0  0
 16 11  1  0  0  0  0
 17  7  1  1  0  0  0
 17 10  1  0  0  0  0
 18  3  1  6  0  0  0
 18  6  1  0  0  0  0
 18 21  1  0  0  0  0
 20 23  1  0  0  0  0
 20 13  1  0  0  0  0
 21  5  1  1  0  0  0
 21 27  1  0  0  0  0
 22  8  1  0  0  0  0
 22 25  1  0  0  0  0
 23  1  1  0  0  0  0
 26 29  1  0  0  0  0
 26 17  1  0  0  0  0
 27  9  2  0  0  0  0
 28 19  1  0  0  0  0
 28 16  1  0  0  0  0
 29 15  1  0  0  0  0
 31 12  1  0  0  0  0
M  END
>  <MODEL>
6

>  <REMARK>
 VINA RESULT:      -7.8      2.457      5.433
  Name = 
  0 active torsions:
  status: ('A' for Active; 'I' for Inactive)
                            x       y       z     vdW  Elec       q    Type
                         _______ _______ _______ _____ _____    ______ ____

>  <TORSDO>
F 0

$$$$
=
 OpenBabel11042414513D

 32 35  0  0  1  0  0  0  0  0999 V2000
  191.9510  170.6630  143.0620 C   0  0  0  0  0  0  0  0  0  0  0  0
  187.9980  177.5280  144.8660 C   0  0  0  0  0  2  0  0  0  0  0  0
  187.8160  177.5650  141.2630 C   0  0  0  0  0  1  0  0  0  0  0  0
  192.2630  176.6750  146.3800 C   0  0  0  0  0  2  0  0  0  0  0  0
  188.4750  174.6790  142.7580 N   0  0  0  0  0  2  0  0  0  0  0  0
  187.4010  178.0210  143.6250 N   0  0  0  0  0  2  0  0  0  0  0  0
  195.6160  175.3950  145.4150 O   0  0  0  0  0  1  0  0  0  0  0  0
  189.2850  175.5850  146.8430 C   0  0  1  0  0  3  0  0  0  0  0  0
  189.2450  175.3820  145.3500 C   0  0  0  0  0  0  0  0  0  0  0  0
  193.4990  175.8000  146.4400 C   0  0  0  0  0  2  0  0  0  0  0  0
  194.3670  169.5920  144.6240 C   0  0  0  0  0  3  0  0  0  0  0  0
  193.3030  168.9080  144.1860 C   0  0  0  0  0  3  0  0  0  0  0  0
  189.5570  172.6070  142.8940 O   0  0  0  0  0  0  0  0  0  0  0  0
  189.6300  173.9460  143.2800 C   0  0  2  0  0  3  0  0  0  0  0  0
  194.1920  173.2320  143.9970 N   0  0  0  0  0  0  0  0  0  0  0  0
  194.8390  170.9120  144.0690 C   0  0  2  0  0  3  0  0  0  0  0  0
  194.4020  176.0580  145.2410 C   0  0  2  0  0  3  0  0  0  0  0  0
  187.5510  176.9580  142.6260 C   0  0  2  0  0  3  0  0  0  0  0  0
  192.3340  171.6780  144.1060 C   0  0  0  0  0  2  0  0  0  0  0  0
  190.5580  172.4570  141.9320 C   0  0  0  0  0  2  0  0  0  0  0  0
  188.7180  176.0890  143.0420 C   0  0  1  0  0  3  0  0  0  0  0  0
  190.0210  176.7290  147.1740 O   0  0  0  0  0  0  0  0  0  0  0  0
  191.0490  171.0150  141.9140 C   0  0  0  0  0  2  0  0  0  0  0  0
  189.6920  174.0390  144.8160 C   0  0  0  0  0  2  0  0  0  0  0  0
  191.3020  176.2610  147.4770 C   0  0  0  0  0  2  0  0  0  0  0  0
  193.7490  175.6220  143.9280 C   0  0  0  0  0  2  0  0  0  0  0  0
  188.7570  176.3100  144.5000 C   0  0  0  0  0  0  0  0  0  0  0  0
  193.7990  171.9980  144.0500 C   0  0  0  0  0  0  0  0  0  0  0  0
  193.2960  174.2770  143.9870 O   0  0  0  0  0  0  0  0  0  0  0  0
  187.8890  175.6660  147.4360 C   0  0  0  0  0  1  0  0  0  0  0  0
  192.3600  169.3960  143.1610 C   0  0  0  0  0  3  0  0  0  0  0  0
  195.4560  170.7310  142.6930 C   0  0  0  0  0  1  0  0  0  0  0  0
  1 31  2  0  0  0  0
  1 19  1  0  0  0  0
  4 10  1  0  0  0  0
  4 25  1  0  0  0  0
  5 14  1  0  0  0  0
  6  2  1  0  0  0  0
  8 22  1  0  0  0  0
  8 30  1  6  0  0  0
  9  8  1  0  0  0  0
 12 11  2  0  0  0  0
 13 14  1  0  0  0  0
 14 24  1  1  0  0  0
 15 28  2  0  0  0  0
 16 32  1  6  0  0  0
 16 11  1  0  0  0  0
 17  7  1  1  0  0  0
 17 10  1  0  0  0  0
 18  3  1  6  0  0  0
 18 21  1  0  0  0  0
 18  6  1  0  0  0  0
 20 13  1  0  0  0  0
 21  5  1  1  0  0  0
 21 27  1  0  0  0  0
 22 25  1  0  0  0  0
 23 20  1  0  0  0  0
 23  1  1  0  0  0  0
 24  9  1  0  0  0  0
 26 29  1  0  0  0  0
 26 17  1  0  0  0  0
 27  2  1  0  0  0  0
 27  9  2  0  0  0  0
 28 16  1  0  0  0  0
 28 19  1  0  0  0  0
 29 15  1  0  0  0  0
 31 12  1  0  0  0  0
M  END
>  <MODEL>
7

>  <REMARK>
 VINA RESULT:      -7.7      2.226      5.061
  Name = 
  0 active torsions:
  status: ('A' for Active; 'I' for Inactive)
                            x       y       z     vdW  Elec       q    Type
                         _______ _______ _______ _____ _____    ______ ____

>  <TORSDO>
F 0

$$$$
=
 OpenBabel11042414513D

 32 35  0  0  1  0  0  0  0  0999 V2000
  190.8790  171.5770  140.5300 C   0  0  0  0  0  0  0  0  0  0  0  0
  188.2780  177.2320  145.7510 C   0  0  0  0  0  2  0  0  0  0  0  0
  186.8670  178.4550  142.6640 C   0  0  0  0  0  1  0  0  0  0  0  0
  192.7330  176.1510  145.3150 C   0  0  0  0  0  2  0  0  0  0  0  0
  187.7990  175.2750  142.7970 N   0  0  0  0  0  2  0  0  0  0  0  0
  187.3250  178.0770  145.0320 N   0  0  0  0  0  2  0  0  0  0  0  0
  195.4500  175.4430  142.8800 O   0  0  0  0  0  1  0  0  0  0  0  0
  190.0310  174.8130  146.3980 C   0  0  1  0  0  3  0  0  0  0  0  0
  189.4640  175.1160  145.0350 C   0  0  0  0  0  0  0  0  0  0  0  0
  193.8510  175.3720  144.6490 C   0  0  0  0  0  2  0  0  0  0  0  0
  193.6070  170.1760  140.7080 C   0  0  0  0  0  3  0  0  0  0  0  0
  192.4110  169.6210  140.4680 C   0  0  0  0  0  3  0  0  0  0  0  0
  188.7160  173.3360  141.8570 O   0  0  0  0  0  0  0  0  0  0  0  0
  189.0100  174.4720  142.6120 C   0  0  2  0  0  3  0  0  0  0  0  0
  193.4780  173.8030  141.4170 N   0  0  0  0  0  0  0  0  0  0  0  0
  193.9480  171.6290  140.4920 C   0  0  2  0  0  3  0  0  0  0  0  0
  194.2990  176.0620  143.3680 C   0  0  2  0  0  3  0  0  0  0  0  0
  187.0470  177.4160  143.7530 C   0  0  2  0  0  3  0  0  0  0  0  0
  191.6680  172.2050  141.6480 C   0  0  0  0  0  2  0  0  0  0  0  0
  189.3100  173.5670  140.6150 C   0  0  0  0  0  2  0  0  0  0  0  0
  188.2230  176.5220  143.4260 C   0  0  1  0  0  3  0  0  0  0  0  0
  190.9130  175.8190  146.8090 O   0  0  0  0  0  0  0  0  0  0  0  0
  189.6640  172.2420  139.9530 C   0  0  0  0  0  2  0  0  0  0  0  0
  189.6050  174.0520  143.9680 C   0  0  0  0  0  2  0  0  0  0  0  0
  192.1840  175.3450  146.4760 C   0  0  0  0  0  2  0  0  0  0  0  0
  193.2050  176.0540  142.2990 C   0  0  0  0  0  2  0  0  0  0  0  0
  188.7780  176.2470  144.7650 C   0  0  0  0  0  0  0  0  0  0  0  0
  193.0430  172.6030  141.1940 C   0  0  0  0  0  0  0  0  0  0  0  0
  192.7080  174.7430  142.0650 O   0  0  0  0  0  0  0  0  0  0  0  0
  188.9350  174.6170  147.4320 C   0  0  0  0  0  1  0  0  0  0  0  0
  191.2090  170.3720  140.0570 C   0  0  0  0  0  3  0  0  0  0  0  0
  194.0370  171.9490  139.0090 C   0  0  0  0  0  1  0  0  0  0  0  0
  1 19  1  0  0  0  0
  4 25  1  0  0  0  0
  6  2  1  0  0  0  0
  8 22  1  0  0  0  0
  8 30  1  1  0  0  0
  9  8  1  0  0  0  0
 10  4  1  0  0  0  0
 12 11  2  0  0  0  0
 13 14  1  0  0  0  0
 14  5  1  0  0  0  0
 14 24  1  1  0  0  0
 15 29  1  0  0  0  0
 16 32  1  6  0  0  0
 16 11  1  0  0  0  0
 16 28  1  0  0  0  0
 17  7  1  6  0  0  0
 17 10  1  0  0  0  0
 18  3  1  6  0  0  0
 18  6  1  0  0  0  0
 20 13  1  0  0  0  0
 21  5  1  1  0  0  0
 21 18  1  0  0  0  0
 21 27  1  0  0  0  0
 23  1  1  0  0  0  0
 23 20  1  0  0  0  0
 24  9  1  0  0  0  0
 25 22  1  0  0  0  0
 26 17  1  0  0  0  0
 27  9  2  0  0  0  0
 27  2  1  0  0  0  0
 28 15  2  0  0  0  0
 28 19  1  0  0  0  0
 29 26  1  0  0  0  0
 31 12  1  0  0  0  0
 31  1  2  0  0  0  0
M  END
>  <MODEL>
8

>  <REMARK>
 VINA RESULT:      -7.6      2.789      5.386
  Name = 
  0 active torsions:
  status: ('A' for Active; 'I' for Inactive)
                            x       y       z     vdW  Elec       q    Type
                         _______ _______ _______ _____ _____    ______ ____

>  <TORSDO>
F 0

$$$$
=
 OpenBabel11042414513D

 32 35  0  0  1  0  0  0  0  0999 V2000
  194.9440  175.9600  142.5780 C   0  0  0  0  0  0  0  0  0  0  0  0
  187.0670  176.5620  144.4730 C   0  0  0  0  0  2  0  0  0  0  0  0
  188.4510  175.5220  147.6390 C   0  0  0  0  0  1  0  0  0  0  0  0
  188.5650  173.9560  140.9840 C   0  0  0  0  0  2  0  0  0  0  0  0
  190.5130  176.8250  145.3910 N   0  0  0  0  0  2  0  0  0  0  0  0
  186.9600  176.4160  145.9250 N   0  0  0  0  0  2  0  0  0  0  0  0
  191.1440  171.4930  139.9380 O   0  0  0  0  0  1  0  0  0  0  0  0
  188.3330  177.0620  141.7370 C   0  0  1  0  0  3  0  0  0  0  0  0
  189.1040  176.7040  142.9820 C   0  0  0  0  0  0  0  0  0  0  0  0
  189.6890  173.3720  140.1510 C   0  0  0  0  0  2  0  0  0  0  0  0
  196.0060  174.9890  139.8650 C   0  0  0  0  0  3  0  0  0  0  0  0
  196.4210  176.0420  140.5810 C   0  0  0  0  0  3  0  0  0  0  0  0
  192.5760  176.9560  144.2910 O   0  0  0  0  0  0  0  0  0  0  0  0
  191.3000  176.3910  144.2350 C   0  0  2  0  0  3  0  0  0  0  0  0
  193.1040  173.2170  141.3190 N   0  0  0  0  0  0  0  0  0  0  0  0
  195.2620  173.8010  140.4200 C   0  0  2  0  0  3  0  0  0  0  0  0
  190.2540  172.1200  140.8090 C   0  0  2  0  0  3  0  0  0  0  0  0
  188.3240  176.4680  146.4620 C   0  0  2  0  0  3  0  0  0  0  0  0
  193.7770  175.5080  141.7420 C   0  0  0  0  0  2  0  0  0  0  0  0
  193.4240  175.8920  144.6070 C   0  0  0  0  0  2  0  0  0  0  0  0
  189.2740  176.0540  145.3600 C   0  0  1  0  0  3  0  0  0  0  0  0
  187.4630  176.0270  141.3720 O   0  0  0  0  0  0  0  0  0  0  0  0
  194.8190  176.1610  144.0610 C   0  0  0  0  0  2  0  0  0  0  0  0
  190.6130  176.7960  142.9190 C   0  0  0  0  0  2  0  0  0  0  0  0
  188.1550  175.2950  140.4050 C   0  0  0  0  0  2  0  0  0  0  0  0
  190.9500  172.4340  142.1350 C   0  0  0  0  0  2  0  0  0  0  0  0
  188.5020  176.3920  144.1490 C   0  0  0  0  0  0  0  0  0  0  0  0
  194.0050  174.1360  141.1740 C   0  0  0  0  0  0  0  0  0  0  0  0
  191.9240  173.4580  141.9880 O   0  0  0  0  0  0  0  0  0  0  0  0
  187.5660  178.3620  141.9050 C   0  0  0  0  0  1  0  0  0  0  0  0
  196.1170  176.2520  142.0100 C   0  0  0  0  0  3  0  0  0  0  0  0
  196.1810  172.9320  141.2630 C   0  0  0  0  0  1  0  0  0  0  0  0
  1 23  1  0  0  0  0
  2  6  1  0  0  0  0
  6 18  1  0  0  0  0
  8 30  1  1  0  0  0
  8  9  1  0  0  0  0
  9 27  2  0  0  0  0
 10 17  1  0  0  0  0
 10  4  1  0  0  0  0
 11 16  1  0  0  0  0
 11 12  2  0  0  0  0
 12 31  1  0  0  0  0
 13 20  1  0  0  0  0
 14 24  1  6  0  0  0
 14 13  1  0  0  0  0
 14  5  1  0  0  0  0
 15 29  1  0  0  0  0
 16 28  1  0  0  0  0
 16 32  1  1  0  0  0
 17  7  1  6  0  0  0
 17 26  1  0  0  0  0
 18  3  1  1  0  0  0
 19  1  1  0  0  0  0
 21 27  1  6  0  0  0
 21  5  1  0  0  0  0
 21 18  1  0  0  0  0
 22  8  1  0  0  0  0
 23 20  1  0  0  0  0
 24  9  1  0  0  0  0
 25  4  1  0  0  0  0
 25 22  1  0  0  0  0
 27  2  1  0  0  0  0
 28 15  2  0  0  0  0
 28 19  1  0  0  0  0
 29 26  1  0  0  0  0
 31  1  2  0  0  0  0
M  END
>  <MODEL>
9

>  <REMARK>
 VINA RESULT:      -7.2      2.169      2.603
  Name = 
  0 active torsions:
  status: ('A' for Active; 'I' for Inactive)
                            x       y       z     vdW  Elec       q    Type
                         _______ _______ _______ _____ _____    ______ ____

>  <TORSDO>
F 0

$$$$
