=
 OpenBabel11042415023D

 33 36  0  0  1  0  0  0  0  0999 V2000
  189.5160  176.4820  144.5500 C   0  0  1  0  0  3  0  0  0  0  0  0
  189.8620  174.2060  143.4960 C   0  0  0  0  0  0  0  0  0  0  0  0
  189.6090  171.8780  144.7130 C   0  0  0  0  0  1  0  0  0  0  0  0
  190.2970  172.3330  142.3360 C   0  0  0  0  0  0  0  0  0  0  0  0
  189.4830  175.0260  144.6040 N   0  0  0  0  0  2  0  0  0  0  0  0
  190.4850  173.5390  141.5460 C   0  0  0  0  0  0  0  0  0  0  0  0
  190.5840  173.5690  140.2570 N   0  0  0  0  0  2  0  0  0  0  0  0
  189.9280  172.7440  143.5400 C   0  0  0  0  0  0  0  0  0  0  0  0
  190.1630  174.6840  142.3280 N   0  0  0  0  0  0  0  0  0  0  0  0
  190.6020  169.8780  141.5450 N   0  0  0  0  0  0  0  0  0  0  0  0
  190.4660  170.9700  141.9000 C   0  0  0  0  0  0  0  0  0  0  0  0
  188.1650  177.0390  144.8580 C   0  0  0  0  0  0  0  0  0  0  0  0
  185.7460  178.9010  145.3640 C   0  0  0  0  0  3  0  0  0  0  0  0
  185.8290  179.4460  147.8440 C   0  0  0  0  0  1  0  0  0  0  0  0
  186.2400  178.5660  146.7170 C   0  0  0  0  0  0  0  0  0  0  0  0
  186.9870  177.4970  146.9950 C   0  0  0  0  0  3  0  0  0  0  0  0
  187.3610  176.4620  145.9840 C   0  0  0  0  0  2  0  0  0  0  0  0
  187.6620  177.9600  144.0350 C   0  0  0  0  0  3  0  0  0  0  0  0
  186.3620  178.6410  144.2030 C   0  0  0  0  0  3  0  0  0  0  0  0
  190.4930  176.9990  145.5040 N   0  0  0  0  0  2  0  0  0  0  0  0
  194.3610  175.0980  144.3430 C   0  0  0  0  0  2  0  0  0  0  0  0
  192.3920  175.4140  145.5900 C   0  0  0  0  0  0  0  0  0  0  0  0
  191.1460  175.9030  146.0880 N   0  0  0  0  0  2  0  0  0  0  0  0
  192.9260  174.3350  146.0390 N   0  0  0  0  0  0  0  0  0  0  0  0
  193.6380  177.3030  144.9060 O   0  0  0  0  0  1  0  0  0  0  0  0
  193.1770  176.0540  144.4890 C   0  0  1  0  0  3  0  0  0  0  0  0
  194.1080  174.0800  145.3490 N   0  0  0  0  0  0  0  0  0  0  0  0
  194.3010  171.6470  145.6590 C   0  0  0  0  0  3  0  0  0  0  0  0
  196.4730  170.6100  145.9410 C   0  0  0  0  0  3  0  0  0  0  0  0
  194.9070  172.9080  145.5560 C   0  0  0  0  0  0  0  0  0  0  0  0
  195.0810  170.5020  145.8510 C   0  0  0  0  0  3  0  0  0  0  0  0
  196.3050  173.0070  145.6490 C   0  0  0  0  0  3  0  0  0  0  0  0
  197.0850  171.8620  145.8400 C   0  0  0  0  0  3  0  0  0  0  0  0
  1  5  1  1  0  0  0
  1 12  1  0  0  0  0
  1 20  1  0  0  0  0
  2  8  1  0  0  0  0
  2  5  1  0  0  0  0
  4  8  2  0  0  0  0
  6  9  1  0  0  0  0
  6  4  1  0  0  0  0
  7  6  2  0  0  0  0
  8  3  1  0  0  0  0
  9  2  2  0  0  0  0
 10 11  3  0  0  0  0
 11  4  1  0  0  0  0
 12 17  1  0  0  0  0
 13 15  1  0  0  0  0
 15 16  2  0  0  0  0
 15 14  1  0  0  0  0
 17 16  1  0  0  0  0
 18 19  1  0  0  0  0
 18 12  2  0  0  0  0
 19 13  2  0  0  0  0
 20 23  1  0  0  0  0
 21 26  1  0  0  0  0
 21 27  1  0  0  0  0
 22 24  2  0  0  0  0
 22 23  1  0  0  0  0
 26 25  1  1  0  0  0
 26 22  1  0  0  0  0
 27 30  1  0  0  0  0
 27 24  1  0  0  0  0
 28 31  1  0  0  0  0
 30 32  1  0  0  0  0
 30 28  2  0  0  0  0
 31 29  2  0  0  0  0
 32 33  2  0  0  0  0
 33 29  1  0  0  0  0
M  END
>  <MODEL>
1

>  <REMARK>
 VINA RESULT:      -7.7      0.000      0.000
  Name = 
  6 active torsions:
  status: ('A' for Active; 'I' for Inactive)
    1  A    between atoms: C_3  and  C_33
    2  A    between atoms: C_8  and  C_27
    3  A    between atoms: N_11  and  C_33
    4  A    between atoms: C_12  and  N_31
    5  A    between atoms: N_13  and  N_32
    6  A    between atoms: N_32  and  C_33
                            x       y       z     vdW  Elec       q    Type
                         _______ _______ _______ _____ _____    ______ ____

>  <TORSDO>
F 6

$$$$
=
 OpenBabel11042415023D

 33 36  0  0  1  0  0  0  0  0999 V2000
  190.6450  175.7790  144.2680 C   0  0  1  0  0  3  0  0  0  0  0  0
  188.3980  176.8820  144.6480 C   0  0  0  0  0  0  0  0  0  0  0  0
  187.0300  176.8790  146.9050 C   0  0  0  0  0  1  0  0  0  0  0  0
  186.3890  177.8840  144.6900 C   0  0  0  0  0  0  0  0  0  0  0  0
  189.5380  176.1680  145.1320 N   0  0  0  0  0  2  0  0  0  0  0  0
  187.0250  177.9540  143.3840 C   0  0  0  0  0  0  0  0  0  0  0  0
  186.6630  178.7470  142.4280 N   0  0  0  0  0  2  0  0  0  0  0  0
  187.2280  177.2120  145.4630 C   0  0  0  0  0  0  0  0  0  0  0  0
  188.3030  177.3310  143.4350 N   0  0  0  0  0  0  0  0  0  0  0  0
  184.0930  178.8830  145.3790 N   0  0  0  0  0  0  0  0  0  0  0  0
  185.1150  178.4390  145.0700 C   0  0  0  0  0  0  0  0  0  0  0  0
  191.9350  175.8590  145.0160 C   0  0  0  0  0  0  0  0  0  0  0  0
  194.9060  176.1720  145.8240 C   0  0  0  0  0  3  0  0  0  0  0  0
  195.8950  173.8380  145.6460 C   0  0  0  0  0  1  0  0  0  0  0  0
  194.6950  174.7090  145.7610 C   0  0  0  0  0  0  0  0  0  0  0  0
  193.5000  174.1230  145.8520 C   0  0  0  0  0  3  0  0  0  0  0  0
  192.2290  174.8680  146.1010 C   0  0  0  0  0  2  0  0  0  0  0  0
  192.7390  176.8960  144.7760 C   0  0  0  0  0  3  0  0  0  0  0  0
  194.0610  177.1180  145.3960 C   0  0  0  0  0  3  0  0  0  0  0  0
  190.4450  174.4200  143.7740 N   0  0  0  0  0  2  0  0  0  0  0  0
  188.1750  172.8030  140.2870 C   0  0  0  0  0  2  0  0  0  0  0  0
  189.9600  173.8370  141.4170 C   0  0  0  0  0  0  0  0  0  0  0  0
  190.8100  174.3980  142.4190 N   0  0  0  0  0  2  0  0  0  0  0  0
  190.3450  173.6990  140.1990 N   0  0  0  0  0  0  0  0  0  0  0  0
  187.7410  174.3720  142.0340 O   0  0  0  0  0  1  0  0  0  0  0  0
  188.5790  173.3180  141.6680 C   0  0  1  0  0  3  0  0  0  0  0  0
  189.3340  173.0930  139.4590 N   0  0  0  0  0  0  0  0  0  0  0  0
  189.4520  173.7090  137.0800 C   0  0  0  0  0  3  0  0  0  0  0  0
  189.7700  172.0090  135.3820 C   0  0  0  0  0  3  0  0  0  0  0  0
  189.4750  172.7260  138.0800 C   0  0  0  0  0  0  0  0  0  0  0  0
  189.5980  173.3520  135.7360 C   0  0  0  0  0  3  0  0  0  0  0  0
  189.6450  171.3810  137.7160 C   0  0  0  0  0  3  0  0  0  0  0  0
  189.7940  171.0230  136.3720 C   0  0  0  0  0  3  0  0  0  0  0  0
  1 20  1  1  0  0  0
  1 12  1  0  0  0  0
  1  5  1  0  0  0  0
  2  5  1  0  0  0  0
  2  8  1  0  0  0  0
  4 11  1  0  0  0  0
  4  8  2  0  0  0  0
  6  9  1  0  0  0  0
  6  4  1  0  0  0  0
  7  6  2  0  0  0  0
  8  3  1  0  0  0  0
  9  2  2  0  0  0  0
 11 10  3  0  0  0  0
 12 17  1  0  0  0  0
 14 15  1  0  0  0  0
 15 13  1  0  0  0  0
 15 16  2  0  0  0  0
 16 17  1  0  0  0  0
 18 12  2  0  0  0  0
 18 19  1  0  0  0  0
 19 13  2  0  0  0  0
 21 26  1  0  0  0  0
 22 26  1  0  0  0  0
 22 23  1  0  0  0  0
 23 20  1  0  0  0  0
 24 22  2  0  0  0  0
 26 25  1  6  0  0  0
 27 24  1  0  0  0  0
 27 21  1  0  0  0  0
 28 30  1  0  0  0  0
 29 31  1  0  0  0  0
 29 33  2  0  0  0  0
 30 27  1  0  0  0  0
 31 28  2  0  0  0  0
 32 30  2  0  0  0  0
 33 32  1  0  0  0  0
M  END
>  <MODEL>
2

>  <REMARK>
 VINA RESULT:      -7.7      3.156      7.788
  Name = 
  6 active torsions:
  status: ('A' for Active; 'I' for Inactive)
    1  A    between atoms: C_3  and  C_33
    2  A    between atoms: C_8  and  C_27
    3  A    between atoms: N_11  and  C_33
    4  A    between atoms: C_12  and  N_31
    5  A    between atoms: N_13  and  N_32
    6  A    between atoms: N_32  and  C_33
                            x       y       z     vdW  Elec       q    Type
                         _______ _______ _______ _____ _____    ______ ____

>  <TORSDO>
F 6

$$$$
=
 OpenBabel11042415023D

 33 36  0  0  1  0  0  0  0  0999 V2000
  193.0050  174.9050  144.6170 C   0  0  1  0  0  3  0  0  0  0  0  0
  191.7490  173.9190  142.6520 C   0  0  0  0  0  0  0  0  0  0  0  0
  192.5340  173.9530  140.1330 C   0  0  0  0  0  1  0  0  0  0  0  0
  190.4020  173.0270  141.0930 C   0  0  0  0  0  0  0  0  0  0  0  0
  192.9010  174.5600  143.2050 N   0  0  0  0  0  2  0  0  0  0  0  0
  189.8410  172.9460  142.4330 C   0  0  0  0  0  0  0  0  0  0  0  0
  188.8470  172.1920  142.7720 N   0  0  0  0  0  2  0  0  0  0  0  0
  191.5690  173.6370  141.2270 C   0  0  0  0  0  0  0  0  0  0  0  0
  190.7560  173.4980  143.3730 N   0  0  0  0  0  0  0  0  0  0  0  0
  189.3470  172.1340  138.8940 N   0  0  0  0  0  0  0  0  0  0  0  0
  189.8160  172.5340  139.8720 C   0  0  0  0  0  0  0  0  0  0  0  0
  194.1150  174.1360  145.2540 C   0  0  0  0  0  0  0  0  0  0  0  0
  196.8530  172.8900  145.9830 C   0  0  0  0  0  3  0  0  0  0  0  0
  196.9790  170.7290  144.6520 C   0  0  0  0  0  1  0  0  0  0  0  0
  196.1550  171.8270  145.2270 C   0  0  0  0  0  0  0  0  0  0  0  0
  194.8320  171.7650  145.0730 C   0  0  0  0  0  3  0  0  0  0  0  0
  193.8790  172.7260  145.7070 C   0  0  0  0  0  2  0  0  0  0  0  0
  195.2570  174.7750  145.5130 C   0  0  0  0  0  3  0  0  0  0  0  0
  196.4650  174.1660  146.1050 C   0  0  0  0  0  3  0  0  0  0  0  0
  193.2460  176.3370  144.7700 N   0  0  0  0  0  2  0  0  0  0  0  0
  189.3300  176.1660  146.9050 C   0  0  0  0  0  2  0  0  0  0  0  0
  190.8730  176.8420  145.2650 C   0  0  0  0  0  0  0  0  0  0  0  0
  192.0500  177.0080  144.4720 N   0  0  0  0  0  2  0  0  0  0  0  0
  189.7460  177.3520  144.9210 N   0  0  0  0  0  0  0  0  0  0  0  0
  191.5900  176.6450  147.5090 O   0  0  0  0  0  1  0  0  0  0  0  0
  190.8060  176.0410  146.5260 C   0  0  1  0  0  3  0  0  0  0  0  0
  188.7740  176.9980  145.8520 N   0  0  0  0  0  0  0  0  0  0  0  0
  186.4400  176.8200  146.6100 C   0  0  0  0  0  3  0  0  0  0  0  0
  184.6780  178.0300  145.4680 C   0  0  0  0  0  3  0  0  0  0  0  0
  187.3880  177.3420  145.7180 C   0  0  0  0  0  0  0  0  0  0  0  0
  185.0900  177.1620  146.4850 C   0  0  0  0  0  3  0  0  0  0  0  0
  186.9660  178.2110  144.6990 C   0  0  0  0  0  3  0  0  0  0  0  0
  185.6160  178.5550  144.5750 C   0  0  0  0  0  3  0  0  0  0  0  0
  1  5  1  6  0  0  0
  1 20  1  0  0  0  0
  1 12  1  0  0  0  0
  2  5  1  0  0  0  0
  2  9  2  0  0  0  0
  3  8  1  0  0  0  0
  4  8  2  0  0  0  0
  4  6  1  0  0  0  0
  6  7  2  0  0  0  0
  6  9  1  0  0  0  0
  8  2  1  0  0  0  0
 10 11  3  0  0  0  0
 11  4  1  0  0  0  0
 12 18  2  0  0  0  0
 12 17  1  0  0  0  0
 13 19  2  0  0  0  0
 14 15  1  0  0  0  0
 15 13  1  0  0  0  0
 16 15  2  0  0  0  0
 16 17  1  0  0  0  0
 18 19  1  0  0  0  0
 22 26  1  0  0  0  0
 23 20  1  0  0  0  0
 23 22  1  0  0  0  0
 24 22  2  0  0  0  0
 24 27  1  0  0  0  0
 26 21  1  0  0  0  0
 26 25  1  1  0  0  0
 27 21  1  0  0  0  0
 29 31  2  0  0  0  0
 30 27  1  0  0  0  0
 30 28  2  0  0  0  0
 31 28  1  0  0  0  0
 32 30  1  0  0  0  0
 33 32  2  0  0  0  0
 33 29  1  0  0  0  0
M  END
>  <MODEL>
3

>  <REMARK>
 VINA RESULT:      -7.6      1.739      7.691
  Name = 
  6 active torsions:
  status: ('A' for Active; 'I' for Inactive)
    1  A    between atoms: C_3  and  C_33
    2  A    between atoms: C_8  and  C_27
    3  A    between atoms: N_11  and  C_33
    4  A    between atoms: C_12  and  N_31
    5  A    between atoms: N_13  and  N_32
    6  A    between atoms: N_32  and  C_33
                            x       y       z     vdW  Elec       q    Type
                         _______ _______ _______ _____ _____    ______ ____

>  <TORSDO>
F 6

$$$$
=
 OpenBabel11042415023D

 33 36  0  0  1  0  0  0  0  0999 V2000
  189.8640  173.7480  140.4760 C   0  0  1  0  0  3  0  0  0  0  0  0
  190.6080  174.2700  142.8390 C   0  0  0  0  0  0  0  0  0  0  0  0
  189.9510  172.9170  145.0070 C   0  0  0  0  0  1  0  0  0  0  0  0
  191.3570  174.9950  144.8280 C   0  0  0  0  0  0  0  0  0  0  0  0
  189.9280  173.4360  141.8980 N   0  0  0  0  0  2  0  0  0  0  0  0
  191.7880  175.8380  143.7240 C   0  0  0  0  0  0  0  0  0  0  0  0
  192.7340  176.7180  143.7930 N   0  0  0  0  0  2  0  0  0  0  0  0
  190.6200  174.0380  144.2840 C   0  0  0  0  0  0  0  0  0  0  0  0
  191.3070  175.3060  142.4940 N   0  0  0  0  0  0  0  0  0  0  0  0
  191.9340  175.2880  147.3430 N   0  0  0  0  0  0  0  0  0  0  0  0
  191.6750  175.1570  146.2240 C   0  0  0  0  0  0  0  0  0  0  0  0
  189.7390  172.4920  139.6780 C   0  0  0  0  0  0  0  0  0  0  0  0
  190.2940  169.9210  138.0480 C   0  0  0  0  0  3  0  0  0  0  0  0
  190.4410  170.6830  135.6290 C   0  0  0  0  0  1  0  0  0  0  0  0
  190.0010  170.9480  137.0250 C   0  0  0  0  0  0  0  0  0  0  0  0
  189.3240  172.0710  137.2670 C   0  0  0  0  0  3  0  0  0  0  0  0
  188.7120  172.4000  138.5900 C   0  0  0  0  0  2  0  0  0  0  0  0
  190.4710  171.4390  140.0440 C   0  0  0  0  0  3  0  0  0  0  0  0
  190.5000  170.1330  139.3540 C   0  0  0  0  0  3  0  0  0  0  0  0
  188.7250  174.6210  140.2030 N   0  0  0  0  0  2  0  0  0  0  0  0
  186.8250  178.0890  142.2740 C   0  0  0  0  0  2  0  0  0  0  0  0
  187.3710  175.8350  141.8830 C   0  0  0  0  0  0  0  0  0  0  0  0
  187.9040  174.6250  141.3410 N   0  0  0  0  0  2  0  0  0  0  0  0
  186.7280  175.8550  142.9950 N   0  0  0  0  0  0  0  0  0  0  0  0
  186.8520  177.2300  140.0460 O   0  0  0  0  0  1  0  0  0  0  0  0
  187.5330  177.1870  141.2630 C   0  0  1  0  0  3  0  0  0  0  0  0
  186.3640  177.1640  143.2960 N   0  0  0  0  0  0  0  0  0  0  0  0
  186.0440  176.9260  145.7240 C   0  0  0  0  0  3  0  0  0  0  0  0
  184.4170  178.2910  146.8920 C   0  0  0  0  0  3  0  0  0  0  0  0
  185.7010  177.5400  144.5110 C   0  0  0  0  0  0  0  0  0  0  0  0
  185.4040  177.2990  146.9100 C   0  0  0  0  0  3  0  0  0  0  0  0
  184.7080  178.5330  144.5010 C   0  0  0  0  0  3  0  0  0  0  0  0
  184.0690  178.9080  145.6870 C   0  0  0  0  0  3  0  0  0  0  0  0
  1 20  1  1  0  0  0
  1  5  1  0  0  0  0
  2  8  1  0  0  0  0
  4 11  1  0  0  0  0
  5  2  1  0  0  0  0
  6  7  2  0  0  0  0
  6  4  1  0  0  0  0
  8  4  2  0  0  0  0
  8  3  1  0  0  0  0
  9  2  2  0  0  0  0
  9  6  1  0  0  0  0
 11 10  3  0  0  0  0
 12 18  2  0  0  0  0
 12  1  1  0  0  0  0
 13 19  2  0  0  0  0
 14 15  1  0  0  0  0
 15 16  2  0  0  0  0
 15 13  1  0  0  0  0
 16 17  1  0  0  0  0
 17 12  1  0  0  0  0
 19 18  1  0  0  0  0
 20 23  1  0  0  0  0
 21 27  1  0  0  0  0
 22 24  2  0  0  0  0
 23 22  1  0  0  0  0
 24 27  1  0  0  0  0
 26 25  1  6  0  0  0
 26 22  1  0  0  0  0
 26 21  1  0  0  0  0
 27 30  1  0  0  0  0
 28 31  1  0  0  0  0
 29 31  2  0  0  0  0
 30 28  2  0  0  0  0
 32 30  1  0  0  0  0
 32 33  2  0  0  0  0
 33 29  1  0  0  0  0
M  END
>  <MODEL>
4

>  <REMARK>
 VINA RESULT:      -7.6      3.272      8.789
  Name = 
  6 active torsions:
  status: ('A' for Active; 'I' for Inactive)
    1  A    between atoms: C_3  and  C_33
    2  A    between atoms: C_8  and  C_27
    3  A    between atoms: N_11  and  C_33
    4  A    between atoms: C_12  and  N_31
    5  A    between atoms: N_13  and  N_32
    6  A    between atoms: N_32  and  C_33
                            x       y       z     vdW  Elec       q    Type
                         _______ _______ _______ _____ _____    ______ ____

>  <TORSDO>
F 6

$$$$
=
 OpenBabel11042415023D

 33 36  0  0  1  0  0  0  0  0999 V2000
  192.6620  175.5920  143.1790 C   0  0  1  0  0  3  0  0  0  0  0  0
  191.7900  173.8350  141.5800 C   0  0  0  0  0  0  0  0  0  0  0  0
  192.1630  173.7920  138.9680 C   0  0  0  0  0  1  0  0  0  0  0  0
  190.8410  172.1880  140.3840 C   0  0  0  0  0  0  0  0  0  0  0  0
  192.5650  175.0050  141.8490 N   0  0  0  0  0  2  0  0  0  0  0  0
  190.5460  172.0920  141.8050 C   0  0  0  0  0  0  0  0  0  0  0  0
  190.0660  171.0430  142.3900 N   0  0  0  0  0  2  0  0  0  0  0  0
  191.5950  173.2680  140.2450 C   0  0  0  0  0  0  0  0  0  0  0  0
  191.2010  173.1440  142.5060 N   0  0  0  0  0  0  0  0  0  0  0  0
  190.0670  170.5670  138.5080 N   0  0  0  0  0  0  0  0  0  0  0  0
  190.4140  171.2880  139.3430 C   0  0  0  0  0  0  0  0  0  0  0  0
  194.0840  175.6000  143.6360 C   0  0  0  0  0  0  0  0  0  0  0  0
  197.0600  174.9260  144.1520 C   0  0  0  0  0  3  0  0  0  0  0  0
  197.0660  173.4940  146.2510 C   0  0  0  0  0  1  0  0  0  0  0  0
  196.3630  174.4680  145.3740 C   0  0  0  0  0  0  0  0  0  0  0  0
  195.1670  174.9140  145.7620 C   0  0  0  0  0  3  0  0  0  0  0  0
  194.4110  175.9860  145.0470 C   0  0  0  0  0  2  0  0  0  0  0  0
  195.0380  175.3800  142.7290 C   0  0  0  0  0  3  0  0  0  0  0  0
  196.4870  175.3180  143.0070 C   0  0  0  0  0  3  0  0  0  0  0  0
  192.1400  176.9560  143.1680 N   0  0  0  0  0  2  0  0  0  0  0  0
  187.7590  177.6030  142.6080 C   0  0  0  0  0  2  0  0  0  0  0  0
  189.7620  177.2500  143.7900 C   0  0  0  0  0  0  0  0  0  0  0  0
  191.1310  177.0370  144.1400 N   0  0  0  0  0  2  0  0  0  0  0  0
  188.8580  177.4530  144.6790 N   0  0  0  0  0  0  0  0  0  0  0  0
  189.3800  176.0540  141.7860 O   0  0  0  0  0  1  0  0  0  0  0  0
  189.2430  177.3050  142.3880 C   0  0  1  0  0  3  0  0  0  0  0  0
  187.6330  177.6680  144.0550 N   0  0  0  0  0  0  0  0  0  0  0  0
  185.6510  179.0940  144.3560 C   0  0  0  0  0  3  0  0  0  0  0  0
  184.0700  178.6470  146.1390 C   0  0  0  0  0  3  0  0  0  0  0  0
  186.4320  178.0030  144.7630 C   0  0  0  0  0  0  0  0  0  0  0  0
  184.4750  179.4150  145.0410 C   0  0  0  0  0  3  0  0  0  0  0  0
  186.0200  177.2380  145.8670 C   0  0  0  0  0  3  0  0  0  0  0  0
  184.8430  177.5580  146.5510 C   0  0  0  0  0  3  0  0  0  0  0  0
  1  5  1  6  0  0  0
  1 12  1  0  0  0  0
  2  5  1  0  0  0  0
  2  9  2  0  0  0  0
  3  8  1  0  0  0  0
  4  6  1  0  0  0  0
  6  7  2  0  0  0  0
  6  9  1  0  0  0  0
  8  4  2  0  0  0  0
  8  2  1  0  0  0  0
 10 11  3  0  0  0  0
 11  4  1  0  0  0  0
 12 17  1  0  0  0  0
 13 15  1  0  0  0  0
 15 16  2  0  0  0  0
 15 14  1  0  0  0  0
 17 16  1  0  0  0  0
 18 19  1  0  0  0  0
 18 12  2  0  0  0  0
 19 13  2  0  0  0  0
 20  1  1  0  0  0  0
 20 23  1  0  0  0  0
 21 27  1  0  0  0  0
 22 23  1  0  0  0  0
 22 24  2  0  0  0  0
 26 25  1  1  0  0  0
 26 21  1  0  0  0  0
 26 22  1  0  0  0  0
 27 24  1  0  0  0  0
 27 30  1  0  0  0  0
 28 30  2  0  0  0  0
 28 31  1  0  0  0  0
 29 33  1  0  0  0  0
 30 32  1  0  0  0  0
 31 29  2  0  0  0  0
 32 33  2  0  0  0  0
M  END
>  <MODEL>
5

>  <REMARK>
 VINA RESULT:      -7.5      2.330      7.916
  Name = 
  6 active torsions:
  status: ('A' for Active; 'I' for Inactive)
    1  A    between atoms: C_3  and  C_33
    2  A    between atoms: C_8  and  C_27
    3  A    between atoms: N_11  and  C_33
    4  A    between atoms: C_12  and  N_31
    5  A    between atoms: N_13  and  N_32
    6  A    between atoms: N_32  and  C_33
                            x       y       z     vdW  Elec       q    Type
                         _______ _______ _______ _____ _____    ______ ____

>  <TORSDO>
F 6

$$$$
=
 OpenBabel11042415023D

 33 36  0  0  1  0  0  0  0  0999 V2000
  188.6610  176.7420  143.3300 C   0  0  1  0  0  3  0  0  0  0  0  0
  188.8880  174.7280  141.8140 C   0  0  0  0  0  0  0  0  0  0  0  0
  189.7640  172.3420  142.5240 C   0  0  0  0  0  1  0  0  0  0  0  0
  189.0540  173.1310  140.2430 C   0  0  0  0  0  0  0  0  0  0  0  0
  188.9590  175.3330  143.1070 N   0  0  0  0  0  2  0  0  0  0  0  0
  188.5670  174.3940  139.7110 C   0  0  0  0  0  0  0  0  0  0  0  0
  187.9960  174.5390  138.5600 N   0  0  0  0  0  2  0  0  0  0  0  0
  189.2640  173.3410  141.5340 C   0  0  0  0  0  0  0  0  0  0  0  0
  188.4560  175.3490  140.7610 N   0  0  0  0  0  0  0  0  0  0  0  0
  189.4130  170.9140  138.9390 N   0  0  0  0  0  0  0  0  0  0  0  0
  189.2550  171.9010  139.5210 C   0  0  0  0  0  0  0  0  0  0  0  0
  187.4890  176.8820  144.2450 C   0  0  0  0  0  0  0  0  0  0  0  0
  185.0020  177.8980  145.7800 C   0  0  0  0  0  3  0  0  0  0  0  0
  185.9220  179.0990  147.8210 C   0  0  0  0  0  1  0  0  0  0  0  0
  186.1280  178.1320  146.7100 C   0  0  0  0  0  0  0  0  0  0  0  0
  187.2960  177.4910  146.6440 C   0  0  0  0  0  3  0  0  0  0  0  0
  187.5890  176.4030  145.6620 C   0  0  0  0  0  2  0  0  0  0  0  0
  186.3380  177.3200  143.7310 C   0  0  0  0  0  3  0  0  0  0  0  0
  185.0930  177.5490  144.4910 C   0  0  0  0  0  3  0  0  0  0  0  0
  189.8200  177.4160  143.9080 N   0  0  0  0  0  2  0  0  0  0  0  0
  193.3310  175.9970  146.2720 C   0  0  0  0  0  2  0  0  0  0  0  0
  192.0140  176.3600  144.3580 C   0  0  0  0  0  0  0  0  0  0  0  0
  190.9720  176.7500  143.4610 N   0  0  0  0  0  2  0  0  0  0  0  0
  193.1230  175.8680  143.9360 N   0  0  0  0  0  0  0  0  0  0  0  0
  190.9650  175.6880  146.3670 O   0  0  0  0  0  1  0  0  0  0  0  0
  191.9580  176.5170  145.8440 C   0  0  1  0  0  3  0  0  0  0  0  0
  193.9620  175.6190  145.0180 N   0  0  0  0  0  0  0  0  0  0  0  0
  195.8070  174.1770  145.7710 C   0  0  0  0  0  3  0  0  0  0  0  0
  197.9340  174.1900  144.6080 C   0  0  0  0  0  3  0  0  0  0  0  0
  195.3070  175.1410  144.8830 C   0  0  0  0  0  0  0  0  0  0  0  0
  197.1160  173.7040  145.6340 C   0  0  0  0  0  3  0  0  0  0  0  0
  196.1340  175.6250  143.8580 C   0  0  0  0  0  3  0  0  0  0  0  0
  197.4430  175.1500  143.7190 C   0  0  0  0  0  3  0  0  0  0  0  0
  1  5  1  1  0  0  0
  1 20  1  0  0  0  0
  1 12  1  0  0  0  0
  2  5  1  0  0  0  0
  4  8  2  0  0  0  0
  6  4  1  0  0  0  0
  6  9  1  0  0  0  0
  7  6  2  0  0  0  0
  8  2  1  0  0  0  0
  8  3  1  0  0  0  0
  9  2  2  0  0  0  0
 10 11  3  0  0  0  0
 11  4  1  0  0  0  0
 12 17  1  0  0  0  0
 13 15  1  0  0  0  0
 15 14  1  0  0  0  0
 16 15  2  0  0  0  0
 17 16  1  0  0  0  0
 18 12  2  0  0  0  0
 18 19  1  0  0  0  0
 19 13  2  0  0  0  0
 22 26  1  0  0  0  0
 23 20  1  0  0  0  0
 23 22  1  0  0  0  0
 24 22  2  0  0  0  0
 24 27  1  0  0  0  0
 26 21  1  0  0  0  0
 26 25  1  1  0  0  0
 27 21  1  0  0  0  0
 29 31  2  0  0  0  0
 30 27  1  0  0  0  0
 30 28  2  0  0  0  0
 31 28  1  0  0  0  0
 32 30  1  0  0  0  0
 33 32  2  0  0  0  0
 33 29  1  0  0  0  0
M  END
>  <MODEL>
6

>  <REMARK>
 VINA RESULT:      -7.5      1.901      2.399
  Name = 
  6 active torsions:
  status: ('A' for Active; 'I' for Inactive)
    1  A    between atoms: C_3  and  C_33
    2  A    between atoms: C_8  and  C_27
    3  A    between atoms: N_11  and  C_33
    4  A    between atoms: C_12  and  N_31
    5  A    between atoms: N_13  and  N_32
    6  A    between atoms: N_32  and  C_33
                            x       y       z     vdW  Elec       q    Type
                         _______ _______ _______ _____ _____    ______ ____

>  <TORSDO>
F 6

$$$$
=
 OpenBabel11042415023D

 33 36  0  0  1  0  0  0  0  0999 V2000
  189.6620  176.0870  144.1800 C   0  0  1  0  0  3  0  0  0  0  0  0
  192.1790  176.2250  143.9530 C   0  0  0  0  0  0  0  0  0  0  0  0
  193.5520  175.9720  141.7140 C   0  0  0  0  0  1  0  0  0  0  0  0
  194.4210  176.3240  144.0480 C   0  0  0  0  0  0  0  0  0  0  0  0
  190.8770  176.1070  143.3760 N   0  0  0  0  0  2  0  0  0  0  0  0
  193.7970  176.4700  145.3530 C   0  0  0  0  0  0  0  0  0  0  0  0
  194.3940  176.9120  146.4120 N   0  0  0  0  0  2  0  0  0  0  0  0
  193.4260  176.1600  143.1890 C   0  0  0  0  0  0  0  0  0  0  0  0
  192.3810  176.4300  145.2180 N   0  0  0  0  0  0  0  0  0  0  0  0
  196.9590  176.3940  143.5010 N   0  0  0  0  0  0  0  0  0  0  0  0
  195.8290  176.3620  143.7460 C   0  0  0  0  0  0  0  0  0  0  0  0
  188.7150  177.1420  143.7090 C   0  0  0  0  0  0  0  0  0  0  0  0
  186.1990  178.7790  142.9590 C   0  0  0  0  0  3  0  0  0  0  0  0
  185.6820  178.1450  140.5530 C   0  0  0  0  0  1  0  0  0  0  0  0
  186.6560  178.2010  141.6760 C   0  0  0  0  0  0  0  0  0  0  0  0
  187.9000  177.7750  141.4510 C   0  0  0  0  0  3  0  0  0  0  0  0
  189.0090  177.8930  142.4450 C   0  0  0  0  0  2  0  0  0  0  0  0
  187.6930  177.4690  144.5000 C   0  0  0  0  0  3  0  0  0  0  0  0
  186.6450  178.4610  144.1800 C   0  0  0  0  0  3  0  0  0  0  0  0
  189.0230  174.7770  144.0960 N   0  0  0  0  0  2  0  0  0  0  0  0
  190.2910  171.4640  141.3860 C   0  0  0  0  0  2  0  0  0  0  0  0
  189.1730  173.4330  142.0220 C   0  0  0  0  0  0  0  0  0  0  0  0
  188.6750  174.5540  142.7540 N   0  0  0  0  0  2  0  0  0  0  0  0
  188.9620  173.2970  140.7620 N   0  0  0  0  0  0  0  0  0  0  0  0
  189.2630  171.6190  143.5360 O   0  0  0  0  0  1  0  0  0  0  0  0
  190.0120  172.3410  142.6070 C   0  0  1  0  0  3  0  0  0  0  0  0
  189.5920  172.1430  140.3080 N   0  0  0  0  0  0  0  0  0  0  0  0
  189.3880  172.6870  137.9170 C   0  0  0  0  0  3  0  0  0  0  0  0
  189.6810  170.9690  136.2330 C   0  0  0  0  0  3  0  0  0  0  0  0
  189.6160  171.7450  138.9300 C   0  0  0  0  0  0  0  0  0  0  0  0
  189.4200  172.3010  136.5730 C   0  0  0  0  0  3  0  0  0  0  0  0
  189.8760  170.4100  138.5800 C   0  0  0  0  0  3  0  0  0  0  0  0
  189.9100  170.0230  137.2360 C   0  0  0  0  0  3  0  0  0  0  0  0
  1  5  1  6  0  0  0
  2  9  2  0  0  0  0
  3  8  1  0  0  0  0
  4  6  1  0  0  0  0
  5  2  1  0  0  0  0
  6  7  2  0  0  0  0
  8  2  1  0  0  0  0
  8  4  2  0  0  0  0
  9  6  1  0  0  0  0
 10 11  3  0  0  0  0
 11  4  1  0  0  0  0
 12  1  1  0  0  0  0
 12 18  2  0  0  0  0
 13 19  2  0  0  0  0
 14 15  1  0  0  0  0
 15 13  1  0  0  0  0
 16 15  2  0  0  0  0
 16 17  1  0  0  0  0
 17 12  1  0  0  0  0
 19 18  1  0  0  0  0
 20  1  1  0  0  0  0
 21 26  1  0  0  0  0
 22 26  1  0  0  0  0
 22 23  1  0  0  0  0
 23 20  1  0  0  0  0
 24 22  2  0  0  0  0
 26 25  1  1  0  0  0
 27 24  1  0  0  0  0
 27 21  1  0  0  0  0
 28 30  1  0  0  0  0
 29 31  1  0  0  0  0
 29 33  2  0  0  0  0
 30 27  1  0  0  0  0
 31 28  2  0  0  0  0
 32 30  2  0  0  0  0
 33 32  1  0  0  0  0
M  END
>  <MODEL>
7

>  <REMARK>
 VINA RESULT:      -7.5      2.992      6.585
  Name = 
  6 active torsions:
  status: ('A' for Active; 'I' for Inactive)
    1  A    between atoms: C_3  and  C_33
    2  A    between atoms: C_8  and  C_27
    3  A    between atoms: N_11  and  C_33
    4  A    between atoms: C_12  and  N_31
    5  A    between atoms: N_13  and  N_32
    6  A    between atoms: N_32  and  C_33
                            x       y       z     vdW  Elec       q    Type
                         _______ _______ _______ _____ _____    ______ ____

>  <TORSDO>
F 6

$$$$
=
 OpenBabel11042415023D

 33 36  0  0  1  0  0  0  0  0999 V2000
  190.4570  175.9320  144.1300 C   0  0  1  0  0  3  0  0  0  0  0  0
  192.7460  175.1550  144.8830 C   0  0  0  0  0  0  0  0  0  0  0  0
  194.7700  176.7090  145.5530 C   0  0  0  0  0  1  0  0  0  0  0  0
  194.6970  174.1970  145.4490 C   0  0  0  0  0  0  0  0  0  0  0  0
  191.7980  176.1950  144.6360 N   0  0  0  0  0  2  0  0  0  0  0  0
  193.6750  173.2240  145.0960 C   0  0  0  0  0  0  0  0  0  0  0  0
  193.7380  171.9590  145.3590 N   0  0  0  0  0  2  0  0  0  0  0  0
  194.1290  175.3850  145.3050 C   0  0  0  0  0  0  0  0  0  0  0  0
  192.4600  173.8940  144.7790 N   0  0  0  0  0  0  0  0  0  0  0  0
  197.1260  173.7090  146.2290 N   0  0  0  0  0  0  0  0  0  0  0  0
  196.0450  173.9280  145.8800 C   0  0  0  0  0  0  0  0  0  0  0  0
  189.4490  176.7020  144.9180 C   0  0  0  0  0  0  0  0  0  0  0  0
  187.4080  177.6530  147.0410 C   0  0  0  0  0  3  0  0  0  0  0  0
  185.1630  176.7570  146.2570 C   0  0  0  0  0  1  0  0  0  0  0  0
  186.5730  177.1130  145.9450 C   0  0  0  0  0  0  0  0  0  0  0  0
  186.9920  176.9760  144.6870 C   0  0  0  0  0  3  0  0  0  0  0  0
  188.3380  177.4160  144.2090 C   0  0  0  0  0  2  0  0  0  0  0  0
  189.6430  176.8330  146.2310 C   0  0  0  0  0  3  0  0  0  0  0  0
  188.7350  177.5300  147.1660 C   0  0  0  0  0  3  0  0  0  0  0  0
  190.3680  176.3010  142.7210 N   0  0  0  0  0  2  0  0  0  0  0  0
  188.4370  172.9220  140.5340 C   0  0  0  0  0  2  0  0  0  0  0  0
  190.2000  174.2610  141.3260 C   0  0  0  0  0  0  0  0  0  0  0  0
  190.9700  175.2780  141.9700 N   0  0  0  0  0  2  0  0  0  0  0  0
  190.7520  173.2550  140.7490 N   0  0  0  0  0  0  0  0  0  0  0  0
  188.2270  175.3000  140.5390 O   0  0  0  0  0  1  0  0  0  0  0  0
  188.7050  174.2250  141.2880 C   0  0  1  0  0  3  0  0  0  0  0  0
  189.7670  172.4110  140.2460 N   0  0  0  0  0  0  0  0  0  0  0  0
  190.7970  170.1770  140.2830 C   0  0  0  0  0  3  0  0  0  0  0  0
  190.5860  168.6920  138.3790 C   0  0  0  0  0  3  0  0  0  0  0  0
  190.0490  171.1560  139.6130 C   0  0  0  0  0  0  0  0  0  0  0  0
  191.0640  168.9490  139.6680 C   0  0  0  0  0  3  0  0  0  0  0  0
  189.5750  170.8900  138.3180 C   0  0  0  0  0  3  0  0  0  0  0  0
  189.8400  169.6620  137.7040 C   0  0  0  0  0  3  0  0  0  0  0  0
  1 20  1  6  0  0  0
  1  5  1  0  0  0  0
  1 12  1  0  0  0  0
  2  8  1  0  0  0  0
  4 11  1  0  0  0  0
  5  2  1  0  0  0  0
  6  7  2  0  0  0  0
  6  4  1  0  0  0  0
  8  4  2  0  0  0  0
  8  3  1  0  0  0  0
  9  2  2  0  0  0  0
  9  6  1  0  0  0  0
 11 10  3  0  0  0  0
 12 18  2  0  0  0  0
 13 19  2  0  0  0  0
 15 14  1  0  0  0  0
 15 13  1  0  0  0  0
 16 15  2  0  0  0  0
 17 16  1  0  0  0  0
 17 12  1  0  0  0  0
 18 19  1  0  0  0  0
 21 26  1  0  0  0  0
 22 23  1  0  0  0  0
 23 20  1  0  0  0  0
 24 22  2  0  0  0  0
 26 25  1  6  0  0  0
 26 22  1  0  0  0  0
 27 21  1  0  0  0  0
 27 24  1  0  0  0  0
 29 31  2  0  0  0  0
 30 27  1  0  0  0  0
 30 28  2  0  0  0  0
 31 28  1  0  0  0  0
 32 30  1  0  0  0  0
 33 32  2  0  0  0  0
 33 29  1  0  0  0  0
M  END
>  <MODEL>
8

>  <REMARK>
 VINA RESULT:      -7.3      2.353      5.911
  Name = 
  6 active torsions:
  status: ('A' for Active; 'I' for Inactive)
    1  A    between atoms: C_3  and  C_33
    2  A    between atoms: C_8  and  C_27
    3  A    between atoms: N_11  and  C_33
    4  A    between atoms: C_12  and  N_31
    5  A    between atoms: N_13  and  N_32
    6  A    between atoms: N_32  and  C_33
                            x       y       z     vdW  Elec       q    Type
                         _______ _______ _______ _____ _____    ______ ____

>  <TORSDO>
F 6

$$$$
=
 OpenBabel11042415023D

 33 36  0  0  1  0  0  0  0  0999 V2000
  190.3850  174.5520  144.8490 C   0  0  1  0  0  3  0  0  0  0  0  0
  188.5850  176.3230  144.6740 C   0  0  0  0  0  0  0  0  0  0  0  0
  186.9380  177.0580  146.6000 C   0  0  0  0  0  1  0  0  0  0  0  0
  187.0290  177.8790  144.2240 C   0  0  0  0  0  0  0  0  0  0  0  0
  189.3370  175.3770  145.4360 N   0  0  0  0  0  2  0  0  0  0  0  0
  187.8590  177.5650  143.0720 C   0  0  0  0  0  0  0  0  0  0  0  0
  187.9350  178.2840  141.9990 N   0  0  0  0  0  2  0  0  0  0  0  0
  187.4670  177.1040  145.2050 C   0  0  0  0  0  0  0  0  0  0  0  0
  188.8410  176.6000  143.4320 N   0  0  0  0  0  0  0  0  0  0  0  0
  185.1020  179.6160  144.3430 N   0  0  0  0  0  0  0  0  0  0  0  0
  185.9590  178.8410  144.2910 C   0  0  0  0  0  0  0  0  0  0  0  0
  191.6870  174.8090  145.5340 C   0  0  0  0  0  0  0  0  0  0  0  0
  194.3660  176.0190  146.5000 C   0  0  0  0  0  3  0  0  0  0  0  0
  196.1210  175.1230  144.8960 C   0  0  0  0  0  1  0  0  0  0  0  0
  194.7610  175.0140  145.4890 C   0  0  0  0  0  0  0  0  0  0  0  0
  193.9930  173.9900  145.1150 C   0  0  0  0  0  3  0  0  0  0  0  0
  192.6620  173.6870  145.7240 C   0  0  0  0  0  2  0  0  0  0  0  0
  191.8900  176.0150  146.0680 C   0  0  0  0  0  3  0  0  0  0  0  0
  193.1250  176.4530  146.7490 C   0  0  0  0  0  3  0  0  0  0  0  0
  190.0380  173.1380  144.9640 N   0  0  0  0  0  2  0  0  0  0  0  0
  191.8490  171.5310  141.2140 C   0  0  0  0  0  2  0  0  0  0  0  0
  190.1360  172.2540  142.6540 C   0  0  0  0  0  0  0  0  0  0  0  0
  189.4030  172.7530  143.7740 N   0  0  0  0  0  2  0  0  0  0  0  0
  189.5730  172.0230  141.5220 N   0  0  0  0  0  0  0  0  0  0  0  0
  191.9000  170.9440  143.5280 O   0  0  0  0  0  1  0  0  0  0  0  0
  191.6080  171.9900  142.6520 C   0  0  1  0  0  3  0  0  0  0  0  0
  190.5280  171.5840  140.6100 N   0  0  0  0  0  0  0  0  0  0  0  0
  189.9800  172.3700  138.3440 C   0  0  0  0  0  3  0  0  0  0  0  0
  189.6950  170.7910  136.5280 C   0  0  0  0  0  3  0  0  0  0  0  0
  190.2400  171.3150  139.2310 C   0  0  0  0  0  0  0  0  0  0  0  0
  189.7080  172.1090  136.9970 C   0  0  0  0  0  3  0  0  0  0  0  0
  190.2240  169.9960  138.7520 C   0  0  0  0  0  3  0  0  0  0  0  0
  189.9540  169.7340  137.4050 C   0  0  0  0  0  3  0  0  0  0  0  0
  1 20  1  1  0  0  0
  1  5  1  0  0  0  0
  1 12  1  0  0  0  0
  2  8  1  0  0  0  0
  2  5  1  0  0  0  0
  4 11  1  0  0  0  0
  4  8  2  0  0  0  0
  6  9  1  0  0  0  0
  6  4  1  0  0  0  0
  7  6  2  0  0  0  0
  8  3  1  0  0  0  0
  9  2  2  0  0  0  0
 11 10  3  0  0  0  0
 12 17  1  0  0  0  0
 12 18  2  0  0  0  0
 13 19  2  0  0  0  0
 14 15  1  0  0  0  0
 15 13  1  0  0  0  0
 16 15  2  0  0  0  0
 16 17  1  0  0  0  0
 18 19  1  0  0  0  0
 21 26  1  0  0  0  0
 22 23  1  0  0  0  0
 23 20  1  0  0  0  0
 24 22  2  0  0  0  0
 26 22  1  0  0  0  0
 26 25  1  1  0  0  0
 27 21  1  0  0  0  0
 27 24  1  0  0  0  0
 28 30  1  0  0  0  0
 29 31  1  0  0  0  0
 29 33  2  0  0  0  0
 30 27  1  0  0  0  0
 31 28  2  0  0  0  0
 32 30  2  0  0  0  0
 33 32  1  0  0  0  0
M  END
>  <MODEL>
9

>  <REMARK>
 VINA RESULT:      -7.3      2.804      7.278
  Name = 
  6 active torsions:
  status: ('A' for Active; 'I' for Inactive)
    1  A    between atoms: C_3  and  C_33
    2  A    between atoms: C_8  and  C_27
    3  A    between atoms: N_11  and  C_33
    4  A    between atoms: C_12  and  N_31
    5  A    between atoms: N_13  and  N_32
    6  A    between atoms: N_32  and  C_33
                            x       y       z     vdW  Elec       q    Type
                         _______ _______ _______ _____ _____    ______ ____

>  <TORSDO>
F 6

$$$$
