=
 OpenBabel11042415013D

 33 38  0  0  1  0  0  0  0  0999 V2000
  192.7020  174.5780  145.9310 N   0  0  1  0  0  0  0  0  0  0  0  0
  192.0970  175.0630  147.1710 C   0  0  0  0  0  2  0  0  0  0  0  0
  187.8180  176.0900  142.2680 C   0  0  0  0  0  0  0  0  0  0  0  0
  188.2710  175.2650  141.1390 C   0  0  0  0  0  0  0  0  0  0  0  0
  187.7610  176.7170  144.5500 C   0  0  0  0  0  2  0  0  0  0  0  0
  188.4370  176.0010  143.4360 C   0  0  0  0  0  0  0  0  0  0  0  0
  192.2290  173.8020  143.5900 C   0  0  1  0  0  3  0  0  0  0  0  0
  191.3570  176.3830  146.9710 C   0  0  2  0  0  3  0  0  0  0  0  0
  189.8640  176.1900  147.0750 C   0  0  0  0  0  2  0  0  0  0  0  0
  190.9910  172.7810  142.7660 S   0  0  0  0  0  0  0  0  0  0  0  0
  194.5860  173.5100  144.1790 C   0  0  0  0  0  0  0  0  0  0  0  0
  197.9160  172.0380  144.6840 O   0  0  0  0  0  0  0  0  0  0  0  0
  191.6610  174.1770  144.9670 C   0  0  2  0  0  3  0  0  0  0  0  0
  193.4610  173.0310  143.7330 N   0  0  0  0  0  0  0  0  0  0  0  0
  190.4940  176.3830  145.7080 C   0  0  2  0  0  3  0  0  0  0  0  0
  193.5950  175.5920  145.3550 C   0  0  0  0  0  2  0  0  0  0  0  0
  197.0070  172.9010  144.7880 C   0  0  0  0  0  0  0  0  0  0  0  0
  186.3210  177.0540  142.2470 S   0  0  0  0  0  0  0  0  0  0  0  0
  197.2820  174.1220  145.4680 N   0  0  0  0  0  1  0  0  0  0  0  0
  189.2560  174.2510  141.3780 N   0  0  0  0  0  0  0  0  0  0  0  0
  195.7110  172.6230  144.2410 N   0  0  0  0  0  2  0  0  0  0  0  0
  186.3450  177.0230  144.0730 C   0  0  2  0  0  3  0  0  0  0  0  0
  194.7390  174.9720  144.5390 C   0  0  0  0  0  2  0  0  0  0  0  0
  187.7550  175.3900  139.9980 O   0  0  0  0  0  0  0  0  0  0  0  0
  189.7870  175.3090  143.5250 C   0  0  2  0  0  3  0  0  0  0  0  0
  189.9050  174.1800  142.5060 C   0  0  0  0  0  0  0  0  0  0  0  0
  190.3680  175.0540  144.9400 C   0  0  1  0  0  3  0  0  0  0  0  0
  185.7880  178.3090  144.6800 C   0  0  0  0  0  2  0  0  0  0  0  0
  183.7550  178.8800  145.8210 O   0  0  0  0  0  1  0  0  0  0  0  0
  184.8850  178.0630  145.8870 C   0  0  2  0  0  3  0  0  0  0  0  0
  186.1020  177.2740  147.9110 O   0  0  0  0  0  1  0  0  0  0  0  0
  185.6330  178.3350  147.1480 C   0  0  0  0  0  0  0  0  0  0  0  0
  185.8620  179.5180  147.5150 O   0  0  0  0  0  0  0  0  0  0  0  0
  1 16  1  6  0  0  0
  1  2  1  0  0  0  0
  3  6  2  0  0  0  0
  4 20  1  0  0  0  0
  4  3  1  0  0  0  0
  6 25  1  0  0  0  0
  6  5  1  0  0  0  0
  7 10  1  1  0  0  0
  7 14  1  0  0  0  0
  7 13  1  0  0  0  0
  8  9  1  1  0  0  0
  8  2  1  0  0  0  0
 11 21  1  0  0  0  0
 11 23  1  0  0  0  0
 12 17  2  0  0  0  0
 13  1  1  0  0  0  0
 14 11  2  0  0  0  0
 15  8  1  0  0  0  0
 15  9  1  0  0  0  0
 17 19  1  0  0  0  0
 18  3  1  0  0  0  0
 18 22  1  0  0  0  0
 20 26  2  0  0  0  0
 21 17  1  0  0  0  0
 22  5  1  0  0  0  0
 22 28  1  0  0  0  0
 23 16  1  0  0  0  0
 24  4  2  0  0  0  0
 25 27  1  0  0  0  0
 26 10  1  0  0  0  0
 26 25  1  0  0  0  0
 27 13  1  0  0  0  0
 27 15  1  0  0  0  0
 28 30  1  0  0  0  0
 29 30  1  0  0  0  0
 30 32  1  0  0  0  0
 32 33  2  0  0  0  0
 32 31  1  0  0  0  0
M  END
>  <MODEL>
1

>  <REMARK>
 VINA RESULT:      -8.3      0.000      0.000
  Name = 
  3 active torsions:
  status: ('A' for Active; 'I' for Inactive)
    1  A    between atoms: C_12  and  C_14
    2  A    between atoms: C_12  and  C_31
    3  A    between atoms: C_14  and  C_26
                            x       y       z     vdW  Elec       q    Type
                         _______ _______ _______ _____ _____    ______ ____

>  <TORSDO>
F 3

$$$$
=
 OpenBabel11042415013D

 33 38  0  0  1  0  0  0  0  0999 V2000
  190.2200  174.2790  142.8210 N   0  0  1  0  0  0  0  0  0  0  0  0
  189.7070  174.5760  141.4840 C   0  0  0  0  0  2  0  0  0  0  0  0
  186.1410  177.9870  145.8490 C   0  0  0  0  0  0  0  0  0  0  0  0
  186.9020  177.9810  147.1060 C   0  0  0  0  0  0  0  0  0  0  0  0
  185.9050  177.7150  143.5090 C   0  0  0  0  0  2  0  0  0  0  0  0
  186.6730  177.4600  144.7570 C   0  0  0  0  0  0  0  0  0  0  0  0
  190.3400  175.0920  145.1950 C   0  0  1  0  0  3  0  0  0  0  0  0
  188.1820  174.6320  141.4550 C   0  0  2  0  0  3  0  0  0  0  0  0
  187.6950  176.0470  141.2530 C   0  0  0  0  0  2  0  0  0  0  0  0
  190.5570  176.6740  146.0350 S   0  0  0  0  0  0  0  0  0  0  0  0
  191.7470  173.1220  144.8430 C   0  0  0  0  0  0  0  0  0  0  0  0
  194.6180  170.8280  144.8040 O   0  0  0  0  0  0  0  0  0  0  0  0
  189.9600  175.4040  143.7390 C   0  0  2  0  0  3  0  0  0  0  0  0
  191.5940  174.3480  145.2510 N   0  0  0  0  0  0  0  0  0  0  0  0
  187.6040  175.4200  142.6320 C   0  0  2  0  0  3  0  0  0  0  0  0
  189.6440  173.0310  143.3360 C   0  0  0  0  0  2  0  0  0  0  0  0
  193.4640  171.2390  144.5180 C   0  0  0  0  0  0  0  0  0  0  0  0
  184.6140  178.8780  145.6250 S   0  0  0  0  0  0  0  0  0  0  0  0
  192.6160  170.4240  143.7140 N   0  0  0  0  0  1  0  0  0  0  0  0
  188.2740  177.5650  147.0790 N   0  0  0  0  0  0  0  0  0  0  0  0
  193.0440  172.5260  144.9870 N   0  0  0  0  0  2  0  0  0  0  0  0
  184.9260  178.8410  143.8250 C   0  0  2  0  0  3  0  0  0  0  0  0
  190.5830  172.3100  144.3160 C   0  0  0  0  0  2  0  0  0  0  0  0
  186.3880  178.4000  148.1760 O   0  0  0  0  0  0  0  0  0  0  0  0
  187.9030  176.5750  144.8670 C   0  0  2  0  0  3  0  0  0  0  0  0
  188.7970  177.0030  146.0260 C   0  0  0  0  0  0  0  0  0  0  0  0
  188.6010  176.1530  143.5480 C   0  0  1  0  0  3  0  0  0  0  0  0
  183.6350  178.7380  143.0170 C   0  0  0  0  0  2  0  0  0  0  0  0
  184.7430  178.7400  140.8890 O   0  0  0  0  0  1  0  0  0  0  0  0
  183.8210  178.0430  141.6700 C   0  0  2  0  0  3  0  0  0  0  0  0
  181.3490  178.3390  141.6070 O   0  0  0  0  0  1  0  0  0  0  0  0
  182.5150  177.9570  140.9550 C   0  0  0  0  0  0  0  0  0  0  0  0
  182.4630  177.5630  139.7600 O   0  0  0  0  0  0  0  0  0  0  0  0
  1  2  1  6  0  0  0
  1 16  1  0  0  0  0
  1 13  1  0  0  0  0
  3  4  1  0  0  0  0
  4 24  2  0  0  0  0
  5 22  1  0  0  0  0
  5  6  1  0  0  0  0
  6 25  1  0  0  0  0
  6  3  2  0  0  0  0
  7 14  1  6  0  0  0
  7 10  1  0  0  0  0
  8  9  1  6  0  0  0
  8  2  1  0  0  0  0
  8 15  1  0  0  0  0
  9 15  1  0  0  0  0
 11 21  1  0  0  0  0
 11 14  2  0  0  0  0
 13  7  1  0  0  0  0
 15 27  1  0  0  0  0
 16 23  1  0  0  0  0
 17 12  2  0  0  0  0
 17 21  1  0  0  0  0
 18  3  1  0  0  0  0
 19 17  1  0  0  0  0
 20  4  1  0  0  0  0
 22 18  1  0  0  0  0
 23 11  1  0  0  0  0
 25 26  1  0  0  0  0
 26 10  1  0  0  0  0
 26 20  2  0  0  0  0
 27 13  1  0  0  0  0
 27 25  1  0  0  0  0
 28 22  1  0  0  0  0
 29 30  1  0  0  0  0
 30 28  1  0  0  0  0
 32 31  1  0  0  0  0
 32 30  1  0  0  0  0
 33 32  2  0  0  0  0
M  END
>  <MODEL>
2

>  <REMARK>
 VINA RESULT:      -8.3      2.768      5.019
  Name = 
  3 active torsions:
  status: ('A' for Active; 'I' for Inactive)
    1  A    between atoms: C_12  and  C_14
    2  A    between atoms: C_12  and  C_31
    3  A    between atoms: C_14  and  C_26
                            x       y       z     vdW  Elec       q    Type
                         _______ _______ _______ _____ _____    ______ ____

>  <TORSDO>
F 3

$$$$
=
 OpenBabel11042415013D

 33 38  0  0  1  0  0  0  0  0999 V2000
  188.5530  177.1700  144.2660 N   0  0  1  0  0  0  0  0  0  0  0  0
  189.6830  177.8330  144.9180 C   0  0  0  0  0  2  0  0  0  0  0  0
  191.5130  171.6880  143.4040 C   0  0  0  0  0  0  0  0  0  0  0  0
  190.5320  171.1880  142.4300 C   0  0  0  0  0  0  0  0  0  0  0  0
  192.6160  173.3920  144.6210 C   0  0  0  0  0  2  0  0  0  0  0  0
  191.4530  172.9480  143.8080 C   0  0  0  0  0  0  0  0  0  0  0  0
  187.8840  175.2740  142.7620 C   0  0  1  0  0  3  0  0  0  0  0  0
  190.4010  176.9100  145.8980 C   0  0  2  0  0  3  0  0  0  0  0  0
  191.7640  176.5200  145.3780 C   0  0  0  0  0  2  0  0  0  0  0  0
  188.5290  174.4840  141.2730 S   0  0  0  0  0  0  0  0  0  0  0  0
  185.9950  176.7520  143.2450 C   0  0  0  0  0  0  0  0  0  0  0  0
  183.0710  178.9440  142.8560 O   0  0  0  0  0  0  0  0  0  0  0  0
  189.0270  176.1080  143.3600 C   0  0  2  0  0  3  0  0  0  0  0  0
  186.7600  176.1300  142.3960 N   0  0  0  0  0  0  0  0  0  0  0  0
  190.6300  175.5110  145.3230 C   0  0  2  0  0  3  0  0  0  0  0  0
  187.6150  176.6380  145.2620 C   0  0  0  0  0  2  0  0  0  0  0  0
  184.0230  178.3850  143.4590 C   0  0  0  0  0  0  0  0  0  0  0  0
  192.9490  170.7680  143.9170 S   0  0  0  0  0  0  0  0  0  0  0  0
  184.2020  178.6260  144.8510 N   0  0  0  0  0  1  0  0  0  0  0  0
  189.6430  172.1230  141.8050 N   0  0  0  0  0  0  0  0  0  0  0  0
  184.9180  177.5410  142.7230 N   0  0  0  0  0  2  0  0  0  0  0  0
  193.7110  172.3520  144.4160 C   0  0  2  0  0  3  0  0  0  0  0  0
  186.1710  176.5850  144.7400 C   0  0  0  0  0  2  0  0  0  0  0  0
  190.5160  169.9760  142.0920 O   0  0  0  0  0  0  0  0  0  0  0  0
  190.2070  173.7720  143.5290 C   0  0  2  0  0  3  0  0  0  0  0  0
  189.5400  173.3530  142.2230 C   0  0  0  0  0  0  0  0  0  0  0  0
  190.2690  175.2900  143.8430 C   0  0  1  0  0  3  0  0  0  0  0  0
  194.6110  172.2000  145.6410 C   0  0  0  0  0  2  0  0  0  0  0  0
  196.8450  171.4470  146.0870 O   0  0  0  0  0  1  0  0  0  0  0  0
  196.0970  172.3390  145.3180 C   0  0  2  0  0  3  0  0  0  0  0  0
  197.8400  174.1160  145.2450 O   0  0  0  0  0  0  0  0  0  0  0  0
  196.5470  173.7360  145.5820 C   0  0  0  0  0  0  0  0  0  0  0  0
  195.7600  174.5790  146.0880 O   0  0  0  0  0  1  0  0  0  0  0  0
  1  2  1  1  0  0  0
  1 16  1  0  0  0  0
  3  6  2  0  0  0  0
  3 18  1  0  0  0  0
  4  3  1  0  0  0  0
  6  5  1  0  0  0  0
  7 10  1  6  0  0  0
  7 13  1  0  0  0  0
  8  2  1  6  0  0  0
  9  8  1  0  0  0  0
 10 26  1  0  0  0  0
 11 23  1  0  0  0  0
 12 17  2  0  0  0  0
 13 27  1  0  0  0  0
 13  1  1  0  0  0  0
 14  7  1  0  0  0  0
 14 11  2  0  0  0  0
 15  9  1  0  0  0  0
 15  8  1  0  0  0  0
 17 19  1  0  0  0  0
 18 22  1  0  0  0  0
 20 26  2  0  0  0  0
 20  4  1  0  0  0  0
 21 11  1  0  0  0  0
 21 17  1  0  0  0  0
 22  5  1  0  0  0  0
 22 28  1  0  0  0  0
 23 16  1  0  0  0  0
 24  4  2  0  0  0  0
 25  6  1  0  0  0  0
 25 27  1  0  0  0  0
 26 25  1  0  0  0  0
 27 15  1  0  0  0  0
 30 32  1  0  0  0  0
 30 28  1  0  0  0  0
 30 29  1  0  0  0  0
 31 32  2  0  0  0  0
 32 33  1  0  0  0  0
M  END
>  <MODEL>
3

>  <REMARK>
 VINA RESULT:      -8.0      3.320      8.546
  Name = 
  3 active torsions:
  status: ('A' for Active; 'I' for Inactive)
    1  A    between atoms: C_12  and  C_14
    2  A    between atoms: C_12  and  C_31
    3  A    between atoms: C_14  and  C_26
                            x       y       z     vdW  Elec       q    Type
                         _______ _______ _______ _____ _____    ______ ____

>  <TORSDO>
F 3

$$$$
=
 OpenBabel11042415013D

 33 38  0  0  1  0  0  0  0  0999 V2000
  189.1260  177.0110  145.9280 N   0  0  1  0  0  0  0  0  0  0  0  0
  190.3210  177.4210  146.6650 C   0  0  0  0  0  2  0  0  0  0  0  0
  191.6510  171.7380  143.6080 C   0  0  0  0  0  0  0  0  0  0  0  0
  190.6050  171.5570  142.5910 C   0  0  0  0  0  0  0  0  0  0  0  0
  192.9130  173.0170  145.1490 C   0  0  0  0  0  2  0  0  0  0  0  0
  191.6950  172.8600  144.3110 C   0  0  0  0  0  0  0  0  0  0  0  0
  188.2730  175.5910  144.0400 C   0  0  1  0  0  3  0  0  0  0  0  0
  191.0020  176.2420  147.3540 C   0  0  2  0  0  3  0  0  0  0  0  0
  192.3150  175.9070  146.6870 C   0  0  0  0  0  2  0  0  0  0  0  0
  188.8100  175.1540  142.3740 S   0  0  0  0  0  0  0  0  0  0  0  0
  186.5130  177.0190  144.9630 C   0  0  0  0  0  0  0  0  0  0  0  0
  183.7450  179.4180  145.2650 O   0  0  0  0  0  0  0  0  0  0  0  0
  189.4920  176.1780  144.7670 C   0  0  2  0  0  3  0  0  0  0  0  0
  187.2030  176.5800  143.9500 N   0  0  0  0  0  0  0  0  0  0  0  0
  191.1100  175.0160  146.4440 C   0  0  2  0  0  3  0  0  0  0  0  0
  188.1840  176.3100  146.8090 C   0  0  0  0  0  2  0  0  0  0  0  0
  184.6730  178.6690  145.6660 C   0  0  0  0  0  0  0  0  0  0  0  0
  193.0320  170.6330  143.8100 S   0  0  0  0  0  0  0  0  0  0  0  0
  184.9130  178.5460  147.0640 N   0  0  0  0  0  1  0  0  0  0  0  0
  189.7670  172.6710  142.2590 N   0  0  0  0  0  0  0  0  0  0  0  0
  185.4800  177.9780  144.7030 N   0  0  0  0  0  2  0  0  0  0  0  0
  193.9230  171.9930  144.6420 C   0  0  2  0  0  3  0  0  0  0  0  0
  186.7240  176.4780  146.3610 C   0  0  0  0  0  2  0  0  0  0  0  0
  190.4900  170.4690  141.9690 O   0  0  0  0  0  0  0  0  0  0  0  0
  190.5040  173.8040  144.3030 C   0  0  2  0  0  3  0  0  0  0  0  0
  189.7670  173.7630  142.9690 C   0  0  0  0  0  0  0  0  0  0  0  0
  190.6860  175.1910  144.9740 C   0  0  1  0  0  3  0  0  0  0  0  0
  194.8480  171.4870  145.7470 C   0  0  0  0  0  2  0  0  0  0  0  0
  196.9680  170.4240  146.1130 O   0  0  0  0  0  1  0  0  0  0  0  0
  196.2990  171.3360  145.2960 C   0  0  2  0  0  3  0  0  0  0  0  0
  196.9610  173.4050  146.5130 O   0  0  0  0  0  1  0  0  0  0  0  0
  196.9880  172.6580  145.3430 C   0  0  0  0  0  0  0  0  0  0  0  0
  197.6120  173.0910  144.3380 O   0  0  0  0  0  0  0  0  0  0  0  0
  1  2  1  1  0  0  0
  1 16  1  0  0  0  0
  3 18  1  0  0  0  0
  3  6  2  0  0  0  0
  4  3  1  0  0  0  0
  6  5  1  0  0  0  0
  7 10  1  6  0  0  0
  7 13  1  0  0  0  0
  8  2  1  6  0  0  0
  9  8  1  0  0  0  0
 10 26  1  0  0  0  0
 11 23  1  0  0  0  0
 12 17  2  0  0  0  0
 13 27  1  0  0  0  0
 13  1  1  0  0  0  0
 14  7  1  0  0  0  0
 14 11  2  0  0  0  0
 15  9  1  0  0  0  0
 15  8  1  0  0  0  0
 17 19  1  0  0  0  0
 18 22  1  0  0  0  0
 20  4  1  0  0  0  0
 20 26  2  0  0  0  0
 21 11  1  0  0  0  0
 21 17  1  0  0  0  0
 22  5  1  0  0  0  0
 22 28  1  0  0  0  0
 23 16  1  0  0  0  0
 24  4  2  0  0  0  0
 25  6  1  0  0  0  0
 25 27  1  0  0  0  0
 26 25  1  0  0  0  0
 27 15  1  0  0  0  0
 30 32  1  0  0  0  0
 30 28  1  0  0  0  0
 30 29  1  0  0  0  0
 32 31  1  0  0  0  0
 33 32  2  0  0  0  0
M  END
>  <MODEL>
4

>  <REMARK>
 VINA RESULT:      -7.8      2.894      8.584
  Name = 
  3 active torsions:
  status: ('A' for Active; 'I' for Inactive)
    1  A    between atoms: C_12  and  C_14
    2  A    between atoms: C_12  and  C_31
    3  A    between atoms: C_14  and  C_26
                            x       y       z     vdW  Elec       q    Type
                         _______ _______ _______ _____ _____    ______ ____

>  <TORSDO>
F 3

$$$$
=
 OpenBabel11042415013D

 33 38  0  0  1  0  0  0  0  0999 V2000
  187.3130  175.6800  142.2720 N   0  0  1  0  0  0  0  0  0  0  0  0
  187.9230  174.6070  141.4870 C   0  0  0  0  0  2  0  0  0  0  0  0
  192.0410  176.1540  146.3920 C   0  0  0  0  0  0  0  0  0  0  0  0
  191.2580  176.9310  147.3640 C   0  0  0  0  0  0  0  0  0  0  0  0
  192.2820  174.6830  144.5540 C   0  0  0  0  0  2  0  0  0  0  0  0
  191.4360  175.6160  145.3440 C   0  0  0  0  0  0  0  0  0  0  0  0
  187.3080  176.8380  144.5000 C   0  0  1  0  0  3  0  0  0  0  0  0
  189.4200  174.8270  141.2830 C   0  0  2  0  0  3  0  0  0  0  0  0
  190.2280  173.8290  142.0780 C   0  0  0  0  0  2  0  0  0  0  0  0
  187.4370  176.3570  146.2340 S   0  0  0  0  0  0  0  0  0  0  0  0
  185.4950  177.6360  143.0650 C   0  0  0  0  0  0  0  0  0  0  0  0
  182.1730  178.6090  141.8290 O   0  0  0  0  0  0  0  0  0  0  0  0
  187.7960  175.6450  143.6640 C   0  0  2  0  0  3  0  0  0  0  0  0
  185.9140  177.1450  144.1950 N   0  0  0  0  0  0  0  0  0  0  0  0
  190.1270  175.2620  142.5680 C   0  0  2  0  0  3  0  0  0  0  0  0
  187.5670  176.9880  141.6550 C   0  0  0  0  0  2  0  0  0  0  0  0
  183.3990  178.3380  141.7540 C   0  0  0  0  0  0  0  0  0  0  0  0
  193.7380  175.6790  146.6470 S   0  0  0  0  0  0  0  0  0  0  0  0
  184.0610  178.4520  140.4990 N   0  0  0  0  0  1  0  0  0  0  0  0
  189.8290  176.9370  147.2510 N   0  0  0  0  0  0  0  0  0  0  0  0
  184.0920  177.9000  142.9300 N   0  0  0  0  0  2  0  0  0  0  0  0
  193.4840  174.3420  145.4280 C   0  0  2  0  0  3  0  0  0  0  0  0
  186.4560  178.0060  141.9550 C   0  0  0  0  0  2  0  0  0  0  0  0
  191.8210  177.5210  148.3230 O   0  0  0  0  0  0  0  0  0  0  0  0
  190.0310  176.0600  144.9720 C   0  0  2  0  0  3  0  0  0  0  0  0
  189.2240  176.4530  146.2040 C   0  0  0  0  0  0  0  0  0  0  0  0
  189.2970  175.2570  143.8660 C   0  0  1  0  0  3  0  0  0  0  0  0
  194.7420  174.0600  144.6090 C   0  0  0  0  0  2  0  0  0  0  0  0
  196.3570  175.7430  144.0440 O   0  0  0  0  0  1  0  0  0  0  0  0
  195.9500  174.8780  145.0600 C   0  0  2  0  0  3  0  0  0  0  0  0
  197.1460  173.4560  146.7180 O   0  0  0  0  0  1  0  0  0  0  0  0
  197.0730  173.9680  145.4290 C   0  0  0  0  0  0  0  0  0  0  0  0
  197.9410  173.6420  144.5770 O   0  0  0  0  0  0  0  0  0  0  0  0
  1  2  1  6  0  0  0
  1 13  1  0  0  0  0
  3 18  1  0  0  0  0
  3  4  1  0  0  0  0
  4 24  2  0  0  0  0
  5  6  1  0  0  0  0
  5 22  1  0  0  0  0
  6  3  2  0  0  0  0
  7 14  1  6  0  0  0
  7 10  1  0  0  0  0
  8  2  1  1  0  0  0
  8  9  1  0  0  0  0
  8 15  1  0  0  0  0
  9 15  1  0  0  0  0
 11 14  2  0  0  0  0
 13 27  1  0  0  0  0
 13  7  1  0  0  0  0
 15 27  1  0  0  0  0
 16 23  1  0  0  0  0
 16  1  1  0  0  0  0
 17 12  2  0  0  0  0
 17 21  1  0  0  0  0
 19 17  1  0  0  0  0
 20  4  1  0  0  0  0
 21 11  1  0  0  0  0
 22 18  1  0  0  0  0
 23 11  1  0  0  0  0
 25  6  1  0  0  0  0
 25 26  1  0  0  0  0
 26 10  1  0  0  0  0
 26 20  2  0  0  0  0
 27 25  1  0  0  0  0
 28 30  1  0  0  0  0
 28 22  1  0  0  0  0
 29 30  1  0  0  0  0
 30 32  1  0  0  0  0
 32 31  1  0  0  0  0
 33 32  2  0  0  0  0
M  END
>  <MODEL>
5

>  <REMARK>
 VINA RESULT:      -7.7      3.570      9.180
  Name = 
  3 active torsions:
  status: ('A' for Active; 'I' for Inactive)
    1  A    between atoms: C_12  and  C_14
    2  A    between atoms: C_12  and  C_31
    3  A    between atoms: C_14  and  C_26
                            x       y       z     vdW  Elec       q    Type
                         _______ _______ _______ _____ _____    ______ ____

>  <TORSDO>
F 3

$$$$
=
 OpenBabel11042415013D

 33 38  0  0  1  0  0  0  0  0999 V2000
  188.7910  176.4090  145.8550 N   0  0  1  0  0  0  0  0  0  0  0  0
  187.6730  176.4850  146.7960 C   0  0  0  0  0  2  0  0  0  0  0  0
  185.3510  177.7030  140.7520 C   0  0  0  0  0  0  0  0  0  0  0  0
  186.3810  177.2460  139.8090 C   0  0  0  0  0  0  0  0  0  0  0  0
  184.3090  177.7970  142.8750 C   0  0  0  0  0  2  0  0  0  0  0  0
  185.5050  177.4840  142.0490 C   0  0  0  0  0  0  0  0  0  0  0  0
  189.4200  176.0830  143.4460 C   0  0  1  0  0  3  0  0  0  0  0  0
  186.7370  177.6480  146.4800 C   0  0  2  0  0  3  0  0  0  0  0  0
  185.4140  177.1510  145.9480 C   0  0  0  0  0  2  0  0  0  0  0  0
  188.8790  175.0440  142.0730 S   0  0  0  0  0  0  0  0  0  0  0  0
  191.3910  176.1310  144.8940 C   0  0  0  0  0  0  0  0  0  0  0  0
  194.5740  175.2590  146.5130 O   0  0  0  0  0  0  0  0  0  0  0  0
  188.3150  176.0320  144.5120 C   0  0  2  0  0  3  0  0  0  0  0  0
  190.6720  175.5520  143.9770 N   0  0  0  0  0  0  0  0  0  0  0  0
  186.4220  177.7550  144.9860 C   0  0  2  0  0  3  0  0  0  0  0  0
  189.5310  177.6760  145.8190 C   0  0  0  0  0  2  0  0  0  0  0  0
  193.4960  175.8860  146.3480 C   0  0  0  0  0  0  0  0  0  0  0  0
  183.7660  178.3400  140.2480 S   0  0  0  0  0  0  0  0  0  0  0  0
  193.1750  176.9600  147.2260 N   0  0  0  0  0  1  0  0  0  0  0  0
  187.4430  176.4160  140.2970 N   0  0  0  0  0  0  0  0  0  0  0  0
  192.6090  175.4880  145.2940 N   0  0  0  0  0  2  0  0  0  0  0  0
  183.1350  177.9190  141.9100 C   0  0  2  0  0  3  0  0  0  0  0  0
  191.0130  177.4820  145.4640 C   0  0  0  0  0  2  0  0  0  0  0  0
  186.3000  177.5140  138.5820 O   0  0  0  0  0  0  0  0  0  0  0  0
  186.8620  177.0640  142.5880 C   0  0  2  0  0  3  0  0  0  0  0  0
  187.6340  176.2290  141.5720 C   0  0  0  0  0  0  0  0  0  0  0  0
  186.9370  176.6260  144.0740 C   0  0  1  0  0  3  0  0  0  0  0  0
  182.0790  178.9090  142.3950 C   0  0  0  0  0  2  0  0  0  0  0  0
  180.5580  180.1660  141.0290 O   0  0  0  0  0  1  0  0  0  0  0  0
  180.8060  178.8950  141.5510 C   0  0  2  0  0  3  0  0  0  0  0  0
  178.8860  177.3660  141.9700 O   0  0  0  0  0  0  0  0  0  0  0  0
  179.6480  178.4530  142.3800 C   0  0  0  0  0  0  0  0  0  0  0  0
  179.3690  179.0420  143.4580 O   0  0  0  0  0  1  0  0  0  0  0  0
  1 16  1  6  0  0  0
  1  2  1  0  0  0  0
  3  6  2  0  0  0  0
  4 20  1  0  0  0  0
  4  3  1  0  0  0  0
  6 25  1  0  0  0  0
  6  5  1  0  0  0  0
  7 10  1  6  0  0  0
  7 14  1  0  0  0  0
  7 13  1  0  0  0  0
  8  9  1  1  0  0  0
  8  2  1  0  0  0  0
 11 21  1  0  0  0  0
 11 23  1  0  0  0  0
 13  1  1  0  0  0  0
 14 11  2  0  0  0  0
 15  9  1  0  0  0  0
 15  8  1  0  0  0  0
 17 12  2  0  0  0  0
 17 19  1  0  0  0  0
 18  3  1  0  0  0  0
 18 22  1  0  0  0  0
 20 26  2  0  0  0  0
 21 17  1  0  0  0  0
 22 28  1  0  0  0  0
 22  5  1  0  0  0  0
 23 16  1  0  0  0  0
 24  4  2  0  0  0  0
 25 27  1  0  0  0  0
 26 10  1  0  0  0  0
 26 25  1  0  0  0  0
 27 13  1  0  0  0  0
 27 15  1  0  0  0  0
 29 30  1  0  0  0  0
 30 32  1  0  0  0  0
 30 28  1  0  0  0  0
 31 32  2  0  0  0  0
 32 33  1  0  0  0  0
M  END
>  <MODEL>
6

>  <REMARK>
 VINA RESULT:      -7.7      3.313      4.734
  Name = 
  3 active torsions:
  status: ('A' for Active; 'I' for Inactive)
    1  A    between atoms: C_12  and  C_14
    2  A    between atoms: C_12  and  C_31
    3  A    between atoms: C_14  and  C_26
                            x       y       z     vdW  Elec       q    Type
                         _______ _______ _______ _____ _____    ______ ____

>  <TORSDO>
F 3

$$$$
=
 OpenBabel11042415013D

 33 38  0  0  1  0  0  0  0  0999 V2000
  188.6340  177.0650  144.7460 N   0  0  1  0  0  0  0  0  0  0  0  0
  189.7730  177.6430  145.4610 C   0  0  0  0  0  2  0  0  0  0  0  0
  191.4660  171.5980  143.4620 C   0  0  0  0  0  0  0  0  0  0  0  0
  190.4840  171.2050  142.4410 C   0  0  0  0  0  0  0  0  0  0  0  0
  192.5970  173.1670  144.8260 C   0  0  0  0  0  2  0  0  0  0  0  0
  191.4330  172.8210  143.9690 C   0  0  0  0  0  0  0  0  0  0  0  0
  187.9350  175.3160  143.0840 C   0  0  1  0  0  3  0  0  0  0  0  0
  190.4570  176.6240  146.3680 C   0  0  2  0  0  3  0  0  0  0  0  0
  191.8150  176.2430  145.8300 C   0  0  0  0  0  2  0  0  0  0  0  0
  188.5770  174.6350  141.5420 S   0  0  0  0  0  0  0  0  0  0  0  0
  186.0790  176.7980  143.6710 C   0  0  0  0  0  0  0  0  0  0  0  0
  183.2150  179.0900  143.4360 O   0  0  0  0  0  0  0  0  0  0  0  0
  189.0920  176.0680  143.7600 C   0  0  2  0  0  3  0  0  0  0  0  0
  186.8370  176.2280  142.7790 N   0  0  0  0  0  0  0  0  0  0  0  0
  190.6570  175.2720  145.6820 C   0  0  2  0  0  3  0  0  0  0  0  0
  187.6720  176.4770  145.6860 C   0  0  0  0  0  2  0  0  0  0  0  0
  184.1460  178.4590  144.0000 C   0  0  0  0  0  0  0  0  0  0  0  0
  192.8730  170.6020  143.9110 S   0  0  0  0  0  0  0  0  0  0  0  0
  184.3140  178.5790  145.4090 N   0  0  0  0  0  1  0  0  0  0  0  0
  189.6260  172.2110  141.8880 N   0  0  0  0  0  0  0  0  0  0  0  0
  185.0270  177.6550  143.2050 N   0  0  0  0  0  2  0  0  0  0  0  0
  193.6690  172.1190  144.5460 C   0  0  2  0  0  3  0  0  0  0  0  0
  186.2330  176.5050  145.1480 C   0  0  0  0  0  2  0  0  0  0  0  0
  190.4410  170.0250  142.0040 O   0  0  0  0  0  0  0  0  0  0  0  0
  190.2110  173.6970  143.7470 C   0  0  2  0  0  3  0  0  0  0  0  0
  189.5490  173.4040  142.4050 C   0  0  0  0  0  0  0  0  0  0  0  0
  190.3070  175.1820  144.1850 C   0  0  1  0  0  3  0  0  0  0  0  0
  194.5500  171.8440  145.7620 C   0  0  0  0  0  2  0  0  0  0  0  0
  196.1100  173.0670  144.4090 O   0  0  0  0  0  1  0  0  0  0  0  0
  195.9880  172.3270  145.5860 C   0  0  2  0  0  3  0  0  0  0  0  0
  196.7830  170.1470  146.4890 O   0  0  0  0  0  1  0  0  0  0  0  0
  196.9170  171.1610  145.5490 C   0  0  0  0  0  0  0  0  0  0  0  0
  197.8060  171.0770  144.6610 O   0  0  0  0  0  0  0  0  0  0  0  0
  1  2  1  1  0  0  0
  1 16  1  0  0  0  0
  3 18  1  0  0  0  0
  3  6  2  0  0  0  0
  4  3  1  0  0  0  0
  6  5  1  0  0  0  0
  7 10  1  6  0  0  0
  7 13  1  0  0  0  0
  8  2  1  6  0  0  0
  9  8  1  0  0  0  0
 10 26  1  0  0  0  0
 11 23  1  0  0  0  0
 12 17  2  0  0  0  0
 13 27  1  0  0  0  0
 13  1  1  0  0  0  0
 14  7  1  0  0  0  0
 14 11  2  0  0  0  0
 15  9  1  0  0  0  0
 15  8  1  0  0  0  0
 17 19  1  0  0  0  0
 18 22  1  0  0  0  0
 20 26  2  0  0  0  0
 20  4  1  0  0  0  0
 21 11  1  0  0  0  0
 21 17  1  0  0  0  0
 22  5  1  0  0  0  0
 22 28  1  0  0  0  0
 23 16  1  0  0  0  0
 24  4  2  0  0  0  0
 25  6  1  0  0  0  0
 25 27  1  0  0  0  0
 26 25  1  0  0  0  0
 27 15  1  0  0  0  0
 29 30  1  0  0  0  0
 30 28  1  0  0  0  0
 32 30  1  0  0  0  0
 32 31  1  0  0  0  0
 33 32  2  0  0  0  0
M  END
>  <MODEL>
7

>  <REMARK>
 VINA RESULT:      -7.7      3.209      8.695
  Name = 
  3 active torsions:
  status: ('A' for Active; 'I' for Inactive)
    1  A    between atoms: C_12  and  C_14
    2  A    between atoms: C_12  and  C_31
    3  A    between atoms: C_14  and  C_26
                            x       y       z     vdW  Elec       q    Type
                         _______ _______ _______ _____ _____    ______ ____

>  <TORSDO>
F 3

$$$$
=
 OpenBabel11042415013D

 33 38  0  0  1  0  0  0  0  0999 V2000
  187.8100  175.8710  143.4760 N   0  0  1  0  0  0  0  0  0  0  0  0
  187.9090  174.8830  142.4020 C   0  0  0  0  0  2  0  0  0  0  0  0
  193.9300  175.7830  144.9210 C   0  0  0  0  0  0  0  0  0  0  0  0
  193.7450  176.4590  146.2130 C   0  0  0  0  0  0  0  0  0  0  0  0
  193.1870  174.5260  143.0590 C   0  0  0  0  0  2  0  0  0  0  0  0
  192.8720  175.3790  144.2340 C   0  0  0  0  0  0  0  0  0  0  0  0
  188.9220  176.7680  145.5420 C   0  0  1  0  0  3  0  0  0  0  0  0
  189.1520  175.0950  141.5410 C   0  0  2  0  0  3  0  0  0  0  0  0
  190.1640  173.9990  141.7690 C   0  0  0  0  0  2  0  0  0  0  0  0
  189.8060  176.0900  146.9610 S   0  0  0  0  0  0  0  0  0  0  0  0
  186.7100  177.7580  145.2050 C   0  0  0  0  0  0  0  0  0  0  0  0
  183.2720  178.9290  145.7660 O   0  0  0  0  0  0  0  0  0  0  0  0
  188.8810  175.6690  144.4700 C   0  0  2  0  0  3  0  0  0  0  0  0
  187.5710  177.1340  145.9550 N   0  0  0  0  0  0  0  0  0  0  0  0
  190.4030  175.3680  142.3780 C   0  0  2  0  0  3  0  0  0  0  0  0
  187.8400  177.2350  142.9350 C   0  0  0  0  0  2  0  0  0  0  0  0
  184.3010  178.6450  145.1010 C   0  0  0  0  0  0  0  0  0  0  0  0
  195.5140  175.2490  144.3050 S   0  0  0  0  0  0  0  0  0  0  0  0
  184.3100  178.8880  143.6980 N   0  0  0  0  0  1  0  0  0  0  0  0
  192.4320  176.5050  146.7850 N   0  0  0  0  0  0  0  0  0  0  0  0
  185.4270  178.0620  145.7690 N   0  0  0  0  0  2  0  0  0  0  0  0
  194.6300  174.0650  143.2310 C   0  0  2  0  0  3  0  0  0  0  0  0
  187.0690  178.2340  143.8130 C   0  0  0  0  0  2  0  0  0  0  0  0
  194.7290  176.9260  146.8460 O   0  0  0  0  0  0  0  0  0  0  0  0
  191.4900  175.8890  144.6070 C   0  0  2  0  0  3  0  0  0  0  0  0
  191.3770  176.1550  146.1050 C   0  0  0  0  0  0  0  0  0  0  0  0
  190.2730  175.2320  143.9070 C   0  0  1  0  0  3  0  0  0  0  0  0
  195.3410  173.8540  141.8960 C   0  0  0  0  0  2  0  0  0  0  0  0
  194.6390  174.1620  139.6220 O   0  0  0  0  0  1  0  0  0  0  0  0
  194.8970  174.8380  140.8150 C   0  0  2  0  0  3  0  0  0  0  0  0
  196.9810  175.6150  139.6970 O   0  0  0  0  0  0  0  0  0  0  0  0
  195.9540  175.8670  140.5960 C   0  0  0  0  0  0  0  0  0  0  0  0
  195.9100  176.9700  141.2030 O   0  0  0  0  0  1  0  0  0  0  0  0
  1  2  1  6  0  0  0
  1 13  1  0  0  0  0
  3  4  1  0  0  0  0
  4 20  1  0  0  0  0
  4 24  2  0  0  0  0
  5 22  1  0  0  0  0
  5  6  1  0  0  0  0
  6 25  1  0  0  0  0
  6  3  2  0  0  0  0
  7 14  1  1  0  0  0
  7 10  1  0  0  0  0
  8  9  1  1  0  0  0
  8 15  1  0  0  0  0
  8  2  1  0  0  0  0
  9 15  1  0  0  0  0
 11 21  1  0  0  0  0
 11 14  2  0  0  0  0
 13  7  1  0  0  0  0
 15 27  1  0  0  0  0
 16  1  1  0  0  0  0
 16 23  1  0  0  0  0
 17 12  2  0  0  0  0
 17 21  1  0  0  0  0
 18  3  1  0  0  0  0
 19 17  1  0  0  0  0
 22 18  1  0  0  0  0
 23 11  1  0  0  0  0
 25 26  1  0  0  0  0
 26 20  2  0  0  0  0
 26 10  1  0  0  0  0
 27 13  1  0  0  0  0
 27 25  1  0  0  0  0
 28 22  1  0  0  0  0
 29 30  1  0  0  0  0
 30 28  1  0  0  0  0
 31 32  2  0  0  0  0
 32 30  1  0  0  0  0
 32 33  1  0  0  0  0
M  END
>  <MODEL>
8

>  <REMARK>
 VINA RESULT:      -7.6      3.589      9.007
  Name = 
  3 active torsions:
  status: ('A' for Active; 'I' for Inactive)
    1  A    between atoms: C_12  and  C_14
    2  A    between atoms: C_12  and  C_31
    3  A    between atoms: C_14  and  C_26
                            x       y       z     vdW  Elec       q    Type
                         _______ _______ _______ _____ _____    ______ ____

>  <TORSDO>
F 3

$$$$
=
 OpenBabel11042415013D

 33 38  0  0  1  0  0  0  0  0999 V2000
  193.2550  174.7740  144.7200 N   0  0  1  0  0  0  0  0  0  0  0  0
  193.0500  175.0800  146.1360 C   0  0  0  0  0  2  0  0  0  0  0  0
  187.7660  177.1760  142.8060 C   0  0  0  0  0  0  0  0  0  0  0  0
  187.8170  176.5250  141.4890 C   0  0  0  0  0  0  0  0  0  0  0  0
  188.3760  177.4140  145.0800 C   0  0  0  0  0  2  0  0  0  0  0  0
  188.6570  176.8540  143.7320 C   0  0  0  0  0  0  0  0  0  0  0  0
  192.1050  174.4320  142.5140 C   0  0  1  0  0  3  0  0  0  0  0  0
  192.4270  176.4580  146.3400 C   0  0  2  0  0  3  0  0  0  0  0  0
  191.0010  176.3430  146.8240 C   0  0  0  0  0  2  0  0  0  0  0  0
  190.5930  173.6410  141.9250 S   0  0  0  0  0  0  0  0  0  0  0  0
  194.4890  173.9000  142.3810 C   0  0  0  0  0  0  0  0  0  0  0  0
  197.6620  172.1620  141.7290 O   0  0  0  0  0  0  0  0  0  0  0  0
  191.9610  174.6040  144.0330 C   0  0  2  0  0  3  0  0  0  0  0  0
  193.2430  173.5730  142.1990 N   0  0  0  0  0  0  0  0  0  0  0  0
  191.2670  176.7230  145.3780 C   0  0  2  0  0  3  0  0  0  0  0  0
  194.0660  175.8130  144.0730 C   0  0  0  0  0  2  0  0  0  0  0  0
  196.9080  173.0500  142.2040 C   0  0  0  0  0  0  0  0  0  0  0  0
  186.4250  178.2200  143.3380 S   0  0  0  0  0  0  0  0  0  0  0  0
  197.4780  174.1200  142.9500 N   0  0  0  0  0  1  0  0  0  0  0  0
  188.7190  175.4270  141.2980 N   0  0  0  0  0  0  0  0  0  0  0  0
  195.4920  172.9480  142.0010 N   0  0  0  0  0  2  0  0  0  0  0  0
  186.9250  177.8820  145.0620 C   0  0  2  0  0  3  0  0  0  0  0  0
  194.8840  175.2690  142.8920 C   0  0  0  0  0  2  0  0  0  0  0  0
  187.0360  176.8710  140.5650 O   0  0  0  0  0  0  0  0  0  0  0  0
  189.9020  176.0750  143.3440 C   0  0  2  0  0  3  0  0  0  0  0  0
  189.6300  175.1280  142.1800 C   0  0  0  0  0  0  0  0  0  0  0  0
  190.8050  175.5520  144.4920 C   0  0  1  0  0  3  0  0  0  0  0  0
  186.6850  179.0800  145.9790 C   0  0  0  0  0  2  0  0  0  0  0  0
  186.3020  177.8520  148.0040 O   0  0  0  0  0  1  0  0  0  0  0  0
  185.7290  178.7760  147.1300 C   0  0  2  0  0  3  0  0  0  0  0  0
  183.6690  179.0230  145.7520 O   0  0  0  0  0  0  0  0  0  0  0  0
  184.4440  178.2380  146.5970 C   0  0  0  0  0  0  0  0  0  0  0  0
  184.0660  177.0730  146.8880 O   0  0  0  0  0  1  0  0  0  0  0  0
  1 16  1  6  0  0  0
  1  2  1  0  0  0  0
  3 18  1  0  0  0  0
  3  6  2  0  0  0  0
  4  3  1  0  0  0  0
  6  5  1  0  0  0  0
  7 10  1  1  0  0  0
  7 13  1  0  0  0  0
  8  2  1  6  0  0  0
  8  9  1  0  0  0  0
 10 26  1  0  0  0  0
 11 23  1  0  0  0  0
 12 17  2  0  0  0  0
 13 27  1  0  0  0  0
 13  1  1  0  0  0  0
 14 11  2  0  0  0  0
 14  7  1  0  0  0  0
 15  8  1  0  0  0  0
 15  9  1  0  0  0  0
 17 19  1  0  0  0  0
 18 22  1  0  0  0  0
 20  4  1  0  0  0  0
 20 26  2  0  0  0  0
 21 17  1  0  0  0  0
 21 11  1  0  0  0  0
 22  5  1  0  0  0  0
 22 28  1  0  0  0  0
 23 16  1  0  0  0  0
 24  4  2  0  0  0  0
 25  6  1  0  0  0  0
 25 27  1  0  0  0  0
 26 25  1  0  0  0  0
 27 15  1  0  0  0  0
 28 30  1  0  0  0  0
 30 29  1  0  0  0  0
 31 32  2  0  0  0  0
 32 33  1  0  0  0  0
 32 30  1  0  0  0  0
M  END
>  <MODEL>
9

>  <REMARK>
 VINA RESULT:      -7.3      1.470      1.825
  Name = 
  3 active torsions:
  status: ('A' for Active; 'I' for Inactive)
    1  A    between atoms: C_12  and  C_14
    2  A    between atoms: C_12  and  C_31
    3  A    between atoms: C_14  and  C_26
                            x       y       z     vdW  Elec       q    Type
                         _______ _______ _______ _____ _____    ______ ____

>  <TORSDO>
F 3

$$$$
