=
 OpenBabel11042419353D

 32 34  0  0  1  0  0  0  0  0999 V2000
  191.1090  177.4840  144.1060 N   0  0  0  0  0  0  0  0  0  0  0  0
  189.4150  177.1400  145.8260 C   0  0  0  0  0  2  0  0  0  0  0  0
  191.4550  175.8850  147.4110 C   0  0  2  0  0  3  0  0  0  0  0  0
  190.7900  176.9780  145.2580 C   0  0  0  0  0  0  0  0  0  0  0  0
  191.7590  176.2440  146.0220 N   0  0  0  0  0  0  0  0  0  0  0  0
  190.0270  175.3380  147.5670 C   0  0  0  0  0  2  0  0  0  0  0  0
  189.0190  175.8320  146.5130 C   0  0  1  0  0  3  0  0  0  0  0  0
  191.6420  177.0900  148.3170 C   0  0  0  0  0  1  0  0  0  0  0  0
  192.9800  175.7590  145.3820 C   0  0  1  0  0  3  0  0  0  0  0  0
  194.1890  176.5040  145.8910 C   0  0  0  0  0  2  0  0  0  0  0  0
  195.2570  174.1170  144.5230 O   0  0  0  0  0  0  0  0  0  0  0  0
  195.6770  175.4360  144.2580 C   0  0  0  0  0  0  0  0  0  0  0  0
  196.6940  175.6220  143.2810 N   0  0  0  0  0  1  0  0  0  0  0  0
  194.1610  172.1780  145.6070 C   0  0  0  0  0  1  0  0  0  0  0  0
  194.1650  173.6240  145.2650 C   0  0  0  0  0  0  0  0  0  0  0  0
  195.2100  176.4880  144.8630 N   0  0  0  0  0  0  0  0  0  0  0  0
  193.1530  174.3440  145.6450 N   0  0  0  0  0  0  0  0  0  0  0  0
  188.1380  176.0500  141.3190 C   0  0  0  0  0  3  0  0  0  0  0  0
  189.1460  176.1990  142.2440 C   0  0  2  0  0  3  0  0  0  0  0  0
  190.1920  178.2070  143.3300 N   0  0  0  0  0  2  0  0  0  0  0  0
  188.3880  178.1990  141.6830 N   0  0  0  0  0  0  0  0  0  0  0  0
  187.7020  177.2910  141.0000 N   0  0  0  0  0  0  0  0  0  0  0  0
  189.8850  175.1510  142.8610 N   0  0  0  0  0  1  0  0  0  0  0  0
  189.2770  177.5500  142.4510 C   0  0  0  0  0  0  0  0  0  0  0  0
  187.5920  175.8770  147.0590 C   0  0  0  0  0  2  0  0  0  0  0  0
  186.8600  177.1790  146.7350 C   0  0  0  0  0  2  0  0  0  0  0  0
  185.3650  176.9620  146.5650 C   0  0  0  0  0  2  0  0  0  0  0  0
  184.4570  178.5150  146.8350 S   0  0  0  0  0  0  0  0  0  0  0  0
  184.1280  178.7460  145.0640 C   0  0  0  0  0  2  0  0  0  0  0  0
  184.9660  179.7360  144.5520 O   0  0  0  0  0  0  0  0  0  0  0  0
  184.6400  177.9920  142.9680 C   0  0  0  0  0  1  0  0  0  0  0  0
  185.4820  179.1850  143.3800 C   0  0  0  0  0  2  0  0  0  0  0  0
  1  4  2  0  0  0  0
  2  7  1  0  0  0  0
  3  6  1  0  0  0  0
  3  8  1  1  0  0  0
  4  2  1  0  0  0  0
  4  5  1  0  0  0  0
  5  3  1  0  0  0  0
  7 25  1  1  0  0  0
  7  6  1  0  0  0  0
  9 17  1  0  0  0  0
  9 10  1  1  0  0  0
  9  5  1  0  0  0  0
 11 15  1  0  0  0  0
 12 11  1  0  0  0  0
 12 16  2  0  0  0  0
 13 12  1  0  0  0  0
 15 14  1  0  0  0  0
 15 17  2  0  0  0  0
 16 10  1  0  0  0  0
 18 19  1  0  0  0  0
 19 24  1  0  0  0  0
 19 23  1  1  0  0  0
 20  1  1  0  0  0  0
 21 24  2  0  0  0  0
 22 18  2  0  0  0  0
 22 21  1  0  0  0  0
 24 20  1  0  0  0  0
 26 25  1  0  0  0  0
 27 26  1  0  0  0  0
 27 28  1  0  0  0  0
 29 28  1  0  0  0  0
 30 29  1  0  0  0  0
 31 32  1  0  0  0  0
 32 30  1  0  0  0  0
M  END
>  <MODEL>
1

>  <REMARK>
 VINA RESULT:      -7.3      0.000      0.000
  Name = 
  9 active torsions:
  status: ('A' for Active; 'I' for Inactive)
    1  A    between atoms: N_1  and  N_5
    2  A    between atoms: C_6  and  S_25
    3  A    between atoms: C_6  and  O_28
    4  A    between atoms: C_9  and  N_12
    5  A    between atoms: C_11  and  S_25
    6  A    between atoms: C_11  and  C_29
    7  A    between atoms: C_16  and  O_28
    8  A    between atoms: C_19  and  C_20
    9  A    between atoms: C_20  and  C_29
                            x       y       z     vdW  Elec       q    Type
                         _______ _______ _______ _____ _____    ______ ____

>  <TORSDO>
F 9

$$$$
=
 OpenBabel11042419353D

 32 34  0  0  1  0  0  0  0  0999 V2000
  190.3440  174.0760  142.9560 N   0  0  0  0  0  0  0  0  0  0  0  0
  188.3090  175.3670  142.5770 C   0  0  0  0  0  2  0  0  0  0  0  0
  189.6240  177.5810  143.8510 C   0  0  2  0  0  3  0  0  0  0  0  0
  189.6880  175.1830  143.1300 C   0  0  0  0  0  0  0  0  0  0  0  0
  190.2760  176.2680  143.8640 N   0  0  0  0  0  0  0  0  0  0  0  0
  188.1040  177.4720  144.0530 C   0  0  0  0  0  2  0  0  0  0  0  0
  187.4780  176.1390  143.6020 C   0  0  1  0  0  3  0  0  0  0  0  0
  189.9150  178.2970  142.5440 C   0  0  0  0  0  1  0  0  0  0  0  0
  191.4440  176.0300  144.7100 C   0  0  1  0  0  3  0  0  0  0  0  0
  192.6390  176.8020  144.2100 C   0  0  0  0  0  2  0  0  0  0  0  0
  193.3410  175.9590  146.9500 O   0  0  0  0  0  0  0  0  0  0  0  0
  194.1500  175.7290  145.8190 C   0  0  0  0  0  0  0  0  0  0  0  0
  195.3910  175.0650  146.0190 N   0  0  0  0  0  1  0  0  0  0  0  0
  191.5310  176.8270  148.4010 C   0  0  0  0  0  1  0  0  0  0  0  0
  192.0070  176.3990  147.0600 C   0  0  0  0  0  0  0  0  0  0  0  0
  193.8440  176.1040  144.6120 N   0  0  0  0  0  0  0  0  0  0  0  0
  191.1610  176.4300  146.0750 N   0  0  0  0  0  0  0  0  0  0  0  0
  191.6230  172.3370  139.2150 C   0  0  0  0  0  3  0  0  0  0  0  0
  191.4610  173.0840  140.3590 C   0  0  2  0  0  3  0  0  0  0  0  0
  189.8050  172.9940  142.2450 N   0  0  0  0  0  2  0  0  0  0  0  0
  189.8850  171.5360  140.2870 N   0  0  0  0  0  0  0  0  0  0  0  0
  190.6430  171.4040  139.2060 N   0  0  0  0  0  0  0  0  0  0  0  0
  192.2770  174.1730  140.7770 N   0  0  0  0  0  1  0  0  0  0  0  0
  190.3700  172.5600  141.0060 C   0  0  0  0  0  0  0  0  0  0  0  0
  186.0260  176.3090  143.1550 C   0  0  0  0  0  2  0  0  0  0  0  0
  185.7760  177.6040  142.3840 C   0  0  0  0  0  2  0  0  0  0  0  0
  184.5780  178.3650  142.9280 C   0  0  0  0  0  2  0  0  0  0  0  0
  185.0970  179.5460  144.2120 S   0  0  0  0  0  0  0  0  0  0  0  0
  184.0440  178.7820  145.4790 C   0  0  0  0  0  2  0  0  0  0  0  0
  184.7870  178.5560  146.6370 O   0  0  0  0  0  0  0  0  0  0  0  0
  186.3940  176.9040  147.2220 C   0  0  0  0  0  1  0  0  0  0  0  0
  185.0220  177.1820  146.6390 C   0  0  0  0  0  2  0  0  0  0  0  0
  1  4  2  0  0  0  0
  2  4  1  0  0  0  0
  2  7  1  0  0  0  0
  3  8  1  6  0  0  0
  3  5  1  0  0  0  0
  3  6  1  0  0  0  0
  4  5  1  0  0  0  0
  7 25  1  6  0  0  0
  7  6  1  0  0  0  0
  9  5  1  6  0  0  0
  9 17  1  0  0  0  0
 10 16  1  0  0  0  0
 10  9  1  0  0  0  0
 11 15  1  0  0  0  0
 12 13  1  0  0  0  0
 12 11  1  0  0  0  0
 15 14  1  0  0  0  0
 16 12  2  0  0  0  0
 17 15  2  0  0  0  0
 18 19  1  0  0  0  0
 19 23  1  1  0  0  0
 19 24  1  0  0  0  0
 20  1  1  0  0  0  0
 21 24  2  0  0  0  0
 22 18  2  0  0  0  0
 22 21  1  0  0  0  0
 24 20  1  0  0  0  0
 26 27  1  0  0  0  0
 26 25  1  0  0  0  0
 27 28  1  0  0  0  0
 28 29  1  0  0  0  0
 29 30  1  0  0  0  0
 30 32  1  0  0  0  0
 32 31  1  0  0  0  0
M  END
>  <MODEL>
2

>  <REMARK>
 VINA RESULT:      -6.7      2.461      4.137
  Name = 
  9 active torsions:
  status: ('A' for Active; 'I' for Inactive)
    1  A    between atoms: N_1  and  N_5
    2  A    between atoms: C_6  and  S_25
    3  A    between atoms: C_6  and  O_28
    4  A    between atoms: C_9  and  N_12
    5  A    between atoms: C_11  and  S_25
    6  A    between atoms: C_11  and  C_29
    7  A    between atoms: C_16  and  O_28
    8  A    between atoms: C_19  and  C_20
    9  A    between atoms: C_20  and  C_29
                            x       y       z     vdW  Elec       q    Type
                         _______ _______ _______ _____ _____    ______ ____

>  <TORSDO>
F 9

$$$$
=
 OpenBabel11042419353D

 32 34  0  0  1  0  0  0  0  0999 V2000
  188.8860  174.9840  143.6320 N   0  0  0  0  0  0  0  0  0  0  0  0
  189.9550  175.2630  145.8070 C   0  0  0  0  0  2  0  0  0  0  0  0
  187.9330  177.2110  146.4130 C   0  0  2  0  0  3  0  0  0  0  0  0
  188.9390  175.6140  144.7660 C   0  0  0  0  0  0  0  0  0  0  0  0
  188.0120  176.6740  145.0510 N   0  0  0  0  0  0  0  0  0  0  0  0
  189.3250  177.4490  147.0210 C   0  0  0  0  0  2  0  0  0  0  0  0
  190.4460  176.5560  146.4580 C   0  0  1  0  0  3  0  0  0  0  0  0
  187.1410  176.2690  147.3030 C   0  0  0  0  0  1  0  0  0  0  0  0
  187.2470  177.2870  143.9670 C   0  0  1  0  0  3  0  0  0  0  0  0
  186.1890  176.3430  143.4520 C   0  0  0  0  0  2  0  0  0  0  0  0
  185.4540  178.9980  142.3930 O   0  0  0  0  0  0  0  0  0  0  0  0
  185.5920  177.8400  141.6010 C   0  0  0  0  0  0  0  0  0  0  0  0
  185.3420  177.9600  140.2070 N   0  0  0  0  0  1  0  0  0  0  0  0
  185.2670  180.4780  144.3700 C   0  0  0  0  0  1  0  0  0  0  0  0
  185.8120  179.2520  143.7320 C   0  0  0  0  0  0  0  0  0  0  0  0
  185.9120  176.6690  142.0670 N   0  0  0  0  0  0  0  0  0  0  0  0
  186.6080  178.5020  144.4330 N   0  0  0  0  0  0  0  0  0  0  0  0
  189.8690  173.2870  139.7840 C   0  0  0  0  0  3  0  0  0  0  0  0
  189.3690  174.0160  140.8390 C   0  0  2  0  0  3  0  0  0  0  0  0
  189.7720  173.9440  143.3160 N   0  0  0  0  0  2  0  0  0  0  0  0
  190.7960  172.5190  141.6180 N   0  0  0  0  0  0  0  0  0  0  0  0
  190.7350  172.3840  140.2990 N   0  0  0  0  0  0  0  0  0  0  0  0
  188.4280  175.0810  140.7560 N   0  0  0  0  0  1  0  0  0  0  0  0
  189.9660  173.5130  141.9680 C   0  0  0  0  0  0  0  0  0  0  0  0
  191.5480  176.3010  147.4860 C   0  0  0  0  0  2  0  0  0  0  0  0
  192.4420  175.1130  147.1340 C   0  0  0  0  0  2  0  0  0  0  0  0
  193.5130  175.4890  146.1220 C   0  0  0  0  0  2  0  0  0  0  0  0
  193.5020  174.3330  144.7170 S   0  0  0  0  0  0  0  0  0  0  0  0
  193.5960  175.6680  143.4900 C   0  0  0  0  0  2  0  0  0  0  0  0
  192.9010  176.7850  143.9520 O   0  0  0  0  0  0  0  0  0  0  0  0
  191.1100  178.2350  143.3660 C   0  0  0  0  0  1  0  0  0  0  0  0
  191.9130  177.0030  142.9940 C   0  0  0  0  0  2  0  0  0  0  0  0
  1  4  2  0  0  0  0
  2  7  1  0  0  0  0
  3  6  1  0  0  0  0
  3  8  1  1  0  0  0
  4  5  1  0  0  0  0
  4  2  1  0  0  0  0
  5  3  1  0  0  0  0
  7  6  1  0  0  0  0
  7 25  1  1  0  0  0
  9 10  1  1  0  0  0
  9 17  1  0  0  0  0
  9  5  1  0  0  0  0
 11 15  1  0  0  0  0
 12 16  2  0  0  0  0
 12 11  1  0  0  0  0
 13 12  1  0  0  0  0
 15 14  1  0  0  0  0
 15 17  2  0  0  0  0
 16 10  1  0  0  0  0
 18 22  2  0  0  0  0
 18 19  1  0  0  0  0
 19 23  1  6  0  0  0
 19 24  1  0  0  0  0
 20  1  1  0  0  0  0
 21 24  2  0  0  0  0
 22 21  1  0  0  0  0
 24 20  1  0  0  0  0
 26 25  1  0  0  0  0
 27 26  1  0  0  0  0
 28 27  1  0  0  0  0
 29 30  1  0  0  0  0
 29 28  1  0  0  0  0
 32 31  1  0  0  0  0
 32 30  1  0  0  0  0
M  END
>  <MODEL>
3

>  <REMARK>
 VINA RESULT:      -6.7      3.260      7.070
  Name = 
  9 active torsions:
  status: ('A' for Active; 'I' for Inactive)
    1  A    between atoms: N_1  and  N_5
    2  A    between atoms: C_6  and  S_25
    3  A    between atoms: C_6  and  O_28
    4  A    between atoms: C_9  and  N_12
    5  A    between atoms: C_11  and  S_25
    6  A    between atoms: C_11  and  C_29
    7  A    between atoms: C_16  and  O_28
    8  A    between atoms: C_19  and  C_20
    9  A    between atoms: C_20  and  C_29
                            x       y       z     vdW  Elec       q    Type
                         _______ _______ _______ _____ _____    ______ ____

>  <TORSDO>
F 9

$$$$
=
 OpenBabel11042419353D

 32 34  0  0  1  0  0  0  0  0999 V2000
  189.8060  176.8280  143.3440 N   0  0  0  0  0  0  0  0  0  0  0  0
  188.7290  177.0920  145.5160 C   0  0  0  0  0  2  0  0  0  0  0  0
  190.6840  175.2700  146.5690 C   0  0  2  0  0  3  0  0  0  0  0  0
  189.7330  176.4780  144.5910 C   0  0  0  0  0  0  0  0  0  0  0  0
  190.6240  175.4820  145.1190 N   0  0  0  0  0  0  0  0  0  0  0  0
  189.2860  175.2240  147.2050 C   0  0  0  0  0  2  0  0  0  0  0  0
  188.1950  176.0000  146.4430 C   0  0  1  0  0  3  0  0  0  0  0  0
  191.5070  176.3650  147.2240 C   0  0  0  0  0  1  0  0  0  0  0  0
  191.3670  174.6110  144.2110 C   0  0  1  0  0  3  0  0  0  0  0  0
  192.5560  173.9970  144.9070 C   0  0  0  0  0  2  0  0  0  0  0  0
  192.1860  172.4160  142.4430 O   0  0  0  0  0  0  0  0  0  0  0  0
  193.4060  173.0070  142.8280 C   0  0  0  0  0  0  0  0  0  0  0  0
  194.5320  172.8110  141.9820 N   0  0  0  0  0  1  0  0  0  0  0  0
  189.8510  171.5950  142.5190 C   0  0  0  0  0  1  0  0  0  0  0  0
  190.8780  172.5810  142.9410 C   0  0  0  0  0  0  0  0  0  0  0  0
  193.5710  173.7000  143.9160 N   0  0  0  0  0  0  0  0  0  0  0  0
  190.5080  173.5520  143.7200 N   0  0  0  0  0  0  0  0  0  0  0  0
  186.9290  176.4510  140.1440 C   0  0  0  0  0  3  0  0  0  0  0  0
  187.8940  176.2630  141.1080 C   0  0  2  0  0  3  0  0  0  0  0  0
  188.9560  177.7960  142.7900 N   0  0  0  0  0  2  0  0  0  0  0  0
  187.2370  178.3740  141.1540 N   0  0  0  0  0  0  0  0  0  0  0  0
  186.5550  177.7490  140.2020 N   0  0  0  0  0  0  0  0  0  0  0  0
  188.5640  175.0430  141.4040 N   0  0  0  0  0  1  0  0  0  0  0  0
  188.0630  177.4800  141.7200 C   0  0  0  0  0  0  0  0  0  0  0  0
  187.1020  176.5200  147.3760 C   0  0  0  0  0  2  0  0  0  0  0  0
  186.3160  177.6940  146.7940 C   0  0  0  0  0  2  0  0  0  0  0  0
  184.8460  177.3540  146.6050 C   0  0  0  0  0  2  0  0  0  0  0  0
  183.9810  178.7070  145.7500 S   0  0  0  0  0  0  0  0  0  0  0  0
  185.4220  179.1130  144.7220 C   0  0  0  0  0  2  0  0  0  0  0  0
  185.0350  179.2190  143.3860 O   0  0  0  0  0  0  0  0  0  0  0  0
  183.4320  178.1870  141.9650 C   0  0  0  0  0  1  0  0  0  0  0  0
  184.4170  178.0020  143.1040 C   0  0  0  0  0  2  0  0  0  0  0  0
  1  4  2  0  0  0  0
  2  7  1  0  0  0  0
  3  6  1  0  0  0  0
  3  8  1  1  0  0  0
  4  5  1  0  0  0  0
  4  2  1  0  0  0  0
  5  3  1  0  0  0  0
  7  6  1  0  0  0  0
  7 25  1  1  0  0  0
  9 10  1  1  0  0  0
  9  5  1  0  0  0  0
 11 12  1  0  0  0  0
 11 15  1  0  0  0  0
 12 16  2  0  0  0  0
 13 12  1  0  0  0  0
 14 15  1  0  0  0  0
 15 17  2  0  0  0  0
 16 10  1  0  0  0  0
 17  9  1  0  0  0  0
 18 22  2  0  0  0  0
 18 19  1  0  0  0  0
 19 23  1  1  0  0  0
 19 24  1  0  0  0  0
 20  1  1  0  0  0  0
 21 24  2  0  0  0  0
 22 21  1  0  0  0  0
 24 20  1  0  0  0  0
 26 25  1  0  0  0  0
 27 26  1  0  0  0  0
 28 27  1  0  0  0  0
 29 28  1  0  0  0  0
 30 29  1  0  0  0  0
 31 32  1  0  0  0  0
 32 30  1  0  0  0  0
M  END
>  <MODEL>
4

>  <REMARK>
 VINA RESULT:      -6.7      1.979      2.302
  Name = 
  9 active torsions:
  status: ('A' for Active; 'I' for Inactive)
    1  A    between atoms: N_1  and  N_5
    2  A    between atoms: C_6  and  S_25
    3  A    between atoms: C_6  and  O_28
    4  A    between atoms: C_9  and  N_12
    5  A    between atoms: C_11  and  S_25
    6  A    between atoms: C_11  and  C_29
    7  A    between atoms: C_16  and  O_28
    8  A    between atoms: C_19  and  C_20
    9  A    between atoms: C_20  and  C_29
                            x       y       z     vdW  Elec       q    Type
                         _______ _______ _______ _____ _____    ______ ____

>  <TORSDO>
F 9

$$$$
=
 OpenBabel11042419353D

 32 34  0  0  1  0  0  0  0  0999 V2000
  191.9300  177.1210  143.1100 N   0  0  0  0  0  0  0  0  0  0  0  0
  191.3750  176.8040  145.4630 C   0  0  0  0  0  2  0  0  0  0  0  0
  194.0640  175.8690  145.8450 C   0  0  2  0  0  3  0  0  0  0  0  0
  192.2900  176.7010  144.2840 C   0  0  0  0  0  0  0  0  0  0  0  0
  193.5890  176.1210  144.4800 N   0  0  0  0  0  0  0  0  0  0  0  0
  192.9790  175.2270  146.7240 C   0  0  0  0  0  2  0  0  0  0  0  0
  191.5300  175.5380  146.3070 C   0  0  1  0  0  3  0  0  0  0  0  0
  194.5370  177.1640  146.4820 C   0  0  0  0  0  1  0  0  0  0  0  0
  194.3740  175.6770  143.3300 C   0  0  1  0  0  3  0  0  0  0  0  0
  195.7130  176.3710  143.2910 C   0  0  0  0  0  2  0  0  0  0  0  0
  195.9560  174.0900  141.4340 O   0  0  0  0  0  0  0  0  0  0  0  0
  196.2680  175.4220  141.0960 C   0  0  0  0  0  0  0  0  0  0  0  0
  196.7480  175.6750  139.7820 N   0  0  0  0  0  1  0  0  0  0  0  0
  195.3770  172.0810  142.7620 C   0  0  0  0  0  1  0  0  0  0  0  0
  195.2900  173.5490  142.5520 C   0  0  0  0  0  0  0  0  0  0  0  0
  196.1660  176.4270  141.9150 N   0  0  0  0  0  0  0  0  0  0  0  0
  194.5860  174.2450  143.3930 N   0  0  0  0  0  0  0  0  0  0  0  0
  188.3010  175.2800  141.6630 C   0  0  0  0  0  3  0  0  0  0  0  0
  189.5740  175.5740  142.0960 C   0  0  2  0  0  3  0  0  0  0  0  0
  190.6710  177.6930  142.8770 N   0  0  0  0  0  2  0  0  0  0  0  0
  188.3580  177.4200  142.1420 N   0  0  0  0  0  0  0  0  0  0  0  0
  187.5900  176.4300  141.7040 N   0  0  0  0  0  0  0  0  0  0  0  0
  190.6550  174.6570  142.2200 N   0  0  0  0  0  1  0  0  0  0  0  0
  189.5770  176.9150  142.3870 C   0  0  0  0  0  0  0  0  0  0  0  0
  190.5720  175.5200  147.4980 C   0  0  0  0  0  2  0  0  0  0  0  0
  189.2770  174.7570  147.2230 C   0  0  0  0  0  2  0  0  0  0  0  0
  188.0610  175.6680  147.2780 C   0  0  0  0  0  2  0  0  0  0  0  0
  187.7270  176.3910  145.6410 S   0  0  0  0  0  0  0  0  0  0  0  0
  186.2280  177.2420  146.2130 C   0  0  0  0  0  2  0  0  0  0  0  0
  186.5760  178.2930  147.0610 O   0  0  0  0  0  0  0  0  0  0  0  0
  184.2620  178.2990  146.5130 C   0  0  0  0  0  1  0  0  0  0  0  0
  185.3940  179.0140  147.2250 C   0  0  0  0  0  2  0  0  0  0  0  0
  1  4  2  0  0  0  0
  2  7  1  0  0  0  0
  3  8  1  1  0  0  0
  3  6  1  0  0  0  0
  4  5  1  0  0  0  0
  4  2  1  0  0  0  0
  5  3  1  0  0  0  0
  7  6  1  0  0  0  0
  7 25  1  1  0  0  0
  9 10  1  1  0  0  0
  9 17  1  0  0  0  0
  9  5  1  0  0  0  0
 11 15  1  0  0  0  0
 12 11  1  0  0  0  0
 12 16  2  0  0  0  0
 13 12  1  0  0  0  0
 15 14  1  0  0  0  0
 15 17  2  0  0  0  0
 16 10  1  0  0  0  0
 18 22  2  0  0  0  0
 18 19  1  0  0  0  0
 19 23  1  1  0  0  0
 19 24  1  0  0  0  0
 20  1  1  0  0  0  0
 21 24  2  0  0  0  0
 22 21  1  0  0  0  0
 24 20  1  0  0  0  0
 26 27  1  0  0  0  0
 26 25  1  0  0  0  0
 28 29  1  0  0  0  0
 28 27  1  0  0  0  0
 29 30  1  0  0  0  0
 30 32  1  0  0  0  0
 31 32  1  0  0  0  0
M  END
>  <MODEL>
5

>  <REMARK>
 VINA RESULT:      -6.6      1.942      2.706
  Name = 
  9 active torsions:
  status: ('A' for Active; 'I' for Inactive)
    1  A    between atoms: N_1  and  N_5
    2  A    between atoms: C_6  and  S_25
    3  A    between atoms: C_6  and  O_28
    4  A    between atoms: C_9  and  N_12
    5  A    between atoms: C_11  and  S_25
    6  A    between atoms: C_11  and  C_29
    7  A    between atoms: C_16  and  O_28
    8  A    between atoms: C_19  and  C_20
    9  A    between atoms: C_20  and  C_29
                            x       y       z     vdW  Elec       q    Type
                         _______ _______ _______ _____ _____    ______ ____

>  <TORSDO>
F 9

$$$$
=
 OpenBabel11042419353D

 32 34  0  0  1  0  0  0  0  0999 V2000
  189.8740  175.7600  143.1440 N   0  0  0  0  0  0  0  0  0  0  0  0
  191.3870  175.5230  145.0410 C   0  0  0  0  0  2  0  0  0  0  0  0
  189.1690  176.1980  146.7370 C   0  0  2  0  0  3  0  0  0  0  0  0
  190.0680  175.8630  144.4230 C   0  0  0  0  0  0  0  0  0  0  0  0
  189.0090  176.3100  145.2840 N   0  0  0  0  0  0  0  0  0  0  0  0
  190.5590  176.6610  147.2020 C   0  0  0  0  0  2  0  0  0  0  0  0
  191.6760  176.5350  146.1500 C   0  0  1  0  0  3  0  0  0  0  0  0
  188.9350  174.7640  147.1800 C   0  0  0  0  0  1  0  0  0  0  0  0
  187.8390  176.9800  144.7180 C   0  0  1  0  0  3  0  0  0  0  0  0
  186.8640  175.9770  144.1540 C   0  0  0  0  0  2  0  0  0  0  0  0
  185.3570  178.5060  144.3600 O   0  0  0  0  0  0  0  0  0  0  0  0
  185.4440  177.7300  143.1870 C   0  0  0  0  0  0  0  0  0  0  0  0
  184.7450  178.1890  142.0380 N   0  0  0  0  0  1  0  0  0  0  0  0
  185.5440  179.2050  146.7290 C   0  0  0  0  0  1  0  0  0  0  0  0
  186.0710  178.4350  145.5730 C   0  0  0  0  0  0  0  0  0  0  0  0
  186.1040  176.6140  143.0970 N   0  0  0  0  0  0  0  0  0  0  0  0
  187.1720  177.7650  145.7370 N   0  0  0  0  0  0  0  0  0  0  0  0
  189.9450  172.3320  140.5170 C   0  0  0  0  0  3  0  0  0  0  0  0
  189.6330  173.3180  141.4260 C   0  0  2  0  0  3  0  0  0  0  0  0
  190.8810  175.3270  142.2690 N   0  0  0  0  0  2  0  0  0  0  0  0
  191.6610  173.6950  140.6290 N   0  0  0  0  0  0  0  0  0  0  0  0
  191.1890  172.5960  140.0540 N   0  0  0  0  0  0  0  0  0  0  0  0
  188.4170  173.4390  142.1540 N   0  0  0  0  0  1  0  0  0  0  0  0
  190.7230  174.1520  141.4730 C   0  0  0  0  0  0  0  0  0  0  0  0
  193.0460  176.3120  146.7900 C   0  0  0  0  0  2  0  0  0  0  0  0
  194.0900  175.7690  145.8150 C   0  0  0  0  0  2  0  0  0  0  0  0
  194.9090  176.8830  145.1830 C   0  0  0  0  0  2  0  0  0  0  0  0
  195.7700  176.2800  143.6970 S   0  0  0  0  0  0  0  0  0  0  0  0
  195.6700  174.5450  144.2210 C   0  0  0  0  0  2  0  0  0  0  0  0
  196.8500  173.8810  143.8870 O   0  0  0  0  0  0  0  0  0  0  0  0
  196.9790  173.4650  146.2240 C   0  0  0  0  0  1  0  0  0  0  0  0
  197.6700  174.0420  145.0020 C   0  0  0  0  0  2  0  0  0  0  0  0
  1  4  2  0  0  0  0
  2  7  1  0  0  0  0
  3  8  1  6  0  0  0
  3  6  1  0  0  0  0
  4  2  1  0  0  0  0
  4  5  1  0  0  0  0
  5  3  1  0  0  0  0
  7 25  1  1  0  0  0
  7  6  1  0  0  0  0
  9 10  1  1  0  0  0
  9  5  1  0  0  0  0
  9 17  1  0  0  0  0
 11 15  1  0  0  0  0
 12 11  1  0  0  0  0
 13 12  1  0  0  0  0
 15 17  2  0  0  0  0
 15 14  1  0  0  0  0
 16 12  2  0  0  0  0
 16 10  1  0  0  0  0
 18 19  1  0  0  0  0
 19 24  1  0  0  0  0
 19 23  1  6  0  0  0
 20  1  1  0  0  0  0
 21 24  2  0  0  0  0
 22 18  2  0  0  0  0
 22 21  1  0  0  0  0
 24 20  1  0  0  0  0
 26 25  1  0  0  0  0
 27 26  1  0  0  0  0
 28 29  1  0  0  0  0
 28 27  1  0  0  0  0
 30 29  1  0  0  0  0
 30 32  1  0  0  0  0
 32 31  1  0  0  0  0
M  END
>  <MODEL>
6

>  <REMARK>
 VINA RESULT:      -6.6      3.211      7.902
  Name = 
  9 active torsions:
  status: ('A' for Active; 'I' for Inactive)
    1  A    between atoms: N_1  and  N_5
    2  A    between atoms: C_6  and  S_25
    3  A    between atoms: C_6  and  O_28
    4  A    between atoms: C_9  and  N_12
    5  A    between atoms: C_11  and  S_25
    6  A    between atoms: C_11  and  C_29
    7  A    between atoms: C_16  and  O_28
    8  A    between atoms: C_19  and  C_20
    9  A    between atoms: C_20  and  C_29
                            x       y       z     vdW  Elec       q    Type
                         _______ _______ _______ _____ _____    ______ ____

>  <TORSDO>
F 9

$$$$
=
 OpenBabel11042419353D

 32 34  0  0  1  0  0  0  0  0999 V2000
  190.2230  174.5900  142.0100 N   0  0  0  0  0  0  0  0  0  0  0  0
  188.7550  175.8800  143.4680 C   0  0  0  0  0  2  0  0  0  0  0  0
  191.1090  177.1590  144.5030 C   0  0  2  0  0  3  0  0  0  0  0  0
  190.1000  175.4520  142.9720 C   0  0  0  0  0  0  0  0  0  0  0  0
  191.2650  176.0230  143.5880 N   0  0  0  0  0  0  0  0  0  0  0  0
  189.9470  176.9520  145.4870 C   0  0  0  0  0  2  0  0  0  0  0  0
  188.8240  176.0240  144.9880 C   0  0  1  0  0  3  0  0  0  0  0  0
  190.8890  178.4390  143.7160 C   0  0  0  0  0  1  0  0  0  0  0  0
  192.5730  175.3990  143.3990 C   0  0  1  0  0  3  0  0  0  0  0  0
  193.3480  176.0930  142.3060 C   0  0  0  0  0  2  0  0  0  0  0  0
  195.3300  174.4560  143.7560 O   0  0  0  0  0  0  0  0  0  0  0  0
  195.1420  174.4190  142.3590 C   0  0  0  0  0  0  0  0  0  0  0  0
  195.9760  173.5510  141.6030 N   0  0  0  0  0  1  0  0  0  0  0  0
  195.1760  175.1620  146.1250 C   0  0  0  0  0  1  0  0  0  0  0  0
  194.5580  175.0420  144.7790 C   0  0  0  0  0  0  0  0  0  0  0  0
  194.2720  175.1430  141.7190 N   0  0  0  0  0  0  0  0  0  0  0  0
  193.3370  175.4580  144.6290 N   0  0  0  0  0  0  0  0  0  0  0  0
  189.9650  172.5640  138.2040 C   0  0  0  0  0  3  0  0  0  0  0  0
  190.3530  173.2360  139.3410 C   0  0  2  0  0  3  0  0  0  0  0  0
  189.1120  174.0100  141.3820 N   0  0  0  0  0  2  0  0  0  0  0  0
  188.1860  172.8180  139.4610 N   0  0  0  0  0  0  0  0  0  0  0  0
  188.6370  172.3280  138.3140 N   0  0  0  0  0  0  0  0  0  0  0  0
  191.6700  173.6780  139.6500 N   0  0  0  0  0  1  0  0  0  0  0  0
  189.2220  173.3790  140.1040 C   0  0  0  0  0  0  0  0  0  0  0  0
  187.4680  176.3850  145.5950 C   0  0  0  0  0  2  0  0  0  0  0  0
  187.5340  177.5610  146.5690 C   0  0  0  0  0  2  0  0  0  0  0  0
  186.3030  177.6290  147.4590 C   0  0  0  0  0  2  0  0  0  0  0  0
  184.7850  177.4860  146.4650 S   0  0  0  0  0  0  0  0  0  0  0  0
  185.0020  179.1270  145.7160 C   0  0  0  0  0  2  0  0  0  0  0  0
  184.2330  179.2220  144.5570 O   0  0  0  0  0  0  0  0  0  0  0  0
  186.0480  178.8420  143.0680 C   0  0  0  0  0  1  0  0  0  0  0  0
  184.7850  178.2780  143.6920 C   0  0  0  0  0  2  0  0  0  0  0  0
  1  4  2  0  0  0  0
  2  7  1  0  0  0  0
  3  8  1  6  0  0  0
  3  6  1  0  0  0  0
  4  2  1  0  0  0  0
  4  5  1  0  0  0  0
  5  3  1  0  0  0  0
  7  6  1  0  0  0  0
  7 25  1  6  0  0  0
  9 10  1  6  0  0  0
  9  5  1  0  0  0  0
  9 17  1  0  0  0  0
 11 15  1  0  0  0  0
 12 11  1  0  0  0  0
 13 12  1  0  0  0  0
 15 14  1  0  0  0  0
 16 10  1  0  0  0  0
 16 12  2  0  0  0  0
 17 15  2  0  0  0  0
 18 22  2  0  0  0  0
 18 19  1  0  0  0  0
 19 23  1  1  0  0  0
 19 24  1  0  0  0  0
 20  1  1  0  0  0  0
 21 24  2  0  0  0  0
 22 21  1  0  0  0  0
 24 20  1  0  0  0  0
 25 26  1  0  0  0  0
 26 27  1  0  0  0  0
 28 27  1  0  0  0  0
 29 28  1  0  0  0  0
 30 29  1  0  0  0  0
 31 32  1  0  0  0  0
 32 30  1  0  0  0  0
M  END
>  <MODEL>
7

>  <REMARK>
 VINA RESULT:      -6.5      2.423      3.170
  Name = 
  9 active torsions:
  status: ('A' for Active; 'I' for Inactive)
    1  A    between atoms: N_1  and  N_5
    2  A    between atoms: C_6  and  S_25
    3  A    between atoms: C_6  and  O_28
    4  A    between atoms: C_9  and  N_12
    5  A    between atoms: C_11  and  S_25
    6  A    between atoms: C_11  and  C_29
    7  A    between atoms: C_16  and  O_28
    8  A    between atoms: C_19  and  C_20
    9  A    between atoms: C_20  and  C_29
                            x       y       z     vdW  Elec       q    Type
                         _______ _______ _______ _____ _____    ______ ____

>  <TORSDO>
F 9

$$$$
=
 OpenBabel11042419353D

 32 34  0  0  1  0  0  0  0  0999 V2000
  189.8870  175.8480  143.2320 N   0  0  0  0  0  0  0  0  0  0  0  0
  191.3920  175.6150  145.1370 C   0  0  0  0  0  2  0  0  0  0  0  0
  189.1540  176.2430  146.8250 C   0  0  2  0  0  3  0  0  0  0  0  0
  190.0720  175.9420  144.5130 C   0  0  0  0  0  0  0  0  0  0  0  0
  189.0010  176.3660  145.3720 N   0  0  0  0  0  0  0  0  0  0  0  0
  190.5340  176.7220  147.3030 C   0  0  0  0  0  2  0  0  0  0  0  0
  191.6590  176.6220  146.2570 C   0  0  1  0  0  3  0  0  0  0  0  0
  188.9380  174.8020  147.2540 C   0  0  0  0  0  1  0  0  0  0  0  0
  187.8250  177.0240  144.8040 C   0  0  1  0  0  3  0  0  0  0  0  0
  186.9030  176.0180  144.1610 C   0  0  0  0  0  2  0  0  0  0  0  0
  185.3030  178.4820  144.4470 O   0  0  0  0  0  0  0  0  0  0  0  0
  185.4510  177.7700  143.2390 C   0  0  0  0  0  0  0  0  0  0  0  0
  184.7690  178.2630  142.0930 N   0  0  0  0  0  1  0  0  0  0  0  0
  185.3960  179.0640  146.8520 C   0  0  0  0  0  1  0  0  0  0  0  0
  185.9830  178.3730  145.6760 C   0  0  0  0  0  0  0  0  0  0  0  0
  186.1520  176.6820  143.1140 N   0  0  0  0  0  0  0  0  0  0  0  0
  187.1020  177.7330  145.8400 N   0  0  0  0  0  0  0  0  0  0  0  0
  190.1370  172.3060  140.7720 C   0  0  0  0  0  3  0  0  0  0  0  0
  189.7770  173.3140  141.6380 C   0  0  2  0  0  3  0  0  0  0  0  0
  190.9060  175.4370  142.3610 N   0  0  0  0  0  2  0  0  0  0  0  0
  191.7630  173.7790  140.7860 N   0  0  0  0  0  0  0  0  0  0  0  0
  191.3540  172.6250  140.2740 N   0  0  0  0  0  0  0  0  0  0  0  0
  188.5670  173.3930  142.3830 N   0  0  0  0  0  1  0  0  0  0  0  0
  190.8110  174.2160  141.6250 C   0  0  0  0  0  0  0  0  0  0  0  0
  193.0280  176.4130  146.9040 C   0  0  0  0  0  2  0  0  0  0  0  0
  194.1820  176.4280  145.9010 C   0  0  0  0  0  2  0  0  0  0  0  0
  195.1380  175.2670  146.1200 C   0  0  0  0  0  2  0  0  0  0  0  0
  196.0630  174.9020  144.5950 S   0  0  0  0  0  0  0  0  0  0  0  0
  194.8880  175.8100  143.5490 C   0  0  0  0  0  2  0  0  0  0  0  0
  194.6920  175.1210  142.3520 O   0  0  0  0  0  0  0  0  0  0  0  0
  196.0020  176.7850  141.2700 C   0  0  0  0  0  1  0  0  0  0  0  0
  194.6440  176.1180  141.3790 C   0  0  0  0  0  2  0  0  0  0  0  0
  1  4  2  0  0  0  0
  2  7  1  0  0  0  0
  3  8  1  6  0  0  0
  3  6  1  0  0  0  0
  4  2  1  0  0  0  0
  4  5  1  0  0  0  0
  5  3  1  0  0  0  0
  7 25  1  1  0  0  0
  7  6  1  0  0  0  0
  9 10  1  1  0  0  0
  9  5  1  0  0  0  0
  9 17  1  0  0  0  0
 11 15  1  0  0  0  0
 12 11  1  0  0  0  0
 13 12  1  0  0  0  0
 15 17  2  0  0  0  0
 15 14  1  0  0  0  0
 16 12  2  0  0  0  0
 16 10  1  0  0  0  0
 18 19  1  0  0  0  0
 19 23  1  6  0  0  0
 20  1  1  0  0  0  0
 21 24  2  0  0  0  0
 22 18  2  0  0  0  0
 22 21  1  0  0  0  0
 24 19  1  0  0  0  0
 24 20  1  0  0  0  0
 26 27  1  0  0  0  0
 26 25  1  0  0  0  0
 28 27  1  0  0  0  0
 29 28  1  0  0  0  0
 30 29  1  0  0  0  0
 31 32  1  0  0  0  0
 32 30  1  0  0  0  0
M  END
>  <MODEL>
8

>  <REMARK>
 VINA RESULT:      -6.4      3.261      7.504
  Name = 
  9 active torsions:
  status: ('A' for Active; 'I' for Inactive)
    1  A    between atoms: N_1  and  N_5
    2  A    between atoms: C_6  and  S_25
    3  A    between atoms: C_6  and  O_28
    4  A    between atoms: C_9  and  N_12
    5  A    between atoms: C_11  and  S_25
    6  A    between atoms: C_11  and  C_29
    7  A    between atoms: C_16  and  O_28
    8  A    between atoms: C_19  and  C_20
    9  A    between atoms: C_20  and  C_29
                            x       y       z     vdW  Elec       q    Type
                         _______ _______ _______ _____ _____    ______ ____

>  <TORSDO>
F 9

$$$$
=
 OpenBabel11042419353D

 32 34  0  0  1  0  0  0  0  0999 V2000
  189.7270  173.5410  144.6300 N   0  0  0  0  0  0  0  0  0  0  0  0
  192.0320  173.8360  145.3710 C   0  0  0  0  0  2  0  0  0  0  0  0
  191.1880  176.2810  146.6210 C   0  0  2  0  0  3  0  0  0  0  0  0
  190.6110  174.2830  145.2220 C   0  0  0  0  0  0  0  0  0  0  0  0
  190.2430  175.5650  145.7560 N   0  0  0  0  0  0  0  0  0  0  0  0
  192.6190  176.2500  146.0610 C   0  0  0  0  0  2  0  0  0  0  0  0
  192.9430  175.0450  145.1600 C   0  0  1  0  0  3  0  0  0  0  0  0
  191.1730  175.6860  148.0180 C   0  0  0  0  0  1  0  0  0  0  0  0
  188.9930  176.1980  145.3420 C   0  0  1  0  0  3  0  0  0  0  0  0
  188.5410  177.2160  146.3590 C   0  0  0  0  0  2  0  0  0  0  0  0
  186.9590  177.7770  143.9320 O   0  0  0  0  0  0  0  0  0  0  0  0
  186.4020  177.5820  145.2130 C   0  0  0  0  0  0  0  0  0  0  0  0
  184.9900  177.6820  145.3410 N   0  0  0  0  0  1  0  0  0  0  0  0
  188.6120  178.1370  142.1240 C   0  0  0  0  0  1  0  0  0  0  0  0
  188.2620  177.5550  143.4450 C   0  0  0  0  0  0  0  0  0  0  0  0
  187.0990  177.3400  146.2830 N   0  0  0  0  0  0  0  0  0  0  0  0
  189.1660  176.8550  144.0620 N   0  0  0  0  0  0  0  0  0  0  0  0
  190.1480  172.3360  140.5030 C   0  0  0  0  0  3  0  0  0  0  0  0
  189.9530  173.0030  141.6920 C   0  0  2  0  0  3  0  0  0  0  0  0
  190.0460  172.2840  144.0960 N   0  0  0  0  0  2  0  0  0  0  0  0
  190.4320  170.8900  142.1280 N   0  0  0  0  0  0  0  0  0  0  0  0
  190.4360  171.0500  140.8110 N   0  0  0  0  0  0  0  0  0  0  0  0
  189.6350  174.3820  141.8410 N   0  0  0  0  0  1  0  0  0  0  0  0
  190.1370  172.0750  142.6860 C   0  0  0  0  0  0  0  0  0  0  0  0
  194.4230  174.6670  145.2160 C   0  0  0  0  0  2  0  0  0  0  0  0
  195.3590  175.8320  144.8970 C   0  0  0  0  0  2  0  0  0  0  0  0
  196.5010  175.4090  143.9880 C   0  0  0  0  0  2  0  0  0  0  0  0
  196.5310  176.4280  142.4800 S   0  0  0  0  0  0  0  0  0  0  0  0
  195.3050  175.3880  141.6340 C   0  0  0  0  0  2  0  0  0  0  0  0
  194.0520  175.9990  141.6860 O   0  0  0  0  0  0  0  0  0  0  0  0
  193.8580  173.6290  141.6980 C   0  0  0  0  0  1  0  0  0  0  0  0
  193.1470  174.9550  141.5020 C   0  0  0  0  0  2  0  0  0  0  0  0
  1  4  2  0  0  0  0
  3  8  1  1  0  0  0
  4  2  1  0  0  0  0
  4  5  1  0  0  0  0
  5  3  1  0  0  0  0
  6  3  1  0  0  0  0
  7 25  1  1  0  0  0
  7  2  1  0  0  0  0
  7  6  1  0  0  0  0
  9  5  1  1  0  0  0
  9 10  1  0  0  0  0
 11 12  1  0  0  0  0
 12 13  1  0  0  0  0
 12 16  2  0  0  0  0
 14 15  1  0  0  0  0
 15 11  1  0  0  0  0
 15 17  2  0  0  0  0
 16 10  1  0  0  0  0
 17  9  1  0  0  0  0
 18 22  2  0  0  0  0
 18 19  1  0  0  0  0
 19 23  1  1  0  0  0
 19 24  1  0  0  0  0
 20  1  1  0  0  0  0
 21 24  2  0  0  0  0
 22 21  1  0  0  0  0
 24 20  1  0  0  0  0
 26 25  1  0  0  0  0
 27 26  1  0  0  0  0
 28 27  1  0  0  0  0
 29 30  1  0  0  0  0
 29 28  1  0  0  0  0
 32 30  1  0  0  0  0
 32 31  1  0  0  0  0
M  END
>  <MODEL>
9

>  <REMARK>
 VINA RESULT:      -6.3      3.556      7.378
  Name = 
  9 active torsions:
  status: ('A' for Active; 'I' for Inactive)
    1  A    between atoms: N_1  and  N_5
    2  A    between atoms: C_6  and  S_25
    3  A    between atoms: C_6  and  O_28
    4  A    between atoms: C_9  and  N_12
    5  A    between atoms: C_11  and  S_25
    6  A    between atoms: C_11  and  C_29
    7  A    between atoms: C_16  and  O_28
    8  A    between atoms: C_19  and  C_20
    9  A    between atoms: C_20  and  C_29
                            x       y       z     vdW  Elec       q    Type
                         _______ _______ _______ _____ _____    ______ ____

>  <TORSDO>
F 9

$$$$
