=
 OpenBabel11042416093D

 34 36  0  0  1  0  0  0  0  0999 V2000
  189.5540  174.2780  141.5530 C   0  0  2  0  0  3  0  0  0  0  0  0
  188.9380  177.0030  143.9560 C   0  0  2  0  0  3  0  0  0  0  0  0
  188.7240  175.1250  142.5440 C   0  0  1  0  0  3  0  0  0  0  0  0
  189.1520  176.5350  142.5780 N   0  0  1  0  0  0  0  0  0  0  0  0
  187.8030  177.9840  144.0270 C   0  0  0  0  0  3  0  0  0  0  0  0
  186.6680  177.6710  143.4010 C   0  0  0  0  0  0  0  0  0  0  0  0
  187.9000  176.1260  141.8630 C   0  0  2  0  0  3  0  0  0  0  0  0
  186.6020  176.3680  142.6530 C   0  0  0  0  0  2  0  0  0  0  0  0
  191.3020  177.7640  143.4800 C   0  0  0  0  0  1  0  0  0  0  0  0
  190.2200  177.5910  144.5360 C   0  0  0  0  0  2  0  0  0  0  0  0
  185.5340  178.6520  143.3820 C   0  0  1  0  0  3  0  0  0  0  0  0
  183.4280  178.0720  142.3870 O   0  0  0  0  0  1  0  0  0  0  0  0
  184.6260  178.4250  142.2140 C   0  0  0  0  0  0  0  0  0  0  0  0
  185.1140  178.5920  140.9260 O   0  0  0  0  0  0  0  0  0  0  0  0
  184.1790  178.6280  145.6900 C   0  0  0  0  0  3  0  0  0  0  0  0
  184.7890  178.6390  144.6500 C   0  0  0  0  0  0  0  0  0  0  0  0
  189.2030  172.7910  141.4770 C   0  0  0  0  0  2  0  0  0  0  0  0
  188.0000  172.7230  139.2950 O   0  0  0  0  0  0  0  0  0  0  0  0
  189.0940  172.3440  140.0600 C   0  0  0  0  0  0  0  0  0  0  0  0
  189.9910  171.6180  139.5550 O   0  0  0  0  0  1  0  0  0  0  0  0
  191.0410  174.4310  141.8290 C   0  0  0  0  0  2  0  0  0  0  0  0
  191.5790  173.2040  142.5610 C   0  0  0  0  0  2  0  0  0  0  0  0
  194.3180  176.4670  145.5490 C   0  0  0  0  0  0  0  0  0  0  0  0
  191.8810  174.3460  144.7790 C   0  0  0  0  0  2  0  0  0  0  0  0
  192.5720  173.5700  143.6590 C   0  0  2  0  0  3  0  0  0  0  0  0
  191.3790  176.0560  147.9010 C   0  0  0  0  0  1  0  0  0  0  0  0
  192.5160  176.5470  147.1350 N   0  0  0  0  0  0  0  0  0  0  0  0
  192.7680  174.4120  146.0110 C   0  0  0  0  0  2  0  0  0  0  0  0
  194.9060  174.3730  144.0820 C   0  0  0  0  0  2  0  0  0  0  0  0
  196.0930  176.4340  143.9290 N   0  0  0  0  0  2  0  0  0  0  0  0
  195.1490  175.7790  144.5210 C   0  0  0  0  0  0  0  0  0  0  0  0
  193.7650  174.3270  143.0800 C   0  0  0  0  0  2  0  0  0  0  0  0
  194.6050  177.6980  145.8330 N   0  0  0  0  0  2  0  0  0  0  0  0
  193.1800  175.8320  146.2740 C   0  0  0  0  0  0  0  0  0  0  0  0
  1 17  1  1  0  0  0
  1 21  1  0  0  0  0
  2  5  1  0  0  0  0
  2 10  1  6  0  0  0
  3  1  1  6  0  0  0
  3  4  1  0  0  0  0
  4  2  1  0  0  0  0
  6  5  2  0  0  0  0
  7  3  1  0  0  0  0
  7  4  1  0  0  0  0
  7  8  1  0  0  0  0
  8  6  1  0  0  0  0
  9 10  1  0  0  0  0
 11  6  1  0  0  0  0
 11 16  1  0  0  0  0
 13 12  1  0  0  0  0
 13 11  1  0  0  0  0
 14 13  2  0  0  0  0
 16 15  3  0  0  0  0
 18 19  2  0  0  0  0
 19 17  1  0  0  0  0
 20 19  1  0  0  0  0
 21 22  1  0  0  0  0
 22 25  1  0  0  0  0
 23 33  2  0  0  0  0
 23 34  1  0  0  0  0
 24 28  1  0  0  0  0
 25 24  1  0  0  0  0
 27 26  1  0  0  0  0
 28 34  1  0  0  0  0
 29 31  1  0  0  0  0
 30 31  2  0  0  0  0
 31 23  1  0  0  0  0
 32 25  1  0  0  0  0
 32 29  1  0  0  0  0
 34 27  2  0  0  0  0
M  END
>  <MODEL>
1

>  <REMARK>
 VINA RESULT:      -7.0      0.000      0.000
  Name = 
  10 active torsions:
  status: ('A' for Active; 'I' for Inactive)
    1  A    between atoms: C_4  and  C_25
    2  A    between atoms: C_6  and  C_22
    3  A    between atoms: C_8  and  C_12
    4  A    between atoms: C_8  and  C_22
    5  A    between atoms: C_9  and  C_27
    6  A    between atoms: C_13  and  C_15
    7  A    between atoms: C_15  and  C_16
    8  A    between atoms: C_15  and  C_32
    9  A    between atoms: C_22  and  C_30
   10  A    between atoms: C_27  and  C_30
                            x       y       z     vdW  Elec       q    Type
                         _______ _______ _______ _____ _____    ______ ____

>  <TORSDO>
F 10

$$$$
=
 OpenBabel11042416093D

 34 36  0  0  1  0  0  0  0  0999 V2000
  191.7830  176.2030  145.7780 C   0  0  2  0  0  3  0  0  0  0  0  0
  192.2870  174.8140  142.4020 C   0  0  2  0  0  3  0  0  0  0  0  0
  191.3560  175.7080  144.3770 C   0  0  1  0  0  3  0  0  0  0  0  0
  192.2370  174.6440  143.8630 N   0  0  1  0  0  0  0  0  0  0  0  0
  191.5580  173.7040  141.7000 C   0  0  0  0  0  3  0  0  0  0  0  0
  190.3450  173.3760  142.1450 C   0  0  0  0  0  0  0  0  0  0  0  0
  190.8750  174.3250  144.4000 C   0  0  2  0  0  3  0  0  0  0  0  0
  189.7920  174.1240  143.3270 C   0  0  0  0  0  2  0  0  0  0  0  0
  194.7100  174.2560  142.8670 C   0  0  0  0  0  1  0  0  0  0  0  0
  193.7290  174.9280  141.9170 C   0  0  0  0  0  2  0  0  0  0  0  0
  189.6100  172.2260  141.5220 C   0  0  1  0  0  3  0  0  0  0  0  0
  189.8490  171.7760  139.1770 O   0  0  0  0  0  0  0  0  0  0  0  0
  189.3140  172.4780  140.0770 C   0  0  0  0  0  0  0  0  0  0  0  0
  188.4510  173.5050  139.7240 O   0  0  0  0  0  1  0  0  0  0  0  0
  190.9290  169.9220  141.8610 C   0  0  0  0  0  3  0  0  0  0  0  0
  190.3340  170.9600  141.7080 C   0  0  0  0  0  0  0  0  0  0  0  0
  192.8140  175.3430  146.5120 C   0  0  0  0  0  2  0  0  0  0  0  0
  195.2870  175.2840  146.2020 O   0  0  0  0  0  0  0  0  0  0  0  0
  194.1470  176.0090  146.5230 C   0  0  0  0  0  0  0  0  0  0  0  0
  194.2440  177.2270  146.8280 O   0  0  0  0  0  1  0  0  0  0  0  0
  190.5700  176.4070  146.6700 C   0  0  0  0  0  2  0  0  0  0  0  0
  189.6890  177.5300  146.1280 C   0  0  0  0  0  2  0  0  0  0  0  0
  184.8320  178.0560  144.3380 C   0  0  0  0  0  0  0  0  0  0  0  0
  188.0720  177.3390  144.2140 C   0  0  0  0  0  2  0  0  0  0  0  0
  188.3150  177.0330  145.6910 C   0  0  2  0  0  3  0  0  0  0  0  0
  186.4830  177.4160  140.9910 C   0  0  0  0  0  1  0  0  0  0  0  0
  185.6300  177.8720  142.0800 N   0  0  0  0  0  0  0  0  0  0  0  0
  186.8770  176.5580  143.6950 C   0  0  0  0  0  2  0  0  0  0  0  0
  185.9190  176.8460  146.3960 C   0  0  0  0  0  2  0  0  0  0  0  0
  184.0440  178.3030  146.5960 N   0  0  0  0  0  2  0  0  0  0  0  0
  184.8880  177.7400  145.7940 C   0  0  0  0  0  0  0  0  0  0  0  0
  187.2220  177.6050  146.5890 C   0  0  0  0  0  2  0  0  0  0  0  0
  183.9060  178.8650  143.9310 N   0  0  0  0  0  2  0  0  0  0  0  0
  185.7690  177.5000  143.3200 C   0  0  0  0  0  0  0  0  0  0  0  0
  1 17  1  1  0  0  0
  1 21  1  0  0  0  0
  2 10  1  6  0  0  0
  2  4  1  0  0  0  0
  3  7  1  0  0  0  0
  3  1  1  1  0  0  0
  4  3  1  0  0  0  0
  4  7  1  0  0  0  0
  5  6  2  0  0  0  0
  5  2  1  0  0  0  0
  6  8  1  0  0  0  0
  8  7  1  0  0  0  0
 10  9  1  0  0  0  0
 11 16  1  0  0  0  0
 11  6  1  0  0  0  0
 12 13  2  0  0  0  0
 13 11  1  0  0  0  0
 14 13  1  0  0  0  0
 16 15  3  0  0  0  0
 17 19  1  0  0  0  0
 18 19  2  0  0  0  0
 19 20  1  0  0  0  0
 22 21  1  0  0  0  0
 23 31  1  0  0  0  0
 24 25  1  0  0  0  0
 25 22  1  0  0  0  0
 25 32  1  0  0  0  0
 26 27  1  0  0  0  0
 27 34  2  0  0  0  0
 28 24  1  0  0  0  0
 29 32  1  0  0  0  0
 31 29  1  0  0  0  0
 31 30  2  0  0  0  0
 33 23  2  0  0  0  0
 34 28  1  0  0  0  0
 34 23  1  0  0  0  0
M  END
>  <MODEL>
2

>  <REMARK>
 VINA RESULT:      -7.0      3.265      7.798
  Name = 
  10 active torsions:
  status: ('A' for Active; 'I' for Inactive)
    1  A    between atoms: C_4  and  C_25
    2  A    between atoms: C_6  and  C_22
    3  A    between atoms: C_8  and  C_12
    4  A    between atoms: C_8  and  C_22
    5  A    between atoms: C_9  and  C_27
    6  A    between atoms: C_13  and  C_15
    7  A    between atoms: C_15  and  C_16
    8  A    between atoms: C_15  and  C_32
    9  A    between atoms: C_22  and  C_30
   10  A    between atoms: C_27  and  C_30
                            x       y       z     vdW  Elec       q    Type
                         _______ _______ _______ _____ _____    ______ ____

>  <TORSDO>
F 10

$$$$
=
 OpenBabel11042416093D

 34 36  0  0  1  0  0  0  0  0999 V2000
  191.9710  176.5730  144.2230 C   0  0  2  0  0  3  0  0  0  0  0  0
  190.4740  173.2380  143.7560 C   0  0  2  0  0  3  0  0  0  0  0  0
  191.7740  175.1970  143.5480 C   0  0  1  0  0  3  0  0  0  0  0  0
  190.3890  174.7050  143.6650 N   0  0  1  0  0  0  0  0  0  0  0  0
  189.9510  172.5850  142.5090 C   0  0  0  0  0  3  0  0  0  0  0  0
  190.3680  173.0600  141.3350 C   0  0  0  0  0  0  0  0  0  0  0  0
  190.8980  175.2730  142.3760 C   0  0  2  0  0  3  0  0  0  0  0  0
  191.3190  174.2240  141.3330 C   0  0  0  0  0  2  0  0  0  0  0  0
  189.6780  173.7800  146.0950 C   0  0  0  0  0  1  0  0  0  0  0  0
  189.7510  172.7270  144.9990 C   0  0  0  0  0  2  0  0  0  0  0  0
  189.8150  172.4870  140.0630 C   0  0  1  0  0  3  0  0  0  0  0  0
  188.1880  173.0660  138.3970 O   0  0  0  0  0  0  0  0  0  0  0  0
  188.7040  173.3270  139.5170 C   0  0  0  0  0  0  0  0  0  0  0  0
  188.2460  174.4150  140.2470 O   0  0  0  0  0  1  0  0  0  0  0  0
  191.7390  172.1110  138.2410 C   0  0  0  0  0  3  0  0  0  0  0  0
  190.8720  172.2800  139.0620 C   0  0  0  0  0  0  0  0  0  0  0  0
  192.3160  176.5500  145.7140 C   0  0  0  0  0  2  0  0  0  0  0  0
  194.6040  177.5330  145.5850 O   0  0  0  0  0  0  0  0  0  0  0  0
  193.7900  176.4580  145.9150 C   0  0  0  0  0  0  0  0  0  0  0  0
  194.3000  175.4040  146.3790 O   0  0  0  0  0  1  0  0  0  0  0  0
  190.7580  177.4610  144.0000 C   0  0  0  0  0  2  0  0  0  0  0  0
  189.9150  177.5450  145.2700 C   0  0  0  0  0  2  0  0  0  0  0  0
  184.8120  178.1940  144.4850 C   0  0  0  0  0  0  0  0  0  0  0  0
  187.9670  177.5340  143.6820 C   0  0  0  0  0  2  0  0  0  0  0  0
  188.4800  177.0790  145.0470 C   0  0  2  0  0  3  0  0  0  0  0  0
  185.8020  177.9280  140.8400 C   0  0  0  0  0  1  0  0  0  0  0  0
  185.1720  178.2570  142.1110 N   0  0  0  0  0  0  0  0  0  0  0  0
  186.6900  176.7970  143.3180 C   0  0  0  0  0  2  0  0  0  0  0  0
  186.2570  176.7900  146.1650 C   0  0  0  0  0  2  0  0  0  0  0  0
  184.4630  178.1960  146.8630 N   0  0  0  0  0  2  0  0  0  0  0  0
  185.1380  177.7290  145.8630 C   0  0  0  0  0  0  0  0  0  0  0  0
  187.5780  177.5410  146.1890 C   0  0  0  0  0  2  0  0  0  0  0  0
  183.8330  179.0300  144.3450 N   0  0  0  0  0  2  0  0  0  0  0  0
  185.5380  177.7600  143.2570 C   0  0  0  0  0  0  0  0  0  0  0  0
  1 21  1  1  0  0  0
  1 17  1  0  0  0  0
  2 10  1  1  0  0  0
  3  4  1  0  0  0  0
  3  1  1  1  0  0  0
  4  2  1  0  0  0  0
  5  2  1  0  0  0  0
  6  5  2  0  0  0  0
  7  3  1  0  0  0  0
  7  4  1  0  0  0  0
  8  6  1  0  0  0  0
  8  7  1  0  0  0  0
 10  9  1  0  0  0  0
 11  6  1  0  0  0  0
 12 13  2  0  0  0  0
 13 11  1  0  0  0  0
 13 14  1  0  0  0  0
 15 16  3  0  0  0  0
 16 11  1  0  0  0  0
 17 19  1  0  0  0  0
 18 19  2  0  0  0  0
 19 20  1  0  0  0  0
 21 22  1  0  0  0  0
 23 31  1  0  0  0  0
 24 25  1  0  0  0  0
 25 22  1  0  0  0  0
 25 32  1  0  0  0  0
 26 27  1  0  0  0  0
 27 34  2  0  0  0  0
 28 24  1  0  0  0  0
 29 32  1  0  0  0  0
 31 29  1  0  0  0  0
 31 30  2  0  0  0  0
 33 23  2  0  0  0  0
 34 28  1  0  0  0  0
 34 23  1  0  0  0  0
M  END
>  <MODEL>
3

>  <REMARK>
 VINA RESULT:      -6.9      3.208      7.644
  Name = 
  10 active torsions:
  status: ('A' for Active; 'I' for Inactive)
    1  A    between atoms: C_4  and  C_25
    2  A    between atoms: C_6  and  C_22
    3  A    between atoms: C_8  and  C_12
    4  A    between atoms: C_8  and  C_22
    5  A    between atoms: C_9  and  C_27
    6  A    between atoms: C_13  and  C_15
    7  A    between atoms: C_15  and  C_16
    8  A    between atoms: C_15  and  C_32
    9  A    between atoms: C_22  and  C_30
   10  A    between atoms: C_27  and  C_30
                            x       y       z     vdW  Elec       q    Type
                         _______ _______ _______ _____ _____    ______ ____

>  <TORSDO>
F 10

$$$$
=
 OpenBabel11042416093D

 34 36  0  0  1  0  0  0  0  0999 V2000
  189.4850  174.1820  141.6310 C   0  0  2  0  0  3  0  0  0  0  0  0
  187.4390  177.2440  141.4960 C   0  0  2  0  0  3  0  0  0  0  0  0
  189.0480  175.6070  142.0410 C   0  0  1  0  0  3  0  0  0  0  0  0
  187.6030  175.8280  141.8600 N   0  0  1  0  0  0  0  0  0  0  0  0
  186.7950  178.0210  142.6100 C   0  0  0  0  0  3  0  0  0  0  0  0
  187.2700  177.8510  143.8440 C   0  0  0  0  0  0  0  0  0  0  0  0
  188.1830  175.6030  143.2230 C   0  0  2  0  0  3  0  0  0  0  0  0
  188.4050  176.8840  144.0450 C   0  0  0  0  0  2  0  0  0  0  0  0
  185.2840  178.0030  140.4120 C   0  0  0  0  0  1  0  0  0  0  0  0
  186.6570  177.3850  140.1940 C   0  0  0  0  0  2  0  0  0  0  0  0
  186.6120  178.5480  144.9970 C   0  0  1  0  0  3  0  0  0  0  0  0
  185.4320  180.4700  144.1760 O   0  0  0  0  0  0  0  0  0  0  0  0
  185.3750  179.2740  144.5690 C   0  0  0  0  0  0  0  0  0  0  0  0
  184.1490  178.6250  144.6190 O   0  0  0  0  0  1  0  0  0  0  0  0
  186.1030  176.8550  147.0060 C   0  0  0  0  0  3  0  0  0  0  0  0
  186.3320  177.6180  146.1010 C   0  0  0  0  0  0  0  0  0  0  0  0
  188.3840  173.2700  141.0850 C   0  0  0  0  0  2  0  0  0  0  0  0
  188.0920  174.1750  138.7800 O   0  0  0  0  0  0  0  0  0  0  0  0
  188.4950  173.1340  139.6050 C   0  0  0  0  0  0  0  0  0  0  0  0
  188.9490  172.0730  139.1000 O   0  0  0  0  0  1  0  0  0  0  0  0
  190.1950  173.4840  142.7800 C   0  0  0  0  0  2  0  0  0  0  0  0
  191.6400  173.1700  142.4050 C   0  0  0  0  0  2  0  0  0  0  0  0
  194.3470  176.3810  145.4760 C   0  0  0  0  0  0  0  0  0  0  0  0
  191.9170  174.2770  144.6440 C   0  0  0  0  0  2  0  0  0  0  0  0
  192.6200  173.5180  143.5210 C   0  0  2  0  0  3  0  0  0  0  0  0
  191.3790  175.9400  147.7850 C   0  0  0  0  0  1  0  0  0  0  0  0
  192.5260  176.4410  147.0410 N   0  0  0  0  0  0  0  0  0  0  0  0
  192.7890  174.3220  145.8870 C   0  0  0  0  0  2  0  0  0  0  0  0
  194.9500  174.3100  143.9840 C   0  0  0  0  0  2  0  0  0  0  0  0
  196.1430  176.3710  143.8770 N   0  0  0  0  0  2  0  0  0  0  0  0
  195.1900  175.7080  144.4470 C   0  0  0  0  0  0  0  0  0  0  0  0
  193.8210  174.2810  142.9680 C   0  0  0  0  0  2  0  0  0  0  0  0
  194.6330  177.6070  145.7820 N   0  0  0  0  0  2  0  0  0  0  0  0
  193.2000  175.7380  146.1770 C   0  0  0  0  0  0  0  0  0  0  0  0
  1 17  1  1  0  0  0
  1 21  1  0  0  0  0
  2 10  1  6  0  0  0
  2  4  1  0  0  0  0
  2  5  1  0  0  0  0
  3  1  1  6  0  0  0
  3  7  1  0  0  0  0
  4  3  1  0  0  0  0
  4  7  1  0  0  0  0
  5  6  2  0  0  0  0
  6  8  1  0  0  0  0
  6 11  1  0  0  0  0
  7  8  1  0  0  0  0
 10  9  1  0  0  0  0
 11 16  1  0  0  0  0
 12 13  2  0  0  0  0
 13 14  1  0  0  0  0
 13 11  1  0  0  0  0
 16 15  3  0  0  0  0
 18 19  2  0  0  0  0
 19 17  1  0  0  0  0
 20 19  1  0  0  0  0
 22 21  1  0  0  0  0
 22 25  1  0  0  0  0
 23 33  2  0  0  0  0
 23 34  1  0  0  0  0
 24 28  1  0  0  0  0
 25 24  1  0  0  0  0
 27 26  1  0  0  0  0
 28 34  1  0  0  0  0
 29 31  1  0  0  0  0
 30 31  2  0  0  0  0
 31 23  1  0  0  0  0
 32 25  1  0  0  0  0
 32 29  1  0  0  0  0
 34 27  2  0  0  0  0
M  END
>  <MODEL>
4

>  <REMARK>
 VINA RESULT:      -6.8      1.354      2.183
  Name = 
  10 active torsions:
  status: ('A' for Active; 'I' for Inactive)
    1  A    between atoms: C_4  and  C_25
    2  A    between atoms: C_6  and  C_22
    3  A    between atoms: C_8  and  C_12
    4  A    between atoms: C_8  and  C_22
    5  A    between atoms: C_9  and  C_27
    6  A    between atoms: C_13  and  C_15
    7  A    between atoms: C_15  and  C_16
    8  A    between atoms: C_15  and  C_32
    9  A    between atoms: C_22  and  C_30
   10  A    between atoms: C_27  and  C_30
                            x       y       z     vdW  Elec       q    Type
                         _______ _______ _______ _____ _____    ______ ____

>  <TORSDO>
F 10

$$$$
=
 OpenBabel11042416093D

 34 36  0  0  1  0  0  0  0  0999 V2000
  190.2420  175.6290  142.8610 C   0  0  2  0  0  3  0  0  0  0  0  0
  192.9400  175.1600  145.3260 C   0  0  2  0  0  3  0  0  0  0  0  0
  191.5920  175.0960  143.3910 C   0  0  1  0  0  3  0  0  0  0  0  0
  191.5780  174.8740  144.8480 N   0  0  1  0  0  0  0  0  0  0  0  0
  193.6400  173.9040  145.7590 C   0  0  0  0  0  3  0  0  0  0  0  0
  193.5840  172.8480  144.9470 C   0  0  0  0  0  0  0  0  0  0  0  0
  191.4890  173.7230  143.8920 C   0  0  2  0  0  3  0  0  0  0  0  0
  192.8140  172.9760  143.6620 C   0  0  0  0  0  2  0  0  0  0  0  0
  191.5760  176.2400  147.1620 C   0  0  0  0  0  1  0  0  0  0  0  0
  192.9170  176.1990  146.4440 C   0  0  0  0  0  2  0  0  0  0  0  0
  194.2050  171.5500  145.3710 C   0  0  1  0  0  3  0  0  0  0  0  0
  192.9290  169.6660  144.6080 O   0  0  0  0  0  1  0  0  0  0  0  0
  193.8960  170.4490  144.4060 C   0  0  0  0  0  0  0  0  0  0  0  0
  194.6940  170.2800  143.2830 O   0  0  0  0  0  0  0  0  0  0  0  0
  196.8420  171.8030  145.7520 C   0  0  0  0  0  3  0  0  0  0  0  0
  195.6540  171.6890  145.5800 C   0  0  0  0  0  0  0  0  0  0  0  0
  189.7450  175.0210  141.5470 C   0  0  0  0  0  2  0  0  0  0  0  0
  188.5850  172.8650  141.0760 O   0  0  0  0  0  0  0  0  0  0  0  0
  188.6420  174.0510  141.7960 C   0  0  0  0  0  0  0  0  0  0  0  0
  187.7570  174.3050  142.6550 O   0  0  0  0  0  1  0  0  0  0  0  0
  190.2710  177.1430  142.7360 C   0  0  0  0  0  2  0  0  0  0  0  0
  189.7710  177.7960  144.0210 C   0  0  0  0  0  2  0  0  0  0  0  0
  184.9240  178.1240  145.8840 C   0  0  0  0  0  0  0  0  0  0  0  0
  187.2960  177.7840  143.5860 C   0  0  0  0  0  2  0  0  0  0  0  0
  188.4210  177.2450  144.4680 C   0  0  2  0  0  3  0  0  0  0  0  0
  184.0100  178.2720  142.2130 C   0  0  0  0  0  1  0  0  0  0  0  0
  184.0760  178.4330  143.6590 N   0  0  0  0  0  0  0  0  0  0  0  0
  186.0200  176.9880  143.8000 C   0  0  0  0  0  2  0  0  0  0  0  0
  187.0360  176.6850  146.4770 C   0  0  0  0  0  2  0  0  0  0  0  0
  185.7830  177.8780  148.1170 N   0  0  0  0  0  2  0  0  0  0  0  0
  185.8910  177.5600  146.8680 C   0  0  0  0  0  0  0  0  0  0  0  0
  188.1830  177.5290  145.9480 C   0  0  0  0  0  2  0  0  0  0  0  0
  183.9840  178.8920  146.3360 N   0  0  0  0  0  2  0  0  0  0  0  0
  184.9660  177.8620  144.4180 C   0  0  0  0  0  0  0  0  0  0  0  0
  1 17  1  6  0  0  0
  2  5  1  0  0  0  0
  2 10  1  1  0  0  0
  3  1  1  1  0  0  0
  3  7  1  0  0  0  0
  3  4  1  0  0  0  0
  4  2  1  0  0  0  0
  6 11  1  0  0  0  0
  6  5  2  0  0  0  0
  7  4  1  0  0  0  0
  8  7  1  0  0  0  0
  8  6  1  0  0  0  0
 10  9  1  0  0  0  0
 11 16  1  0  0  0  0
 13 12  1  0  0  0  0
 13 11  1  0  0  0  0
 14 13  2  0  0  0  0
 16 15  3  0  0  0  0
 17 19  1  0  0  0  0
 18 19  2  0  0  0  0
 19 20  1  0  0  0  0
 21  1  1  0  0  0  0
 21 22  1  0  0  0  0
 22 25  1  0  0  0  0
 23 33  2  0  0  0  0
 23 31  1  0  0  0  0
 24 28  1  0  0  0  0
 24 25  1  0  0  0  0
 25 32  1  0  0  0  0
 26 27  1  0  0  0  0
 27 34  2  0  0  0  0
 28 34  1  0  0  0  0
 29 31  1  0  0  0  0
 31 30  2  0  0  0  0
 32 29  1  0  0  0  0
 34 23  1  0  0  0  0
M  END
>  <MODEL>
5

>  <REMARK>
 VINA RESULT:      -6.7      3.003      8.162
  Name = 
  10 active torsions:
  status: ('A' for Active; 'I' for Inactive)
    1  A    between atoms: C_4  and  C_25
    2  A    between atoms: C_6  and  C_22
    3  A    between atoms: C_8  and  C_12
    4  A    between atoms: C_8  and  C_22
    5  A    between atoms: C_9  and  C_27
    6  A    between atoms: C_13  and  C_15
    7  A    between atoms: C_15  and  C_16
    8  A    between atoms: C_15  and  C_32
    9  A    between atoms: C_22  and  C_30
   10  A    between atoms: C_27  and  C_30
                            x       y       z     vdW  Elec       q    Type
                         _______ _______ _______ _____ _____    ______ ____

>  <TORSDO>
F 10

$$$$
=
 OpenBabel11042416093D

 34 36  0  0  1  0  0  0  0  0999 V2000
  191.7270  175.0150  145.2650 C   0  0  2  0  0  3  0  0  0  0  0  0
  189.3050  177.4930  144.0110 C   0  0  2  0  0  3  0  0  0  0  0  0
  190.6330  176.1020  145.3770 C   0  0  1  0  0  3  0  0  0  0  0  0
  189.7120  176.0950  144.2270 N   0  0  1  0  0  0  0  0  0  0  0  0
  187.8640  177.7020  144.3810 C   0  0  0  0  0  3  0  0  0  0  0  0
  187.4420  177.2100  145.5460 C   0  0  0  0  0  0  0  0  0  0  0  0
  189.2960  175.5280  145.5500 C   0  0  2  0  0  3  0  0  0  0  0  0
  188.4270  176.4650  146.4040 C   0  0  0  0  0  2  0  0  0  0  0  0
  188.3020  178.0380  141.7530 C   0  0  0  0  0  1  0  0  0  0  0  0
  189.5790  177.9230  142.5730 C   0  0  0  0  0  2  0  0  0  0  0  0
  185.9950  177.3310  145.9230 C   0  0  1  0  0  3  0  0  0  0  0  0
  185.6830  179.4240  147.0550 O   0  0  0  0  0  0  0  0  0  0  0  0
  185.8120  178.1740  147.1460 C   0  0  0  0  0  0  0  0  0  0  0  0
  185.7980  177.5710  148.3960 O   0  0  0  0  0  1  0  0  0  0  0  0
  184.5210  178.2390  143.8830 C   0  0  0  0  0  3  0  0  0  0  0  0
  185.1850  177.8300  144.8020 C   0  0  0  0  0  0  0  0  0  0  0  0
  191.2380  173.5940  144.9780 C   0  0  0  0  0  2  0  0  0  0  0  0
  193.0970  173.4300  143.3250 O   0  0  0  0  0  0  0  0  0  0  0  0
  192.2830  172.8080  144.2620 C   0  0  0  0  0  0  0  0  0  0  0  0
  192.4280  171.5810  144.5020 O   0  0  0  0  0  1  0  0  0  0  0  0
  192.6050  175.0050  146.5050 C   0  0  0  0  0  2  0  0  0  0  0  0
  193.6030  176.1590  146.4640 C   0  0  0  0  0  2  0  0  0  0  0  0
  196.7100  173.5000  143.2460 C   0  0  0  0  0  0  0  0  0  0  0  0
  195.0000  176.1130  144.3750 C   0  0  0  0  0  2  0  0  0  0  0  0
  194.9420  175.7500  145.8570 C   0  0  2  0  0  3  0  0  0  0  0  0
  196.2830  176.5510  141.0460 C   0  0  0  0  0  1  0  0  0  0  0  0
  196.4610  175.2060  141.5750 N   0  0  0  0  0  0  0  0  0  0  0  0
  196.4260  176.0260  143.8580 C   0  0  0  0  0  2  0  0  0  0  0  0
  196.6760  173.9430  145.8310 C   0  0  0  0  0  2  0  0  0  0  0  0
  196.9060  171.7630  144.8970 N   0  0  0  0  0  2  0  0  0  0  0  0
  196.7900  173.0290  144.6580 C   0  0  0  0  0  0  0  0  0  0  0  0
  195.2170  174.2690  146.1030 C   0  0  0  0  0  2  0  0  0  0  0  0
  196.7960  172.6110  142.3070 N   0  0  0  0  0  2  0  0  0  0  0  0
  196.5400  174.9250  142.8430 C   0  0  0  0  0  0  0  0  0  0  0  0
  1 17  1  1  0  0  0
  1 21  1  0  0  0  0
  2 10  1  6  0  0  0
  2  4  1  0  0  0  0
  2  5  1  0  0  0  0
  3  1  1  6  0  0  0
  3  7  1  0  0  0  0
  4  3  1  0  0  0  0
  4  7  1  0  0  0  0
  5  6  2  0  0  0  0
  6 11  1  0  0  0  0
  6  8  1  0  0  0  0
  7  8  1  0  0  0  0
  9 10  1  0  0  0  0
 11 13  1  0  0  0  0
 12 13  2  0  0  0  0
 13 14  1  0  0  0  0
 15 16  3  0  0  0  0
 16 11  1  0  0  0  0
 18 19  2  0  0  0  0
 19 20  1  0  0  0  0
 19 17  1  0  0  0  0
 22 21  1  0  0  0  0
 23 31  1  0  0  0  0
 24 25  1  0  0  0  0
 25 32  1  0  0  0  0
 25 22  1  0  0  0  0
 26 27  1  0  0  0  0
 27 34  2  0  0  0  0
 28 24  1  0  0  0  0
 29 32  1  0  0  0  0
 31 30  2  0  0  0  0
 31 29  1  0  0  0  0
 33 23  2  0  0  0  0
 34 23  1  0  0  0  0
 34 28  1  0  0  0  0
M  END
>  <MODEL>
6

>  <REMARK>
 VINA RESULT:      -6.6      3.049      4.514
  Name = 
  10 active torsions:
  status: ('A' for Active; 'I' for Inactive)
    1  A    between atoms: C_4  and  C_25
    2  A    between atoms: C_6  and  C_22
    3  A    between atoms: C_8  and  C_12
    4  A    between atoms: C_8  and  C_22
    5  A    between atoms: C_9  and  C_27
    6  A    between atoms: C_13  and  C_15
    7  A    between atoms: C_15  and  C_16
    8  A    between atoms: C_15  and  C_32
    9  A    between atoms: C_22  and  C_30
   10  A    between atoms: C_27  and  C_30
                            x       y       z     vdW  Elec       q    Type
                         _______ _______ _______ _____ _____    ______ ____

>  <TORSDO>
F 10

$$$$
=
 OpenBabel11042416093D

 34 36  0  0  1  0  0  0  0  0999 V2000
  189.3850  174.2290  141.9030 C   0  0  2  0  0  3  0  0  0  0  0  0
  188.8480  176.9190  144.3630 C   0  0  2  0  0  3  0  0  0  0  0  0
  188.5790  175.0790  142.9110 C   0  0  1  0  0  3  0  0  0  0  0  0
  189.0490  176.4750  142.9750 N   0  0  1  0  0  0  0  0  0  0  0  0
  187.7430  177.9330  144.4540 C   0  0  0  0  0  3  0  0  0  0  0  0
  186.6000  177.6680  143.8200 C   0  0  0  0  0  0  0  0  0  0  0  0
  187.7870  176.1200  142.2510 C   0  0  2  0  0  3  0  0  0  0  0  0
  186.4960  176.3840  143.0440 C   0  0  0  0  0  2  0  0  0  0  0  0
  191.1120  177.9410  143.8840 C   0  0  0  0  0  1  0  0  0  0  0  0
  190.1470  177.4560  144.9560 C   0  0  0  0  0  2  0  0  0  0  0  0
  185.4960  178.6830  143.8220 C   0  0  1  0  0  3  0  0  0  0  0  0
  183.3810  178.2900  142.7580 O   0  0  0  0  0  1  0  0  0  0  0  0
  184.6100  178.5370  142.6250 C   0  0  0  0  0  0  0  0  0  0  0  0
  185.1510  178.6620  141.3530 O   0  0  0  0  0  0  0  0  0  0  0  0
  184.0880  178.5960  146.0960 C   0  0  0  0  0  3  0  0  0  0  0  0
  184.7220  178.6350  145.0710 C   0  0  0  0  0  0  0  0  0  0  0  0
  188.6790  172.9910  141.3480 C   0  0  0  0  0  2  0  0  0  0  0  0
  188.9250  171.9460  139.0970 O   0  0  0  0  0  0  0  0  0  0  0  0
  188.5870  173.0550  139.8610 C   0  0  0  0  0  0  0  0  0  0  0  0
  188.2090  174.1140  139.2960 O   0  0  0  0  0  1  0  0  0  0  0  0
  190.7260  173.8230  142.4920 C   0  0  0  0  0  2  0  0  0  0  0  0
  190.5260  172.9840  143.7510 C   0  0  0  0  0  2  0  0  0  0  0  0
  195.5130  173.8090  144.9830 C   0  0  0  0  0  0  0  0  0  0  0  0
  192.2660  174.4720  144.7870 C   0  0  0  0  0  2  0  0  0  0  0  0
  191.7270  173.0460  144.6890 C   0  0  2  0  0  3  0  0  0  0  0  0
  194.2540  177.2730  145.8470 C   0  0  0  0  0  1  0  0  0  0  0  0
  195.0370  176.1210  145.4200 N   0  0  0  0  0  0  0  0  0  0  0  0
  193.2220  174.6030  145.9600 C   0  0  0  0  0  2  0  0  0  0  0  0
  193.8160  171.8470  145.3740 C   0  0  0  0  0  2  0  0  0  0  0  0
  196.0000  171.5080  144.4830 N   0  0  0  0  0  2  0  0  0  0  0  0
  195.1500  172.3630  144.9510 C   0  0  0  0  0  0  0  0  0  0  0  0
  192.8000  172.0490  144.2620 C   0  0  0  0  0  2  0  0  0  0  0  0
  196.6940  174.1440  144.5680 N   0  0  0  0  0  2  0  0  0  0  0  0
  194.6100  174.8920  145.4640 C   0  0  0  0  0  0  0  0  0  0  0  0
  1 17  1  1  0  0  0
  1 21  1  0  0  0  0
  2  5  1  0  0  0  0
  2 10  1  6  0  0  0
  3  1  1  6  0  0  0
  3  4  1  0  0  0  0
  4  2  1  0  0  0  0
  6 11  1  0  0  0  0
  6  5  2  0  0  0  0
  7  3  1  0  0  0  0
  7  4  1  0  0  0  0
  7  8  1  0  0  0  0
  8  6  1  0  0  0  0
  9 10  1  0  0  0  0
 11 16  1  0  0  0  0
 13 12  1  0  0  0  0
 13 11  1  0  0  0  0
 14 13  2  0  0  0  0
 16 15  3  0  0  0  0
 18 19  2  0  0  0  0
 19 17  1  0  0  0  0
 20 19  1  0  0  0  0
 21 22  1  0  0  0  0
 22 25  1  0  0  0  0
 23 34  1  0  0  0  0
 24 28  1  0  0  0  0
 25 24  1  0  0  0  0
 27 34  2  0  0  0  0
 27 26  1  0  0  0  0
 30 31  2  0  0  0  0
 31 23  1  0  0  0  0
 31 29  1  0  0  0  0
 32 25  1  0  0  0  0
 32 29  1  0  0  0  0
 33 23  2  0  0  0  0
 34 28  1  0  0  0  0
M  END
>  <MODEL>
7

>  <REMARK>
 VINA RESULT:      -6.5      1.391      1.945
  Name = 
  10 active torsions:
  status: ('A' for Active; 'I' for Inactive)
    1  A    between atoms: C_4  and  C_25
    2  A    between atoms: C_6  and  C_22
    3  A    between atoms: C_8  and  C_12
    4  A    between atoms: C_8  and  C_22
    5  A    between atoms: C_9  and  C_27
    6  A    between atoms: C_13  and  C_15
    7  A    between atoms: C_15  and  C_16
    8  A    between atoms: C_15  and  C_32
    9  A    between atoms: C_22  and  C_30
   10  A    between atoms: C_27  and  C_30
                            x       y       z     vdW  Elec       q    Type
                         _______ _______ _______ _____ _____    ______ ____

>  <TORSDO>
F 10

$$$$
=
 OpenBabel11042416093D

 34 36  0  0  1  0  0  0  0  0999 V2000
  191.8610  175.7600  145.8300 C   0  0  2  0  0  3  0  0  0  0  0  0
  189.2720  177.5430  143.9080 C   0  0  2  0  0  3  0  0  0  0  0  0
  190.7250  176.7840  145.6040 C   0  0  1  0  0  3  0  0  0  0  0  0
  189.7520  176.3330  144.5930 N   0  0  1  0  0  0  0  0  0  0  0  0
  187.8410  177.8360  144.2620 C   0  0  0  0  0  3  0  0  0  0  0  0
  187.4970  177.7940  145.5500 C   0  0  0  0  0  0  0  0  0  0  0  0
  189.4250  176.2790  146.0540 C   0  0  2  0  0  3  0  0  0  0  0  0
  188.5540  177.4410  146.5590 C   0  0  0  0  0  2  0  0  0  0  0  0
  188.1440  177.5590  141.6440 C   0  0  0  0  0  1  0  0  0  0  0  0
  189.4590  177.4250  142.3980 C   0  0  0  0  0  2  0  0  0  0  0  0
  186.0660  178.0070  145.9430 C   0  0  1  0  0  3  0  0  0  0  0  0
  185.9450  179.7070  147.6340 O   0  0  0  0  0  0  0  0  0  0  0  0
  185.9470  178.4770  147.3600 C   0  0  0  0  0  0  0  0  0  0  0  0
  185.8490  177.5440  148.3830 O   0  0  0  0  0  1  0  0  0  0  0  0
  184.8210  179.6720  144.2570 C   0  0  0  0  0  3  0  0  0  0  0  0
  185.3820  178.9220  145.0170 C   0  0  0  0  0  0  0  0  0  0  0  0
  193.1140  175.9430  144.9720 C   0  0  0  0  0  2  0  0  0  0  0  0
  194.5680  177.5490  146.2080 O   0  0  0  0  0  1  0  0  0  0  0  0
  194.3000  176.2420  145.8250 C   0  0  0  0  0  0  0  0  0  0  0  0
  195.0640  175.3110  146.1950 O   0  0  0  0  0  0  0  0  0  0  0  0
  191.3450  174.3390  145.6710 C   0  0  0  0  0  2  0  0  0  0  0  0
  192.2980  173.5160  144.8100 C   0  0  0  0  0  2  0  0  0  0  0  0
  189.2780  173.1250  140.5910 C   0  0  0  0  0  0  0  0  0  0  0  0
  192.1100  173.2040  142.3230 C   0  0  0  0  0  2  0  0  0  0  0  0
  191.5770  172.7740  143.6890 C   0  0  2  0  0  3  0  0  0  0  0  0
  192.5870  173.3260  138.7620 C   0  0  0  0  0  1  0  0  0  0  0  0
  191.1940  173.4260  139.1750 N   0  0  0  0  0  0  0  0  0  0  0  0
  191.6510  172.2400  141.2420 C   0  0  0  0  0  2  0  0  0  0  0  0
  189.3380  171.9450  142.9330 C   0  0  0  0  0  2  0  0  0  0  0  0
  187.3520  172.8880  142.0110 N   0  0  0  0  0  2  0  0  0  0  0  0
  188.6100  172.6450  141.8340 C   0  0  0  0  0  0  0  0  0  0  0  0
  190.0660  172.9550  143.8050 C   0  0  0  0  0  2  0  0  0  0  0  0
  188.5500  173.7430  139.7150 N   0  0  0  0  0  2  0  0  0  0  0  0
  190.7250  172.9400  140.2870 C   0  0  0  0  0  0  0  0  0  0  0  0
  1 17  1  6  0  0  0
  2 10  1  6  0  0  0
  2  5  1  0  0  0  0
  2  4  1  0  0  0  0
  3  1  1  1  0  0  0
  3  7  1  0  0  0  0
  4  3  1  0  0  0  0
  4  7  1  0  0  0  0
  5  6  2  0  0  0  0
  6 11  1  0  0  0  0
  6  8  1  0  0  0  0
  7  8  1  0  0  0  0
  9 10  1  0  0  0  0
 11 13  1  0  0  0  0
 13 12  2  0  0  0  0
 13 14  1  0  0  0  0
 15 16  3  0  0  0  0
 16 11  1  0  0  0  0
 17 19  1  0  0  0  0
 19 20  2  0  0  0  0
 19 18  1  0  0  0  0
 21  1  1  0  0  0  0
 22 21  1  0  0  0  0
 23 31  1  0  0  0  0
 24 25  1  0  0  0  0
 25 32  1  0  0  0  0
 25 22  1  0  0  0  0
 26 27  1  0  0  0  0
 27 34  2  0  0  0  0
 28 24  1  0  0  0  0
 29 32  1  0  0  0  0
 31 30  2  0  0  0  0
 31 29  1  0  0  0  0
 33 23  2  0  0  0  0
 34 23  1  0  0  0  0
 34 28  1  0  0  0  0
M  END
>  <MODEL>
8

>  <REMARK>
 VINA RESULT:      -6.5      3.517      5.912
  Name = 
  10 active torsions:
  status: ('A' for Active; 'I' for Inactive)
    1  A    between atoms: C_4  and  C_25
    2  A    between atoms: C_6  and  C_22
    3  A    between atoms: C_8  and  C_12
    4  A    between atoms: C_8  and  C_22
    5  A    between atoms: C_9  and  C_27
    6  A    between atoms: C_13  and  C_15
    7  A    between atoms: C_15  and  C_16
    8  A    between atoms: C_15  and  C_32
    9  A    between atoms: C_22  and  C_30
   10  A    between atoms: C_27  and  C_30
                            x       y       z     vdW  Elec       q    Type
                         _______ _______ _______ _____ _____    ______ ____

>  <TORSDO>
F 10

$$$$
=
 OpenBabel11042416093D

 34 36  0  0  1  0  0  0  0  0999 V2000
  190.3670  175.7630  145.9890 C   0  0  2  0  0  3  0  0  0  0  0  0
  186.7710  176.5300  146.2380 C   0  0  2  0  0  3  0  0  0  0  0  0
  188.8850  175.7370  145.5510 C   0  0  1  0  0  3  0  0  0  0  0  0
  188.1550  176.9500  145.9620 N   0  0  1  0  0  0  0  0  0  0  0  0
  185.8250  177.0560  145.1960 C   0  0  0  0  0  3  0  0  0  0  0  0
  186.1680  176.9150  143.9150 C   0  0  0  0  0  0  0  0  0  0  0  0
  188.5870  176.7560  144.5410 C   0  0  2  0  0  3  0  0  0  0  0  0
  187.4810  176.2540  143.5970 C   0  0  0  0  0  2  0  0  0  0  0  0
  185.5410  178.2430  147.6340 C   0  0  0  0  0  1  0  0  0  0  0  0
  186.3450  176.9510  147.6410 C   0  0  0  0  0  2  0  0  0  0  0  0
  185.2910  177.4900  142.8430 C   0  0  1  0  0  3  0  0  0  0  0  0
  185.5270  179.7940  143.4700 O   0  0  0  0  0  1  0  0  0  0  0  0
  184.7510  178.8300  143.2320 C   0  0  0  0  0  0  0  0  0  0  0  0
  183.3790  179.0090  143.3430 O   0  0  0  0  0  0  0  0  0  0  0  0
  186.5580  177.5950  140.4890 C   0  0  0  0  0  3  0  0  0  0  0  0
  185.9870  177.5470  141.5500 C   0  0  0  0  0  0  0  0  0  0  0  0
  190.8100  176.9840  146.7980 C   0  0  0  0  0  2  0  0  0  0  0  0
  191.5590  177.5330  149.1120 O   0  0  0  0  0  1  0  0  0  0  0  0
  191.3250  176.5740  148.1360 C   0  0  0  0  0  0  0  0  0  0  0  0
  191.5520  175.3600  148.3810 O   0  0  0  0  0  0  0  0  0  0  0  0
  191.2860  175.5920  144.7900 C   0  0  0  0  0  2  0  0  0  0  0  0
  192.2200  176.7920  144.6570 C   0  0  0  0  0  2  0  0  0  0  0  0
  196.3430  173.7560  143.7330 C   0  0  0  0  0  0  0  0  0  0  0  0
  194.3160  176.3560  143.3410 C   0  0  0  0  0  2  0  0  0  0  0  0
  193.6910  176.3960  144.7340 C   0  0  2  0  0  3  0  0  0  0  0  0
  196.7850  176.0410  140.7470 C   0  0  0  0  0  1  0  0  0  0  0  0
  196.7510  174.9150  141.6700 N   0  0  0  0  0  0  0  0  0  0  0  0
  195.8310  176.3020  143.4360 C   0  0  0  0  0  2  0  0  0  0  0  0
  195.3100  174.8630  145.8750 C   0  0  0  0  0  2  0  0  0  0  0  0
  195.8940  172.5550  145.7680 N   0  0  0  0  0  2  0  0  0  0  0  0
  195.8730  173.6890  145.1460 C   0  0  0  0  0  0  0  0  0  0  0  0
  193.8580  175.0760  145.4820 C   0  0  0  0  0  2  0  0  0  0  0  0
  196.7910  172.6660  143.1940 N   0  0  0  0  0  2  0  0  0  0  0  0
  196.3350  174.9920  142.9010 C   0  0  0  0  0  0  0  0  0  0  0  0
  1 21  1  6  0  0  0
  1 17  1  0  0  0  0
  2 10  1  1  0  0  0
  3  4  1  0  0  0  0
  3  1  1  1  0  0  0
  4  2  1  0  0  0  0
  5  2  1  0  0  0  0
  6  5  2  0  0  0  0
  7  3  1  0  0  0  0
  7  4  1  0  0  0  0
  8  6  1  0  0  0  0
  8  7  1  0  0  0  0
  9 10  1  0  0  0  0
 11 13  1  0  0  0  0
 11  6  1  0  0  0  0
 13 14  2  0  0  0  0
 13 12  1  0  0  0  0
 15 16  3  0  0  0  0
 16 11  1  0  0  0  0
 17 19  1  0  0  0  0
 19 20  2  0  0  0  0
 19 18  1  0  0  0  0
 22 25  1  0  0  0  0
 22 21  1  0  0  0  0
 23 31  1  0  0  0  0
 24 28  1  0  0  0  0
 24 25  1  0  0  0  0
 25 32  1  0  0  0  0
 26 27  1  0  0  0  0
 27 34  2  0  0  0  0
 31 30  2  0  0  0  0
 31 29  1  0  0  0  0
 32 29  1  0  0  0  0
 33 23  2  0  0  0  0
 34 28  1  0  0  0  0
 34 23  1  0  0  0  0
M  END
>  <MODEL>
9

>  <REMARK>
 VINA RESULT:      -6.5      3.350      5.103
  Name = 
  10 active torsions:
  status: ('A' for Active; 'I' for Inactive)
    1  A    between atoms: C_4  and  C_25
    2  A    between atoms: C_6  and  C_22
    3  A    between atoms: C_8  and  C_12
    4  A    between atoms: C_8  and  C_22
    5  A    between atoms: C_9  and  C_27
    6  A    between atoms: C_13  and  C_15
    7  A    between atoms: C_15  and  C_16
    8  A    between atoms: C_15  and  C_32
    9  A    between atoms: C_22  and  C_30
   10  A    between atoms: C_27  and  C_30
                            x       y       z     vdW  Elec       q    Type
                         _______ _______ _______ _____ _____    ______ ____

>  <TORSDO>
F 10

$$$$
