=
 OpenBabel11042414213D

 27 29  0  0  1  0  0  0  0  0999 V2000
  190.0150  174.8980  145.1920 N   0  0  0  0  0  0  0  0  0  0  0  0
  188.2250  176.2340  146.0240 C   0  0  0  0  0  2  0  0  0  0  0  0
  187.3260  176.7360  146.7800 C   0  0  0  0  0  0  0  0  0  0  0  0
  189.4470  176.2240  142.7020 O   0  0  0  0  0  0  0  0  0  0  0  0
  184.8530  179.2490  145.0700 C   0  0  0  0  0  3  0  0  0  0  0  0
  188.7800  176.5920  143.7040 C   0  0  0  0  0  0  0  0  0  0  0  0
  186.3130  177.3930  147.1900 C   0  0  0  0  0  0  0  0  0  0  0  0
  188.9950  175.9020  145.0210 C   0  0  2  0  0  3  0  0  0  0  0  0
  187.8430  177.7400  143.5190 C   0  0  0  0  0  3  0  0  0  0  0  0
  186.7210  177.8700  144.2280 C   0  0  0  0  0  3  0  0  0  0  0  0
  184.3530  178.2730  146.1140 C   0  0  0  0  0  2  0  0  0  0  0  0
  185.2420  178.1190  147.3190 C   0  0  0  0  0  2  0  0  0  0  0  0
  185.8800  179.0680  144.2240 C   0  0  0  0  0  3  0  0  0  0  0  0
  191.3700  175.2560  145.2070 N   0  0  0  0  0  0  0  0  0  0  0  0
  192.6380  175.3090  144.6010 C   0  0  0  0  0  0  0  0  0  0  0  0
  193.3960  176.4880  146.6200 C   0  0  0  0  0  3  0  0  0  0  0  0
  194.8530  175.9080  144.5880 C   0  0  0  0  0  0  0  0  0  0  0  0
  192.4640  175.8630  145.8490 C   0  0  0  0  0  0  0  0  0  0  0  0
  193.7820  175.2680  143.8620 C   0  0  0  0  0  3  0  0  0  0  0  0
  194.6540  176.4950  145.9200 C   0  0  0  0  0  3  0  0  0  0  0  0
  196.6160  177.0580  143.4920 O   0  0  0  0  0  0  0  0  0  0  0  0
  196.9890  174.8410  143.9100 O   0  0  0  0  0  1  0  0  0  0  0  0
  196.1870  175.9750  143.9710 C   0  0  0  0  0  0  0  0  0  0  0  0
  189.6570  173.5100  145.4640 C   0  0  0  0  0  2  0  0  0  0  0  0
  190.9430  171.8270  144.3710 O   0  0  0  0  0  1  0  0  0  0  0  0
  189.9940  172.6490  144.2940 C   0  0  0  0  0  0  0  0  0  0  0  0
  189.2840  172.7770  143.1080 O   0  0  0  0  0  0  0  0  0  0  0  0
  1 14  1  0  0  0  0
  1 24  1  0  0  0  0
  2  3  1  0  0  0  0
  3  7  3  0  0  0  0
  4  6  2  0  0  0  0
  5 11  1  0  0  0  0
  6  8  1  0  0  0  0
  7 12  1  0  0  0  0
  8  1  1  6  0  0  0
  8  2  1  0  0  0  0
  9  6  1  0  0  0  0
  9 10  2  0  0  0  0
 11 12  1  0  0  0  0
 13 10  1  0  0  0  0
 13  5  2  0  0  0  0
 14 18  1  0  0  0  0
 15 14  1  0  0  0  0
 15 18  1  0  0  0  0
 17 20  2  0  0  0  0
 18 16  2  0  0  0  0
 19 17  1  0  0  0  0
 19 15  2  0  0  0  0
 20 16  1  0  0  0  0
 21 23  2  0  0  0  0
 22 23  1  0  0  0  0
 23 17  1  0  0  0  0
 26 25  1  0  0  0  0
 26 24  1  0  0  0  0
 27 26  2  0  0  0  0
M  END
>  <MODEL>
1

>  <REMARK>
 VINA RESULT:      -7.7      0.000      0.000
  Name = 
  5 active torsions:
  status: ('A' for Active; 'I' for Inactive)
    1  A    between atoms: N_1  and  N_2
    2  A    between atoms: N_2  and  C_6
    3  A    between atoms: N_2  and  C_15
    4  A    between atoms: C_6  and  C_13
    5  A    between atoms: C_19  and  C_23
                            x       y       z     vdW  Elec       q    Type
                         _______ _______ _______ _____ _____    ______ ____

>  <TORSDO>
F 5

$$$$
=
 OpenBabel11042414213D

 27 29  0  0  1  0  0  0  0  0999 V2000
  189.6470  175.8450  142.7850 N   0  0  0  0  0  0  0  0  0  0  0  0
  188.1870  176.5090  144.5480 C   0  0  0  0  0  2  0  0  0  0  0  0
  187.5850  176.5820  145.6720 C   0  0  0  0  0  0  0  0  0  0  0  0
  188.1410  177.7410  141.2300 O   0  0  0  0  0  0  0  0  0  0  0  0
  184.5030  178.9970  145.8180 C   0  0  0  0  0  3  0  0  0  0  0  0
  187.8530  177.6550  142.4520 C   0  0  0  0  0  0  0  0  0  0  0  0
  186.7430  176.8830  146.5820 C   0  0  0  0  0  0  0  0  0  0  0  0
  188.5690  176.6470  143.3050 C   0  0  2  0  0  3  0  0  0  0  0  0
  186.8370  178.6110  142.9840 C   0  0  0  0  0  3  0  0  0  0  0  0
  186.0360  178.3100  144.0060 C   0  0  0  0  0  3  0  0  0  0  0  0
  184.4740  177.6730  146.5530 C   0  0  0  0  0  2  0  0  0  0  0  0
  185.7430  177.3250  147.2850 C   0  0  0  0  0  2  0  0  0  0  0  0
  185.1700  179.2750  144.6860 C   0  0  0  0  0  3  0  0  0  0  0  0
  190.9370  175.9490  143.3260 N   0  0  0  0  0  0  0  0  0  0  0  0
  192.3360  175.9300  143.1880 C   0  0  0  0  0  0  0  0  0  0  0  0
  192.4370  176.4260  145.5930 C   0  0  0  0  0  3  0  0  0  0  0  0
  194.4570  176.1220  144.0410 C   0  0  0  0  0  0  0  0  0  0  0  0
  191.7840  176.1810  144.4240 C   0  0  0  0  0  0  0  0  0  0  0  0
  193.6580  175.8750  142.8640 C   0  0  0  0  0  3  0  0  0  0  0  0
  193.8550  176.3880  145.3540 C   0  0  0  0  0  3  0  0  0  0  0  0
  196.5190  177.0130  143.2760 O   0  0  0  0  0  0  0  0  0  0  0  0
  196.6670  175.0930  144.5090 O   0  0  0  0  0  1  0  0  0  0  0  0
  195.9240  176.1080  143.9170 C   0  0  0  0  0  0  0  0  0  0  0  0
  189.3970  174.8310  141.7660 C   0  0  0  0  0  2  0  0  0  0  0  0
  187.6850  173.1790  141.9010 O   0  0  0  0  0  0  0  0  0  0  0  0
  188.7590  173.6300  142.3760 C   0  0  0  0  0  0  0  0  0  0  0  0
  189.3310  173.0270  143.4880 O   0  0  0  0  0  1  0  0  0  0  0  0
  1 14  1  0  0  0  0
  2  3  1  0  0  0  0
  3  7  3  0  0  0  0
  4  6  2  0  0  0  0
  5 11  1  0  0  0  0
  6  9  1  0  0  0  0
  6  8  1  0  0  0  0
  7 12  1  0  0  0  0
  8  1  1  6  0  0  0
  8  2  1  0  0  0  0
  9 10  2  0  0  0  0
 10 13  1  0  0  0  0
 11 12  1  0  0  0  0
 13  5  2  0  0  0  0
 14 18  1  0  0  0  0
 15 14  1  0  0  0  0
 15 18  1  0  0  0  0
 17 20  2  0  0  0  0
 18 16  2  0  0  0  0
 19 15  2  0  0  0  0
 19 17  1  0  0  0  0
 20 16  1  0  0  0  0
 21 23  2  0  0  0  0
 23 17  1  0  0  0  0
 23 22  1  0  0  0  0
 24 26  1  0  0  0  0
 24  1  1  0  0  0  0
 25 26  2  0  0  0  0
 26 27  1  0  0  0  0
M  END
>  <MODEL>
2

>  <REMARK>
 VINA RESULT:      -7.4      1.381      1.780
  Name = 
  5 active torsions:
  status: ('A' for Active; 'I' for Inactive)
    1  A    between atoms: N_1  and  N_2
    2  A    between atoms: N_2  and  C_6
    3  A    between atoms: N_2  and  C_15
    4  A    between atoms: C_6  and  C_13
    5  A    between atoms: C_19  and  C_23
                            x       y       z     vdW  Elec       q    Type
                         _______ _______ _______ _____ _____    ______ ____

>  <TORSDO>
F 5

$$$$
=
 OpenBabel11042414213D

 27 29  0  0  1  0  0  0  0  0999 V2000
  190.0050  174.6630  144.5920 N   0  0  0  0  0  0  0  0  0  0  0  0
  188.2620  176.2160  144.1130 C   0  0  0  0  0  2  0  0  0  0  0  0
  187.4730  177.0160  143.5060 C   0  0  0  0  0  0  0  0  0  0  0  0
  189.2030  175.0660  147.3260 O   0  0  0  0  0  0  0  0  0  0  0  0
  185.0650  179.1100  145.7810 C   0  0  0  0  0  3  0  0  0  0  0  0
  188.5230  175.6530  146.4440 C   0  0  0  0  0  0  0  0  0  0  0  0
  186.5950  177.9110  143.2720 C   0  0  0  0  0  0  0  0  0  0  0  0
  188.9230  175.5220  145.0010 C   0  0  2  0  0  3  0  0  0  0  0  0
  187.3180  176.4090  146.8990 C   0  0  0  0  0  3  0  0  0  0  0  0
  186.8640  177.4860  146.2580 C   0  0  0  0  0  3  0  0  0  0  0  0
  185.6940  179.7340  144.5530 C   0  0  0  0  0  2  0  0  0  0  0  0
  185.7050  178.8580  143.3290 C   0  0  0  0  0  2  0  0  0  0  0  0
  185.5850  178.1360  146.5460 C   0  0  0  0  0  3  0  0  0  0  0  0
  191.3370  175.0630  144.7670 N   0  0  0  0  0  0  0  0  0  0  0  0
  192.6560  175.1950  144.2980 C   0  0  0  0  0  0  0  0  0  0  0  0
  193.1620  176.2720  146.4480 C   0  0  0  0  0  3  0  0  0  0  0  0
  194.8370  175.8640  144.5470 C   0  0  0  0  0  0  0  0  0  0  0  0
  192.3370  175.6650  145.5510 C   0  0  0  0  0  0  0  0  0  0  0  0
  193.8700  175.2350  143.6790 C   0  0  0  0  0  3  0  0  0  0  0  0
  194.4830  176.3630  145.8830 C   0  0  0  0  0  3  0  0  0  0  0  0
  196.5890  177.0650  143.4880 O   0  0  0  0  0  0  0  0  0  0  0  0
  197.1440  174.9900  144.2720 O   0  0  0  0  0  1  0  0  0  0  0  0
  196.2230  176.0120  144.0740 C   0  0  0  0  0  0  0  0  0  0  0  0
  189.7410  173.3180  144.0920 C   0  0  0  0  0  2  0  0  0  0  0  0
  189.3340  172.2930  141.9790 O   0  0  0  0  0  1  0  0  0  0  0  0
  189.7300  173.3120  142.6010 C   0  0  0  0  0  0  0  0  0  0  0  0
  190.1880  174.4180  141.8980 O   0  0  0  0  0  0  0  0  0  0  0  0
  1 14  1  0  0  0  0
  2  8  1  0  0  0  0
  3  2  1  0  0  0  0
  5 13  2  0  0  0  0
  6  9  1  0  0  0  0
  6  4  2  0  0  0  0
  7 12  1  0  0  0  0
  7  3  3  0  0  0  0
  8  1  1  1  0  0  0
  8  6  1  0  0  0  0
 10 13  1  0  0  0  0
 10  9  2  0  0  0  0
 11  5  1  0  0  0  0
 12 11  1  0  0  0  0
 14 18  1  0  0  0  0
 15 14  1  0  0  0  0
 15 18  1  0  0  0  0
 17 20  2  0  0  0  0
 18 16  2  0  0  0  0
 19 15  2  0  0  0  0
 19 17  1  0  0  0  0
 20 16  1  0  0  0  0
 21 23  2  0  0  0  0
 23 22  1  0  0  0  0
 23 17  1  0  0  0  0
 24  1  1  0  0  0  0
 25 26  1  0  0  0  0
 26 24  1  0  0  0  0
 27 26  2  0  0  0  0
M  END
>  <MODEL>
3

>  <REMARK>
 VINA RESULT:      -7.2      1.222      2.189
  Name = 
  5 active torsions:
  status: ('A' for Active; 'I' for Inactive)
    1  A    between atoms: N_1  and  N_2
    2  A    between atoms: N_2  and  C_6
    3  A    between atoms: N_2  and  C_15
    4  A    between atoms: C_6  and  C_13
    5  A    between atoms: C_19  and  C_23
                            x       y       z     vdW  Elec       q    Type
                         _______ _______ _______ _____ _____    ______ ____

>  <TORSDO>
F 5

$$$$
=
 OpenBabel11042414213D

 27 29  0  0  1  0  0  0  0  0999 V2000
  189.9140  176.6350  143.0970 N   0  0  0  0  0  0  0  0  0  0  0  0
  188.2980  177.2160  144.7500 C   0  0  0  0  0  2  0  0  0  0  0  0
  187.6650  177.3210  145.8540 C   0  0  0  0  0  0  0  0  0  0  0  0
  188.0710  177.8980  141.2840 O   0  0  0  0  0  0  0  0  0  0  0  0
  184.1260  178.9910  145.6550 C   0  0  0  0  0  3  0  0  0  0  0  0
  187.7760  177.9340  142.5070 C   0  0  0  0  0  0  0  0  0  0  0  0
  186.7540  177.5620  146.7140 C   0  0  0  0  0  0  0  0  0  0  0  0
  188.6730  177.2480  143.4980 C   0  0  2  0  0  3  0  0  0  0  0  0
  186.5620  178.7110  142.8960 C   0  0  0  0  0  3  0  0  0  0  0  0
  185.8190  178.3960  143.9570 C   0  0  0  0  0  3  0  0  0  0  0  0
  184.3680  177.8190  146.5820 C   0  0  0  0  0  2  0  0  0  0  0  0
  185.6630  177.8720  147.3490 C   0  0  0  0  0  2  0  0  0  0  0  0
  184.7460  179.2380  144.4890 C   0  0  0  0  0  3  0  0  0  0  0  0
  189.9410  175.3050  142.6550 N   0  0  0  0  0  0  0  0  0  0  0  0
  190.0820  174.3480  141.6340 C   0  0  0  0  0  0  0  0  0  0  0  0
  189.7780  172.6470  143.3820 C   0  0  0  0  0  3  0  0  0  0  0  0
  190.1590  172.1800  140.8880 C   0  0  0  0  0  0  0  0  0  0  0  0
  189.8730  173.9270  142.9280 C   0  0  0  0  0  0  0  0  0  0  0  0
  190.2430  173.5740  140.5250 C   0  0  0  0  0  3  0  0  0  0  0  0
  189.9350  171.7440  142.2730 C   0  0  0  0  0  3  0  0  0  0  0  0
  191.0030  170.1330  140.0330 O   0  0  0  0  0  1  0  0  0  0  0  0
  189.6730  171.3290  138.6070 O   0  0  0  0  0  0  0  0  0  0  0  0
  190.3050  171.1630  139.8340 C   0  0  0  0  0  0  0  0  0  0  0  0
  191.1450  177.4160  143.0360 C   0  0  0  0  0  2  0  0  0  0  0  0
  193.2580  176.4610  143.5860 O   0  0  0  0  0  0  0  0  0  0  0  0
  192.1470  176.8790  144.0010 C   0  0  0  0  0  0  0  0  0  0  0  0
  191.8430  176.8100  145.3540 O   0  0  0  0  0  1  0  0  0  0  0  0
  2  3  1  0  0  0  0
  3  7  3  0  0  0  0
  4  6  2  0  0  0  0
  5 11  1  0  0  0  0
  6  9  1  0  0  0  0
  6  8  1  0  0  0  0
  7 12  1  0  0  0  0
  8  1  1  6  0  0  0
  8  2  1  0  0  0  0
  9 10  2  0  0  0  0
 10 13  1  0  0  0  0
 11 12  1  0  0  0  0
 13  5  2  0  0  0  0
 14 18  1  0  0  0  0
 14  1  1  0  0  0  0
 15 14  1  0  0  0  0
 15 18  1  0  0  0  0
 17 20  2  0  0  0  0
 18 16  2  0  0  0  0
 19 17  1  0  0  0  0
 19 15  2  0  0  0  0
 20 16  1  0  0  0  0
 22 23  2  0  0  0  0
 23 21  1  0  0  0  0
 23 17  1  0  0  0  0
 24  1  1  0  0  0  0
 24 26  1  0  0  0  0
 25 26  2  0  0  0  0
 26 27  1  0  0  0  0
M  END
>  <MODEL>
4

>  <REMARK>
 VINA RESULT:      -7.2      2.548      4.761
  Name = 
  5 active torsions:
  status: ('A' for Active; 'I' for Inactive)
    1  A    between atoms: N_1  and  N_2
    2  A    between atoms: N_2  and  C_6
    3  A    between atoms: N_2  and  C_15
    4  A    between atoms: C_6  and  C_13
    5  A    between atoms: C_19  and  C_23
                            x       y       z     vdW  Elec       q    Type
                         _______ _______ _______ _____ _____    ______ ____

>  <TORSDO>
F 5

$$$$
=
 OpenBabel11042414213D

 27 29  0  0  1  0  0  0  0  0999 V2000
  190.1150  175.7210  144.8000 N   0  0  0  0  0  0  0  0  0  0  0  0
  188.1640  176.9850  144.2770 C   0  0  0  0  0  2  0  0  0  0  0  0
  187.3170  177.7310  143.6800 C   0  0  0  0  0  0  0  0  0  0  0  0
  188.8490  175.3910  147.3630 O   0  0  0  0  0  0  0  0  0  0  0  0
  184.1970  178.8180  145.7870 C   0  0  0  0  0  3  0  0  0  0  0  0
  188.1940  176.0100  146.4830 C   0  0  0  0  0  0  0  0  0  0  0  0
  186.3080  178.4750  143.4420 C   0  0  0  0  0  0  0  0  0  0  0  0
  188.8230  176.2580  145.1410 C   0  0  2  0  0  3  0  0  0  0  0  0
  186.7990  176.4160  146.8270 C   0  0  0  0  0  3  0  0  0  0  0  0
  186.2190  177.4970  146.3070 C   0  0  0  0  0  3  0  0  0  0  0  0
  184.8490  179.7910  144.8260 C   0  0  0  0  0  2  0  0  0  0  0  0
  185.2340  179.2050  143.4930 C   0  0  0  0  0  2  0  0  0  0  0  0
  184.8000  177.8220  146.4570 C   0  0  0  0  0  3  0  0  0  0  0  0
  190.2230  174.6010  143.9630 N   0  0  0  0  0  0  0  0  0  0  0  0
  190.1120  173.9900  142.7020 C   0  0  0  0  0  0  0  0  0  0  0  0
  190.9260  171.9380  143.7830 C   0  0  0  0  0  3  0  0  0  0  0  0
  190.3060  172.1800  141.3050 C   0  0  0  0  0  0  0  0  0  0  0  0
  190.5580  173.2490  143.7730 C   0  0  0  0  0  0  0  0  0  0  0  0
  189.9430  173.5730  141.4160 C   0  0  0  0  0  3  0  0  0  0  0  0
  190.7810  171.4010  142.4560 C   0  0  0  0  0  3  0  0  0  0  0  0
  190.9730  170.5790  139.6850 O   0  0  0  0  0  1  0  0  0  0  0  0
  189.2340  171.9350  139.0790 O   0  0  0  0  0  0  0  0  0  0  0  0
  190.1970  171.5220  139.9930 C   0  0  0  0  0  0  0  0  0  0  0  0
  191.3380  176.3950  145.2230 C   0  0  0  0  0  2  0  0  0  0  0  0
  193.3110  176.4170  143.8860 O   0  0  0  0  0  1  0  0  0  0  0  0
  192.1310  176.8250  144.0350 C   0  0  0  0  0  0  0  0  0  0  0  0
  191.5780  177.7000  143.1100 O   0  0  0  0  0  0  0  0  0  0  0  0
  1 24  1  0  0  0  0
  2  8  1  0  0  0  0
  3  2  1  0  0  0  0
  5 13  2  0  0  0  0
  6  9  1  0  0  0  0
  6  4  2  0  0  0  0
  7 12  1  0  0  0  0
  7  3  3  0  0  0  0
  8  1  1  1  0  0  0
  8  6  1  0  0  0  0
 10 13  1  0  0  0  0
 10  9  2  0  0  0  0
 11  5  1  0  0  0  0
 12 11  1  0  0  0  0
 14  1  1  0  0  0  0
 15 18  1  0  0  0  0
 15 14  1  0  0  0  0
 17 19  1  0  0  0  0
 17 20  2  0  0  0  0
 18 16  2  0  0  0  0
 18 14  1  0  0  0  0
 19 15  2  0  0  0  0
 20 16  1  0  0  0  0
 21 23  1  0  0  0  0
 22 23  2  0  0  0  0
 23 17  1  0  0  0  0
 25 26  1  0  0  0  0
 26 24  1  0  0  0  0
 27 26  2  0  0  0  0
M  END
>  <MODEL>
5

>  <REMARK>
 VINA RESULT:      -6.9      2.291      4.857
  Name = 
  5 active torsions:
  status: ('A' for Active; 'I' for Inactive)
    1  A    between atoms: N_1  and  N_2
    2  A    between atoms: N_2  and  C_6
    3  A    between atoms: N_2  and  C_15
    4  A    between atoms: C_6  and  C_13
    5  A    between atoms: C_19  and  C_23
                            x       y       z     vdW  Elec       q    Type
                         _______ _______ _______ _____ _____    ______ ____

>  <TORSDO>
F 5

$$$$
=
 OpenBabel11042414213D

 27 29  0  0  1  0  0  0  0  0999 V2000
  191.8510  175.7730  145.0110 N   0  0  0  0  0  0  0  0  0  0  0  0
  189.7160  176.7090  144.5180 C   0  0  0  0  0  2  0  0  0  0  0  0
  188.7600  177.3350  143.9480 C   0  0  0  0  0  0  0  0  0  0  0  0
  190.6220  175.0470  147.5100 O   0  0  0  0  0  0  0  0  0  0  0  0
  185.4630  177.7080  146.0340 C   0  0  0  0  0  3  0  0  0  0  0  0
  189.8820  175.6010  146.6550 C   0  0  0  0  0  0  0  0  0  0  0  0
  187.6390  177.9050  143.7320 C   0  0  0  0  0  0  0  0  0  0  0  0
  190.4790  176.0500  145.3500 C   0  0  2  0  0  3  0  0  0  0  0  0
  188.4320  175.7310  146.9850 C   0  0  0  0  0  3  0  0  0  0  0  0
  187.6780  176.7290  146.5220 C   0  0  0  0  0  3  0  0  0  0  0  0
  185.9480  178.8440  145.1580 C   0  0  0  0  0  2  0  0  0  0  0  0
  186.4520  178.4310  143.8010 C   0  0  0  0  0  2  0  0  0  0  0  0
  186.2220  176.7890  146.6530 C   0  0  0  0  0  3  0  0  0  0  0  0
  192.3100  174.4510  144.9250 N   0  0  0  0  0  0  0  0  0  0  0  0
  193.2100  173.4330  145.2870 C   0  0  0  0  0  0  0  0  0  0  0  0
  191.8950  171.9500  143.8340 C   0  0  0  0  0  3  0  0  0  0  0  0
  193.9670  171.2690  145.1870 C   0  0  0  0  0  0  0  0  0  0  0  0
  192.1800  173.1450  144.4210 C   0  0  0  0  0  0  0  0  0  0  0  0
  194.1690  172.5830  145.7490 C   0  0  0  0  0  3  0  0  0  0  0  0
  192.8630  170.9750  144.2620 C   0  0  0  0  0  3  0  0  0  0  0  0
  194.4660  169.1180  146.0560 O   0  0  0  0  0  1  0  0  0  0  0  0
  196.2630  170.3410  145.3490 O   0  0  0  0  0  0  0  0  0  0  0  0
  194.8970  170.1890  145.5540 C   0  0  0  0  0  0  0  0  0  0  0  0
  192.7600  176.8530  144.6410 C   0  0  0  0  0  2  0  0  0  0  0  0
  195.1180  176.7990  144.9850 O   0  0  0  0  0  0  0  0  0  0  0  0
  193.9740  176.8270  145.5070 C   0  0  0  0  0  0  0  0  0  0  0  0
  193.8420  176.8030  146.8890 O   0  0  0  0  0  1  0  0  0  0  0  0
  2  8  1  0  0  0  0
  3  2  1  0  0  0  0
  5 13  2  0  0  0  0
  6  9  1  0  0  0  0
  6  4  2  0  0  0  0
  7 12  1  0  0  0  0
  7  3  3  0  0  0  0
  8  1  1  1  0  0  0
  8  6  1  0  0  0  0
 10 13  1  0  0  0  0
 10  9  2  0  0  0  0
 11  5  1  0  0  0  0
 12 11  1  0  0  0  0
 14  1  1  0  0  0  0
 14 15  1  0  0  0  0
 15 19  1  0  0  0  0
 16 20  2  0  0  0  0
 16 18  1  0  0  0  0
 17 23  1  0  0  0  0
 17 19  2  0  0  0  0
 18 14  1  0  0  0  0
 18 15  2  0  0  0  0
 20 17  1  0  0  0  0
 22 23  2  0  0  0  0
 23 21  1  0  0  0  0
 24  1  1  0  0  0  0
 24 26  1  0  0  0  0
 25 26  2  0  0  0  0
 26 27  1  0  0  0  0
M  END
>  <MODEL>
6

>  <REMARK>
 VINA RESULT:      -6.9      2.661      4.429
  Name = 
  5 active torsions:
  status: ('A' for Active; 'I' for Inactive)
    1  A    between atoms: N_1  and  N_2
    2  A    between atoms: N_2  and  C_6
    3  A    between atoms: N_2  and  C_15
    4  A    between atoms: C_6  and  C_13
    5  A    between atoms: C_19  and  C_23
                            x       y       z     vdW  Elec       q    Type
                         _______ _______ _______ _____ _____    ______ ____

>  <TORSDO>
F 5

$$$$
=
 OpenBabel11042414213D

 27 29  0  0  1  0  0  0  0  0999 V2000
  189.6120  175.1970  143.2130 N   0  0  0  0  0  0  0  0  0  0  0  0
  191.9680  175.5540  143.1940 C   0  0  0  0  0  2  0  0  0  0  0  0
  193.1550  175.8470  142.8250 C   0  0  0  0  0  0  0  0  0  0  0  0
  190.1010  174.1130  145.8330 O   0  0  0  0  0  0  0  0  0  0  0  0
  196.0120  174.9420  145.3500 C   0  0  0  0  0  3  0  0  0  0  0  0
  191.0910  174.6040  145.2300 C   0  0  0  0  0  0  0  0  0  0  0  0
  194.4260  175.9540  142.7940 C   0  0  0  0  0  0  0  0  0  0  0  0
  190.9090  175.1390  143.8370 C   0  0  2  0  0  3  0  0  0  0  0  0
  192.3850  174.6630  145.9720 C   0  0  0  0  0  3  0  0  0  0  0  0
  193.5660  174.5940  145.3590 C   0  0  0  0  0  3  0  0  0  0  0  0
  196.2220  174.7660  143.8600 C   0  0  0  0  0  2  0  0  0  0  0  0
  195.7070  175.8950  143.0070 C   0  0  0  0  0  2  0  0  0  0  0  0
  194.8500  174.8460  146.0160 C   0  0  0  0  0  3  0  0  0  0  0  0
  188.6330  176.0820  143.6860 N   0  0  0  0  0  0  0  0  0  0  0  0
  187.8140  176.5780  144.7160 C   0  0  0  0  0  0  0  0  0  0  0  0
  186.9820  178.2080  143.0760 C   0  0  0  0  0  3  0  0  0  0  0  0
  186.2340  178.0320  145.5240 C   0  0  0  0  0  0  0  0  0  0  0  0
  187.7590  177.1620  143.4710 C   0  0  0  0  0  0  0  0  0  0  0  0
  187.1040  176.9210  145.8270 C   0  0  0  0  0  3  0  0  0  0  0  0
  186.1840  178.6460  144.1910 C   0  0  0  0  0  3  0  0  0  0  0  0
  185.8090  179.4260  147.3970 O   0  0  0  0  0  1  0  0  0  0  0  0
  184.0560  178.1270  146.7130 O   0  0  0  0  0  0  0  0  0  0  0  0
  185.3700  178.5660  146.5890 C   0  0  0  0  0  0  0  0  0  0  0  0
  189.3290  174.4220  142.0090 C   0  0  0  0  0  2  0  0  0  0  0  0
  189.2590  172.2910  143.0740 O   0  0  0  0  0  1  0  0  0  0  0  0
  188.6580  173.1390  142.3660 C   0  0  0  0  0  0  0  0  0  0  0  0
  187.3830  172.8640  141.8900 O   0  0  0  0  0  0  0  0  0  0  0  0
  1 14  1  0  0  0  0
  2  8  1  0  0  0  0
  3  2  1  0  0  0  0
  5 13  2  0  0  0  0
  6  4  2  0  0  0  0
  6  9  1  0  0  0  0
  7  3  3  0  0  0  0
  7 12  1  0  0  0  0
  8  1  1  6  0  0  0
  8  6  1  0  0  0  0
 10  9  2  0  0  0  0
 10 13  1  0  0  0  0
 11  5  1  0  0  0  0
 12 11  1  0  0  0  0
 14 15  1  0  0  0  0
 15 19  1  0  0  0  0
 16 18  1  0  0  0  0
 16 20  2  0  0  0  0
 17 19  2  0  0  0  0
 17 23  1  0  0  0  0
 18 14  1  0  0  0  0
 18 15  2  0  0  0  0
 20 17  1  0  0  0  0
 23 22  2  0  0  0  0
 23 21  1  0  0  0  0
 24 26  1  0  0  0  0
 24  1  1  0  0  0  0
 26 25  1  0  0  0  0
 27 26  2  0  0  0  0
M  END
>  <MODEL>
7

>  <REMARK>
 VINA RESULT:      -6.7      2.584      7.797
  Name = 
  5 active torsions:
  status: ('A' for Active; 'I' for Inactive)
    1  A    between atoms: N_1  and  N_2
    2  A    between atoms: N_2  and  C_6
    3  A    between atoms: N_2  and  C_15
    4  A    between atoms: C_6  and  C_13
    5  A    between atoms: C_19  and  C_23
                            x       y       z     vdW  Elec       q    Type
                         _______ _______ _______ _____ _____    ______ ____

>  <TORSDO>
F 5

$$$$
=
 OpenBabel11042414213D

 27 29  0  0  1  0  0  0  0  0999 V2000
  189.9980  174.8900  144.1890 N   0  0  0  0  0  0  0  0  0  0  0  0
  192.0110  175.5520  143.0990 C   0  0  0  0  0  2  0  0  0  0  0  0
  192.8840  175.8210  142.2070 C   0  0  0  0  0  0  0  0  0  0  0  0
  191.5490  175.2090  146.5920 O   0  0  0  0  0  0  0  0  0  0  0  0
  196.4920  176.6130  143.5160 C   0  0  0  0  0  3  0  0  0  0  0  0
  192.1140  175.5140  145.5090 C   0  0  0  0  0  0  0  0  0  0  0  0
  193.9910  176.0940  141.6330 C   0  0  0  0  0  0  0  0  0  0  0  0
  191.3720  175.3210  144.2160 C   0  0  2  0  0  3  0  0  0  0  0  0
  193.4840  176.1020  145.5930 C   0  0  0  0  0  3  0  0  0  0  0  0
  194.3920  175.9410  144.6310 C   0  0  0  0  0  3  0  0  0  0  0  0
  196.2970  175.8110  142.2470 C   0  0  0  0  0  2  0  0  0  0  0  0
  195.2300  176.3340  141.3220 C   0  0  0  0  0  2  0  0  0  0  0  0
  195.6680  176.6570  144.5760 C   0  0  0  0  0  3  0  0  0  0  0  0
  188.9820  175.7200  144.6840 N   0  0  0  0  0  0  0  0  0  0  0  0
  188.0070  176.7170  144.5020 C   0  0  0  0  0  0  0  0  0  0  0  0
  187.4650  176.4210  146.8810 C   0  0  0  0  0  3  0  0  0  0  0  0
  186.3220  178.0660  145.2780 C   0  0  0  0  0  0  0  0  0  0  0  0
  188.1610  176.1430  145.7440 C   0  0  0  0  0  0  0  0  0  0  0  0
  187.1230  177.6870  144.1390 C   0  0  0  0  0  3  0  0  0  0  0  0
  186.4960  177.4460  146.5990 C   0  0  0  0  0  3  0  0  0  0  0  0
  184.2060  179.0390  145.7350 O   0  0  0  0  0  1  0  0  0  0  0  0
  185.5210  180.1810  144.2530 O   0  0  0  0  0  0  0  0  0  0  0  0
  185.2960  179.1080  145.1090 C   0  0  0  0  0  0  0  0  0  0  0  0
  189.6230  173.6350  143.5470 C   0  0  0  0  0  2  0  0  0  0  0  0
  189.3340  172.1380  145.3790 O   0  0  0  0  0  1  0  0  0  0  0  0
  190.0350  172.4770  144.3910 C   0  0  0  0  0  0  0  0  0  0  0  0
  191.2100  171.7930  144.1080 O   0  0  0  0  0  0  0  0  0  0  0  0
  1 14  1  0  0  0  0
  2  8  1  0  0  0  0
  3  2  1  0  0  0  0
  5 13  2  0  0  0  0
  6  9  1  0  0  0  0
  6  4  2  0  0  0  0
  7  3  3  0  0  0  0
  8  1  1  6  0  0  0
  8  6  1  0  0  0  0
 10  9  2  0  0  0  0
 11  5  1  0  0  0  0
 12  7  1  0  0  0  0
 12 11  1  0  0  0  0
 13 10  1  0  0  0  0
 14 18  1  0  0  0  0
 15 14  1  0  0  0  0
 15 18  1  0  0  0  0
 17 20  2  0  0  0  0
 18 16  2  0  0  0  0
 19 15  2  0  0  0  0
 19 17  1  0  0  0  0
 20 16  1  0  0  0  0
 22 23  2  0  0  0  0
 23 17  1  0  0  0  0
 23 21  1  0  0  0  0
 24  1  1  0  0  0  0
 24 26  1  0  0  0  0
 26 25  1  0  0  0  0
 27 26  2  0  0  0  0
M  END
>  <MODEL>
8

>  <REMARK>
 VINA RESULT:      -6.7      2.241      7.716
  Name = 
  5 active torsions:
  status: ('A' for Active; 'I' for Inactive)
    1  A    between atoms: N_1  and  N_2
    2  A    between atoms: N_2  and  C_6
    3  A    between atoms: N_2  and  C_15
    4  A    between atoms: C_6  and  C_13
    5  A    between atoms: C_19  and  C_23
                            x       y       z     vdW  Elec       q    Type
                         _______ _______ _______ _____ _____    ______ ____

>  <TORSDO>
F 5

$$$$
=
 OpenBabel11042414213D

 27 29  0  0  1  0  0  0  0  0999 V2000
  189.7320  176.9740  145.4160 N   0  0  0  0  0  0  0  0  0  0  0  0
  191.4830  175.3600  145.3280 C   0  0  0  0  0  2  0  0  0  0  0  0
  192.2130  174.3380  145.5580 C   0  0  0  0  0  0  0  0  0  0  0  0
  191.3740  178.4150  143.5440 O   0  0  0  0  0  0  0  0  0  0  0  0
  195.6860  174.2640  143.7460 C   0  0  0  0  0  3  0  0  0  0  0  0
  191.7810  177.2760  143.8940 C   0  0  0  0  0  0  0  0  0  0  0  0
  193.1950  173.5240  145.5670 C   0  0  0  0  0  0  0  0  0  0  0  0
  190.9920  176.4970  144.9080 C   0  0  2  0  0  3  0  0  0  0  0  0
  193.0110  176.7540  143.2280 C   0  0  0  0  0  3  0  0  0  0  0  0
  193.8540  175.9190  143.8350 C   0  0  0  0  0  3  0  0  0  0  0  0
  195.5530  173.7580  145.1670 C   0  0  0  0  0  2  0  0  0  0  0  0
  194.3350  172.9130  145.4290 C   0  0  0  0  0  2  0  0  0  0  0  0
  194.9560  175.2290  143.1630 C   0  0  0  0  0  3  0  0  0  0  0  0
  188.7120  177.3650  144.5370 N   0  0  0  0  0  0  0  0  0  0  0  0
  188.1150  177.3650  143.2630 C   0  0  0  0  0  0  0  0  0  0  0  0
  186.3310  178.7320  144.2560 C   0  0  0  0  0  3  0  0  0  0  0  0
  186.4440  177.9650  141.8100 C   0  0  0  0  0  0  0  0  0  0  0  0
  187.4990  178.0340  144.2960 C   0  0  0  0  0  0  0  0  0  0  0  0
  187.6890  177.2540  141.9740 C   0  0  0  0  0  3  0  0  0  0  0  0
  185.7960  178.6760  142.9210 C   0  0  0  0  0  3  0  0  0  0  0  0
  186.3990  177.5010  139.4830 O   0  0  0  0  0  0  0  0  0  0  0  0
  184.5310  178.5130  140.3270 O   0  0  0  0  0  1  0  0  0  0  0  0
  185.8030  177.9770  140.4850 C   0  0  0  0  0  0  0  0  0  0  0  0
  189.4490  176.9560  146.8470 C   0  0  0  0  0  2  0  0  0  0  0  0
  187.2170  176.1970  147.1960 O   0  0  0  0  0  0  0  0  0  0  0  0
  188.4400  175.9040  147.1620 C   0  0  0  0  0  0  0  0  0  0  0  0
  188.8500  174.6090  147.4490 O   0  0  0  0  0  1  0  0  0  0  0  0
  1 24  1  0  0  0  0
  2  3  1  0  0  0  0
  3  7  3  0  0  0  0
  4  6  2  0  0  0  0
  5 11  1  0  0  0  0
  6  8  1  0  0  0  0
  8  2  1  0  0  0  0
  8  1  1  1  0  0  0
  9 10  2  0  0  0  0
  9  6  1  0  0  0  0
 11 12  1  0  0  0  0
 12  7  1  0  0  0  0
 13  5  2  0  0  0  0
 13 10  1  0  0  0  0
 14  1  1  0  0  0  0
 15 18  1  0  0  0  0
 15 14  1  0  0  0  0
 16 18  2  0  0  0  0
 17 19  1  0  0  0  0
 17 20  2  0  0  0  0
 18 14  1  0  0  0  0
 19 15  2  0  0  0  0
 20 16  1  0  0  0  0
 21 23  2  0  0  0  0
 22 23  1  0  0  0  0
 23 17  1  0  0  0  0
 24 26  1  0  0  0  0
 26 25  2  0  0  0  0
 26 27  1  0  0  0  0
M  END
>  <MODEL>
9

>  <REMARK>
 VINA RESULT:      -6.7      2.802      7.687
  Name = 
  5 active torsions:
  status: ('A' for Active; 'I' for Inactive)
    1  A    between atoms: N_1  and  N_2
    2  A    between atoms: N_2  and  C_6
    3  A    between atoms: N_2  and  C_15
    4  A    between atoms: C_6  and  C_13
    5  A    between atoms: C_19  and  C_23
                            x       y       z     vdW  Elec       q    Type
                         _______ _______ _______ _____ _____    ______ ____

>  <TORSDO>
F 5

$$$$
