=
 OpenBabel11042415003D

 39 42  0  0  1  0  0  0  0  0999 V2000
  195.6240  176.4810  143.0300 C   0  0  0  0  0  2  0  0  0  0  0  0
  190.4300  175.2840  146.2040 C   0  0  0  0  0  2  0  0  0  0  0  0
  193.9510  173.9150  141.7350 C   0  0  0  0  0  2  0  0  0  0  0  0
  188.5540  176.7150  145.3320 C   0  0  1  0  0  3  0  0  0  0  0  0
  189.5420  172.7210  139.7860 C   0  0  0  0  0  0  0  0  0  0  0  0
  189.0020  175.2980  145.6790 C   0  0  0  0  0  2  0  0  0  0  0  0
  193.3630  175.2530  146.4340 C   0  0  0  0  0  3  0  0  0  0  0  0
  195.5950  175.3770  141.9770 C   0  0  1  0  0  3  0  0  0  0  0  0
  191.3120  175.6350  145.1490 O   0  0  0  0  0  0  0  0  0  0  0  0
  195.4620  175.6840  145.3680 N   0  0  0  0  0  0  0  0  0  0  0  0
  188.1970  177.3290  141.7520 C   0  0  0  0  0  1  0  0  0  0  0  0
  190.2430  172.1230  138.6860 N   0  0  0  0  0  0  0  0  0  0  0  0
  190.2290  173.7350  140.6210 C   0  0  0  0  0  0  0  0  0  0  0  0
  194.7620  175.2730  146.4620 C   0  0  0  0  0  3  0  0  0  0  0  0
  188.7710  176.4060  142.8120 C   0  0  1  0  0  3  0  0  0  0  0  0
  189.4680  174.5170  141.3990 C   0  0  0  0  0  3  0  0  0  0  0  0
  191.7350  173.9350  140.4750 C   0  0  2  0  0  3  0  0  0  0  0  0
  192.3740  172.9660  139.4580 C   0  0  0  0  0  2  0  0  0  0  0  0
  188.3440  172.3990  140.0240 O   0  0  0  0  0  0  0  0  0  0  0  0
  189.9630  175.6400  142.2510 C   0  0  0  0  0  2  0  0  0  0  0  0
  193.4390  176.0930  144.1720 C   0  0  0  0  0  3  0  0  0  0  0  0
  191.4840  172.7450  138.2450 C   0  0  0  0  0  2  0  0  0  0  0  0
  194.3050  175.2380  141.4480 O   0  0  0  0  0  0  0  0  0  0  0  0
  196.5650  175.7250  140.8660 C   0  0  0  0  0  1  0  0  0  0  0  0
  189.1800  177.2290  144.0260 C   0  0  0  0  0  2  0  0  0  0  0  0
  194.8320  176.0940  144.2330 C   0  0  0  0  0  0  0  0  0  0  0  0
  192.6990  175.6610  145.2680 C   0  0  0  0  0  0  0  0  0  0  0  0
  192.4340  173.7650  141.8280 C   0  0  0  0  0  2  0  0  0  0  0  0
  190.6150  170.6050  136.8050 C   0  0  0  0  0  2  0  0  0  0  0  0
  189.3950  171.4380  136.4950 C   0  0  0  0  0  2  0  0  0  0  0  0
  189.6740  171.0110  137.9280 C   0  0  0  0  0  3  0  0  0  0  0  0
  187.0340  176.7870  145.2800 C   0  0  0  0  0  2  0  0  0  0  0  0
  186.4890  177.3190  146.5990 C   0  0  0  0  0  2  0  0  0  0  0  0
  185.8310  178.6870  146.4310 C   0  0  2  0  0  3  0  0  0  0  0  0
  185.7960  179.3600  147.6530 O   0  0  0  0  0  1  0  0  0  0  0  0
  184.4200  178.5670  145.8620 C   0  0  0  0  0  2  0  0  0  0  0  0
  185.4830  179.9860  144.0770 C   0  0  0  0  0  1  0  0  0  0  0  0
  184.2960  179.1130  144.4400 C   0  0  1  0  0  3  0  0  0  0  0  0
  184.1620  178.0750  143.5170 O   0  0  0  0  0  1  0  0  0  0  0  0
  1 26  1  0  0  0  0
  3 28  1  0  0  0  0
  4 32  1  6  0  0  0
  4  6  1  0  0  0  0
  5 19  2  0  0  0  0
  5 13  1  0  0  0  0
  6  2  1  0  0  0  0
  7 14  1  0  0  0  0
  8 24  1  6  0  0  0
  8  1  1  0  0  0  0
  9 27  1  0  0  0  0
  9  2  1  0  0  0  0
 10 14  2  0  0  0  0
 12  5  1  0  0  0  0
 13 16  2  0  0  0  0
 15 11  1  6  0  0  0
 15 25  1  0  0  0  0
 16 20  1  0  0  0  0
 17 18  1  6  0  0  0
 17 13  1  0  0  0  0
 17 28  1  0  0  0  0
 20 15  1  0  0  0  0
 21 26  2  0  0  0  0
 21 27  1  0  0  0  0
 22 12  1  0  0  0  0
 22 18  1  0  0  0  0
 23  3  1  0  0  0  0
 23  8  1  0  0  0  0
 25  4  1  0  0  0  0
 26 10  1  0  0  0  0
 27  7  2  0  0  0  0
 29 31  1  0  0  0  0
 30 29  1  0  0  0  0
 30 31  1  0  0  0  0
 31 12  1  0  0  0  0
 32 33  1  0  0  0  0
 34 33  1  0  0  0  0
 34 35  1  1  0  0  0
 36 34  1  0  0  0  0
 38 37  1  6  0  0  0
 38 36  1  0  0  0  0
 39 38  1  0  0  0  0
M  END
>  <MODEL>
1

>  <REMARK>
 VINA RESULT:      -8.3      0.000      0.000
  Name = 
  6 active torsions:
  status: ('A' for Active; 'I' for Inactive)
    1  A    between atoms: C_3  and  C_5
    2  A    between atoms: C_3  and  C_35
    3  A    between atoms: C_8  and  C_26
    4  A    between atoms: C_8  and  C_35
    5  A    between atoms: N_16  and  C_38
    6  A    between atoms: C_23  and  C_26
                            x       y       z     vdW  Elec       q    Type
                         _______ _______ _______ _____ _____    ______ ____

>  <TORSDO>
F 6

$$$$
=
 OpenBabel11042415003D

 39 42  0  0  1  0  0  0  0  0999 V2000
  189.9320  173.4690  138.6760 C   0  0  0  0  0  2  0  0  0  0  0  0
  192.8710  171.9610  143.9270 C   0  0  0  0  0  2  0  0  0  0  0  0
  188.0020  173.9270  141.3450 C   0  0  0  0  0  2  0  0  0  0  0  0
  194.1850  173.9370  144.7610 C   0  0  1  0  0  3  0  0  0  0  0  0
  187.8040  176.4320  145.6300 C   0  0  0  0  0  0  0  0  0  0  0  0
  193.1590  172.8650  145.1170 C   0  0  0  0  0  2  0  0  0  0  0  0
  191.8070  170.8110  141.4360 C   0  0  0  0  0  3  0  0  0  0  0  0
  188.5530  173.8560  139.2030 C   0  0  1  0  0  3  0  0  0  0  0  0
  192.1950  172.7130  142.9310 O   0  0  0  0  0  0  0  0  0  0  0  0
  190.7010  171.2160  139.3530 N   0  0  0  0  0  0  0  0  0  0  0  0
  192.8020  177.3080  144.5530 C   0  0  0  0  0  1  0  0  0  0  0  0
  186.4800  176.8510  145.2690 N   0  0  0  0  0  0  0  0  0  0  0  0
  188.7350  175.9720  144.5710 C   0  0  0  0  0  0  0  0  0  0  0  0
  191.2820  170.3450  140.2260 C   0  0  0  0  0  3  0  0  0  0  0  0
  192.4810  175.8250  144.5890 C   0  0  1  0  0  3  0  0  0  0  0  0
  190.0400  175.9230  144.8710 C   0  0  0  0  0  3  0  0  0  0  0  0
  188.2020  175.6990  143.1670 C   0  0  2  0  0  3  0  0  0  0  0  0
  186.6770  175.9020  143.0540 C   0  0  0  0  0  2  0  0  0  0  0  0
  188.1760  176.4750  146.8360 O   0  0  0  0  0  0  0  0  0  0  0  0
  191.1370  175.5610  143.9230 C   0  0  0  0  0  2  0  0  0  0  0  0
  191.1460  173.0470  140.8160 C   0  0  0  0  0  3  0  0  0  0  0  0
  186.2000  177.0990  143.8620 C   0  0  0  0  0  2  0  0  0  0  0  0
  188.6720  174.6500  140.3510 O   0  0  0  0  0  0  0  0  0  0  0  0
  187.8090  174.6250  138.1290 C   0  0  0  0  0  1  0  0  0  0  0  0
  193.5920  175.0540  143.8870 C   0  0  0  0  0  2  0  0  0  0  0  0
  190.6260  172.5480  139.6220 C   0  0  0  0  0  0  0  0  0  0  0  0
  191.7280  172.1790  141.7330 C   0  0  0  0  0  0  0  0  0  0  0  0
  188.5460  174.2710  142.7300 C   0  0  0  0  0  2  0  0  0  0  0  0
  184.4610  178.1530  145.7260 C   0  0  0  0  0  2  0  0  0  0  0  0
  185.5450  178.6350  146.6600 C   0  0  0  0  0  2  0  0  0  0  0  0
  185.4730  177.1630  146.2810 C   0  0  0  0  0  3  0  0  0  0  0  0
  194.8130  174.5030  146.0270 C   0  0  0  0  0  2  0  0  0  0  0  0
  196.2790  174.0990  146.1110 C   0  0  0  0  0  2  0  0  0  0  0  0
  196.8020  173.5790  144.7730 C   0  0  2  0  0  3  0  0  0  0  0  0
  197.2320  172.2570  144.9040 O   0  0  0  0  0  1  0  0  0  0  0  0
  197.9390  174.4450  144.2380 C   0  0  0  0  0  2  0  0  0  0  0  0
  196.6960  174.4990  142.0500 C   0  0  0  0  0  1  0  0  0  0  0  0
  197.5320  175.2970  143.0360 C   0  0  1  0  0  3  0  0  0  0  0  0
  196.8360  176.4360  143.4440 O   0  0  0  0  0  1  0  0  0  0  0  0
  1  8  1  0  0  0  0
  1 26  1  0  0  0  0
  2  6  1  0  0  0  0
  3 28  1  0  0  0  0
  4  6  1  0  0  0  0
  4 32  1  1  0  0  0
  5 19  2  0  0  0  0
  7 27  1  0  0  0  0
  8 24  1  6  0  0  0
  8 23  1  0  0  0  0
  9  2  1  0  0  0  0
 10 26  2  0  0  0  0
 10 14  1  0  0  0  0
 12  5  1  0  0  0  0
 12 31  1  0  0  0  0
 13 16  2  0  0  0  0
 13  5  1  0  0  0  0
 14  7  2  0  0  0  0
 15 11  1  6  0  0  0
 17 28  1  1  0  0  0
 17 13  1  0  0  0  0
 18 17  1  0  0  0  0
 18 22  1  0  0  0  0
 20 15  1  0  0  0  0
 20 16  1  0  0  0  0
 21 27  2  0  0  0  0
 22 12  1  0  0  0  0
 23  3  1  0  0  0  0
 25 15  1  0  0  0  0
 25  4  1  0  0  0  0
 26 21  1  0  0  0  0
 27  9  1  0  0  0  0
 29 31  1  0  0  0  0
 29 30  1  0  0  0  0
 31 30  1  0  0  0  0
 32 33  1  0  0  0  0
 34 35  1  1  0  0  0
 34 33  1  0  0  0  0
 36 34  1  0  0  0  0
 38 37  1  6  0  0  0
 38 39  1  0  0  0  0
 38 36  1  0  0  0  0
M  END
>  <MODEL>
2

>  <REMARK>
 VINA RESULT:      -8.0      2.634      8.553
  Name = 
  6 active torsions:
  status: ('A' for Active; 'I' for Inactive)
    1  A    between atoms: C_3  and  C_5
    2  A    between atoms: C_3  and  C_35
    3  A    between atoms: C_8  and  C_26
    4  A    between atoms: C_8  and  C_35
    5  A    between atoms: N_16  and  C_38
    6  A    between atoms: C_23  and  C_26
                            x       y       z     vdW  Elec       q    Type
                         _______ _______ _______ _____ _____    ______ ____

>  <TORSDO>
F 6

$$$$
=
 OpenBabel11042415003D

 39 42  0  0  1  0  0  0  0  0999 V2000
  195.2470  175.9430  145.0060 C   0  0  0  0  0  2  0  0  0  0  0  0
  193.6040  174.3620  139.2360 C   0  0  0  0  0  2  0  0  0  0  0  0
  192.4740  177.5040  144.0420 C   0  0  0  0  0  2  0  0  0  0  0  0
  192.1960  172.2780  139.2960 C   0  0  1  0  0  3  0  0  0  0  0  0
  187.8510  176.6170  142.4560 C   0  0  0  0  0  0  0  0  0  0  0  0
  192.3010  173.7150  138.7910 C   0  0  0  0  0  2  0  0  0  0  0  0
  195.7000  175.7490  140.7680 C   0  0  0  0  0  3  0  0  0  0  0  0
  194.1730  176.9700  145.3550 C   0  0  1  0  0  3  0  0  0  0  0  0
  193.5750  174.5340  140.6460 O   0  0  0  0  0  0  0  0  0  0  0  0
  196.4960  176.4200  142.9230 N   0  0  0  0  0  0  0  0  0  0  0  0
  189.6980  171.8000  141.9140 C   0  0  0  0  0  1  0  0  0  0  0  0
  187.3830  177.5430  143.4480 N   0  0  0  0  0  0  0  0  0  0  0  0
  189.1860  175.9910  142.6170 C   0  0  0  0  0  0  0  0  0  0  0  0
  196.6540  176.3840  141.5700 C   0  0  0  0  0  3  0  0  0  0  0  0
  190.5240  172.8150  141.1430 C   0  0  1  0  0  3  0  0  0  0  0  0
  189.4490  174.8960  141.8910 C   0  0  0  0  0  3  0  0  0  0  0  0
  190.1460  176.5300  143.6740 C   0  0  2  0  0  3  0  0  0  0  0  0
  189.5820  177.7480  144.4340 C   0  0  0  0  0  2  0  0  0  0  0  0
  187.1200  176.3240  141.4680 O   0  0  0  0  0  0  0  0  0  0  0  0
  190.7010  174.0840  141.9680 C   0  0  0  0  0  2  0  0  0  0  0  0
  194.4590  175.1890  142.7610 C   0  0  0  0  0  3  0  0  0  0  0  0
  188.0950  177.6040  144.7170 C   0  0  0  0  0  2  0  0  0  0  0  0
  192.9130  176.5230  144.9370 O   0  0  0  0  0  0  0  0  0  0  0  0
  194.1630  177.1890  146.8540 C   0  0  0  0  0  1  0  0  0  0  0  0
  191.8760  172.2030  140.7970 C   0  0  0  0  0  2  0  0  0  0  0  0
  195.4260  175.8360  143.5300 C   0  0  0  0  0  0  0  0  0  0  0  0
  194.5850  175.1530  141.3770 C   0  0  0  0  0  0  0  0  0  0  0  0
  191.4840  176.9200  143.0350 C   0  0  0  0  0  2  0  0  0  0  0  0
  185.8530  179.1300  144.5060 C   0  0  0  0  0  2  0  0  0  0  0  0
  185.0950  177.8470  144.2590 C   0  0  0  0  0  2  0  0  0  0  0  0
  186.1510  178.3050  143.2640 C   0  0  0  0  0  3  0  0  0  0  0  0
  191.1730  171.5070  138.4750 C   0  0  0  0  0  2  0  0  0  0  0  0
  191.0380  172.1270  137.0900 C   0  0  0  0  0  2  0  0  0  0  0  0
  189.5750  172.3000  136.6850 C   0  0  2  0  0  3  0  0  0  0  0  0
  189.3780  171.8470  135.3800 O   0  0  0  0  0  1  0  0  0  0  0  0
  189.1270  173.7540  136.8040 C   0  0  0  0  0  2  0  0  0  0  0  0
  187.5010  175.1980  138.0710 C   0  0  0  0  0  1  0  0  0  0  0  0
  188.5350  174.0920  138.1730 C   0  0  1  0  0  3  0  0  0  0  0  0
  187.9720  172.9610  138.7650 O   0  0  0  0  0  1  0  0  0  0  0  0
  1  8  1  0  0  0  0
  2  9  1  0  0  0  0
  3 23  1  0  0  0  0
  4 32  1  6  0  0  0
  4 25  1  0  0  0  0
  5 13  1  0  0  0  0
  5 12  1  0  0  0  0
  6  2  1  0  0  0  0
  6  4  1  0  0  0  0
  7 27  2  0  0  0  0
  7 14  1  0  0  0  0
  8 24  1  1  0  0  0
  9 27  1  0  0  0  0
 10 26  1  0  0  0  0
 12 22  1  0  0  0  0
 13 17  1  0  0  0  0
 14 10  2  0  0  0  0
 15 11  1  1  0  0  0
 15 20  1  0  0  0  0
 16 20  1  0  0  0  0
 16 13  2  0  0  0  0
 17 28  1  6  0  0  0
 17 18  1  0  0  0  0
 18 22  1  0  0  0  0
 19  5  2  0  0  0  0
 21 26  2  0  0  0  0
 23  8  1  0  0  0  0
 25 15  1  0  0  0  0
 26  1  1  0  0  0  0
 27 21  1  0  0  0  0
 28  3  1  0  0  0  0
 30 29  1  0  0  0  0
 31 12  1  0  0  0  0
 31 30  1  0  0  0  0
 31 29  1  0  0  0  0
 33 32  1  0  0  0  0
 34 35  1  6  0  0  0
 34 36  1  0  0  0  0
 34 33  1  0  0  0  0
 36 38  1  0  0  0  0
 38 37  1  6  0  0  0
 38 39  1  0  0  0  0
M  END
>  <MODEL>
3

>  <REMARK>
 VINA RESULT:      -7.8      2.360      7.329
  Name = 
  6 active torsions:
  status: ('A' for Active; 'I' for Inactive)
    1  A    between atoms: C_3  and  C_5
    2  A    between atoms: C_3  and  C_35
    3  A    between atoms: C_8  and  C_26
    4  A    between atoms: C_8  and  C_35
    5  A    between atoms: N_16  and  C_38
    6  A    between atoms: C_23  and  C_26
                            x       y       z     vdW  Elec       q    Type
                         _______ _______ _______ _____ _____    ______ ____

>  <TORSDO>
F 6

$$$$
=
 OpenBabel11042415003D

 39 42  0  0  1  0  0  0  0  0999 V2000
  189.8030  173.5930  138.5250 C   0  0  0  0  0  2  0  0  0  0  0  0
  192.7610  171.6240  143.6100 C   0  0  0  0  0  2  0  0  0  0  0  0
  187.9680  174.0270  141.2640 C   0  0  0  0  0  2  0  0  0  0  0  0
  194.2180  173.4660  144.5110 C   0  0  1  0  0  3  0  0  0  0  0  0
  188.0310  176.3040  145.6780 C   0  0  0  0  0  0  0  0  0  0  0  0
  193.1340  172.4420  144.8370 C   0  0  0  0  0  2  0  0  0  0  0  0
  191.5690  170.6780  141.0910 C   0  0  0  0  0  3  0  0  0  0  0  0
  188.4640  174.0370  139.1080 C   0  0  1  0  0  3  0  0  0  0  0  0
  192.1110  172.4690  142.6720 O   0  0  0  0  0  0  0  0  0  0  0  0
  190.4420  171.2630  139.0630 N   0  0  0  0  0  0  0  0  0  0  0  0
  193.0490  176.9230  144.5150 C   0  0  0  0  0  1  0  0  0  0  0  0
  186.7290  176.8250  145.3750 N   0  0  0  0  0  0  0  0  0  0  0  0
  188.9060  175.8450  144.5720 C   0  0  0  0  0  0  0  0  0  0  0  0
  190.9860  170.3120  139.8730 C   0  0  0  0  0  3  0  0  0  0  0  0
  192.6350  175.4630  144.4820 C   0  0  1  0  0  3  0  0  0  0  0  0
  190.2120  175.6990  144.8340 C   0  0  0  0  0  3  0  0  0  0  0  0
  188.3240  175.6820  143.1710 C   0  0  2  0  0  3  0  0  0  0  0  0
  186.8130  175.9860  143.1090 C   0  0  0  0  0  2  0  0  0  0  0  0
  188.4330  176.2590  146.8750 O   0  0  0  0  0  0  0  0  0  0  0  0
  191.2610  175.3200  143.8390 C   0  0  0  0  0  2  0  0  0  0  0  0
  191.0370  172.9820  140.6060 C   0  0  0  0  0  3  0  0  0  0  0  0
  186.4320  177.1650  143.9900 C   0  0  0  0  0  2  0  0  0  0  0  0
  188.6600  174.7580  140.2920 O   0  0  0  0  0  0  0  0  0  0  0  0
  187.7460  174.9080  138.0960 C   0  0  0  0  0  1  0  0  0  0  0  0
  193.6780  174.6630  143.7120 C   0  0  0  0  0  2  0  0  0  0  0  0
  190.4590  172.5810  139.4020 C   0  0  0  0  0  0  0  0  0  0  0  0
  191.5840  172.0310  141.4610 C   0  0  0  0  0  0  0  0  0  0  0  0
  188.5660  174.2610  142.6510 C   0  0  0  0  0  2  0  0  0  0  0  0
  184.6870  178.0690  145.8900 C   0  0  0  0  0  2  0  0  0  0  0  0
  185.8020  178.6330  146.7390 C   0  0  0  0  0  2  0  0  0  0  0  0
  185.7670  177.1440  146.4280 C   0  0  0  0  0  3  0  0  0  0  0  0
  194.9100  173.9220  145.7870 C   0  0  0  0  0  2  0  0  0  0  0  0
  196.3890  174.1710  145.5220 C   0  0  0  0  0  2  0  0  0  0  0  0
  197.1530  172.8680  145.2960 C   0  0  2  0  0  3  0  0  0  0  0  0
  197.0530  172.4740  143.9610 O   0  0  0  0  0  1  0  0  0  0  0  0
  196.6440  171.7530  146.2070 C   0  0  0  0  0  2  0  0  0  0  0  0
  197.5780  169.4250  146.0080 C   0  0  0  0  0  1  0  0  0  0  0  0
  196.5330  170.4020  145.5000 C   0  0  1  0  0  3  0  0  0  0  0  0
  195.2560  169.8620  145.6530 O   0  0  0  0  0  1  0  0  0  0  0  0
  1  8  1  0  0  0  0
  1 26  1  0  0  0  0
  2  6  1  0  0  0  0
  3 28  1  0  0  0  0
  4  6  1  0  0  0  0
  4 32  1  1  0  0  0
  5 19  2  0  0  0  0
  7 27  1  0  0  0  0
  8 24  1  6  0  0  0
  8 23  1  0  0  0  0
  9  2  1  0  0  0  0
 10 26  2  0  0  0  0
 10 14  1  0  0  0  0
 12  5  1  0  0  0  0
 12 31  1  0  0  0  0
 13 16  2  0  0  0  0
 13  5  1  0  0  0  0
 14  7  2  0  0  0  0
 15 11  1  6  0  0  0
 17 28  1  1  0  0  0
 17 13  1  0  0  0  0
 18 17  1  0  0  0  0
 18 22  1  0  0  0  0
 20 15  1  0  0  0  0
 20 16  1  0  0  0  0
 21 27  2  0  0  0  0
 22 12  1  0  0  0  0
 23  3  1  0  0  0  0
 25 15  1  0  0  0  0
 25  4  1  0  0  0  0
 26 21  1  0  0  0  0
 27  9  1  0  0  0  0
 29 31  1  0  0  0  0
 29 30  1  0  0  0  0
 31 30  1  0  0  0  0
 33 32  1  0  0  0  0
 34 35  1  6  0  0  0
 34 33  1  0  0  0  0
 34 36  1  0  0  0  0
 38 39  1  0  0  0  0
 38 37  1  1  0  0  0
 38 36  1  0  0  0  0
M  END
>  <MODEL>
4

>  <REMARK>
 VINA RESULT:      -7.6      3.094      8.883
  Name = 
  6 active torsions:
  status: ('A' for Active; 'I' for Inactive)
    1  A    between atoms: C_3  and  C_5
    2  A    between atoms: C_3  and  C_35
    3  A    between atoms: C_8  and  C_26
    4  A    between atoms: C_8  and  C_35
    5  A    between atoms: N_16  and  C_38
    6  A    between atoms: C_23  and  C_26
                            x       y       z     vdW  Elec       q    Type
                         _______ _______ _______ _____ _____    ______ ____

>  <TORSDO>
F 6

$$$$
=
 OpenBabel11042415003D

 39 42  0  0  1  0  0  0  0  0999 V2000
  195.1150  175.9140  144.9020 C   0  0  0  0  0  2  0  0  0  0  0  0
  192.6610  174.1660  139.4790 C   0  0  0  0  0  2  0  0  0  0  0  0
  192.1790  177.3730  144.3500 C   0  0  0  0  0  2  0  0  0  0  0  0
  191.3460  172.0440  139.7870 C   0  0  1  0  0  3  0  0  0  0  0  0
  187.3980  176.3180  143.5070 C   0  0  0  0  0  0  0  0  0  0  0  0
  191.3270  173.4720  139.2490 C   0  0  0  0  0  2  0  0  0  0  0  0
  194.9210  175.6450  140.6480 C   0  0  0  0  0  3  0  0  0  0  0  0
  194.0750  176.9160  145.3940 C   0  0  1  0  0  3  0  0  0  0  0  0
  192.8430  174.3660  140.8730 O   0  0  0  0  0  0  0  0  0  0  0  0
  196.0150  176.3830  142.6440 N   0  0  0  0  0  0  0  0  0  0  0  0
  189.2940  171.5470  142.7640 C   0  0  0  0  0  1  0  0  0  0  0  0
  187.0590  177.2510  144.5440 N   0  0  0  0  0  0  0  0  0  0  0  0
  188.7610  175.7350  143.4710 C   0  0  0  0  0  0  0  0  0  0  0  0
  195.9660  176.3240  141.2840 C   0  0  0  0  0  3  0  0  0  0  0  0
  189.9600  172.5690  141.8600 C   0  0  1  0  0  3  0  0  0  0  0  0
  188.9460  174.6330  142.7310 C   0  0  0  0  0  3  0  0  0  0  0  0
  189.8550  176.3240  144.3590 C   0  0  2  0  0  3  0  0  0  0  0  0
  189.3740  177.5400  145.1770 C   0  0  0  0  0  2  0  0  0  0  0  0
  186.5350  175.9840  142.6470 O   0  0  0  0  0  0  0  0  0  0  0  0
  190.2200  173.8600  142.6270 C   0  0  0  0  0  2  0  0  0  0  0  0
  194.0180  175.0900  142.8170 C   0  0  0  0  0  3  0  0  0  0  0  0
  187.9530  177.3590  145.6880 C   0  0  0  0  0  2  0  0  0  0  0  0
  192.7810  176.4230  145.1830 O   0  0  0  0  0  0  0  0  0  0  0  0
  194.2870  177.1660  146.8740 C   0  0  0  0  0  1  0  0  0  0  0  0
  191.2620  171.9900  141.3210 C   0  0  0  0  0  2  0  0  0  0  0  0
  195.0700  175.7810  143.4170 C   0  0  0  0  0  0  0  0  0  0  0  0
  193.9320  175.0290  141.4300 C   0  0  0  0  0  0  0  0  0  0  0  0
  191.0660  176.7390  143.5170 C   0  0  0  0  0  2  0  0  0  0  0  0
  185.6850  178.8630  145.7670 C   0  0  0  0  0  2  0  0  0  0  0  0
  184.9380  177.5510  145.7280 C   0  0  0  0  0  2  0  0  0  0  0  0
  185.7890  177.9730  144.5390 C   0  0  0  0  0  3  0  0  0  0  0  0
  190.2350  171.2260  139.1450 C   0  0  0  0  0  2  0  0  0  0  0  0
  189.6760  171.9620  137.9330 C   0  0  0  0  0  2  0  0  0  0  0  0
  190.0910  171.2960  136.6230 C   0  0  2  0  0  3  0  0  0  0  0  0
  189.1160  171.5040  135.6450 O   0  0  0  0  0  1  0  0  0  0  0  0
  190.3350  169.8000  136.8050 C   0  0  0  0  0  2  0  0  0  0  0  0
  191.6570  169.2310  134.7410 C   0  0  0  0  0  1  0  0  0  0  0  0
  191.6840  169.3400  136.2550 C   0  0  1  0  0  3  0  0  0  0  0  0
  192.7070  170.2000  136.6560 O   0  0  0  0  0  1  0  0  0  0  0  0
  1  8  1  0  0  0  0
  2  9  1  0  0  0  0
  3 23  1  0  0  0  0
  4 32  1  6  0  0  0
  4 25  1  0  0  0  0
  5 12  1  0  0  0  0
  6  2  1  0  0  0  0
  6  4  1  0  0  0  0
  7 14  2  0  0  0  0
  7 27  1  0  0  0  0
  8 24  1  1  0  0  0
  9 27  1  0  0  0  0
 10 26  2  0  0  0  0
 12 22  1  0  0  0  0
 13  5  1  0  0  0  0
 13 17  1  0  0  0  0
 14 10  1  0  0  0  0
 15 20  1  0  0  0  0
 15 11  1  1  0  0  0
 16 13  2  0  0  0  0
 17 28  1  6  0  0  0
 17 18  1  0  0  0  0
 18 22  1  0  0  0  0
 19  5  2  0  0  0  0
 20 16  1  0  0  0  0
 21 26  1  0  0  0  0
 23  8  1  0  0  0  0
 25 15  1  0  0  0  0
 26  1  1  0  0  0  0
 27 21  2  0  0  0  0
 28  3  1  0  0  0  0
 30 29  1  0  0  0  0
 31 12  1  0  0  0  0
 31 30  1  0  0  0  0
 31 29  1  0  0  0  0
 33 32  1  0  0  0  0
 34 35  1  6  0  0  0
 34 36  1  0  0  0  0
 34 33  1  0  0  0  0
 38 37  1  6  0  0  0
 38 39  1  0  0  0  0
 38 36  1  0  0  0  0
M  END
>  <MODEL>
5

>  <REMARK>
 VINA RESULT:      -7.5      2.416      8.233
  Name = 
  6 active torsions:
  status: ('A' for Active; 'I' for Inactive)
    1  A    between atoms: C_3  and  C_5
    2  A    between atoms: C_3  and  C_35
    3  A    between atoms: C_8  and  C_26
    4  A    between atoms: C_8  and  C_35
    5  A    between atoms: N_16  and  C_38
    6  A    between atoms: C_23  and  C_26
                            x       y       z     vdW  Elec       q    Type
                         _______ _______ _______ _____ _____    ______ ____

>  <TORSDO>
F 6

$$$$
=
 OpenBabel11042415003D

 39 42  0  0  1  0  0  0  0  0999 V2000
  190.0530  170.7450  139.5010 C   0  0  0  0  0  2  0  0  0  0  0  0
  188.1890  176.3830  141.3010 C   0  0  0  0  0  2  0  0  0  0  0  0
  192.6280  172.7510  140.1360 C   0  0  0  0  0  2  0  0  0  0  0  0
  187.7990  176.3940  143.7860 C   0  0  1  0  0  3  0  0  0  0  0  0
  194.6440  175.4780  143.7650 C   0  0  0  0  0  0  0  0  0  0  0  0
  188.4990  177.0820  142.6160 C   0  0  0  0  0  2  0  0  0  0  0  0
  188.1940  174.5520  138.9970 C   0  0  0  0  0  3  0  0  0  0  0  0
  191.5690  170.9170  139.4950 C   0  0  1  0  0  3  0  0  0  0  0  0
  188.7960  175.0990  141.3080 O   0  0  0  0  0  0  0  0  0  0  0  0
  188.8180  172.4060  138.1430 N   0  0  0  0  0  0  0  0  0  0  0  0
  190.0580  174.6090  146.0280 C   0  0  0  0  0  1  0  0  0  0  0  0
  195.9010  174.8470  143.4780 N   0  0  0  0  0  0  0  0  0  0  0  0
  193.3850  174.8190  143.3430 C   0  0  0  0  0  0  0  0  0  0  0  0
  188.2330  173.6220  137.9530 C   0  0  0  0  0  3  0  0  0  0  0  0
  189.9040  175.2560  144.6640 C   0  0  1  0  0  3  0  0  0  0  0  0
  192.2460  175.2330  143.9140 C   0  0  0  0  0  3  0  0  0  0  0  0
  193.4430  173.6310  142.3870 C   0  0  2  0  0  3  0  0  0  0  0  0
  194.8780  173.2950  141.9300 C   0  0  0  0  0  2  0  0  0  0  0  0
  194.6150  176.5750  144.3910 O   0  0  0  0  0  0  0  0  0  0  0  0
  190.8920  174.6460  143.6770 C   0  0  0  0  0  2  0  0  0  0  0  0
  189.3380  172.9600  140.4040 C   0  0  0  0  0  3  0  0  0  0  0  0
  195.8860  173.4520  143.0580 C   0  0  0  0  0  2  0  0  0  0  0  0
  191.9890  171.6110  140.6360 O   0  0  0  0  0  0  0  0  0  0  0  0
  192.2240  169.5510  139.4610 C   0  0  0  0  0  1  0  0  0  0  0  0
  188.4720  175.0690  144.1790 C   0  0  0  0  0  2  0  0  0  0  0  0
  189.3650  172.0590  139.3400 C   0  0  0  0  0  0  0  0  0  0  0  0
  188.7630  174.2150  140.2340 C   0  0  0  0  0  0  0  0  0  0  0  0
  192.5780  173.8940  141.1490 C   0  0  0  0  0  2  0  0  0  0  0  0
  197.1840  176.8860  143.0600 C   0  0  0  0  0  2  0  0  0  0  0  0
  197.9230  175.7340  142.4230 C   0  0  0  0  0  2  0  0  0  0  0  0
  197.1720  175.5210  143.7290 C   0  0  0  0  0  3  0  0  0  0  0  0
  187.7110  177.3410  144.9740 C   0  0  0  0  0  2  0  0  0  0  0  0
  186.7300  176.7990  146.0050 C   0  0  0  0  0  2  0  0  0  0  0  0
  185.8530  177.9040  146.5910 C   0  0  2  0  0  3  0  0  0  0  0  0
  185.7900  177.7860  147.9800 O   0  0  0  0  0  1  0  0  0  0  0  0
  184.4450  177.8750  146.0030 C   0  0  0  0  0  2  0  0  0  0  0  0
  185.3130  179.8530  144.7100 C   0  0  0  0  0  1  0  0  0  0  0  0
  184.3050  178.7170  144.7350 C   0  0  1  0  0  3  0  0  0  0  0  0
  184.4450  177.9270  143.5930 O   0  0  0  0  0  1  0  0  0  0  0  0
  2  9  1  0  0  0  0
  2  6  1  0  0  0  0
  3 23  1  0  0  0  0
  3 28  1  0  0  0  0
  4 25  1  0  0  0  0
  4 32  1  1  0  0  0
  5 19  2  0  0  0  0
  6  4  1  0  0  0  0
  7 27  1  0  0  0  0
  8 24  1  1  0  0  0
  8  1  1  0  0  0  0
  8 23  1  0  0  0  0
 10 26  2  0  0  0  0
 12 31  1  0  0  0  0
 12  5  1  0  0  0  0
 13  5  1  0  0  0  0
 13 16  2  0  0  0  0
 14 10  1  0  0  0  0
 14  7  2  0  0  0  0
 15 11  1  1  0  0  0
 17 28  1  6  0  0  0
 17 13  1  0  0  0  0
 18 17  1  0  0  0  0
 18 22  1  0  0  0  0
 20 16  1  0  0  0  0
 20 15  1  0  0  0  0
 22 12  1  0  0  0  0
 25 15  1  0  0  0  0
 26  1  1  0  0  0  0
 26 21  1  0  0  0  0
 27 21  2  0  0  0  0
 27  9  1  0  0  0  0
 29 31  1  0  0  0  0
 30 29  1  0  0  0  0
 30 31  1  0  0  0  0
 32 33  1  0  0  0  0
 33 34  1  0  0  0  0
 34 35  1  1  0  0  0
 36 34  1  0  0  0  0
 38 37  1  1  0  0  0
 38 36  1  0  0  0  0
 39 38  1  0  0  0  0
M  END
>  <MODEL>
6

>  <REMARK>
 VINA RESULT:      -7.5      1.733      6.041
  Name = 
  6 active torsions:
  status: ('A' for Active; 'I' for Inactive)
    1  A    between atoms: C_3  and  C_5
    2  A    between atoms: C_3  and  C_35
    3  A    between atoms: C_8  and  C_26
    4  A    between atoms: C_8  and  C_35
    5  A    between atoms: N_16  and  C_38
    6  A    between atoms: C_23  and  C_26
                            x       y       z     vdW  Elec       q    Type
                         _______ _______ _______ _____ _____    ______ ____

>  <TORSDO>
F 6

$$$$
=
 OpenBabel11042415003D

 39 42  0  0  1  0  0  0  0  0999 V2000
  194.3890  176.7480  143.8730 C   0  0  0  0  0  2  0  0  0  0  0  0
  188.4800  176.1770  145.6760 C   0  0  0  0  0  2  0  0  0  0  0  0
  192.9720  174.0200  142.6050 C   0  0  0  0  0  2  0  0  0  0  0  0
  186.9880  177.4620  144.1110 C   0  0  1  0  0  3  0  0  0  0  0  0
  189.1710  172.5670  139.7560 C   0  0  0  0  0  0  0  0  0  0  0  0
  187.2450  176.1190  144.7890 C   0  0  0  0  0  2  0  0  0  0  0  0
  191.2420  176.1480  146.6910 C   0  0  0  0  0  3  0  0  0  0  0  0
  194.5750  175.4810  143.0430 C   0  0  1  0  0  3  0  0  0  0  0  0
  189.6290  176.3310  144.8560 O   0  0  0  0  0  0  0  0  0  0  0  0
  193.5690  176.3640  146.1770 N   0  0  0  0  0  0  0  0  0  0  0  0
  187.6250  177.4590  140.5170 C   0  0  0  0  0  1  0  0  0  0  0  0
  190.1020  171.7810  138.9970 N   0  0  0  0  0  0  0  0  0  0  0  0
  189.6710  173.7000  140.5710 C   0  0  0  0  0  0  0  0  0  0  0  0
  192.5820  176.1550  147.0930 C   0  0  0  0  0  3  0  0  0  0  0  0
  187.8450  176.7230  141.8270 C   0  0  1  0  0  3  0  0  0  0  0  0
  188.7790  174.6130  140.9780 C   0  0  0  0  0  3  0  0  0  0  0  0
  191.1720  173.8520  140.8070 C   0  0  2  0  0  3  0  0  0  0  0  0
  191.9990  172.7160  140.1710 C   0  0  0  0  0  2  0  0  0  0  0  0
  187.9360  172.3050  139.7100 O   0  0  0  0  0  0  0  0  0  0  0  0
  189.0960  175.8580  141.7400 C   0  0  0  0  0  2  0  0  0  0  0  0
  191.9610  176.5880  144.4290 C   0  0  0  0  0  3  0  0  0  0  0  0
  191.4490  172.3030  138.8140 C   0  0  0  0  0  2  0  0  0  0  0  0
  193.4650  175.2700  142.2150 O   0  0  0  0  0  0  0  0  0  0  0  0
  195.8230  175.6210  142.1940 C   0  0  0  0  0  1  0  0  0  0  0  0
  187.9660  177.7370  142.9580 C   0  0  0  0  0  2  0  0  0  0  0  0
  193.2860  176.5820  144.8630 C   0  0  0  0  0  0  0  0  0  0  0  0
  190.9340  176.3590  145.3390 C   0  0  0  0  0  0  0  0  0  0  0  0
  191.4770  173.9070  142.3080 C   0  0  0  0  0  2  0  0  0  0  0  0
  190.8280  170.0380  137.4430 C   0  0  0  0  0  2  0  0  0  0  0  0
  189.6870  170.7890  136.7990 C   0  0  0  0  0  2  0  0  0  0  0  0
  189.6900  170.5630  138.3040 C   0  0  0  0  0  3  0  0  0  0  0  0
  185.5430  177.5420  143.6390 C   0  0  0  0  0  2  0  0  0  0  0  0
  184.8570  178.7530  144.2570 C   0  0  0  0  0  2  0  0  0  0  0  0
  184.6560  178.5860  145.7620 C   0  0  2  0  0  3  0  0  0  0  0  0
  183.3570  178.9510  146.1200 O   0  0  0  0  0  1  0  0  0  0  0  0
  185.6660  179.4070  146.5590 C   0  0  0  0  0  2  0  0  0  0  0  0
  185.9460  177.3540  147.9870 C   0  0  0  0  0  1  0  0  0  0  0  0
  185.8960  178.8720  147.9720 C   0  0  1  0  0  3  0  0  0  0  0  0
  187.0670  179.3970  148.5200 O   0  0  0  0  0  1  0  0  0  0  0  0
  1 26  1  0  0  0  0
  4 32  1  6  0  0  0
  4  6  1  0  0  0  0
  5 13  1  0  0  0  0
  6  2  1  0  0  0  0
  7 14  1  0  0  0  0
  8 24  1  6  0  0  0
  8  1  1  0  0  0  0
  9 27  1  0  0  0  0
  9  2  1  0  0  0  0
 10 14  2  0  0  0  0
 12  5  1  0  0  0  0
 13 17  1  0  0  0  0
 13 16  2  0  0  0  0
 15 11  1  6  0  0  0
 15 25  1  0  0  0  0
 16 20  1  0  0  0  0
 17 18  1  1  0  0  0
 17 28  1  0  0  0  0
 19  5  2  0  0  0  0
 20 15  1  0  0  0  0
 21 26  2  0  0  0  0
 21 27  1  0  0  0  0
 22 12  1  0  0  0  0
 22 18  1  0  0  0  0
 23  3  1  0  0  0  0
 23  8  1  0  0  0  0
 25  4  1  0  0  0  0
 26 10  1  0  0  0  0
 27  7  2  0  0  0  0
 28  3  1  0  0  0  0
 29 31  1  0  0  0  0
 30 29  1  0  0  0  0
 30 31  1  0  0  0  0
 31 12  1  0  0  0  0
 32 33  1  0  0  0  0
 33 34  1  0  0  0  0
 34 35  1  1  0  0  0
 34 36  1  0  0  0  0
 36 38  1  0  0  0  0
 38 37  1  6  0  0  0
 38 39  1  0  0  0  0
M  END
>  <MODEL>
7

>  <REMARK>
 VINA RESULT:      -7.5      1.213      2.074
  Name = 
  6 active torsions:
  status: ('A' for Active; 'I' for Inactive)
    1  A    between atoms: C_3  and  C_5
    2  A    between atoms: C_3  and  C_35
    3  A    between atoms: C_8  and  C_26
    4  A    between atoms: C_8  and  C_35
    5  A    between atoms: N_16  and  C_38
    6  A    between atoms: C_23  and  C_26
                            x       y       z     vdW  Elec       q    Type
                         _______ _______ _______ _____ _____    ______ ____

>  <TORSDO>
F 6

$$$$
=
 OpenBabel11042415003D

 39 42  0  0  1  0  0  0  0  0999 V2000
  196.7090  175.8530  142.3820 C   0  0  0  0  0  2  0  0  0  0  0  0
  192.0620  175.2370  146.4450 C   0  0  0  0  0  2  0  0  0  0  0  0
  194.4260  173.6790  141.3240 C   0  0  0  0  0  2  0  0  0  0  0  0
  190.3200  177.0010  146.0160 C   0  0  1  0  0  3  0  0  0  0  0  0
  189.5980  173.3260  140.2140 C   0  0  0  0  0  0  0  0  0  0  0  0
  190.5840  175.5090  146.2070 C   0  0  0  0  0  2  0  0  0  0  0  0
  194.9410  174.7370  146.1010 C   0  0  0  0  0  3  0  0  0  0  0  0
  196.3050  174.8490  141.3070 C   0  0  1  0  0  3  0  0  0  0  0  0
  192.7810  175.5250  145.2550 O   0  0  0  0  0  0  0  0  0  0  0  0
  196.8500  174.9190  144.6700 N   0  0  0  0  0  0  0  0  0  0  0  0
  189.4170  177.9270  142.6040 C   0  0  0  0  0  1  0  0  0  0  0  0
  189.9760  172.7110  138.9730 N   0  0  0  0  0  0  0  0  0  0  0  0
  190.5850  174.1570  140.9440 C   0  0  0  0  0  0  0  0  0  0  0  0
  196.3050  174.5400  145.8600 C   0  0  0  0  0  3  0  0  0  0  0  0
  190.0160  176.8500  143.4900 C   0  0  1  0  0  3  0  0  0  0  0  0
  190.1200  174.9870  141.8880 C   0  0  0  0  0  3  0  0  0  0  0  0
  192.0500  174.1330  140.5180 C   0  0  2  0  0  3  0  0  0  0  0  0
  192.3220  173.1560  139.3560 C   0  0  0  0  0  2  0  0  0  0  0  0
  188.4270  173.1760  140.6650 O   0  0  0  0  0  0  0  0  0  0  0  0
  190.9420  175.9540  142.6770 C   0  0  0  0  0  2  0  0  0  0  0  0
  194.7370  175.7220  143.9070 C   0  0  0  0  0  3  0  0  0  0  0  0
  191.2000  173.1660  138.3290 C   0  0  0  0  0  2  0  0  0  0  0  0
  194.9350  174.9490  141.0310 O   0  0  0  0  0  0  0  0  0  0  0  0
  197.0980  175.1240  140.0450 C   0  0  0  0  0  1  0  0  0  0  0  0
  190.7720  177.5080  144.6380 C   0  0  0  0  0  2  0  0  0  0  0  0
  196.0990  175.5040  143.6970 C   0  0  0  0  0  0  0  0  0  0  0  0
  194.1510  175.3290  145.1050 C   0  0  0  0  0  0  0  0  0  0  0  0
  192.9480  173.7580  141.7020 C   0  0  0  0  0  2  0  0  0  0  0  0
  189.6920  170.3600  138.3640 C   0  0  0  0  0  2  0  0  0  0  0  0
  189.8130  171.1590  137.0890 C   0  0  0  0  0  2  0  0  0  0  0  0
  189.1020  171.7590  138.2920 C   0  0  0  0  0  3  0  0  0  0  0  0
  188.8500  177.3090  146.2620 C   0  0  0  0  0  2  0  0  0  0  0  0
  187.9770  176.2180  145.6540 C   0  0  0  0  0  2  0  0  0  0  0  0
  186.6510  176.7730  145.1400 C   0  0  2  0  0  3  0  0  0  0  0  0
  186.4470  176.3880  143.8140 O   0  0  0  0  0  1  0  0  0  0  0  0
  186.5950  178.2940  145.2550 C   0  0  0  0  0  2  0  0  0  0  0  0
  184.5140  177.6550  146.5190 C   0  0  0  0  0  1  0  0  0  0  0  0
  185.4480  178.7890  146.1360 C   0  0  1  0  0  3  0  0  0  0  0  0
  185.9350  179.4180  147.2820 O   0  0  0  0  0  1  0  0  0  0  0  0
  1 26  1  0  0  0  0
  3 28  1  0  0  0  0
  4  6  1  0  0  0  0
  4 32  1  6  0  0  0
  5 19  2  0  0  0  0
  5 13  1  0  0  0  0
  6  2  1  0  0  0  0
  8 24  1  6  0  0  0
  8  1  1  0  0  0  0
  9  2  1  0  0  0  0
 10 14  2  0  0  0  0
 12  5  1  0  0  0  0
 13 16  2  0  0  0  0
 14  7  1  0  0  0  0
 15 11  1  6  0  0  0
 15 25  1  0  0  0  0
 16 20  1  0  0  0  0
 17 18  1  6  0  0  0
 17 13  1  0  0  0  0
 17 28  1  0  0  0  0
 20 15  1  0  0  0  0
 21 27  1  0  0  0  0
 22 12  1  0  0  0  0
 22 18  1  0  0  0  0
 23  8  1  0  0  0  0
 23  3  1  0  0  0  0
 25  4  1  0  0  0  0
 26 21  2  0  0  0  0
 26 10  1  0  0  0  0
 27  9  1  0  0  0  0
 27  7  2  0  0  0  0
 30 31  1  0  0  0  0
 30 29  1  0  0  0  0
 31 29  1  0  0  0  0
 31 12  1  0  0  0  0
 33 32  1  0  0  0  0
 34 35  1  6  0  0  0
 34 36  1  0  0  0  0
 34 33  1  0  0  0  0
 36 38  1  0  0  0  0
 38 37  1  1  0  0  0
 38 39  1  0  0  0  0
M  END
>  <MODEL>
8

>  <REMARK>
 VINA RESULT:      -7.5      1.178      1.829
  Name = 
  6 active torsions:
  status: ('A' for Active; 'I' for Inactive)
    1  A    between atoms: C_3  and  C_5
    2  A    between atoms: C_3  and  C_35
    3  A    between atoms: C_8  and  C_26
    4  A    between atoms: C_8  and  C_35
    5  A    between atoms: N_16  and  C_38
    6  A    between atoms: C_23  and  C_26
                            x       y       z     vdW  Elec       q    Type
                         _______ _______ _______ _____ _____    ______ ____

>  <TORSDO>
F 6

$$$$
=
 OpenBabel11042415003D

 39 42  0  0  1  0  0  0  0  0999 V2000
  192.5840  177.1840  144.9500 C   0  0  0  0  0  2  0  0  0  0  0  0
  186.3970  176.7660  144.7630 C   0  0  0  0  0  2  0  0  0  0  0  0
  191.5820  174.3410  143.5460 C   0  0  0  0  0  2  0  0  0  0  0  0
  185.5330  177.8870  142.6840 C   0  0  1  0  0  3  0  0  0  0  0  0
  188.8810  172.6030  139.7570 C   0  0  0  0  0  0  0  0  0  0  0  0
  185.5180  176.6170  143.5310 C   0  0  0  0  0  2  0  0  0  0  0  0
  188.6750  176.8460  146.6250 C   0  0  0  0  0  3  0  0  0  0  0  0
  192.9950  175.8440  144.3480 C   0  0  1  0  0  3  0  0  0  0  0  0
  187.7550  176.8450  144.3540 O   0  0  0  0  0  0  0  0  0  0  0  0
  191.0480  177.0210  146.8830 N   0  0  0  0  0  0  0  0  0  0  0  0
  187.3080  177.5400  139.5140 C   0  0  0  0  0  1  0  0  0  0  0  0
  189.9860  171.7510  139.4220 N   0  0  0  0  0  0  0  0  0  0  0  0
  189.1190  173.8120  140.5830 C   0  0  0  0  0  0  0  0  0  0  0  0
  189.8100  176.8970  147.4410 C   0  0  0  0  0  3  0  0  0  0  0  0
  187.0680  176.9350  140.8850 C   0  0  1  0  0  3  0  0  0  0  0  0
  188.1680  174.7560  140.5890 C   0  0  0  0  0  3  0  0  0  0  0  0
  190.4640  173.9930  141.2820 C   0  0  2  0  0  3  0  0  0  0  0  0
  191.4210  172.8030  141.0590 C   0  0  0  0  0  2  0  0  0  0  0  0
  187.7220  172.3340  139.3340 O   0  0  0  0  0  0  0  0  0  0  0  0
  188.2540  176.0710  141.2940 C   0  0  0  0  0  2  0  0  0  0  0  0
  190.1040  177.0690  144.6930 C   0  0  0  0  0  3  0  0  0  0  0  0
  191.3330  172.2590  139.6420 C   0  0  0  0  0  2  0  0  0  0  0  0
  192.2110  175.5490  143.2250 O   0  0  0  0  0  0  0  0  0  0  0  0
  194.4550  175.9060  143.9450 C   0  0  0  0  0  1  0  0  0  0  0  0
  186.8420  178.0540  141.8940 C   0  0  0  0  0  2  0  0  0  0  0  0
  191.2150  177.1100  145.5350 C   0  0  0  0  0  0  0  0  0  0  0  0
  188.8310  176.9250  145.2330 C   0  0  0  0  0  0  0  0  0  0  0  0
  190.2640  174.1930  142.7880 C   0  0  0  0  0  2  0  0  0  0  0  0
  191.0260  170.1040  137.9430 C   0  0  0  0  0  2  0  0  0  0  0  0
  189.8120  170.6610  137.2380 C   0  0  0  0  0  2  0  0  0  0  0  0
  189.7890  170.4700  138.7470 C   0  0  0  0  0  3  0  0  0  0  0  0
  184.3240  177.9160  141.7600 C   0  0  0  0  0  2  0  0  0  0  0  0
  183.1360  178.5510  142.4710 C   0  0  0  0  0  2  0  0  0  0  0  0
  181.8250  178.2820  141.7360 C   0  0  2  0  0  3  0  0  0  0  0  0
  182.0620  178.1100  140.3710 O   0  0  0  0  0  1  0  0  0  0  0  0
  180.8180  179.4080  141.9510 C   0  0  0  0  0  2  0  0  0  0  0  0
  178.4610  179.5450  141.0790 C   0  0  0  0  0  1  0  0  0  0  0  0
  179.3810  178.9100  142.1060 C   0  0  1  0  0  3  0  0  0  0  0  0
  179.3220  177.5190  142.0090 O   0  0  0  0  0  1  0  0  0  0  0  0
  1 26  1  0  0  0  0
  4 32  1  6  0  0  0
  4  6  1  0  0  0  0
  5 13  1  0  0  0  0
  6  2  1  0  0  0  0
  7 14  1  0  0  0  0
  8 24  1  6  0  0  0
  8  1  1  0  0  0  0
  9  2  1  0  0  0  0
  9 27  1  0  0  0  0
 10 14  2  0  0  0  0
 12 22  1  0  0  0  0
 12  5  1  0  0  0  0
 13 16  2  0  0  0  0
 13 17  1  0  0  0  0
 15 11  1  6  0  0  0
 15 20  1  0  0  0  0
 15 25  1  0  0  0  0
 16 20  1  0  0  0  0
 17 18  1  1  0  0  0
 17 28  1  0  0  0  0
 19  5  2  0  0  0  0
 21 27  1  0  0  0  0
 21 26  2  0  0  0  0
 22 18  1  0  0  0  0
 23  3  1  0  0  0  0
 23  8  1  0  0  0  0
 25  4  1  0  0  0  0
 26 10  1  0  0  0  0
 27  7  2  0  0  0  0
 28  3  1  0  0  0  0
 29 31  1  0  0  0  0
 30 29  1  0  0  0  0
 30 31  1  0  0  0  0
 31 12  1  0  0  0  0
 32 33  1  0  0  0  0
 34 35  1  6  0  0  0
 34 36  1  0  0  0  0
 34 33  1  0  0  0  0
 36 38  1  0  0  0  0
 38 37  1  6  0  0  0
 39 38  1  0  0  0  0
M  END
>  <MODEL>
9

>  <REMARK>
 VINA RESULT:      -7.0      2.601      3.924
  Name = 
  6 active torsions:
  status: ('A' for Active; 'I' for Inactive)
    1  A    between atoms: C_3  and  C_5
    2  A    between atoms: C_3  and  C_35
    3  A    between atoms: C_8  and  C_26
    4  A    between atoms: C_8  and  C_35
    5  A    between atoms: N_16  and  C_38
    6  A    between atoms: C_23  and  C_26
                            x       y       z     vdW  Elec       q    Type
                         _______ _______ _______ _____ _____    ______ ____

>  <TORSDO>
F 6

$$$$
