=
 OpenBabel11042416123D

 60 68  0  0  1  0  0  0  0  0999 V2000
  195.0190  173.2620  140.8460 C   0  0  1  0  0  3  0  0  0  0  0  0
  188.6860  175.7560  145.1990 C   0  0  1  0  0  3  0  0  0  0  0  0
  192.2600  171.0090  137.3120 C   0  0  0  0  0  2  0  0  0  0  0  0
  189.0750  170.6780  137.9220 C   0  0  0  0  0  2  0  0  0  0  0  0
  189.3440  173.4430  141.7320 C   0  0  0  0  0  0  0  0  0  0  0  0
  196.2230  173.1560  141.8120 C   0  0  2  0  0  3  0  0  0  0  0  0
  193.4530  173.2660  143.0120 C   0  0  1  0  0  3  0  0  0  0  0  0
  187.5510  176.4830  140.6970 C   0  0  0  0  0  1  0  0  0  0  0  0
  188.7190  175.8130  143.6610 C   0  0  0  0  0  2  0  0  0  0  0  0
  189.4580  174.5970  145.7670 C   0  0  0  0  0  0  0  0  0  0  0  0
  188.2260  174.6480  139.1610 C   0  0  0  0  0  0  0  0  0  0  0  0
  193.6750  172.9940  141.5070 C   0  0  0  0  0  0  0  0  0  0  0  0
  189.6520  171.1690  139.1020 O   0  0  0  0  0  0  0  0  0  0  0  0
  191.9850  173.4310  143.3680 C   0  0  1  0  0  3  0  0  0  0  0  0
  194.9000  171.4930  137.4610 C   0  0  0  0  0  0  0  0  0  0  0  0
  190.5160  169.4900  136.2720 C   0  0  0  0  0  2  0  0  0  0  0  0
  192.6850  172.4920  140.7570 C   0  0  0  0  0  3  0  0  0  0  0  0
  197.3050  172.1050  141.9310 C   0  0  2  0  0  0  0  0  0  0  0  0
  188.9560  173.9200  146.8670 O   0  0  0  0  0  1  0  0  0  0  0  0
  190.2400  173.1100  140.6100 C   0  0  1  0  0  3  0  0  0  0  0  0
  196.5830  171.3510  143.7310 C   0  0  2  0  0  0  0  0  0  0  0  0
  189.7220  169.3420  137.5650 C   0  0  0  0  0  2  0  0  0  0  0  0
  195.0410  174.5180  140.2140 O   0  0  0  0  0  1  0  0  0  0  0  0
  196.7920  172.1790  138.9090 C   0  0  0  0  0  2  0  0  0  0  0  0
  193.7150  171.2460  137.4080 C   0  0  0  0  0  0  0  0  0  0  0  0
  197.9410  171.7690  143.2820 C   0  0  0  0  0  2  0  0  0  0  0  0
  191.2880  172.1830  141.2590 C   0  0  2  0  0  3  0  0  0  0  0  0
  197.8650  171.3760  140.6480 C   0  0  0  0  0  2  0  0  0  0  0  0
  189.7370  172.7930  142.8920 O   0  0  0  0  0  0  0  0  0  0  0  0
  189.4650  172.5070  139.4800 C   0  0  0  0  0  0  0  0  0  0  0  0
  196.3440  170.5760  144.9050 O   0  0  0  0  0  1  0  0  0  0  0  0
  191.0720  172.3420  142.7800 C   0  0  2  0  0  0  0  0  0  0  0  0
  195.9040  171.8040  142.5070 C   0  0  2  0  0  0  0  0  0  0  0  0
  187.8280  175.3820  138.2110 O   0  0  0  0  0  0  0  0  0  0  0  0
  187.8110  174.7720  143.0360 C   0  0  0  0  0  2  0  0  0  0  0  0
  196.3280  171.8220  137.4980 C   0  0  0  0  0  2  0  0  0  0  0  0
  194.2110  172.2660  143.9480 C   0  0  0  0  0  2  0  0  0  0  0  0
  195.6630  172.4830  143.7870 N   0  0  1  0  0  0  0  0  0  0  0  0
  191.2180  170.9980  143.4870 C   0  0  0  0  0  1  0  0  0  0  0  0
  196.8640  171.0600  139.7280 O   0  0  0  0  0  0  0  0  0  0  0  0
  190.6030  174.2080  145.2680 C   0  0  0  0  0  0  0  0  0  0  0  0
  188.5800  173.2690  138.8210 C   0  0  0  0  0  3  0  0  0  0  0  0
  191.7460  173.7680  144.8170 C   0  0  0  0  0  3  0  0  0  0  0  0
  188.3790  174.3660  141.7100 C   0  0  0  0  0  0  0  0  0  0  0  0
  188.1010  175.1410  140.5190 N   0  0  0  0  0  0  0  0  0  0  0  0
  192.0100  169.7470  136.5020 C   0  0  0  0  0  2  0  0  0  0  0  0
  188.8040  177.4310  146.8920 O   0  0  0  0  0  0  0  0  0  0  0  0
  189.2150  177.0320  145.7570 C   0  0  0  0  0  0  0  0  0  0  0  0
  190.1480  177.7620  145.0290 O   0  0  0  0  0  0  0  0  0  0  0  0
  192.0910  177.2430  142.9860 O   0  0  0  0  0  0  0  0  0  0  0  0
  191.5070  177.5800  145.2340 N   0  0  0  0  0  2  0  0  0  0  0  0
  192.3940  177.1360  144.2060 C   0  0  0  0  0  0  0  0  0  0  0  0
  193.7120  176.5390  144.6140 C   0  0  2  0  0  3  0  0  0  0  0  0
  194.0380  176.6610  146.9840 O   0  0  0  0  0  1  0  0  0  0  0  0
  194.2380  177.1910  145.8500 C   0  0  0  0  0  0  0  0  0  0  0  0
  195.0070  178.3510  145.7740 O   0  0  0  0  0  0  0  0  0  0  0  0
  194.7430  176.6610  143.4820 C   0  0  0  0  0  2  0  0  0  0  0  0
  196.2150  175.2170  144.9400 O   0  0  0  0  0  1  0  0  0  0  0  0
  197.1020  176.4140  143.1770 O   0  0  0  0  0  0  0  0  0  0  0  0
  196.0750  176.0570  143.8290 C   0  0  0  0  0  0  0  0  0  0  0  0
  1 23  1  1  0  0  0
  1 12  1  0  0  0  0
  1  6  1  0  0  0  0
  2 48  1  1  0  0  0
  2 10  1  0  0  0  0
  3 25  1  0  0  0  0
  4 13  1  0  0  0  0
  5 29  1  0  0  0  0
  6 18  1  0  0  0  0
  6 33  1  0  0  0  0
  7 14  1  0  0  0  0
  7 37  1  0  0  0  0
  9  2  1  0  0  0  0
 10 19  1  0  0  0  0
 11 45  1  0  0  0  0
 12  7  1  0  0  0  0
 13 30  1  0  0  0  0
 14 43  1  0  0  0  0
 15 36  1  0  0  0  0
 16 46  1  0  0  0  0
 16 22  1  0  0  0  0
 17 27  1  0  0  0  0
 17 12  2  0  0  0  0
 18 33  1  0  0  0  0
 18 26  1  0  0  0  0
 20 27  1  0  0  0  0
 20  5  1  0  0  0  0
 21 38  1  0  0  0  0
 21 31  1  0  0  0  0
 22  4  1  0  0  0  0
 24 40  1  0  0  0  0
 25 15  3  0  0  0  0
 26 21  1  0  0  0  0
 27 32  1  0  0  0  0
 28 18  1  0  0  0  0
 30 20  1  0  0  0  0
 32 29  1  0  0  0  0
 32 14  1  0  0  0  0
 32 39  1  0  0  0  0
 33 21  1  0  0  0  0
 33 38  1  0  0  0  0
 34 11  2  0  0  0  0
 35  9  1  0  0  0  0
 36 24  1  0  0  0  0
 38 37  1  0  0  0  0
 40 28  1  0  0  0  0
 41 10  2  0  0  0  0
 42 11  1  0  0  0  0
 42 30  2  0  0  0  0
 43 41  2  0  0  0  0
 44  5  2  0  0  0  0
 44 35  1  0  0  0  0
 45  8  1  0  0  0  0
 45 44  1  0  0  0  0
 46  3  1  0  0  0  0
 48 47  2  0  0  0  0
 49 51  1  0  0  0  0
 49 48  1  0  0  0  0
 50 52  2  0  0  0  0
 52 53  1  0  0  0  0
 52 51  1  0  0  0  0
 53 55  1  0  0  0  0
 55 54  1  0  0  0  0
 56 55  2  0  0  0  0
 57 60  1  0  0  0  0
 57 53  1  0  0  0  0
 59 60  2  0  0  0  0
 60 58  1  0  0  0  0
M  END
>  <MODEL>
1

>  <REMARK>
 VINA RESULT:      -7.2      0.000      0.000
  Name = 
  7 active torsions:
  status: ('A' for Active; 'I' for Inactive)
    1  A    between atoms: C_2  and  C_36
    2  A    between atoms: C_3  and  C_20
    3  A    between atoms: C_3  and  C_22
    4  A    between atoms: C_3  and  C_23
    5  A    between atoms: O_4  and  N_11
    6  A    between atoms: O_4  and  C_36
    7  A    between atoms: C_20  and  C_58
                            x       y       z     vdW  Elec       q    Type
                         _______ _______ _______ _____ _____    ______ ____

>  <TORSDO>
F 7

$$$$
=
 OpenBabel11042416123D

 60 68  0  0  1  0  0  0  0  0999 V2000
  194.9740  174.7400  140.8560 C   0  0  1  0  0  3  0  0  0  0  0  0
  187.0390  176.2580  140.9780 C   0  0  1  0  0  3  0  0  0  0  0  0
  194.6470  170.9690  137.5620 C   0  0  0  0  0  2  0  0  0  0  0  0
  191.6550  169.8770  136.8710 C   0  0  0  0  0  2  0  0  0  0  0  0
  189.6290  173.4550  139.1790 C   0  0  0  0  0  0  0  0  0  0  0  0
  195.5540  175.2370  142.2020 C   0  0  2  0  0  3  0  0  0  0  0  0
  192.5680  174.8210  142.0170 C   0  0  1  0  0  3  0  0  0  0  0  0
  188.1550  175.4740  136.4820 C   0  0  0  0  0  1  0  0  0  0  0  0
  187.8100  175.9380  139.6850 C   0  0  0  0  0  2  0  0  0  0  0  0
  187.5920  175.5570  142.1880 C   0  0  0  0  0  0  0  0  0  0  0  0
  189.7500  173.5980  136.1330 C   0  0  0  0  0  0  0  0  0  0  0  0
  193.5330  174.2610  140.9480 C   0  0  0  0  0  0  0  0  0  0  0  0
  191.5050  170.7930  137.9210 O   0  0  0  0  0  0  0  0  0  0  0  0
  191.1060  174.6300  141.6480 C   0  0  1  0  0  3  0  0  0  0  0  0
  196.7780  172.2310  138.6090 C   0  0  0  0  0  0  0  0  0  0  0  0
  193.8710  168.7950  136.5130 C   0  0  0  0  0  2  0  0  0  0  0  0
  193.1180  173.3200  140.0900 C   0  0  0  0  0  3  0  0  0  0  0  0
  196.5780  174.6170  143.1260 C   0  0  2  0  0  0  0  0  0  0  0  0
  186.7210  175.0580  143.1440 O   0  0  0  0  0  1  0  0  0  0  0  0
  190.9970  173.1320  138.7310 C   0  0  1  0  0  3  0  0  0  0  0  0
  195.1850  174.1560  144.6020 C   0  0  2  0  0  0  0  0  0  0  0  0
  192.5770  168.7460  137.3180 C   0  0  0  0  0  2  0  0  0  0  0  0
  195.1210  175.7480  139.8870 O   0  0  0  0  0  1  0  0  0  0  0  0
  197.6010  173.7820  140.3580 C   0  0  0  0  0  2  0  0  0  0  0  0
  195.8190  171.6410  138.1610 C   0  0  0  0  0  0  0  0  0  0  0  0
  196.5140  174.8300  144.6410 C   0  0  0  0  0  2  0  0  0  0  0  0
  191.7150  172.7480  140.0410 C   0  0  2  0  0  3  0  0  0  0  0  0
  197.7910  173.7890  142.5460 C   0  0  0  0  0  2  0  0  0  0  0  0
  189.4950  173.2600  140.5450 O   0  0  0  0  0  0  0  0  0  0  0  0
  190.9680  172.0670  137.6800 C   0  0  0  0  0  0  0  0  0  0  0  0
  194.5180  173.6620  145.7630 O   0  0  0  0  0  1  0  0  0  0  0  0
  190.7640  173.2090  141.1660 C   0  0  2  0  0  0  0  0  0  0  0  0
  195.1340  174.0690  143.1350 C   0  0  2  0  0  0  0  0  0  0  0  0
  189.7650  173.9220  134.9110 O   0  0  0  0  0  0  0  0  0  0  0  0
  187.4830  174.5540  139.1580 C   0  0  0  0  0  2  0  0  0  0  0  0
  197.9410  172.9650  139.1140 C   0  0  0  0  0  2  0  0  0  0  0  0
  192.9070  174.3550  143.4730 C   0  0  0  0  0  2  0  0  0  0  0  0
  194.2040  174.9430  143.8620 N   0  0  1  0  0  0  0  0  0  0  0  0
  190.7370  172.1880  142.3000 C   0  0  0  0  0  1  0  0  0  0  0  0
  197.4240  172.9740  141.4740 O   0  0  0  0  0  0  0  0  0  0  0  0
  188.8780  175.4120  142.3860 C   0  0  0  0  0  0  0  0  0  0  0  0
  190.4180  172.3450  136.4890 C   0  0  0  0  0  3  0  0  0  0  0  0
  190.1450  175.2300  142.6400 C   0  0  0  0  0  3  0  0  0  0  0  0
  188.6770  174.0160  138.4300 C   0  0  0  0  0  0  0  0  0  0  0  0
  188.9080  174.3530  137.0410 N   0  0  0  0  0  0  0  0  0  0  0  0
  195.0080  169.5300  137.2330 C   0  0  0  0  0  2  0  0  0  0  0  0
  188.0370  178.4180  140.8260 O   0  0  0  0  0  0  0  0  0  0  0  0
  187.0390  177.7300  141.2080 C   0  0  0  0  0  0  0  0  0  0  0  0
  185.9490  178.3240  141.8340 O   0  0  0  0  0  0  0  0  0  0  0  0
  185.8850  179.8960  144.2310 O   0  0  0  0  0  0  0  0  0  0  0  0
  185.5200  177.8850  143.0780 N   0  0  0  0  0  2  0  0  0  0  0  0
  185.6900  178.6500  144.2720 C   0  0  0  0  0  0  0  0  0  0  0  0
  185.6230  177.9310  145.5910 C   0  0  2  0  0  3  0  0  0  0  0  0
  184.7840  178.7270  147.6880 O   0  0  0  0  0  1  0  0  0  0  0  0
  184.5540  178.5030  146.4610 C   0  0  0  0  0  0  0  0  0  0  0  0
  183.3140  178.8600  145.9310 O   0  0  0  0  0  0  0  0  0  0  0  0
  186.9750  177.9940  146.3180 C   0  0  0  0  0  2  0  0  0  0  0  0
  188.1750  175.8200  145.8600 O   0  0  0  0  0  1  0  0  0  0  0  0
  188.9260  177.8030  144.9490 O   0  0  0  0  0  0  0  0  0  0  0  0
  188.0510  177.1970  145.6360 C   0  0  0  0  0  0  0  0  0  0  0  0
  1 23  1  6  0  0  0
  1 12  1  0  0  0  0
  1  6  1  0  0  0  0
  2 48  1  1  0  0  0
  2 10  1  0  0  0  0
  3 25  1  0  0  0  0
  4 22  1  0  0  0  0
  4 13  1  0  0  0  0
  5 29  1  0  0  0  0
  6 18  1  0  0  0  0
  6 33  1  0  0  0  0
  7 37  1  0  0  0  0
  8 45  1  0  0  0  0
  9  2  1  0  0  0  0
 10 41  2  0  0  0  0
 10 19  1  0  0  0  0
 11 42  1  0  0  0  0
 11 45  1  0  0  0  0
 12  7  1  0  0  0  0
 14  7  1  0  0  0  0
 14 43  1  0  0  0  0
 15 36  1  0  0  0  0
 16 46  1  0  0  0  0
 16 22  1  0  0  0  0
 17 12  2  0  0  0  0
 18 33  1  0  0  0  0
 18 26  1  0  0  0  0
 20  5  1  0  0  0  0
 20 27  1  0  0  0  0
 21 26  1  0  0  0  0
 21 31  1  0  0  0  0
 24 40  1  0  0  0  0
 25 15  3  0  0  0  0
 27 17  1  0  0  0  0
 27 32  1  0  0  0  0
 28 18  1  0  0  0  0
 29 32  1  0  0  0  0
 30 13  1  0  0  0  0
 30 20  1  0  0  0  0
 32 14  1  0  0  0  0
 32 39  1  0  0  0  0
 33 38  1  0  0  0  0
 33 21  1  0  0  0  0
 34 11  2  0  0  0  0
 35  9  1  0  0  0  0
 36 24  1  0  0  0  0
 37 38  1  0  0  0  0
 38 21  1  0  0  0  0
 40 28  1  0  0  0  0
 41 43  2  0  0  0  0
 42 30  2  0  0  0  0
 44 35  1  0  0  0  0
 44  5  2  0  0  0  0
 45 44  1  0  0  0  0
 46  3  1  0  0  0  0
 47 48  2  0  0  0  0
 48 49  1  0  0  0  0
 49 51  1  0  0  0  0
 50 52  2  0  0  0  0
 51 52  1  0  0  0  0
 52 53  1  0  0  0  0
 53 57  1  0  0  0  0
 53 55  1  0  0  0  0
 55 54  1  0  0  0  0
 56 55  2  0  0  0  0
 59 60  2  0  0  0  0
 60 58  1  0  0  0  0
 60 57  1  0  0  0  0
M  END
>  <MODEL>
2

>  <REMARK>
 VINA RESULT:      -6.8      2.516      4.649
  Name = 
  7 active torsions:
  status: ('A' for Active; 'I' for Inactive)
    1  A    between atoms: C_2  and  C_36
    2  A    between atoms: C_3  and  C_20
    3  A    between atoms: C_3  and  C_22
    4  A    between atoms: C_3  and  C_23
    5  A    between atoms: O_4  and  N_11
    6  A    between atoms: O_4  and  C_36
    7  A    between atoms: C_20  and  C_58
                            x       y       z     vdW  Elec       q    Type
                         _______ _______ _______ _____ _____    ______ ____

>  <TORSDO>
F 7

$$$$
=
 OpenBabel11042416123D

 60 68  0  0  1  0  0  0  0  0999 V2000
  192.7960  175.5750  142.6250 C   0  0  1  0  0  3  0  0  0  0  0  0
  191.5740  170.8110  136.2150 C   0  0  1  0  0  3  0  0  0  0  0  0
  195.9740  172.4330  144.9050 C   0  0  0  0  0  2  0  0  0  0  0  0
  196.2270  169.4330  143.6540 C   0  0  0  0  0  2  0  0  0  0  0  0
  193.6920  170.6180  139.8590 C   0  0  0  0  0  0  0  0  0  0  0  0
  191.5500  176.4820  142.7630 C   0  0  2  0  0  3  0  0  0  0  0  0
  191.3080  173.9990  141.0600 C   0  0  1  0  0  3  0  0  0  0  0  0
  196.1750  170.6020  137.1460 C   0  0  0  0  0  1  0  0  0  0  0  0
  192.9590  171.0160  136.8530 C   0  0  0  0  0  2  0  0  0  0  0  0
  190.4470  170.8770  137.2080 C   0  0  0  0  0  0  0  0  0  0  0  0
  196.7260  170.4660  139.5670 C   0  0  0  0  0  0  0  0  0  0  0  0
  192.4980  174.2090  142.0250 C   0  0  0  0  0  0  0  0  0  0  0  0
  195.1750  170.0570  142.9690 O   0  0  0  0  0  0  0  0  0  0  0  0
  191.4670  172.7610  140.1930 C   0  0  1  0  0  3  0  0  0  0  0  0
  195.2500  174.9550  145.4880 C   0  0  0  0  0  0  0  0  0  0  0  0
  196.8830  170.2850  145.9030 C   0  0  0  0  0  2  0  0  0  0  0  0
  193.2800  173.1770  142.3680 C   0  0  0  0  0  3  0  0  0  0  0  0
  190.7730  176.9150  143.9870 C   0  0  2  0  0  0  0  0  0  0  0  0
  189.3740  170.0090  137.0790 O   0  0  0  0  0  1  0  0  0  0  0  0
  194.3250  171.3510  140.9720 C   0  0  1  0  0  3  0  0  0  0  0  0
  189.1110  175.7500  143.5260 C   0  0  2  0  0  0  0  0  0  0  0  0
  195.9030  169.3960  145.1450 C   0  0  0  0  0  2  0  0  0  0  0  0
  193.7860  176.2540  141.8940 O   0  0  0  0  0  1  0  0  0  0  0  0
  193.6480  176.7940  145.0440 C   0  0  0  0  0  2  0  0  0  0  0  0
  195.5520  173.8080  145.2440 C   0  0  0  0  0  0  0  0  0  0  0  0
  189.2660  177.1790  143.9190 C   0  0  0  0  0  2  0  0  0  0  0  0
  193.1250  171.7610  141.8500 C   0  0  2  0  0  3  0  0  0  0  0  0
  191.5100  177.1800  145.3570 C   0  0  0  0  0  2  0  0  0  0  0  0
  192.3190  170.5390  140.0330 O   0  0  0  0  0  0  0  0  0  0  0  0
  195.3500  170.4960  141.6470 C   0  0  0  0  0  0  0  0  0  0  0  0
  187.8630  175.0570  143.5470 O   0  0  0  0  0  1  0  0  0  0  0  0
  191.8820  171.5000  140.9730 C   0  0  2  0  0  0  0  0  0  0  0  0
  190.5560  175.4920  143.4280 C   0  0  2  0  0  0  0  0  0  0  0  0
  197.9410  170.5600  139.2310 O   0  0  0  0  0  0  0  0  0  0  0  0
  193.4210  169.7860  137.6110 C   0  0  0  0  0  2  0  0  0  0  0  0
  194.9200  176.3560  145.7660 C   0  0  0  0  0  2  0  0  0  0  0  0
  189.9110  174.0940  141.7590 C   0  0  0  0  0  2  0  0  0  0  0  0
  189.7130  175.4800  142.2240 N   0  0  1  0  0  0  0  0  0  0  0  0
  190.7460  170.9190  141.8090 C   0  0  0  0  0  1  0  0  0  0  0  0
  192.5110  176.2450  145.6200 O   0  0  0  0  0  0  0  0  0  0  0  0
  190.4300  171.7400  138.1920 C   0  0  0  0  0  0  0  0  0  0  0  0
  196.4550  170.1490  140.9700 C   0  0  0  0  0  3  0  0  0  0  0  0
  190.3550  172.5720  139.1940 C   0  0  0  0  0  3  0  0  0  0  0  0
  194.3050  170.2170  138.7420 C   0  0  0  0  0  0  0  0  0  0  0  0
  195.7160  170.4600  138.5260 N   0  0  0  0  0  0  0  0  0  0  0  0
  196.3360  171.6910  146.1820 C   0  0  0  0  0  2  0  0  0  0  0  0
  190.1830  172.0400  134.7190 O   0  0  0  0  0  0  0  0  0  0  0  0
  191.3600  171.8270  135.1470 C   0  0  0  0  0  0  0  0  0  0  0  0
  192.4510  172.5240  134.6390 O   0  0  0  0  0  0  0  0  0  0  0  0
  195.1000  173.5610  135.0000 O   0  0  0  0  0  0  0  0  0  0  0  0
  192.7660  173.7890  135.1120 N   0  0  0  0  0  2  0  0  0  0  0  0
  194.0980  174.1810  135.4510 C   0  0  0  0  0  0  0  0  0  0  0  0
  194.2800  175.3640  136.3600 C   0  0  2  0  0  3  0  0  0  0  0  0
  193.1030  177.3170  135.6280 O   0  0  0  0  0  1  0  0  0  0  0  0
  194.1790  176.6450  135.6020 C   0  0  0  0  0  0  0  0  0  0  0  0
  195.2760  177.1570  134.9090 O   0  0  0  0  0  0  0  0  0  0  0  0
  195.6330  175.2950  137.0860 C   0  0  0  0  0  2  0  0  0  0  0  0
  194.4790  174.0920  138.9830 O   0  0  0  0  0  0  0  0  0  0  0  0
  196.2620  175.5020  139.3830 O   0  0  0  0  0  1  0  0  0  0  0  0
  195.5050  174.9350  138.5400 C   0  0  0  0  0  0  0  0  0  0  0  0
  1 23  1  6  0  0  0
  1  6  1  0  0  0  0
  2 48  1  6  0  0  0
  2  9  1  0  0  0  0
  2 10  1  0  0  0  0
  3 25  1  0  0  0  0
  3 46  1  0  0  0  0
  4 22  1  0  0  0  0
  5 29  1  0  0  0  0
  5 20  1  0  0  0  0
  6 33  1  0  0  0  0
  6 18  1  0  0  0  0
  7 37  1  0  0  0  0
  7 12  1  0  0  0  0
  8 45  1  0  0  0  0
  9 35  1  0  0  0  0
 10 41  2  0  0  0  0
 11 42  1  0  0  0  0
 12 17  2  0  0  0  0
 12  1  1  0  0  0  0
 13  4  1  0  0  0  0
 14 32  1  0  0  0  0
 14  7  1  0  0  0  0
 15 36  1  0  0  0  0
 16 46  1  0  0  0  0
 18 28  1  0  0  0  0
 19 10  1  0  0  0  0
 20 30  1  0  0  0  0
 20 27  1  0  0  0  0
 21 31  1  0  0  0  0
 21 26  1  0  0  0  0
 22 16  1  0  0  0  0
 24 40  1  0  0  0  0
 24 36  1  0  0  0  0
 25 15  3  0  0  0  0
 26 18  1  0  0  0  0
 27 17  1  0  0  0  0
 28 40  1  0  0  0  0
 29 32  1  0  0  0  0
 30 13  1  0  0  0  0
 32 39  1  0  0  0  0
 32 27  1  0  0  0  0
 33 21  1  0  0  0  0
 33 18  1  0  0  0  0
 34 11  2  0  0  0  0
 35 44  1  0  0  0  0
 37 38  1  0  0  0  0
 38 33  1  0  0  0  0
 38 21  1  0  0  0  0
 41 43  2  0  0  0  0
 42 30  2  0  0  0  0
 43 14  1  0  0  0  0
 44  5  2  0  0  0  0
 45 44  1  0  0  0  0
 45 11  1  0  0  0  0
 47 48  2  0  0  0  0
 49 51  1  0  0  0  0
 49 48  1  0  0  0  0
 50 52  2  0  0  0  0
 51 52  1  0  0  0  0
 52 53  1  0  0  0  0
 53 57  1  0  0  0  0
 55 54  1  0  0  0  0
 55 53  1  0  0  0  0
 56 55  2  0  0  0  0
 57 60  1  0  0  0  0
 60 58  2  0  0  0  0
 60 59  1  0  0  0  0
M  END
>  <MODEL>
3

>  <REMARK>
 VINA RESULT:      -6.6      2.797      8.317
  Name = 
  7 active torsions:
  status: ('A' for Active; 'I' for Inactive)
    1  A    between atoms: C_2  and  C_36
    2  A    between atoms: C_3  and  C_20
    3  A    between atoms: C_3  and  C_22
    4  A    between atoms: C_3  and  C_23
    5  A    between atoms: O_4  and  N_11
    6  A    between atoms: O_4  and  C_36
    7  A    between atoms: C_20  and  C_58
                            x       y       z     vdW  Elec       q    Type
                         _______ _______ _______ _____ _____    ______ ____

>  <TORSDO>
F 7

$$$$
=
 OpenBabel11042416123D

 60 68  0  0  1  0  0  0  0  0999 V2000
  190.9520  173.1150  139.0120 C   0  0  1  0  0  3  0  0  0  0  0  0
  195.5300  172.7240  145.6580 C   0  0  1  0  0  3  0  0  0  0  0  0
  187.5990  176.2890  140.9770 C   0  0  0  0  0  2  0  0  0  0  0  0
  187.7930  176.8320  144.1850 C   0  0  0  0  0  2  0  0  0  0  0  0
  191.9060  174.5450  144.4960 C   0  0  0  0  0  0  0  0  0  0  0  0
  191.1870  171.8070  138.2190 C   0  0  2  0  0  3  0  0  0  0  0  0
  192.0030  171.8630  141.1270 C   0  0  1  0  0  3  0  0  0  0  0  0
  194.3210  177.2380  145.1630 C   0  0  0  0  0  1  0  0  0  0  0  0
  194.9150  174.0370  145.1410 C   0  0  0  0  0  2  0  0  0  0  0  0
  194.6780  171.5180  145.3760 C   0  0  0  0  0  0  0  0  0  0  0  0
  191.9590  177.5970  144.4720 C   0  0  0  0  0  0  0  0  0  0  0  0
  191.0930  172.9540  140.5180 C   0  0  0  0  0  0  0  0  0  0  0  0
  188.7030  175.8020  143.9060 O   0  0  0  0  0  0  0  0  0  0  0  0
  192.4120  172.1700  142.5580 C   0  0  1  0  0  3  0  0  0  0  0  0
  187.9080  175.3610  138.4730 C   0  0  0  0  0  0  0  0  0  0  0  0
  185.9090  177.2460  142.6080 C   0  0  0  0  0  2  0  0  0  0  0  0
  190.3890  173.7690  141.3150 C   0  0  0  0  0  3  0  0  0  0  0  0
  190.2160  170.9070  137.4870 C   0  0  2  0  0  0  0  0  0  0  0  0
  194.5800  170.5160  146.3280 O   0  0  0  0  0  1  0  0  0  0  0  0
  191.0570  175.0370  143.3950 C   0  0  1  0  0  3  0  0  0  0  0  0
  190.3680  169.3650  138.8770 C   0  0  2  0  0  0  0  0  0  0  0  0
  186.3920  176.3900  143.7730 C   0  0  0  0  0  2  0  0  0  0  0  0
  191.8060  174.1170  138.5190 O   0  0  0  0  0  1  0  0  0  0  0  0
  189.0140  173.6890  137.0160 C   0  0  0  0  0  2  0  0  0  0  0  0
  187.7490  175.7550  139.6080 C   0  0  0  0  0  0  0  0  0  0  0  0
  190.4510  169.3980  137.3890 C   0  0  0  0  0  2  0  0  0  0  0  0
  190.4290  173.7460  142.8300 C   0  0  2  0  0  3  0  0  0  0  0  0
  188.9660  171.5120  136.7360 C   0  0  0  0  0  2  0  0  0  0  0  0
  191.7940  173.1700  144.6330 O   0  0  0  0  0  0  0  0  0  0  0  0
  190.0830  176.0560  143.8980 C   0  0  0  0  0  0  0  0  0  0  0  0
  190.1950  168.1660  139.6310 O   0  0  0  0  0  1  0  0  0  0  0  0
  191.2440  172.5980  143.4630 C   0  0  2  0  0  0  0  0  0  0  0  0
  190.2950  170.8270  139.0270 C   0  0  2  0  0  0  0  0  0  0  0  0
  192.2380  178.8270  144.3850 O   0  0  0  0  0  0  0  0  0  0  0  0
  193.7740  174.5120  146.0200 C   0  0  0  0  0  2  0  0  0  0  0  0
  188.1180  174.9230  137.0900 C   0  0  0  0  0  2  0  0  0  0  0  0
  191.4550  170.4100  140.9350 C   0  0  0  0  0  2  0  0  0  0  0  0
  191.4760  170.0880  139.4940 N   0  0  1  0  0  0  0  0  0  0  0  0
  190.3300  171.4370  143.8430 C   0  0  0  0  0  1  0  0  0  0  0  0
  188.3570  172.5450  137.4490 O   0  0  0  0  0  0  0  0  0  0  0  0
  194.0300  171.3670  144.2480 C   0  0  0  0  0  0  0  0  0  0  0  0
  190.5470  177.2330  144.3460 C   0  0  0  0  0  3  0  0  0  0  0  0
  193.3570  171.1580  143.1500 C   0  0  0  0  0  3  0  0  0  0  0  0
  192.7950  175.2710  145.1770 C   0  0  0  0  0  0  0  0  0  0  0  0
  192.9970  176.6780  144.8960 N   0  0  0  0  0  0  0  0  0  0  0  0
  186.1320  176.5910  141.2400 C   0  0  0  0  0  2  0  0  0  0  0  0
  197.5660  171.5140  145.3800 O   0  0  0  0  0  0  0  0  0  0  0  0
  196.8800  172.5350  145.0570 C   0  0  0  0  0  0  0  0  0  0  0  0
  197.3650  173.4760  144.1560 O   0  0  0  0  0  0  0  0  0  0  0  0
  196.9260  175.6390  142.3250 O   0  0  0  0  0  0  0  0  0  0  0  0
  197.1200  173.3470  142.7970 N   0  0  0  0  0  2  0  0  0  0  0  0
  196.7200  174.4440  141.9730 C   0  0  0  0  0  0  0  0  0  0  0  0
  196.0490  174.1410  140.6630 C   0  0  2  0  0  3  0  0  0  0  0  0
  194.6560  175.6070  139.3810 O   0  0  0  0  0  0  0  0  0  0  0  0
  194.8350  174.9870  140.4730 C   0  0  0  0  0  0  0  0  0  0  0  0
  193.8510  175.0600  141.4580 O   0  0  0  0  0  1  0  0  0  0  0  0
  195.6670  172.6550  140.5740 C   0  0  0  0  0  2  0  0  0  0  0  0
  194.6560  171.1230  138.8400 O   0  0  0  0  0  1  0  0  0  0  0  0
  196.3300  172.6090  138.2770 O   0  0  0  0  0  0  0  0  0  0  0  0
  195.5400  172.1610  139.1600 C   0  0  0  0  0  0  0  0  0  0  0  0
  1 23  1  6  0  0  0
  1 12  1  0  0  0  0
  2 48  1  6  0  0  0
  3 46  1  0  0  0  0
  5 29  1  0  0  0  0
  5 44  2  0  0  0  0
  6  1  1  0  0  0  0
  6 33  1  0  0  0  0
  7 14  1  0  0  0  0
  9  2  1  0  0  0  0
  9 35  1  0  0  0  0
 10  2  1  0  0  0  0
 10 19  1  0  0  0  0
 11 45  1  0  0  0  0
 12  7  1  0  0  0  0
 12 17  2  0  0  0  0
 13  4  1  0  0  0  0
 14 43  1  0  0  0  0
 14 32  1  0  0  0  0
 15 25  3  0  0  0  0
 16 22  1  0  0  0  0
 17 27  1  0  0  0  0
 18  6  1  0  0  0  0
 18 33  1  0  0  0  0
 20 30  1  0  0  0  0
 20  5  1  0  0  0  0
 21 33  1  0  0  0  0
 21 38  1  0  0  0  0
 21 31  1  0  0  0  0
 22  4  1  0  0  0  0
 24 36  1  0  0  0  0
 24 40  1  0  0  0  0
 25  3  1  0  0  0  0
 26 18  1  0  0  0  0
 26 21  1  0  0  0  0
 27 20  1  0  0  0  0
 27 32  1  0  0  0  0
 28 40  1  0  0  0  0
 28 18  1  0  0  0  0
 30 13  1  0  0  0  0
 30 42  2  0  0  0  0
 32 39  1  0  0  0  0
 32 29  1  0  0  0  0
 33 38  1  0  0  0  0
 34 11  2  0  0  0  0
 36 15  1  0  0  0  0
 37  7  1  0  0  0  0
 38 37  1  0  0  0  0
 41 10  2  0  0  0  0
 42 11  1  0  0  0  0
 43 41  2  0  0  0  0
 44 35  1  0  0  0  0
 45  8  1  0  0  0  0
 45 44  1  0  0  0  0
 46 16  1  0  0  0  0
 48 47  2  0  0  0  0
 49 48  1  0  0  0  0
 51 49  1  0  0  0  0
 52 50  2  0  0  0  0
 52 51  1  0  0  0  0
 53 52  1  0  0  0  0
 54 55  2  0  0  0  0
 55 53  1  0  0  0  0
 55 56  1  0  0  0  0
 57 53  1  0  0  0  0
 58 60  1  0  0  0  0
 59 60  2  0  0  0  0
 60 57  1  0  0  0  0
M  END
>  <MODEL>
4

>  <REMARK>
 VINA RESULT:      -6.5      2.061      6.831
  Name = 
  7 active torsions:
  status: ('A' for Active; 'I' for Inactive)
    1  A    between atoms: C_2  and  C_36
    2  A    between atoms: C_3  and  C_20
    3  A    between atoms: C_3  and  C_22
    4  A    between atoms: C_3  and  C_23
    5  A    between atoms: O_4  and  N_11
    6  A    between atoms: O_4  and  C_36
    7  A    between atoms: C_20  and  C_58
                            x       y       z     vdW  Elec       q    Type
                         _______ _______ _______ _____ _____    ______ ____

>  <TORSDO>
F 7

$$$$
=
 OpenBabel11042416123D

 60 68  0  0  1  0  0  0  0  0999 V2000
  190.9610  170.7160  142.6070 C   0  0  1  0  0  3  0  0  0  0  0  0
  187.4250  177.9580  143.1830 C   0  0  1  0  0  3  0  0  0  0  0  0
  194.9540  171.9580  145.3790 C   0  0  0  0  0  2  0  0  0  0  0  0
  195.3170  175.1160  146.1030 C   0  0  0  0  0  2  0  0  0  0  0  0
  191.0370  176.1670  144.4250 C   0  0  0  0  0  0  0  0  0  0  0  0
  190.4410  170.0570  141.3060 C   0  0  2  0  0  3  0  0  0  0  0  0
  190.0870  173.0410  141.6190 C   0  0  1  0  0  3  0  0  0  0  0  0
  189.1190  176.9830  147.4550 C   0  0  0  0  0  1  0  0  0  0  0  0
  188.1200  177.2690  144.3700 C   0  0  0  0  0  2  0  0  0  0  0  0
  188.0610  177.6410  141.8570 C   0  0  0  0  0  0  0  0  0  0  0  0
  191.3760  175.9390  147.4490 C   0  0  0  0  0  0  0  0  0  0  0  0
  191.0280  172.2340  142.5410 C   0  0  0  0  0  0  0  0  0  0  0  0
  194.2500  175.0410  145.1960 O   0  0  0  0  0  0  0  0  0  0  0  0
  189.9420  174.4910  142.0490 C   0  0  1  0  0  3  0  0  0  0  0  0
  194.1530  169.5940  144.3810 C   0  0  0  0  0  0  0  0  0  0  0  0
  196.9800  173.2610  146.1740 C   0  0  0  0  0  2  0  0  0  0  0  0
  191.9440  172.8650  143.2900 C   0  0  0  0  0  3  0  0  0  0  0  0
  191.1660  169.2580  140.2450 C   0  0  2  0  0  0  0  0  0  0  0  0
  188.1710  178.6380  140.9000 O   0  0  0  0  0  1  0  0  0  0  0  0
  191.7670  174.9250  144.7400 C   0  0  1  0  0  3  0  0  0  0  0  0
  191.0270  170.7590  138.8100 C   0  0  2  0  0  0  0  0  0  0  0  0
  196.5710  174.5400  145.4510 C   0  0  0  0  0  2  0  0  0  0  0  0
  190.1790  170.2820  143.6910 O   0  0  0  0  0  1  0  0  0  0  0  0
  192.6330  168.4290  142.8070 C   0  0  0  0  0  2  0  0  0  0  0  0
  194.5320  170.6640  144.8040 C   0  0  0  0  0  0  0  0  0  0  0  0
  190.7260  169.3000  138.7800 C   0  0  0  0  0  2  0  0  0  0  0  0
  192.1300  174.3680  143.3480 C   0  0  2  0  0  3  0  0  0  0  0  0
  192.3570  168.2970  140.6330 C   0  0  0  0  0  2  0  0  0  0  0  0
  190.9890  176.3820  143.0560 O   0  0  0  0  0  0  0  0  0  0  0  0
  192.9290  175.2120  145.6380 C   0  0  0  0  0  0  0  0  0  0  0  0
  191.1550  171.5630  137.6380 O   0  0  0  0  0  1  0  0  0  0  0  0
  191.2780  175.1890  142.3560 C   0  0  2  0  0  0  0  0  0  0  0  0
  191.3110  170.7960  140.2530 C   0  0  2  0  0  0  0  0  0  0  0  0
  191.2490  175.8080  148.7010 O   0  0  0  0  0  0  0  0  0  0  0  0
  189.4310  177.9410  144.7260 C   0  0  0  0  0  2  0  0  0  0  0  0
  193.6830  168.2890  143.9070 C   0  0  0  0  0  2  0  0  0  0  0  0
  190.4070  172.8740  140.0960 C   0  0  0  0  0  2  0  0  0  0  0  0
  190.1280  171.4770  139.7090 N   0  0  1  0  0  0  0  0  0  0  0  0
  192.0810  175.5140  141.1000 C   0  0  0  0  0  1  0  0  0  0  0  0
  193.1950  168.8430  141.6060 O   0  0  0  0  0  0  0  0  0  0  0  0
  188.5060  176.4460  141.5620 C   0  0  0  0  0  0  0  0  0  0  0  0
  192.6940  175.6390  146.8880 C   0  0  0  0  0  3  0  0  0  0  0  0
  188.9730  175.2800  141.2080 C   0  0  0  0  0  3  0  0  0  0  0  0
  190.3620  176.9160  145.3000 C   0  0  0  0  0  0  0  0  0  0  0  0
  190.3040  176.5700  146.7050 N   0  0  0  0  0  0  0  0  0  0  0  0
  196.4700  171.9870  145.4890 C   0  0  0  0  0  2  0  0  0  0  0  0
  185.6540  176.3890  143.4860 O   0  0  0  0  0  0  0  0  0  0  0  0
  185.9860  177.5700  143.1530 C   0  0  0  0  0  0  0  0  0  0  0  0
  185.0340  178.5060  142.7620 O   0  0  0  0  0  0  0  0  0  0  0  0
  183.3630  178.3080  140.4410 O   0  0  0  0  0  0  0  0  0  0  0  0
  183.6850  178.1870  142.7630 N   0  0  0  0  0  2  0  0  0  0  0  0
  182.8630  178.2900  141.5990 C   0  0  0  0  0  0  0  0  0  0  0  0
  181.3730  178.3720  141.7870 C   0  0  2  0  0  3  0  0  0  0  0  0
  180.2080  177.9340  139.7410 O   0  0  0  0  0  0  0  0  0  0  0  0
  180.6960  178.8000  140.5280 C   0  0  0  0  0  0  0  0  0  0  0  0
  180.5310  180.1520  140.2290 O   0  0  0  0  0  1  0  0  0  0  0  0
  181.0170  179.3390  142.9260 C   0  0  0  0  0  2  0  0  0  0  0  0
  178.6440  178.4810  142.8110 O   0  0  0  0  0  0  0  0  0  0  0  0
  179.4740  179.4160  144.7510 O   0  0  0  0  0  1  0  0  0  0  0  0
  179.6870  179.0410  143.5600 C   0  0  0  0  0  0  0  0  0  0  0  0
  1 23  1  1  0  0  0
  2 48  1  6  0  0  0
  2  9  1  0  0  0  0
  3 46  1  0  0  0  0
  5 20  1  0  0  0  0
  5 44  2  0  0  0  0
  6  1  1  0  0  0  0
  7 14  1  0  0  0  0
  7 12  1  0  0  0  0
  9 35  1  0  0  0  0
 10  2  1  0  0  0  0
 11 34  2  0  0  0  0
 12  1  1  0  0  0  0
 12 17  2  0  0  0  0
 13 30  1  0  0  0  0
 13  4  1  0  0  0  0
 14 32  1  0  0  0  0
 15 25  3  0  0  0  0
 17 27  1  0  0  0  0
 18 33  1  0  0  0  0
 18 28  1  0  0  0  0
 18  6  1  0  0  0  0
 19 10  1  0  0  0  0
 20 30  1  0  0  0  0
 21 38  1  0  0  0  0
 21 33  1  0  0  0  0
 22  4  1  0  0  0  0
 22 16  1  0  0  0  0
 24 36  1  0  0  0  0
 25  3  1  0  0  0  0
 26 21  1  0  0  0  0
 26 18  1  0  0  0  0
 27 20  1  0  0  0  0
 28 40  1  0  0  0  0
 29  5  1  0  0  0  0
 30 42  2  0  0  0  0
 31 21  1  0  0  0  0
 32 29  1  0  0  0  0
 32 27  1  0  0  0  0
 33  6  1  0  0  0  0
 35 44  1  0  0  0  0
 36 15  1  0  0  0  0
 37  7  1  0  0  0  0
 38 37  1  0  0  0  0
 38 33  1  0  0  0  0
 39 32  1  0  0  0  0
 40 24  1  0  0  0  0
 41 10  2  0  0  0  0
 42 11  1  0  0  0  0
 43 41  2  0  0  0  0
 43 14  1  0  0  0  0
 44 45  1  0  0  0  0
 45 11  1  0  0  0  0
 45  8  1  0  0  0  0
 46 16  1  0  0  0  0
 48 47  2  0  0  0  0
 49 51  1  0  0  0  0
 49 48  1  0  0  0  0
 50 52  2  0  0  0  0
 52 53  1  0  0  0  0
 52 51  1  0  0  0  0
 53 57  1  0  0  0  0
 54 55  2  0  0  0  0
 55 53  1  0  0  0  0
 56 55  1  0  0  0  0
 57 60  1  0  0  0  0
 58 60  2  0  0  0  0
 60 59  1  0  0  0  0
M  END
>  <MODEL>
5

>  <REMARK>
 VINA RESULT:      -6.2      4.077      8.665
  Name = 
  7 active torsions:
  status: ('A' for Active; 'I' for Inactive)
    1  A    between atoms: C_2  and  C_36
    2  A    between atoms: C_3  and  C_20
    3  A    between atoms: C_3  and  C_22
    4  A    between atoms: C_3  and  C_23
    5  A    between atoms: O_4  and  N_11
    6  A    between atoms: O_4  and  C_36
    7  A    between atoms: C_20  and  C_58
                            x       y       z     vdW  Elec       q    Type
                         _______ _______ _______ _____ _____    ______ ____

>  <TORSDO>
F 7

$$$$
=
 OpenBabel11042416123D

 60 68  0  0  1  0  0  0  0  0999 V2000
  190.3530  173.2900  140.2690 C   0  0  1  0  0  3  0  0  0  0  0  0
  196.8340  172.1070  144.9460 C   0  0  1  0  0  3  0  0  0  0  0  0
  192.9810  174.6520  136.2180 C   0  0  0  0  0  2  0  0  0  0  0  0
  196.1660  175.1980  136.6470 C   0  0  0  0  0  2  0  0  0  0  0  0
  196.0470  173.4660  141.0310 C   0  0  0  0  0  0  0  0  0  0  0  0
  189.1650  173.6070  141.2090 C   0  0  2  0  0  3  0  0  0  0  0  0
  191.9590  173.8630  142.3280 C   0  0  1  0  0  3  0  0  0  0  0  0
  197.9060  170.3060  140.7410 C   0  0  0  0  0  1  0  0  0  0  0  0
  196.7740  171.6670  143.4730 C   0  0  0  0  0  2  0  0  0  0  0  0
  196.0400  173.3530  145.2270 C   0  0  0  0  0  0  0  0  0  0  0  0
  197.1500  171.6830  138.8130 C   0  0  0  0  0  0  0  0  0  0  0  0
  191.7010  173.7450  140.8090 C   0  0  0  0  0  0  0  0  0  0  0  0
  195.6260  175.0040  137.9260 O   0  0  0  0  0  0  0  0  0  0  0  0
  193.4370  173.8250  142.6780 C   0  0  1  0  0  3  0  0  0  0  0  0
  190.3590  174.1610  136.5490 C   0  0  0  0  0  0  0  0  0  0  0  0
  194.6620  175.9040  134.7890 C   0  0  0  0  0  2  0  0  0  0  0  0
  192.6630  174.0670  139.9340 C   0  0  0  0  0  3  0  0  0  0  0  0
  188.0550  174.6280  141.0890 C   0  0  2  0  0  0  0  0  0  0  0  0
  196.5430  174.2950  146.1120 O   0  0  0  0  0  1  0  0  0  0  0  0
  195.1210  173.4880  139.8830 C   0  0  1  0  0  3  0  0  0  0  0  0
  188.7900  175.8240  142.6260 C   0  0  2  0  0  0  0  0  0  0  0  0
  195.4750  176.3880  135.9850 C   0  0  0  0  0  2  0  0  0  0  0  0
  190.3560  171.9160  139.9710 O   0  0  0  0  0  1  0  0  0  0  0  0
  188.5150  173.8150  138.1690 C   0  0  0  0  0  2  0  0  0  0  0  0
  191.5350  174.4140  136.4060 C   0  0  0  0  0  0  0  0  0  0  0  0
  187.4350  175.2770  142.3290 C   0  0  0  0  0  2  0  0  0  0  0  0
  194.0590  174.5230  140.3080 C   0  0  2  0  0  3  0  0  0  0  0  0
  187.4520  175.0020  139.6790 C   0  0  0  0  0  2  0  0  0  0  0  0
  195.6570  174.3760  142.0020 O   0  0  0  0  0  0  0  0  0  0  0  0
  195.8570  173.8070  138.6200 C   0  0  0  0  0  0  0  0  0  0  0  0
  189.0280  176.8730  143.5640 O   0  0  0  0  0  1  0  0  0  0  0  0
  194.3080  174.7540  141.8140 C   0  0  2  0  0  0  0  0  0  0  0  0
  189.4580  175.0950  141.5370 C   0  0  2  0  0  0  0  0  0  0  0  0
  197.5520  170.7450  138.0670 O   0  0  0  0  0  0  0  0  0  0  0  0
  197.6410  172.5390  142.5860 C   0  0  0  0  0  2  0  0  0  0  0  0
  188.9420  173.8190  136.7030 C   0  0  0  0  0  2  0  0  0  0  0  0
  191.1900  175.0470  143.0050 C   0  0  0  0  0  2  0  0  0  0  0  0
  189.7420  174.7630  142.9390 N   0  0  1  0  0  0  0  0  0  0  0  0
  194.1360  176.2280  142.1680 C   0  0  0  0  0  1  0  0  0  0  0  0
  188.4260  175.1010  138.6850 O   0  0  0  0  0  0  0  0  0  0  0  0
  194.8750  173.5790  144.6770 C   0  0  0  0  0  0  0  0  0  0  0  0
  196.7520  172.9250  138.1490 C   0  0  0  0  0  3  0  0  0  0  0  0
  193.7120  173.8660  144.1590 C   0  0  0  0  0  3  0  0  0  0  0  0
  197.0370  172.5890  141.2150 C   0  0  0  0  0  0  0  0  0  0  0  0
  197.3150  171.5480  140.2470 N   0  0  0  0  0  0  0  0  0  0  0  0
  193.1800  175.6780  135.1140 C   0  0  0  0  0  2  0  0  0  0  0  0
  197.1980  170.2060  146.3400 O   0  0  0  0  0  0  0  0  0  0  0  0
  196.3520  170.9980  145.8180 C   0  0  0  0  0  0  0  0  0  0  0  0
  194.9880  170.8520  146.0470 O   0  0  0  0  0  0  0  0  0  0  0  0
  194.1990  168.1910  145.3290 O   0  0  0  0  0  0  0  0  0  0  0  0
  194.1290  170.5150  145.0120 N   0  0  0  0  0  2  0  0  0  0  0  0
  193.9230  169.1690  144.5820 C   0  0  0  0  0  0  0  0  0  0  0  0
  193.3580  168.9410  143.2070 C   0  0  2  0  0  3  0  0  0  0  0  0
  195.5930  168.2630  142.6770 O   0  0  0  0  0  1  0  0  0  0  0  0
  194.4210  168.5020  142.2560 C   0  0  0  0  0  0  0  0  0  0  0  0
  194.1320  168.2860  140.9090 O   0  0  0  0  0  0  0  0  0  0  0  0
  192.6780  170.2130  142.6760 C   0  0  0  0  0  2  0  0  0  0  0  0
  190.2700  170.9070  142.9850 O   0  0  0  0  0  1  0  0  0  0  0  0
  190.8120  169.0080  141.7900 O   0  0  0  0  0  0  0  0  0  0  0  0
  191.2080  170.0330  142.4210 C   0  0  0  0  0  0  0  0  0  0  0  0
  1 23  1  1  0  0  0
  1 12  1  0  0  0  0
  1  6  1  0  0  0  0
  2 10  1  0  0  0  0
  2 48  1  1  0  0  0
  3 25  1  0  0  0  0
  4 13  1  0  0  0  0
  5 44  2  0  0  0  0
  5 29  1  0  0  0  0
  6 33  1  0  0  0  0
  7 14  1  0  0  0  0
  7 37  1  0  0  0  0
  9  2  1  0  0  0  0
 10 19  1  0  0  0  0
 11 45  1  0  0  0  0
 12  7  1  0  0  0  0
 13 30  1  0  0  0  0
 14 43  1  0  0  0  0
 15 36  1  0  0  0  0
 16 46  1  0  0  0  0
 16 22  1  0  0  0  0
 17 27  1  0  0  0  0
 17 12  2  0  0  0  0
 18  6  1  0  0  0  0
 18 33  1  0  0  0  0
 18 26  1  0  0  0  0
 20 27  1  0  0  0  0
 20  5  1  0  0  0  0
 21 38  1  0  0  0  0
 21 31  1  0  0  0  0
 22  4  1  0  0  0  0
 24 40  1  0  0  0  0
 25 15  3  0  0  0  0
 26 21  1  0  0  0  0
 27 32  1  0  0  0  0
 28 18  1  0  0  0  0
 30 20  1  0  0  0  0
 32 29  1  0  0  0  0
 32 39  1  0  0  0  0
 32 14  1  0  0  0  0
 33 21  1  0  0  0  0
 33 38  1  0  0  0  0
 34 11  2  0  0  0  0
 35  9  1  0  0  0  0
 36 24  1  0  0  0  0
 38 37  1  0  0  0  0
 40 28  1  0  0  0  0
 41 10  2  0  0  0  0
 42 30  2  0  0  0  0
 42 11  1  0  0  0  0
 43 41  2  0  0  0  0
 44 35  1  0  0  0  0
 45  8  1  0  0  0  0
 45 44  1  0  0  0  0
 46  3  1  0  0  0  0
 48 49  1  0  0  0  0
 48 47  2  0  0  0  0
 51 49  1  0  0  0  0
 52 51  1  0  0  0  0
 52 50  2  0  0  0  0
 53 52  1  0  0  0  0
 55 54  1  0  0  0  0
 55 53  1  0  0  0  0
 56 55  2  0  0  0  0
 57 53  1  0  0  0  0
 59 60  2  0  0  0  0
 60 57  1  0  0  0  0
 60 58  1  0  0  0  0
M  END
>  <MODEL>
6

>  <REMARK>
 VINA RESULT:      -5.9      2.429      7.810
  Name = 
  7 active torsions:
  status: ('A' for Active; 'I' for Inactive)
    1  A    between atoms: C_2  and  C_36
    2  A    between atoms: C_3  and  C_20
    3  A    between atoms: C_3  and  C_22
    4  A    between atoms: C_3  and  C_23
    5  A    between atoms: O_4  and  N_11
    6  A    between atoms: O_4  and  C_36
    7  A    between atoms: C_20  and  C_58
                            x       y       z     vdW  Elec       q    Type
                         _______ _______ _______ _____ _____    ______ ____

>  <TORSDO>
F 7

$$$$
=
 OpenBabel11042416123D

 60 68  0  0  1  0  0  0  0  0999 V2000
  193.5540  174.6200  142.4650 C   0  0  1  0  0  3  0  0  0  0  0  0
  191.6780  169.3740  136.6140 C   0  0  1  0  0  3  0  0  0  0  0  0
  196.2270  171.3360  145.1560 C   0  0  0  0  0  2  0  0  0  0  0  0
  196.0440  168.2070  144.2600 C   0  0  0  0  0  2  0  0  0  0  0  0
  193.7280  169.2990  140.3010 C   0  0  0  0  0  0  0  0  0  0  0  0
  192.4530  175.7080  142.4720 C   0  0  2  0  0  3  0  0  0  0  0  0
  191.8590  173.1050  141.0580 C   0  0  1  0  0  3  0  0  0  0  0  0
  196.1950  168.6100  137.6610 C   0  0  0  0  0  1  0  0  0  0  0  0
  193.0760  169.4490  137.2540 C   0  0  0  0  0  2  0  0  0  0  0  0
  190.5680  169.7170  137.5680 C   0  0  0  0  0  0  0  0  0  0  0  0
  196.7080  168.6760  140.0930 C   0  0  0  0  0  0  0  0  0  0  0  0
  193.0620  173.2520  142.0170 C   0  0  0  0  0  0  0  0  0  0  0  0
  195.0980  168.8920  143.4850 O   0  0  0  0  0  0  0  0  0  0  0  0
  191.8390  171.7660  140.3410 C   0  0  1  0  0  3  0  0  0  0  0  0
  195.8770  173.9870  145.4320 C   0  0  0  0  0  0  0  0  0  0  0  0
  196.8070  169.2090  146.4100 C   0  0  0  0  0  2  0  0  0  0  0  0
  193.6830  172.1640  142.4930 C   0  0  0  0  0  3  0  0  0  0  0  0
  191.7420  176.3880  143.6210 C   0  0  2  0  0  0  0  0  0  0  0  0
  189.3800  169.0050  137.5150 O   0  0  0  0  0  1  0  0  0  0  0  0
  194.4560  170.0560  141.3360 C   0  0  1  0  0  3  0  0  0  0  0  0
  189.9300  175.4300  143.2600 C   0  0  2  0  0  0  0  0  0  0  0  0
  195.7110  168.3890  145.7380 C   0  0  0  0  0  2  0  0  0  0  0  0
  194.6360  175.0590  141.6830 O   0  0  0  0  0  1  0  0  0  0  0  0
  194.5640  175.9750  144.7480 C   0  0  0  0  0  2  0  0  0  0  0  0
  196.0090  172.7870  145.3270 C   0  0  0  0  0  0  0  0  0  0  0  0
  190.2910  176.8570  143.4920 C   0  0  0  0  0  2  0  0  0  0  0  0
  193.3250  170.7350  142.1360 C   0  0  2  0  0  3  0  0  0  0  0  0
  192.5030  176.7000  144.9690 C   0  0  0  0  0  2  0  0  0  0  0  0
  192.3570  169.4410  140.4530 O   0  0  0  0  0  0  0  0  0  0  0  0
  195.3420  169.1460  142.1270 C   0  0  0  0  0  0  0  0  0  0  0  0
  188.5940  174.9320  143.3330 O   0  0  0  0  0  1  0  0  0  0  0  0
  192.0610  170.5570  141.2670 C   0  0  2  0  0  0  0  0  0  0  0  0
  191.3220  174.9560  143.2230 C   0  0  2  0  0  0  0  0  0  0  0  0
  197.9260  168.5540  139.7750 O   0  0  0  0  0  0  0  0  0  0  0  0
  193.3490  168.2610  138.1560 C   0  0  0  0  0  2  0  0  0  0  0  0
  195.7550  175.4430  145.5420 C   0  0  0  0  0  2  0  0  0  0  0  0
  190.4870  173.4820  141.7100 C   0  0  0  0  0  2  0  0  0  0  0  0
  190.4930  174.9270  142.0110 N   0  0  1  0  0  0  0  0  0  0  0  0
  190.8480  170.2470  142.1390 C   0  0  0  0  0  1  0  0  0  0  0  0
  193.3550  175.6660  145.3580 O   0  0  0  0  0  0  0  0  0  0  0  0
  190.6740  170.6820  138.4460 C   0  0  0  0  0  0  0  0  0  0  0  0
  196.3880  168.5670  141.5180 C   0  0  0  0  0  3  0  0  0  0  0  0
  190.7170  171.6260  139.3460 C   0  0  0  0  0  3  0  0  0  0  0  0
  194.2810  168.6870  139.2500 C   0  0  0  0  0  0  0  0  0  0  0  0
  195.7140  168.6960  139.0390 N   0  0  0  0  0  0  0  0  0  0  0  0
  196.4700  170.7010  146.5160 C   0  0  0  0  0  2  0  0  0  0  0  0
  190.5040  170.4880  134.8620 O   0  0  0  0  0  0  0  0  0  0  0  0
  191.6210  170.2800  135.4320 C   0  0  0  0  0  0  0  0  0  0  0  0
  192.7880  170.8830  134.9760 O   0  0  0  0  0  0  0  0  0  0  0  0
  194.1160  172.5020  136.9350 O   0  0  0  0  0  0  0  0  0  0  0  0
  192.9050  172.2640  134.9390 N   0  0  0  0  0  2  0  0  0  0  0  0
  193.4090  173.0300  136.0350 C   0  0  0  0  0  0  0  0  0  0  0  0
  193.0780  174.4960  136.0870 C   0  0  2  0  0  3  0  0  0  0  0  0
  194.0300  175.6030  137.9860 O   0  0  0  0  0  1  0  0  0  0  0  0
  194.1590  175.2660  136.7700 C   0  0  0  0  0  0  0  0  0  0  0  0
  195.3490  175.5700  136.1090 O   0  0  0  0  0  0  0  0  0  0  0  0
  191.7400  174.7310  136.8040 C   0  0  0  0  0  2  0  0  0  0  0  0
  190.6810  174.8520  134.5140 O   0  0  0  0  0  0  0  0  0  0  0  0
  189.4030  174.4320  136.3910 O   0  0  0  0  0  1  0  0  0  0  0  0
  190.5520  174.6190  135.8900 C   0  0  0  0  0  0  0  0  0  0  0  0
  1 23  1  6  0  0  0
  1  6  1  0  0  0  0
  2 48  1  6  0  0  0
  2  9  1  0  0  0  0
  2 10  1  0  0  0  0
  3 25  1  0  0  0  0
  3 46  1  0  0  0  0
  4 22  1  0  0  0  0
  5 29  1  0  0  0  0
  5 20  1  0  0  0  0
  6 33  1  0  0  0  0
  6 18  1  0  0  0  0
  7 37  1  0  0  0  0
  7 12  1  0  0  0  0
  8 45  1  0  0  0  0
  9 35  1  0  0  0  0
 10 41  2  0  0  0  0
 11 42  1  0  0  0  0
 12  1  1  0  0  0  0
 12 17  2  0  0  0  0
 13  4  1  0  0  0  0
 14  7  1  0  0  0  0
 14 32  1  0  0  0  0
 15 36  1  0  0  0  0
 16 46  1  0  0  0  0
 18 28  1  0  0  0  0
 19 10  1  0  0  0  0
 20 30  1  0  0  0  0
 20 27  1  0  0  0  0
 21 31  1  0  0  0  0
 21 26  1  0  0  0  0
 22 16  1  0  0  0  0
 24 40  1  0  0  0  0
 24 36  1  0  0  0  0
 25 15  3  0  0  0  0
 26 18  1  0  0  0  0
 27 17  1  0  0  0  0
 28 40  1  0  0  0  0
 29 32  1  0  0  0  0
 30 13  1  0  0  0  0
 32 27  1  0  0  0  0
 32 39  1  0  0  0  0
 33 21  1  0  0  0  0
 33 18  1  0  0  0  0
 34 11  2  0  0  0  0
 35 44  1  0  0  0  0
 37 38  1  0  0  0  0
 38 33  1  0  0  0  0
 38 21  1  0  0  0  0
 41 43  2  0  0  0  0
 42 30  2  0  0  0  0
 43 14  1  0  0  0  0
 44  5  2  0  0  0  0
 45 44  1  0  0  0  0
 45 11  1  0  0  0  0
 47 48  2  0  0  0  0
 49 48  1  0  0  0  0
 51 49  1  0  0  0  0
 51 52  1  0  0  0  0
 52 53  1  0  0  0  0
 52 50  2  0  0  0  0
 53 55  1  0  0  0  0
 53 57  1  0  0  0  0
 55 54  1  0  0  0  0
 56 55  2  0  0  0  0
 58 60  2  0  0  0  0
 60 59  1  0  0  0  0
 60 57  1  0  0  0  0
M  END
>  <MODEL>
7

>  <REMARK>
 VINA RESULT:      -5.8      2.916      8.581
  Name = 
  7 active torsions:
  status: ('A' for Active; 'I' for Inactive)
    1  A    between atoms: C_2  and  C_36
    2  A    between atoms: C_3  and  C_20
    3  A    between atoms: C_3  and  C_22
    4  A    between atoms: C_3  and  C_23
    5  A    between atoms: O_4  and  N_11
    6  A    between atoms: O_4  and  C_36
    7  A    between atoms: C_20  and  C_58
                            x       y       z     vdW  Elec       q    Type
                         _______ _______ _______ _____ _____    ______ ____

>  <TORSDO>
F 7

$$$$
=
 OpenBabel11042416123D

 60 68  0  0  1  0  0  0  0  0999 V2000
  190.7350  170.9080  137.8680 C   0  0  1  0  0  3  0  0  0  0  0  0
  192.0950  174.5840  144.9330 C   0  0  1  0  0  3  0  0  0  0  0  0
  195.1630  168.5500  137.7430 C   0  0  0  0  0  2  0  0  0  0  0  0
  197.3740  169.4580  139.9590 C   0  0  0  0  0  2  0  0  0  0  0  0
  194.2170  172.0730  142.2890 C   0  0  0  0  0  0  0  0  0  0  0  0
  189.7030  171.7660  137.0980 C   0  0  2  0  0  3  0  0  0  0  0  0
  191.1630  173.0470  139.4120 C   0  0  1  0  0  3  0  0  0  0  0  0
  193.7020  170.1950  145.4080 C   0  0  0  0  0  1  0  0  0  0  0  0
  192.4860  173.1210  144.6620 C   0  0  0  0  0  2  0  0  0  0  0  0
  192.1800  175.4570  143.7110 C   0  0  0  0  0  0  0  0  0  0  0  0
  194.9240  169.3290  143.4240 C   0  0  0  0  0  0  0  0  0  0  0  0
  191.6360  171.7120  138.7930 C   0  0  0  0  0  0  0  0  0  0  0  0
  196.3060  170.3570  140.0800 O   0  0  0  0  0  0  0  0  0  0  0  0
  191.9470  173.4280  140.6570 C   0  0  1  0  0  3  0  0  0  0  0  0
  192.9970  168.3420  136.1640 C   0  0  0  0  0  0  0  0  0  0  0  0
  197.6750  168.2130  137.8210 C   0  0  0  0  0  2  0  0  0  0  0  0
  192.8670  171.2490  139.0460 C   0  0  0  0  0  3  0  0  0  0  0  0
  189.6360  172.1590  135.6390 C   0  0  2  0  0  0  0  0  0  0  0  0
  192.6530  176.7540  143.8330 O   0  0  0  0  0  1  0  0  0  0  0  0
  194.1600  171.0710  141.2080 C   0  0  1  0  0  3  0  0  0  0  0  0
  190.1060  174.1540  136.0010 C   0  0  2  0  0  0  0  0  0  0  0  0
  197.9350  169.5310  138.5410 C   0  0  0  0  0  2  0  0  0  0  0  0
  190.0640  169.8870  138.5630 O   0  0  0  0  0  1  0  0  0  0  0  0
  190.8240  169.3350  135.5040 C   0  0  0  0  0  2  0  0  0  0  0  0
  193.9850  168.4590  136.8550 C   0  0  0  0  0  0  0  0  0  0  0  0
  189.0330  173.4970  135.2030 C   0  0  0  0  0  2  0  0  0  0  0  0
  193.8780  171.9220  139.9540 C   0  0  2  0  0  3  0  0  0  0  0  0
  190.1220  171.1640  134.5130 C   0  0  0  0  0  2  0  0  0  0  0  0
  194.0450  173.3540  141.7880 O   0  0  0  0  0  0  0  0  0  0  0  0
  195.4240  170.2700  141.1680 C   0  0  0  0  0  0  0  0  0  0  0  0
  190.4440  175.5350  135.8810 O   0  0  0  0  0  1  0  0  0  0  0  0
  193.4720  173.3090  140.4960 C   0  0  2  0  0  0  0  0  0  0  0  0
  190.6230  172.8990  136.5680 C   0  0  2  0  0  0  0  0  0  0  0  0
  194.9820  168.2170  144.0230 O   0  0  0  0  0  0  0  0  0  0  0  0
  193.9860  172.9510  144.5230 C   0  0  0  0  0  2  0  0  0  0  0  0
  191.7930  168.1660  135.3470 C   0  0  0  0  0  2  0  0  0  0  0  0
  191.0430  174.2120  138.3730 C   0  0  0  0  0  2  0  0  0  0  0  0
  189.9560  173.8860  137.4280 N   0  0  1  0  0  0  0  0  0  0  0  0
  194.0670  174.4190  139.6340 C   0  0  0  0  0  1  0  0  0  0  0  0
  191.2850  170.4790  134.8650 O   0  0  0  0  0  0  0  0  0  0  0  0
  191.8080  175.0420  142.5270 C   0  0  0  0  0  0  0  0  0  0  0  0
  195.7090  169.4540  142.1940 C   0  0  0  0  0  3  0  0  0  0  0  0
  191.4580  174.6890  141.3210 C   0  0  0  0  0  3  0  0  0  0  0  0
  194.2620  171.8060  143.5960 C   0  0  0  0  0  0  0  0  0  0  0  0
  194.2800  170.4440  144.0900 N   0  0  0  0  0  0  0  0  0  0  0  0
  196.4180  168.2380  136.9440 C   0  0  0  0  0  2  0  0  0  0  0  0
  189.9420  173.6400  145.3350 O   0  0  0  0  0  0  0  0  0  0  0  0
  190.7140  174.6380  145.4910 C   0  0  0  0  0  0  0  0  0  0  0  0
  190.2970  175.7750  146.1720 O   0  0  0  0  0  0  0  0  0  0  0  0
  187.4980  175.7380  146.7970 O   0  0  0  0  0  0  0  0  0  0  0  0
  189.3360  176.6140  145.6290 N   0  0  0  0  0  2  0  0  0  0  0  0
  187.9350  176.4240  145.8330 C   0  0  0  0  0  0  0  0  0  0  0  0
  186.9820  177.0720  144.8670 C   0  0  2  0  0  3  0  0  0  0  0  0
  187.4290  177.7900  142.6260 O   0  0  0  0  0  0  0  0  0  0  0  0
  187.4020  176.8310  143.4550 C   0  0  0  0  0  0  0  0  0  0  0  0
  187.8300  175.5700  143.0410 O   0  0  0  0  0  1  0  0  0  0  0  0
  186.8800  178.5830  145.1280 C   0  0  0  0  0  2  0  0  0  0  0  0
  184.3910  178.3780  145.5100 O   0  0  0  0  0  1  0  0  0  0  0  0
  185.2680  180.1660  144.3430 O   0  0  0  0  0  0  0  0  0  0  0  0
  185.4770  179.1090  145.0100 C   0  0  0  0  0  0  0  0  0  0  0  0
  1 23  1  1  0  0  0
  1 12  1  0  0  0  0
  2 48  1  6  0  0  0
  4 13  1  0  0  0  0
  5 44  2  0  0  0  0
  6  1  1  0  0  0  0
  7 14  1  0  0  0  0
  9  2  1  0  0  0  0
 10 19  1  0  0  0  0
 10  2  1  0  0  0  0
 11 34  2  0  0  0  0
 11 45  1  0  0  0  0
 12 17  2  0  0  0  0
 12  7  1  0  0  0  0
 13 30  1  0  0  0  0
 14 43  1  0  0  0  0
 15 25  3  0  0  0  0
 16 22  1  0  0  0  0
 17 27  1  0  0  0  0
 18 33  1  0  0  0  0
 18  6  1  0  0  0  0
 20  5  1  0  0  0  0
 21 33  1  0  0  0  0
 21 38  1  0  0  0  0
 22  4  1  0  0  0  0
 25  3  1  0  0  0  0
 26 18  1  0  0  0  0
 26 21  1  0  0  0  0
 27 32  1  0  0  0  0
 27 20  1  0  0  0  0
 28 40  1  0  0  0  0
 28 18  1  0  0  0  0
 29  5  1  0  0  0  0
 30 20  1  0  0  0  0
 30 42  2  0  0  0  0
 31 21  1  0  0  0  0
 32 14  1  0  0  0  0
 32 29  1  0  0  0  0
 33  6  1  0  0  0  0
 33 38  1  0  0  0  0
 35  9  1  0  0  0  0
 36 24  1  0  0  0  0
 36 15  1  0  0  0  0
 37  7  1  0  0  0  0
 38 37  1  0  0  0  0
 39 32  1  0  0  0  0
 40 24  1  0  0  0  0
 41 10  2  0  0  0  0
 42 11  1  0  0  0  0
 43 41  2  0  0  0  0
 44 45  1  0  0  0  0
 44 35  1  0  0  0  0
 45  8  1  0  0  0  0
 46  3  1  0  0  0  0
 46 16  1  0  0  0  0
 47 48  2  0  0  0  0
 48 49  1  0  0  0  0
 51 52  1  0  0  0  0
 51 49  1  0  0  0  0
 52 50  2  0  0  0  0
 53 57  1  0  0  0  0
 53 52  1  0  0  0  0
 54 55  2  0  0  0  0
 55 53  1  0  0  0  0
 56 55  1  0  0  0  0
 59 60  2  0  0  0  0
 60 57  1  0  0  0  0
 60 58  1  0  0  0  0
M  END
>  <MODEL>
8

>  <REMARK>
 VINA RESULT:      -5.5      2.516      7.163
  Name = 
  7 active torsions:
  status: ('A' for Active; 'I' for Inactive)
    1  A    between atoms: C_2  and  C_36
    2  A    between atoms: C_3  and  C_20
    3  A    between atoms: C_3  and  C_22
    4  A    between atoms: C_3  and  C_23
    5  A    between atoms: O_4  and  N_11
    6  A    between atoms: O_4  and  C_36
    7  A    between atoms: C_20  and  C_58
                            x       y       z     vdW  Elec       q    Type
                         _______ _______ _______ _____ _____    ______ ____

>  <TORSDO>
F 7

$$$$
=
 OpenBabel11042416123D

 60 68  0  0  1  0  0  0  0  0999 V2000
  195.1450  172.9690  140.7270 C   0  0  1  0  0  3  0  0  0  0  0  0
  187.5140  175.6230  140.8370 C   0  0  1  0  0  3  0  0  0  0  0  0
  194.5050  169.9660  136.7590 C   0  0  0  0  0  2  0  0  0  0  0  0
  191.4400  169.4860  135.7570 C   0  0  0  0  0  2  0  0  0  0  0  0
  189.7940  172.8410  138.6320 C   0  0  0  0  0  0  0  0  0  0  0  0
  195.6990  173.1150  142.1640 C   0  0  2  0  0  3  0  0  0  0  0  0
  192.7020  173.1980  141.7900 C   0  0  1  0  0  3  0  0  0  0  0  0
  188.8020  175.5230  136.3200 C   0  0  0  0  0  1  0  0  0  0  0  0
  188.3160  175.4340  139.5370 C   0  0  0  0  0  2  0  0  0  0  0  0
  187.8810  174.6360  141.9100 C   0  0  0  0  0  0  0  0  0  0  0  0
  190.1340  173.5250  135.6770 C   0  0  0  0  0  0  0  0  0  0  0  0
  193.6470  172.7060  140.6700 C   0  0  0  0  0  0  0  0  0  0  0  0
  191.3520  170.2050  136.9570 O   0  0  0  0  0  0  0  0  0  0  0  0
  191.2560  173.3020  141.3350 C   0  0  1  0  0  3  0  0  0  0  0  0
  196.7190  170.6740  138.1090 C   0  0  0  0  0  0  0  0  0  0  0  0
  193.4990  168.1660  135.2820 C   0  0  0  0  0  2  0  0  0  0  0  0
  193.1610  172.0130  139.6310 C   0  0  0  0  0  3  0  0  0  0  0  0
  196.5620  172.1860  142.9900 C   0  0  2  0  0  0  0  0  0  0  0  0
  186.8870  174.1070  142.7180 O   0  0  0  0  0  1  0  0  0  0  0  0
  191.1290  172.4030  138.1830 C   0  0  1  0  0  3  0  0  0  0  0  0
  195.0230  171.6770  144.2960 C   0  0  2  0  0  0  0  0  0  0  0  0
  192.1620  168.1660  136.0130 C   0  0  0  0  0  2  0  0  0  0  0  0
  195.4960  174.1040  139.9760 O   0  0  0  0  0  1  0  0  0  0  0  0
  197.6360  171.7320  140.1540 C   0  0  0  0  0  2  0  0  0  0  0  0
  195.7180  170.3290  137.5200 C   0  0  0  0  0  0  0  0  0  0  0  0
  196.4290  172.1230  144.5140 C   0  0  0  0  0  2  0  0  0  0  0  0
  191.6970  171.6800  139.4210 C   0  0  2  0  0  3  0  0  0  0  0  0
  197.6810  171.3060  142.3080 C   0  0  0  0  0  2  0  0  0  0  0  0
  189.5440  172.4200  139.9290 O   0  0  0  0  0  0  0  0  0  0  0  0
  191.0180  171.5680  136.9460 C   0  0  0  0  0  0  0  0  0  0  0  0
  194.2170  171.0850  145.3130 O   0  0  0  0  0  1  0  0  0  0  0  0
  190.7480  172.0630  140.5760 C   0  0  2  0  0  0  0  0  0  0  0  0
  195.0570  171.8720  142.8380 C   0  0  2  0  0  0  0  0  0  0  0  0
  190.2760  174.0620  134.5410 O   0  0  0  0  0  0  0  0  0  0  0  0
  187.8310  174.2380  138.7420 C   0  0  0  0  0  2  0  0  0  0  0  0
  197.9390  171.1170  138.7900 C   0  0  0  0  0  2  0  0  0  0  0  0
  192.8750  172.4250  143.1400 C   0  0  0  0  0  2  0  0  0  0  0  0
  194.2140  172.7270  143.6840 N   0  0  1  0  0  0  0  0  0  0  0  0
  190.5030  170.8660  141.4900 C   0  0  0  0  0  1  0  0  0  0  0  0
  197.2730  170.7690  141.0860 O   0  0  0  0  0  0  0  0  0  0  0  0
  189.1170  174.2630  142.1250 C   0  0  0  0  0  0  0  0  0  0  0  0
  190.5930  172.1410  135.8100 C   0  0  0  0  0  3  0  0  0  0  0  0
  190.3270  173.8480  142.3870 C   0  0  0  0  0  3  0  0  0  0  0  0
  188.9830  173.6690  137.9700 C   0  0  0  0  0  0  0  0  0  0  0  0
  189.3510  174.2180  136.6810 N   0  0  0  0  0  0  0  0  0  0  0  0
  194.6790  168.5740  136.1730 C   0  0  0  0  0  2  0  0  0  0  0  0
  186.8890  177.9190  140.9990 O   0  0  0  0  0  0  0  0  0  0  0  0
  187.7070  177.0110  141.3460 C   0  0  0  0  0  0  0  0  0  0  0  0
  188.7770  177.2860  142.1910 O   0  0  0  0  0  0  0  0  0  0  0  0
  190.2220  176.5370  144.5510 O   0  0  0  0  0  0  0  0  0  0  0  0
  188.5620  177.7910  143.4640 N   0  0  0  0  0  2  0  0  0  0  0  0
  189.1800  177.2440  144.6300 C   0  0  0  0  0  0  0  0  0  0  0  0
  188.5580  177.5370  145.9670 C   0  0  2  0  0  3  0  0  0  0  0  0
  190.1360  176.9810  147.6800 O   0  0  0  0  0  1  0  0  0  0  0  0
  189.1070  176.6380  147.0240 C   0  0  0  0  0  0  0  0  0  0  0  0
  188.4660  175.4440  147.3520 O   0  0  0  0  0  0  0  0  0  0  0  0
  187.0300  177.3940  145.9040 C   0  0  0  0  0  2  0  0  0  0  0  0
  186.5530  179.2690  147.5270 O   0  0  0  0  0  0  0  0  0  0  0  0
  185.6380  177.1730  147.8360 O   0  0  0  0  0  1  0  0  0  0  0  0
  186.3330  177.9490  147.1150 C   0  0  0  0  0  0  0  0  0  0  0  0
  1 23  1  6  0  0  0
  1  6  1  0  0  0  0
  2 48  1  1  0  0  0
  2 10  1  0  0  0  0
  3 25  1  0  0  0  0
  4 22  1  0  0  0  0
  4 13  1  0  0  0  0
  5 29  1  0  0  0  0
  6 33  1  0  0  0  0
  6 18  1  0  0  0  0
  7 37  1  0  0  0  0
  8 45  1  0  0  0  0
  9  2  1  0  0  0  0
 10 41  2  0  0  0  0
 10 19  1  0  0  0  0
 11 42  1  0  0  0  0
 11 45  1  0  0  0  0
 12  1  1  0  0  0  0
 12  7  1  0  0  0  0
 14  7  1  0  0  0  0
 14 43  1  0  0  0  0
 15 36  1  0  0  0  0
 16 22  1  0  0  0  0
 16 46  1  0  0  0  0
 17 12  2  0  0  0  0
 18 26  1  0  0  0  0
 20  5  1  0  0  0  0
 20 27  1  0  0  0  0
 21 26  1  0  0  0  0
 21 31  1  0  0  0  0
 24 40  1  0  0  0  0
 25 15  3  0  0  0  0
 27 17  1  0  0  0  0
 27 32  1  0  0  0  0
 28 18  1  0  0  0  0
 29 32  1  0  0  0  0
 30 13  1  0  0  0  0
 30 20  1  0  0  0  0
 32 14  1  0  0  0  0
 32 39  1  0  0  0  0
 33 18  1  0  0  0  0
 33 38  1  0  0  0  0
 33 21  1  0  0  0  0
 34 11  2  0  0  0  0
 35  9  1  0  0  0  0
 36 24  1  0  0  0  0
 37 38  1  0  0  0  0
 38 21  1  0  0  0  0
 40 28  1  0  0  0  0
 41 43  2  0  0  0  0
 42 30  2  0  0  0  0
 44  5  2  0  0  0  0
 44 35  1  0  0  0  0
 45 44  1  0  0  0  0
 46  3  1  0  0  0  0
 47 48  2  0  0  0  0
 48 49  1  0  0  0  0
 49 51  1  0  0  0  0
 50 52  2  0  0  0  0
 51 52  1  0  0  0  0
 52 53  1  0  0  0  0
 53 55  1  0  0  0  0
 55 56  2  0  0  0  0
 55 54  1  0  0  0  0
 57 53  1  0  0  0  0
 57 60  1  0  0  0  0
 60 58  2  0  0  0  0
 60 59  1  0  0  0  0
M  END
>  <MODEL>
9

>  <REMARK>
 VINA RESULT:      -5.4      2.317      4.183
  Name = 
  7 active torsions:
  status: ('A' for Active; 'I' for Inactive)
    1  A    between atoms: C_2  and  C_36
    2  A    between atoms: C_3  and  C_20
    3  A    between atoms: C_3  and  C_22
    4  A    between atoms: C_3  and  C_23
    5  A    between atoms: O_4  and  N_11
    6  A    between atoms: O_4  and  C_36
    7  A    between atoms: C_20  and  C_58
                            x       y       z     vdW  Elec       q    Type
                         _______ _______ _______ _____ _____    ______ ____

>  <TORSDO>
F 7

$$$$
