=
 OpenBabel11042417483D

 25 26  0  0  1  0  0  0  0  0999 V2000
  188.4560  176.3400  146.8190 C   0  0  0  0  0  3  0  0  0  0  0  0
  186.9530  176.4330  143.1220 C   0  0  0  0  0  0  0  0  0  0  0  0
  185.7010  176.5700  143.1510 O   0  0  0  0  0  0  0  0  0  0  0  0
  187.7740  176.2640  141.9410 C   0  0  0  0  0  0  0  0  0  0  0  0
  190.2900  175.1450  145.5780 C   0  0  1  0  0  3  0  0  0  0  0  0
  189.0140  176.1290  142.2730 N   0  0  0  0  0  0  0  0  0  0  0  0
  186.2790  176.9940  145.9770 C   0  0  0  0  0  3  0  0  0  0  0  0
  187.5150  176.5700  145.6930 C   0  0  0  0  0  0  0  0  0  0  0  0
  189.6500  175.7470  146.7900 C   0  0  0  0  0  3  0  0  0  0  0  0
  187.8700  176.3950  144.2560 C   0  0  0  0  0  0  0  0  0  0  0  0
  189.0770  176.2160  143.7020 C   0  0  0  0  0  0  0  0  0  0  0  0
  190.3820  176.1370  144.4240 C   0  0  1  0  0  3  0  0  0  0  0  0
  190.7930  177.4060  144.8470 O   0  0  0  0  0  0  0  0  0  0  0  0
  191.5370  177.9170  143.7810 C   0  0  0  0  0  2  0  0  0  0  0  0
  192.4480  176.9550  143.3480 O   0  0  0  0  0  1  0  0  0  0  0  0
  191.6800  174.6290  145.9210 C   0  0  0  0  0  2  0  0  0  0  0  0
  191.3730  172.6270  144.4660 O   0  0  0  0  0  1  0  0  0  0  0  0
  193.3120  173.8460  144.3700 O   0  0  0  0  0  0  0  0  0  0  0  0
  192.1680  173.6910  144.8710 C   0  0  0  0  0  0  0  0  0  0  0  0
  185.7750  177.2380  147.3660 C   0  0  0  0  0  2  0  0  0  0  0  0
  184.2050  178.6160  146.0040 C   0  0  0  0  0  1  0  0  0  0  0  0
  184.8060  178.4060  147.3810 C   0  0  0  0  0  2  0  0  0  0  0  0
  187.2860  176.1850  140.5330 C   0  0  0  0  0  2  0  0  0  0  0  0
  185.6190  177.8650  140.0670 N   0  0  0  0  0  2  0  0  0  0  0  0
  186.8550  177.5300  140.0450 C   0  0  0  0  0  3  0  0  0  0  0  0
  2  3  2  0  0  0  0
  2 10  1  0  0  0  0
  4  6  2  0  0  0  0
  4  2  1  0  0  0  0
  5 16  1  1  0  0  0
  5  9  1  0  0  0  0
  6 11  1  0  0  0  0
  7 20  1  0  0  0  0
  8  7  2  0  0  0  0
  8  1  1  0  0  0  0
  9  1  2  0  0  0  0
 10  8  1  0  0  0  0
 11 10  2  0  0  0  0
 11 12  1  0  0  0  0
 12 13  1  1  0  0  0
 12  5  1  0  0  0  0
 14 13  1  0  0  0  0
 15 14  1  0  0  0  0
 17 19  1  0  0  0  0
 18 19  2  0  0  0  0
 19 16  1  0  0  0  0
 20 22  1  0  0  0  0
 21 22  1  0  0  0  0
 23  4  1  0  0  0  0
 25 24  2  0  0  0  0
 25 23  1  0  0  0  0
M  END
>  <MODEL>
1

>  <REMARK>
 VINA RESULT:      -6.0      0.000      0.000
  Name = 
  8 active torsions:
  status: ('A' for Active; 'I' for Inactive)
    1  A    between atoms: O_1  and  C_6
    2  A    between atoms: O_1  and  C_25
    3  A    between atoms: C_4  and  C_19
    4  A    between atoms: C_10  and  C_20
    5  A    between atoms: C_11  and  C_12
    6  A    between atoms: C_11  and  C_24
    7  A    between atoms: C_14  and  C_19
    8  A    between atoms: C_16  and  C_20
                            x       y       z     vdW  Elec       q    Type
                         _______ _______ _______ _____ _____    ______ ____

>  <TORSDO>
F 8

$$$$
=
 OpenBabel11042417483D

 25 26  0  0  1  0  0  0  0  0999 V2000
  190.7240  175.0440  144.1370 C   0  0  0  0  0  3  0  0  0  0  0  0
  187.5560  176.3850  146.1620 C   0  0  0  0  0  0  0  0  0  0  0  0
  187.7450  176.2870  147.4040 O   0  0  0  0  0  0  0  0  0  0  0  0
  186.3530  176.8520  145.5070 C   0  0  0  0  0  0  0  0  0  0  0  0
  188.9460  174.7840  142.3770 C   0  0  1  0  0  3  0  0  0  0  0  0
  186.4920  176.8030  144.2250 N   0  0  0  0  0  0  0  0  0  0  0  0
  190.4240  175.6110  146.4750 C   0  0  0  0  0  3  0  0  0  0  0  0
  189.8850  175.5520  145.2520 C   0  0  0  0  0  0  0  0  0  0  0  0
  190.3470  174.7230  142.9000 C   0  0  0  0  0  3  0  0  0  0  0  0
  188.4860  176.0410  145.0920 C   0  0  0  0  0  0  0  0  0  0  0  0
  187.8110  176.3080  143.9650 C   0  0  0  0  0  0  0  0  0  0  0  0
  188.3200  176.1600  142.5700 C   0  0  1  0  0  3  0  0  0  0  0  0
  189.2070  177.1950  142.2520 O   0  0  0  0  0  0  0  0  0  0  0  0
  188.4020  178.2140  141.7370 C   0  0  0  0  0  2  0  0  0  0  0  0
  187.5420  177.6850  140.7760 O   0  0  0  0  0  1  0  0  0  0  0  0
  188.9200  174.4120  140.9010 C   0  0  0  0  0  2  0  0  0  0  0  0
  188.1860  172.5290  139.4400 O   0  0  0  0  0  0  0  0  0  0  0  0
  187.5530  172.6060  141.6420 O   0  0  0  0  0  1  0  0  0  0  0  0
  188.1900  173.1310  140.6920 C   0  0  0  0  0  0  0  0  0  0  0  0
  191.8210  175.1790  146.7960 C   0  0  0  0  0  2  0  0  0  0  0  0
  194.1110  176.1020  146.4380 C   0  0  0  0  0  1  0  0  0  0  0  0
  192.7220  176.3880  146.9770 C   0  0  0  0  0  2  0  0  0  0  0  0
  185.0900  177.2740  146.1810 C   0  0  0  0  0  2  0  0  0  0  0  0
  185.7050  179.2140  147.4790 N   0  0  0  0  0  2  0  0  0  0  0  0
  185.1000  178.7440  146.4520 C   0  0  0  0  0  3  0  0  0  0  0  0
  1  8  1  0  0  0  0
  2  3  2  0  0  0  0
  4  2  1  0  0  0  0
  4 23  1  0  0  0  0
  5 16  1  6  0  0  0
  5 12  1  0  0  0  0
  5  9  1  0  0  0  0
  6  4  2  0  0  0  0
  7 20  1  0  0  0  0
  8  7  2  0  0  0  0
  9  1  2  0  0  0  0
 10  8  1  0  0  0  0
 10  2  1  0  0  0  0
 11  6  1  0  0  0  0
 11 10  2  0  0  0  0
 12 13  1  1  0  0  0
 12 11  1  0  0  0  0
 14 13  1  0  0  0  0
 15 14  1  0  0  0  0
 17 19  2  0  0  0  0
 19 16  1  0  0  0  0
 19 18  1  0  0  0  0
 20 22  1  0  0  0  0
 21 22  1  0  0  0  0
 23 25  1  0  0  0  0
 25 24  2  0  0  0  0
M  END
>  <MODEL>
2

>  <REMARK>
 VINA RESULT:      -5.9      2.845      5.249
  Name = 
  8 active torsions:
  status: ('A' for Active; 'I' for Inactive)
    1  A    between atoms: O_1  and  C_6
    2  A    between atoms: O_1  and  C_25
    3  A    between atoms: C_4  and  C_19
    4  A    between atoms: C_10  and  C_20
    5  A    between atoms: C_11  and  C_12
    6  A    between atoms: C_11  and  C_24
    7  A    between atoms: C_14  and  C_19
    8  A    between atoms: C_16  and  C_20
                            x       y       z     vdW  Elec       q    Type
                         _______ _______ _______ _____ _____    ______ ____

>  <TORSDO>
F 8

$$$$
=
 OpenBabel11042417483D

 25 26  0  0  1  0  0  0  0  0999 V2000
  188.5180  176.4690  146.8720 C   0  0  0  0  0  3  0  0  0  0  0  0
  187.2990  176.0230  143.0970 C   0  0  0  0  0  0  0  0  0  0  0  0
  186.0420  176.0720  143.0250 O   0  0  0  0  0  0  0  0  0  0  0  0
  188.2170  175.7770  142.0050 C   0  0  0  0  0  0  0  0  0  0  0  0
  190.5140  175.2730  145.9140 C   0  0  1  0  0  3  0  0  0  0  0  0
  189.4340  175.7720  142.4350 N   0  0  0  0  0  0  0  0  0  0  0  0
  186.3750  176.8620  145.8110 C   0  0  0  0  0  3  0  0  0  0  0  0
  187.6530  176.4980  145.6660 C   0  0  0  0  0  0  0  0  0  0  0  0
  189.7460  175.9640  146.9970 C   0  0  0  0  0  3  0  0  0  0  0  0
  188.1270  176.1830  144.2880 C   0  0  0  0  0  0  0  0  0  0  0  0
  189.3830  176.0280  143.8440 C   0  0  0  0  0  0  0  0  0  0  0  0
  190.6300  176.1270  144.6570 C   0  0  1  0  0  3  0  0  0  0  0  0
  190.9270  177.4630  144.9510 O   0  0  0  0  0  0  0  0  0  0  0  0
  191.5920  177.9410  143.8190 C   0  0  0  0  0  2  0  0  0  0  0  0
  192.6170  177.0610  143.4770 O   0  0  0  0  0  1  0  0  0  0  0  0
  191.9030  174.9010  146.4110 C   0  0  0  0  0  2  0  0  0  0  0  0
  193.8960  174.4010  144.9970 O   0  0  0  0  0  1  0  0  0  0  0  0
  192.0450  173.0510  144.9150 O   0  0  0  0  0  0  0  0  0  0  0  0
  192.6140  174.0580  145.4090 C   0  0  0  0  0  0  0  0  0  0  0  0
  185.7520  177.2290  147.1220 C   0  0  0  0  0  2  0  0  0  0  0  0
  184.4450  178.5380  145.4490 C   0  0  0  0  0  1  0  0  0  0  0  0
  184.6990  178.3040  146.9270 C   0  0  0  0  0  2  0  0  0  0  0  0
  187.8450  175.5000  140.5870 C   0  0  0  0  0  2  0  0  0  0  0  0
  188.8320  174.0820  138.9020 N   0  0  0  0  0  2  0  0  0  0  0  0
  188.4560  174.2190  140.1200 C   0  0  0  0  0  3  0  0  0  0  0  0
  1  9  2  0  0  0  0
  2 10  1  0  0  0  0
  3  2  2  0  0  0  0
  4  6  2  0  0  0  0
  4  2  1  0  0  0  0
  5 16  1  1  0  0  0
  5  9  1  0  0  0  0
  6 11  1  0  0  0  0
  7 20  1  0  0  0  0
  8  7  2  0  0  0  0
  8  1  1  0  0  0  0
 10  8  1  0  0  0  0
 11 10  2  0  0  0  0
 11 12  1  0  0  0  0
 12 13  1  1  0  0  0
 12  5  1  0  0  0  0
 14 13  1  0  0  0  0
 15 14  1  0  0  0  0
 17 19  1  0  0  0  0
 18 19  2  0  0  0  0
 19 16  1  0  0  0  0
 21 22  1  0  0  0  0
 22 20  1  0  0  0  0
 23  4  1  0  0  0  0
 24 25  2  0  0  0  0
 25 23  1  0  0  0  0
M  END
>  <MODEL>
3

>  <REMARK>
 VINA RESULT:      -5.8      1.209      1.504
  Name = 
  8 active torsions:
  status: ('A' for Active; 'I' for Inactive)
    1  A    between atoms: O_1  and  C_6
    2  A    between atoms: O_1  and  C_25
    3  A    between atoms: C_4  and  C_19
    4  A    between atoms: C_10  and  C_20
    5  A    between atoms: C_11  and  C_12
    6  A    between atoms: C_11  and  C_24
    7  A    between atoms: C_14  and  C_19
    8  A    between atoms: C_16  and  C_20
                            x       y       z     vdW  Elec       q    Type
                         _______ _______ _______ _____ _____    ______ ____

>  <TORSDO>
F 8

$$$$
=
 OpenBabel11042417483D

 25 26  0  0  1  0  0  0  0  0999 V2000
  187.6460  177.6440  145.7250 C   0  0  0  0  0  3  0  0  0  0  0  0
  187.5880  176.1860  142.0090 C   0  0  0  0  0  0  0  0  0  0  0  0
  186.6350  176.6810  141.3490 O   0  0  0  0  0  0  0  0  0  0  0  0
  188.5220  175.1800  141.5510 C   0  0  0  0  0  0  0  0  0  0  0  0
  188.9010  175.4940  146.0860 C   0  0  1  0  0  3  0  0  0  0  0  0
  189.3580  174.8840  142.4890 N   0  0  0  0  0  0  0  0  0  0  0  0
  186.4670  178.3550  143.7300 C   0  0  0  0  0  3  0  0  0  0  0  0
  187.3390  177.5020  144.2790 C   0  0  0  0  0  0  0  0  0  0  0  0
  188.3220  176.8070  146.5110 C   0  0  0  0  0  3  0  0  0  0  0  0
  187.9700  176.4920  143.3830 C   0  0  0  0  0  0  0  0  0  0  0  0
  189.0240  175.6980  143.6200 C   0  0  0  0  0  0  0  0  0  0  0  0
  189.8220  175.6350  144.8800 C   0  0  1  0  0  3  0  0  0  0  0  0
  190.6690  176.7450  144.9870 O   0  0  0  0  0  0  0  0  0  0  0  0
  191.7370  176.4670  144.1320 C   0  0  0  0  0  2  0  0  0  0  0  0
  192.9100  176.9950  144.6680 O   0  0  0  0  0  1  0  0  0  0  0  0
  189.6620  174.8570  147.2400 C   0  0  0  0  0  2  0  0  0  0  0  0
  190.7870  176.9340  148.0420 O   0  0  0  0  0  1  0  0  0  0  0  0
  192.0270  175.1320  147.3550 O   0  0  0  0  0  0  0  0  0  0  0  0
  190.8920  175.6370  147.5550 C   0  0  0  0  0  0  0  0  0  0  0  0
  185.7650  179.4390  144.4880 C   0  0  0  0  0  2  0  0  0  0  0  0
  184.0770  178.6450  146.1440 C   0  0  0  0  0  1  0  0  0  0  0  0
  184.3080  179.0750  144.7070 C   0  0  0  0  0  2  0  0  0  0  0  0
  188.5110  174.5090  140.2180 C   0  0  0  0  0  2  0  0  0  0  0  0
  189.3790  172.2690  139.9920 N   0  0  0  0  0  2  0  0  0  0  0  0
  188.4170  173.0250  140.3730 C   0  0  0  0  0  3  0  0  0  0  0  0
  1  9  2  0  0  0  0
  2 10  1  0  0  0  0
  3  2  2  0  0  0  0
  4  2  1  0  0  0  0
  4  6  2  0  0  0  0
  5  9  1  0  0  0  0
  5 16  1  1  0  0  0
  6 11  1  0  0  0  0
  7  8  2  0  0  0  0
  7 20  1  0  0  0  0
  8  1  1  0  0  0  0
 10 11  2  0  0  0  0
 10  8  1  0  0  0  0
 11 12  1  0  0  0  0
 12 13  1  1  0  0  0
 12  5  1  0  0  0  0
 14 15  1  0  0  0  0
 14 13  1  0  0  0  0
 16 19  1  0  0  0  0
 18 19  2  0  0  0  0
 19 17  1  0  0  0  0
 20 22  1  0  0  0  0
 22 21  1  0  0  0  0
 23 25  1  0  0  0  0
 23  4  1  0  0  0  0
 24 25  2  0  0  0  0
M  END
>  <MODEL>
4

>  <REMARK>
 VINA RESULT:      -5.6      2.030      2.762
  Name = 
  8 active torsions:
  status: ('A' for Active; 'I' for Inactive)
    1  A    between atoms: O_1  and  C_6
    2  A    between atoms: O_1  and  C_25
    3  A    between atoms: C_4  and  C_19
    4  A    between atoms: C_10  and  C_20
    5  A    between atoms: C_11  and  C_12
    6  A    between atoms: C_11  and  C_24
    7  A    between atoms: C_14  and  C_19
    8  A    between atoms: C_16  and  C_20
                            x       y       z     vdW  Elec       q    Type
                         _______ _______ _______ _____ _____    ______ ____

>  <TORSDO>
F 8

$$$$
=
 OpenBabel11042417483D

 25 26  0  0  1  0  0  0  0  0999 V2000
  186.5420  176.5350  144.5730 C   0  0  0  0  0  3  0  0  0  0  0  0
  190.3530  176.8280  145.7220 C   0  0  0  0  0  0  0  0  0  0  0  0
  190.4300  177.1810  146.9290 O   0  0  0  0  0  0  0  0  0  0  0  0
  191.4600  176.6080  144.8160 C   0  0  0  0  0  0  0  0  0  0  0  0
  187.6420  176.8710  142.3350 C   0  0  1  0  0  3  0  0  0  0  0  0
  191.0240  176.2760  143.6480 N   0  0  0  0  0  0  0  0  0  0  0  0
  187.5560  176.7180  146.7660 C   0  0  0  0  0  3  0  0  0  0  0  0
  187.7400  176.6230  145.4450 C   0  0  0  0  0  0  0  0  0  0  0  0
  186.4780  176.6240  143.2440 C   0  0  0  0  0  3  0  0  0  0  0  0
  189.1440  176.5730  144.9470 C   0  0  0  0  0  0  0  0  0  0  0  0
  189.5940  176.2470  143.7260 C   0  0  0  0  0  0  0  0  0  0  0  0
  188.7630  175.8610  142.5480 C   0  0  1  0  0  3  0  0  0  0  0  0
  188.2780  174.5550  142.6890 O   0  0  0  0  0  0  0  0  0  0  0  0
  189.2470  173.7460  142.0910 C   0  0  0  0  0  2  0  0  0  0  0  0
  189.4130  174.1260  140.7610 O   0  0  0  0  0  1  0  0  0  0  0  0
  187.1890  176.8350  140.8820 C   0  0  0  0  0  2  0  0  0  0  0  0
  185.8580  178.8510  141.5020 O   0  0  0  0  0  1  0  0  0  0  0  0
  185.2190  177.5340  139.7380 O   0  0  0  0  0  0  0  0  0  0  0  0
  186.0400  177.7580  140.6640 C   0  0  0  0  0  0  0  0  0  0  0  0
  186.2120  176.7590  147.4250 C   0  0  0  0  0  2  0  0  0  0  0  0
  184.4850  178.4950  146.9530 C   0  0  0  0  0  1  0  0  0  0  0  0
  185.7860  178.1940  147.6730 C   0  0  0  0  0  2  0  0  0  0  0  0
  192.9070  176.7930  145.1310 C   0  0  0  0  0  2  0  0  0  0  0  0
  193.1690  174.6370  146.1840 N   0  0  0  0  0  2  0  0  0  0  0  0
  193.5850  175.4720  145.3050 C   0  0  0  0  0  3  0  0  0  0  0  0
  1  8  1  0  0  0  0
  2  3  2  0  0  0  0
  4 23  1  0  0  0  0
  4  2  1  0  0  0  0
  5 16  1  6  0  0  0
  5 12  1  0  0  0  0
  5  9  1  0  0  0  0
  6 11  1  0  0  0  0
  6  4  2  0  0  0  0
  7 20  1  0  0  0  0
  8  7  2  0  0  0  0
  9  1  2  0  0  0  0
 10  8  1  0  0  0  0
 10  2  1  0  0  0  0
 11 10  2  0  0  0  0
 12 13  1  1  0  0  0
 12 11  1  0  0  0  0
 14 13  1  0  0  0  0
 15 14  1  0  0  0  0
 18 19  2  0  0  0  0
 19 16  1  0  0  0  0
 19 17  1  0  0  0  0
 20 22  1  0  0  0  0
 21 22  1  0  0  0  0
 23 25  1  0  0  0  0
 25 24  2  0  0  0  0
M  END
>  <MODEL>
5

>  <REMARK>
 VINA RESULT:      -5.6      2.459      5.492
  Name = 
  8 active torsions:
  status: ('A' for Active; 'I' for Inactive)
    1  A    between atoms: O_1  and  C_6
    2  A    between atoms: O_1  and  C_25
    3  A    between atoms: C_4  and  C_19
    4  A    between atoms: C_10  and  C_20
    5  A    between atoms: C_11  and  C_12
    6  A    between atoms: C_11  and  C_24
    7  A    between atoms: C_14  and  C_19
    8  A    between atoms: C_16  and  C_20
                            x       y       z     vdW  Elec       q    Type
                         _______ _______ _______ _____ _____    ______ ____

>  <TORSDO>
F 8

$$$$
=
 OpenBabel11042417483D

 25 26  0  0  1  0  0  0  0  0999 V2000
  187.3400  177.8650  143.9310 C   0  0  0  0  0  3  0  0  0  0  0  0
  189.2750  174.4190  143.3600 C   0  0  0  0  0  0  0  0  0  0  0  0
  189.3230  174.1320  142.1340 O   0  0  0  0  0  0  0  0  0  0  0  0
  189.7780  173.6170  144.4540 C   0  0  0  0  0  0  0  0  0  0  0  0
  187.0430  176.8220  146.2010 C   0  0  1  0  0  3  0  0  0  0  0  0
  189.5440  174.1990  145.5810 N   0  0  0  0  0  0  0  0  0  0  0  0
  188.2420  176.8320  141.9320 C   0  0  0  0  0  3  0  0  0  0  0  0
  188.0810  176.7670  143.2570 C   0  0  0  0  0  0  0  0  0  0  0  0
  186.9010  177.9150  145.1880 C   0  0  0  0  0  3  0  0  0  0  0  0
  188.6930  175.6100  143.9700 C   0  0  0  0  0  0  0  0  0  0  0  0
  188.8790  175.4340  145.2860 C   0  0  0  0  0  0  0  0  0  0  0  0
  188.4920  176.3820  146.3720 C   0  0  1  0  0  3  0  0  0  0  0  0
  189.3740  177.4690  146.4200 O   0  0  0  0  0  0  0  0  0  0  0  0
  190.1890  177.2220  147.5260 C   0  0  0  0  0  2  0  0  0  0  0  0
  191.4460  176.8070  147.0920 O   0  0  0  0  0  1  0  0  0  0  0  0
  186.4830  177.2740  147.5420 C   0  0  0  0  0  2  0  0  0  0  0  0
  185.9390  179.7060  147.6460 O   0  0  0  0  0  1  0  0  0  0  0  0
  184.3550  178.1880  146.9810 O   0  0  0  0  0  0  0  0  0  0  0  0
  185.5330  178.4070  147.3630 C   0  0  0  0  0  0  0  0  0  0  0  0
  187.7090  177.9380  141.0750 C   0  0  0  0  0  2  0  0  0  0  0  0
  185.2260  178.1570  140.9820 C   0  0  0  0  0  1  0  0  0  0  0  0
  186.4430  177.4950  140.3640 C   0  0  0  0  0  2  0  0  0  0  0  0
  190.4200  172.2750  144.3390 C   0  0  0  0  0  2  0  0  0  0  0  0
  192.7180  172.9970  144.5010 N   0  0  0  0  0  2  0  0  0  0  0  0
  191.8150  172.3980  143.8160 C   0  0  0  0  0  3  0  0  0  0  0  0
  1  9  2  0  0  0  0
  2 10  1  0  0  0  0
  2  4  1  0  0  0  0
  3  2  2  0  0  0  0
  4  6  2  0  0  0  0
  5 12  1  0  0  0  0
  5 16  1  1  0  0  0
  7  8  2  0  0  0  0
  8  1  1  0  0  0  0
  8 10  1  0  0  0  0
  9  5  1  0  0  0  0
 10 11  2  0  0  0  0
 11  6  1  0  0  0  0
 11 12  1  0  0  0  0
 12 13  1  6  0  0  0
 13 14  1  0  0  0  0
 15 14  1  0  0  0  0
 18 19  2  0  0  0  0
 19 16  1  0  0  0  0
 19 17  1  0  0  0  0
 20  7  1  0  0  0  0
 22 21  1  0  0  0  0
 22 20  1  0  0  0  0
 23  4  1  0  0  0  0
 25 23  1  0  0  0  0
 25 24  2  0  0  0  0
M  END
>  <MODEL>
6

>  <REMARK>
 VINA RESULT:      -5.5      2.739      5.667
  Name = 
  8 active torsions:
  status: ('A' for Active; 'I' for Inactive)
    1  A    between atoms: O_1  and  C_6
    2  A    between atoms: O_1  and  C_25
    3  A    between atoms: C_4  and  C_19
    4  A    between atoms: C_10  and  C_20
    5  A    between atoms: C_11  and  C_12
    6  A    between atoms: C_11  and  C_24
    7  A    between atoms: C_14  and  C_19
    8  A    between atoms: C_16  and  C_20
                            x       y       z     vdW  Elec       q    Type
                         _______ _______ _______ _____ _____    ______ ____

>  <TORSDO>
F 8

$$$$
=
 OpenBabel11042417483D

 25 26  0  0  1  0  0  0  0  0999 V2000
  187.4510  175.8520  143.0290 C   0  0  0  0  0  3  0  0  0  0  0  0
  190.0610  176.5310  145.9720 C   0  0  0  0  0  0  0  0  0  0  0  0
  189.6460  177.4420  146.7360 O   0  0  0  0  0  0  0  0  0  0  0  0
  191.3290  175.8380  146.0650 C   0  0  0  0  0  0  0  0  0  0  0  0
  189.5470  174.9660  141.9570 C   0  0  1  0  0  3  0  0  0  0  0  0
  191.4420  174.9790  145.1080 N   0  0  0  0  0  0  0  0  0  0  0  0
  187.2540  177.0780  145.1100 C   0  0  0  0  0  3  0  0  0  0  0  0
  188.0190  176.3200  144.3180 C   0  0  0  0  0  0  0  0  0  0  0  0
  188.0810  175.2600  142.0140 C   0  0  0  0  0  3  0  0  0  0  0  0
  189.3820  175.9680  144.8100 C   0  0  0  0  0  0  0  0  0  0  0  0
  190.2380  175.0520  144.3350 C   0  0  0  0  0  0  0  0  0  0  0  0
  190.0190  174.1570  143.1600 C   0  0  1  0  0  3  0  0  0  0  0  0
  189.1330  173.1230  143.4830 O   0  0  0  0  0  0  0  0  0  0  0  0
  189.9480  172.0240  143.7610 C   0  0  0  0  0  2  0  0  0  0  0  0
  190.1620  171.2960  142.5920 O   0  0  0  0  0  1  0  0  0  0  0  0
  189.8830  174.2190  140.6750 C   0  0  0  0  0  2  0  0  0  0  0  0
  187.9990  172.6220  140.3300 O   0  0  0  0  0  1  0  0  0  0  0  0
  188.1880  174.4960  139.0230 O   0  0  0  0  0  0  0  0  0  0  0  0
  188.6410  173.7990  139.9670 C   0  0  0  0  0  0  0  0  0  0  0  0
  185.8580  177.5010  144.7720 C   0  0  0  0  0  2  0  0  0  0  0  0
  185.8000  177.1960  147.2470 C   0  0  0  0  0  1  0  0  0  0  0  0
  184.9670  177.4200  145.9980 C   0  0  0  0  0  2  0  0  0  0  0  0
  192.4030  176.0980  147.0670 C   0  0  0  0  0  2  0  0  0  0  0  0
  194.4760  177.0420  146.2710 N   0  0  0  0  0  2  0  0  0  0  0  0
  193.7530  175.9960  146.4350 C   0  0  0  0  0  3  0  0  0  0  0  0
  1  8  1  0  0  0  0
  2  4  1  0  0  0  0
  2  3  2  0  0  0  0
  4 23  1  0  0  0  0
  5 16  1  6  0  0  0
  5  9  1  0  0  0  0
  5 12  1  0  0  0  0
  6  4  2  0  0  0  0
  8 10  1  0  0  0  0
  8  7  2  0  0  0  0
  9  1  2  0  0  0  0
 10  2  1  0  0  0  0
 11 10  2  0  0  0  0
 11  6  1  0  0  0  0
 12 13  1  1  0  0  0
 12 11  1  0  0  0  0
 13 14  1  0  0  0  0
 15 14  1  0  0  0  0
 18 19  2  0  0  0  0
 19 17  1  0  0  0  0
 19 16  1  0  0  0  0
 20  7  1  0  0  0  0
 20 22  1  0  0  0  0
 22 21  1  0  0  0  0
 24 25  2  0  0  0  0
 25 23  1  0  0  0  0
M  END
>  <MODEL>
7

>  <REMARK>
 VINA RESULT:      -5.2      2.858      5.309
  Name = 
  8 active torsions:
  status: ('A' for Active; 'I' for Inactive)
    1  A    between atoms: O_1  and  C_6
    2  A    between atoms: O_1  and  C_25
    3  A    between atoms: C_4  and  C_19
    4  A    between atoms: C_10  and  C_20
    5  A    between atoms: C_11  and  C_12
    6  A    between atoms: C_11  and  C_24
    7  A    between atoms: C_14  and  C_19
    8  A    between atoms: C_16  and  C_20
                            x       y       z     vdW  Elec       q    Type
                         _______ _______ _______ _____ _____    ______ ____

>  <TORSDO>
F 8

$$$$
=
 OpenBabel11042417483D

 25 26  0  0  1  0  0  0  0  0999 V2000
  190.0230  173.7940  142.8650 C   0  0  0  0  0  3  0  0  0  0  0  0
  187.1620  176.5290  143.3870 C   0  0  0  0  0  0  0  0  0  0  0  0
  186.3670  176.5370  142.4100 O   0  0  0  0  0  0  0  0  0  0  0  0
  187.1260  177.4100  144.5350 C   0  0  0  0  0  0  0  0  0  0  0  0
  191.1830  175.3260  144.4880 C   0  0  1  0  0  3  0  0  0  0  0  0
  188.1010  177.1430  145.3370 N   0  0  0  0  0  0  0  0  0  0  0  0
  187.9140  174.1620  141.7270 C   0  0  0  0  0  3  0  0  0  0  0  0
  188.7460  174.5360  142.7050 C   0  0  0  0  0  0  0  0  0  0  0  0
  191.0690  174.1060  143.6300 C   0  0  0  0  0  3  0  0  0  0  0  0
  188.3090  175.6510  143.5920 C   0  0  0  0  0  0  0  0  0  0  0  0
  188.8300  176.0520  144.7610 C   0  0  0  0  0  0  0  0  0  0  0  0
  190.0120  175.4600  145.4550 C   0  0  1  0  0  3  0  0  0  0  0  0
  189.6770  174.2400  146.0530 O   0  0  0  0  0  0  0  0  0  0  0  0
  189.3260  174.5670  147.3650 C   0  0  0  0  0  2  0  0  0  0  0  0
  190.3610  175.2890  147.9560 O   0  0  0  0  0  1  0  0  0  0  0  0
  192.4900  175.2990  145.2680 C   0  0  0  0  0  2  0  0  0  0  0  0
  194.3830  176.8150  145.8510 O   0  0  0  0  0  1  0  0  0  0  0  0
  192.7090  177.5300  144.4580 O   0  0  0  0  0  0  0  0  0  0  0  0
  193.1980  176.6060  145.1570 C   0  0  0  0  0  0  0  0  0  0  0  0
  188.1960  173.0480  140.7680 C   0  0  0  0  0  2  0  0  0  0  0  0
  190.0450  173.2480  139.1060 C   0  0  0  0  0  1  0  0  0  0  0  0
  188.6020  173.6030  139.4150 C   0  0  0  0  0  2  0  0  0  0  0  0
  186.1570  178.5230  144.7610 C   0  0  0  0  0  2  0  0  0  0  0  0
  184.0090  178.6770  145.8500 N   0  0  0  0  0  2  0  0  0  0  0  0
  185.1850  178.1680  145.8400 C   0  0  0  0  0  3  0  0  0  0  0  0
  1  9  2  0  0  0  0
  2 10  1  0  0  0  0
  2  4  1  0  0  0  0
  3  2  2  0  0  0  0
  4 23  1  0  0  0  0
  4  6  2  0  0  0  0
  5 16  1  1  0  0  0
  5 12  1  0  0  0  0
  7  8  2  0  0  0  0
  8  1  1  0  0  0  0
  8 10  1  0  0  0  0
  9  5  1  0  0  0  0
 10 11  2  0  0  0  0
 11  6  1  0  0  0  0
 11 12  1  0  0  0  0
 12 13  1  6  0  0  0
 13 14  1  0  0  0  0
 14 15  1  0  0  0  0
 18 19  2  0  0  0  0
 19 16  1  0  0  0  0
 19 17  1  0  0  0  0
 20  7  1  0  0  0  0
 21 22  1  0  0  0  0
 22 20  1  0  0  0  0
 23 25  1  0  0  0  0
 25 24  2  0  0  0  0
M  END
>  <MODEL>
8

>  <REMARK>
 VINA RESULT:      -5.2      2.534      4.938
  Name = 
  8 active torsions:
  status: ('A' for Active; 'I' for Inactive)
    1  A    between atoms: O_1  and  C_6
    2  A    between atoms: O_1  and  C_25
    3  A    between atoms: C_4  and  C_19
    4  A    between atoms: C_10  and  C_20
    5  A    between atoms: C_11  and  C_12
    6  A    between atoms: C_11  and  C_24
    7  A    between atoms: C_14  and  C_19
    8  A    between atoms: C_16  and  C_20
                            x       y       z     vdW  Elec       q    Type
                         _______ _______ _______ _____ _____    ______ ____

>  <TORSDO>
F 8

$$$$
=
 OpenBabel11042417483D

 25 26  0  0  1  0  0  0  0  0999 V2000
  187.9420  177.8160  143.5540 C   0  0  0  0  0  3  0  0  0  0  0  0
  188.9190  174.5990  141.4020 C   0  0  0  0  0  0  0  0  0  0  0  0
  188.1540  174.4780  140.4070 O   0  0  0  0  0  0  0  0  0  0  0  0
  189.9780  173.6930  141.7910 C   0  0  0  0  0  0  0  0  0  0  0  0
  189.1380  176.4700  145.3100 C   0  0  1  0  0  3  0  0  0  0  0  0
  190.5480  174.1070  142.8720 N   0  0  0  0  0  0  0  0  0  0  0  0
  187.3020  177.1100  141.3250 C   0  0  0  0  0  3  0  0  0  0  0  0
  188.0310  176.8630  142.4190 C   0  0  0  0  0  0  0  0  0  0  0  0
  188.4180  177.6750  144.7910 C   0  0  0  0  0  3  0  0  0  0  0  0
  188.9130  175.6620  142.4010 C   0  0  0  0  0  0  0  0  0  0  0  0
  189.8970  175.3270  143.2480 C   0  0  0  0  0  0  0  0  0  0  0  0
  190.3380  176.1000  144.4470 C   0  0  1  0  0  3  0  0  0  0  0  0
  191.0830  177.2230  144.0670 O   0  0  0  0  0  0  0  0  0  0  0  0
  192.3560  177.0070  144.5990 C   0  0  0  0  0  2  0  0  0  0  0  0
  193.1470  176.3490  143.6590 O   0  0  0  0  0  1  0  0  0  0  0  0
  189.5920  176.7080  146.7430 C   0  0  0  0  0  2  0  0  0  0  0  0
  189.0620  174.3540  147.3750 O   0  0  0  0  0  0  0  0  0  0  0  0
  191.0470  175.3080  148.0110 O   0  0  0  0  0  1  0  0  0  0  0  0
  189.9510  175.4210  147.4040 C   0  0  0  0  0  0  0  0  0  0  0  0
  186.3850  178.2840  141.1770 C   0  0  0  0  0  2  0  0  0  0  0  0
  183.9810  178.2880  140.5100 C   0  0  0  0  0  1  0  0  0  0  0  0
  184.9740  177.9110  141.5940 C   0  0  0  0  0  2  0  0  0  0  0  0
  190.3430  172.4190  141.1050 C   0  0  0  0  0  2  0  0  0  0  0  0
  190.7760  170.1380  141.7630 N   0  0  0  0  0  2  0  0  0  0  0  0
  190.2250  171.2600  142.0420 C   0  0  0  0  0  3  0  0  0  0  0  0
  1  9  2  0  0  0  0
  2  4  1  0  0  0  0
  2 10  1  0  0  0  0
  3  2  2  0  0  0  0
  4  6  2  0  0  0  0
  5 16  1  1  0  0  0
  6 11  1  0  0  0  0
  7  8  2  0  0  0  0
  8  1  1  0  0  0  0
  9  5  1  0  0  0  0
 10  8  1  0  0  0  0
 10 11  2  0  0  0  0
 11 12  1  0  0  0  0
 12 13  1  6  0  0  0
 12  5  1  0  0  0  0
 13 14  1  0  0  0  0
 15 14  1  0  0  0  0
 16 19  1  0  0  0  0
 17 19  2  0  0  0  0
 19 18  1  0  0  0  0
 20  7  1  0  0  0  0
 20 22  1  0  0  0  0
 21 22  1  0  0  0  0
 23  4  1  0  0  0  0
 23 25  1  0  0  0  0
 24 25  2  0  0  0  0
M  END
>  <MODEL>
9

>  <REMARK>
 VINA RESULT:      -5.1      2.765      4.237
  Name = 
  8 active torsions:
  status: ('A' for Active; 'I' for Inactive)
    1  A    between atoms: O_1  and  C_6
    2  A    between atoms: O_1  and  C_25
    3  A    between atoms: C_4  and  C_19
    4  A    between atoms: C_10  and  C_20
    5  A    between atoms: C_11  and  C_12
    6  A    between atoms: C_11  and  C_24
    7  A    between atoms: C_14  and  C_19
    8  A    between atoms: C_16  and  C_20
                            x       y       z     vdW  Elec       q    Type
                         _______ _______ _______ _____ _____    ______ ____

>  <TORSDO>
F 8

$$$$
