=
 OpenBabel11042413373D

 42 46  0  0  1  0  0  0  0  0999 V2000
  188.8700  176.3530  146.5430 C   0  0  0  0  0  0  0  0  0  0  0  0
  187.4720  176.3640  146.5860 C   0  0  0  0  0  3  0  0  0  0  0  0
  189.5440  176.8880  145.4270 C   0  0  0  0  0  0  0  0  0  0  0  0
  189.5900  175.8260  147.5670 N   0  0  0  0  0  0  0  0  0  0  0  0
  191.6210  176.3280  146.4200 C   0  0  0  0  0  0  0  0  0  0  0  0
  187.4190  177.4270  144.3990 C   0  0  0  0  0  0  0  0  0  0  0  0
  190.9020  176.8740  145.3990 N   0  0  0  0  0  0  0  0  0  0  0  0
  188.8180  177.4260  144.3630 C   0  0  0  0  0  3  0  0  0  0  0  0
  186.7490  176.9010  145.5170 C   0  0  0  0  0  3  0  0  0  0  0  0
  190.9490  175.8050  147.5300 C   0  0  0  0  0  3  0  0  0  0  0  0
  182.9280  178.2550  142.4060 N   0  0  0  0  0  2  0  0  0  0  0  0
  187.0760  177.3950  141.8960 C   0  0  2  0  0  3  0  0  0  0  0  0
  188.5670  177.5800  141.6520 C   0  0  0  0  0  1  0  0  0  0  0  0
  186.5010  177.4460  139.5760 F   0  0  0  0  0  0  0  0  0  0  0  0
  186.3070  178.0970  140.7800 C   0  0  1  0  0  3  0  0  0  0  0  0
  185.1650  177.8300  143.4690 C   0  0  0  0  0  2  0  0  0  0  0  0
  184.3450  178.1480  142.2500 C   0  0  0  0  0  0  0  0  0  0  0  0
  186.6640  178.0050  143.2390 C   0  0  1  0  0  3  0  0  0  0  0  0
  184.8730  178.1830  141.0610 N   0  0  0  0  0  0  0  0  0  0  0  0
  182.0420  178.5990  141.3030 C   0  0  0  0  0  2  0  0  0  0  0  0
  180.8340  177.9050  141.4300 O   0  0  0  0  0  0  0  0  0  0  0  0
  180.1480  179.8760  140.5230 C   0  0  0  0  0  2  0  0  0  0  0  0
  177.7700  180.1700  141.1420 C   0  0  0  0  0  2  0  0  0  0  0  0
  178.6580  177.9130  140.6990 C   0  0  0  0  0  2  0  0  0  0  0  0
  177.8540  178.7710  141.5900 N   0  0  0  0  0  0  0  0  0  0  0  0
  180.0290  178.4130  140.4630 N   0  0  0  0  0  0  0  0  0  0  0  0
  178.8510  180.5600  140.1340 C   0  0  0  0  0  2  0  0  0  0  0  0
  178.4070  178.7440  142.9370 C   0  0  0  0  0  1  0  0  0  0  0  0
  193.1190  176.3220  146.3880 C   0  0  2  0  0  3  0  0  0  0  0  0
  193.6060  177.0830  145.1720 C   0  0  0  0  0  1  0  0  0  0  0  0
  193.6410  174.9620  146.3460 N   0  0  0  0  0  2  0  0  0  0  0  0
  193.0460  173.9650  145.5590 C   0  0  0  0  0  0  0  0  0  0  0  0
  192.5420  173.1160  144.8660 C   0  0  0  0  0  0  0  0  0  0  0  0
  189.8480  171.8650  141.0660 C   0  0  0  0  0  2  0  0  0  0  0  0
  189.0730  173.1130  141.1460 N   0  0  0  0  0  0  0  0  0  0  0  0
  187.7690  172.8590  141.7510 C   0  0  0  0  0  1  0  0  0  0  0  0
  190.2140  171.3010  142.4430 C   0  0  0  0  0  2  0  0  0  0  0  0
  189.7960  174.1420  141.9090 C   0  0  0  0  0  2  0  0  0  0  0  0
  192.6160  170.7720  143.9820 C   0  0  0  0  0  1  0  0  0  0  0  0
  190.8640  172.3660  143.2730 C   0  0  0  0  0  0  0  0  0  0  0  0
  190.1600  173.6880  143.3270 C   0  0  0  0  0  2  0  0  0  0  0  0
  191.9590  172.1120  144.0100 C   0  0  0  0  0  0  0  0  0  0  0  0
  1  2  1  0  0  0  0
  1  4  1  0  0  0  0
  3  1  2  0  0  0  0
  5 10  1  0  0  0  0
  6  9  1  0  0  0  0
  7  3  1  0  0  0  0
  7  5  2  0  0  0  0
  8  6  2  0  0  0  0
  8  3  1  0  0  0  0
  9  2  2  0  0  0  0
 10  4  2  0  0  0  0
 12 13  1  6  0  0  0
 12 18  1  0  0  0  0
 15 14  1  6  0  0  0
 15 19  1  0  0  0  0
 15 12  1  0  0  0  0
 17 11  1  0  0  0  0
 17 16  1  0  0  0  0
 18 16  1  0  0  0  0
 18  6  1  1  0  0  0
 19 17  2  0  0  0  0
 20 21  1  0  0  0  0
 20 11  1  0  0  0  0
 23 25  1  0  0  0  0
 24 25  1  0  0  0  0
 25 28  1  0  0  0  0
 26 22  1  0  0  0  0
 26 24  1  0  0  0  0
 26 21  1  0  0  0  0
 27 22  1  0  0  0  0
 27 23  1  0  0  0  0
 29 30  1  6  0  0  0
 29  5  1  0  0  0  0
 31 29  1  0  0  0  0
 32 31  1  0  0  0  0
 33 32  3  0  0  0  0
 34 35  1  0  0  0  0
 34 37  1  0  0  0  0
 35 36  1  0  0  0  0
 35 38  1  0  0  0  0
 37 40  1  0  0  0  0
 38 41  1  0  0  0  0
 39 42  1  0  0  0  0
 40 41  1  0  0  0  0
 40 42  2  0  0  0  0
 42 33  1  0  0  0  0
M  END
>  <MODEL>
1

>  <REMARK>
 VINA RESULT:      -9.0      0.000      0.000
  Name = 
  8 active torsions:
  status: ('A' for Active; 'I' for Inactive)
    1  A    between atoms: N_4  and  C_5
    2  A    between atoms: N_4  and  C_21
    3  A    between atoms: C_5  and  C_22
    4  A    between atoms: C_6  and  N_9
    5  A    between atoms: C_6  and  O_18
    6  A    between atoms: O_18  and  N_23
    7  A    between atoms: C_25  and  C_37
    8  A    between atoms: C_41  and  C_42
                            x       y       z     vdW  Elec       q    Type
                         _______ _______ _______ _____ _____    ______ ____

>  <TORSDO>
F 8

$$$$
=
 OpenBabel11042413373D

 42 46  0  0  1  0  0  0  0  0999 V2000
  190.6220  177.3670  143.4110 C   0  0  0  0  0  0  0  0  0  0  0  0
  189.7890  177.8070  142.3770 C   0  0  0  0  0  3  0  0  0  0  0  0
  190.0650  176.9770  144.6450 C   0  0  0  0  0  0  0  0  0  0  0  0
  191.9680  177.3140  143.2400 N   0  0  0  0  0  0  0  0  0  0  0  0
  192.2360  176.5140  145.4720 C   0  0  0  0  0  0  0  0  0  0  0  0
  187.8500  177.4850  143.8090 C   0  0  0  0  0  0  0  0  0  0  0  0
  190.8850  176.5490  145.6400 N   0  0  0  0  0  0  0  0  0  0  0  0
  188.6840  177.0330  144.8390 C   0  0  0  0  0  3  0  0  0  0  0  0
  188.4060  177.8650  142.5760 C   0  0  0  0  0  3  0  0  0  0  0  0
  192.7860  176.8940  144.2420 C   0  0  0  0  0  3  0  0  0  0  0  0
  183.3850  178.3980  141.7940 N   0  0  0  0  0  2  0  0  0  0  0  0
  185.9830  178.4990  145.1770 C   0  0  2  0  0  3  0  0  0  0  0  0
  186.6740  178.1090  146.4770 C   0  0  0  0  0  1  0  0  0  0  0  0
  184.0600  179.4190  146.2580 F   0  0  0  0  0  0  0  0  0  0  0  0
  184.4740  178.4290  145.3860 C   0  0  1  0  0  3  0  0  0  0  0  0
  185.6610  177.9290  142.7510 C   0  0  0  0  0  2  0  0  0  0  0  0
  184.2080  178.2560  142.9540 C   0  0  0  0  0  0  0  0  0  0  0  0
  186.3700  177.5410  144.0460 C   0  0  1  0  0  3  0  0  0  0  0  0
  183.7320  178.5480  144.1300 N   0  0  0  0  0  0  0  0  0  0  0  0
  181.9580  178.6740  141.8750 C   0  0  0  0  0  2  0  0  0  0  0  0
  181.2530  177.7710  141.0720 O   0  0  0  0  0  0  0  0  0  0  0  0
  180.2160  179.7930  140.9580 C   0  0  0  0  0  2  0  0  0  0  0  0
  177.7790  179.3600  140.9880 C   0  0  0  0  0  2  0  0  0  0  0  0
  179.2990  177.7730  139.8680 C   0  0  0  0  0  2  0  0  0  0  0  0
  178.1640  177.9530  140.7940 N   0  0  0  0  0  0  0  0  0  0  0  0
  180.5050  178.5420  140.2430 N   0  0  0  0  0  0  0  0  0  0  0  0
  178.8610  180.3570  140.5730 C   0  0  0  0  0  2  0  0  0  0  0  0
  178.4840  177.3720  142.0900 C   0  0  0  0  0  1  0  0  0  0  0  0
  193.1360  176.0340  146.5690 C   0  0  2  0  0  3  0  0  0  0  0  0
  194.2320  177.0500  146.8130 C   0  0  0  0  0  1  0  0  0  0  0  0
  193.7370  174.7490  146.2370 N   0  0  0  0  0  2  0  0  0  0  0  0
  193.0690  173.8010  145.4470 C   0  0  0  0  0  0  0  0  0  0  0  0
  192.5110  172.9860  144.7560 C   0  0  0  0  0  0  0  0  0  0  0  0
  189.8920  171.8200  140.8770 C   0  0  0  0  0  2  0  0  0  0  0  0
  189.2390  173.1380  140.8640 N   0  0  0  0  0  0  0  0  0  0  0  0
  187.8890  173.0380  141.4110 C   0  0  0  0  0  1  0  0  0  0  0  0
  190.1350  171.2880  142.2940 C   0  0  0  0  0  2  0  0  0  0  0  0
  190.0220  174.1270  141.6190 C   0  0  0  0  0  2  0  0  0  0  0  0
  192.3990  170.6060  143.9770 C   0  0  0  0  0  1  0  0  0  0  0  0
  190.8460  172.3240  143.1110 C   0  0  0  0  0  0  0  0  0  0  0  0
  190.2720  173.7080  143.0720 C   0  0  0  0  0  2  0  0  0  0  0  0
  191.8750  172.0030  143.9140 C   0  0  0  0  0  0  0  0  0  0  0  0
  1  3  1  0  0  0  0
  2  9  2  0  0  0  0
  2  1  1  0  0  0  0
  3  8  1  0  0  0  0
  3  7  2  0  0  0  0
  4  1  2  0  0  0  0
  4 10  1  0  0  0  0
  5  7  1  0  0  0  0
  5 29  1  0  0  0  0
  6  8  2  0  0  0  0
  9  6  1  0  0  0  0
 10  5  2  0  0  0  0
 11 20  1  0  0  0  0
 11 17  1  0  0  0  0
 12 15  1  0  0  0  0
 12 13  1  1  0  0  0
 15 14  1  1  0  0  0
 16 17  1  0  0  0  0
 16 18  1  0  0  0  0
 17 19  2  0  0  0  0
 18  6  1  6  0  0  0
 18 12  1  0  0  0  0
 19 15  1  0  0  0  0
 21 20  1  0  0  0  0
 24 26  1  0  0  0  0
 24 25  1  0  0  0  0
 25 23  1  0  0  0  0
 25 28  1  0  0  0  0
 26 22  1  0  0  0  0
 26 21  1  0  0  0  0
 27 22  1  0  0  0  0
 27 23  1  0  0  0  0
 29 30  1  6  0  0  0
 31 29  1  0  0  0  0
 32 31  1  0  0  0  0
 33 32  3  0  0  0  0
 34 37  1  0  0  0  0
 35 34  1  0  0  0  0
 35 36  1  0  0  0  0
 35 38  1  0  0  0  0
 37 40  1  0  0  0  0
 38 41  1  0  0  0  0
 40 42  2  0  0  0  0
 41 40  1  0  0  0  0
 42 39  1  0  0  0  0
 42 33  1  0  0  0  0
M  END
>  <MODEL>
2

>  <REMARK>
 VINA RESULT:      -8.8      1.559      2.396
  Name = 
  8 active torsions:
  status: ('A' for Active; 'I' for Inactive)
    1  A    between atoms: N_4  and  C_5
    2  A    between atoms: N_4  and  C_21
    3  A    between atoms: C_5  and  C_22
    4  A    between atoms: C_6  and  N_9
    5  A    between atoms: C_6  and  O_18
    6  A    between atoms: O_18  and  N_23
    7  A    between atoms: C_25  and  C_37
    8  A    between atoms: C_41  and  C_42
                            x       y       z     vdW  Elec       q    Type
                         _______ _______ _______ _____ _____    ______ ____

>  <TORSDO>
F 8

$$$$
=
 OpenBabel11042413373D

 42 46  0  0  1  0  0  0  0  0999 V2000
  187.8830  176.1960  146.6610 C   0  0  0  0  0  0  0  0  0  0  0  0
  188.6210  175.1860  147.2870 C   0  0  0  0  0  3  0  0  0  0  0  0
  188.4430  176.9110  145.5830 C   0  0  0  0  0  0  0  0  0  0  0  0
  186.6290  176.5000  147.0840 N   0  0  0  0  0  0  0  0  0  0  0  0
  186.4640  178.2030  145.4200 C   0  0  0  0  0  0  0  0  0  0  0  0
  190.4790  175.6130  145.7760 C   0  0  0  0  0  0  0  0  0  0  0  0
  187.7150  177.8880  144.9820 N   0  0  0  0  0  0  0  0  0  0  0  0
  189.7340  176.6150  145.1420 C   0  0  0  0  0  3  0  0  0  0  0  0
  189.9160  174.8950  146.8440 C   0  0  0  0  0  3  0  0  0  0  0  0
  185.9080  177.4850  146.4850 C   0  0  0  0  0  3  0  0  0  0  0  0
  193.4500  172.2800  143.5650 N   0  0  0  0  0  2  0  0  0  0  0  0
  192.9240  175.4370  146.3870 C   0  0  2  0  0  3  0  0  0  0  0  0
  192.9070  176.8250  147.0100 C   0  0  0  0  0  1  0  0  0  0  0  0
  195.2590  175.0920  146.7660 F   0  0  0  0  0  0  0  0  0  0  0  0
  194.3000  175.1920  145.7750 C   0  0  1  0  0  3  0  0  0  0  0  0
  191.9000  173.9310  144.6560 C   0  0  0  0  0  2  0  0  0  0  0  0
  193.2960  173.4520  144.3680 C   0  0  0  0  0  0  0  0  0  0  0  0
  191.8660  175.3200  145.2860 C   0  0  1  0  0  3  0  0  0  0  0  0
  194.3340  173.9880  144.9440 N   0  0  0  0  0  0  0  0  0  0  0  0
  194.7540  171.7520  143.1910 C   0  0  0  0  0  2  0  0  0  0  0  0
  194.9410  170.4940  143.7720 O   0  0  0  0  0  0  0  0  0  0  0  0
  196.8630  169.8830  144.8260 C   0  0  0  0  0  2  0  0  0  0  0  0
  196.2090  168.5650  146.8170 C   0  0  0  0  0  2  0  0  0  0  0  0
  194.7970  170.4390  146.0620 C   0  0  0  0  0  2  0  0  0  0  0  0
  194.8490  169.0360  146.5150 N   0  0  0  0  0  0  0  0  0  0  0  0
  195.6620  170.7260  144.8980 N   0  0  0  0  0  0  0  0  0  0  0  0
  197.3110  169.4290  146.2030 C   0  0  0  0  0  2  0  0  0  0  0  0
  194.2670  168.1660  145.5020 C   0  0  0  0  0  1  0  0  0  0  0  0
  185.6620  179.2750  144.7490 C   0  0  2  0  0  3  0  0  0  0  0  0
  184.2300  178.8120  144.5800 C   0  0  0  0  0  1  0  0  0  0  0  0
  186.2150  179.6110  143.4430 N   0  0  0  0  0  2  0  0  0  0  0  0
  186.5170  178.6250  142.4910 C   0  0  0  0  0  0  0  0  0  0  0  0
  186.7680  177.7890  141.6590 C   0  0  0  0  0  0  0  0  0  0  0  0
  188.2520  173.3970  140.3300 C   0  0  0  0  0  2  0  0  0  0  0  0
  189.0480  173.2430  141.5570 N   0  0  0  0  0  0  0  0  0  0  0  0
  190.4630  173.4600  141.2720 C   0  0  0  0  0  1  0  0  0  0  0  0
  188.2760  174.8270  139.7780 C   0  0  0  0  0  2  0  0  0  0  0  0
  188.5930  174.1690  142.6060 C   0  0  0  0  0  2  0  0  0  0  0  0
  186.3920  176.9850  139.3150 C   0  0  0  0  0  1  0  0  0  0  0  0
  187.9110  175.7950  140.8610 C   0  0  0  0  0  0  0  0  0  0  0  0
  188.6320  175.6360  142.1660 C   0  0  0  0  0  2  0  0  0  0  0  0
  187.0620  176.8140  140.6380 C   0  0  0  0  0  0  0  0  0  0  0  0
  1  4  1  0  0  0  0
  1  2  2  0  0  0  0
  3  1  1  0  0  0  0
  5 10  1  0  0  0  0
  6  9  2  0  0  0  0
  7  5  2  0  0  0  0
  7  3  1  0  0  0  0
  8  3  2  0  0  0  0
  8  6  1  0  0  0  0
  9  2  1  0  0  0  0
 10  4  2  0  0  0  0
 11 17  1  0  0  0  0
 12 13  1  6  0  0  0
 15 12  1  0  0  0  0
 15 14  1  1  0  0  0
 16 18  1  0  0  0  0
 17 16  1  0  0  0  0
 17 19  2  0  0  0  0
 18  6  1  1  0  0  0
 18 12  1  0  0  0  0
 19 15  1  0  0  0  0
 20 11  1  0  0  0  0
 20 21  1  0  0  0  0
 21 26  1  0  0  0  0
 22 26  1  0  0  0  0
 22 27  1  0  0  0  0
 24 25  1  0  0  0  0
 25 23  1  0  0  0  0
 26 24  1  0  0  0  0
 27 23  1  0  0  0  0
 28 25  1  0  0  0  0
 29 30  1  6  0  0  0
 29  5  1  0  0  0  0
 31 29  1  0  0  0  0
 32 31  1  0  0  0  0
 33 32  3  0  0  0  0
 34 35  1  0  0  0  0
 35 38  1  0  0  0  0
 36 35  1  0  0  0  0
 37 34  1  0  0  0  0
 37 40  1  0  0  0  0
 39 42  1  0  0  0  0
 40 41  1  0  0  0  0
 41 38  1  0  0  0  0
 42 40  2  0  0  0  0
 42 33  1  0  0  0  0
M  END
>  <MODEL>
3

>  <REMARK>
 VINA RESULT:      -8.6      4.548     10.767
  Name = 
  8 active torsions:
  status: ('A' for Active; 'I' for Inactive)
    1  A    between atoms: N_4  and  C_5
    2  A    between atoms: N_4  and  C_21
    3  A    between atoms: C_5  and  C_22
    4  A    between atoms: C_6  and  N_9
    5  A    between atoms: C_6  and  O_18
    6  A    between atoms: O_18  and  N_23
    7  A    between atoms: C_25  and  C_37
    8  A    between atoms: C_41  and  C_42
                            x       y       z     vdW  Elec       q    Type
                         _______ _______ _______ _____ _____    ______ ____

>  <TORSDO>
F 8

$$$$
=
 OpenBabel11042413373D

 42 46  0  0  1  0  0  0  0  0999 V2000
  195.9220  172.9570  145.7470 C   0  0  0  0  0  0  0  0  0  0  0  0
  196.3230  174.2920  145.6330 C   0  0  0  0  0  3  0  0  0  0  0  0
  194.5550  172.6240  145.6670 C   0  0  0  0  0  0  0  0  0  0  0  0
  196.8380  171.9730  145.9380 N   0  0  0  0  0  0  0  0  0  0  0  0
  195.0980  170.3410  145.9870 C   0  0  0  0  0  0  0  0  0  0  0  0
  193.9990  174.9630  145.3760 C   0  0  0  0  0  0  0  0  0  0  0  0
  194.1780  171.3240  145.7770 N   0  0  0  0  0  0  0  0  0  0  0  0
  193.6000  173.6250  145.4780 C   0  0  0  0  0  3  0  0  0  0  0  0
  195.3630  175.2930  145.4460 C   0  0  0  0  0  3  0  0  0  0  0  0
  196.4560  170.6740  146.0570 C   0  0  0  0  0  3  0  0  0  0  0  0
  189.5920  176.7290  146.8880 N   0  0  0  0  0  2  0  0  0  0  0  0
  192.4030  176.0550  143.7490 C   0  0  2  0  0  3  0  0  0  0  0  0
  193.5230  176.2820  142.7450 C   0  0  0  0  0  1  0  0  0  0  0  0
  190.7400  177.1450  142.4230 F   0  0  0  0  0  0  0  0  0  0  0  0
  191.4030  177.2020  143.6350 C   0  0  1  0  0  3  0  0  0  0  0  0
  191.8210  175.8070  146.1810 C   0  0  0  0  0  2  0  0  0  0  0  0
  190.6150  176.6580  145.8930 C   0  0  0  0  0  0  0  0  0  0  0  0
  192.9520  176.0190  145.1790 C   0  0  1  0  0  3  0  0  0  0  0  0
  190.4260  177.1990  144.7240 N   0  0  0  0  0  0  0  0  0  0  0  0
  188.4020  177.5520  146.7320 C   0  0  0  0  0  2  0  0  0  0  0  0
  187.2570  176.7840  146.9650 O   0  0  0  0  0  0  0  0  0  0  0  0
  186.9310  178.0940  145.1330 C   0  0  0  0  0  2  0  0  0  0  0  0
  184.6550  179.0500  145.3230 C   0  0  0  0  0  2  0  0  0  0  0  0
  185.1090  176.7740  146.1570 C   0  0  0  0  0  2  0  0  0  0  0  0
  184.4890  178.0870  146.4230 N   0  0  0  0  0  0  0  0  0  0  0  0
  186.5450  176.8490  145.8120 N   0  0  0  0  0  0  0  0  0  0  0  0
  185.7740  178.6850  144.3480 C   0  0  0  0  0  2  0  0  0  0  0  0
  185.0480  178.6620  147.6380 C   0  0  0  0  0  1  0  0  0  0  0  0
  194.6790  168.9070  146.1000 C   0  0  2  0  0  3  0  0  0  0  0  0
  195.6350  168.1660  147.0110 C   0  0  0  0  0  1  0  0  0  0  0  0
  194.6580  168.2580  144.7950 N   0  0  0  0  0  2  0  0  0  0  0  0
  193.6960  168.5780  143.8250 C   0  0  0  0  0  0  0  0  0  0  0  0
  192.8710  168.8730  142.9970 C   0  0  0  0  0  0  0  0  0  0  0  0
  190.8520  172.1940  140.1410 C   0  0  0  0  0  2  0  0  0  0  0  0
  191.2690  173.2850  141.0360 N   0  0  0  0  0  0  0  0  0  0  0  0
  190.1370  173.7440  141.8350 C   0  0  0  0  0  1  0  0  0  0  0  0
  190.4320  170.9300  140.8980 C   0  0  0  0  0  2  0  0  0  0  0  0
  192.3720  172.8620  141.9130 C   0  0  0  0  0  2  0  0  0  0  0  0
  191.3220  168.1790  141.1530 C   0  0  0  0  0  1  0  0  0  0  0  0
  191.5020  170.5380  141.8700 C   0  0  0  0  0  0  0  0  0  0  0  0
  192.0260  171.6290  142.7550 C   0  0  0  0  0  2  0  0  0  0  0  0
  191.8930  169.2600  142.0100 C   0  0  0  0  0  0  0  0  0  0  0  0
  1  4  1  0  0  0  0
  2  1  1  0  0  0  0
  3  1  2  0  0  0  0
  3  7  1  0  0  0  0
  4 10  2  0  0  0  0
  5 10  1  0  0  0  0
  5 29  1  0  0  0  0
  6  9  1  0  0  0  0
  6  8  2  0  0  0  0
  7  5  2  0  0  0  0
  8  3  1  0  0  0  0
  9  2  2  0  0  0  0
 12 13  1  6  0  0  0
 12 18  1  0  0  0  0
 15 14  1  6  0  0  0
 15 12  1  0  0  0  0
 15 19  1  0  0  0  0
 17 16  1  0  0  0  0
 17 11  1  0  0  0  0
 18  6  1  6  0  0  0
 18 16  1  0  0  0  0
 19 17  2  0  0  0  0
 20 11  1  0  0  0  0
 20 21  1  0  0  0  0
 22 26  1  0  0  0  0
 23 25  1  0  0  0  0
 24 25  1  0  0  0  0
 25 28  1  0  0  0  0
 26 24  1  0  0  0  0
 26 21  1  0  0  0  0
 27 22  1  0  0  0  0
 27 23  1  0  0  0  0
 29 30  1  1  0  0  0
 31 29  1  0  0  0  0
 32 31  1  0  0  0  0
 33 32  3  0  0  0  0
 34 37  1  0  0  0  0
 34 35  1  0  0  0  0
 35 36  1  0  0  0  0
 35 38  1  0  0  0  0
 37 40  1  0  0  0  0
 38 41  1  0  0  0  0
 39 42  1  0  0  0  0
 40 42  2  0  0  0  0
 40 41  1  0  0  0  0
 42 33  1  0  0  0  0
M  END
>  <MODEL>
4

>  <REMARK>
 VINA RESULT:      -8.5      4.010      6.741
  Name = 
  8 active torsions:
  status: ('A' for Active; 'I' for Inactive)
    1  A    between atoms: N_4  and  C_5
    2  A    between atoms: N_4  and  C_21
    3  A    between atoms: C_5  and  C_22
    4  A    between atoms: C_6  and  N_9
    5  A    between atoms: C_6  and  O_18
    6  A    between atoms: O_18  and  N_23
    7  A    between atoms: C_25  and  C_37
    8  A    between atoms: C_41  and  C_42
                            x       y       z     vdW  Elec       q    Type
                         _______ _______ _______ _____ _____    ______ ____

>  <TORSDO>
F 8

$$$$
=
 OpenBabel11042413373D

 42 46  0  0  1  0  0  0  0  0999 V2000
  190.7350  176.5820  143.2390 C   0  0  0  0  0  0  0  0  0  0  0  0
  190.1190  177.7310  142.7340 C   0  0  0  0  0  3  0  0  0  0  0  0
  189.9790  175.6420  143.9680 C   0  0  0  0  0  0  0  0  0  0  0  0
  192.0600  176.3610  143.0390 N   0  0  0  0  0  0  0  0  0  0  0  0
  191.9210  174.3180  144.2640 C   0  0  0  0  0  0  0  0  0  0  0  0
  188.0030  177.0150  143.6940 C   0  0  0  0  0  0  0  0  0  0  0  0
  190.5880  174.5280  144.4510 N   0  0  0  0  0  0  0  0  0  0  0  0
  188.6180  175.8580  144.1890 C   0  0  0  0  0  3  0  0  0  0  0  0
  188.7560  177.9460  142.9600 C   0  0  0  0  0  3  0  0  0  0  0  0
  192.6670  175.2490  143.5330 C   0  0  0  0  0  3  0  0  0  0  0  0
  183.6050  178.2510  141.7060 N   0  0  0  0  0  2  0  0  0  0  0  0
  186.2710  178.2720  145.0370 C   0  0  2  0  0  3  0  0  0  0  0  0
  186.9480  177.8840  146.3440 C   0  0  0  0  0  1  0  0  0  0  0  0
  184.4670  179.4270  146.0980 F   0  0  0  0  0  0  0  0  0  0  0  0
  184.7660  178.3590  145.2730 C   0  0  1  0  0  3  0  0  0  0  0  0
  185.8450  177.6130  142.6500 C   0  0  0  0  0  2  0  0  0  0  0  0
  184.4340  178.0890  142.8580 C   0  0  0  0  0  0  0  0  0  0  0  0
  186.5400  177.2250  143.9520 C   0  0  1  0  0  3  0  0  0  0  0  0
  184.0130  178.4850  144.0250 N   0  0  0  0  0  0  0  0  0  0  0  0
  182.2120  178.6670  141.7940 C   0  0  0  0  0  2  0  0  0  0  0  0
  181.3980  177.7440  141.1310 O   0  0  0  0  0  0  0  0  0  0  0  0
  180.4140  179.7840  140.9140 C   0  0  0  0  0  2  0  0  0  0  0  0
  177.9680  179.4260  141.0350 C   0  0  0  0  0  2  0  0  0  0  0  0
  179.4120  177.7280  139.9800 C   0  0  0  0  0  2  0  0  0  0  0  0
  178.3080  177.9980  140.9210 N   0  0  0  0  0  0  0  0  0  0  0  0
  180.6480  178.4820  140.2740 N   0  0  0  0  0  0  0  0  0  0  0  0
  179.0650  180.3620  140.5290 C   0  0  0  0  0  2  0  0  0  0  0  0
  178.6470  177.4920  142.2430 C   0  0  0  0  0  1  0  0  0  0  0  0
  192.5870  173.0840  144.7920 C   0  0  2  0  0  3  0  0  0  0  0  0
  193.9050  172.8700  144.0780 C   0  0  0  0  0  1  0  0  0  0  0  0
  191.7450  171.9090  144.6090 N   0  0  0  0  0  2  0  0  0  0  0  0
  191.4020  171.4350  143.3340 C   0  0  0  0  0  0  0  0  0  0  0  0
  191.1020  171.0470  142.2320 C   0  0  0  0  0  0  0  0  0  0  0  0
  190.3170  171.9860  137.5670 C   0  0  0  0  0  2  0  0  0  0  0  0
  189.9800  173.3880  137.8580 N   0  0  0  0  0  0  0  0  0  0  0  0
  188.5340  173.5810  137.8120 C   0  0  0  0  0  1  0  0  0  0  0  0
  189.8070  171.0160  138.6390 C   0  0  0  0  0  2  0  0  0  0  0  0
  190.5080  173.8020  139.1670 C   0  0  0  0  0  2  0  0  0  0  0  0
  190.9290  169.1720  140.5790 C   0  0  0  0  0  1  0  0  0  0  0  0
  190.2520  171.4770  139.9940 C   0  0  0  0  0  0  0  0  0  0  0  0
  190.0090  172.9200  140.3170 C   0  0  0  0  0  2  0  0  0  0  0  0
  190.7430  170.6170  140.9030 C   0  0  0  0  0  0  0  0  0  0  0  0
  1  3  1  0  0  0  0
  2  9  2  0  0  0  0
  2  1  1  0  0  0  0
  3  8  1  0  0  0  0
  3  7  2  0  0  0  0
  4  1  2  0  0  0  0
  4 10  1  0  0  0  0
  5  7  1  0  0  0  0
  5 29  1  0  0  0  0
  6  8  2  0  0  0  0
  9  6  1  0  0  0  0
 10  5  2  0  0  0  0
 11 20  1  0  0  0  0
 11 17  1  0  0  0  0
 12 15  1  0  0  0  0
 12 13  1  1  0  0  0
 15 14  1  1  0  0  0
 16 17  1  0  0  0  0
 16 18  1  0  0  0  0
 17 19  2  0  0  0  0
 18  6  1  6  0  0  0
 18 12  1  0  0  0  0
 19 15  1  0  0  0  0
 21 20  1  0  0  0  0
 24 26  1  0  0  0  0
 24 25  1  0  0  0  0
 25 23  1  0  0  0  0
 25 28  1  0  0  0  0
 26 22  1  0  0  0  0
 26 21  1  0  0  0  0
 27 22  1  0  0  0  0
 27 23  1  0  0  0  0
 29 30  1  6  0  0  0
 31 29  1  0  0  0  0
 32 31  1  0  0  0  0
 33 32  3  0  0  0  0
 34 35  1  0  0  0  0
 34 37  1  0  0  0  0
 35 38  1  0  0  0  0
 36 35  1  0  0  0  0
 37 40  1  0  0  0  0
 38 41  1  0  0  0  0
 39 42  1  0  0  0  0
 40 41  1  0  0  0  0
 40 42  2  0  0  0  0
 42 33  1  0  0  0  0
M  END
>  <MODEL>
5

>  <REMARK>
 VINA RESULT:      -8.3      2.188      3.233
  Name = 
  8 active torsions:
  status: ('A' for Active; 'I' for Inactive)
    1  A    between atoms: N_4  and  C_5
    2  A    between atoms: N_4  and  C_21
    3  A    between atoms: C_5  and  C_22
    4  A    between atoms: C_6  and  N_9
    5  A    between atoms: C_6  and  O_18
    6  A    between atoms: O_18  and  N_23
    7  A    between atoms: C_25  and  C_37
    8  A    between atoms: C_41  and  C_42
                            x       y       z     vdW  Elec       q    Type
                         _______ _______ _______ _____ _____    ______ ____

>  <TORSDO>
F 8

$$$$
=
 OpenBabel11042413373D

 42 46  0  0  1  0  0  0  0  0999 V2000
  188.2550  176.1050  146.4060 C   0  0  0  0  0  0  0  0  0  0  0  0
  189.0700  175.1240  146.9800 C   0  0  0  0  0  3  0  0  0  0  0  0
  188.7650  176.9360  145.3890 C   0  0  0  0  0  0  0  0  0  0  0  0
  186.9720  176.2690  146.8210 N   0  0  0  0  0  0  0  0  0  0  0  0
  186.6820  178.0580  145.2690 C   0  0  0  0  0  0  0  0  0  0  0  0
  190.9050  175.8110  145.5390 C   0  0  0  0  0  0  0  0  0  0  0  0
  187.9630  177.8830  144.8370 N   0  0  0  0  0  0  0  0  0  0  0  0
  190.0840  176.7850  144.9570 C   0  0  0  0  0  3  0  0  0  0  0  0
  190.3910  174.9770  146.5460 C   0  0  0  0  0  3  0  0  0  0  0  0
  186.1760  177.2250  146.2730 C   0  0  0  0  0  3  0  0  0  0  0  0
  194.0490  173.2280  142.6650 N   0  0  0  0  0  2  0  0  0  0  0  0
  193.3220  175.4960  146.2050 C   0  0  2  0  0  3  0  0  0  0  0  0
  193.2450  176.6640  147.1780 C   0  0  0  0  0  1  0  0  0  0  0  0
  195.6430  175.0820  146.5950 F   0  0  0  0  0  0  0  0  0  0  0  0
  194.7300  175.4390  145.6200 C   0  0  1  0  0  3  0  0  0  0  0  0
  192.4140  174.5070  144.0800 C   0  0  0  0  0  2  0  0  0  0  0  0
  193.8320  174.1370  143.7460 C   0  0  0  0  0  0  0  0  0  0  0  0
  192.3190  175.6740  145.0600 C   0  0  1  0  0  3  0  0  0  0  0  0
  194.8290  174.5060  144.4970 N   0  0  0  0  0  0  0  0  0  0  0  0
  195.3810  172.8320  142.2290 C   0  0  0  0  0  2  0  0  0  0  0  0
  195.4080  172.7090  140.8370 O   0  0  0  0  0  0  0  0  0  0  0  0
  194.8190  173.8430  138.9540 C   0  0  0  0  0  2  0  0  0  0  0  0
  196.8430  175.0250  138.1570 C   0  0  0  0  0  2  0  0  0  0  0  0
  196.4580  174.7330  140.5750 C   0  0  0  0  0  2  0  0  0  0  0  0
  197.4150  174.6390  139.4560 N   0  0  0  0  0  0  0  0  0  0  0  0
  195.2120  173.9650  140.3650 N   0  0  0  0  0  0  0  0  0  0  0  0
  195.3140  175.0170  138.1310 C   0  0  0  0  0  2  0  0  0  0  0  0
  197.9280  173.2790  139.3560 C   0  0  0  0  0  1  0  0  0  0  0  0
  185.7980  179.0990  144.6520 C   0  0  2  0  0  3  0  0  0  0  0  0
  184.3790  178.5760  144.5640 C   0  0  0  0  0  1  0  0  0  0  0  0
  186.2600  179.4630  143.3190 N   0  0  0  0  0  2  0  0  0  0  0  0
  186.5200  178.4960  142.3350 C   0  0  0  0  0  0  0  0  0  0  0  0
  186.7600  177.6760  141.4850 C   0  0  0  0  0  0  0  0  0  0  0  0
  188.2460  173.2810  140.1680 C   0  0  0  0  0  2  0  0  0  0  0  0
  188.9960  173.1080  141.4210 N   0  0  0  0  0  0  0  0  0  0  0  0
  190.4230  173.3120  141.1890 C   0  0  0  0  0  1  0  0  0  0  0  0
  188.3040  174.7150  139.6310 C   0  0  0  0  0  2  0  0  0  0  0  0
  188.5140  174.0280  142.4620 C   0  0  0  0  0  2  0  0  0  0  0  0
  186.4600  176.8970  139.1220 C   0  0  0  0  0  1  0  0  0  0  0  0
  187.9100  175.6780  140.7100 C   0  0  0  0  0  0  0  0  0  0  0  0
  188.5830  175.4990  142.0370 C   0  0  0  0  0  2  0  0  0  0  0  0
  187.0800  176.7070  140.4660 C   0  0  0  0  0  0  0  0  0  0  0  0
  1  4  1  0  0  0  0
  1  2  2  0  0  0  0
  3  1  1  0  0  0  0
  5 10  1  0  0  0  0
  6  9  2  0  0  0  0
  7  5  2  0  0  0  0
  7  3  1  0  0  0  0
  8  3  2  0  0  0  0
  8  6  1  0  0  0  0
  9  2  1  0  0  0  0
 10  4  2  0  0  0  0
 11 17  1  0  0  0  0
 12 13  1  1  0  0  0
 15 12  1  0  0  0  0
 15 14  1  1  0  0  0
 16 18  1  0  0  0  0
 17 16  1  0  0  0  0
 17 19  2  0  0  0  0
 18  6  1  1  0  0  0
 18 12  1  0  0  0  0
 19 15  1  0  0  0  0
 20 11  1  0  0  0  0
 21 20  1  0  0  0  0
 22 26  1  0  0  0  0
 23 25  1  0  0  0  0
 25 24  1  0  0  0  0
 26 24  1  0  0  0  0
 26 21  1  0  0  0  0
 27 23  1  0  0  0  0
 27 22  1  0  0  0  0
 28 25  1  0  0  0  0
 29 30  1  6  0  0  0
 29  5  1  0  0  0  0
 31 29  1  0  0  0  0
 32 31  1  0  0  0  0
 33 32  3  0  0  0  0
 34 35  1  0  0  0  0
 35 38  1  0  0  0  0
 36 35  1  0  0  0  0
 37 34  1  0  0  0  0
 37 40  1  0  0  0  0
 39 42  1  0  0  0  0
 40 41  1  0  0  0  0
 41 38  1  0  0  0  0
 42 40  2  0  0  0  0
 42 33  1  0  0  0  0
M  END
>  <MODEL>
6

>  <REMARK>
 VINA RESULT:      -8.3      4.545     10.206
  Name = 
  8 active torsions:
  status: ('A' for Active; 'I' for Inactive)
    1  A    between atoms: N_4  and  C_5
    2  A    between atoms: N_4  and  C_21
    3  A    between atoms: C_5  and  C_22
    4  A    between atoms: C_6  and  N_9
    5  A    between atoms: C_6  and  O_18
    6  A    between atoms: O_18  and  N_23
    7  A    between atoms: C_25  and  C_37
    8  A    between atoms: C_41  and  C_42
                            x       y       z     vdW  Elec       q    Type
                         _______ _______ _______ _____ _____    ______ ____

>  <TORSDO>
F 8

$$$$
=
 OpenBabel11042413373D

 42 46  0  0  1  0  0  0  0  0999 V2000
  195.4110  173.9280  145.7520 C   0  0  0  0  0  0  0  0  0  0  0  0
  195.2490  175.3170  145.7630 C   0  0  0  0  0  3  0  0  0  0  0  0
  194.2820  173.0890  145.6570 C   0  0  0  0  0  0  0  0  0  0  0  0
  196.6480  173.3750  145.8360 N   0  0  0  0  0  0  0  0  0  0  0  0
  195.6940  171.1890  145.7480 C   0  0  0  0  0  0  0  0  0  0  0  0
  192.8390  175.0330  145.6010 C   0  0  0  0  0  0  0  0  0  0  0  0
  194.4530  171.7420  145.6450 N   0  0  0  0  0  0  0  0  0  0  0  0
  193.0030  173.6430  145.5780 C   0  0  0  0  0  3  0  0  0  0  0  0
  193.9660  175.8680  145.6860 C   0  0  0  0  0  3  0  0  0  0  0  0
  196.8130  172.0250  145.8330 C   0  0  0  0  0  3  0  0  0  0  0  0
  189.5640  177.5260  142.7930 N   0  0  0  0  0  2  0  0  0  0  0  0
  191.1520  176.5990  146.6430 C   0  0  2  0  0  3  0  0  0  0  0  0
  191.3380  175.9510  148.0080 C   0  0  0  0  0  1  0  0  0  0  0  0
  189.4510  178.1060  147.3840 F   0  0  0  0  0  0  0  0  0  0  0  0
  189.7040  177.0620  146.5150 C   0  0  1  0  0  3  0  0  0  0  0  0
  191.2490  176.2540  144.1560 C   0  0  0  0  0  2  0  0  0  0  0  0
  189.9870  177.0670  144.0790 C   0  0  0  0  0  0  0  0  0  0  0  0
  191.4530  175.6010  145.5210 C   0  0  1  0  0  3  0  0  0  0  0  0
  189.3690  177.4730  145.1510 N   0  0  0  0  0  0  0  0  0  0  0  0
  188.3380  178.2860  142.5960 C   0  0  0  0  0  2  0  0  0  0  0  0
  187.2310  177.4360  142.6900 O   0  0  0  0  0  0  0  0  0  0  0  0
  186.4910  179.4240  143.5130 C   0  0  0  0  0  2  0  0  0  0  0  0
  184.7410  178.9090  145.1860 C   0  0  0  0  0  2  0  0  0  0  0  0
  184.9910  177.4880  143.1870 C   0  0  0  0  0  2  0  0  0  0  0  0
  184.8230  177.5410  144.6510 N   0  0  0  0  0  0  0  0  0  0  0  0
  186.1510  178.2560  142.6880 N   0  0  0  0  0  0  0  0  0  0  0  0
  185.2740  179.9760  144.2300 C   0  0  0  0  0  2  0  0  0  0  0  0
  185.9280  176.8500  145.3020 C   0  0  0  0  0  1  0  0  0  0  0  0
  195.8780  169.7030  145.7270 C   0  0  2  0  0  3  0  0  0  0  0  0
  197.1150  169.3300  146.5170 C   0  0  0  0  0  1  0  0  0  0  0  0
  196.0110  169.2050  144.3630 N   0  0  0  0  0  2  0  0  0  0  0  0
  194.9330  169.2120  143.4650 C   0  0  0  0  0  0  0  0  0  0  0  0
  194.0160  169.2320  142.6820 C   0  0  0  0  0  0  0  0  0  0  0  0
  190.5270  171.6270  140.3680 C   0  0  0  0  0  2  0  0  0  0  0  0
  190.3870  172.5860  141.4750 N   0  0  0  0  0  0  0  0  0  0  0  0
  189.2050  172.2710  142.2710 C   0  0  0  0  0  1  0  0  0  0  0  0
  190.8080  170.1990  140.8490 C   0  0  0  0  0  2  0  0  0  0  0  0
  191.5860  172.5950  142.3270 C   0  0  0  0  0  2  0  0  0  0  0  0
  192.9420  168.2420  140.6460 C   0  0  0  0  0  1  0  0  0  0  0  0
  191.9670  170.2010  141.7980 C   0  0  0  0  0  0  0  0  0  0  0  0
  191.9200  171.2140  142.9020 C   0  0  0  0  0  2  0  0  0  0  0  0
  192.9400  169.2760  141.7230 C   0  0  0  0  0  0  0  0  0  0  0  0
  1  2  1  0  0  0  0
  1  4  1  0  0  0  0
  3  1  2  0  0  0  0
  5 10  1  0  0  0  0
  6  9  1  0  0  0  0
  7  3  1  0  0  0  0
  7  5  2  0  0  0  0
  8  6  2  0  0  0  0
  8  3  1  0  0  0  0
  9  2  2  0  0  0  0
 10  4  2  0  0  0  0
 11 17  1  0  0  0  0
 12 13  1  1  0  0  0
 15 12  1  0  0  0  0
 15 14  1  1  0  0  0
 16 18  1  0  0  0  0
 17 16  1  0  0  0  0
 17 19  2  0  0  0  0
 18  6  1  6  0  0  0
 18 12  1  0  0  0  0
 19 15  1  0  0  0  0
 20 21  1  0  0  0  0
 20 11  1  0  0  0  0
 22 27  1  0  0  0  0
 24 25  1  0  0  0  0
 25 23  1  0  0  0  0
 25 28  1  0  0  0  0
 26 21  1  0  0  0  0
 26 24  1  0  0  0  0
 26 22  1  0  0  0  0
 27 23  1  0  0  0  0
 29  5  1  0  0  0  0
 29 30  1  1  0  0  0
 31 29  1  0  0  0  0
 32 31  1  0  0  0  0
 33 32  3  0  0  0  0
 34 37  1  0  0  0  0
 34 35  1  0  0  0  0
 35 36  1  0  0  0  0
 35 38  1  0  0  0  0
 37 40  1  0  0  0  0
 38 41  1  0  0  0  0
 39 42  1  0  0  0  0
 40 41  1  0  0  0  0
 42 40  2  0  0  0  0
 42 33  1  0  0  0  0
M  END
>  <MODEL>
7

>  <REMARK>
 VINA RESULT:      -8.2      3.670      6.214
  Name = 
  8 active torsions:
  status: ('A' for Active; 'I' for Inactive)
    1  A    between atoms: N_4  and  C_5
    2  A    between atoms: N_4  and  C_21
    3  A    between atoms: C_5  and  C_22
    4  A    between atoms: C_6  and  N_9
    5  A    between atoms: C_6  and  O_18
    6  A    between atoms: O_18  and  N_23
    7  A    between atoms: C_25  and  C_37
    8  A    between atoms: C_41  and  C_42
                            x       y       z     vdW  Elec       q    Type
                         _______ _______ _______ _____ _____    ______ ____

>  <TORSDO>
F 8

$$$$
=
 OpenBabel11042413373D

 42 46  0  0  1  0  0  0  0  0999 V2000
  186.3730  177.2980  141.9570 C   0  0  0  0  0  0  0  0  0  0  0  0
  186.9720  177.1250  140.7050 C   0  0  0  0  0  3  0  0  0  0  0  0
  186.6270  176.3740  142.9910 C   0  0  0  0  0  0  0  0  0  0  0  0
  185.5430  178.3470  142.1880 N   0  0  0  0  0  0  0  0  0  0  0  0
  185.1940  177.5980  144.4270 C   0  0  0  0  0  0  0  0  0  0  0  0
  188.0620  175.1060  141.5100 C   0  0  0  0  0  0  0  0  0  0  0  0
  186.0410  176.5550  144.2030 N   0  0  0  0  0  0  0  0  0  0  0  0
  187.4720  175.2860  142.7660 C   0  0  0  0  0  3  0  0  0  0  0  0
  187.8160  176.0320  140.4830 C   0  0  0  0  0  3  0  0  0  0  0  0
  184.9510  178.5180  143.4000 C   0  0  0  0  0  3  0  0  0  0  0  0
  192.3250  172.8800  142.8120 N   0  0  0  0  0  2  0  0  0  0  0  0
  189.4010  173.7690  139.8350 C   0  0  2  0  0  3  0  0  0  0  0  0
  188.1940  173.6410  138.9160 C   0  0  0  0  0  1  0  0  0  0  0  0
  190.8260  172.4350  138.4550 F   0  0  0  0  0  0  0  0  0  0  0  0
  190.2480  172.5060  139.7090 C   0  0  1  0  0  3  0  0  0  0  0  0
  190.1770  174.0360  142.2100 C   0  0  0  0  0  2  0  0  0  0  0  0
  191.2500  173.0360  141.8830 C   0  0  0  0  0  0  0  0  0  0  0  0
  188.9610  173.9240  141.2940 C   0  0  1  0  0  3  0  0  0  0  0  0
  191.2930  172.4320  140.7300 N   0  0  0  0  0  0  0  0  0  0  0  0
  193.3960  171.9130  142.6160 C   0  0  0  0  0  2  0  0  0  0  0  0
  194.6240  172.4870  142.9590 O   0  0  0  0  0  0  0  0  0  0  0  0
  195.2410  174.2680  144.2350 C   0  0  0  0  0  2  0  0  0  0  0  0
  196.6600  173.3910  146.0640 C   0  0  0  0  0  2  0  0  0  0  0  0
  194.7840  172.0410  145.2050 C   0  0  0  0  0  2  0  0  0  0  0  0
  196.2040  172.0700  145.6020 N   0  0  0  0  0  0  0  0  0  0  0  0
  194.4270  173.0450  144.1800 N   0  0  0  0  0  0  0  0  0  0  0  0
  195.7470  174.5410  145.6390 C   0  0  0  0  0  2  0  0  0  0  0  0
  197.0400  171.6520  144.4860 C   0  0  0  0  0  1  0  0  0  0  0  0
  184.5560  177.7970  145.7680 C   0  0  2  0  0  3  0  0  0  0  0  0
  183.6920  179.0410  145.7420 C   0  0  0  0  0  1  0  0  0  0  0  0
  185.5590  177.9310  146.8160 N   0  0  0  0  0  2  0  0  0  0  0  0
  186.8050  177.2910  146.7350 C   0  0  0  0  0  0  0  0  0  0  0  0
  187.8660  176.7230  146.6620 C   0  0  0  0  0  0  0  0  0  0  0  0
  192.4760  176.4960  145.2610 C   0  0  0  0  0  2  0  0  0  0  0  0
  192.2450  177.4730  144.1850 N   0  0  0  0  0  0  0  0  0  0  0  0
  192.1520  176.7930  142.8970 C   0  0  0  0  0  1  0  0  0  0  0  0
  191.2940  175.5410  145.4620 C   0  0  0  0  0  2  0  0  0  0  0  0
  191.0290  178.2610  144.4340 C   0  0  0  0  0  2  0  0  0  0  0  0
  189.3640  174.9140  147.5370 C   0  0  0  0  0  1  0  0  0  0  0  0
  190.0270  176.3250  145.6180 C   0  0  0  0  0  0  0  0  0  0  0  0
  189.7770  177.3930  144.5960 C   0  0  0  0  0  2  0  0  0  0  0  0
  189.1190  176.0150  146.5590 C   0  0  0  0  0  0  0  0  0  0  0  0
  1  4  2  0  0  0  0
  1  3  1  0  0  0  0
  2  1  1  0  0  0  0
  3  7  2  0  0  0  0
  4 10  1  0  0  0  0
  5 29  1  0  0  0  0
  6  8  2  0  0  0  0
  7  5  1  0  0  0  0
  8  3  1  0  0  0  0
  9  2  2  0  0  0  0
  9  6  1  0  0  0  0
 10  5  2  0  0  0  0
 12 13  1  6  0  0  0
 12 18  1  0  0  0  0
 15 14  1  6  0  0  0
 15 12  1  0  0  0  0
 15 19  1  0  0  0  0
 17 16  1  0  0  0  0
 17 11  1  0  0  0  0
 18  6  1  6  0  0  0
 18 16  1  0  0  0  0
 19 17  2  0  0  0  0
 20 11  1  0  0  0  0
 20 21  1  0  0  0  0
 21 26  1  0  0  0  0
 22 27  1  0  0  0  0
 24 25  1  0  0  0  0
 25 23  1  0  0  0  0
 26 22  1  0  0  0  0
 26 24  1  0  0  0  0
 27 23  1  0  0  0  0
 28 25  1  0  0  0  0
 29 30  1  6  0  0  0
 29 31  1  0  0  0  0
 32 31  1  0  0  0  0
 33 32  3  0  0  0  0
 34 37  1  0  0  0  0
 35 38  1  0  0  0  0
 35 34  1  0  0  0  0
 36 35  1  0  0  0  0
 37 40  1  0  0  0  0
 38 41  1  0  0  0  0
 40 42  2  0  0  0  0
 41 40  1  0  0  0  0
 42 33  1  0  0  0  0
 42 39  1  0  0  0  0
M  END
>  <MODEL>
8

>  <REMARK>
 VINA RESULT:      -8.1      4.100     10.023
  Name = 
  8 active torsions:
  status: ('A' for Active; 'I' for Inactive)
    1  A    between atoms: N_4  and  C_5
    2  A    between atoms: N_4  and  C_21
    3  A    between atoms: C_5  and  C_22
    4  A    between atoms: C_6  and  N_9
    5  A    between atoms: C_6  and  O_18
    6  A    between atoms: O_18  and  N_23
    7  A    between atoms: C_25  and  C_37
    8  A    between atoms: C_41  and  C_42
                            x       y       z     vdW  Elec       q    Type
                         _______ _______ _______ _____ _____    ______ ____

>  <TORSDO>
F 8

$$$$
=
 OpenBabel11042413373D

 42 46  0  0  1  0  0  0  0  0999 V2000
  188.7140  176.1150  146.5160 C   0  0  0  0  0  0  0  0  0  0  0  0
  189.7780  175.2880  146.8940 C   0  0  0  0  0  3  0  0  0  0  0  0
  188.8920  177.0650  145.4910 C   0  0  0  0  0  0  0  0  0  0  0  0
  187.5080  176.0150  147.1320 N   0  0  0  0  0  0  0  0  0  0  0  0
  186.6460  177.7700  145.7640 C   0  0  0  0  0  0  0  0  0  0  0  0
  191.1970  176.3670  145.2390 C   0  0  0  0  0  0  0  0  0  0  0  0
  187.8500  177.8600  145.1320 N   0  0  0  0  0  0  0  0  0  0  0  0
  190.1280  177.1850  144.8540 C   0  0  0  0  0  3  0  0  0  0  0  0
  191.0150  175.4130  146.2550 C   0  0  0  0  0  3  0  0  0  0  0  0
  186.4710  176.8190  146.7770 C   0  0  0  0  0  3  0  0  0  0  0  0
  193.8410  175.3240  141.1460 N   0  0  0  0  0  2  0  0  0  0  0  0
  193.6900  175.9770  145.3600 C   0  0  2  0  0  3  0  0  0  0  0  0
  193.7690  176.6640  146.7160 C   0  0  0  0  0  1  0  0  0  0  0  0
  196.0450  175.5960  145.2080 F   0  0  0  0  0  0  0  0  0  0  0  0
  194.9860  176.2440  144.6000 C   0  0  1  0  0  3  0  0  0  0  0  0
  192.4530  175.8390  143.1770 C   0  0  0  0  0  2  0  0  0  0  0  0
  193.7990  175.7220  142.5180 C   0  0  0  0  0  0  0  0  0  0  0  0
  192.5150  176.5210  144.5410 C   0  0  1  0  0  3  0  0  0  0  0  0
  194.9040  175.8330  143.1980 N   0  0  0  0  0  0  0  0  0  0  0  0
  195.0850  175.2180  140.3980 C   0  0  0  0  0  2  0  0  0  0  0  0
  195.0250  174.1250  139.5280 O   0  0  0  0  0  0  0  0  0  0  0  0
  196.8250  175.3230  138.8180 C   0  0  0  0  0  2  0  0  0  0  0  0
  197.0310  174.9430  136.3800 C   0  0  0  0  0  2  0  0  0  0  0  0
  196.2290  173.1300  137.8460 C   0  0  0  0  0  2  0  0  0  0  0  0
  196.0280  173.8880  136.5960 N   0  0  0  0  0  0  0  0  0  0  0  0
  196.2890  173.9760  139.0570 N   0  0  0  0  0  0  0  0  0  0  0  0
  197.7890  175.3410  137.6460 C   0  0  0  0  0  2  0  0  0  0  0  0
  194.7040  174.4940  136.5910 C   0  0  0  0  0  1  0  0  0  0  0  0
  185.4980  178.6430  145.3600 C   0  0  2  0  0  3  0  0  0  0  0  0
  184.5020  178.7350  146.4970 C   0  0  0  0  0  1  0  0  0  0  0  0
  184.8290  178.1230  144.1750 N   0  0  0  0  0  2  0  0  0  0  0  0
  185.5480  177.6240  143.0780 C   0  0  0  0  0  0  0  0  0  0  0  0
  186.1530  177.1790  142.1350 C   0  0  0  0  0  0  0  0  0  0  0  0
  188.4460  173.5290  139.9690 C   0  0  0  0  0  2  0  0  0  0  0  0
  188.8410  172.9500  141.2620 N   0  0  0  0  0  0  0  0  0  0  0  0
  190.2430  173.2450  141.5410 C   0  0  0  0  0  1  0  0  0  0  0  0
  188.4790  175.0620  139.9680 C   0  0  0  0  0  2  0  0  0  0  0  0
  187.9890  173.4480  142.3520 C   0  0  0  0  0  2  0  0  0  0  0  0
  186.6010  177.2540  139.6700 C   0  0  0  0  0  1  0  0  0  0  0  0
  187.6970  175.5890  141.1320 C   0  0  0  0  0  0  0  0  0  0  0  0
  187.9990  174.9770  142.4670 C   0  0  0  0  0  2  0  0  0  0  0  0
  186.8500  176.6240  141.0000 C   0  0  0  0  0  0  0  0  0  0  0  0
  1  2  1  0  0  0  0
  1  4  1  0  0  0  0
  3  1  2  0  0  0  0
  5 10  1  0  0  0  0
  6  9  1  0  0  0  0
  7  3  1  0  0  0  0
  7  5  2  0  0  0  0
  8  6  2  0  0  0  0
  8  3  1  0  0  0  0
  9  2  2  0  0  0  0
 10  4  2  0  0  0  0
 11 17  1  0  0  0  0
 12 13  1  1  0  0  0
 15 14  1  1  0  0  0
 15 12  1  0  0  0  0
 16 18  1  0  0  0  0
 17 16  1  0  0  0  0
 17 19  2  0  0  0  0
 18  6  1  1  0  0  0
 18 12  1  0  0  0  0
 19 15  1  0  0  0  0
 20 11  1  0  0  0  0
 21 20  1  0  0  0  0
 22 26  1  0  0  0  0
 23 25  1  0  0  0  0
 23 27  1  0  0  0  0
 24 26  1  0  0  0  0
 25 24  1  0  0  0  0
 26 21  1  0  0  0  0
 27 22  1  0  0  0  0
 28 25  1  0  0  0  0
 29  5  1  0  0  0  0
 29 30  1  1  0  0  0
 31 29  1  0  0  0  0
 32 31  1  0  0  0  0
 33 32  3  0  0  0  0
 34 35  1  0  0  0  0
 35 36  1  0  0  0  0
 35 38  1  0  0  0  0
 37 34  1  0  0  0  0
 37 40  1  0  0  0  0
 38 41  1  0  0  0  0
 39 42  1  0  0  0  0
 40 41  1  0  0  0  0
 42 40  2  0  0  0  0
 42 33  1  0  0  0  0
M  END
>  <MODEL>
9

>  <REMARK>
 VINA RESULT:      -8.1      4.754     10.148
  Name = 
  8 active torsions:
  status: ('A' for Active; 'I' for Inactive)
    1  A    between atoms: N_4  and  C_5
    2  A    between atoms: N_4  and  C_21
    3  A    between atoms: C_5  and  C_22
    4  A    between atoms: C_6  and  N_9
    5  A    between atoms: C_6  and  O_18
    6  A    between atoms: O_18  and  N_23
    7  A    between atoms: C_25  and  C_37
    8  A    between atoms: C_41  and  C_42
                            x       y       z     vdW  Elec       q    Type
                         _______ _______ _______ _____ _____    ______ ____

>  <TORSDO>
F 8

$$$$
