=
 OpenBabel11042415103D

 27 32  0  0  1  0  0  0  0  0999 V2000
  188.5740  174.6890  143.5080 O   0  0  0  0  0  0  0  0  0  0  0  0
  189.0360  176.7340  144.5630 N   0  0  0  0  0  2  0  0  0  0  0  0
  188.3230  175.9180  143.6260 C   0  0  0  0  0  0  0  0  0  0  0  0
  189.7430  176.2830  146.9920 C   0  0  0  0  0  2  0  0  0  0  0  0
  193.3090  176.4000  143.5280 C   0  0  0  0  0  2  0  0  0  0  0  0
  192.0090  175.3020  147.2900 N   0  0  0  0  0  0  0  0  0  0  0  0
  192.3140  175.6400  146.0750 C   0  0  0  0  0  0  0  0  0  0  0  0
  191.7430  176.3250  143.6470 C   0  0  0  0  0  2  0  0  0  0  0  0
  190.6140  175.2640  147.7400 C   0  0  0  0  0  2  0  0  0  0  0  0
  194.8830  176.1740  145.7210 N   0  0  0  0  0  2  0  0  0  0  0  0
  193.6610  175.4160  145.4780 C   0  0  2  0  0  3  0  0  0  0  0  0
  190.0240  176.2880  145.5040 C   0  0  0  0  0  0  0  0  0  0  0  0
  193.8270  176.7860  144.9100 C   0  0  2  0  0  3  0  0  0  0  0  0
  191.2710  176.0380  145.0850 C   0  0  0  0  0  0  0  0  0  0  0  0
  185.6620  178.0760  142.5810 C   0  0  2  0  0  3  0  0  0  0  0  0
  185.9040  178.0630  140.2030 O   0  0  0  0  0  1  0  0  0  0  0  0
  186.0490  176.9100  143.2690 O   0  0  0  0  0  0  0  0  0  0  0  0
  187.2110  175.9700  141.4680 O   0  0  0  0  0  0  0  0  0  0  0  0
  187.7070  177.2970  141.5580 C   0  0  1  0  0  3  0  0  0  0  0  0
  186.5910  178.2950  141.3950 C   0  0  2  0  0  3  0  0  0  0  0  0
  187.2980  176.5440  142.7450 C   0  0  2  0  0  0  0  0  0  0  0  0
  185.7080  179.2660  143.5300 C   0  0  0  0  0  2  0  0  0  0  0  0
  186.2880  178.5910  145.8360 O   0  0  0  0  0  0  0  0  0  0  0  0
  185.3850  178.8410  144.9220 C   0  0  0  0  0  0  0  0  0  0  0  0
  184.1300  178.6990  145.3830 N   0  0  0  0  0  0  0  0  0  0  0  0
  185.6570  178.2670  146.9380 C   0  0  0  0  0  3  0  0  0  0  0  0
  184.3020  178.3300  146.6680 C   0  0  0  0  0  3  0  0  0  0  0  0
  1  3  2  0  0  0  0
  2 12  1  0  0  0  0
  3  2  1  0  0  0  0
  4  9  1  0  0  0  0
  5  8  1  0  0  0  0
  6  9  1  0  0  0  0
  7  6  2  0  0  0  0
  8 14  1  0  0  0  0
 11 10  1  1  0  0  0
 11  7  1  0  0  0  0
 12  4  1  0  0  0  0
 13  5  1  6  0  0  0
 13 11  1  0  0  0  0
 13 10  1  0  0  0  0
 14 12  2  0  0  0  0
 14  7  1  0  0  0  0
 15 17  1  0  0  0  0
 15 22  1  1  0  0  0
 18 21  1  0  0  0  0
 19 18  1  6  0  0  0
 19 21  1  0  0  0  0
 20 16  1  6  0  0  0
 20 19  1  0  0  0  0
 20 15  1  0  0  0  0
 21 17  1  0  0  0  0
 21  3  1  1  0  0  0
 22 24  1  0  0  0  0
 23 26  1  0  0  0  0
 24 25  2  0  0  0  0
 24 23  1  0  0  0  0
 25 27  1  0  0  0  0
 27 26  2  0  0  0  0
M  END
>  <MODEL>
1

>  <REMARK>
 VINA RESULT:      -7.2      0.000      0.000
  Name = 
  4 active torsions:
  status: ('A' for Active; 'I' for Inactive)
    1  A    between atoms: C_1  and  C_3
    2  A    between atoms: C_1  and  C_6
    3  A    between atoms: C_19  and  N_21
    4  A    between atoms: C_22  and  C_27
                            x       y       z     vdW  Elec       q    Type
                         _______ _______ _______ _____ _____    ______ ____

>  <TORSDO>
F 4

$$$$
=
 OpenBabel11042415103D

 27 32  0  0  1  0  0  0  0  0999 V2000
  190.0460  177.4380  147.0800 O   0  0  0  0  0  0  0  0  0  0  0  0
  188.6330  176.5770  145.4160 N   0  0  0  0  0  2  0  0  0  0  0  0
  189.9020  176.7010  146.0690 C   0  0  0  0  0  0  0  0  0  0  0  0
  186.7510  176.7870  147.1530 C   0  0  0  0  0  2  0  0  0  0  0  0
  185.9350  178.6600  142.6190 C   0  0  0  0  0  2  0  0  0  0  0  0
  184.9870  178.4620  146.6330 N   0  0  0  0  0  0  0  0  0  0  0  0
  185.3870  178.4980  145.3990 C   0  0  0  0  0  0  0  0  0  0  0  0
  187.1150  178.1260  143.5100 C   0  0  0  0  0  2  0  0  0  0  0  0
  185.8320  177.8950  147.6880 C   0  0  0  0  0  2  0  0  0  0  0  0
  183.4620  179.0320  143.6610 N   0  0  0  0  0  2  0  0  0  0  0  0
  184.7180  179.3150  144.3470 C   0  0  2  0  0  3  0  0  0  0  0  0
  187.3950  177.1700  145.8380 C   0  0  0  0  0  0  0  0  0  0  0  0
  184.6450  178.2380  143.3150 C   0  0  2  0  0  3  0  0  0  0  0  0
  186.7070  177.9390  144.9840 C   0  0  0  0  0  0  0  0  0  0  0  0
  191.9350  174.8790  143.7500 C   0  0  2  0  0  3  0  0  0  0  0  0
  194.1420  175.3140  144.5600 O   0  0  0  0  0  1  0  0  0  0  0  0
  190.8990  174.8510  144.7020 O   0  0  0  0  0  0  0  0  0  0  0  0
  192.1480  175.8460  146.4130 O   0  0  0  0  0  0  0  0  0  0  0  0
  192.3420  176.6940  145.2920 C   0  0  1  0  0  3  0  0  0  0  0  0
  192.9600  175.9330  144.1480 C   0  0  2  0  0  3  0  0  0  0  0  0
  191.0820  175.9820  145.5120 C   0  0  2  0  0  0  0  0  0  0  0  0
  191.3550  175.1830  142.3750 C   0  0  0  0  0  2  0  0  0  0  0  0
  188.8910  175.3140  142.2440 O   0  0  0  0  0  0  0  0  0  0  0  0
  189.9880  174.6020  142.2410 C   0  0  0  0  0  0  0  0  0  0  0  0
  189.7530  173.2880  142.0780 N   0  0  0  0  0  0  0  0  0  0  0  0
  187.8840  174.4890  142.0860 C   0  0  0  0  0  3  0  0  0  0  0  0
  188.4110  173.2150  141.9810 C   0  0  0  0  0  3  0  0  0  0  0  0
  2 12  1  0  0  0  0
  2  3  1  0  0  0  0
  3  1  2  0  0  0  0
  4  9  1  0  0  0  0
  5  8  1  0  0  0  0
  6  9  1  0  0  0  0
  7  6  2  0  0  0  0
  8 14  1  0  0  0  0
 11 10  1  1  0  0  0
 11  7  1  0  0  0  0
 12  4  1  0  0  0  0
 13  5  1  6  0  0  0
 13 10  1  0  0  0  0
 13 11  1  0  0  0  0
 14  7  1  0  0  0  0
 14 12  2  0  0  0  0
 15 22  1  6  0  0  0
 15 20  1  0  0  0  0
 15 17  1  0  0  0  0
 17 21  1  0  0  0  0
 19 21  1  0  0  0  0
 19 18  1  1  0  0  0
 20 16  1  1  0  0  0
 20 19  1  0  0  0  0
 21  3  1  1  0  0  0
 21 18  1  0  0  0  0
 24 23  1  0  0  0  0
 24 22  1  0  0  0  0
 25 24  2  0  0  0  0
 26 23  1  0  0  0  0
 27 25  1  0  0  0  0
 27 26  2  0  0  0  0
M  END
>  <MODEL>
2

>  <REMARK>
 VINA RESULT:      -7.1      2.390      6.873
  Name = 
  4 active torsions:
  status: ('A' for Active; 'I' for Inactive)
    1  A    between atoms: C_1  and  C_3
    2  A    between atoms: C_1  and  C_6
    3  A    between atoms: C_19  and  N_21
    4  A    between atoms: C_22  and  C_27
                            x       y       z     vdW  Elec       q    Type
                         _______ _______ _______ _____ _____    ______ ____

>  <TORSDO>
F 4

$$$$
=
 OpenBabel11042415103D

 27 32  0  0  1  0  0  0  0  0999 V2000
  188.5340  175.3890  147.3150 O   0  0  0  0  0  0  0  0  0  0  0  0
  188.9520  175.5440  145.0110 N   0  0  0  0  0  2  0  0  0  0  0  0
  188.2730  175.9340  146.2110 C   0  0  0  0  0  0  0  0  0  0  0  0
  189.7700  173.1090  145.0760 C   0  0  0  0  0  2  0  0  0  0  0  0
  193.1920  176.7080  145.3400 C   0  0  0  0  0  2  0  0  0  0  0  0
  192.1870  172.7720  144.5980 N   0  0  0  0  0  0  0  0  0  0  0  0
  192.4020  174.0360  144.8000 C   0  0  0  0  0  0  0  0  0  0  0  0
  191.6720  176.5100  144.9880 C   0  0  0  0  0  2  0  0  0  0  0  0
  190.8340  172.2600  144.3650 C   0  0  0  0  0  2  0  0  0  0  0  0
  194.8130  174.5770  145.7510 N   0  0  0  0  0  2  0  0  0  0  0  0
  193.7580  174.6530  144.7470 C   0  0  2  0  0  3  0  0  0  0  0  0
  190.0210  174.5920  144.9070 C   0  0  0  0  0  0  0  0  0  0  0  0
  193.6460  175.4210  146.0210 C   0  0  2  0  0  3  0  0  0  0  0  0
  191.2870  175.0260  144.8380 C   0  0  0  0  0  0  0  0  0  0  0  0
  185.7070  178.0230  144.8370 C   0  0  2  0  0  3  0  0  0  0  0  0
  184.4810  178.6670  146.7850 O   0  0  0  0  0  1  0  0  0  0  0  0
  187.0840  177.7800  145.0000 O   0  0  0  0  0  0  0  0  0  0  0  0
  187.0120  177.6770  147.3370 O   0  0  0  0  0  0  0  0  0  0  0  0
  185.9710  176.8120  146.9110 C   0  0  1  0  0  3  0  0  0  0  0  0
  184.9610  177.5610  146.0820 C   0  0  2  0  0  3  0  0  0  0  0  0
  187.2060  176.9710  146.1410 C   0  0  2  0  0  0  0  0  0  0  0  0
  185.2030  177.2870  143.6030 C   0  0  0  0  0  2  0  0  0  0  0  0
  186.8800  176.0440  142.2800 O   0  0  0  0  0  0  0  0  0  0  0  0
  186.2850  177.1690  142.5830 C   0  0  0  0  0  0  0  0  0  0  0  0
  186.7360  178.2060  141.8550 N   0  0  0  0  0  0  0  0  0  0  0  0
  187.7560  176.3000  141.3390 C   0  0  0  0  0  3  0  0  0  0  0  0
  187.6760  177.6530  141.0630 C   0  0  0  0  0  3  0  0  0  0  0  0
  2  3  1  0  0  0  0
  3  1  2  0  0  0  0
  6  7  2  0  0  0  0
  7 14  1  0  0  0  0
  8  5  1  0  0  0  0
  9  6  1  0  0  0  0
  9  4  1  0  0  0  0
 10 13  1  0  0  0  0
 11  7  1  1  0  0  0
 11 10  1  0  0  0  0
 11 13  1  0  0  0  0
 12  2  1  0  0  0  0
 12  4  1  0  0  0  0
 13  5  1  6  0  0  0
 14 12  2  0  0  0  0
 14  8  1  0  0  0  0
 15 22  1  6  0  0  0
 15 17  1  0  0  0  0
 15 20  1  0  0  0  0
 17 21  1  0  0  0  0
 19 18  1  1  0  0  0
 20 16  1  1  0  0  0
 20 19  1  0  0  0  0
 21  3  1  6  0  0  0
 21 19  1  0  0  0  0
 21 18  1  0  0  0  0
 23 24  1  0  0  0  0
 24 22  1  0  0  0  0
 25 24  2  0  0  0  0
 26 23  1  0  0  0  0
 27 26  2  0  0  0  0
 27 25  1  0  0  0  0
M  END
>  <MODEL>
3

>  <REMARK>
 VINA RESULT:      -7.1      2.025      3.794
  Name = 
  4 active torsions:
  status: ('A' for Active; 'I' for Inactive)
    1  A    between atoms: C_1  and  C_3
    2  A    between atoms: C_1  and  C_6
    3  A    between atoms: C_19  and  N_21
    4  A    between atoms: C_22  and  C_27
                            x       y       z     vdW  Elec       q    Type
                         _______ _______ _______ _____ _____    ______ ____

>  <TORSDO>
F 4

$$$$
=
 OpenBabel11042415103D

 27 32  0  0  1  0  0  0  0  0999 V2000
  190.2670  177.5570  146.0110 O   0  0  0  0  0  0  0  0  0  0  0  0
  188.5190  176.1870  145.2500 N   0  0  0  0  0  2  0  0  0  0  0  0
  189.9050  176.4920  145.4430 C   0  0  0  0  0  0  0  0  0  0  0  0
  186.8380  176.7570  147.1080 C   0  0  0  0  0  2  0  0  0  0  0  0
  185.8450  178.3800  142.5140 C   0  0  0  0  0  2  0  0  0  0  0  0
  185.2450  178.5960  146.5940 N   0  0  0  0  0  0  0  0  0  0  0  0
  185.5340  178.4920  145.3320 C   0  0  0  0  0  0  0  0  0  0  0  0
  187.0290  177.7700  143.3490 C   0  0  0  0  0  2  0  0  0  0  0  0
  186.1080  178.0070  147.6210 C   0  0  0  0  0  2  0  0  0  0  0  0
  183.5370  179.1330  143.7160 N   0  0  0  0  0  2  0  0  0  0  0  0
  184.8750  179.3060  144.2730 C   0  0  2  0  0  3  0  0  0  0  0  0
  187.4030  176.9590  145.7190 C   0  0  0  0  0  0  0  0  0  0  0  0
  184.5830  178.1750  143.3440 C   0  0  2  0  0  3  0  0  0  0  0  0
  186.7360  177.7430  144.8620 C   0  0  0  0  0  0  0  0  0  0  0  0
  193.0740  175.3070  144.2670 C   0  0  2  0  0  3  0  0  0  0  0  0
  192.8970  172.9490  144.6240 O   0  0  0  0  0  1  0  0  0  0  0  0
  191.8830  176.0010  143.9830 O   0  0  0  0  0  0  0  0  0  0  0  0
  190.4570  174.2670  144.6440 O   0  0  0  0  0  0  0  0  0  0  0  0
  191.3680  174.4090  145.7220 C   0  0  1  0  0  3  0  0  0  0  0  0
  192.7830  174.1870  145.2580 C   0  0  2  0  0  3  0  0  0  0  0  0
  190.9380  175.5550  144.9200 C   0  0  2  0  0  0  0  0  0  0  0  0
  194.1050  176.2740  144.8330 C   0  0  0  0  0  2  0  0  0  0  0  0
  196.0790  176.7690  143.4310 O   0  0  0  0  0  0  0  0  0  0  0  0
  195.4580  175.9860  144.2750 C   0  0  0  0  0  0  0  0  0  0  0  0
  196.1830  174.9030  144.6060 N   0  0  0  0  0  0  0  0  0  0  0  0
  197.2430  176.2250  143.1680 C   0  0  0  0  0  3  0  0  0  0  0  0
  197.3210  175.0540  143.9000 C   0  0  0  0  0  3  0  0  0  0  0  0
  2  3  1  0  0  0  0
  2 12  1  0  0  0  0
  3  1  2  0  0  0  0
  4  9  1  0  0  0  0
  5  8  1  0  0  0  0
  6  9  1  0  0  0  0
  7  6  2  0  0  0  0
  8 14  1  0  0  0  0
 11 10  1  1  0  0  0
 11  7  1  0  0  0  0
 12  4  1  0  0  0  0
 13  5  1  6  0  0  0
 13 10  1  0  0  0  0
 13 11  1  0  0  0  0
 14  7  1  0  0  0  0
 14 12  2  0  0  0  0
 15 22  1  1  0  0  0
 15 20  1  0  0  0  0
 17 15  1  0  0  0  0
 17 21  1  0  0  0  0
 18 21  1  0  0  0  0
 19 18  1  6  0  0  0
 20 16  1  6  0  0  0
 20 19  1  0  0  0  0
 21  3  1  1  0  0  0
 21 19  1  0  0  0  0
 23 24  1  0  0  0  0
 24 25  2  0  0  0  0
 24 22  1  0  0  0  0
 26 23  1  0  0  0  0
 26 27  2  0  0  0  0
 27 25  1  0  0  0  0
M  END
>  <MODEL>
4

>  <REMARK>
 VINA RESULT:      -7.1      2.660      8.069
  Name = 
  4 active torsions:
  status: ('A' for Active; 'I' for Inactive)
    1  A    between atoms: C_1  and  C_3
    2  A    between atoms: C_1  and  C_6
    3  A    between atoms: C_19  and  N_21
    4  A    between atoms: C_22  and  C_27
                            x       y       z     vdW  Elec       q    Type
                         _______ _______ _______ _____ _____    ______ ____

>  <TORSDO>
F 4

$$$$
=
 OpenBabel11042415103D

 27 32  0  0  1  0  0  0  0  0999 V2000
  189.8680  174.9880  144.3720 O   0  0  0  0  0  0  0  0  0  0  0  0
  189.5720  177.3150  144.4370 N   0  0  0  0  0  2  0  0  0  0  0  0
  190.3730  176.1310  144.5260 C   0  0  0  0  0  0  0  0  0  0  0  0
  187.7280  177.6330  142.6750 C   0  0  0  0  0  2  0  0  0  0  0  0
  186.4280  177.9330  147.4660 C   0  0  0  0  0  2  0  0  0  0  0  0
  185.3950  177.3990  143.5040 N   0  0  0  0  0  0  0  0  0  0  0  0
  185.8170  177.5240  144.7250 C   0  0  0  0  0  0  0  0  0  0  0  0
  187.6300  177.4630  146.5680 C   0  0  0  0  0  2  0  0  0  0  0  0
  186.3180  177.0850  142.4100 C   0  0  0  0  0  2  0  0  0  0  0  0
  184.0600  178.6440  146.3590 N   0  0  0  0  0  2  0  0  0  0  0  0
  184.9080  177.5470  145.9050 C   0  0  2  0  0  3  0  0  0  0  0  0
  188.1780  177.3780  144.0980 C   0  0  0  0  0  0  0  0  0  0  0  0
  185.5080  178.7460  146.5610 C   0  0  2  0  0  3  0  0  0  0  0  0
  187.2610  177.3890  145.0740 C   0  0  0  0  0  0  0  0  0  0  0  0
  193.6320  175.2380  145.7140 C   0  0  2  0  0  3  0  0  0  0  0  0
  195.0370  176.7800  144.5470 O   0  0  0  0  0  1  0  0  0  0  0  0
  192.3290  175.6690  146.0250 O   0  0  0  0  0  0  0  0  0  0  0  0
  192.3640  177.5190  144.5910 O   0  0  0  0  0  0  0  0  0  0  0  0
  192.8060  176.4360  143.7860 C   0  0  1  0  0  3  0  0  0  0  0  0
  194.0480  175.8120  144.3660 C   0  0  2  0  0  3  0  0  0  0  0  0
  191.8210  176.2530  144.8540 C   0  0  2  0  0  0  0  0  0  0  0  0
  193.6720  173.7160  145.6860 C   0  0  0  0  0  2  0  0  0  0  0  0
  196.1220  173.6140  145.9960 O   0  0  0  0  0  0  0  0  0  0  0  0
  195.0440  173.2320  145.3590 C   0  0  0  0  0  0  0  0  0  0  0  0
  195.3040  172.3330  144.3930 N   0  0  0  0  0  0  0  0  0  0  0  0
  197.1400  172.9810  145.4650 C   0  0  0  0  0  3  0  0  0  0  0  0
  196.6400  172.1740  144.4580 C   0  0  0  0  0  3  0  0  0  0  0  0
  1  3  2  0  0  0  0
  2  3  1  0  0  0  0
  4 12  1  0  0  0  0
  6  7  2  0  0  0  0
  7 14  1  0  0  0  0
  8  5  1  0  0  0  0
  9  4  1  0  0  0  0
  9  6  1  0  0  0  0
 10 13  1  0  0  0  0
 11  7  1  6  0  0  0
 11 10  1  0  0  0  0
 11 13  1  0  0  0  0
 12  2  1  0  0  0  0
 12 14  2  0  0  0  0
 13  5  1  1  0  0  0
 14  8  1  0  0  0  0
 15 22  1  6  0  0  0
 15 17  1  0  0  0  0
 18 21  1  0  0  0  0
 19 20  1  0  0  0  0
 19 18  1  1  0  0  0
 19 21  1  0  0  0  0
 20 16  1  1  0  0  0
 20 15  1  0  0  0  0
 21  3  1  6  0  0  0
 21 17  1  0  0  0  0
 24 22  1  0  0  0  0
 24 23  1  0  0  0  0
 25 27  1  0  0  0  0
 25 24  2  0  0  0  0
 26 23  1  0  0  0  0
 27 26  2  0  0  0  0
M  END
>  <MODEL>
5

>  <REMARK>
 VINA RESULT:      -7.0      3.076      8.297
  Name = 
  4 active torsions:
  status: ('A' for Active; 'I' for Inactive)
    1  A    between atoms: C_1  and  C_3
    2  A    between atoms: C_1  and  C_6
    3  A    between atoms: C_19  and  N_21
    4  A    between atoms: C_22  and  C_27
                            x       y       z     vdW  Elec       q    Type
                         _______ _______ _______ _____ _____    ______ ____

>  <TORSDO>
F 4

$$$$
=
 OpenBabel11042415103D

 27 32  0  0  1  0  0  0  0  0999 V2000
  190.4360  177.8190  144.9460 O   0  0  0  0  0  0  0  0  0  0  0  0
  189.0090  176.3010  143.8640 N   0  0  0  0  0  2  0  0  0  0  0  0
  190.2440  176.6580  144.4960 C   0  0  0  0  0  0  0  0  0  0  0  0
  187.7360  178.1490  142.6120 C   0  0  0  0  0  2  0  0  0  0  0  0
  186.1550  176.9300  147.1670 C   0  0  0  0  0  2  0  0  0  0  0  0
  185.4720  178.6840  143.4920 N   0  0  0  0  0  0  0  0  0  0  0  0
  185.7560  178.0650  144.5970 C   0  0  0  0  0  0  0  0  0  0  0  0
  187.1090  176.3960  146.0360 C   0  0  0  0  0  2  0  0  0  0  0  0
  186.2740  178.4840  142.2820 C   0  0  0  0  0  2  0  0  0  0  0  0
  184.5210  179.0440  146.7240 N   0  0  0  0  0  2  0  0  0  0  0  0
  184.8240  177.9950  145.7570 C   0  0  2  0  0  3  0  0  0  0  0  0
  187.8480  177.1360  143.7310 C   0  0  0  0  0  0  0  0  0  0  0  0
  185.8210  178.3720  146.8010 C   0  0  2  0  0  3  0  0  0  0  0  0
  186.9280  177.1480  144.7040 C   0  0  0  0  0  0  0  0  0  0  0  0
  193.5340  175.2530  144.3230 C   0  0  2  0  0  3  0  0  0  0  0  0
  193.3450  173.3400  145.7450 O   0  0  0  0  0  1  0  0  0  0  0  0
  192.3740  175.6550  143.6350 O   0  0  0  0  0  0  0  0  0  0  0  0
  190.9030  174.3580  144.9120 O   0  0  0  0  0  0  0  0  0  0  0  0
  191.6900  175.0500  145.8690 C   0  0  1  0  0  3  0  0  0  0  0  0
  193.1490  174.7220  145.6970 C   0  0  2  0  0  3  0  0  0  0  0  0
  191.3370  175.6500  144.5810 C   0  0  2  0  0  0  0  0  0  0  0  0
  194.4870  176.4340  144.4480 C   0  0  0  0  0  2  0  0  0  0  0  0
  196.4820  174.9760  144.3660 O   0  0  0  0  0  0  0  0  0  0  0  0
  195.8530  176.0580  143.9820 C   0  0  0  0  0  0  0  0  0  0  0  0
  196.5620  176.7830  143.0990 N   0  0  0  0  0  0  0  0  0  0  0  0
  197.6390  174.9510  143.7500 C   0  0  0  0  0  3  0  0  0  0  0  0
  197.7020  176.0800  142.9520 C   0  0  0  0  0  3  0  0  0  0  0  0
  2  3  1  0  0  0  0
  3  1  2  0  0  0  0
  4 12  1  0  0  0  0
  6  7  2  0  0  0  0
  7 14  1  0  0  0  0
  8  5  1  0  0  0  0
  9  4  1  0  0  0  0
  9  6  1  0  0  0  0
 10 13  1  0  0  0  0
 11  7  1  6  0  0  0
 11 10  1  0  0  0  0
 11 13  1  0  0  0  0
 12  2  1  0  0  0  0
 12 14  2  0  0  0  0
 13  5  1  1  0  0  0
 14  8  1  0  0  0  0
 15 22  1  1  0  0  0
 15 20  1  0  0  0  0
 17 15  1  0  0  0  0
 17 21  1  0  0  0  0
 19 18  1  6  0  0  0
 20 16  1  6  0  0  0
 20 19  1  0  0  0  0
 21  3  1  6  0  0  0
 21 18  1  0  0  0  0
 21 19  1  0  0  0  0
 24 23  1  0  0  0  0
 24 22  1  0  0  0  0
 25 24  2  0  0  0  0
 26 23  1  0  0  0  0
 27 25  1  0  0  0  0
 27 26  2  0  0  0  0
M  END
>  <MODEL>
6

>  <REMARK>
 VINA RESULT:      -7.0      2.839      8.287
  Name = 
  4 active torsions:
  status: ('A' for Active; 'I' for Inactive)
    1  A    between atoms: C_1  and  C_3
    2  A    between atoms: C_1  and  C_6
    3  A    between atoms: C_19  and  N_21
    4  A    between atoms: C_22  and  C_27
                            x       y       z     vdW  Elec       q    Type
                         _______ _______ _______ _____ _____    ______ ____

>  <TORSDO>
F 4

$$$$
=
 OpenBabel11042415103D

 27 32  0  0  1  0  0  0  0  0999 V2000
  190.1050  177.3600  147.0080 O   0  0  0  0  0  0  0  0  0  0  0  0
  189.9730  176.3180  144.9080 N   0  0  0  0  0  2  0  0  0  0  0  0
  189.4080  177.0420  146.0080 C   0  0  0  0  0  0  0  0  0  0  0  0
  192.4030  176.9600  144.3710 C   0  0  0  0  0  2  0  0  0  0  0  0
  191.2340  172.1270  144.3700 C   0  0  0  0  0  2  0  0  0  0  0  0
  194.0690  175.1240  144.5540 N   0  0  0  0  0  0  0  0  0  0  0  0
  193.1070  174.2520  144.5410 C   0  0  0  0  0  0  0  0  0  0  0  0
  190.6460  173.5110  144.8290 C   0  0  0  0  0  2  0  0  0  0  0  0
  193.8060  176.5390  144.8290 C   0  0  0  0  0  2  0  0  0  0  0  0
  193.7790  171.9280  143.4650 N   0  0  0  0  0  2  0  0  0  0  0  0
  193.3390  172.7800  144.5640 C   0  0  2  0  0  3  0  0  0  0  0  0
  191.3500  175.9420  144.7530 C   0  0  0  0  0  0  0  0  0  0  0  0
  192.4070  172.4420  143.4480 C   0  0  2  0  0  3  0  0  0  0  0  0
  191.6870  174.6460  144.7710 C   0  0  0  0  0  0  0  0  0  0  0  0
  186.0720  177.4480  144.7660 C   0  0  2  0  0  3  0  0  0  0  0  0
  184.7830  177.4840  146.7790 O   0  0  0  0  0  1  0  0  0  0  0  0
  187.3850  177.9510  144.8390 O   0  0  0  0  0  0  0  0  0  0  0  0
  187.4870  177.9570  147.1770 O   0  0  0  0  0  0  0  0  0  0  0  0
  187.0180  176.6600  146.8450 C   0  0  1  0  0  3  0  0  0  0  0  0
  185.7290  176.7410  146.0700 C   0  0  2  0  0  3  0  0  0  0  0  0
  187.9580  177.3830  145.9870 C   0  0  2  0  0  0  0  0  0  0  0  0
  185.9590  176.4910  143.5870 C   0  0  0  0  0  2  0  0  0  0  0  0
  184.4130  177.8160  142.1850 O   0  0  0  0  0  0  0  0  0  0  0  0
  185.5700  177.2260  142.3490 C   0  0  0  0  0  0  0  0  0  0  0  0
  186.3840  177.3780  141.2890 N   0  0  0  0  0  0  0  0  0  0  0  0
  184.4200  178.3760  141.0000 C   0  0  0  0  0  3  0  0  0  0  0  0
  185.6500  178.1090  140.4270 C   0  0  0  0  0  3  0  0  0  0  0  0
  2  3  1  0  0  0  0
  3  1  2  0  0  0  0
  4 12  1  0  0  0  0
  4  9  1  0  0  0  0
  5  8  1  0  0  0  0
  6  9  1  0  0  0  0
  7  6  2  0  0  0  0
  7 11  1  0  0  0  0
  7 14  1  0  0  0  0
 11 10  1  6  0  0  0
 12 14  2  0  0  0  0
 12  2  1  0  0  0  0
 13 10  1  0  0  0  0
 13  5  1  1  0  0  0
 13 11  1  0  0  0  0
 14  8  1  0  0  0  0
 15 22  1  6  0  0  0
 15 17  1  0  0  0  0
 15 20  1  0  0  0  0
 17 21  1  0  0  0  0
 19 18  1  1  0  0  0
 20 16  1  1  0  0  0
 20 19  1  0  0  0  0
 21  3  1  6  0  0  0
 21 19  1  0  0  0  0
 21 18  1  0  0  0  0
 23 24  1  0  0  0  0
 24 22  1  0  0  0  0
 25 24  2  0  0  0  0
 26 23  1  0  0  0  0
 27 26  2  0  0  0  0
 27 25  1  0  0  0  0
M  END
>  <MODEL>
7

>  <REMARK>
 VINA RESULT:      -6.9      2.410      4.169
  Name = 
  4 active torsions:
  status: ('A' for Active; 'I' for Inactive)
    1  A    between atoms: C_1  and  C_3
    2  A    between atoms: C_1  and  C_6
    3  A    between atoms: C_19  and  N_21
    4  A    between atoms: C_22  and  C_27
                            x       y       z     vdW  Elec       q    Type
                         _______ _______ _______ _____ _____    ______ ____

>  <TORSDO>
F 4

$$$$
=
 OpenBabel11042415103D

 27 32  0  0  1  0  0  0  0  0999 V2000
  189.8810  175.2390  143.7450 O   0  0  0  0  0  0  0  0  0  0  0  0
  189.5080  177.5380  143.4570 N   0  0  0  0  0  2  0  0  0  0  0  0
  190.3590  176.3940  143.5880 C   0  0  0  0  0  0  0  0  0  0  0  0
  187.3320  177.8490  142.1250 C   0  0  0  0  0  2  0  0  0  0  0  0
  187.0120  177.7490  147.0870 C   0  0  0  0  0  2  0  0  0  0  0  0
  185.2290  177.4090  143.3770 N   0  0  0  0  0  0  0  0  0  0  0  0
  185.8820  177.4820  144.4970 C   0  0  0  0  0  0  0  0  0  0  0  0
  188.0310  177.4180  145.9350 C   0  0  0  0  0  2  0  0  0  0  0  0
  185.9280  177.2280  142.1020 C   0  0  0  0  0  2  0  0  0  0  0  0
  184.4360  178.3740  146.5270 N   0  0  0  0  0  2  0  0  0  0  0  0
  185.2300  177.3670  145.8320 C   0  0  2  0  0  3  0  0  0  0  0  0
  188.0730  177.5320  143.4060 C   0  0  0  0  0  0  0  0  0  0  0  0
  185.8880  178.5570  146.4470 C   0  0  2  0  0  3  0  0  0  0  0  0
  187.3720  177.4190  144.5420 C   0  0  0  0  0  0  0  0  0  0  0  0
  193.7340  176.4820  144.7860 C   0  0  2  0  0  3  0  0  0  0  0  0
  194.9950  176.3190  142.7610 O   0  0  0  0  0  1  0  0  0  0  0  0
  192.4810  177.1190  144.7090 O   0  0  0  0  0  0  0  0  0  0  0  0
  192.3510  177.0640  142.3730 O   0  0  0  0  0  0  0  0  0  0  0  0
  192.6850  175.7350  142.7420 C   0  0  1  0  0  3  0  0  0  0  0  0
  193.9850  175.7030  143.5010 C   0  0  2  0  0  3  0  0  0  0  0  0
  191.8370  176.5800  143.5840 C   0  0  2  0  0  0  0  0  0  0  0  0
  193.7610  175.5540  145.9930 C   0  0  0  0  0  2  0  0  0  0  0  0
  192.3330  176.7420  147.6240 O   0  0  0  0  0  0  0  0  0  0  0  0
  192.5310  175.7300  146.8180 C   0  0  0  0  0  0  0  0  0  0  0  0
  191.4920  174.8770  146.7930 N   0  0  0  0  0  0  0  0  0  0  0  0
  191.1500  176.5890  148.1680 C   0  0  0  0  0  3  0  0  0  0  0  0
  190.6110  175.4220  147.6550 C   0  0  0  0  0  3  0  0  0  0  0  0
  2  3  1  0  0  0  0
  3  1  2  0  0  0  0
  4 12  1  0  0  0  0
  6  7  2  0  0  0  0
  7 14  1  0  0  0  0
  8  5  1  0  0  0  0
  9  4  1  0  0  0  0
  9  6  1  0  0  0  0
 11  7  1  6  0  0  0
 11 13  1  0  0  0  0
 11 10  1  0  0  0  0
 12  2  1  0  0  0  0
 12 14  2  0  0  0  0
 13 10  1  0  0  0  0
 13  5  1  1  0  0  0
 14  8  1  0  0  0  0
 15 22  1  1  0  0  0
 17 15  1  0  0  0  0
 18 21  1  0  0  0  0
 19 18  1  6  0  0  0
 19 20  1  0  0  0  0
 19 21  1  0  0  0  0
 20 16  1  6  0  0  0
 20 15  1  0  0  0  0
 21  3  1  1  0  0  0
 21 17  1  0  0  0  0
 22 24  1  0  0  0  0
 23 26  1  0  0  0  0
 24 23  1  0  0  0  0
 25 24  2  0  0  0  0
 25 27  1  0  0  0  0
 27 26  2  0  0  0  0
M  END
>  <MODEL>
8

>  <REMARK>
 VINA RESULT:      -6.9      2.469      6.858
  Name = 
  4 active torsions:
  status: ('A' for Active; 'I' for Inactive)
    1  A    between atoms: C_1  and  C_3
    2  A    between atoms: C_1  and  C_6
    3  A    between atoms: C_19  and  N_21
    4  A    between atoms: C_22  and  C_27
                            x       y       z     vdW  Elec       q    Type
                         _______ _______ _______ _____ _____    ______ ____

>  <TORSDO>
F 4

$$$$
=
 OpenBabel11042415103D

 27 32  0  0  1  0  0  0  0  0999 V2000
  189.1520  174.8770  145.0730 O   0  0  0  0  0  0  0  0  0  0  0  0
  189.0670  177.1710  145.5650 N   0  0  0  0  0  2  0  0  0  0  0  0
  189.7680  175.9620  145.2500 C   0  0  0  0  0  0  0  0  0  0  0  0
  186.8440  176.7450  146.7820 C   0  0  0  0  0  2  0  0  0  0  0  0
  186.6370  178.3480  142.0790 C   0  0  0  0  0  2  0  0  0  0  0  0
  184.8350  177.7880  145.7520 N   0  0  0  0  0  0  0  0  0  0  0  0
  185.4960  177.9710  144.6500 C   0  0  0  0  0  0  0  0  0  0  0  0
  187.6650  178.1970  143.2590 C   0  0  0  0  0  2  0  0  0  0  0  0
  185.5240  177.4960  147.0120 C   0  0  0  0  0  2  0  0  0  0  0  0
  183.9940  177.9030  142.4710 N   0  0  0  0  0  2  0  0  0  0  0  0
  184.8890  178.5550  143.4200 C   0  0  2  0  0  3  0  0  0  0  0  0
  187.6420  177.3360  145.6400 C   0  0  0  0  0  0  0  0  0  0  0  0
  185.4110  177.5290  142.4690 C   0  0  2  0  0  3  0  0  0  0  0  0
  186.9840  177.8640  144.6000 C   0  0  0  0  0  0  0  0  0  0  0  0
  193.1510  174.8020  145.4430 C   0  0  2  0  0  3  0  0  0  0  0  0
  194.3020  176.3580  144.0400 O   0  0  0  0  0  1  0  0  0  0  0  0
  192.0150  175.2750  146.1250 O   0  0  0  0  0  0  0  0  0  0  0  0
  191.8000  177.2320  144.8590 O   0  0  0  0  0  0  0  0  0  0  0  0
  191.9290  176.1980  143.8960 C   0  0  1  0  0  3  0  0  0  0  0  0
  193.2320  175.4630  144.0730 C   0  0  2  0  0  3  0  0  0  0  0  0
  191.2560  175.9790  145.1770 C   0  0  2  0  0  0  0  0  0  0  0  0
  193.0700  173.2870  145.3060 C   0  0  0  0  0  2  0  0  0  0  0  0
  195.5100  173.3560  145.6950 O   0  0  0  0  0  0  0  0  0  0  0  0
  194.4120  172.6690  145.5100 C   0  0  0  0  0  0  0  0  0  0  0  0
  194.6190  171.3410  145.5490 N   0  0  0  0  0  0  0  0  0  0  0  0
  196.4890  172.5000  145.8590 C   0  0  0  0  0  3  0  0  0  0  0  0
  195.9440  171.2320  145.7690 C   0  0  0  0  0  3  0  0  0  0  0  0
  1  3  2  0  0  0  0
  2 12  1  0  0  0  0
  3  2  1  0  0  0  0
  4  9  1  0  0  0  0
  5  8  1  0  0  0  0
  6  9  1  0  0  0  0
  7  6  2  0  0  0  0
  8 14  1  0  0  0  0
 11 10  1  1  0  0  0
 11  7  1  0  0  0  0
 12  4  1  0  0  0  0
 13  5  1  6  0  0  0
 13 10  1  0  0  0  0
 13 11  1  0  0  0  0
 14  7  1  0  0  0  0
 14 12  2  0  0  0  0
 15 22  1  6  0  0  0
 15 17  1  0  0  0  0
 18 21  1  0  0  0  0
 19 20  1  0  0  0  0
 19 18  1  1  0  0  0
 19 21  1  0  0  0  0
 20 16  1  1  0  0  0
 20 15  1  0  0  0  0
 21  3  1  1  0  0  0
 21 17  1  0  0  0  0
 22 24  1  0  0  0  0
 23 26  1  0  0  0  0
 24 25  2  0  0  0  0
 24 23  1  0  0  0  0
 25 27  1  0  0  0  0
 27 26  2  0  0  0  0
M  END
>  <MODEL>
9

>  <REMARK>
 VINA RESULT:      -6.9      2.991      8.028
  Name = 
  4 active torsions:
  status: ('A' for Active; 'I' for Inactive)
    1  A    between atoms: C_1  and  C_3
    2  A    between atoms: C_1  and  C_6
    3  A    between atoms: C_19  and  N_21
    4  A    between atoms: C_22  and  C_27
                            x       y       z     vdW  Elec       q    Type
                         _______ _______ _______ _____ _____    ______ ____

>  <TORSDO>
F 4

$$$$
