=
 OpenBabel11042414293D

 52 56  0  0  1  0  0  0  0  0999 V2000
  184.4980  177.8300  142.6930 N   0  0  0  0  0  2  0  0  0  0  0  0
  185.9480  177.1870  144.6820 C   0  0  0  0  0  0  0  0  0  0  0  0
  184.0400  178.3910  144.9860 N   0  0  0  0  0  0  0  0  0  0  0  0
  183.3530  178.4260  142.0770 C   0  0  0  0  0  0  0  0  0  0  0  0
  185.8730  177.3990  145.9900 C   0  0  0  0  0  0  0  0  0  0  0  0
  183.2200  178.3520  140.8260 O   0  0  0  0  0  0  0  0  0  0  0  0
  182.3650  179.1030  142.8570 N   0  0  0  0  0  2  0  0  0  0  0  0
  184.6320  178.1690  146.3030 C   0  0  0  0  0  2  0  0  0  0  0  0
  184.7890  177.8290  144.0970 C   0  0  0  0  0  0  0  0  0  0  0  0
  181.2620  179.6430  142.2830 O   0  0  0  0  0  0  0  0  0  0  0  0
  177.9670  177.5450  140.1820 C   0  0  0  0  0  2  0  0  0  0  0  0
  179.3350  178.2970  142.7780 C   0  0  1  0  0  3  0  0  0  0  0  0
  180.5150  178.5510  141.8320 C   0  0  1  0  0  3  0  0  0  0  0  0
  180.1070  178.7760  140.3770 C   0  0  0  0  0  2  0  0  0  0  0  0
  178.3010  179.4170  142.7970 C   0  0  0  0  0  1  0  0  0  0  0  0
  178.7360  176.9020  142.5860 C   0  0  0  0  0  2  0  0  0  0  0  0
  177.6920  176.7610  141.4680 C   0  0  0  0  0  2  0  0  0  0  0  0
  179.4330  177.5510  139.7800 C   0  0  0  0  0  2  0  0  0  0  0  0
  186.6970  176.7880  146.9940 N   0  0  0  0  0  2  0  0  0  0  0  0
  188.0940  176.4990  146.8680 C   0  0  0  0  0  0  0  0  0  0  0  0
  190.8230  176.0200  146.5690 C   0  0  0  0  0  0  0  0  0  0  0  0
  190.3280  177.2900  146.5720 N   0  0  0  0  0  0  0  0  0  0  0  0
  188.5710  175.1840  146.8470 C   0  0  0  0  0  3  0  0  0  0  0  0
  189.0000  177.5480  146.7130 C   0  0  0  0  0  3  0  0  0  0  0  0
  189.9370  174.9410  146.7020 C   0  0  0  0  0  3  0  0  0  0  0  0
  195.0340  175.3410  146.1270 C   0  0  0  0  0  3  0  0  0  0  0  0
  194.1320  174.2870  145.9530 C   0  0  0  0  0  0  0  0  0  0  0  0
  194.5650  176.6190  146.4420 C   0  0  0  0  0  3  0  0  0  0  0  0
  193.1930  176.8440  146.5870 C   0  0  0  0  0  3  0  0  0  0  0  0
  192.2770  175.7920  146.4190 C   0  0  0  0  0  0  0  0  0  0  0  0
  192.7590  174.5120  146.1020 C   0  0  0  0  0  3  0  0  0  0  0  0
  193.5190  172.0810  145.0410 C   0  0  0  0  0  1  0  0  0  0  0  0
  194.6330  172.9210  145.6360 C   0  0  0  0  0  2  0  0  0  0  0  0
  186.8770  176.2530  143.9730 C   0  0  0  0  0  2  0  0  0  0  0  0
  187.0670  175.9260  141.4630 C   0  0  0  0  0  2  0  0  0  0  0  0
  190.0610  175.1880  142.5270 C   0  0  0  0  0  0  0  0  0  0  0  0
  187.8710  174.6320  141.5030 C   0  0  0  0  0  2  0  0  0  0  0  0
  190.9260  174.3520  143.0270 N   0  0  0  0  0  0  0  0  0  0  0  0
  189.3420  174.9050  141.2380 C   0  0  0  0  0  2  0  0  0  0  0  0
  188.7730  177.3960  142.6730 C   0  0  0  0  0  2  0  0  0  0  0  0
  187.3380  176.8530  142.6470 C   0  0  2  0  0  3  0  0  0  0  0  0
  189.7860  176.4400  143.3090 C   0  0  0  0  0  2  0  0  0  0  0  0
  192.4770  173.0680  141.5810 N   0  0  0  0  0  2  0  0  0  0  0  0
  191.3660  173.0980  142.4750 C   0  0  0  0  0  0  0  0  0  0  0  0
  190.7790  172.0180  142.7520 O   0  0  0  0  0  0  0  0  0  0  0  0
  193.2430  174.2650  141.2610 C   0  0  0  0  0  2  0  0  0  0  0  0
  194.4180  174.4410  142.2220 C   0  0  2  0  0  3  0  0  0  0  0  0
  193.3050  176.4750  142.8000 O   0  0  0  0  0  1  0  0  0  0  0  0
  194.5650  175.9020  142.6170 C   0  0  0  0  0  2  0  0  0  0  0  0
  195.7210  173.9160  141.6220 C   0  0  0  0  0  2  0  0  0  0  0  0
  196.0870  174.6690  140.3530 C   0  0  0  0  0  2  0  0  0  0  0  0
  197.1960  175.4820  140.5870 O   0  0  0  0  0  1  0  0  0  0  0  0
  1  9  1  0  0  0  0
  2  5  2  0  0  0  0
  3  8  1  0  0  0  0
  4  1  1  0  0  0  0
  4  7  1  0  0  0  0
  5  8  1  0  0  0  0
  5 19  1  0  0  0  0
  6  4  2  0  0  0  0
  9  2  1  0  0  0  0
  9  3  2  0  0  0  0
 10  7  1  0  0  0  0
 11 17  1  0  0  0  0
 12 15  1  6  0  0  0
 13 10  1  1  0  0  0
 13 12  1  0  0  0  0
 14 13  1  0  0  0  0
 16 12  1  0  0  0  0
 17 16  1  0  0  0  0
 18 11  1  0  0  0  0
 18 14  1  0  0  0  0
 20 19  1  0  0  0  0
 21 22  2  0  0  0  0
 21 25  1  0  0  0  0
 22 24  1  0  0  0  0
 23 20  1  0  0  0  0
 24 20  2  0  0  0  0
 25 23  2  0  0  0  0
 26 28  1  0  0  0  0
 27 31  1  0  0  0  0
 27 26  2  0  0  0  0
 28 29  2  0  0  0  0
 30 21  1  0  0  0  0
 30 29  1  0  0  0  0
 31 30  2  0  0  0  0
 32 33  1  0  0  0  0
 33 27  1  0  0  0  0
 34  2  1  0  0  0  0
 35 37  1  0  0  0  0
 35 41  1  0  0  0  0
 36 38  2  0  0  0  0
 36 42  1  0  0  0  0
 39 37  1  0  0  0  0
 39 36  1  0  0  0  0
 40 42  1  0  0  0  0
 41 40  1  0  0  0  0
 41 34  1  1  0  0  0
 43 44  1  0  0  0  0
 44 45  2  0  0  0  0
 44 38  1  0  0  0  0
 46 43  1  0  0  0  0
 47 46  1  6  0  0  0
 47 49  1  0  0  0  0
 49 48  1  0  0  0  0
 50 47  1  0  0  0  0
 51 52  1  0  0  0  0
 51 50  1  0  0  0  0
M  END
>  <MODEL>
1

>  <REMARK>
 VINA RESULT:      -7.7      0.000      0.000
  Name = 
  14 active torsions:
  status: ('A' for Active; 'I' for Inactive)
    1  A    between atoms: C_2  and  C_49
    2  A    between atoms: O_4  and  C_19
    3  A    between atoms: O_4  and  N_23
    4  A    between atoms: N_5  and  C_39
    5  A    between atoms: N_6  and  C_9
    6  A    between atoms: N_6  and  C_18
    7  A    between atoms: C_10  and  C_24
    8  A    between atoms: C_10  and  C_33
    9  A    between atoms: C_14  and  C_44
   10  A    between atoms: C_17  and  C_22
   11  A    between atoms: C_24  and  C_39
   12  A    between atoms: C_24  and  C_50
   13  A    between atoms: N_28  and  C_29
   14  A    between atoms: C_41  and  C_49
                            x       y       z     vdW  Elec       q    Type
                         _______ _______ _______ _____ _____    ______ ____

>  <TORSDO>
F 14

$$$$
=
 OpenBabel11042414293D

 52 56  0  0  1  0  0  0  0  0999 V2000
  188.9060  173.9140  141.5350 N   0  0  0  0  0  2  0  0  0  0  0  0
  187.7320  176.1440  141.8770 C   0  0  0  0  0  0  0  0  0  0  0  0
  187.8390  175.2030  139.8080 N   0  0  0  0  0  0  0  0  0  0  0  0
  189.3420  172.7980  140.7540 C   0  0  0  0  0  0  0  0  0  0  0  0
  187.1020  176.9930  141.0730 C   0  0  0  0  0  0  0  0  0  0  0  0
  189.9740  171.8640  141.3160 O   0  0  0  0  0  0  0  0  0  0  0  0
  189.0750  172.7300  139.3510 N   0  0  0  0  0  2  0  0  0  0  0  0
  187.0960  176.4520  139.6810 C   0  0  0  0  0  2  0  0  0  0  0  0
  188.1800  175.0470  141.0440 C   0  0  0  0  0  0  0  0  0  0  0  0
  189.4590  171.6610  138.6110 O   0  0  0  0  0  0  0  0  0  0  0  0
  191.1310  171.9600  134.5130 C   0  0  0  0  0  2  0  0  0  0  0  0
  190.7030  173.1960  137.2460 C   0  0  1  0  0  3  0  0  0  0  0  0
  189.5850  172.1490  137.3070 C   0  0  1  0  0  3  0  0  0  0  0  0
  189.7750  170.9810  136.3410 C   0  0  0  0  0  2  0  0  0  0  0  0
  192.0940  172.6390  137.5250 C   0  0  0  0  0  1  0  0  0  0  0  0
  190.6200  174.0520  135.9800 C   0  0  0  0  0  2  0  0  0  0  0  0
  191.2840  173.4690  134.7230 C   0  0  0  0  0  2  0  0  0  0  0  0
  189.7540  171.4360  134.8890 C   0  0  0  0  0  2  0  0  0  0  0  0
  186.3250  178.1270  141.4840 N   0  0  0  0  0  2  0  0  0  0  0  0
  184.8950  178.2040  141.4950 C   0  0  0  0  0  0  0  0  0  0  0  0
  182.1150  178.3900  141.4210 C   0  0  0  0  0  0  0  0  0  0  0  0
  182.8370  178.1760  140.2840 N   0  0  0  0  0  0  0  0  0  0  0  0
  184.1820  178.4450  142.6740 C   0  0  0  0  0  3  0  0  0  0  0  0
  184.1930  178.0850  140.2950 C   0  0  0  0  0  3  0  0  0  0  0  0
  182.7910  178.5340  142.6420 C   0  0  0  0  0  3  0  0  0  0  0  0
  177.8380  178.6220  141.2180 C   0  0  0  0  0  3  0  0  0  0  0  0
  178.5700  178.1850  140.1100 C   0  0  0  0  0  0  0  0  0  0  0  0
  178.4990  178.9810  142.3960 C   0  0  0  0  0  3  0  0  0  0  0  0
  179.8930  178.9070  142.4650 C   0  0  0  0  0  3  0  0  0  0  0  0
  180.6400  178.4740  141.3570 C   0  0  0  0  0  0  0  0  0  0  0  0
  179.9660  178.1150  140.1790 C   0  0  0  0  0  3  0  0  0  0  0  0
  177.9820  176.3290  138.5980 C   0  0  0  0  0  1  0  0  0  0  0  0
  177.8670  177.8210  138.8490 C   0  0  0  0  0  2  0  0  0  0  0  0
  187.7470  176.1630  143.3730 C   0  0  0  0  0  2  0  0  0  0  0  0
  189.5570  177.9320  143.1890 C   0  0  0  0  0  2  0  0  0  0  0  0
  190.4790  176.2080  145.8010 C   0  0  0  0  0  0  0  0  0  0  0  0
  190.7430  177.0160  143.4700 C   0  0  0  0  0  2  0  0  0  0  0  0
  191.0790  175.1890  146.3480 N   0  0  0  0  0  0  0  0  0  0  0  0
  191.2120  177.1700  144.9080 C   0  0  0  0  0  2  0  0  0  0  0  0
  188.3570  177.5880  145.4190 C   0  0  0  0  0  2  0  0  0  0  0  0
  188.2700  177.5000  143.8900 C   0  0  2  0  0  3  0  0  0  0  0  0
  189.0120  176.3690  146.0740 C   0  0  0  0  0  2  0  0  0  0  0  0
  192.8570  173.7500  145.3910 N   0  0  0  0  0  2  0  0  0  0  0  0
  192.4660  174.8210  146.2490 C   0  0  0  0  0  0  0  0  0  0  0  0
  193.3510  175.4160  146.9200 O   0  0  0  0  0  0  0  0  0  0  0  0
  191.9000  173.0570  144.5390 C   0  0  0  0  0  2  0  0  0  0  0  0
  192.4670  172.8360  143.1380 C   0  0  2  0  0  3  0  0  0  0  0  0
  192.6530  170.4620  143.3300 O   0  0  0  0  0  1  0  0  0  0  0  0
  193.3910  171.6280  143.1250 C   0  0  0  0  0  2  0  0  0  0  0  0
  193.1990  174.0740  142.6230 C   0  0  0  0  0  2  0  0  0  0  0  0
  192.5450  174.6180  141.3630 C   0  0  0  0  0  2  0  0  0  0  0  0
  193.3880  174.4250  140.2690 O   0  0  0  0  0  1  0  0  0  0  0  0
  2 34  1  0  0  0  0
  3  9  2  0  0  0  0
  4  6  2  0  0  0  0
  4  1  1  0  0  0  0
  5 19  1  0  0  0  0
  5  2  2  0  0  0  0
  7  4  1  0  0  0  0
  8  3  1  0  0  0  0
  8  5  1  0  0  0  0
  9  1  1  0  0  0  0
  9  2  1  0  0  0  0
 10  7  1  0  0  0  0
 11 17  1  0  0  0  0
 11 18  1  0  0  0  0
 12 13  1  0  0  0  0
 12 15  1  6  0  0  0
 13 10  1  1  0  0  0
 14 13  1  0  0  0  0
 16 12  1  0  0  0  0
 17 16  1  0  0  0  0
 18 14  1  0  0  0  0
 19 20  1  0  0  0  0
 20 23  1  0  0  0  0
 21 25  1  0  0  0  0
 22 24  1  0  0  0  0
 22 21  2  0  0  0  0
 24 20  2  0  0  0  0
 25 23  2  0  0  0  0
 26 28  1  0  0  0  0
 27 31  1  0  0  0  0
 27 26  2  0  0  0  0
 28 29  2  0  0  0  0
 30 21  1  0  0  0  0
 30 29  1  0  0  0  0
 31 30  2  0  0  0  0
 32 33  1  0  0  0  0
 33 27  1  0  0  0  0
 35 37  1  0  0  0  0
 35 41  1  0  0  0  0
 36 42  1  0  0  0  0
 36 38  2  0  0  0  0
 37 39  1  0  0  0  0
 39 36  1  0  0  0  0
 40 42  1  0  0  0  0
 41 34  1  1  0  0  0
 41 40  1  0  0  0  0
 43 44  1  0  0  0  0
 44 38  1  0  0  0  0
 44 45  2  0  0  0  0
 46 43  1  0  0  0  0
 47 50  1  1  0  0  0
 47 46  1  0  0  0  0
 49 47  1  0  0  0  0
 49 48  1  0  0  0  0
 51 50  1  0  0  0  0
 52 51  1  0  0  0  0
M  END
>  <MODEL>
2

>  <REMARK>
 VINA RESULT:      -7.2      3.012      9.897
  Name = 
  14 active torsions:
  status: ('A' for Active; 'I' for Inactive)
    1  A    between atoms: C_2  and  C_49
    2  A    between atoms: O_4  and  C_19
    3  A    between atoms: O_4  and  N_23
    4  A    between atoms: N_5  and  C_39
    5  A    between atoms: N_6  and  C_9
    6  A    between atoms: N_6  and  C_18
    7  A    between atoms: C_10  and  C_24
    8  A    between atoms: C_10  and  C_33
    9  A    between atoms: C_14  and  C_44
   10  A    between atoms: C_17  and  C_22
   11  A    between atoms: C_24  and  C_39
   12  A    between atoms: C_24  and  C_50
   13  A    between atoms: N_28  and  C_29
   14  A    between atoms: C_41  and  C_49
                            x       y       z     vdW  Elec       q    Type
                         _______ _______ _______ _____ _____    ______ ____

>  <TORSDO>
F 14

$$$$
=
 OpenBabel11042414293D

 52 56  0  0  1  0  0  0  0  0999 V2000
  191.0720  175.6760  146.1990 N   0  0  0  0  0  2  0  0  0  0  0  0
  191.8410  173.7850  144.6830 C   0  0  0  0  0  0  0  0  0  0  0  0
  189.6410  174.0110  145.2200 N   0  0  0  0  0  0  0  0  0  0  0  0
  190.0880  176.4450  146.8970 C   0  0  0  0  0  0  0  0  0  0  0  0
  191.2240  172.7870  144.0610 C   0  0  0  0  0  0  0  0  0  0  0  0
  190.4530  177.4460  147.5680 O   0  0  0  0  0  0  0  0  0  0  0  0
  188.7040  176.0890  146.8470 N   0  0  0  0  0  2  0  0  0  0  0  0
  189.7570  172.8580  144.3320 C   0  0  0  0  0  2  0  0  0  0  0  0
  190.8160  174.5170  145.3970 C   0  0  0  0  0  0  0  0  0  0  0  0
  187.7630  176.8300  147.4820 O   0  0  0  0  0  0  0  0  0  0  0  0
  185.5640  179.1700  144.4200 C   0  0  0  0  0  2  0  0  0  0  0  0
  185.6100  177.8410  147.1420 C   0  0  1  0  0  3  0  0  0  0  0  0
  186.7860  177.0830  146.5140 C   0  0  1  0  0  3  0  0  0  0  0  0
  187.4200  177.7990  145.3220 C   0  0  0  0  0  2  0  0  0  0  0  0
  185.9620  179.2420  147.6280 C   0  0  0  0  0  1  0  0  0  0  0  0
  184.3570  177.7840  146.2670 C   0  0  0  0  0  2  0  0  0  0  0  0
  184.2610  178.8360  145.1510 C   0  0  0  0  0  2  0  0  0  0  0  0
  186.4420  177.9540  144.1670 C   0  0  0  0  0  2  0  0  0  0  0  0
  191.8050  171.9150  143.0800 N   0  0  0  0  0  2  0  0  0  0  0  0
  191.5680  171.9670  141.6680 C   0  0  0  0  0  0  0  0  0  0  0  0
  191.1710  171.9900  138.9100 C   0  0  0  0  0  0  0  0  0  0  0  0
  191.4830  170.8370  139.5660 N   0  0  0  0  0  0  0  0  0  0  0  0
  191.2700  173.1700  141.0180 C   0  0  0  0  0  3  0  0  0  0  0  0
  191.6850  170.8020  140.9100 C   0  0  0  0  0  3  0  0  0  0  0  0
  191.0650  173.1840  139.6390 C   0  0  0  0  0  3  0  0  0  0  0  0
  190.5520  171.9640  134.6660 C   0  0  0  0  0  3  0  0  0  0  0  0
  190.9910  173.1290  135.3040 C   0  0  0  0  0  0  0  0  0  0  0  0
  190.3170  170.8050  135.4100 C   0  0  0  0  0  3  0  0  0  0  0  0
  190.5180  170.8100  136.7940 C   0  0  0  0  0  3  0  0  0  0  0  0
  190.9540  171.9750  137.4470 C   0  0  0  0  0  0  0  0  0  0  0  0
  191.1880  173.1340  136.6890 C   0  0  0  0  0  3  0  0  0  0  0  0
  191.2950  175.5710  135.4370 C   0  0  0  0  0  1  0  0  0  0  0  0
  191.2220  174.3690  134.5140 C   0  0  0  0  0  2  0  0  0  0  0  0
  193.2520  174.2380  144.4790 C   0  0  0  0  0  2  0  0  0  0  0  0
  192.8670  176.0390  142.7330 C   0  0  0  0  0  2  0  0  0  0  0  0
  196.0980  175.6010  142.6340 C   0  0  0  0  0  0  0  0  0  0  0  0
  193.8130  175.4810  141.6760 C   0  0  0  0  0  2  0  0  0  0  0  0
  197.1560  174.9670  142.2150 N   0  0  0  0  0  0  0  0  0  0  0  0
  195.1290  176.2400  141.6780 C   0  0  0  0  0  2  0  0  0  0  0  0
  194.6170  176.4110  144.5590 C   0  0  0  0  0  2  0  0  0  0  0  0
  193.2990  175.7310  144.1660 C   0  0  2  0  0  3  0  0  0  0  0  0
  195.8660  175.6430  144.1160 C   0  0  0  0  0  2  0  0  0  0  0  0
  197.6870  173.4790  140.3030 N   0  0  0  0  0  2  0  0  0  0  0  0
  197.6030  174.7910  140.8580 C   0  0  0  0  0  0  0  0  0  0  0  0
  197.9400  175.7740  140.1460 O   0  0  0  0  0  0  0  0  0  0  0  0
  197.2580  172.3000  141.0440 C   0  0  0  0  0  2  0  0  0  0  0  0
  195.7360  172.1660  141.0330 C   0  0  2  0  0  3  0  0  0  0  0  0
  196.0360  170.7750  142.9520 O   0  0  0  0  0  1  0  0  0  0  0  0
  195.2290  171.7780  142.4130 C   0  0  0  0  0  2  0  0  0  0  0  0
  195.2640  171.1580  139.9860 C   0  0  0  0  0  2  0  0  0  0  0  0
  194.8700  171.8510  138.6910 C   0  0  0  0  0  2  0  0  0  0  0  0
  194.4880  173.1660  138.9540 O   0  0  0  0  0  1  0  0  0  0  0  0
  1  4  1  0  0  0  0
  2  9  1  0  0  0  0
  3  9  2  0  0  0  0
  4  6  2  0  0  0  0
  5  8  1  0  0  0  0
  5  2  2  0  0  0  0
  7  4  1  0  0  0  0
  7 10  1  0  0  0  0
  8  3  1  0  0  0  0
  9  1  1  0  0  0  0
 11 17  1  0  0  0  0
 12 15  1  6  0  0  0
 13 12  1  0  0  0  0
 13 10  1  1  0  0  0
 14 13  1  0  0  0  0
 16 12  1  0  0  0  0
 17 16  1  0  0  0  0
 18 11  1  0  0  0  0
 18 14  1  0  0  0  0
 19  5  1  0  0  0  0
 20 19  1  0  0  0  0
 21 22  2  0  0  0  0
 21 25  1  0  0  0  0
 22 24  1  0  0  0  0
 23 20  1  0  0  0  0
 24 20  2  0  0  0  0
 25 23  2  0  0  0  0
 26 27  2  0  0  0  0
 26 28  1  0  0  0  0
 27 31  1  0  0  0  0
 28 29  2  0  0  0  0
 29 30  1  0  0  0  0
 30 21  1  0  0  0  0
 31 30  2  0  0  0  0
 33 27  1  0  0  0  0
 33 32  1  0  0  0  0
 34  2  1  0  0  0  0
 35 41  1  0  0  0  0
 36 42  1  0  0  0  0
 37 39  1  0  0  0  0
 37 35  1  0  0  0  0
 38 36  2  0  0  0  0
 39 36  1  0  0  0  0
 41 34  1  6  0  0  0
 41 40  1  0  0  0  0
 42 40  1  0  0  0  0
 43 44  1  0  0  0  0
 43 46  1  0  0  0  0
 44 38  1  0  0  0  0
 45 44  2  0  0  0  0
 47 50  1  6  0  0  0
 47 46  1  0  0  0  0
 47 49  1  0  0  0  0
 49 48  1  0  0  0  0
 51 52  1  0  0  0  0
 51 50  1  0  0  0  0
M  END
>  <MODEL>
3

>  <REMARK>
 VINA RESULT:      -7.1      4.047      7.963
  Name = 
  14 active torsions:
  status: ('A' for Active; 'I' for Inactive)
    1  A    between atoms: C_2  and  C_49
    2  A    between atoms: O_4  and  C_19
    3  A    between atoms: O_4  and  N_23
    4  A    between atoms: N_5  and  C_39
    5  A    between atoms: N_6  and  C_9
    6  A    between atoms: N_6  and  C_18
    7  A    between atoms: C_10  and  C_24
    8  A    between atoms: C_10  and  C_33
    9  A    between atoms: C_14  and  C_44
   10  A    between atoms: C_17  and  C_22
   11  A    between atoms: C_24  and  C_39
   12  A    between atoms: C_24  and  C_50
   13  A    between atoms: N_28  and  C_29
   14  A    between atoms: C_41  and  C_49
                            x       y       z     vdW  Elec       q    Type
                         _______ _______ _______ _____ _____    ______ ____

>  <TORSDO>
F 14

$$$$
=
 OpenBabel11042414293D

 52 56  0  0  1  0  0  0  0  0999 V2000
  193.9240  173.8240  138.5670 N   0  0  0  0  0  2  0  0  0  0  0  0
  191.6910  173.5370  139.7490 C   0  0  0  0  0  0  0  0  0  0  0  0
  191.9900  172.7390  137.6380 N   0  0  0  0  0  0  0  0  0  0  0  0
  194.8330  173.6510  137.4750 C   0  0  0  0  0  0  0  0  0  0  0  0
  190.5300  172.9870  139.4140 C   0  0  0  0  0  0  0  0  0  0  0  0
  196.0030  174.1070  137.5720 O   0  0  0  0  0  0  0  0  0  0  0  0
  194.4300  172.9760  136.2820 N   0  0  0  0  0  2  0  0  0  0  0  0
  190.6270  172.4070  138.0410 C   0  0  0  0  0  2  0  0  0  0  0  0
  192.5680  173.3650  138.6090 C   0  0  0  0  0  0  0  0  0  0  0  0
  195.2940  172.7810  135.2560 O   0  0  0  0  0  0  0  0  0  0  0  0
  195.5100  168.5160  136.4540 C   0  0  0  0  0  2  0  0  0  0  0  0
  196.7900  170.9090  135.1060 C   0  0  1  0  0  3  0  0  0  0  0  0
  195.3370  171.3960  135.0740 C   0  0  1  0  0  3  0  0  0  0  0  0
  194.4310  170.7170  136.1000 C   0  0  0  0  0  2  0  0  0  0  0  0
  197.4750  171.0840  136.4570 C   0  0  0  0  0  1  0  0  0  0  0  0
  196.9390  169.5060  134.5130 C   0  0  0  0  0  2  0  0  0  0  0  0
  196.6680  168.3340  135.4680 C   0  0  0  0  0  2  0  0  0  0  0  0
  194.3080  169.2220  135.8480 C   0  0  0  0  0  2  0  0  0  0  0  0
  189.4230  172.7470  140.2960 N   0  0  0  0  0  2  0  0  0  0  0  0
  188.6660  173.7510  140.9820 C   0  0  0  0  0  0  0  0  0  0  0  0
  187.2320  175.7750  142.2540 C   0  0  0  0  0  0  0  0  0  0  0  0
  187.5650  175.8700  140.9360 N   0  0  0  0  0  0  0  0  0  0  0  0
  188.3560  173.6360  142.3410 C   0  0  0  0  0  3  0  0  0  0  0  0
  188.2670  174.8980  140.2950 C   0  0  0  0  0  3  0  0  0  0  0  0
  187.6350  174.6440  142.9800 C   0  0  0  0  0  3  0  0  0  0  0  0
  184.9990  178.9030  144.1570 C   0  0  0  0  0  3  0  0  0  0  0  0
  185.3000  177.7300  144.8560 C   0  0  0  0  0  0  0  0  0  0  0  0
  185.4290  179.0590  142.8360 C   0  0  0  0  0  3  0  0  0  0  0  0
  186.1570  178.0410  142.2130 C   0  0  0  0  0  3  0  0  0  0  0  0
  186.4610  176.8560  142.9040 C   0  0  0  0  0  0  0  0  0  0  0  0
  186.0250  176.7100  144.2300 C   0  0  0  0  0  3  0  0  0  0  0  0
  185.3010  178.7100  147.1190 C   0  0  0  0  0  1  0  0  0  0  0  0
  184.8250  177.5550  146.2570 C   0  0  0  0  0  2  0  0  0  0  0  0
  192.1110  173.9960  141.1090 C   0  0  0  0  0  2  0  0  0  0  0  0
  193.0520  172.3630  142.8070 C   0  0  0  0  0  2  0  0  0  0  0  0
  194.0370  175.2550  143.9500 C   0  0  0  0  0  0  0  0  0  0  0  0
  192.7030  173.1660  144.0550 C   0  0  0  0  0  2  0  0  0  0  0  0
  193.8350  176.3470  144.6310 N   0  0  0  0  0  0  0  0  0  0  0  0
  193.9260  173.8960  144.5830 C   0  0  0  0  0  2  0  0  0  0  0  0
  194.5980  174.0940  141.7380 C   0  0  0  0  0  2  0  0  0  0  0  0
  193.3420  173.2280  141.5810 C   0  0  2  0  0  3  0  0  0  0  0  0
  194.3570  175.4060  142.4910 C   0  0  0  0  0  2  0  0  0  0  0  0
  192.1680  176.4030  146.4650 N   0  0  0  0  0  2  0  0  0  0  0  0
  193.5250  176.4730  146.0300 C   0  0  0  0  0  0  0  0  0  0  0  0
  194.4280  176.6590  146.8880 O   0  0  0  0  0  0  0  0  0  0  0  0
  191.0750  176.1280  145.5410 C   0  0  0  0  0  2  0  0  0  0  0  0
  189.8240  176.9220  145.9150 C   0  0  2  0  0  3  0  0  0  0  0  0
  189.2090  175.0600  147.2800 O   0  0  0  0  0  1  0  0  0  0  0  0
  188.7140  175.9810  146.3570 C   0  0  0  0  0  2  0  0  0  0  0  0
  189.3500  177.8050  144.7630 C   0  0  0  0  0  2  0  0  0  0  0  0
  190.4090  177.9100  143.6760 C   0  0  0  0  0  2  0  0  0  0  0  0
  191.1950  179.0420  143.8880 O   0  0  0  0  0  1  0  0  0  0  0  0
  1  9  1  0  0  0  0
  2 34  1  0  0  0  0
  3  8  1  0  0  0  0
  3  9  2  0  0  0  0
  4  6  2  0  0  0  0
  4  1  1  0  0  0  0
  5  2  2  0  0  0  0
  5 19  1  0  0  0  0
  7  4  1  0  0  0  0
  8  5  1  0  0  0  0
  9  2  1  0  0  0  0
 10  7  1  0  0  0  0
 12 15  1  1  0  0  0
 13 12  1  0  0  0  0
 13 10  1  1  0  0  0
 13 14  1  0  0  0  0
 16 12  1  0  0  0  0
 16 17  1  0  0  0  0
 17 11  1  0  0  0  0
 18 14  1  0  0  0  0
 18 11  1  0  0  0  0
 19 20  1  0  0  0  0
 20 23  1  0  0  0  0
 21 30  1  0  0  0  0
 21 25  1  0  0  0  0
 22 21  2  0  0  0  0
 23 25  2  0  0  0  0
 24 22  1  0  0  0  0
 24 20  2  0  0  0  0
 26 27  1  0  0  0  0
 27 33  1  0  0  0  0
 28 26  2  0  0  0  0
 29 28  1  0  0  0  0
 29 30  2  0  0  0  0
 30 31  1  0  0  0  0
 31 27  2  0  0  0  0
 33 32  1  0  0  0  0
 35 37  1  0  0  0  0
 36 39  1  0  0  0  0
 36 38  2  0  0  0  0
 37 39  1  0  0  0  0
 38 44  1  0  0  0  0
 40 42  1  0  0  0  0
 41 34  1  1  0  0  0
 41 40  1  0  0  0  0
 41 35  1  0  0  0  0
 42 36  1  0  0  0  0
 44 43  1  0  0  0  0
 44 45  2  0  0  0  0
 46 47  1  0  0  0  0
 46 43  1  0  0  0  0
 47 50  1  6  0  0  0
 47 49  1  0  0  0  0
 49 48  1  0  0  0  0
 51 52  1  0  0  0  0
 51 50  1  0  0  0  0
M  END
>  <MODEL>
4

>  <REMARK>
 VINA RESULT:      -6.7      3.949     11.126
  Name = 
  14 active torsions:
  status: ('A' for Active; 'I' for Inactive)
    1  A    between atoms: C_2  and  C_49
    2  A    between atoms: O_4  and  C_19
    3  A    between atoms: O_4  and  N_23
    4  A    between atoms: N_5  and  C_39
    5  A    between atoms: N_6  and  C_9
    6  A    between atoms: N_6  and  C_18
    7  A    between atoms: C_10  and  C_24
    8  A    between atoms: C_10  and  C_33
    9  A    between atoms: C_14  and  C_44
   10  A    between atoms: C_17  and  C_22
   11  A    between atoms: C_24  and  C_39
   12  A    between atoms: C_24  and  C_50
   13  A    between atoms: N_28  and  C_29
   14  A    between atoms: C_41  and  C_49
                            x       y       z     vdW  Elec       q    Type
                         _______ _______ _______ _____ _____    ______ ____

>  <TORSDO>
F 14

$$$$
=
 OpenBabel11042414293D

 52 56  0  0  1  0  0  0  0  0999 V2000
  194.1170  173.6490  138.6570 N   0  0  0  0  0  2  0  0  0  0  0  0
  191.7560  173.5230  139.5940 C   0  0  0  0  0  0  0  0  0  0  0  0
  192.1750  172.9250  137.4380 N   0  0  0  0  0  0  0  0  0  0  0  0
  195.1060  173.4790  137.6370 C   0  0  0  0  0  0  0  0  0  0  0  0
  190.5790  173.1640  139.0950 C   0  0  0  0  0  0  0  0  0  0  0  0
  196.3050  173.7690  137.8910 O   0  0  0  0  0  0  0  0  0  0  0  0
  194.7520  172.9930  136.3410 N   0  0  0  0  0  2  0  0  0  0  0  0
  190.7480  172.7270  137.6770 C   0  0  0  0  0  2  0  0  0  0  0  0
  192.7190  173.3640  138.5240 C   0  0  0  0  0  0  0  0  0  0  0  0
  195.6880  172.8010  135.3800 O   0  0  0  0  0  0  0  0  0  0  0  0
  195.1360  168.4520  136.0560 C   0  0  0  0  0  2  0  0  0  0  0  0
  196.9340  170.7520  135.2460 C   0  0  1  0  0  3  0  0  0  0  0  0
  195.5850  171.4500  135.0360 C   0  0  1  0  0  3  0  0  0  0  0  0
  194.4300  170.8130  135.8060 C   0  0  0  0  0  2  0  0  0  0  0  0
  197.3800  170.6880  136.7020 C   0  0  0  0  0  1  0  0  0  0  0  0
  197.0060  169.4100  134.5150 C   0  0  0  0  0  2  0  0  0  0  0  0
  196.4190  168.2000  135.2600 C   0  0  0  0  0  2  0  0  0  0  0  0
  194.1630  169.3850  135.3530 C   0  0  0  0  0  2  0  0  0  0  0  0
  189.3680  172.9740  139.8410 N   0  0  0  0  0  2  0  0  0  0  0  0
  188.7460  173.9450  140.6910 C   0  0  0  0  0  0  0  0  0  0  0  0
  187.5640  175.9070  142.2790 C   0  0  0  0  0  0  0  0  0  0  0  0
  187.6330  176.0450  140.9240 N   0  0  0  0  0  0  0  0  0  0  0  0
  188.7090  173.7860  142.0800 C   0  0  0  0  0  3  0  0  0  0  0  0
  188.2080  175.1030  140.1300 C   0  0  0  0  0  3  0  0  0  0  0  0
  188.1140  174.7630  142.8780 C   0  0  0  0  0  3  0  0  0  0  0  0
  185.7100  178.9420  144.6740 C   0  0  0  0  0  3  0  0  0  0  0  0
  186.3110  177.8370  145.2840 C   0  0  0  0  0  0  0  0  0  0  0  0
  185.7150  179.0610  143.2820 C   0  0  0  0  0  3  0  0  0  0  0  0
  186.3180  178.0740  142.4980 C   0  0  0  0  0  3  0  0  0  0  0  0
  186.9220  176.9560  143.0990 C   0  0  0  0  0  0  0  0  0  0  0  0
  186.9110  176.8470  144.4990 C   0  0  0  0  0  3  0  0  0  0  0  0
  185.3470  178.7240  147.3730 C   0  0  0  0  0  1  0  0  0  0  0  0
  186.2890  177.7000  146.7670 C   0  0  0  0  0  2  0  0  0  0  0  0
  192.0850  173.7760  141.0310 C   0  0  0  0  0  2  0  0  0  0  0  0
  191.5910  172.2590  143.0040 C   0  0  0  0  0  2  0  0  0  0  0  0
  194.2750  173.8480  143.9570 C   0  0  0  0  0  0  0  0  0  0  0  0
  191.8640  173.2810  144.1010 C   0  0  0  0  0  2  0  0  0  0  0  0
  194.8690  174.8800  144.4850 N   0  0  0  0  0  0  0  0  0  0  0  0
  193.2390  173.0610  144.7100 C   0  0  0  0  0  2  0  0  0  0  0  0
  193.9310  172.2630  141.9760 C   0  0  0  0  0  2  0  0  0  0  0  0
  192.4290  172.4710  141.7440 C   0  0  2  0  0  3  0  0  0  0  0  0
  194.6470  173.4910  142.5470 C   0  0  0  0  0  2  0  0  0  0  0  0
  193.8410  176.5410  146.0130 N   0  0  0  0  0  2  0  0  0  0  0  0
  194.6980  175.4180  145.8090 C   0  0  0  0  0  0  0  0  0  0  0  0
  195.3020  174.9270  146.7990 O   0  0  0  0  0  0  0  0  0  0  0  0
  193.0630  177.1240  144.9280 C   0  0  0  0  0  2  0  0  0  0  0  0
  191.6430  176.5590  144.9030 C   0  0  2  0  0  3  0  0  0  0  0  0
  190.1060  178.1120  143.9370 O   0  0  0  0  0  1  0  0  0  0  0  0
  190.9150  177.0130  143.6480 C   0  0  0  0  0  2  0  0  0  0  0  0
  190.8560  176.9540  146.1510 C   0  0  0  0  0  2  0  0  0  0  0  0
  190.1800  175.7470  146.7820 C   0  0  0  0  0  2  0  0  0  0  0  0
  191.1250  174.9710  147.4530 O   0  0  0  0  0  1  0  0  0  0  0  0
  2 34  1  0  0  0  0
  3  8  1  0  0  0  0
  3  9  2  0  0  0  0
  4  6  2  0  0  0  0
  4  1  1  0  0  0  0
  5  2  2  0  0  0  0
  5 19  1  0  0  0  0
  7  4  1  0  0  0  0
  8  5  1  0  0  0  0
  9  1  1  0  0  0  0
  9  2  1  0  0  0  0
 10  7  1  0  0  0  0
 12 15  1  1  0  0  0
 13 12  1  0  0  0  0
 13 10  1  1  0  0  0
 13 14  1  0  0  0  0
 16 12  1  0  0  0  0
 16 17  1  0  0  0  0
 17 11  1  0  0  0  0
 18 14  1  0  0  0  0
 18 11  1  0  0  0  0
 19 20  1  0  0  0  0
 20 23  1  0  0  0  0
 21 25  1  0  0  0  0
 21 30  1  0  0  0  0
 22 21  2  0  0  0  0
 23 25  2  0  0  0  0
 24 20  2  0  0  0  0
 24 22  1  0  0  0  0
 26 27  1  0  0  0  0
 27 33  1  0  0  0  0
 28 26  2  0  0  0  0
 29 30  2  0  0  0  0
 29 28  1  0  0  0  0
 30 31  1  0  0  0  0
 31 27  2  0  0  0  0
 33 32  1  0  0  0  0
 35 37  1  0  0  0  0
 36 38  2  0  0  0  0
 36 39  1  0  0  0  0
 37 39  1  0  0  0  0
 38 44  1  0  0  0  0
 40 42  1  0  0  0  0
 41 34  1  1  0  0  0
 41 40  1  0  0  0  0
 41 35  1  0  0  0  0
 42 36  1  0  0  0  0
 44 43  1  0  0  0  0
 44 45  2  0  0  0  0
 46 43  1  0  0  0  0
 47 49  1  6  0  0  0
 47 46  1  0  0  0  0
 47 50  1  0  0  0  0
 49 48  1  0  0  0  0
 50 51  1  0  0  0  0
 51 52  1  0  0  0  0
M  END
>  <MODEL>
5

>  <REMARK>
 VINA RESULT:      -6.6      4.077     11.051
  Name = 
  14 active torsions:
  status: ('A' for Active; 'I' for Inactive)
    1  A    between atoms: C_2  and  C_49
    2  A    between atoms: O_4  and  C_19
    3  A    between atoms: O_4  and  N_23
    4  A    between atoms: N_5  and  C_39
    5  A    between atoms: N_6  and  C_9
    6  A    between atoms: N_6  and  C_18
    7  A    between atoms: C_10  and  C_24
    8  A    between atoms: C_10  and  C_33
    9  A    between atoms: C_14  and  C_44
   10  A    between atoms: C_17  and  C_22
   11  A    between atoms: C_24  and  C_39
   12  A    between atoms: C_24  and  C_50
   13  A    between atoms: N_28  and  C_29
   14  A    between atoms: C_41  and  C_49
                            x       y       z     vdW  Elec       q    Type
                         _______ _______ _______ _____ _____    ______ ____

>  <TORSDO>
F 14

$$$$
=
 OpenBabel11042414293D

 52 56  0  0  1  0  0  0  0  0999 V2000
  189.8140  174.5840  141.6510 N   0  0  0  0  0  2  0  0  0  0  0  0
  188.3790  176.6840  141.6840 C   0  0  0  0  0  0  0  0  0  0  0  0
  188.0310  175.0730  140.1140 N   0  0  0  0  0  0  0  0  0  0  0  0
  190.2040  173.3010  141.1520 C   0  0  0  0  0  0  0  0  0  0  0  0
  187.3750  177.1320  140.9390 C   0  0  0  0  0  0  0  0  0  0  0  0
  191.1520  172.6880  141.7090 O   0  0  0  0  0  0  0  0  0  0  0  0
  189.5370  172.7120  140.0330 N   0  0  0  0  0  2  0  0  0  0  0  0
  187.0490  176.1280  139.8820 C   0  0  0  0  0  2  0  0  0  0  0  0
  188.7590  175.4020  141.1280 C   0  0  0  0  0  0  0  0  0  0  0  0
  189.8810  171.4840  139.5740 O   0  0  0  0  0  0  0  0  0  0  0  0
  189.9840  171.4820  135.1400 C   0  0  0  0  0  2  0  0  0  0  0  0
  191.0520  170.4200  137.7680 C   0  0  1  0  0  3  0  0  0  0  0  0
  190.4130  171.7080  138.3010 C   0  0  1  0  0  3  0  0  0  0  0  0
  189.3330  172.2880  137.3900 C   0  0  0  0  0  2  0  0  0  0  0  0
  190.0600  169.2900  137.5160 C   0  0  0  0  0  1  0  0  0  0  0  0
  191.9950  170.6900  136.5940 C   0  0  0  0  0  2  0  0  0  0  0  0
  191.3420  170.7780  135.2060 C   0  0  0  0  0  2  0  0  0  0  0  0
  189.8940  172.7050  136.0390 C   0  0  0  0  0  2  0  0  0  0  0  0
  186.5510  178.2700  141.2280 N   0  0  0  0  0  2  0  0  0  0  0  0
  185.1200  178.2750  141.2880 C   0  0  0  0  0  0  0  0  0  0  0  0
  182.3330  178.3350  141.3160 C   0  0  0  0  0  0  0  0  0  0  0  0
  183.0250  178.3150  140.1420 N   0  0  0  0  0  0  0  0  0  0  0  0
  184.4370  178.3160  142.5080 C   0  0  0  0  0  3  0  0  0  0  0  0
  184.3840  178.2900  140.1030 C   0  0  0  0  0  3  0  0  0  0  0  0
  183.0430  178.3410  142.5260 C   0  0  0  0  0  3  0  0  0  0  0  0
  178.0460  178.4070  141.3010 C   0  0  0  0  0  3  0  0  0  0  0  0
  178.7510  178.8700  142.4150 C   0  0  0  0  0  0  0  0  0  0  0  0
  178.7370  177.9210  140.1880 C   0  0  0  0  0  3  0  0  0  0  0  0
  180.1350  177.8960  140.1900 C   0  0  0  0  0  3  0  0  0  0  0  0
  180.8550  178.3550  141.3050 C   0  0  0  0  0  0  0  0  0  0  0  0
  180.1500  178.8420  142.4180 C   0  0  0  0  0  3  0  0  0  0  0  0
  178.7630  179.0040  144.8770 C   0  0  0  0  0  1  0  0  0  0  0  0
  178.0140  179.3700  143.6090 C   0  0  0  0  0  2  0  0  0  0  0  0
  188.8490  177.2410  142.9900 C   0  0  0  0  0  2  0  0  0  0  0  0
  187.9170  177.9270  145.2490 C   0  0  0  0  0  2  0  0  0  0  0  0
  190.0210  175.5540  146.0140 C   0  0  0  0  0  0  0  0  0  0  0  0
  189.2370  177.9080  146.0100 C   0  0  0  0  0  2  0  0  0  0  0  0
  191.2250  175.1310  146.2770 N   0  0  0  0  0  0  0  0  0  0  0  0
  189.3670  176.6350  146.8290 C   0  0  0  0  0  2  0  0  0  0  0  0
  187.9030  175.4600  144.5790 C   0  0  0  0  0  2  0  0  0  0  0  0
  187.8560  176.9170  144.1030 C   0  0  2  0  0  3  0  0  0  0  0  0
  189.3190  174.9380  144.8390 C   0  0  0  0  0  2  0  0  0  0  0  0
  193.2570  176.3260  147.0450 N   0  0  0  0  0  2  0  0  0  0  0  0
  192.0970  175.5500  147.3420 C   0  0  0  0  0  0  0  0  0  0  0  0
  191.8680  175.2340  148.5400 O   0  0  0  0  0  0  0  0  0  0  0  0
  193.5550  176.7810  145.6930 C   0  0  0  0  0  2  0  0  0  0  0  0
  194.8090  176.1010  145.1460 C   0  0  2  0  0  3  0  0  0  0  0  0
  193.1840  175.6000  143.4680 O   0  0  0  0  0  1  0  0  0  0  0  0
  194.5500  175.5590  143.7490 C   0  0  0  0  0  2  0  0  0  0  0  0
  195.2970  174.9880  146.0700 C   0  0  0  0  0  2  0  0  0  0  0  0
  195.1920  173.6270  145.3980 C   0  0  0  0  0  2  0  0  0  0  0  0
  196.4010  172.9420  145.5210 O   0  0  0  0  0  1  0  0  0  0  0  0
  2 34  1  0  0  0  0
  3  9  2  0  0  0  0
  4  1  1  0  0  0  0
  4  6  2  0  0  0  0
  5 19  1  0  0  0  0
  5  2  2  0  0  0  0
  7  4  1  0  0  0  0
  8  3  1  0  0  0  0
  8  5  1  0  0  0  0
  9  1  1  0  0  0  0
  9  2  1  0  0  0  0
 10  7  1  0  0  0  0
 11 17  1  0  0  0  0
 11 18  1  0  0  0  0
 12 15  1  6  0  0  0
 12 13  1  0  0  0  0
 13 10  1  1  0  0  0
 14 13  1  0  0  0  0
 16 12  1  0  0  0  0
 17 16  1  0  0  0  0
 18 14  1  0  0  0  0
 19 20  1  0  0  0  0
 20 23  1  0  0  0  0
 21 25  1  0  0  0  0
 22 21  2  0  0  0  0
 23 25  2  0  0  0  0
 24 22  1  0  0  0  0
 24 20  2  0  0  0  0
 26 27  1  0  0  0  0
 27 31  2  0  0  0  0
 27 33  1  0  0  0  0
 28 29  1  0  0  0  0
 28 26  2  0  0  0  0
 29 30  2  0  0  0  0
 30 21  1  0  0  0  0
 30 31  1  0  0  0  0
 33 32  1  0  0  0  0
 35 37  1  0  0  0  0
 36 38  2  0  0  0  0
 36 39  1  0  0  0  0
 37 39  1  0  0  0  0
 38 44  1  0  0  0  0
 40 42  1  0  0  0  0
 41 34  1  6  0  0  0
 41 40  1  0  0  0  0
 41 35  1  0  0  0  0
 42 36  1  0  0  0  0
 43 44  1  0  0  0  0
 44 45  2  0  0  0  0
 46 43  1  0  0  0  0
 47 49  1  6  0  0  0
 47 46  1  0  0  0  0
 47 50  1  0  0  0  0
 48 49  1  0  0  0  0
 51 52  1  0  0  0  0
 51 50  1  0  0  0  0
M  END
>  <MODEL>
6

>  <REMARK>
 VINA RESULT:      -6.6      3.025      9.959
  Name = 
  14 active torsions:
  status: ('A' for Active; 'I' for Inactive)
    1  A    between atoms: C_2  and  C_49
    2  A    between atoms: O_4  and  C_19
    3  A    between atoms: O_4  and  N_23
    4  A    between atoms: N_5  and  C_39
    5  A    between atoms: N_6  and  C_9
    6  A    between atoms: N_6  and  C_18
    7  A    between atoms: C_10  and  C_24
    8  A    between atoms: C_10  and  C_33
    9  A    between atoms: C_14  and  C_44
   10  A    between atoms: C_17  and  C_22
   11  A    between atoms: C_24  and  C_39
   12  A    between atoms: C_24  and  C_50
   13  A    between atoms: N_28  and  C_29
   14  A    between atoms: C_41  and  C_49
                            x       y       z     vdW  Elec       q    Type
                         _______ _______ _______ _____ _____    ______ ____

>  <TORSDO>
F 14

$$$$
=
 OpenBabel11042414293D

 52 56  0  0  1  0  0  0  0  0999 V2000
  184.5430  177.7930  142.3560 N   0  0  0  0  0  2  0  0  0  0  0  0
  186.1140  177.1280  144.2420 C   0  0  0  0  0  0  0  0  0  0  0  0
  184.2280  178.3260  144.6790 N   0  0  0  0  0  0  0  0  0  0  0  0
  183.3610  178.3950  141.8190 C   0  0  0  0  0  0  0  0  0  0  0  0
  186.1190  177.3240  145.5560 C   0  0  0  0  0  0  0  0  0  0  0  0
  183.1510  178.3370  140.5780 O   0  0  0  0  0  0  0  0  0  0  0  0
  182.4240  179.0620  142.6670 N   0  0  0  0  0  2  0  0  0  0  0  0
  184.9000  178.0890  145.9540 C   0  0  0  0  0  2  0  0  0  0  0  0
  184.9200  177.7750  143.7380 C   0  0  0  0  0  0  0  0  0  0  0  0
  181.2870  179.6080  142.1690 O   0  0  0  0  0  0  0  0  0  0  0  0
  177.8930  177.5390  140.2000 C   0  0  0  0  0  2  0  0  0  0  0  0
  179.4020  178.2320  142.7340 C   0  0  1  0  0  3  0  0  0  0  0  0
  180.5240  178.5220  141.7310 C   0  0  1  0  0  3  0  0  0  0  0  0
  180.0320  178.7840  140.3080 C   0  0  0  0  0  2  0  0  0  0  0  0
  178.3620  179.3420  142.8430 C   0  0  0  0  0  1  0  0  0  0  0  0
  178.8020  176.8380  142.5380 C   0  0  0  0  0  2  0  0  0  0  0  0
  177.6980  176.7180  141.4770 C   0  0  0  0  0  2  0  0  0  0  0  0
  179.3340  177.5690  139.7160 C   0  0  0  0  0  2  0  0  0  0  0  0
  187.0040  176.7010  146.4980 N   0  0  0  0  0  2  0  0  0  0  0  0
  188.4100  176.4950  146.3180 C   0  0  0  0  0  0  0  0  0  0  0  0
  191.1470  176.1700  145.9010 C   0  0  0  0  0  0  0  0  0  0  0  0
  190.5570  177.3930  145.7830 N   0  0  0  0  0  0  0  0  0  0  0  0
  188.9840  175.2230  146.4250 C   0  0  0  0  0  3  0  0  0  0  0  0
  189.2240  177.5760  145.9780 C   0  0  0  0  0  3  0  0  0  0  0  0
  190.3540  175.0580  146.2220 C   0  0  0  0  0  3  0  0  0  0  0  0
  195.3660  175.7590  145.2570 C   0  0  0  0  0  3  0  0  0  0  0  0
  194.5170  176.0410  144.1830 C   0  0  0  0  0  0  0  0  0  0  0  0
  194.8420  175.6130  146.5440 C   0  0  0  0  0  3  0  0  0  0  0  0
  193.4670  175.7470  146.7570 C   0  0  0  0  0  3  0  0  0  0  0  0
  192.6020  176.0250  145.6860 C   0  0  0  0  0  0  0  0  0  0  0  0
  193.1400  176.1700  144.3970 C   0  0  0  0  0  3  0  0  0  0  0  0
  194.3880  175.2020  141.8680 C   0  0  0  0  0  1  0  0  0  0  0  0
  195.0740  176.1760  142.8080 C   0  0  0  0  0  2  0  0  0  0  0  0
  186.9960  176.2030  143.4660 C   0  0  0  0  0  2  0  0  0  0  0  0
  187.1510  176.4040  140.9410 C   0  0  0  0  0  2  0  0  0  0  0  0
  189.7940  174.6490  141.6990 C   0  0  0  0  0  0  0  0  0  0  0  0
  187.5620  174.9630  140.6620 C   0  0  0  0  0  2  0  0  0  0  0  0
  190.3790  173.5170  141.9680 N   0  0  0  0  0  0  0  0  0  0  0  0
  189.0570  174.8710  140.4080 C   0  0  0  0  0  2  0  0  0  0  0  0
  189.1670  177.0370  142.3780 C   0  0  0  0  0  2  0  0  0  0  0  0
  187.6400  176.9320  142.2890 C   0  0  2  0  0  3  0  0  0  0  0  0
  189.8590  175.7210  142.7480 C   0  0  0  0  0  2  0  0  0  0  0  0
  191.7220  171.6890  140.9660 N   0  0  0  0  0  2  0  0  0  0  0  0
  190.4670  172.3460  141.1360 C   0  0  0  0  0  0  0  0  0  0  0  0
  189.4570  171.8910  140.5360 O   0  0  0  0  0  0  0  0  0  0  0  0
  192.9200  172.1190  141.6740 C   0  0  0  0  0  2  0  0  0  0  0  0
  193.0850  171.3600  142.9900 C   0  0  2  0  0  3  0  0  0  0  0  0
  192.5570  169.0320  143.1030 O   0  0  0  0  0  1  0  0  0  0  0  0
  191.9950  170.3090  143.1340 C   0  0  0  0  0  2  0  0  0  0  0  0
  193.0810  172.3020  144.1910 C   0  0  0  0  0  2  0  0  0  0  0  0
  194.4130  172.2670  144.9240 C   0  0  0  0  0  2  0  0  0  0  0  0
  195.4560  172.4960  144.0260 O   0  0  0  0  0  1  0  0  0  0  0  0
  1  9  1  0  0  0  0
  2  5  2  0  0  0  0
  3  8  1  0  0  0  0
  4  1  1  0  0  0  0
  4  7  1  0  0  0  0
  5  8  1  0  0  0  0
  5 19  1  0  0  0  0
  6  4  2  0  0  0  0
  9  2  1  0  0  0  0
  9  3  2  0  0  0  0
 10  7  1  0  0  0  0
 11 17  1  0  0  0  0
 12 15  1  6  0  0  0
 13 10  1  1  0  0  0
 13 12  1  0  0  0  0
 14 13  1  0  0  0  0
 16 12  1  0  0  0  0
 17 16  1  0  0  0  0
 18 11  1  0  0  0  0
 18 14  1  0  0  0  0
 20 23  1  0  0  0  0
 20 19  1  0  0  0  0
 21 25  1  0  0  0  0
 22 21  2  0  0  0  0
 22 24  1  0  0  0  0
 24 20  2  0  0  0  0
 25 23  2  0  0  0  0
 26 28  1  0  0  0  0
 27 31  1  0  0  0  0
 27 26  2  0  0  0  0
 28 29  2  0  0  0  0
 30 21  1  0  0  0  0
 30 29  1  0  0  0  0
 31 30  2  0  0  0  0
 32 33  1  0  0  0  0
 33 27  1  0  0  0  0
 34  2  1  0  0  0  0
 35 41  1  0  0  0  0
 36 38  2  0  0  0  0
 36 42  1  0  0  0  0
 37 35  1  0  0  0  0
 39 37  1  0  0  0  0
 39 36  1  0  0  0  0
 40 42  1  0  0  0  0
 41 40  1  0  0  0  0
 41 34  1  1  0  0  0
 43 44  1  0  0  0  0
 43 46  1  0  0  0  0
 44 38  1  0  0  0  0
 45 44  2  0  0  0  0
 47 46  1  6  0  0  0
 47 49  1  0  0  0  0
 47 50  1  0  0  0  0
 48 49  1  0  0  0  0
 50 51  1  0  0  0  0
 52 51  1  0  0  0  0
M  END
>  <MODEL>
7

>  <REMARK>
 VINA RESULT:      -6.6      1.331      2.238
  Name = 
  14 active torsions:
  status: ('A' for Active; 'I' for Inactive)
    1  A    between atoms: C_2  and  C_49
    2  A    between atoms: O_4  and  C_19
    3  A    between atoms: O_4  and  N_23
    4  A    between atoms: N_5  and  C_39
    5  A    between atoms: N_6  and  C_9
    6  A    between atoms: N_6  and  C_18
    7  A    between atoms: C_10  and  C_24
    8  A    between atoms: C_10  and  C_33
    9  A    between atoms: C_14  and  C_44
   10  A    between atoms: C_17  and  C_22
   11  A    between atoms: C_24  and  C_39
   12  A    between atoms: C_24  and  C_50
   13  A    between atoms: N_28  and  C_29
   14  A    between atoms: C_41  and  C_49
                            x       y       z     vdW  Elec       q    Type
                         _______ _______ _______ _____ _____    ______ ____

>  <TORSDO>
F 14

$$$$
=
 OpenBabel11042414293D

 52 56  0  0  1  0  0  0  0  0999 V2000
  191.1230  174.7580  146.2400 N   0  0  0  0  0  2  0  0  0  0  0  0
  193.2040  175.1730  144.8380 C   0  0  0  0  0  0  0  0  0  0  0  0
  191.6420  176.8070  145.0950 N   0  0  0  0  0  0  0  0  0  0  0  0
  189.8850  175.1400  146.8480 C   0  0  0  0  0  0  0  0  0  0  0  0
  193.6600  176.2060  144.1400 C   0  0  0  0  0  0  0  0  0  0  0  0
  189.2660  174.3040  147.5580 O   0  0  0  0  0  0  0  0  0  0  0  0
  189.3430  176.4480  146.6560 N   0  0  0  0  0  2  0  0  0  0  0  0
  192.7100  177.3520  144.2620 C   0  0  0  0  0  2  0  0  0  0  0  0
  191.9410  175.5920  145.4100 C   0  0  0  0  0  0  0  0  0  0  0  0
  188.1860  176.8270  147.2530 O   0  0  0  0  0  0  0  0  0  0  0  0
  185.9530  179.0600  144.1390 C   0  0  0  0  0  2  0  0  0  0  0  0
  185.9450  177.5300  146.7540 C   0  0  1  0  0  3  0  0  0  0  0  0
  187.2800  177.0110  146.2050 C   0  0  1  0  0  3  0  0  0  0  0  0
  187.9050  177.9100  145.1400 C   0  0  0  0  0  2  0  0  0  0  0  0
  186.0240  178.9220  147.3690 C   0  0  0  0  0  1  0  0  0  0  0  0
  184.8060  177.3610  145.7460 C   0  0  0  0  0  2  0  0  0  0  0  0
  184.6540  178.4770  144.7010 C   0  0  0  0  0  2  0  0  0  0  0  0
  187.0300  178.0150  143.9000 C   0  0  0  0  0  2  0  0  0  0  0  0
  194.9670  176.3220  143.5600 N   0  0  0  0  0  2  0  0  0  0  0  0
  195.3370  175.9100  142.2390 C   0  0  0  0  0  0  0  0  0  0  0  0
  196.1540  175.1310  139.6900 C   0  0  0  0  0  0  0  0  0  0  0  0
  196.9900  175.0230  140.7610 N   0  0  0  0  0  0  0  0  0  0  0  0
  194.4640  176.0520  141.1550 C   0  0  0  0  0  3  0  0  0  0  0  0
  196.6160  175.4000  142.0120 C   0  0  0  0  0  3  0  0  0  0  0  0
  194.8680  175.6580  139.8790 C   0  0  0  0  0  3  0  0  0  0  0  0
  197.4580  173.8990  135.7950 C   0  0  0  0  0  3  0  0  0  0  0  0
  196.5630  174.9640  135.9310 C   0  0  0  0  0  0  0  0  0  0  0  0
  197.9330  173.2350  136.9300 C   0  0  0  0  0  3  0  0  0  0  0  0
  197.5090  173.6340  138.2010 C   0  0  0  0  0  3  0  0  0  0  0  0
  196.6060  174.7000  138.3500 C   0  0  0  0  0  0  0  0  0  0  0  0
  196.1360  175.3600  137.2040 C   0  0  0  0  0  3  0  0  0  0  0  0
  196.0950  177.1630  134.9180 C   0  0  0  0  0  1  0  0  0  0  0  0
  196.0420  175.6590  134.7210 C   0  0  0  0  0  2  0  0  0  0  0  0
  193.9520  173.9280  145.1980 C   0  0  0  0  0  2  0  0  0  0  0  0
  193.8200  171.3960  145.2990 C   0  0  0  0  0  2  0  0  0  0  0  0
  194.2020  171.9820  142.1130 C   0  0  0  0  0  0  0  0  0  0  0  0
  194.9460  171.1090  144.3130 C   0  0  0  0  0  2  0  0  0  0  0  0
  194.9500  172.2250  141.0740 N   0  0  0  0  0  0  0  0  0  0  0  0
  194.3850  170.7460  142.9480 C   0  0  0  0  0  2  0  0  0  0  0  0
  192.3020  172.6700  143.6850 C   0  0  0  0  0  2  0  0  0  0  0  0
  193.0700  172.6960  145.0130 C   0  0  2  0  0  3  0  0  0  0  0  0
  193.1630  173.0080  142.4640 C   0  0  0  0  0  2  0  0  0  0  0  0
  195.7410  170.5800  139.3950 N   0  0  0  0  0  2  0  0  0  0  0  0
  196.0000  171.4060  140.5290 C   0  0  0  0  0  0  0  0  0  0  0  0
  197.1500  171.3890  141.0430 O   0  0  0  0  0  0  0  0  0  0  0  0
  194.4550  170.5920  138.7110 C   0  0  0  0  0  2  0  0  0  0  0  0
  194.2450  171.9030  137.9550 C   0  0  2  0  0  3  0  0  0  0  0  0
  192.7820  173.7910  137.9570 O   0  0  0  0  0  1  0  0  0  0  0  0
  192.8270  172.4120  138.1610 C   0  0  0  0  0  2  0  0  0  0  0  0
  194.5470  171.7510  136.4650 C   0  0  0  0  0  2  0  0  0  0  0  0
  194.8650  170.3060  136.1110 C   0  0  0  0  0  2  0  0  0  0  0  0
  195.9760  170.2570  135.2690 O   0  0  0  0  0  1  0  0  0  0  0  0
  1  4  1  0  0  0  0
  2 34  1  0  0  0  0
  2  9  1  0  0  0  0
  3  9  2  0  0  0  0
  4  6  2  0  0  0  0
  5  8  1  0  0  0  0
  5  2  2  0  0  0  0
  7  4  1  0  0  0  0
  7 10  1  0  0  0  0
  8  3  1  0  0  0  0
  9  1  1  0  0  0  0
 11 17  1  0  0  0  0
 12 15  1  6  0  0  0
 13 12  1  0  0  0  0
 13 10  1  1  0  0  0
 14 13  1  0  0  0  0
 16 12  1  0  0  0  0
 17 16  1  0  0  0  0
 18 11  1  0  0  0  0
 18 14  1  0  0  0  0
 19  5  1  0  0  0  0
 20 19  1  0  0  0  0
 21 25  2  0  0  0  0
 21 22  1  0  0  0  0
 22 24  2  0  0  0  0
 23 20  2  0  0  0  0
 24 20  1  0  0  0  0
 25 23  1  0  0  0  0
 26 27  2  0  0  0  0
 26 28  1  0  0  0  0
 27 31  1  0  0  0  0
 28 29  2  0  0  0  0
 29 30  1  0  0  0  0
 30 21  1  0  0  0  0
 31 30  2  0  0  0  0
 33 32  1  0  0  0  0
 33 27  1  0  0  0  0
 36 42  1  0  0  0  0
 36 39  1  0  0  0  0
 37 35  1  0  0  0  0
 38 36  2  0  0  0  0
 39 37  1  0  0  0  0
 40 41  1  0  0  0  0
 41 34  1  6  0  0  0
 41 35  1  0  0  0  0
 42 40  1  0  0  0  0
 43 44  1  0  0  0  0
 44 45  2  0  0  0  0
 44 38  1  0  0  0  0
 46 43  1  0  0  0  0
 47 50  1  6  0  0  0
 47 49  1  0  0  0  0
 47 46  1  0  0  0  0
 48 49  1  0  0  0  0
 51 50  1  0  0  0  0
 52 51  1  0  0  0  0
M  END
>  <MODEL>
8

>  <REMARK>
 VINA RESULT:      -6.6      4.159      8.119
  Name = 
  14 active torsions:
  status: ('A' for Active; 'I' for Inactive)
    1  A    between atoms: C_2  and  C_49
    2  A    between atoms: O_4  and  C_19
    3  A    between atoms: O_4  and  N_23
    4  A    between atoms: N_5  and  C_39
    5  A    between atoms: N_6  and  C_9
    6  A    between atoms: N_6  and  C_18
    7  A    between atoms: C_10  and  C_24
    8  A    between atoms: C_10  and  C_33
    9  A    between atoms: C_14  and  C_44
   10  A    between atoms: C_17  and  C_22
   11  A    between atoms: C_24  and  C_39
   12  A    between atoms: C_24  and  C_50
   13  A    between atoms: N_28  and  C_29
   14  A    between atoms: C_41  and  C_49
                            x       y       z     vdW  Elec       q    Type
                         _______ _______ _______ _____ _____    ______ ____

>  <TORSDO>
F 14

$$$$
=
 OpenBabel11042414293D

 52 56  0  0  1  0  0  0  0  0999 V2000
  194.3280  173.5800  139.4980 N   0  0  0  0  0  2  0  0  0  0  0  0
  191.9740  173.6340  140.4590 C   0  0  0  0  0  0  0  0  0  0  0  0
  192.3010  173.3770  138.2220 N   0  0  0  0  0  0  0  0  0  0  0  0
  195.2820  173.4530  138.4390 C   0  0  0  0  0  0  0  0  0  0  0  0
  190.7570  173.5450  139.9350 C   0  0  0  0  0  0  0  0  0  0  0  0
  196.5110  173.5150  138.7080 O   0  0  0  0  0  0  0  0  0  0  0  0
  194.8600  173.2640  137.0860 N   0  0  0  0  0  2  0  0  0  0  0  0
  190.8610  173.3500  138.4580 C   0  0  0  0  0  2  0  0  0  0  0  0
  192.9040  173.5300  139.3530 C   0  0  0  0  0  0  0  0  0  0  0  0
  195.7570  173.1130  136.0820 O   0  0  0  0  0  0  0  0  0  0  0  0
  197.1000  169.1650  134.5690 C   0  0  0  0  0  2  0  0  0  0  0  0
  194.9740  170.8480  135.9200 C   0  0  1  0  0  3  0  0  0  0  0  0
  196.1690  171.7790  136.1600 C   0  0  1  0  0  3  0  0  0  0  0  0
  197.3370  171.5480  135.2030 C   0  0  0  0  0  2  0  0  0  0  0  0
  194.3930  170.9320  134.5130 C   0  0  0  0  0  1  0  0  0  0  0  0
  195.2550  169.4200  136.3910 C   0  0  0  0  0  2  0  0  0  0  0  0
  195.9890  168.5100  135.3940 C   0  0  0  0  0  2  0  0  0  0  0  0
  197.9350  170.1580  135.3620 C   0  0  0  0  0  2  0  0  0  0  0  0
  189.5310  173.4040  140.6670 N   0  0  0  0  0  2  0  0  0  0  0  0
  188.8690  174.4400  141.4020 C   0  0  0  0  0  0  0  0  0  0  0  0
  187.5660  176.3910  142.9070 C   0  0  0  0  0  0  0  0  0  0  0  0
  188.2620  175.3860  143.5090 N   0  0  0  0  0  0  0  0  0  0  0  0
  188.1450  175.4480  140.7560 C   0  0  0  0  0  3  0  0  0  0  0  0
  188.9020  174.4210  142.7960 C   0  0  0  0  0  3  0  0  0  0  0  0
  187.4960  176.4290  141.5060 C   0  0  0  0  0  3  0  0  0  0  0  0
  185.6240  179.3700  145.3030 C   0  0  0  0  0  3  0  0  0  0  0  0
  186.3140  178.3190  145.9140 C   0  0  0  0  0  0  0  0  0  0  0  0
  185.5670  179.4540  143.9090 C   0  0  0  0  0  3  0  0  0  0  0  0
  186.1990  178.4840  143.1250 C   0  0  0  0  0  3  0  0  0  0  0  0
  186.8930  177.4210  143.7270 C   0  0  0  0  0  0  0  0  0  0  0  0
  186.9430  177.3470  145.1280 C   0  0  0  0  0  3  0  0  0  0  0  0
  186.1970  179.5940  148.0210 C   0  0  0  0  0  1  0  0  0  0  0  0
  186.3570  178.2190  147.3990 C   0  0  0  0  0  2  0  0  0  0  0  0
  192.3370  173.5750  141.9090 C   0  0  0  0  0  2  0  0  0  0  0  0
  191.6140  172.3310  143.9990 C   0  0  0  0  0  2  0  0  0  0  0  0
  194.8010  171.6620  143.8150 C   0  0  0  0  0  0  0  0  0  0  0  0
  192.8100  172.7060  144.8650 C   0  0  0  0  0  2  0  0  0  0  0  0
  196.0490  171.9620  144.0350 N   0  0  0  0  0  0  0  0  0  0  0  0
  193.8040  171.5580  144.9350 C   0  0  0  0  0  2  0  0  0  0  0  0
  192.9130  171.0880  142.1830 C   0  0  0  0  0  2  0  0  0  0  0  0
  191.9410  172.2290  142.5100 C   0  0  2  0  0  3  0  0  0  0  0  0
  194.3870  171.4510  142.3870 C   0  0  0  0  0  2  0  0  0  0  0  0
  197.2120  173.4970  145.5970 N   0  0  0  0  0  2  0  0  0  0  0  0
  196.6930  172.2020  145.3000 C   0  0  0  0  0  0  0  0  0  0  0  0
  196.8230  171.2840  146.1530 O   0  0  0  0  0  0  0  0  0  0  0  0
  197.0450  174.6220  144.6870 C   0  0  0  0  0  2  0  0  0  0  0  0
  195.6060  175.1360  144.7040 C   0  0  2  0  0  3  0  0  0  0  0  0
  195.5450  176.1550  142.5430 O   0  0  0  0  0  1  0  0  0  0  0  0
  195.4970  176.4290  143.9110 C   0  0  0  0  0  2  0  0  0  0  0  0
  195.0950  175.3380  146.1290 C   0  0  0  0  0  2  0  0  0  0  0  0
  194.0160  176.4090  146.1820 C   0  0  0  0  0  2  0  0  0  0  0  0
  193.1640  176.1710  147.2600 O   0  0  0  0  0  1  0  0  0  0  0  0
  2 34  1  0  0  0  0
  3  8  1  0  0  0  0
  3  9  2  0  0  0  0
  4  6  2  0  0  0  0
  4  1  1  0  0  0  0
  5  2  2  0  0  0  0
  5 19  1  0  0  0  0
  7  4  1  0  0  0  0
  8  5  1  0  0  0  0
  9  1  1  0  0  0  0
  9  2  1  0  0  0  0
 10  7  1  0  0  0  0
 11 18  1  0  0  0  0
 11 17  1  0  0  0  0
 12 15  1  6  0  0  0
 12 13  1  0  0  0  0
 12 16  1  0  0  0  0
 13 10  1  6  0  0  0
 14 18  1  0  0  0  0
 14 13  1  0  0  0  0
 17 16  1  0  0  0  0
 19 20  1  0  0  0  0
 20 24  1  0  0  0  0
 21 22  1  0  0  0  0
 21 30  1  0  0  0  0
 23 20  2  0  0  0  0
 23 25  1  0  0  0  0
 24 22  2  0  0  0  0
 25 21  2  0  0  0  0
 26 27  1  0  0  0  0
 27 33  1  0  0  0  0
 28 26  2  0  0  0  0
 29 30  2  0  0  0  0
 29 28  1  0  0  0  0
 30 31  1  0  0  0  0
 31 27  2  0  0  0  0
 33 32  1  0  0  0  0
 35 37  1  0  0  0  0
 36 38  2  0  0  0  0
 36 39  1  0  0  0  0
 37 39  1  0  0  0  0
 38 44  1  0  0  0  0
 40 42  1  0  0  0  0
 40 41  1  0  0  0  0
 41 34  1  1  0  0  0
 41 35  1  0  0  0  0
 42 36  1  0  0  0  0
 44 43  1  0  0  0  0
 44 45  2  0  0  0  0
 46 47  1  0  0  0  0
 46 43  1  0  0  0  0
 47 49  1  6  0  0  0
 47 50  1  0  0  0  0
 48 49  1  0  0  0  0
 50 51  1  0  0  0  0
 51 52  1  0  0  0  0
M  END
>  <MODEL>
9

>  <REMARK>
 VINA RESULT:      -6.4      4.552     10.939
  Name = 
  14 active torsions:
  status: ('A' for Active; 'I' for Inactive)
    1  A    between atoms: C_2  and  C_49
    2  A    between atoms: O_4  and  C_19
    3  A    between atoms: O_4  and  N_23
    4  A    between atoms: N_5  and  C_39
    5  A    between atoms: N_6  and  C_9
    6  A    between atoms: N_6  and  C_18
    7  A    between atoms: C_10  and  C_24
    8  A    between atoms: C_10  and  C_33
    9  A    between atoms: C_14  and  C_44
   10  A    between atoms: C_17  and  C_22
   11  A    between atoms: C_24  and  C_39
   12  A    between atoms: C_24  and  C_50
   13  A    between atoms: N_28  and  C_29
   14  A    between atoms: C_41  and  C_49
                            x       y       z     vdW  Elec       q    Type
                         _______ _______ _______ _____ _____    ______ ____

>  <TORSDO>
F 14

$$$$
