=
 OpenBabel11042415003D

 39 43  0  0  1  0  0  0  0  0999 V2000
  187.8220  176.0530  141.2220 C   0  0  0  0  0  0  0  0  0  0  0  0
  188.8600  175.5230  143.3820 C   0  0  0  0  0  3  0  0  0  0  0  0
  191.3080  172.7200  142.9190 C   0  0  0  0  0  0  0  0  0  0  0  0
  193.9770  170.0540  141.0420 O   0  0  0  0  0  1  0  0  0  0  0  0
  193.4360  171.3150  142.9940 C   0  0  0  0  0  2  0  0  0  0  0  0
  189.3660  174.1510  141.3650 C   0  0  0  0  0  0  0  0  0  0  0  0
  190.4600  173.3890  139.2730 C   0  0  0  0  0  1  0  0  0  0  0  0
  190.3580  173.5750  143.5890 N   0  0  0  0  0  0  0  0  0  0  0  0
  192.3220  171.7820  140.8330 C   0  0  1  0  0  3  0  0  0  0  0  0
  192.2490  171.8780  143.7620 C   0  0  0  0  0  2  0  0  0  0  0  0
  192.9300  170.6900  141.7090 C   0  0  1  0  0  3  0  0  0  0  0  0
  191.2850  172.6080  141.5700 C   0  0  0  0  0  0  0  0  0  0  0  0
  188.3890  174.9970  140.6140 C   0  0  1  0  0  3  0  0  0  0  0  0
  193.3230  172.6240  140.3390 O   0  0  0  0  0  1  0  0  0  0  0  0
  188.0490  174.7050  139.2970 O   0  0  0  0  0  1  0  0  0  0  0  0
  188.1770  176.3820  142.6230 C   0  0  0  0  0  3  0  0  0  0  0  0
  190.3140  173.3990  140.7650 C   0  0  0  0  0  0  0  0  0  0  0  0
  189.2110  174.1470  142.8720 C   0  0  0  0  0  0  0  0  0  0  0  0
  186.9080  176.8820  140.4960 N   0  0  0  0  0  2  0  0  0  0  0  0
  186.2720  178.0620  141.0640 C   0  0  0  0  0  2  0  0  0  0  0  0
  184.0470  177.9770  141.3990 O   0  0  0  0  0  1  0  0  0  0  0  0
  184.9700  178.2620  140.4520 N   0  0  0  0  0  2  0  0  0  0  0  0
  190.3700  173.6600  145.0490 C   0  0  0  0  0  2  0  0  0  0  0  0
  192.1530  174.6120  146.5430 C   0  0  0  0  0  2  0  0  0  0  0  0
  191.0850  174.9300  145.5100 C   0  0  2  0  0  3  0  0  0  0  0  0
  190.3520  175.7840  146.5520 C   0  0  1  0  0  0  0  0  0  0  0  0
  191.4340  175.4770  147.5680 C   0  0  0  0  0  2  0  0  0  0  0  0
  190.3880  177.1120  146.1650 F   0  0  0  0  0  0  0  0  0  0  0  0
  187.7930  177.5880  146.9890 C   0  0  0  0  0  0  0  0  0  0  0  0
  188.8480  174.2300  147.6190 O   0  0  0  0  0  0  0  0  0  0  0  0
  187.8210  176.1620  146.8720 N   0  0  0  0  0  2  0  0  0  0  0  0
  188.9820  175.3390  147.0360 C   0  0  0  0  0  0  0  0  0  0  0  0
  188.7490  178.2080  147.5290 O   0  0  0  0  0  0  0  0  0  0  0  0
  186.5850  178.3290  146.5220 C   0  0  0  0  0  3  0  0  0  0  0  0
  185.3150  177.5410  146.8440 C   0  0  0  0  0  2  0  0  0  0  0  0
  184.0850  178.3060  146.3660 C   0  0  0  0  0  2  0  0  0  0  0  0
  185.4410  179.3750  144.5540 C   0  0  0  0  0  2  0  0  0  0  0  0
  186.6780  178.6140  145.0230 C   0  0  0  0  0  2  0  0  0  0  0  0
  184.1790  178.5750  144.8660 C   0  0  0  0  0  2  0  0  0  0  0  0
  1 16  2  0  0  0  0
  3  8  1  0  0  0  0
  3 10  1  0  0  0  0
  5 10  1  0  0  0  0
  6 18  1  0  0  0  0
  7 17  1  0  0  0  0
  8 23  1  0  0  0  0
  9 14  1  1  0  0  0
  9 12  1  0  0  0  0
  9 11  1  0  0  0  0
 11  4  1  6  0  0  0
 11  5  1  0  0  0  0
 12  3  2  0  0  0  0
 13 15  1  1  0  0  0
 13  1  1  0  0  0  0
 13  6  1  0  0  0  0
 16  2  1  0  0  0  0
 17  6  2  0  0  0  0
 17 12  1  0  0  0  0
 18  2  2  0  0  0  0
 18  8  1  0  0  0  0
 19 20  1  0  0  0  0
 19  1  1  0  0  0  0
 22 20  1  0  0  0  0
 22 21  1  0  0  0  0
 24 27  1  0  0  0  0
 25 23  1  1  0  0  0
 25 24  1  0  0  0  0
 25 26  1  0  0  0  0
 26 28  1  6  0  0  0
 26 32  1  0  0  0  0
 26 27  1  0  0  0  0
 29 33  2  0  0  0  0
 31 29  1  0  0  0  0
 31 32  1  0  0  0  0
 32 30  2  0  0  0  0
 34 35  1  0  0  0  0
 34 29  1  0  0  0  0
 36 35  1  0  0  0  0
 37 39  1  0  0  0  0
 37 38  1  0  0  0  0
 38 34  1  0  0  0  0
 39 36  1  0  0  0  0
M  END
>  <MODEL>
1

>  <REMARK>
 VINA RESULT:      -8.3      0.000      0.000
  Name = 
  7 active torsions:
  status: ('A' for Active; 'I' for Inactive)
    1  A    between atoms: C_1  and  C_5
    2  A    between atoms: C_2  and  N_9
    3  A    between atoms: N_9  and  C_39
    4  A    between atoms: C_12  and  C_30
    5  A    between atoms: C_16  and  C_27
    6  A    between atoms: N_20  and  C_39
    7  A    between atoms: N_23  and  C_30
                            x       y       z     vdW  Elec       q    Type
                         _______ _______ _______ _____ _____    ______ ____

>  <TORSDO>
F 7

$$$$
=
 OpenBabel11042415003D

 39 43  0  0  1  0  0  0  0  0999 V2000
  189.8810  173.7250  140.7150 C   0  0  0  0  0  0  0  0  0  0  0  0
  190.2450  174.3590  143.0570 C   0  0  0  0  0  3  0  0  0  0  0  0
  193.8770  175.1340  143.5740 C   0  0  0  0  0  0  0  0  0  0  0  0
  197.8700  176.1780  142.7250 O   0  0  0  0  0  1  0  0  0  0  0  0
  196.0400  176.3070  144.2500 C   0  0  0  0  0  2  0  0  0  0  0  0
  192.1700  174.1450  141.4910 C   0  0  0  0  0  0  0  0  0  0  0  0
  193.8760  174.7440  139.7920 C   0  0  0  0  0  1  0  0  0  0  0  0
  192.5350  174.7160  143.8990 N   0  0  0  0  0  0  0  0  0  0  0  0
  195.6930  175.5760  141.9100 C   0  0  1  0  0  3  0  0  0  0  0  0
  194.8060  175.5400  144.7050 C   0  0  0  0  0  2  0  0  0  0  0  0
  196.6680  175.5690  143.0850 C   0  0  1  0  0  3  0  0  0  0  0  0
  194.3160  175.0680  142.2950 C   0  0  0  0  0  0  0  0  0  0  0  0
  191.1960  173.7100  140.4440 C   0  0  1  0  0  3  0  0  0  0  0  0
  195.5820  176.8640  141.3770 O   0  0  0  0  0  1  0  0  0  0  0  0
  191.6300  173.2790  139.1940 O   0  0  0  0  0  1  0  0  0  0  0  0
  189.4010  174.1860  142.0390 C   0  0  0  0  0  3  0  0  0  0  0  0
  193.4070  174.6110  141.2100 C   0  0  0  0  0  0  0  0  0  0  0  0
  191.7030  173.9980  142.9240 C   0  0  0  0  0  0  0  0  0  0  0  0
  188.9440  173.3350  139.7040 N   0  0  0  0  0  2  0  0  0  0  0  0
  188.1990  174.2870  138.8920 C   0  0  0  0  0  2  0  0  0  0  0  0
  188.8460  172.7140  137.4160 O   0  0  0  0  0  1  0  0  0  0  0  0
  188.3850  173.9850  137.4840 N   0  0  0  0  0  2  0  0  0  0  0  0
  192.0840  174.7590  145.2900 C   0  0  0  0  0  2  0  0  0  0  0  0
  192.4520  176.4180  147.1430 C   0  0  0  0  0  2  0  0  0  0  0  0
  191.8840  176.2030  145.7500 C   0  0  2  0  0  3  0  0  0  0  0  0
  190.4900  176.5630  146.2780 C   0  0  1  0  0  0  0  0  0  0  0  0
  191.0710  176.7940  147.6580 C   0  0  0  0  0  2  0  0  0  0  0  0
  190.0720  177.7500  145.7020 F   0  0  0  0  0  0  0  0  0  0  0  0
  187.3590  176.9980  146.3430 C   0  0  0  0  0  0  0  0  0  0  0  0
  189.7000  174.3080  146.6060 O   0  0  0  0  0  0  0  0  0  0  0  0
  188.0450  175.7960  145.9800 N   0  0  0  0  0  2  0  0  0  0  0  0
  189.4110  175.4930  146.2920 C   0  0  0  0  0  0  0  0  0  0  0  0
  187.8340  177.7700  147.2220 O   0  0  0  0  0  0  0  0  0  0  0  0
  186.0380  177.2960  145.7180 C   0  0  0  0  0  3  0  0  0  0  0  0
  186.2070  177.6010  144.2290 C   0  0  0  0  0  2  0  0  0  0  0  0
  184.8520  177.9020  143.5960 C   0  0  0  0  0  2  0  0  0  0  0  0
  184.0070  178.7610  145.7900 C   0  0  0  0  0  2  0  0  0  0  0  0
  185.3580  178.4630  146.4330 C   0  0  0  0  0  2  0  0  0  0  0  0
  184.1860  179.0770  144.3080 C   0  0  0  0  0  2  0  0  0  0  0  0
  1 16  2  0  0  0  0
  3  8  1  0  0  0  0
  3 10  1  0  0  0  0
  5 10  1  0  0  0  0
  6 18  1  0  0  0  0
  7 17  1  0  0  0  0
  8 23  1  0  0  0  0
  9 14  1  1  0  0  0
  9 12  1  0  0  0  0
  9 11  1  0  0  0  0
 11  4  1  6  0  0  0
 11  5  1  0  0  0  0
 12  3  2  0  0  0  0
 13 15  1  1  0  0  0
 13  1  1  0  0  0  0
 13  6  1  0  0  0  0
 16  2  1  0  0  0  0
 17  6  2  0  0  0  0
 17 12  1  0  0  0  0
 18  2  2  0  0  0  0
 18  8  1  0  0  0  0
 19  1  1  0  0  0  0
 20 19  1  0  0  0  0
 21 22  1  0  0  0  0
 22 20  1  0  0  0  0
 24 27  1  0  0  0  0
 25 23  1  1  0  0  0
 25 26  1  0  0  0  0
 25 24  1  0  0  0  0
 26 28  1  6  0  0  0
 26 32  1  0  0  0  0
 26 27  1  0  0  0  0
 29 33  2  0  0  0  0
 31 32  1  0  0  0  0
 31 29  1  0  0  0  0
 32 30  2  0  0  0  0
 34 29  1  0  0  0  0
 34 38  1  0  0  0  0
 35 34  1  0  0  0  0
 36 35  1  0  0  0  0
 36 39  1  0  0  0  0
 37 38  1  0  0  0  0
 39 37  1  0  0  0  0
M  END
>  <MODEL>
2

>  <REMARK>
 VINA RESULT:      -8.0      2.717      3.614
  Name = 
  7 active torsions:
  status: ('A' for Active; 'I' for Inactive)
    1  A    between atoms: C_1  and  C_5
    2  A    between atoms: C_2  and  N_9
    3  A    between atoms: N_9  and  C_39
    4  A    between atoms: C_12  and  C_30
    5  A    between atoms: C_16  and  C_27
    6  A    between atoms: N_20  and  C_39
    7  A    between atoms: N_23  and  C_30
                            x       y       z     vdW  Elec       q    Type
                         _______ _______ _______ _____ _____    ______ ____

>  <TORSDO>
F 7

$$$$
=
 OpenBabel11042415003D

 39 43  0  0  1  0  0  0  0  0999 V2000
  189.8330  175.4030  146.1710 C   0  0  0  0  0  0  0  0  0  0  0  0
  190.2760  174.4430  143.9560 C   0  0  0  0  0  3  0  0  0  0  0  0
  193.7740  175.3040  142.9150 C   0  0  0  0  0  0  0  0  0  0  0  0
  197.8230  176.4390  143.1740 O   0  0  0  0  0  1  0  0  0  0  0  0
  196.1730  175.1170  142.0690 C   0  0  0  0  0  2  0  0  0  0  0  0
  191.9700  175.8920  145.0680 C   0  0  0  0  0  0  0  0  0  0  0  0
  193.8780  176.5800  146.4950 C   0  0  0  0  0  1  0  0  0  0  0  0
  192.3770  174.9700  142.7780 N   0  0  0  0  0  0  0  0  0  0  0  0
  195.6980  176.1670  144.2610 C   0  0  1  0  0  3  0  0  0  0  0  0
  194.6910  175.0980  141.7230 C   0  0  0  0  0  2  0  0  0  0  0  0
  196.4520  176.3240  142.9420 C   0  0  1  0  0  3  0  0  0  0  0  0
  194.2230  175.8790  144.0560 C   0  0  0  0  0  0  0  0  0  0  0  0
  190.9920  176.0830  146.1820 C   0  0  0  0  0  0  0  0  0  0  0  0
  196.2700  175.1480  145.0290 O   0  0  0  0  0  1  0  0  0  0  0  0
  191.2580  176.9600  147.2290 O   0  0  0  0  0  1  0  0  0  0  0  0
  189.5360  174.4610  145.0660 C   0  0  0  0  0  3  0  0  0  0  0  0
  193.2940  176.1270  145.1910 C   0  0  0  0  0  0  0  0  0  0  0  0
  191.3800  175.4480  143.7450 C   0  0  1  0  0  3  0  0  0  0  0  0
  188.9070  175.5620  147.2520 N   0  0  0  0  0  2  0  0  0  0  0  0
  187.5750  176.1250  147.0900 C   0  0  0  0  0  2  0  0  0  0  0  0
  186.3790  178.0300  146.9900 O   0  0  0  0  0  1  0  0  0  0  0  0
  187.6460  177.5750  147.1170 N   0  0  0  0  0  2  0  0  0  0  0  0
  191.8960  174.3810  141.5280 C   0  0  0  0  0  2  0  0  0  0  0  0
  192.5660  171.9970  141.0990 C   0  0  0  0  0  2  0  0  0  0  0  0
  191.5290  172.9110  141.7280 C   0  0  2  0  0  3  0  0  0  0  0  0
  190.4690  172.3390  140.7790 C   0  0  1  0  0  0  0  0  0  0  0  0
  191.5080  171.4160  140.1730 C   0  0  0  0  0  2  0  0  0  0  0  0
  189.5320  171.6290  141.5100 F   0  0  0  0  0  0  0  0  0  0  0  0
  188.1040  174.3960  141.1930 C   0  0  0  0  0  0  0  0  0  0  0  0
  190.0260  173.0210  138.5090 O   0  0  0  0  0  0  0  0  0  0  0  0
  189.0290  174.3690  140.1020 N   0  0  0  0  0  2  0  0  0  0  0  0
  189.8470  173.2500  139.7350 C   0  0  0  0  0  0  0  0  0  0  0  0
  187.7330  173.3250  141.7480 O   0  0  0  0  0  0  0  0  0  0  0  0
  187.5300  175.7030  141.6250 C   0  0  0  0  0  3  0  0  0  0  0  0
  188.6360  176.7490  141.7760 C   0  0  0  0  0  2  0  0  0  0  0  0
  188.0420  178.0840  142.2150 C   0  0  0  0  0  2  0  0  0  0  0  0
  186.1720  176.8830  143.3690 C   0  0  0  0  0  2  0  0  0  0  0  0
  186.7580  175.5430  142.9340 C   0  0  0  0  0  2  0  0  0  0  0  0
  187.2830  177.9170  143.5300 C   0  0  0  0  0  2  0  0  0  0  0  0
  1 13  2  0  0  0  0
  1 19  1  0  0  0  0
  2 16  2  0  0  0  0
  3 12  2  0  0  0  0
  5 11  1  0  0  0  0
  6 17  2  0  0  0  0
  6 13  1  0  0  0  0
  8  3  1  0  0  0  0
  8 18  1  0  0  0  0
  9 14  1  6  0  0  0
 10  5  1  0  0  0  0
 10  3  1  0  0  0  0
 11  4  1  1  0  0  0
 11  9  1  0  0  0  0
 12  9  1  0  0  0  0
 12 17  1  0  0  0  0
 13 15  1  0  0  0  0
 16  1  1  0  0  0  0
 17  7  1  0  0  0  0
 18  2  1  1  0  0  0
 18  6  1  0  0  0  0
 20 22  1  0  0  0  0
 20 19  1  0  0  0  0
 21 22  1  0  0  0  0
 23  8  1  0  0  0  0
 24 25  1  0  0  0  0
 25 23  1  6  0  0  0
 26 28  1  1  0  0  0
 26 25  1  0  0  0  0
 27 26  1  0  0  0  0
 27 24  1  0  0  0  0
 29 34  1  0  0  0  0
 29 33  2  0  0  0  0
 30 32  2  0  0  0  0
 31 29  1  0  0  0  0
 32 31  1  0  0  0  0
 32 26  1  0  0  0  0
 34 35  1  0  0  0  0
 34 38  1  0  0  0  0
 35 36  1  0  0  0  0
 36 39  1  0  0  0  0
 37 39  1  0  0  0  0
 38 37  1  0  0  0  0
M  END
>  <MODEL>
3

>  <REMARK>
 VINA RESULT:      -8.0      2.994      6.054
  Name = 
  7 active torsions:
  status: ('A' for Active; 'I' for Inactive)
    1  A    between atoms: C_1  and  C_5
    2  A    between atoms: C_2  and  N_9
    3  A    between atoms: N_9  and  C_39
    4  A    between atoms: C_12  and  C_30
    5  A    between atoms: C_16  and  C_27
    6  A    between atoms: N_20  and  C_39
    7  A    between atoms: N_23  and  C_30
                            x       y       z     vdW  Elec       q    Type
                         _______ _______ _______ _____ _____    ______ ____

>  <TORSDO>
F 7

$$$$
=
 OpenBabel11042415003D

 39 43  0  0  1  0  0  0  0  0999 V2000
  195.6670  175.3930  141.8280 C   0  0  0  0  0  0  0  0  0  0  0  0
  194.4060  174.9410  143.8840 C   0  0  0  0  0  3  0  0  0  0  0  0
  190.8850  174.0080  142.9920 C   0  0  0  0  0  0  0  0  0  0  0  0
  187.5860  172.6710  140.7380 O   0  0  0  0  0  1  0  0  0  0  0  0
  188.6540  172.7770  142.8690 C   0  0  0  0  0  2  0  0  0  0  0  0
  193.2660  174.9120  141.6690 C   0  0  0  0  0  0  0  0  0  0  0  0
  192.3940  174.0750  139.5030 C   0  0  0  0  0  1  0  0  0  0  0  0
  191.9770  174.5280  143.7790 N   0  0  0  0  0  0  0  0  0  0  0  0
  189.8970  173.3240  140.7980 C   0  0  1  0  0  3  0  0  0  0  0  0
  189.5890  173.6480  143.6960 C   0  0  0  0  0  2  0  0  0  0  0  0
  188.5330  173.3760  141.4820 C   0  0  1  0  0  3  0  0  0  0  0  0
  190.9940  173.9400  141.6440 C   0  0  0  0  0  0  0  0  0  0  0  0
  194.5690  175.3110  141.0570 C   0  0  1  0  0  3  0  0  0  0  0  0
  190.2340  172.0040  140.4850 O   0  0  0  0  0  1  0  0  0  0  0  0
  194.6650  175.6090  139.7000 O   0  0  0  0  0  1  0  0  0  0  0  0
  195.5840  175.0750  143.2730 C   0  0  0  0  0  3  0  0  0  0  0  0
  192.2540  174.3540  140.9690 C   0  0  0  0  0  0  0  0  0  0  0  0
  193.1170  175.2060  143.1470 C   0  0  0  0  0  0  0  0  0  0  0  0
  196.9230  175.7480  141.2370 N   0  0  0  0  0  2  0  0  0  0  0  0
  197.9390  174.7720  140.8690 C   0  0  0  0  0  2  0  0  0  0  0  0
  197.9200  175.8060  138.8690 O   0  0  0  0  0  1  0  0  0  0  0  0
  197.9320  174.5750  139.4300 N   0  0  0  0  0  2  0  0  0  0  0  0
  191.8340  174.6290  145.2320 C   0  0  0  0  0  2  0  0  0  0  0  0
  192.6090  176.3150  146.9280 C   0  0  0  0  0  2  0  0  0  0  0  0
  191.7860  176.0930  145.6690 C   0  0  2  0  0  3  0  0  0  0  0  0
  190.5300  176.5360  146.4290 C   0  0  1  0  0  0  0  0  0  0  0  0
  191.3640  176.7740  147.6730 C   0  0  0  0  0  2  0  0  0  0  0  0
  190.0680  177.7280  145.8990 F   0  0  0  0  0  0  0  0  0  0  0  0
  187.4180  177.0810  146.5400 C   0  0  0  0  0  0  0  0  0  0  0  0
  189.6970  174.4030  147.1860 O   0  0  0  0  0  0  0  0  0  0  0  0
  188.0550  175.8120  146.3700 N   0  0  0  0  0  2  0  0  0  0  0  0
  189.4250  175.5230  146.6770 C   0  0  0  0  0  0  0  0  0  0  0  0
  187.9520  177.9800  147.2470 O   0  0  0  0  0  0  0  0  0  0  0  0
  186.0780  177.3080  145.9240 C   0  0  0  0  0  3  0  0  0  0  0  0
  186.2270  177.8160  144.4900 C   0  0  0  0  0  2  0  0  0  0  0  0
  184.8540  178.0430  143.8660 C   0  0  0  0  0  2  0  0  0  0  0  0
  183.8940  178.5180  146.1290 C   0  0  0  0  0  2  0  0  0  0  0  0
  185.2630  178.2930  146.7630 C   0  0  0  0  0  2  0  0  0  0  0  0
  184.0520  179.0380  144.7020 C   0  0  0  0  0  2  0  0  0  0  0  0
  1 16  2  0  0  0  0
  3 10  1  0  0  0  0
  3  8  1  0  0  0  0
  5 10  1  0  0  0  0
  6 18  1  0  0  0  0
  7 17  1  0  0  0  0
  8 23  1  0  0  0  0
  9 14  1  1  0  0  0
  9 11  1  0  0  0  0
  9 12  1  0  0  0  0
 11  4  1  6  0  0  0
 11  5  1  0  0  0  0
 12  3  2  0  0  0  0
 13 15  1  1  0  0  0
 13  6  1  0  0  0  0
 13  1  1  0  0  0  0
 16  2  1  0  0  0  0
 17 12  1  0  0  0  0
 17  6  2  0  0  0  0
 18  8  1  0  0  0  0
 18  2  2  0  0  0  0
 19  1  1  0  0  0  0
 20 19  1  0  0  0  0
 21 22  1  0  0  0  0
 22 20  1  0  0  0  0
 24 27  1  0  0  0  0
 25 23  1  1  0  0  0
 25 26  1  0  0  0  0
 25 24  1  0  0  0  0
 26 28  1  6  0  0  0
 26 32  1  0  0  0  0
 26 27  1  0  0  0  0
 29 33  2  0  0  0  0
 31 29  1  0  0  0  0
 31 32  1  0  0  0  0
 32 30  2  0  0  0  0
 34 29  1  0  0  0  0
 34 38  1  0  0  0  0
 35 34  1  0  0  0  0
 36 35  1  0  0  0  0
 36 39  1  0  0  0  0
 37 38  1  0  0  0  0
 39 37  1  0  0  0  0
M  END
>  <MODEL>
4

>  <REMARK>
 VINA RESULT:      -7.8      3.012      5.277
  Name = 
  7 active torsions:
  status: ('A' for Active; 'I' for Inactive)
    1  A    between atoms: C_1  and  C_5
    2  A    between atoms: C_2  and  N_9
    3  A    between atoms: N_9  and  C_39
    4  A    between atoms: C_12  and  C_30
    5  A    between atoms: C_16  and  C_27
    6  A    between atoms: N_20  and  C_39
    7  A    between atoms: N_23  and  C_30
                            x       y       z     vdW  Elec       q    Type
                         _______ _______ _______ _____ _____    ______ ____

>  <TORSDO>
F 7

$$$$
=
 OpenBabel11042415003D

 39 43  0  0  1  0  0  0  0  0999 V2000
  186.7230  176.9250  140.0340 C   0  0  0  0  0  0  0  0  0  0  0  0
  188.2540  175.9470  141.6830 C   0  0  0  0  0  3  0  0  0  0  0  0
  187.3870  177.2440  145.0930 C   0  0  0  0  0  0  0  0  0  0  0  0
  185.1640  178.9430  148.2430 O   0  0  0  0  0  1  0  0  0  0  0  0
  186.8190  177.3590  147.5770 C   0  0  0  0  0  2  0  0  0  0  0  0
  186.5830  177.6620  142.3700 C   0  0  0  0  0  0  0  0  0  0  0  0
  184.4500  178.6670  143.1410 C   0  0  0  0  0  1  0  0  0  0  0  0
  188.2010  176.7130  144.0260 N   0  0  0  0  0  0  0  0  0  0  0  0
  185.3340  178.4210  145.9040 C   0  0  1  0  0  3  0  0  0  0  0  0
  187.8880  177.1200  146.5210 C   0  0  0  0  0  2  0  0  0  0  0  0
  186.0670  178.6280  147.2270 C   0  0  1  0  0  3  0  0  0  0  0  0
  186.2510  177.9220  144.8040 C   0  0  0  0  0  0  0  0  0  0  0  0
  186.1770  177.7590  140.9350 C   0  0  1  0  0  3  0  0  0  0  0  0
  184.2740  177.5240  146.0700 O   0  0  0  0  0  1  0  0  0  0  0  0
  185.2500  178.7070  140.5130 O   0  0  0  0  0  1  0  0  0  0  0  0
  187.7090  175.9060  140.4660 C   0  0  0  0  0  3  0  0  0  0  0  0
  185.8080  178.0840  143.3930 C   0  0  0  0  0  0  0  0  0  0  0  0
  187.9610  177.0870  142.6260 C   0  0  0  0  0  0  0  0  0  0  0  0
  186.3140  176.9970  138.6620 N   0  0  0  0  0  2  0  0  0  0  0  0
  186.6970  176.0140  137.6600 C   0  0  0  0  0  2  0  0  0  0  0  0
  186.2650  176.1920  135.4570 O   0  0  0  0  0  1  0  0  0  0  0  0
  187.0680  176.6860  136.4270 N   0  0  0  0  0  2  0  0  0  0  0  0
  189.4440  176.0140  144.3490 C   0  0  0  0  0  2  0  0  0  0  0  0
  190.5230  178.2270  143.8440 C   0  0  0  0  0  2  0  0  0  0  0  0
  190.5350  177.0070  144.7500 C   0  0  2  0  0  3  0  0  0  0  0  0
  191.9570  176.6850  144.2730 C   0  0  1  0  0  0  0  0  0  0  0  0
  191.9420  177.9170  143.3900 C   0  0  0  0  0  2  0  0  0  0  0  0
  192.8400  176.8340  145.3280 F   0  0  0  0  0  0  0  0  0  0  0  0
  194.6980  175.1680  143.8490 C   0  0  0  0  0  0  0  0  0  0  0  0
  191.3420  175.0380  142.6230 O   0  0  0  0  0  0  0  0  0  0  0  0
  193.3880  174.6390  143.6240 N   0  0  0  0  0  2  0  0  0  0  0  0
  192.1950  175.4180  143.4690 C   0  0  0  0  0  0  0  0  0  0  0  0
  194.9440  176.3890  143.6450 O   0  0  0  0  0  0  0  0  0  0  0  0
  195.7910  174.2410  144.2660 C   0  0  0  0  0  3  0  0  0  0  0  0
  195.4330  172.7970  143.9130 C   0  0  0  0  0  2  0  0  0  0  0  0
  196.5560  171.8570  144.3390 C   0  0  0  0  0  2  0  0  0  0  0  0
  197.1870  173.4300  146.1820 C   0  0  0  0  0  2  0  0  0  0  0  0
  196.0670  174.3780  145.7630 C   0  0  0  0  0  2  0  0  0  0  0  0
  196.8160  171.9900  145.8380 C   0  0  0  0  0  2  0  0  0  0  0  0
  1 16  2  0  0  0  0
  1 13  1  0  0  0  0
  2 18  2  0  0  0  0
  3 10  1  0  0  0  0
  6 18  1  0  0  0  0
  6 17  2  0  0  0  0
  7 17  1  0  0  0  0
  8 23  1  0  0  0  0
  8  3  1  0  0  0  0
  9 14  1  1  0  0  0
  9 11  1  0  0  0  0
 10  5  1  0  0  0  0
 11  5  1  0  0  0  0
 11  4  1  1  0  0  0
 12  3  2  0  0  0  0
 12  9  1  0  0  0  0
 13 15  1  6  0  0  0
 13  6  1  0  0  0  0
 16  2  1  0  0  0  0
 17 12  1  0  0  0  0
 18  8  1  0  0  0  0
 19  1  1  0  0  0  0
 20 19  1  0  0  0  0
 21 22  1  0  0  0  0
 22 20  1  0  0  0  0
 24 25  1  0  0  0  0
 25 23  1  6  0  0  0
 26 25  1  0  0  0  0
 26 28  1  1  0  0  0
 27 24  1  0  0  0  0
 27 26  1  0  0  0  0
 29 34  1  0  0  0  0
 30 32  2  0  0  0  0
 31 29  1  0  0  0  0
 32 31  1  0  0  0  0
 32 26  1  0  0  0  0
 33 29  2  0  0  0  0
 34 38  1  0  0  0  0
 35 34  1  0  0  0  0
 35 36  1  0  0  0  0
 36 39  1  0  0  0  0
 38 37  1  0  0  0  0
 39 37  1  0  0  0  0
M  END
>  <MODEL>
5

>  <REMARK>
 VINA RESULT:      -7.7      2.923      7.841
  Name = 
  7 active torsions:
  status: ('A' for Active; 'I' for Inactive)
    1  A    between atoms: C_1  and  C_5
    2  A    between atoms: C_2  and  N_9
    3  A    between atoms: N_9  and  C_39
    4  A    between atoms: C_12  and  C_30
    5  A    between atoms: C_16  and  C_27
    6  A    between atoms: N_20  and  C_39
    7  A    between atoms: N_23  and  C_30
                            x       y       z     vdW  Elec       q    Type
                         _______ _______ _______ _____ _____    ______ ____

>  <TORSDO>
F 7

$$$$
=
 OpenBabel11042415003D

 39 43  0  0  1  0  0  0  0  0999 V2000
  195.1270  172.5390  144.1670 C   0  0  0  0  0  0  0  0  0  0  0  0
  193.0930  173.2340  145.3510 C   0  0  0  0  0  3  0  0  0  0  0  0
  190.3840  173.9220  142.8510 C   0  0  0  0  0  0  0  0  0  0  0  0
  188.1980  173.8460  139.2500 O   0  0  0  0  0  1  0  0  0  0  0  0
  188.1420  173.9170  141.6340 C   0  0  0  0  0  2  0  0  0  0  0  0
  193.1720  173.2430  142.8620 C   0  0  0  0  0  0  0  0  0  0  0  0
  193.0000  172.4510  140.5170 C   0  0  0  0  0  1  0  0  0  0  0  0
  191.1310  174.0210  144.0820 N   0  0  0  0  0  0  0  0  0  0  0  0
  190.2190  173.3080  140.4310 C   0  0  1  0  0  3  0  0  0  0  0  0
  188.9430  174.3990  142.8350 C   0  0  0  0  0  2  0  0  0  0  0  0
  188.9550  174.1630  140.3790 C   0  0  1  0  0  3  0  0  0  0  0  0
  190.9960  173.5010  141.7190 C   0  0  0  0  0  0  0  0  0  0  0  0
  194.6010  172.8160  142.9620 C   0  0  1  0  0  3  0  0  0  0  0  0
  189.8990  171.9560  140.2770 O   0  0  0  0  0  1  0  0  0  0  0  0
  195.4010  172.7100  141.8280 O   0  0  0  0  0  1  0  0  0  0  0  0
  194.2880  172.6420  145.3850 C   0  0  0  0  0  3  0  0  0  0  0  0
  192.4280  173.0930  141.7450 C   0  0  0  0  0  0  0  0  0  0  0  0
  192.5960  173.9050  144.0960 C   0  0  0  0  0  0  0  0  0  0  0  0
  196.4880  172.1020  144.2640 N   0  0  0  0  0  2  0  0  0  0  0  0
  197.1120  171.6960  145.5140 C   0  0  0  0  0  2  0  0  0  0  0  0
  196.3090  169.9960  146.7530 O   0  0  0  0  0  1  0  0  0  0  0  0
  197.0490  170.2520  145.6490 N   0  0  0  0  0  2  0  0  0  0  0  0
  190.4670  174.5110  145.2900 C   0  0  0  0  0  2  0  0  0  0  0  0
  191.5170  176.0970  146.9340 C   0  0  0  0  0  2  0  0  0  0  0  0
  190.8580  175.9620  145.5710 C   0  0  2  0  0  3  0  0  0  0  0  0
  189.7320  176.8920  146.0400 C   0  0  1  0  0  0  0  0  0  0  0  0
  190.4090  177.0350  147.3880 C   0  0  0  0  0  2  0  0  0  0  0  0
  189.7840  178.0740  145.3220 F   0  0  0  0  0  0  0  0  0  0  0  0
  187.2530  177.4780  144.1670 C   0  0  0  0  0  0  0  0  0  0  0  0
  187.9480  175.8230  147.2600 O   0  0  0  0  0  0  0  0  0  0  0  0
  187.3860  176.3930  145.0910 N   0  0  0  0  0  2  0  0  0  0  0  0
  188.3250  176.3350  146.1720 C   0  0  0  0  0  0  0  0  0  0  0  0
  187.7730  178.6010  144.4150 O   0  0  0  0  0  0  0  0  0  0  0  0
  186.4330  177.2850  142.9360 C   0  0  0  0  0  3  0  0  0  0  0  0
  187.2440  177.6430  141.6910 C   0  0  0  0  0  2  0  0  0  0  0  0
  186.4010  177.4410  140.4360 C   0  0  0  0  0  2  0  0  0  0  0  0
  184.3210  177.9180  141.7460 C   0  0  0  0  0  2  0  0  0  0  0  0
  185.1560  178.1220  143.0070 C   0  0  0  0  0  2  0  0  0  0  0  0
  185.1340  178.2910  140.5090 C   0  0  0  0  0  2  0  0  0  0  0  0
  1 19  1  0  0  0  0
  1 16  2  0  0  0  0
  2 16  1  0  0  0  0
  3  8  1  0  0  0  0
  5 10  1  0  0  0  0
  6 13  1  0  0  0  0
  6 18  1  0  0  0  0
  7 17  1  0  0  0  0
  8 18  1  0  0  0  0
  8 23  1  0  0  0  0
  9 14  1  1  0  0  0
  9 12  1  0  0  0  0
 10  3  1  0  0  0  0
 11  4  1  6  0  0  0
 11  9  1  0  0  0  0
 11  5  1  0  0  0  0
 12 17  1  0  0  0  0
 12  3  2  0  0  0  0
 13 15  1  1  0  0  0
 13  1  1  0  0  0  0
 17  6  2  0  0  0  0
 18  2  2  0  0  0  0
 19 20  1  0  0  0  0
 20 22  1  0  0  0  0
 22 21  1  0  0  0  0
 24 27  1  0  0  0  0
 25 23  1  1  0  0  0
 25 26  1  0  0  0  0
 25 24  1  0  0  0  0
 26 28  1  6  0  0  0
 26 32  1  0  0  0  0
 26 27  1  0  0  0  0
 29 33  2  0  0  0  0
 29 31  1  0  0  0  0
 31 32  1  0  0  0  0
 32 30  2  0  0  0  0
 34 38  1  0  0  0  0
 34 29  1  0  0  0  0
 35 34  1  0  0  0  0
 36 39  1  0  0  0  0
 36 35  1  0  0  0  0
 37 38  1  0  0  0  0
 39 37  1  0  0  0  0
M  END
>  <MODEL>
6

>  <REMARK>
 VINA RESULT:      -7.5      2.594      6.050
  Name = 
  7 active torsions:
  status: ('A' for Active; 'I' for Inactive)
    1  A    between atoms: C_1  and  C_5
    2  A    between atoms: C_2  and  N_9
    3  A    between atoms: N_9  and  C_39
    4  A    between atoms: C_12  and  C_30
    5  A    between atoms: C_16  and  C_27
    6  A    between atoms: N_20  and  C_39
    7  A    between atoms: N_23  and  C_30
                            x       y       z     vdW  Elec       q    Type
                         _______ _______ _______ _____ _____    ______ ____

>  <TORSDO>
F 7

$$$$
=
 OpenBabel11042415003D

 39 43  0  0  1  0  0  0  0  0999 V2000
  186.6860  176.8770  139.8740 C   0  0  0  0  0  0  0  0  0  0  0  0
  188.2800  176.0070  141.5250 C   0  0  0  0  0  3  0  0  0  0  0  0
  187.4440  177.4040  144.9030 C   0  0  0  0  0  0  0  0  0  0  0  0
  185.2340  179.1520  148.0350 O   0  0  0  0  0  1  0  0  0  0  0  0
  186.9240  177.5950  147.3930 C   0  0  0  0  0  2  0  0  0  0  0  0
  186.5720  177.6960  142.1840 C   0  0  0  0  0  0  0  0  0  0  0  0
  184.4260  178.6650  142.9640 C   0  0  0  0  0  1  0  0  0  0  0  0
  188.2520  176.8580  143.8390 N   0  0  0  0  0  0  0  0  0  0  0  0
  185.3730  178.5490  145.7150 C   0  0  1  0  0  3  0  0  0  0  0  0
  187.9780  177.3480  146.3230 C   0  0  0  0  0  2  0  0  0  0  0  0
  186.1260  178.8270  147.0130 C   0  0  1  0  0  3  0  0  0  0  0  0
  186.2820  178.0370  144.6140 C   0  0  0  0  0  0  0  0  0  0  0  0
  186.1340  177.7270  140.7560 C   0  0  1  0  0  3  0  0  0  0  0  0
  184.3450  177.6280  145.9360 O   0  0  0  0  0  1  0  0  0  0  0  0
  185.1700  178.6310  140.3190 O   0  0  0  0  0  1  0  0  0  0  0  0
  187.7110  175.9050  140.3220 C   0  0  0  0  0  3  0  0  0  0  0  0
  185.8060  178.1320  143.2070 C   0  0  0  0  0  0  0  0  0  0  0  0
  187.9720  177.1720  142.4310 C   0  0  0  0  0  0  0  0  0  0  0  0
  186.2480  176.8850  138.5100 N   0  0  0  0  0  2  0  0  0  0  0  0
  186.7710  175.9840  137.4950 C   0  0  0  0  0  2  0  0  0  0  0  0
  184.6780  175.7330  136.7040 O   0  0  0  0  0  1  0  0  0  0  0  0
  185.9350  176.0400  136.3090 N   0  0  0  0  0  2  0  0  0  0  0  0
  189.5220  176.2080  144.1600 C   0  0  0  0  0  2  0  0  0  0  0  0
  189.8690  174.3080  145.7680 C   0  0  0  0  0  2  0  0  0  0  0  0
  189.3170  174.7150  144.4120 C   0  0  2  0  0  3  0  0  0  0  0  0
  190.3150  173.7670  143.7370 C   0  0  1  0  0  0  0  0  0  0  0  0
  190.8440  173.3530  145.0960 C   0  0  0  0  0  2  0  0  0  0  0  0
  189.6270  172.7310  143.1280 F   0  0  0  0  0  0  0  0  0  0  0  0
  190.8150  173.2160  140.6640 C   0  0  0  0  0  0  0  0  0  0  0  0
  192.4260  174.8800  143.3890 O   0  0  0  0  0  0  0  0  0  0  0  0
  191.3380  174.3050  141.4310 N   0  0  0  0  0  2  0  0  0  0  0  0
  191.4100  174.3530  142.8620 C   0  0  0  0  0  0  0  0  0  0  0  0
  190.6340  172.0840  141.1940 O   0  0  0  0  0  0  0  0  0  0  0  0
  190.5480  173.4150  139.2100 C   0  0  0  0  0  3  0  0  0  0  0  0
  189.2080  172.7920  138.8210 C   0  0  0  0  0  2  0  0  0  0  0  0
  188.9410  173.0020  137.3340 C   0  0  0  0  0  2  0  0  0  0  0  0
  191.4040  173.0330  136.8860 C   0  0  0  0  0  2  0  0  0  0  0  0
  191.6810  172.8230  138.3720 C   0  0  0  0  0  2  0  0  0  0  0  0
  190.0700  172.3960  136.5040 C   0  0  0  0  0  2  0  0  0  0  0  0
  1 16  2  0  0  0  0
  1 13  1  0  0  0  0
  2 18  2  0  0  0  0
  3 10  1  0  0  0  0
  6 18  1  0  0  0  0
  6 17  2  0  0  0  0
  7 17  1  0  0  0  0
  8 23  1  0  0  0  0
  8  3  1  0  0  0  0
  9 14  1  1  0  0  0
  9 11  1  0  0  0  0
 10  5  1  0  0  0  0
 11  5  1  0  0  0  0
 11  4  1  1  0  0  0
 12  3  2  0  0  0  0
 12  9  1  0  0  0  0
 13 15  1  6  0  0  0
 13  6  1  0  0  0  0
 16  2  1  0  0  0  0
 17 12  1  0  0  0  0
 18  8  1  0  0  0  0
 19  1  1  0  0  0  0
 20 19  1  0  0  0  0
 22 21  1  0  0  0  0
 22 20  1  0  0  0  0
 25 23  1  6  0  0  0
 25 24  1  0  0  0  0
 26 28  1  6  0  0  0
 26 25  1  0  0  0  0
 26 27  1  0  0  0  0
 27 24  1  0  0  0  0
 29 33  2  0  0  0  0
 29 31  1  0  0  0  0
 31 32  1  0  0  0  0
 32 30  2  0  0  0  0
 32 26  1  0  0  0  0
 34 29  1  0  0  0  0
 35 34  1  0  0  0  0
 36 35  1  0  0  0  0
 37 38  1  0  0  0  0
 38 34  1  0  0  0  0
 39 37  1  0  0  0  0
 39 36  1  0  0  0  0
M  END
>  <MODEL>
7

>  <REMARK>
 VINA RESULT:      -7.5      2.409      7.494
  Name = 
  7 active torsions:
  status: ('A' for Active; 'I' for Inactive)
    1  A    between atoms: C_1  and  C_5
    2  A    between atoms: C_2  and  N_9
    3  A    between atoms: N_9  and  C_39
    4  A    between atoms: C_12  and  C_30
    5  A    between atoms: C_16  and  C_27
    6  A    between atoms: N_20  and  C_39
    7  A    between atoms: N_23  and  C_30
                            x       y       z     vdW  Elec       q    Type
                         _______ _______ _______ _____ _____    ______ ____

>  <TORSDO>
F 7

$$$$
=
 OpenBabel11042415003D

 39 43  0  0  1  0  0  0  0  0999 V2000
  188.7020  177.1690  142.2040 C   0  0  0  0  0  0  0  0  0  0  0  0
  190.8100  176.1820  142.9810 C   0  0  0  0  0  3  0  0  0  0  0  0
  191.2520  172.8120  141.3970 C   0  0  0  0  0  0  0  0  0  0  0  0
  190.8150  169.6140  138.6890 O   0  0  0  0  0  1  0  0  0  0  0  0
  192.2580  170.8240  140.1540 C   0  0  0  0  0  2  0  0  0  0  0  0
  189.2690  174.8820  141.5180 C   0  0  0  0  0  0  0  0  0  0  0  0
  188.1930  173.9870  139.4700 C   0  0  0  0  0  1  0  0  0  0  0  0
  191.3840  173.8610  142.3790 N   0  0  0  0  0  0  0  0  0  0  0  0
  190.0850  171.7750  139.4420 C   0  0  1  0  0  3  0  0  0  0  0  0
  192.2420  171.6610  141.4250 C   0  0  0  0  0  2  0  0  0  0  0  0
  190.8290  170.4850  139.7790 C   0  0  1  0  0  3  0  0  0  0  0  0
  190.2060  172.8170  140.5370 C   0  0  0  0  0  0  0  0  0  0  0  0
  188.3270  176.0410  141.5770 C   0  0  1  0  0  3  0  0  0  0  0  0
  190.5540  172.3070  138.2380 O   0  0  0  0  0  1  0  0  0  0  0  0
  187.0620  175.9690  141.0000 O   0  0  0  0  0  1  0  0  0  0  0  0
  190.0460  177.2640  142.8190 C   0  0  0  0  0  3  0  0  0  0  0  0
  189.2130  173.9260  140.5660 C   0  0  0  0  0  0  0  0  0  0  0  0
  190.2910  174.8090  142.6330 C   0  0  0  0  0  0  0  0  0  0  0  0
  187.8120  178.2910  142.2370 N   0  0  0  0  0  2  0  0  0  0  0  0
  186.7190  178.4200  143.1900 C   0  0  0  0  0  2  0  0  0  0  0  0
  184.5330  177.8950  143.0700 O   0  0  0  0  0  1  0  0  0  0  0  0
  185.4760  178.6670  142.4820 N   0  0  0  0  0  2  0  0  0  0  0  0
  192.4990  173.8250  143.3260 C   0  0  0  0  0  2  0  0  0  0  0  0
  194.7150  174.0780  142.1660 C   0  0  0  0  0  2  0  0  0  0  0  0
  193.5990  174.7990  142.9030 C   0  0  2  0  0  3  0  0  0  0  0  0
  194.6000  175.2090  143.9900 C   0  0  1  0  0  0  0  0  0  0  0  0
  195.7100  174.5040  143.2360 C   0  0  0  0  0  2  0  0  0  0  0  0
  194.7680  176.5830  143.9650 F   0  0  0  0  0  0  0  0  0  0  0  0
  192.4840  176.0990  146.1640 C   0  0  0  0  0  0  0  0  0  0  0  0
  195.3590  173.9860  145.9250 O   0  0  0  0  0  0  0  0  0  0  0  0
  193.2410  174.8850  146.1580 N   0  0  0  0  0  2  0  0  0  0  0  0
  194.4310  174.6530  145.3940 C   0  0  0  0  0  0  0  0  0  0  0  0
  192.9750  177.1660  145.7020 O   0  0  0  0  0  0  0  0  0  0  0  0
  191.1270  176.1040  146.7850 C   0  0  0  0  0  3  0  0  0  0  0  0
  190.3780  174.8140  146.4470 C   0  0  0  0  0  2  0  0  0  0  0  0
  188.9940  174.8260  147.0870 C   0  0  0  0  0  2  0  0  0  0  0  0
  188.9470  177.3260  146.9650 C   0  0  0  0  0  2  0  0  0  0  0  0
  190.3320  177.3250  146.3240 C   0  0  0  0  0  2  0  0  0  0  0  0
  188.2020  176.0420  146.6110 C   0  0  0  0  0  2  0  0  0  0  0  0
  1 19  1  0  0  0  0
  1 16  2  0  0  0  0
  3 10  1  0  0  0  0
  3  8  1  0  0  0  0
  5 10  1  0  0  0  0
  6 13  1  0  0  0  0
  6 18  1  0  0  0  0
  7 17  1  0  0  0  0
  8 18  1  0  0  0  0
  8 23  1  0  0  0  0
  9 14  1  6  0  0  0
  9 11  1  0  0  0  0
  9 12  1  0  0  0  0
 11  4  1  6  0  0  0
 11  5  1  0  0  0  0
 12 17  1  0  0  0  0
 12  3  2  0  0  0  0
 13 15  1  1  0  0  0
 13  1  1  0  0  0  0
 16  2  1  0  0  0  0
 17  6  2  0  0  0  0
 18  2  2  0  0  0  0
 19 20  1  0  0  0  0
 22 21  1  0  0  0  0
 22 20  1  0  0  0  0
 24 25  1  0  0  0  0
 24 27  1  0  0  0  0
 25 23  1  1  0  0  0
 25 26  1  0  0  0  0
 26 28  1  1  0  0  0
 26 32  1  0  0  0  0
 27 26  1  0  0  0  0
 29 34  1  0  0  0  0
 31 29  1  0  0  0  0
 32 30  2  0  0  0  0
 32 31  1  0  0  0  0
 33 29  2  0  0  0  0
 35 34  1  0  0  0  0
 35 36  1  0  0  0  0
 38 34  1  0  0  0  0
 38 37  1  0  0  0  0
 39 37  1  0  0  0  0
 39 36  1  0  0  0  0
M  END
>  <MODEL>
8

>  <REMARK>
 VINA RESULT:      -7.5      2.508      3.800
  Name = 
  7 active torsions:
  status: ('A' for Active; 'I' for Inactive)
    1  A    between atoms: C_1  and  C_5
    2  A    between atoms: C_2  and  N_9
    3  A    between atoms: N_9  and  C_39
    4  A    between atoms: C_12  and  C_30
    5  A    between atoms: C_16  and  C_27
    6  A    between atoms: N_20  and  C_39
    7  A    between atoms: N_23  and  C_30
                            x       y       z     vdW  Elec       q    Type
                         _______ _______ _______ _____ _____    ______ ____

>  <TORSDO>
F 7

$$$$
=
 OpenBabel11042415003D

 39 43  0  0  1  0  0  0  0  0999 V2000
  187.6030  177.0730  143.3410 C   0  0  0  0  0  0  0  0  0  0  0  0
  189.9970  177.4710  143.7040 C   0  0  0  0  0  3  0  0  0  0  0  0
  191.9630  174.6960  142.1230 C   0  0  0  0  0  0  0  0  0  0  0  0
  192.9350  171.4560  139.6110 O   0  0  0  0  0  1  0  0  0  0  0  0
  193.6850  173.4190  140.7410 C   0  0  0  0  0  2  0  0  0  0  0  0
  189.2160  175.3800  142.5970 C   0  0  0  0  0  0  0  0  0  0  0  0
  188.5040  173.8060  140.8170 C   0  0  0  0  0  1  0  0  0  0  0  0
  191.6490  175.7630  143.0420 N   0  0  0  0  0  0  0  0  0  0  0  0
  191.2680  172.9640  140.4560 C   0  0  1  0  0  3  0  0  0  0  0  0
  193.4110  174.2660  141.9760 C   0  0  0  0  0  2  0  0  0  0  0  0
  192.6390  172.3250  140.6610 C   0  0  1  0  0  3  0  0  0  0  0  0
  190.9660  174.0350  141.4870 C   0  0  0  0  0  0  0  0  0  0  0  0
  187.8160  175.8530  142.8200 C   0  0  1  0  0  3  0  0  0  0  0  0
  191.1740  173.5130  139.1730 O   0  0  0  0  0  1  0  0  0  0  0  0
  186.7270  175.0460  142.5060 O   0  0  0  0  0  1  0  0  0  0  0  0
  188.7510  177.9470  143.6770 C   0  0  0  0  0  3  0  0  0  0  0  0
  189.5470  174.4350  141.6910 C   0  0  0  0  0  0  0  0  0  0  0  0
  190.2700  176.0030  143.4890 C   0  0  0  0  0  0  0  0  0  0  0  0
  186.2620  177.5390  143.5290 N   0  0  0  0  0  2  0  0  0  0  0  0
  185.7000  178.6730  142.8100 C   0  0  0  0  0  2  0  0  0  0  0  0
  184.5760  177.9230  141.0090 O   0  0  0  0  0  1  0  0  0  0  0  0
  185.7730  178.4330  141.3790 N   0  0  0  0  0  2  0  0  0  0  0  0
  192.7310  176.4460  143.7500 C   0  0  0  0  0  2  0  0  0  0  0  0
  192.3470  176.3170  146.2310 C   0  0  0  0  0  2  0  0  0  0  0  0
  193.0780  175.7100  145.0450 C   0  0  2  0  0  3  0  0  0  0  0  0
  194.4150  176.0780  145.6990 C   0  0  1  0  0  0  0  0  0  0  0  0
  193.6760  176.6610  146.8870 C   0  0  0  0  0  2  0  0  0  0  0  0
  195.0910  174.9210  146.0460 F   0  0  0  0  0  0  0  0  0  0  0  0
  196.7960  175.5420  143.6890 C   0  0  0  0  0  0  0  0  0  0  0  0
  195.3620  178.2850  145.4800 O   0  0  0  0  0  0  0  0  0  0  0  0
  196.1130  176.7830  143.8900 N   0  0  0  0  0  2  0  0  0  0  0  0
  195.3050  177.1110  145.0270 C   0  0  0  0  0  0  0  0  0  0  0  0
  196.9640  174.7380  144.6460 O   0  0  0  0  0  0  0  0  0  0  0  0
  197.3670  175.2390  142.3440 C   0  0  0  0  0  3  0  0  0  0  0  0
  196.5960  175.9850  141.2540 C   0  0  0  0  0  2  0  0  0  0  0  0
  197.1870  175.6710  139.8830 C   0  0  0  0  0  2  0  0  0  0  0  0
  197.9360  173.4290  140.7070 C   0  0  0  0  0  2  0  0  0  0  0  0
  197.3480  173.7330  142.0820 C   0  0  0  0  0  2  0  0  0  0  0  0
  197.1530  174.1670  139.6250 C   0  0  0  0  0  2  0  0  0  0  0  0
  1 19  1  0  0  0  0
  1 16  2  0  0  0  0
  3  8  1  0  0  0  0
  5 10  1  0  0  0  0
  6 13  1  0  0  0  0
  6 18  1  0  0  0  0
  7 17  1  0  0  0  0
  8 18  1  0  0  0  0
  8 23  1  0  0  0  0
  9 14  1  6  0  0  0
  9 11  1  0  0  0  0
  9 12  1  0  0  0  0
 10  3  1  0  0  0  0
 11  4  1  6  0  0  0
 11  5  1  0  0  0  0
 12 17  1  0  0  0  0
 12  3  2  0  0  0  0
 13 15  1  1  0  0  0
 13  1  1  0  0  0  0
 16  2  1  0  0  0  0
 17  6  2  0  0  0  0
 18  2  2  0  0  0  0
 20 19  1  0  0  0  0
 21 22  1  0  0  0  0
 22 20  1  0  0  0  0
 24 27  1  0  0  0  0
 25 23  1  6  0  0  0
 25 26  1  0  0  0  0
 25 24  1  0  0  0  0
 26 28  1  1  0  0  0
 26 27  1  0  0  0  0
 29 31  1  0  0  0  0
 29 33  2  0  0  0  0
 31 32  1  0  0  0  0
 32 30  2  0  0  0  0
 32 26  1  0  0  0  0
 34 29  1  0  0  0  0
 35 34  1  0  0  0  0
 36 35  1  0  0  0  0
 37 38  1  0  0  0  0
 38 34  1  0  0  0  0
 39 36  1  0  0  0  0
 39 37  1  0  0  0  0
M  END
>  <MODEL>
9

>  <REMARK>
 VINA RESULT:      -7.5      3.579      6.518
  Name = 
  7 active torsions:
  status: ('A' for Active; 'I' for Inactive)
    1  A    between atoms: C_1  and  C_5
    2  A    between atoms: C_2  and  N_9
    3  A    between atoms: N_9  and  C_39
    4  A    between atoms: C_12  and  C_30
    5  A    between atoms: C_16  and  C_27
    6  A    between atoms: N_20  and  C_39
    7  A    between atoms: N_23  and  C_30
                            x       y       z     vdW  Elec       q    Type
                         _______ _______ _______ _____ _____    ______ ____

>  <TORSDO>
F 7

$$$$
