=
 OpenBabel11042415323D

 47 50  0  0  1  0  0  0  0  0999 V2000
  188.9770  175.3830  143.0660 C   0  0  0  0  0  0  0  0  0  0  0  0
  187.8230  175.5310  142.2130 C   0  0  0  0  0  0  0  0  0  0  0  0
  189.9530  174.8030  142.4550 N   0  0  0  0  0  0  0  0  0  0  0  0
  189.0490  175.8290  144.4220 N   0  0  0  0  0  2  0  0  0  0  0  0
  189.5240  174.4970  141.0930 C   0  0  2  0  0  3  0  0  0  0  0  0
  188.1170  175.0210  141.0300 C   0  0  0  0  0  3  0  0  0  0  0  0
  189.5290  172.9930  140.8800 C   0  0  2  0  0  3  0  0  0  0  0  0
  190.8540  172.5640  140.5890 N   0  0  0  0  0  0  0  0  0  0  0  0
  189.8840  172.6980  139.5350 N   0  0  0  0  0  2  0  0  0  0  0  0
  190.9180  171.1510  140.9260 C   0  0  0  0  0  2  0  0  0  0  0  0
  190.4160  170.9250  142.3440 C   0  0  0  0  0  2  0  0  0  0  0  0
  191.5350  171.1390  143.3630 C   0  0  2  0  0  3  0  0  0  0  0  0
  191.1510  172.1320  144.3620 N   0  0  0  0  0  2  0  0  0  0  0  0
  189.7260  171.9740  144.5980 C   0  0  0  0  0  1  0  0  0  0  0  0
  192.7810  171.4390  142.7630 O   0  0  0  0  0  0  0  0  0  0  0  0
  193.7040  171.7750  143.7660 C   0  0  0  0  0  1  0  0  0  0  0  0
  186.5380  176.2010  142.5630 C   0  0  0  0  0  2  0  0  0  0  0  0
  187.8010  178.5470  141.9950 O   0  0  0  0  0  1  0  0  0  0  0  0
  186.4650  177.8600  141.8230 P   0  0  1  0  0  0  0  0  0  0  0  0
  186.1060  177.7220  140.1750 O   0  0  0  0  0  0  0  0  0  0  0  0
  185.2540  178.7510  142.6100 O   0  0  0  0  0  0  0  0  0  0  0  0
  184.8870  177.9880  143.7180 C   0  0  0  0  0  2  0  0  0  0  0  0
  185.4990  178.5870  144.9690 C   0  0  0  0  0  2  0  0  0  0  0  0
  184.9510  177.9070  146.1740 C   0  0  0  0  0  0  0  0  0  0  0  0
  184.2840  178.5600  147.0170 O   0  0  0  0  0  1  0  0  0  0  0  0
  185.1500  176.5450  146.3550 O   0  0  0  0  0  0  0  0  0  0  0  0
  190.2230  175.6050  145.2580 C   0  0  1  0  0  3  0  0  0  0  0  0
  191.3530  177.0230  146.8130 F   0  0  0  0  0  0  0  0  0  0  0  0
  190.9540  176.9300  145.4890 C   0  0  0  0  0  0  0  0  0  0  0  0
  190.0920  177.9770  145.2030 F   0  0  0  0  0  0  0  0  0  0  0  0
  192.1670  177.0190  144.5620 C   0  0  0  0  0  2  0  0  0  0  0  0
  192.7580  175.6490  144.2490 C   0  0  0  0  0  2  0  0  0  0  0  0
  197.5240  174.3120  141.7620 C   0  0  0  0  0  2  0  0  0  0  0  0
  195.2750  175.3090  144.2430 C   0  0  0  0  0  0  0  0  0  0  0  0
  197.1580  174.2550  143.1410 N   0  0  0  0  0  0  0  0  0  0  0  0
  197.3370  173.0740  143.9390 C   0  0  0  0  0  3  0  0  0  0  0  0
  196.5980  175.5230  143.5600 C   0  0  1  0  0  3  0  0  0  0  0  0
  196.9970  172.9660  145.2300 C   0  0  0  0  0  0  0  0  0  0  0  0
  196.4160  174.1170  146.0110 C   0  0  0  0  0  2  0  0  0  0  0  0
  195.2230  174.6490  145.3610 N   0  0  0  0  0  0  0  0  0  0  0  0
  196.4580  176.3420  142.4190 O   0  0  0  0  0  0  0  0  0  0  0  0
  197.2080  175.7400  141.3830 C   0  0  0  0  0  2  0  0  0  0  0  0
  194.0710  175.7860  143.6320 N   0  0  0  0  0  2  0  0  0  0  0  0
  197.0340  170.4950  145.1940 C   0  0  0  0  0  1  0  0  0  0  0  0
  197.2230  171.7370  145.8570 O   0  0  0  0  0  0  0  0  0  0  0  0
  189.8040  174.9650  146.5810 C   0  0  0  0  0  2  0  0  0  0  0  0
  188.4290  175.4470  147.0010 C   0  0  0  0  0  1  0  0  0  0  0  0
  1  4  1  0  0  0  0
  2 17  1  0  0  0  0
  2  1  1  0  0  0  0
  3  1  2  0  0  0  0
  4 27  1  0  0  0  0
  5  6  1  1  0  0  0
  5  3  1  0  0  0  0
  6  2  2  0  0  0  0
  7  9  1  6  0  0  0
  7  5  1  0  0  0  0
  8  7  1  0  0  0  0
  8 10  1  0  0  0  0
  9  8  1  0  0  0  0
 10 11  1  0  0  0  0
 12 11  1  6  0  0  0
 12 13  1  0  0  0  0
 13 14  1  0  0  0  0
 15 12  1  0  0  0  0
 15 16  1  0  0  0  0
 19 20  2  6  0  0  0
 19 18  1  0  0  0  0
 19 17  1  0  0  0  0
 19 21  1  0  0  0  0
 21 22  1  0  0  0  0
 22 23  1  0  0  0  0
 23 24  1  0  0  0  0
 24 26  2  0  0  0  0
 24 25  1  0  0  0  0
 27 29  1  0  0  0  0
 27 46  1  1  0  0  0
 29 28  1  0  0  0  0
 30 29  1  0  0  0  0
 31 29  1  0  0  0  0
 32 31  1  0  0  0  0
 33 35  1  0  0  0  0
 34 40  2  0  0  0  0
 35 37  1  0  0  0  0
 35 36  1  0  0  0  0
 36 38  2  0  0  0  0
 37 41  1  6  0  0  0
 37 34  1  0  0  0  0
 38 45  1  0  0  0  0
 38 39  1  0  0  0  0
 40 39  1  0  0  0  0
 42 33  1  0  0  0  0
 42 41  1  0  0  0  0
 43 34  1  0  0  0  0
 43 32  1  0  0  0  0
 44 45  1  0  0  0  0
 46 47  1  0  0  0  0
M  END
>  <MODEL>
1

>  <REMARK>
 VINA RESULT:      -6.4      0.000      0.000
  Name = 
  19 active torsions:
  status: ('A' for Active; 'I' for Inactive)
    1  A    between atoms: C_1  and  C_8
    2  A    between atoms: C_5  and  O_33
    3  A    between atoms: C_5  and  C_38
    4  A    between atoms: N_6  and  C_24
    5  A    between atoms: C_7  and  P_10
    6  A    between atoms: C_7  and  C_15
    7  A    between atoms: C_8  and  C_11
    8  A    between atoms: C_8  and  N_43
    9  A    between atoms: P_10  and  O_33
   10  A    between atoms: C_11  and  C_12
   11  A    between atoms: C_12  and  C_42
   12  A    between atoms: C_14  and  C_45
   13  A    between atoms: N_18  and  C_22
   14  A    between atoms: C_19  and  C_38
   15  A    between atoms: C_22  and  C_39
   16  A    between atoms: C_24  and  O_34
   17  A    between atoms: C_24  and  C_39
   18  A    between atoms: C_26  and  O_40
   19  A    between atoms: N_36  and  C_42
                            x       y       z     vdW  Elec       q    Type
                         _______ _______ _______ _____ _____    ______ ____

>  <TORSDO>
F 19

$$$$
=
 OpenBabel11042415323D

 47 50  0  0  1  0  0  0  0  0999 V2000
  188.8480  175.2890  143.4510 C   0  0  0  0  0  0  0  0  0  0  0  0
  187.9370  175.4040  142.3370 C   0  0  0  0  0  0  0  0  0  0  0  0
  189.8560  174.5350  143.1700 N   0  0  0  0  0  0  0  0  0  0  0  0
  188.6720  175.9330  144.7140 N   0  0  0  0  0  2  0  0  0  0  0  0
  189.7040  174.0590  141.7970 C   0  0  2  0  0  3  0  0  0  0  0  0
  188.4210  174.6900  141.3350 C   0  0  0  0  0  3  0  0  0  0  0  0
  189.5720  172.5460  141.7920 C   0  0  2  0  0  3  0  0  0  0  0  0
  190.7330  171.9740  141.2020 N   0  0  0  0  0  0  0  0  0  0  0  0
  189.5080  172.0730  140.4530 N   0  0  0  0  0  2  0  0  0  0  0  0
  190.8190  170.6080  141.6910 C   0  0  0  0  0  2  0  0  0  0  0  0
  192.2730  170.2180  141.9080 C   0  0  0  0  0  2  0  0  0  0  0  0
  192.6500  170.3060  143.3880 C   0  0  2  0  0  3  0  0  0  0  0  0
  192.7730  168.9750  143.9760 N   0  0  0  0  0  2  0  0  0  0  0  0
  193.8060  169.0490  144.9950 C   0  0  0  0  0  1  0  0  0  0  0  0
  191.7820  171.1400  144.1310 O   0  0  0  0  0  0  0  0  0  0  0  0
  192.4560  172.3280  144.4570 C   0  0  0  0  0  1  0  0  0  0  0  0
  186.6990  176.2310  142.2820 C   0  0  0  0  0  2  0  0  0  0  0  0
  188.5460  178.0960  141.5500 O   0  0  0  0  0  1  0  0  0  0  0  0
  187.0520  177.8550  141.5450 P   0  0  1  0  0  0  0  0  0  0  0  0
  186.4790  177.8830  139.9530 O   0  0  0  0  0  0  0  0  0  0  0  0
  186.2740  179.0490  142.4650 O   0  0  0  0  0  0  0  0  0  0  0  0
  186.0350  178.4660  143.7100 C   0  0  0  0  0  2  0  0  0  0  0  0
  185.2550  179.4340  144.5790 C   0  0  0  0  0  2  0  0  0  0  0  0
  185.0590  178.8500  145.9330 C   0  0  0  0  0  0  0  0  0  0  0  0
  184.2690  177.8850  146.0950 O   0  0  0  0  0  0  0  0  0  0  0  0
  185.7720  179.3500  147.0160 O   0  0  0  0  0  1  0  0  0  0  0  0
  189.5970  175.7410  145.8250 C   0  0  1  0  0  3  0  0  0  0  0  0
  190.4000  177.5290  147.1910 F   0  0  0  0  0  0  0  0  0  0  0  0
  190.5310  176.9480  145.9390 C   0  0  0  0  0  0  0  0  0  0  0  0
  190.1830  177.8790  144.9730 F   0  0  0  0  0  0  0  0  0  0  0  0
  191.9760  176.5080  145.7060 C   0  0  0  0  0  2  0  0  0  0  0  0
  192.4330  176.7560  144.2730 C   0  0  0  0  0  2  0  0  0  0  0  0
  197.3930  175.7440  142.0210 C   0  0  0  0  0  2  0  0  0  0  0  0
  194.0330  175.3460  142.8930 C   0  0  0  0  0  0  0  0  0  0  0  0
  196.0930  175.3110  141.6190 N   0  0  0  0  0  0  0  0  0  0  0  0
  195.6070  175.4720  140.2760 C   0  0  0  0  0  3  0  0  0  0  0  0
  195.3940  174.7240  142.7420 C   0  0  1  0  0  3  0  0  0  0  0  0
  194.3940  175.0960  139.8530 C   0  0  0  0  0  0  0  0  0  0  0  0
  193.4020  174.4060  140.7550 C   0  0  0  0  0  2  0  0  0  0  0  0
  193.1440  175.1920  141.9580 N   0  0  0  0  0  0  0  0  0  0  0  0
  196.1760  174.9200  143.9000 O   0  0  0  0  0  0  0  0  0  0  0  0
  197.4630  175.3140  143.4690 C   0  0  0  0  0  2  0  0  0  0  0  0
  193.7380  176.1500  144.0390 N   0  0  0  0  0  2  0  0  0  0  0  0
  193.0500  174.6290  137.8330 C   0  0  0  0  0  1  0  0  0  0  0  0
  194.0700  175.3420  138.5160 O   0  0  0  0  0  0  0  0  0  0  0  0
  188.8140  175.5210  147.1190 C   0  0  0  0  0  2  0  0  0  0  0  0
  187.4600  176.2000  147.0510 C   0  0  0  0  0  1  0  0  0  0  0  0
  1  4  1  0  0  0  0
  2  1  1  0  0  0  0
  3  1  2  0  0  0  0
  4 27  1  0  0  0  0
  5  6  1  1  0  0  0
  5  3  1  0  0  0  0
  6  2  2  0  0  0  0
  7  9  1  6  0  0  0
  7  5  1  0  0  0  0
  8 10  1  0  0  0  0
  8  7  1  0  0  0  0
  9  8  1  0  0  0  0
 10 11  1  0  0  0  0
 12 11  1  6  0  0  0
 12 13  1  0  0  0  0
 12 15  1  0  0  0  0
 13 14  1  0  0  0  0
 15 16  1  0  0  0  0
 17  2  1  0  0  0  0
 19 20  2  6  0  0  0
 19 18  1  0  0  0  0
 19 17  1  0  0  0  0
 19 21  1  0  0  0  0
 21 22  1  0  0  0  0
 22 23  1  0  0  0  0
 23 24  1  0  0  0  0
 24 25  2  0  0  0  0
 24 26  1  0  0  0  0
 27 29  1  0  0  0  0
 27 46  1  1  0  0  0
 29 28  1  0  0  0  0
 30 29  1  0  0  0  0
 31 29  1  0  0  0  0
 32 31  1  0  0  0  0
 33 42  1  0  0  0  0
 34 43  1  0  0  0  0
 35 33  1  0  0  0  0
 35 37  1  0  0  0  0
 36 35  1  0  0  0  0
 37 34  1  1  0  0  0
 37 41  1  0  0  0  0
 38 36  2  0  0  0  0
 38 39  1  0  0  0  0
 39 40  1  0  0  0  0
 40 34  2  0  0  0  0
 42 41  1  0  0  0  0
 43 32  1  0  0  0  0
 44 45  1  0  0  0  0
 45 38  1  0  0  0  0
 47 46  1  0  0  0  0
M  END
>  <MODEL>
2

>  <REMARK>
 VINA RESULT:      -6.3      1.778      2.850
  Name = 
  19 active torsions:
  status: ('A' for Active; 'I' for Inactive)
    1  A    between atoms: C_1  and  C_8
    2  A    between atoms: C_5  and  O_33
    3  A    between atoms: C_5  and  C_38
    4  A    between atoms: N_6  and  C_24
    5  A    between atoms: C_7  and  P_10
    6  A    between atoms: C_7  and  C_15
    7  A    between atoms: C_8  and  C_11
    8  A    between atoms: C_8  and  N_43
    9  A    between atoms: P_10  and  O_33
   10  A    between atoms: C_11  and  C_12
   11  A    between atoms: C_12  and  C_42
   12  A    between atoms: C_14  and  C_45
   13  A    between atoms: N_18  and  C_22
   14  A    between atoms: C_19  and  C_38
   15  A    between atoms: C_22  and  C_39
   16  A    between atoms: C_24  and  O_34
   17  A    between atoms: C_24  and  C_39
   18  A    between atoms: C_26  and  O_40
   19  A    between atoms: N_36  and  C_42
                            x       y       z     vdW  Elec       q    Type
                         _______ _______ _______ _____ _____    ______ ____

>  <TORSDO>
F 19

$$$$
=
 OpenBabel11042415323D

 47 50  0  0  1  0  0  0  0  0999 V2000
  192.5500  173.1700  144.9350 C   0  0  0  0  0  0  0  0  0  0  0  0
  193.3670  171.9800  144.8920 C   0  0  0  0  0  0  0  0  0  0  0  0
  191.5810  173.1150  144.0860 N   0  0  0  0  0  0  0  0  0  0  0  0
  192.7720  174.2760  145.8120 N   0  0  0  0  0  2  0  0  0  0  0  0
  191.6660  171.8440  143.3730 C   0  0  2  0  0  3  0  0  0  0  0  0
  192.8640  171.1680  143.9790 C   0  0  0  0  0  3  0  0  0  0  0  0
  191.9050  172.1010  141.8950 C   0  0  2  0  0  3  0  0  0  0  0  0
  191.2240  171.1130  141.1300 N   0  0  0  0  0  0  0  0  0  0  0  0
  192.6470  171.0260  141.3330 N   0  0  0  0  0  2  0  0  0  0  0  0
  191.0220  171.6790  139.8060 C   0  0  0  0  0  2  0  0  0  0  0  0
  189.5400  171.9060  139.5520 C   0  0  0  0  0  2  0  0  0  0  0  0
  189.2410  173.3900  139.3350 C   0  0  2  0  0  3  0  0  0  0  0  0
  189.8850  173.8810  138.1210 N   0  0  0  0  0  2  0  0  0  0  0  0
  189.1330  173.3570  136.9940 C   0  0  0  0  0  1  0  0  0  0  0  0
  189.5490  174.1870  140.4630 O   0  0  0  0  0  0  0  0  0  0  0  0
  188.3860  174.3620  141.2320 C   0  0  0  0  0  1  0  0  0  0  0  0
  194.5360  171.6710  145.7640 C   0  0  0  0  0  2  0  0  0  0  0  0
  196.2430  173.7890  145.9170 O   0  0  0  0  0  1  0  0  0  0  0  0
  196.0270  172.5070  145.1450 P   0  0  1  0  0  0  0  0  0  0  0  0
  197.3640  171.4890  145.3520 O   0  0  0  0  0  0  0  0  0  0  0  0
  195.8110  172.8550  143.4990 O   0  0  0  0  0  0  0  0  0  0  0  0
  196.4460  174.0800  143.2880 C   0  0  0  0  0  2  0  0  0  0  0  0
  196.1100  174.5910  141.9010 C   0  0  0  0  0  2  0  0  0  0  0  0
  195.5290  175.9570  141.9940 C   0  0  0  0  0  0  0  0  0  0  0  0
  196.1870  176.9500  141.5910 O   0  0  0  0  0  0  0  0  0  0  0  0
  194.2470  176.1360  142.4990 O   0  0  0  0  0  1  0  0  0  0  0  0
  191.9470  175.4780  145.7770 C   0  0  1  0  0  3  0  0  0  0  0  0
  190.8870  176.8640  147.4080 F   0  0  0  0  0  0  0  0  0  0  0  0
  191.0710  175.5430  147.0300 C   0  0  0  0  0  0  0  0  0  0  0  0
  191.7050  174.8650  148.0590 F   0  0  0  0  0  0  0  0  0  0  0  0
  189.7230  174.8770  146.7540 C   0  0  0  0  0  2  0  0  0  0  0  0
  189.0470  175.4340  145.5060 C   0  0  0  0  0  2  0  0  0  0  0  0
  184.2530  178.1920  145.8260 C   0  0  0  0  0  2  0  0  0  0  0  0
  187.5290  177.3840  144.9190 C   0  0  0  0  0  0  0  0  0  0  0  0
  185.2470  178.1900  144.8010 N   0  0  0  0  0  0  0  0  0  0  0  0
  184.9290  177.9610  143.4180 C   0  0  0  0  0  3  0  0  0  0  0  0
  186.5540  178.4350  145.3740 C   0  0  1  0  0  3  0  0  0  0  0  0
  185.8260  177.9350  142.4230 C   0  0  0  0  0  0  0  0  0  0  0  0
  187.2940  178.1930  142.6510 C   0  0  0  0  0  2  0  0  0  0  0  0
  187.8400  177.2910  143.6600 N   0  0  0  0  0  0  0  0  0  0  0  0
  186.4260  178.4380  146.7790 O   0  0  0  0  0  0  0  0  0  0  0  0
  185.0450  178.5270  147.0690 C   0  0  0  0  0  2  0  0  0  0  0  0
  188.0710  176.4560  145.8630 N   0  0  0  0  0  2  0  0  0  0  0  0
  184.1980  178.3170  140.6040 C   0  0  0  0  0  1  0  0  0  0  0  0
  185.3520  177.6810  141.1330 O   0  0  0  0  0  0  0  0  0  0  0  0
  192.8370  176.7150  145.6570 C   0  0  0  0  0  2  0  0  0  0  0  0
  194.1130  176.5390  146.4580 C   0  0  0  0  0  1  0  0  0  0  0  0
  1  4  1  0  0  0  0
  2  1  1  0  0  0  0
  2 17  1  0  0  0  0
  3  1  2  0  0  0  0
  5  6  1  1  0  0  0
  5  3  1  0  0  0  0
  6  2  2  0  0  0  0
  7  9  1  1  0  0  0
  7  5  1  0  0  0  0
  8  9  1  0  0  0  0
  8  7  1  0  0  0  0
 10  8  1  0  0  0  0
 11 10  1  0  0  0  0
 12 11  1  1  0  0  0
 12 15  1  0  0  0  0
 13 12  1  0  0  0  0
 14 13  1  0  0  0  0
 15 16  1  0  0  0  0
 19 20  2  1  0  0  0
 19 17  1  0  0  0  0
 19 18  1  0  0  0  0
 21 19  1  0  0  0  0
 22 21  1  0  0  0  0
 23 24  1  0  0  0  0
 23 22  1  0  0  0  0
 24 26  1  0  0  0  0
 25 24  2  0  0  0  0
 27 46  1  1  0  0  0
 27  4  1  0  0  0  0
 27 29  1  0  0  0  0
 29 28  1  0  0  0  0
 29 30  1  0  0  0  0
 31 29  1  0  0  0  0
 32 43  1  0  0  0  0
 32 31  1  0  0  0  0
 33 42  1  0  0  0  0
 34 43  1  0  0  0  0
 35 37  1  0  0  0  0
 35 33  1  0  0  0  0
 36 35  1  0  0  0  0
 37 34  1  1  0  0  0
 37 41  1  0  0  0  0
 38 39  1  0  0  0  0
 38 36  2  0  0  0  0
 39 40  1  0  0  0  0
 40 34  2  0  0  0  0
 41 42  1  0  0  0  0
 44 45  1  0  0  0  0
 45 38  1  0  0  0  0
 46 47  1  0  0  0  0
M  END
>  <MODEL>
3

>  <REMARK>
 VINA RESULT:      -6.1      2.623      8.895
  Name = 
  19 active torsions:
  status: ('A' for Active; 'I' for Inactive)
    1  A    between atoms: C_1  and  C_8
    2  A    between atoms: C_5  and  O_33
    3  A    between atoms: C_5  and  C_38
    4  A    between atoms: N_6  and  C_24
    5  A    between atoms: C_7  and  P_10
    6  A    between atoms: C_7  and  C_15
    7  A    between atoms: C_8  and  C_11
    8  A    between atoms: C_8  and  N_43
    9  A    between atoms: P_10  and  O_33
   10  A    between atoms: C_11  and  C_12
   11  A    between atoms: C_12  and  C_42
   12  A    between atoms: C_14  and  C_45
   13  A    between atoms: N_18  and  C_22
   14  A    between atoms: C_19  and  C_38
   15  A    between atoms: C_22  and  C_39
   16  A    between atoms: C_24  and  O_34
   17  A    between atoms: C_24  and  C_39
   18  A    between atoms: C_26  and  O_40
   19  A    between atoms: N_36  and  C_42
                            x       y       z     vdW  Elec       q    Type
                         _______ _______ _______ _____ _____    ______ ____

>  <TORSDO>
F 19

$$$$
=
 OpenBabel11042415323D

 47 50  0  0  1  0  0  0  0  0999 V2000
  190.9600  173.5510  144.3820 C   0  0  0  0  0  0  0  0  0  0  0  0
  191.5290  172.2650  144.0560 C   0  0  0  0  0  0  0  0  0  0  0  0
  189.7210  173.6280  144.0340 N   0  0  0  0  0  0  0  0  0  0  0  0
  191.6690  174.6150  145.0210 N   0  0  0  0  0  2  0  0  0  0  0  0
  189.3360  172.3600  143.4210 C   0  0  2  0  0  3  0  0  0  0  0  0
  190.5880  171.5300  143.4900 C   0  0  0  0  0  3  0  0  0  0  0  0
  188.9440  172.5910  141.9710 C   0  0  2  0  0  3  0  0  0  0  0  0
  189.3980  173.8740  141.5600 N   0  0  0  0  0  0  0  0  0  0  0  0
  188.0130  173.6630  141.8900 N   0  0  0  0  0  2  0  0  0  0  0  0
  189.4970  173.8360  140.1110 C   0  0  0  0  0  2  0  0  0  0  0  0
  190.9170  173.4910  139.6890 C   0  0  0  0  0  2  0  0  0  0  0  0
  191.0280  173.3900  138.1660 C   0  0  2  0  0  3  0  0  0  0  0  0
  189.8040  173.8560  137.5210 N   0  0  0  0  0  2  0  0  0  0  0  0
  190.1500  174.2200  136.1570 C   0  0  0  0  0  1  0  0  0  0  0  0
  191.4090  172.1010  137.7240 O   0  0  0  0  0  0  0  0  0  0  0  0
  192.0960  171.4460  138.7590 C   0  0  0  0  0  1  0  0  0  0  0  0
  192.9130  171.8020  144.3580 C   0  0  0  0  0  2  0  0  0  0  0  0
  194.2170  171.0390  142.0910 O   0  0  0  0  0  0  0  0  0  0  0  0
  194.0390  172.2360  142.9980 P   0  0  1  0  0  0  0  0  0  0  0  0
  193.3800  173.5220  142.1170 O   0  0  0  0  0  1  0  0  0  0  0  0
  195.5360  172.6870  143.6570 O   0  0  0  0  0  0  0  0  0  0  0  0
  195.7780  173.9780  143.1860 C   0  0  0  0  0  2  0  0  0  0  0  0
  196.8060  174.6530  144.0720 C   0  0  0  0  0  2  0  0  0  0  0  0
  196.5290  174.3360  145.4990 C   0  0  0  0  0  0  0  0  0  0  0  0
  197.3410  173.6380  146.1580 O   0  0  0  0  0  1  0  0  0  0  0  0
  195.3870  174.8330  146.1130 O   0  0  0  0  0  0  0  0  0  0  0  0
  191.0610  175.9150  145.2790 C   0  0  1  0  0  3  0  0  0  0  0  0
  191.9440  176.9110  147.2630 F   0  0  0  0  0  0  0  0  0  0  0  0
  190.9060  176.1240  146.7880 C   0  0  0  0  0  0  0  0  0  0  0  0
  190.9500  174.8920  147.4210 F   0  0  0  0  0  0  0  0  0  0  0  0
  189.5600  176.7860  147.0820 C   0  0  0  0  0  2  0  0  0  0  0  0
  188.4110  176.1190  146.3340 C   0  0  0  0  0  2  0  0  0  0  0  0
  184.1610  178.4250  143.6310 C   0  0  0  0  0  2  0  0  0  0  0  0
  187.4400  177.6650  144.5680 C   0  0  0  0  0  0  0  0  0  0  0  0
  185.5070  178.1990  143.2090 N   0  0  0  0  0  0  0  0  0  0  0  0
  185.8280  177.5390  141.9740 C   0  0  0  0  0  3  0  0  0  0  0  0
  186.4310  178.7160  144.1970 C   0  0  1  0  0  3  0  0  0  0  0  0
  187.0710  177.2910  141.5420 C   0  0  0  0  0  0  0  0  0  0  0  0
  188.2950  177.7300  142.3070 C   0  0  0  0  0  2  0  0  0  0  0  0
  188.2740  177.2240  143.6750 N   0  0  0  0  0  0  0  0  0  0  0  0
  185.6880  179.1320  145.3210 O   0  0  0  0  0  0  0  0  0  0  0  0
  184.3320  179.1850  144.9260 C   0  0  0  0  0  2  0  0  0  0  0  0
  187.4430  177.1130  145.8890 N   0  0  0  0  0  2  0  0  0  0  0  0
  186.6390  177.1040  139.1170 C   0  0  0  0  0  1  0  0  0  0  0  0
  187.2100  176.6210  140.3240 O   0  0  0  0  0  0  0  0  0  0  0  0
  191.9100  177.0190  144.6500 C   0  0  0  0  0  2  0  0  0  0  0  0
  193.2190  176.4600  144.1280 C   0  0  0  0  0  1  0  0  0  0  0  0
  1  4  1  0  0  0  0
  2 17  1  0  0  0  0
  2  1  1  0  0  0  0
  3  1  2  0  0  0  0
  4 27  1  0  0  0  0
  5  6  1  6  0  0  0
  5  3  1  0  0  0  0
  6  2  2  0  0  0  0
  7  9  1  1  0  0  0
  7  5  1  0  0  0  0
  8  9  1  0  0  0  0
  8  7  1  0  0  0  0
 10  8  1  0  0  0  0
 11 10  1  0  0  0  0
 12 11  1  1  0  0  0
 13 12  1  0  0  0  0
 14 13  1  0  0  0  0
 15 12  1  0  0  0  0
 15 16  1  0  0  0  0
 19 18  2  6  0  0  0
 19 21  1  0  0  0  0
 19 17  1  0  0  0  0
 20 19  1  0  0  0  0
 22 21  1  0  0  0  0
 22 23  1  0  0  0  0
 23 24  1  0  0  0  0
 24 26  2  0  0  0  0
 24 25  1  0  0  0  0
 27 46  1  1  0  0  0
 27 29  1  0  0  0  0
 29 31  1  0  0  0  0
 29 28  1  0  0  0  0
 29 30  1  0  0  0  0
 32 31  1  0  0  0  0
 33 42  1  0  0  0  0
 34 43  1  0  0  0  0
 35 33  1  0  0  0  0
 35 37  1  0  0  0  0
 36 35  1  0  0  0  0
 37 34  1  1  0  0  0
 37 41  1  0  0  0  0
 38 36  2  0  0  0  0
 38 39  1  0  0  0  0
 39 40  1  0  0  0  0
 40 34  2  0  0  0  0
 42 41  1  0  0  0  0
 43 32  1  0  0  0  0
 44 45  1  0  0  0  0
 45 38  1  0  0  0  0
 47 46  1  0  0  0  0
M  END
>  <MODEL>
4

>  <REMARK>
 VINA RESULT:      -5.9      2.589      8.410
  Name = 
  19 active torsions:
  status: ('A' for Active; 'I' for Inactive)
    1  A    between atoms: C_1  and  C_8
    2  A    between atoms: C_5  and  O_33
    3  A    between atoms: C_5  and  C_38
    4  A    between atoms: N_6  and  C_24
    5  A    between atoms: C_7  and  P_10
    6  A    between atoms: C_7  and  C_15
    7  A    between atoms: C_8  and  C_11
    8  A    between atoms: C_8  and  N_43
    9  A    between atoms: P_10  and  O_33
   10  A    between atoms: C_11  and  C_12
   11  A    between atoms: C_12  and  C_42
   12  A    between atoms: C_14  and  C_45
   13  A    between atoms: N_18  and  C_22
   14  A    between atoms: C_19  and  C_38
   15  A    between atoms: C_22  and  C_39
   16  A    between atoms: C_24  and  O_34
   17  A    between atoms: C_24  and  C_39
   18  A    between atoms: C_26  and  O_40
   19  A    between atoms: N_36  and  C_42
                            x       y       z     vdW  Elec       q    Type
                         _______ _______ _______ _____ _____    ______ ____

>  <TORSDO>
F 19

$$$$
=
 OpenBabel11042415323D

 47 50  0  0  1  0  0  0  0  0999 V2000
  189.0400  175.3270  143.1890 C   0  0  0  0  0  0  0  0  0  0  0  0
  187.8360  175.5090  142.4140 C   0  0  0  0  0  0  0  0  0  0  0  0
  189.9810  174.7870  142.4930 N   0  0  0  0  0  0  0  0  0  0  0  0
  189.1880  175.7040  144.5600 N   0  0  0  0  0  2  0  0  0  0  0  0
  189.4740  174.5470  141.1450 C   0  0  2  0  0  3  0  0  0  0  0  0
  188.0620  175.0620  141.1910 C   0  0  0  0  0  3  0  0  0  0  0  0
  189.4740  173.0550  140.8560 C   0  0  2  0  0  3  0  0  0  0  0  0
  189.5950  172.8480  139.4530 N   0  0  0  0  0  0  0  0  0  0  0  0
  188.3180  172.7100  140.1030 N   0  0  0  0  0  2  0  0  0  0  0  0
  190.1240  171.5060  139.2750 C   0  0  0  0  0  2  0  0  0  0  0  0
  191.2410  171.5140  138.2430 C   0  0  0  0  0  2  0  0  0  0  0  0
  190.9830  170.4790  137.1460 C   0  0  2  0  0  3  0  0  0  0  0  0
  191.9870  170.5750  136.0900 N   0  0  0  0  0  2  0  0  0  0  0  0
  193.2310  170.9890  136.7160 C   0  0  0  0  0  1  0  0  0  0  0  0
  189.6640  170.5310  136.6370 O   0  0  0  0  0  0  0  0  0  0  0  0
  189.6170  171.4560  135.5810 C   0  0  0  0  0  1  0  0  0  0  0  0
  186.5700  176.1490  142.8720 C   0  0  0  0  0  2  0  0  0  0  0  0
  187.9380  178.3560  142.0450 O   0  0  0  0  0  0  0  0  0  0  0  0
  186.7410  177.9590  142.8800 P   0  0  1  0  0  0  0  0  0  0  0  0
  185.3420  178.6550  142.2310 O   0  0  0  0  0  1  0  0  0  0  0  0
  186.9600  178.4760  144.4820 O   0  0  0  0  0  0  0  0  0  0  0  0
  185.7350  179.0200  144.8700 C   0  0  0  0  0  2  0  0  0  0  0  0
  185.0720  178.1030  145.8780 C   0  0  0  0  0  2  0  0  0  0  0  0
  185.6830  178.3040  147.2200 C   0  0  0  0  0  0  0  0  0  0  0  0
  186.0270  177.3100  147.9100 O   0  0  0  0  0  1  0  0  0  0  0  0
  185.9000  179.5890  147.7010 O   0  0  0  0  0  0  0  0  0  0  0  0
  190.4110  175.4490  145.3130 C   0  0  1  0  0  3  0  0  0  0  0  0
  191.5150  176.8160  146.9310 F   0  0  0  0  0  0  0  0  0  0  0  0
  191.1280  176.7700  145.6000 C   0  0  0  0  0  0  0  0  0  0  0  0
  190.2590  177.8200  145.3480 F   0  0  0  0  0  0  0  0  0  0  0  0
  192.3480  176.9060  144.6880 C   0  0  0  0  0  2  0  0  0  0  0  0
  193.6600  176.8210  145.4600 C   0  0  0  0  0  2  0  0  0  0  0  0
  196.6630  174.4280  141.4660 C   0  0  0  0  0  2  0  0  0  0  0  0
  195.5750  175.3600  144.6530 C   0  0  0  0  0  0  0  0  0  0  0  0
  196.4640  174.0400  142.8260 N   0  0  0  0  0  0  0  0  0  0  0  0
  196.0520  172.7150  143.1980 C   0  0  0  0  0  3  0  0  0  0  0  0
  196.7260  175.1590  143.7070 C   0  0  1  0  0  3  0  0  0  0  0  0
  195.8390  172.3070  144.4560 C   0  0  0  0  0  0  0  0  0  0  0  0
  196.0560  173.2080  145.6460 C   0  0  0  0  0  2  0  0  0  0  0  0
  195.2850  174.4410  145.5240 N   0  0  0  0  0  0  0  0  0  0  0  0
  196.9400  176.3050  142.9110 O   0  0  0  0  0  0  0  0  0  0  0  0
  197.1370  175.8580  141.5850 C   0  0  0  0  0  2  0  0  0  0  0  0
  194.7680  176.5390  144.5570 N   0  0  0  0  0  2  0  0  0  0  0  0
  194.8480  170.5330  145.8620 C   0  0  0  0  0  1  0  0  0  0  0  0
  195.4230  170.9860  144.6450 O   0  0  0  0  0  0  0  0  0  0  0  0
  190.0780  174.7050  146.6050 C   0  0  0  0  0  2  0  0  0  0  0  0
  188.7220  175.1280  147.1360 C   0  0  0  0  0  1  0  0  0  0  0  0
  1  4  1  0  0  0  0
  2 17  1  0  0  0  0
  2  1  1  0  0  0  0
  3  1  2  0  0  0  0
  4 27  1  0  0  0  0
  5  6  1  1  0  0  0
  5  3  1  0  0  0  0
  6  2  2  0  0  0  0
  7  9  1  6  0  0  0
  7  5  1  0  0  0  0
  8  9  1  0  0  0  0
  8  7  1  0  0  0  0
 10  8  1  0  0  0  0
 11 10  1  0  0  0  0
 12 11  1  1  0  0  0
 13 14  1  0  0  0  0
 13 12  1  0  0  0  0
 15 12  1  0  0  0  0
 16 15  1  0  0  0  0
 17 19  1  0  0  0  0
 19 18  2  6  0  0  0
 19 21  1  0  0  0  0
 20 19  1  0  0  0  0
 21 22  1  0  0  0  0
 22 23  1  0  0  0  0
 23 24  1  0  0  0  0
 24 26  2  0  0  0  0
 24 25  1  0  0  0  0
 27 29  1  0  0  0  0
 27 46  1  1  0  0  0
 29 28  1  0  0  0  0
 30 29  1  0  0  0  0
 31 32  1  0  0  0  0
 31 29  1  0  0  0  0
 33 42  1  0  0  0  0
 33 35  1  0  0  0  0
 34 40  2  0  0  0  0
 35 36  1  0  0  0  0
 35 37  1  0  0  0  0
 36 38  2  0  0  0  0
 37 41  1  6  0  0  0
 37 34  1  0  0  0  0
 38 45  1  0  0  0  0
 38 39  1  0  0  0  0
 40 39  1  0  0  0  0
 42 41  1  0  0  0  0
 43 34  1  0  0  0  0
 43 32  1  0  0  0  0
 45 44  1  0  0  0  0
 46 47  1  0  0  0  0
M  END
>  <MODEL>
5

>  <REMARK>
 VINA RESULT:      -5.9      2.030      2.943
  Name = 
  19 active torsions:
  status: ('A' for Active; 'I' for Inactive)
    1  A    between atoms: C_1  and  C_8
    2  A    between atoms: C_5  and  O_33
    3  A    between atoms: C_5  and  C_38
    4  A    between atoms: N_6  and  C_24
    5  A    between atoms: C_7  and  P_10
    6  A    between atoms: C_7  and  C_15
    7  A    between atoms: C_8  and  C_11
    8  A    between atoms: C_8  and  N_43
    9  A    between atoms: P_10  and  O_33
   10  A    between atoms: C_11  and  C_12
   11  A    between atoms: C_12  and  C_42
   12  A    between atoms: C_14  and  C_45
   13  A    between atoms: N_18  and  C_22
   14  A    between atoms: C_19  and  C_38
   15  A    between atoms: C_22  and  C_39
   16  A    between atoms: C_24  and  O_34
   17  A    between atoms: C_24  and  C_39
   18  A    between atoms: C_26  and  O_40
   19  A    between atoms: N_36  and  C_42
                            x       y       z     vdW  Elec       q    Type
                         _______ _______ _______ _____ _____    ______ ____

>  <TORSDO>
F 19

$$$$
=
 OpenBabel11042415323D

 47 50  0  0  1  0  0  0  0  0999 V2000
  186.2840  177.6830  143.5760 C   0  0  0  0  0  0  0  0  0  0  0  0
  186.9670  177.7390  142.3060 C   0  0  0  0  0  0  0  0  0  0  0  0
  185.0200  177.4710  143.4310 N   0  0  0  0  0  0  0  0  0  0  0  0
  186.9180  177.8330  144.8470 N   0  0  0  0  0  2  0  0  0  0  0  0
  184.7340  177.3650  142.0030 C   0  0  2  0  0  3  0  0  0  0  0  0
  186.0750  177.5470  141.3500 C   0  0  0  0  0  3  0  0  0  0  0  0
  183.7950  178.4850  141.5850 C   0  0  2  0  0  3  0  0  0  0  0  0
  182.6920  177.9350  140.8760 N   0  0  0  0  0  0  0  0  0  0  0  0
  183.7630  178.5830  140.1660 N   0  0  0  0  0  2  0  0  0  0  0  0
  181.6090  178.8990  140.9760 C   0  0  0  0  0  2  0  0  0  0  0  0
  180.3050  178.2770  140.5020 C   0  0  0  0  0  2  0  0  0  0  0  0
  179.4010  177.9270  141.6850 C   0  0  2  0  0  3  0  0  0  0  0  0
  178.2410  177.1570  141.2470 N   0  0  0  0  0  2  0  0  0  0  0  0
  177.7050  177.8200  140.0700 C   0  0  0  0  0  1  0  0  0  0  0  0
  179.0340  179.0570  142.4540 O   0  0  0  0  0  0  0  0  0  0  0  0
  178.4370  178.6230  143.6490 C   0  0  0  0  0  1  0  0  0  0  0  0
  188.4310  177.9130  142.0900 C   0  0  0  0  0  2  0  0  0  0  0  0
  190.7560  176.6440  142.7310 O   0  0  0  0  0  0  0  0  0  0  0  0
  189.3090  176.3510  142.3990 P   0  0  1  0  0  0  0  0  0  0  0  0
  188.5810  175.5490  143.7000 O   0  0  0  0  0  1  0  0  0  0  0  0
  189.2210  175.3930  141.0010 O   0  0  0  0  0  0  0  0  0  0  0  0
  188.3900  174.3230  141.3320 C   0  0  0  0  0  2  0  0  0  0  0  0
  188.5000  173.2500  140.2670 C   0  0  0  0  0  2  0  0  0  0  0  0
  188.8160  173.8740  138.9540 C   0  0  0  0  0  0  0  0  0  0  0  0
  189.9700  173.7650  138.4660 O   0  0  0  0  0  1  0  0  0  0  0  0
  187.8290  174.5530  138.2500 O   0  0  0  0  0  0  0  0  0  0  0  0
  186.1720  177.8210  146.1000 C   0  0  1  0  0  3  0  0  0  0  0  0
  186.6850  176.3280  147.8920 F   0  0  0  0  0  0  0  0  0  0  0  0
  187.1110  177.4860  147.2610 C   0  0  0  0  0  0  0  0  0  0  0  0
  187.0920  178.5290  148.1730 F   0  0  0  0  0  0  0  0  0  0  0  0
  188.5370  177.3110  146.7370 C   0  0  0  0  0  2  0  0  0  0  0  0
  189.0620  175.8950  146.9500 C   0  0  0  0  0  2  0  0  0  0  0  0
  194.1100  176.1940  144.6860 C   0  0  0  0  0  2  0  0  0  0  0  0
  191.2100  174.8440  146.0920 C   0  0  0  0  0  0  0  0  0  0  0  0
  193.1620  175.1250  144.6850 N   0  0  0  0  0  0  0  0  0  0  0  0
  192.7500  174.4610  143.4800 C   0  0  0  0  0  3  0  0  0  0  0  0
  192.7120  174.8570  146.0350 C   0  0  1  0  0  3  0  0  0  0  0  0
  191.8560  173.4660  143.4250 C   0  0  0  0  0  0  0  0  0  0  0  0
  191.2040  172.8950  144.6590 C   0  0  0  0  0  2  0  0  0  0  0  0
  190.5450  173.9370  145.4390 N   0  0  0  0  0  0  0  0  0  0  0  0
  193.2470  175.8500  146.8830 O   0  0  0  0  0  0  0  0  0  0  0  0
  194.2590  176.5160  146.1560 C   0  0  0  0  0  2  0  0  0  0  0  0
  190.5130  175.8610  146.8190 N   0  0  0  0  0  2  0  0  0  0  0  0
  192.3620  173.1750  141.0230 C   0  0  0  0  0  1  0  0  0  0  0  0
  191.5520  172.9390  142.1660 O   0  0  0  0  0  0  0  0  0  0  0  0
  185.4910  179.1730  146.3100 C   0  0  0  0  0  2  0  0  0  0  0  0
  183.9840  179.0390  146.2060 C   0  0  0  0  0  1  0  0  0  0  0  0
  1  4  1  0  0  0  0
  2  1  1  0  0  0  0
  3  1  2  0  0  0  0
  4 27  1  0  0  0  0
  5  6  1  6  0  0  0
  5  3  1  0  0  0  0
  6  2  2  0  0  0  0
  7  9  1  6  0  0  0
  7  5  1  0  0  0  0
  8 10  1  0  0  0  0
  8  7  1  0  0  0  0
  9  8  1  0  0  0  0
 11 10  1  0  0  0  0
 12 11  1  6  0  0  0
 12 15  1  0  0  0  0
 13 12  1  0  0  0  0
 14 13  1  0  0  0  0
 15 16  1  0  0  0  0
 17  2  1  0  0  0  0
 17 19  1  0  0  0  0
 19 18  2  1  0  0  0
 19 20  1  0  0  0  0
 21 22  1  0  0  0  0
 21 19  1  0  0  0  0
 23 22  1  0  0  0  0
 24 23  1  0  0  0  0
 25 24  1  0  0  0  0
 26 24  2  0  0  0  0
 27 46  1  1  0  0  0
 27 29  1  0  0  0  0
 29 28  1  0  0  0  0
 29 30  1  0  0  0  0
 31 32  1  0  0  0  0
 31 29  1  0  0  0  0
 33 42  1  0  0  0  0
 34 43  1  0  0  0  0
 35 33  1  0  0  0  0
 35 37  1  0  0  0  0
 36 35  1  0  0  0  0
 37 34  1  6  0  0  0
 37 41  1  0  0  0  0
 38 36  2  0  0  0  0
 38 39  1  0  0  0  0
 39 40  1  0  0  0  0
 40 34  2  0  0  0  0
 42 41  1  0  0  0  0
 43 32  1  0  0  0  0
 44 45  1  0  0  0  0
 45 38  1  0  0  0  0
 47 46  1  0  0  0  0
M  END
>  <MODEL>
6

>  <REMARK>
 VINA RESULT:      -5.8      4.030      7.701
  Name = 
  19 active torsions:
  status: ('A' for Active; 'I' for Inactive)
    1  A    between atoms: C_1  and  C_8
    2  A    between atoms: C_5  and  O_33
    3  A    between atoms: C_5  and  C_38
    4  A    between atoms: N_6  and  C_24
    5  A    between atoms: C_7  and  P_10
    6  A    between atoms: C_7  and  C_15
    7  A    between atoms: C_8  and  C_11
    8  A    between atoms: C_8  and  N_43
    9  A    between atoms: P_10  and  O_33
   10  A    between atoms: C_11  and  C_12
   11  A    between atoms: C_12  and  C_42
   12  A    between atoms: C_14  and  C_45
   13  A    between atoms: N_18  and  C_22
   14  A    between atoms: C_19  and  C_38
   15  A    between atoms: C_22  and  C_39
   16  A    between atoms: C_24  and  O_34
   17  A    between atoms: C_24  and  C_39
   18  A    between atoms: C_26  and  O_40
   19  A    between atoms: N_36  and  C_42
                            x       y       z     vdW  Elec       q    Type
                         _______ _______ _______ _____ _____    ______ ____

>  <TORSDO>
F 19

$$$$
=
 OpenBabel11042415323D

 47 50  0  0  1  0  0  0  0  0999 V2000
  190.3300  174.6590  144.9440 C   0  0  0  0  0  0  0  0  0  0  0  0
  190.1120  175.1380  146.2870 C   0  0  0  0  0  0  0  0  0  0  0  0
  191.5860  174.5250  144.6810 N   0  0  0  0  0  0  0  0  0  0  0  0
  189.2920  174.3570  144.0090 N   0  0  0  0  0  2  0  0  0  0  0  0
  192.3460  174.9180  145.8650 C   0  0  2  0  0  3  0  0  0  0  0  0
  191.2900  175.2960  146.8650 C   0  0  0  0  0  3  0  0  0  0  0  0
  193.2100  176.1250  145.5400 C   0  0  2  0  0  3  0  0  0  0  0  0
  194.5690  175.7150  145.4340 N   0  0  0  0  0  0  0  0  0  0  0  0
  194.1000  176.3840  146.6190 N   0  0  0  0  0  2  0  0  0  0  0  0
  195.2430  176.7160  144.6240 C   0  0  0  0  0  2  0  0  0  0  0  0
  195.8510  176.0700  143.3890 C   0  0  0  0  0  2  0  0  0  0  0  0
  194.8400  176.0180  142.2420 C   0  0  2  0  0  3  0  0  0  0  0  0
  194.2130  174.7020  142.1570 N   0  0  0  0  0  2  0  0  0  0  0  0
  192.9430  174.8750  141.4740 C   0  0  0  0  0  1  0  0  0  0  0  0
  195.3860  176.4310  141.0040 O   0  0  0  0  0  0  0  0  0  0  0  0
  196.7360  176.0480  140.9480 C   0  0  0  0  0  1  0  0  0  0  0  0
  188.7950  175.3580  146.9510 C   0  0  0  0  0  2  0  0  0  0  0  0
  189.1900  177.9790  147.5820 O   0  0  0  0  0  1  0  0  0  0  0  0
  188.2740  177.0910  146.7700 P   0  0  1  0  0  0  0  0  0  0  0  0
  188.3590  177.5320  145.1380 O   0  0  0  0  0  0  0  0  0  0  0  0
  186.6800  177.2400  147.3310 O   0  0  0  0  0  0  0  0  0  0  0  0
  186.1310  178.3080  146.6210 C   0  0  0  0  0  2  0  0  0  0  0  0
  184.8680  177.8500  145.9190 C   0  0  0  0  0  2  0  0  0  0  0  0
  184.8590  178.3530  144.5180 C   0  0  0  0  0  0  0  0  0  0  0  0
  184.9430  177.5440  143.5590 O   0  0  0  0  0  0  0  0  0  0  0  0
  184.7290  179.7130  144.2680 O   0  0  0  0  0  1  0  0  0  0  0  0
  189.5700  173.9260  142.6440 C   0  0  1  0  0  3  0  0  0  0  0  0
  188.0910  172.3000  141.7100 F   0  0  0  0  0  0  0  0  0  0  0  0
  189.2290  172.4420  142.4890 C   0  0  0  0  0  0  0  0  0  0  0  0
  188.9860  171.9020  143.7420 F   0  0  0  0  0  0  0  0  0  0  0  0
  190.4060  171.7060  141.8500 C   0  0  0  0  0  2  0  0  0  0  0  0
  190.2850  171.6260  140.3320 C   0  0  0  0  0  2  0  0  0  0  0  0
  194.0190  174.9120  137.8920 C   0  0  0  0  0  2  0  0  0  0  0  0
  191.6020  172.4240  138.3120 C   0  0  0  0  0  0  0  0  0  0  0  0
  192.8920  174.2280  137.3390 N   0  0  0  0  0  0  0  0  0  0  0  0
  191.9030  174.8940  136.5380 C   0  0  0  0  0  3  0  0  0  0  0  0
  192.9220  172.8320  137.7190 C   0  0  1  0  0  3  0  0  0  0  0  0
  190.8240  174.3020  136.0100 C   0  0  0  0  0  0  0  0  0  0  0  0
  190.5520  172.8270  136.1710 C   0  0  0  0  0  2  0  0  0  0  0  0
  190.5290  172.4440  137.5780 N   0  0  0  0  0  0  0  0  0  0  0  0
  193.9750  172.6480  138.6410 O   0  0  0  0  0  0  0  0  0  0  0  0
  194.7810  173.8070  138.5860 C   0  0  0  0  0  2  0  0  0  0  0  0
  191.5190  172.0660  139.6960 N   0  0  0  0  0  2  0  0  0  0  0  0
  188.5940  175.3010  135.6450 C   0  0  0  0  0  1  0  0  0  0  0  0
  189.9480  175.0990  135.2680 O   0  0  0  0  0  0  0  0  0  0  0  0
  188.7770  174.7840  141.6580 C   0  0  0  0  0  2  0  0  0  0  0  0
  187.6180  175.4720  142.3540 C   0  0  0  0  0  1  0  0  0  0  0  0
  1  2  1  0  0  0  0
  2  6  2  0  0  0  0
  2 17  1  0  0  0  0
  3  1  2  0  0  0  0
  3  5  1  0  0  0  0
  4  1  1  0  0  0  0
  5  6  1  1  0  0  0
  7  5  1  0  0  0  0
  7  9  1  1  0  0  0
  8  7  1  0  0  0  0
  8  9  1  0  0  0  0
 10  8  1  0  0  0  0
 11 10  1  0  0  0  0
 12 11  1  1  0  0  0
 13 12  1  0  0  0  0
 14 13  1  0  0  0  0
 15 12  1  0  0  0  0
 16 15  1  0  0  0  0
 19 20  2  6  0  0  0
 19 17  1  0  0  0  0
 19 21  1  0  0  0  0
 19 18  1  0  0  0  0
 22 21  1  0  0  0  0
 23 22  1  0  0  0  0
 24 23  1  0  0  0  0
 25 24  2  0  0  0  0
 26 24  1  0  0  0  0
 27 46  1  6  0  0  0
 27  4  1  0  0  0  0
 28 29  1  0  0  0  0
 29 27  1  0  0  0  0
 29 30  1  0  0  0  0
 31 29  1  0  0  0  0
 32 31  1  0  0  0  0
 33 42  1  0  0  0  0
 34 43  1  0  0  0  0
 35 37  1  0  0  0  0
 35 33  1  0  0  0  0
 36 35  1  0  0  0  0
 37 34  1  1  0  0  0
 37 41  1  0  0  0  0
 38 39  1  0  0  0  0
 38 36  2  0  0  0  0
 39 40  1  0  0  0  0
 40 34  2  0  0  0  0
 42 41  1  0  0  0  0
 43 32  1  0  0  0  0
 45 44  1  0  0  0  0
 45 38  1  0  0  0  0
 46 47  1  0  0  0  0
M  END
>  <MODEL>
7

>  <REMARK>
 VINA RESULT:      -5.6      3.188      6.665
  Name = 
  19 active torsions:
  status: ('A' for Active; 'I' for Inactive)
    1  A    between atoms: C_1  and  C_8
    2  A    between atoms: C_5  and  O_33
    3  A    between atoms: C_5  and  C_38
    4  A    between atoms: N_6  and  C_24
    5  A    between atoms: C_7  and  P_10
    6  A    between atoms: C_7  and  C_15
    7  A    between atoms: C_8  and  C_11
    8  A    between atoms: C_8  and  N_43
    9  A    between atoms: P_10  and  O_33
   10  A    between atoms: C_11  and  C_12
   11  A    between atoms: C_12  and  C_42
   12  A    between atoms: C_14  and  C_45
   13  A    between atoms: N_18  and  C_22
   14  A    between atoms: C_19  and  C_38
   15  A    between atoms: C_22  and  C_39
   16  A    between atoms: C_24  and  O_34
   17  A    between atoms: C_24  and  C_39
   18  A    between atoms: C_26  and  O_40
   19  A    between atoms: N_36  and  C_42
                            x       y       z     vdW  Elec       q    Type
                         _______ _______ _______ _____ _____    ______ ____

>  <TORSDO>
F 19

$$$$
=
 OpenBabel11042415323D

 47 50  0  0  1  0  0  0  0  0999 V2000
  192.2300  174.6860  143.5410 C   0  0  0  0  0  0  0  0  0  0  0  0
  192.1690  173.7770  142.4210 C   0  0  0  0  0  0  0  0  0  0  0  0
  192.9850  175.7010  143.2930 N   0  0  0  0  0  0  0  0  0  0  0  0
  191.5350  174.5010  144.7760 N   0  0  0  0  0  2  0  0  0  0  0  0
  193.5190  175.5570  141.9410 C   0  0  2  0  0  3  0  0  0  0  0  0
  192.9190  174.2690  141.4510 C   0  0  0  0  0  3  0  0  0  0  0  0
  195.0320  175.4380  141.9990 C   0  0  2  0  0  3  0  0  0  0  0  0
  195.4870  175.8430  143.2850 N   0  0  0  0  0  0  0  0  0  0  0  0
  195.6110  176.7270  142.1560 N   0  0  0  0  0  2  0  0  0  0  0  0
  196.7880  175.2240  143.4790 C   0  0  0  0  0  2  0  0  0  0  0  0
  196.8470  173.8860  142.7590 C   0  0  0  0  0  2  0  0  0  0  0  0
  196.7260  172.7240  143.7470 C   0  0  2  0  0  3  0  0  0  0  0  0
  197.6810  171.6670  143.4300 N   0  0  0  0  0  2  0  0  0  0  0  0
  197.3460  171.1670  142.1080 C   0  0  0  0  0  1  0  0  0  0  0  0
  195.4040  172.2340  143.8640 O   0  0  0  0  0  0  0  0  0  0  0  0
  194.9170  172.5320  145.1480 C   0  0  0  0  0  1  0  0  0  0  0  0
  191.3550  172.5320  142.3290 C   0  0  0  0  0  2  0  0  0  0  0  0
  188.6710  172.4230  142.7840 O   0  0  0  0  0  1  0  0  0  0  0  0
  189.6710  172.9140  141.7610 P   0  0  1  0  0  0  0  0  0  0  0  0
  189.5120  174.5890  141.5730 O   0  0  0  0  0  0  0  0  0  0  0  0
  189.4080  172.1330  140.2780 O   0  0  0  0  0  0  0  0  0  0  0  0
  190.6650  172.0330  139.6800 C   0  0  0  0  0  2  0  0  0  0  0  0
  190.7970  173.0910  138.6020 C   0  0  0  0  0  2  0  0  0  0  0  0
  189.5620  173.1230  137.7730 C   0  0  0  0  0  0  0  0  0  0  0  0
  189.3470  172.2170  136.9280 O   0  0  0  0  0  0  0  0  0  0  0  0
  188.6300  174.1370  137.9520 O   0  0  0  0  0  1  0  0  0  0  0  0
  191.6740  175.4250  145.8970 C   0  0  1  0  0  3  0  0  0  0  0  0
  190.9470  175.2500  148.1650 F   0  0  0  0  0  0  0  0  0  0  0  0
  190.4930  175.2570  146.8560 C   0  0  0  0  0  0  0  0  0  0  0  0
  189.8640  174.0520  146.5900 F   0  0  0  0  0  0  0  0  0  0  0  0
  189.4920  176.3950  146.6470 C   0  0  0  0  0  2  0  0  0  0  0  0
  188.3990  176.0280  145.6490 C   0  0  0  0  0  2  0  0  0  0  0  0
  183.6900  178.6620  144.3920 C   0  0  0  0  0  2  0  0  0  0  0  0
  187.0970  177.8970  144.5250 C   0  0  0  0  0  0  0  0  0  0  0  0
  184.9390  178.6280  143.7000 N   0  0  0  0  0  0  0  0  0  0  0  0
  185.0390  178.3110  142.3030 C   0  0  0  0  0  3  0  0  0  0  0  0
  186.0210  178.9440  144.6100 C   0  0  1  0  0  3  0  0  0  0  0  0
  186.1860  178.2530  141.6140 C   0  0  0  0  0  0  0  0  0  0  0  0
  187.5220  178.5650  142.2390 C   0  0  0  0  0  2  0  0  0  0  0  0
  187.7610  177.7390  143.4190 N   0  0  0  0  0  0  0  0  0  0  0  0
  185.4890  179.0250  145.9150 O   0  0  0  0  0  0  0  0  0  0  0  0
  184.0830  179.0910  145.7860 C   0  0  0  0  0  2  0  0  0  0  0  0
  187.3510  177.0410  145.6430 N   0  0  0  0  0  2  0  0  0  0  0  0
  186.9190  176.8950  139.6830 C   0  0  0  0  0  1  0  0  0  0  0  0
  186.1100  177.9100  140.2610 O   0  0  0  0  0  0  0  0  0  0  0  0
  193.0050  175.1810  146.6070 C   0  0  0  0  0  2  0  0  0  0  0  0
  193.8350  176.4490  146.6450 C   0  0  0  0  0  1  0  0  0  0  0  0
  1  4  1  0  0  0  0
  2  1  1  0  0  0  0
  3  1  2  0  0  0  0
  4 27  1  0  0  0  0
  5  6  1  1  0  0  0
  5  7  1  0  0  0  0
  5  3  1  0  0  0  0
  6  2  2  0  0  0  0
  7  9  1  6  0  0  0
  7  8  1  0  0  0  0
  8 10  1  0  0  0  0
  9  8  1  0  0  0  0
 11 10  1  0  0  0  0
 12 11  1  6  0  0  0
 12 15  1  0  0  0  0
 13 12  1  0  0  0  0
 14 13  1  0  0  0  0
 15 16  1  0  0  0  0
 17  2  1  0  0  0  0
 19 20  2  6  0  0  0
 19 17  1  0  0  0  0
 19 18  1  0  0  0  0
 21 19  1  0  0  0  0
 22 21  1  0  0  0  0
 23 22  1  0  0  0  0
 24 26  1  0  0  0  0
 24 23  1  0  0  0  0
 25 24  2  0  0  0  0
 27 46  1  1  0  0  0
 27 29  1  0  0  0  0
 29 28  1  0  0  0  0
 30 29  1  0  0  0  0
 31 29  1  0  0  0  0
 32 31  1  0  0  0  0
 33 42  1  0  0  0  0
 34 43  1  0  0  0  0
 35 33  1  0  0  0  0
 35 37  1  0  0  0  0
 36 35  1  0  0  0  0
 37 34  1  1  0  0  0
 37 41  1  0  0  0  0
 38 39  1  0  0  0  0
 38 36  2  0  0  0  0
 39 40  1  0  0  0  0
 40 34  2  0  0  0  0
 42 41  1  0  0  0  0
 43 32  1  0  0  0  0
 44 45  1  0  0  0  0
 45 38  1  0  0  0  0
 46 47  1  0  0  0  0
M  END
>  <MODEL>
8

>  <REMARK>
 VINA RESULT:      -5.5      2.770      8.264
  Name = 
  19 active torsions:
  status: ('A' for Active; 'I' for Inactive)
    1  A    between atoms: C_1  and  C_8
    2  A    between atoms: C_5  and  O_33
    3  A    between atoms: C_5  and  C_38
    4  A    between atoms: N_6  and  C_24
    5  A    between atoms: C_7  and  P_10
    6  A    between atoms: C_7  and  C_15
    7  A    between atoms: C_8  and  C_11
    8  A    between atoms: C_8  and  N_43
    9  A    between atoms: P_10  and  O_33
   10  A    between atoms: C_11  and  C_12
   11  A    between atoms: C_12  and  C_42
   12  A    between atoms: C_14  and  C_45
   13  A    between atoms: N_18  and  C_22
   14  A    between atoms: C_19  and  C_38
   15  A    between atoms: C_22  and  C_39
   16  A    between atoms: C_24  and  O_34
   17  A    between atoms: C_24  and  C_39
   18  A    between atoms: C_26  and  O_40
   19  A    between atoms: N_36  and  C_42
                            x       y       z     vdW  Elec       q    Type
                         _______ _______ _______ _____ _____    ______ ____

>  <TORSDO>
F 19

$$$$
=
 OpenBabel11042415323D

 47 50  0  0  1  0  0  0  0  0999 V2000
  189.0450  175.2970  143.5180 C   0  0  0  0  0  0  0  0  0  0  0  0
  188.0310  175.3580  142.4930 C   0  0  0  0  0  0  0  0  0  0  0  0
  190.1600  174.8370  143.0610 N   0  0  0  0  0  0  0  0  0  0  0  0
  188.8550  175.7010  144.8750 N   0  0  0  0  0  2  0  0  0  0  0  0
  189.9850  174.5370  141.6420 C   0  0  2  0  0  3  0  0  0  0  0  0
  188.5590  174.9200  141.3640 C   0  0  0  0  0  3  0  0  0  0  0  0
  190.1800  173.0490  141.4070 C   0  0  2  0  0  3  0  0  0  0  0  0
  190.3980  172.8170  140.0200 N   0  0  0  0  0  0  0  0  0  0  0  0
  189.1150  172.5440  140.6110 N   0  0  0  0  0  2  0  0  0  0  0  0
  191.0920  171.5440  139.9150 C   0  0  0  0  0  2  0  0  0  0  0  0
  192.1000  171.5870  138.7760 C   0  0  0  0  0  2  0  0  0  0  0  0
  191.4010  171.4780  137.4200 C   0  0  2  0  0  3  0  0  0  0  0  0
  191.0450  172.7980  136.9080 N   0  0  0  0  0  2  0  0  0  0  0  0
  189.7880  172.6570  136.1930 C   0  0  0  0  0  1  0  0  0  0  0  0
  190.2950  170.5950  137.4370 O   0  0  0  0  0  0  0  0  0  0  0  0
  190.7520  169.2850  137.2220 C   0  0  0  0  0  1  0  0  0  0  0  0
  186.6440  175.8840  142.6440 C   0  0  0  0  0  2  0  0  0  0  0  0
  187.8950  178.2990  142.4690 O   0  0  0  0  0  1  0  0  0  0  0  0
  186.5720  177.6340  142.1570 P   0  0  1  0  0  0  0  0  0  0  0  0
  186.2650  177.7390  140.4950 O   0  0  0  0  0  0  0  0  0  0  0  0
  185.3280  178.3900  143.0280 O   0  0  0  0  0  0  0  0  0  0  0  0
  185.9500  179.3890  143.7780 C   0  0  0  0  0  2  0  0  0  0  0  0
  186.1270  178.9120  145.2060 C   0  0  0  0  0  2  0  0  0  0  0  0
  184.8630  178.2960  145.6930 C   0  0  0  0  0  0  0  0  0  0  0  0
  184.8550  177.1010  146.0850 O   0  0  0  0  0  1  0  0  0  0  0  0
  183.6970  179.0480  145.7420 O   0  0  0  0  0  0  0  0  0  0  0  0
  189.9000  175.5680  145.8840 C   0  0  1  0  0  3  0  0  0  0  0  0
  190.0560  177.5830  147.1570 F   0  0  0  0  0  0  0  0  0  0  0  0
  190.6080  176.9110  146.0780 C   0  0  0  0  0  0  0  0  0  0  0  0
  190.4410  177.6780  144.9360 F   0  0  0  0  0  0  0  0  0  0  0  0
  192.1020  176.6790  146.3050 C   0  0  0  0  0  2  0  0  0  0  0  0
  192.8740  176.5540  144.9960 C   0  0  0  0  0  2  0  0  0  0  0  0
  197.6980  173.9830  144.0940 C   0  0  0  0  0  2  0  0  0  0  0  0
  194.2570  174.5860  144.1790 C   0  0  0  0  0  0  0  0  0  0  0  0
  196.4380  173.8320  143.4390 N   0  0  0  0  0  0  0  0  0  0  0  0
  196.2980  173.8970  142.0100 C   0  0  0  0  0  3  0  0  0  0  0  0
  195.3900  173.6260  144.4170 C   0  0  1  0  0  3  0  0  0  0  0  0
  195.1390  173.7760  141.3510 C   0  0  0  0  0  0  0  0  0  0  0  0
  193.8320  173.5100  142.0550 C   0  0  0  0  0  2  0  0  0  0  0  0
  193.5680  174.5150  143.0790 N   0  0  0  0  0  0  0  0  0  0  0  0
  195.9460  173.7990  145.7020 O   0  0  0  0  0  0  0  0  0  0  0  0
  197.3510  173.7830  145.5510 C   0  0  0  0  0  2  0  0  0  0  0  0
  193.9750  175.6100  145.1380 N   0  0  0  0  0  2  0  0  0  0  0  0
  194.6700  175.0140  139.2640 C   0  0  0  0  0  1  0  0  0  0  0  0
  195.1740  173.8810  139.9580 O   0  0  0  0  0  0  0  0  0  0  0  0
  189.2940  175.0660  147.1950 C   0  0  0  0  0  2  0  0  0  0  0  0
  187.8980  175.6250  147.3920 C   0  0  0  0  0  1  0  0  0  0  0  0
  1  4  1  0  0  0  0
  2 17  1  0  0  0  0
  2  1  1  0  0  0  0
  3  1  2  0  0  0  0
  4 27  1  0  0  0  0
  5  6  1  1  0  0  0
  5  3  1  0  0  0  0
  6  2  2  0  0  0  0
  7  9  1  6  0  0  0
  7  5  1  0  0  0  0
  8  9  1  0  0  0  0
  8  7  1  0  0  0  0
 10  8  1  0  0  0  0
 11 10  1  0  0  0  0
 12 15  1  0  0  0  0
 12 11  1  1  0  0  0
 13 12  1  0  0  0  0
 14 13  1  0  0  0  0
 16 15  1  0  0  0  0
 19 20  2  6  0  0  0
 19 18  1  0  0  0  0
 19 17  1  0  0  0  0
 19 21  1  0  0  0  0
 21 22  1  0  0  0  0
 22 23  1  0  0  0  0
 23 24  1  0  0  0  0
 24 26  2  0  0  0  0
 24 25  1  0  0  0  0
 27 29  1  0  0  0  0
 27 46  1  1  0  0  0
 29 31  1  0  0  0  0
 29 28  1  0  0  0  0
 30 29  1  0  0  0  0
 32 43  1  0  0  0  0
 32 31  1  0  0  0  0
 33 42  1  0  0  0  0
 34 43  1  0  0  0  0
 35 33  1  0  0  0  0
 35 37  1  0  0  0  0
 36 35  1  0  0  0  0
 37 34  1  6  0  0  0
 37 41  1  0  0  0  0
 38 36  2  0  0  0  0
 38 39  1  0  0  0  0
 39 40  1  0  0  0  0
 40 34  2  0  0  0  0
 42 41  1  0  0  0  0
 44 45  1  0  0  0  0
 45 38  1  0  0  0  0
 46 47  1  0  0  0  0
M  END
>  <MODEL>
9

>  <REMARK>
 VINA RESULT:      -5.4      1.950      3.322
  Name = 
  19 active torsions:
  status: ('A' for Active; 'I' for Inactive)
    1  A    between atoms: C_1  and  C_8
    2  A    between atoms: C_5  and  O_33
    3  A    between atoms: C_5  and  C_38
    4  A    between atoms: N_6  and  C_24
    5  A    between atoms: C_7  and  P_10
    6  A    between atoms: C_7  and  C_15
    7  A    between atoms: C_8  and  C_11
    8  A    between atoms: C_8  and  N_43
    9  A    between atoms: P_10  and  O_33
   10  A    between atoms: C_11  and  C_12
   11  A    between atoms: C_12  and  C_42
   12  A    between atoms: C_14  and  C_45
   13  A    between atoms: N_18  and  C_22
   14  A    between atoms: C_19  and  C_38
   15  A    between atoms: C_22  and  C_39
   16  A    between atoms: C_24  and  O_34
   17  A    between atoms: C_24  and  C_39
   18  A    between atoms: C_26  and  O_40
   19  A    between atoms: N_36  and  C_42
                            x       y       z     vdW  Elec       q    Type
                         _______ _______ _______ _____ _____    ______ ____

>  <TORSDO>
F 19

$$$$
