=
 OpenBabel11042414593D

 39 42  0  0  1  0  0  0  0  0999 V2000
  188.5020  175.8660  145.6770 C   0  0  1  0  0  3  0  0  0  0  0  0
  190.2850  172.7320  143.3750 C   0  0  0  0  0  0  0  0  0  0  0  0
  188.9770  174.7640  143.4790 C   0  0  0  0  0  3  0  0  0  0  0  0
  189.6090  173.4810  141.4030 C   0  0  0  0  0  0  0  0  0  0  0  0
  189.1210  174.7550  144.8790 C   0  0  0  0  0  0  0  0  0  0  0  0
  188.9810  174.2960  140.3230 C   0  0  0  0  0  1  0  0  0  0  0  0
  190.3520  172.3150  141.2540 C   0  0  0  0  0  0  0  0  0  0  0  0
  190.7640  171.8610  142.4640 N   0  0  0  0  0  0  0  0  0  0  0  0
  190.4520  172.6980  144.7600 C   0  0  0  0  0  3  0  0  0  0  0  0
  190.6680  171.6530  139.9530 C   0  0  0  0  0  1  0  0  0  0  0  0
  189.5750  173.7330  142.7590 C   0  0  0  0  0  0  0  0  0  0  0  0
  189.8610  173.7270  145.5130 C   0  0  0  0  0  3  0  0  0  0  0  0
  191.5450  170.6570  142.7280 C   0  0  0  0  0  2  0  0  0  0  0  0
  193.0180  171.0020  142.9240 C   0  0  0  0  0  2  0  0  0  0  0  0
  193.9720  171.8310  145.0770 C   0  0  0  0  0  1  0  0  0  0  0  0
  193.5030  170.6090  144.3110 C   0  0  0  0  0  2  0  0  0  0  0  0
  189.1120  175.9490  146.9970 N   0  0  0  0  0  2  0  0  0  0  0  0
  190.0230  177.0840  146.9890 C   0  0  0  0  0  2  0  0  0  0  0  0
  191.2170  176.8130  147.8960 C   0  0  0  0  0  2  0  0  0  0  0  0
  192.0610  175.6540  147.3780 C   0  0  0  0  0  2  0  0  0  0  0  0
  192.7950  176.0220  146.0940 C   0  0  0  0  0  2  0  0  0  0  0  0
  194.6240  177.4540  146.5940 O   0  0  0  0  0  0  0  0  0  0  0  0
  194.2500  176.2780  146.3420 C   0  0  0  0  0  0  0  0  0  0  0  0
  195.2410  175.2550  146.1650 N   0  0  0  0  0  0  0  0  0  0  0  0
  195.9390  174.9860  145.0990 C   0  0  0  0  0  3  0  0  0  0  0  0
  196.2690  176.6890  143.4600 O   0  0  0  0  0  0  0  0  0  0  0  0
  194.8330  174.9200  142.8020 C   0  0  0  0  0  1  0  0  0  0  0  0
  195.7480  175.5850  143.7670 C   0  0  0  0  0  0  0  0  0  0  0  0
  188.6370  177.2070  144.9630 C   0  0  0  0  0  2  0  0  0  0  0  0
  184.9440  178.0470  140.4070 C   0  0  0  0  0  3  0  0  0  0  0  0
  186.4890  178.2330  145.4210 N   0  0  0  0  0  0  0  0  0  0  0  0
  187.0830  177.5600  143.1380 N   0  0  0  0  0  2  0  0  0  0  0  0
  185.2760  178.7720  145.3640 N   0  0  0  0  0  2  0  0  0  0  0  0
  187.3100  177.6860  144.4770 C   0  0  0  0  0  0  0  0  0  0  0  0
  186.1500  177.5970  140.9240 C   0  0  0  0  0  3  0  0  0  0  0  0
  184.1660  178.5590  141.3830 N   0  0  0  0  0  2  0  0  0  0  0  0
  184.8740  178.4340  142.5150 C   0  0  0  0  0  0  0  0  0  0  0  0
  184.3200  178.9540  144.0060 S   0  0  0  0  0  0  0  0  0  0  0  0
  186.0820  177.8560  142.2760 C   0  0  0  0  0  0  0  0  0  0  0  0
  1 29  1  6  0  0  0
  1 17  1  0  0  0  0
  2  9  1  0  0  0  0
  3  5  2  0  0  0  0
  4 11  1  0  0  0  0
  5 12  1  0  0  0  0
  5  1  1  0  0  0  0
  6  4  1  0  0  0  0
  7  4  2  0  0  0  0
  7  8  1  0  0  0  0
  8 13  1  0  0  0  0
  8  2  1  0  0  0  0
  9 12  2  0  0  0  0
 10  7  1  0  0  0  0
 11  2  2  0  0  0  0
 11  3  1  0  0  0  0
 13 14  1  0  0  0  0
 14 16  1  0  0  0  0
 16 15  1  0  0  0  0
 18 17  1  0  0  0  0
 18 19  1  0  0  0  0
 20 19  1  0  0  0  0
 21 23  1  0  0  0  0
 21 20  1  0  0  0  0
 23 22  2  0  0  0  0
 24 23  1  0  0  0  0
 25 24  2  0  0  0  0
 26 28  2  0  0  0  0
 27 28  1  0  0  0  0
 28 25  1  0  0  0  0
 30 35  2  0  0  0  0
 30 36  1  0  0  0  0
 32 34  1  0  0  0  0
 33 31  1  0  0  0  0
 34 29  1  0  0  0  0
 34 31  2  0  0  0  0
 35 39  1  0  0  0  0
 36 37  1  0  0  0  0
 37 38  1  0  0  0  0
 38 33  1  0  0  0  0
 39 37  2  0  0  0  0
 39 32  1  0  0  0  0
M  END
>  <MODEL>
1

>  <REMARK>
 VINA RESULT:      -6.6      0.000      0.000
  Name = 
  14 active torsions:
  status: ('A' for Active; 'I' for Inactive)
    1  A    between atoms: N_1  and  C_11
    2  A    between atoms: N_1  and  C_24
    3  A    between atoms: C_3  and  C_4
    4  A    between atoms: C_3  and  N_29
    5  A    between atoms: C_4  and  C_22
    6  A    between atoms: N_6  and  C_33
    7  A    between atoms: C_7  and  C_24
    8  A    between atoms: C_7  and  C_34
    9  A    between atoms: C_11  and  C_23
   10  A    between atoms: C_11  and  C_39
   11  A    between atoms: C_12  and  C_39
   12  A    between atoms: C_15  and  C_27
   13  A    between atoms: C_33  and  C_37
   14  A    between atoms: C_34  and  C_37
                            x       y       z     vdW  Elec       q    Type
                         _______ _______ _______ _____ _____    ______ ____

>  <TORSDO>
F 14

$$$$
=
 OpenBabel11042414593D

 39 42  0  0  1  0  0  0  0  0999 V2000
  191.0000  175.7250  144.9600 C   0  0  1  0  0  3  0  0  0  0  0  0
  187.3200  177.7590  144.1740 C   0  0  0  0  0  0  0  0  0  0  0  0
  188.7290  176.4950  145.6800 C   0  0  0  0  0  3  0  0  0  0  0  0
  186.4260  177.3990  146.1690 C   0  0  0  0  0  0  0  0  0  0  0  0
  189.7070  176.4300  144.6700 C   0  0  0  0  0  0  0  0  0  0  0  0
  186.2030  176.9560  147.5750 C   0  0  0  0  0  1  0  0  0  0  0  0
  185.5560  178.1300  145.3670 C   0  0  0  0  0  0  0  0  0  0  0  0
  186.1070  178.3480  144.1480 N   0  0  0  0  0  0  0  0  0  0  0  0
  188.2710  177.7180  143.1540 C   0  0  0  0  0  3  0  0  0  0  0  0
  184.2070  178.6210  145.7830 C   0  0  0  0  0  1  0  0  0  0  0  0
  187.5450  177.1710  145.3940 C   0  0  0  0  0  0  0  0  0  0  0  0
  189.4780  177.0450  143.4150 C   0  0  0  0  0  3  0  0  0  0  0  0
  185.4990  179.0550  143.0250 C   0  0  0  0  0  2  0  0  0  0  0  0
  184.7260  178.0870  142.1340 C   0  0  0  0  0  2  0  0  0  0  0  0
  186.2030  177.5730  140.1870 C   0  0  0  0  0  1  0  0  0  0  0  0
  184.9910  178.3530  140.6600 C   0  0  0  0  0  2  0  0  0  0  0  0
  191.7440  176.4260  145.9970 N   0  0  0  0  0  2  0  0  0  0  0  0
  192.7100  175.4910  146.5520 C   0  0  0  0  0  2  0  0  0  0  0  0
  194.1080  176.0980  146.5330 C   0  0  0  0  0  2  0  0  0  0  0  0
  194.2810  177.0670  145.3690 C   0  0  0  0  0  2  0  0  0  0  0  0
  195.4890  176.7090  144.5120 C   0  0  0  0  0  2  0  0  0  0  0  0
  194.0100  175.4050  143.1870 O   0  0  0  0  0  0  0  0  0  0  0  0
  195.1930  175.5670  143.5880 C   0  0  0  0  0  0  0  0  0  0  0  0
  196.1820  174.5800  143.2620 N   0  0  0  0  0  0  0  0  0  0  0  0
  196.5450  173.5430  143.9630 C   0  0  0  0  0  3  0  0  0  0  0  0
  196.8200  173.5710  146.3330 O   0  0  0  0  0  0  0  0  0  0  0  0
  194.8940  172.4270  145.5540 C   0  0  0  0  0  1  0  0  0  0  0  0
  196.1220  173.2380  145.3400 C   0  0  0  0  0  0  0  0  0  0  0  0
  190.7630  174.2790  145.3860 C   0  0  0  0  0  2  0  0  0  0  0  0
  188.7060  173.1240  139.9520 C   0  0  0  0  0  3  0  0  0  0  0  0
  191.4860  172.2290  144.3150 N   0  0  0  0  0  0  0  0  0  0  0  0
  189.9630  173.7660  143.1580 N   0  0  0  0  0  2  0  0  0  0  0  0
  191.6910  171.2000  143.5000 N   0  0  0  0  0  2  0  0  0  0  0  0
  190.7460  173.3720  144.2020 C   0  0  0  0  0  0  0  0  0  0  0  0
  188.7830  173.9380  141.0720 C   0  0  0  0  0  2  0  0  0  0  0  0
  189.4670  172.0210  140.1080 N   0  0  0  0  0  0  0  0  0  0  0  0
  190.0260  172.1350  141.3220 C   0  0  0  0  0  0  0  0  0  0  0  0
  191.0510  170.9830  141.9720 S   0  0  0  0  0  0  0  0  0  0  0  0
  189.6340  173.2830  141.9360 C   0  0  0  0  0  0  0  0  0  0  0  0
  1 29  1  1  0  0  0
  1 17  1  0  0  0  0
  2 11  1  0  0  0  0
  4  6  1  0  0  0  0
  5  1  1  0  0  0  0
  5  3  1  0  0  0  0
  7 10  1  0  0  0  0
  7  4  2  0  0  0  0
  8  2  1  0  0  0  0
  8  7  1  0  0  0  0
  9 12  1  0  0  0  0
  9  2  2  0  0  0  0
 11  3  2  0  0  0  0
 11  4  1  0  0  0  0
 12  5  2  0  0  0  0
 13  8  1  0  0  0  0
 14 13  1  0  0  0  0
 15 16  1  0  0  0  0
 16 14  1  0  0  0  0
 17 18  1  0  0  0  0
 19 18  1  0  0  0  0
 20 19  1  0  0  0  0
 21 20  1  0  0  0  0
 22 23  2  0  0  0  0
 23 21  1  0  0  0  0
 24 23  1  0  0  0  0
 24 25  2  0  0  0  0
 25 28  1  0  0  0  0
 28 27  1  0  0  0  0
 28 26  2  0  0  0  0
 30 36  2  0  0  0  0
 30 35  1  0  0  0  0
 32 34  1  0  0  0  0
 33 31  1  0  0  0  0
 34 31  2  0  0  0  0
 34 29  1  0  0  0  0
 35 39  1  0  0  0  0
 36 37  1  0  0  0  0
 37 39  2  0  0  0  0
 37 38  1  0  0  0  0
 38 33  1  0  0  0  0
 39 32  1  0  0  0  0
M  END
>  <MODEL>
2

>  <REMARK>
 VINA RESULT:      -6.6      2.473      6.600
  Name = 
  14 active torsions:
  status: ('A' for Active; 'I' for Inactive)
    1  A    between atoms: N_1  and  C_11
    2  A    between atoms: N_1  and  C_24
    3  A    between atoms: C_3  and  C_4
    4  A    between atoms: C_3  and  N_29
    5  A    between atoms: C_4  and  C_22
    6  A    between atoms: N_6  and  C_33
    7  A    between atoms: C_7  and  C_24
    8  A    between atoms: C_7  and  C_34
    9  A    between atoms: C_11  and  C_23
   10  A    between atoms: C_11  and  C_39
   11  A    between atoms: C_12  and  C_39
   12  A    between atoms: C_15  and  C_27
   13  A    between atoms: C_33  and  C_37
   14  A    between atoms: C_34  and  C_37
                            x       y       z     vdW  Elec       q    Type
                         _______ _______ _______ _____ _____    ______ ____

>  <TORSDO>
F 14

$$$$
=
 OpenBabel11042414593D

 39 42  0  0  1  0  0  0  0  0999 V2000
  190.8740  175.8310  145.5420 C   0  0  1  0  0  3  0  0  0  0  0  0
  187.2770  177.8360  144.3810 C   0  0  0  0  0  0  0  0  0  0  0  0
  188.5660  176.6570  146.0550 C   0  0  0  0  0  3  0  0  0  0  0  0
  186.2440  177.6010  146.3270 C   0  0  0  0  0  0  0  0  0  0  0  0
  189.6110  176.5250  145.1210 C   0  0  0  0  0  0  0  0  0  0  0  0
  185.9200  177.2450  147.7380 C   0  0  0  0  0  1  0  0  0  0  0  0
  185.4380  178.2880  145.4250 C   0  0  0  0  0  0  0  0  0  0  0  0
  186.0750  178.4300  144.2360 N   0  0  0  0  0  0  0  0  0  0  0  0
  188.2970  177.7280  143.4350 C   0  0  0  0  0  3  0  0  0  0  0  0
  184.0690  178.8110  145.7150 C   0  0  0  0  0  1  0  0  0  0  0  0
  187.4110  177.3210  145.6470 C   0  0  0  0  0  0  0  0  0  0  0  0
  189.4750  177.0650  143.8190 C   0  0  0  0  0  3  0  0  0  0  0  0
  185.5530  179.0710  143.0330 C   0  0  0  0  0  2  0  0  0  0  0  0
  184.8910  178.0450  142.1190 C   0  0  0  0  0  2  0  0  0  0  0  0
  182.8900  178.1710  140.6310 C   0  0  0  0  0  1  0  0  0  0  0  0
  183.3830  178.2390  142.0640 C   0  0  0  0  0  2  0  0  0  0  0  0
  191.3780  176.3960  146.7860 N   0  0  0  0  0  2  0  0  0  0  0  0
  192.8320  176.3750  146.7200 C   0  0  0  0  0  2  0  0  0  0  0  0
  193.3080  176.8590  145.3550 C   0  0  0  0  0  2  0  0  0  0  0  0
  194.7040  176.3400  145.0340 C   0  0  0  0  0  2  0  0  0  0  0  0
  194.8370  174.8520  145.3400 C   0  0  0  0  0  2  0  0  0  0  0  0
  195.5500  173.0540  143.9610 O   0  0  0  0  0  0  0  0  0  0  0  0
  195.8280  174.1880  144.4340 C   0  0  0  0  0  0  0  0  0  0  0  0
  197.1330  174.7380  144.2050 N   0  0  0  0  0  0  0  0  0  0  0  0
  197.5760  175.3430  143.1400 C   0  0  0  0  0  3  0  0  0  0  0  0
  196.8800  174.5290  141.0070 O   0  0  0  0  0  0  0  0  0  0  0  0
  196.2100  176.7480  141.5080 C   0  0  0  0  0  1  0  0  0  0  0  0
  196.8670  175.4600  141.8540 C   0  0  0  0  0  0  0  0  0  0  0  0
  190.6560  174.3310  145.7100 C   0  0  0  0  0  2  0  0  0  0  0  0
  193.3450  173.9480  140.4450 C   0  0  0  0  0  3  0  0  0  0  0  0
  189.9310  172.5840  144.1940 N   0  0  0  0  0  0  0  0  0  0  0  0
  191.7330  174.1210  143.5500 N   0  0  0  0  0  2  0  0  0  0  0  0
  189.7440  171.7560  143.1720 N   0  0  0  0  0  2  0  0  0  0  0  0
  190.7920  173.6240  144.4030 C   0  0  0  0  0  0  0  0  0  0  0  0
  193.1870  174.5470  141.6860 C   0  0  0  0  0  2  0  0  0  0  0  0
  192.4850  172.9180  140.2980 N   0  0  0  0  0  0  0  0  0  0  0  0
  191.7860  172.8630  141.4410 C   0  0  0  0  0  0  0  0  0  0  0  0
  190.5750  171.7430  141.7220 S   0  0  0  0  0  0  0  0  0  0  0  0
  192.1830  173.8350  142.3050 C   0  0  0  0  0  0  0  0  0  0  0  0
  1 29  1  1  0  0  0
  1 17  1  0  0  0  0
  2 11  1  0  0  0  0
  4  6  1  0  0  0  0
  5  1  1  0  0  0  0
  5  3  1  0  0  0  0
  7 10  1  0  0  0  0
  7  4  2  0  0  0  0
  8  2  1  0  0  0  0
  8  7  1  0  0  0  0
  9 12  1  0  0  0  0
  9  2  2  0  0  0  0
 11  3  2  0  0  0  0
 11  4  1  0  0  0  0
 12  5  2  0  0  0  0
 13  8  1  0  0  0  0
 14 13  1  0  0  0  0
 15 16  1  0  0  0  0
 16 14  1  0  0  0  0
 18 17  1  0  0  0  0
 19 18  1  0  0  0  0
 20 21  1  0  0  0  0
 20 19  1  0  0  0  0
 22 23  2  0  0  0  0
 23 21  1  0  0  0  0
 24 23  1  0  0  0  0
 25 24  2  0  0  0  0
 26 28  2  0  0  0  0
 27 28  1  0  0  0  0
 28 25  1  0  0  0  0
 30 35  1  0  0  0  0
 31 34  2  0  0  0  0
 32 34  1  0  0  0  0
 33 31  1  0  0  0  0
 34 29  1  0  0  0  0
 35 39  1  0  0  0  0
 36 30  2  0  0  0  0
 36 37  1  0  0  0  0
 37 38  1  0  0  0  0
 37 39  2  0  0  0  0
 38 33  1  0  0  0  0
 39 32  1  0  0  0  0
M  END
>  <MODEL>
3

>  <REMARK>
 VINA RESULT:      -6.5      2.664      6.961
  Name = 
  14 active torsions:
  status: ('A' for Active; 'I' for Inactive)
    1  A    between atoms: N_1  and  C_11
    2  A    between atoms: N_1  and  C_24
    3  A    between atoms: C_3  and  C_4
    4  A    between atoms: C_3  and  N_29
    5  A    between atoms: C_4  and  C_22
    6  A    between atoms: N_6  and  C_33
    7  A    between atoms: C_7  and  C_24
    8  A    between atoms: C_7  and  C_34
    9  A    between atoms: C_11  and  C_23
   10  A    between atoms: C_11  and  C_39
   11  A    between atoms: C_12  and  C_39
   12  A    between atoms: C_15  and  C_27
   13  A    between atoms: C_33  and  C_37
   14  A    between atoms: C_34  and  C_37
                            x       y       z     vdW  Elec       q    Type
                         _______ _______ _______ _____ _____    ______ ____

>  <TORSDO>
F 14

$$$$
=
 OpenBabel11042414593D

 39 42  0  0  1  0  0  0  0  0999 V2000
  188.6380  175.9240  145.7660 C   0  0  1  0  0  3  0  0  0  0  0  0
  190.0520  172.7510  143.2700 C   0  0  0  0  0  0  0  0  0  0  0  0
  188.8990  174.8640  143.5130 C   0  0  0  0  0  3  0  0  0  0  0  0
  189.3120  173.6080  141.3660 C   0  0  0  0  0  0  0  0  0  0  0  0
  189.1270  174.8000  144.9000 C   0  0  0  0  0  0  0  0  0  0  0  0
  188.6790  174.4980  140.3510 C   0  0  0  0  0  1  0  0  0  0  0  0
  189.9600  172.3980  141.1390 C   0  0  0  0  0  0  0  0  0  0  0  0
  190.4120  171.8790  142.3070 N   0  0  0  0  0  0  0  0  0  0  0  0
  190.2990  172.6600  144.6400 C   0  0  0  0  0  3  0  0  0  0  0  0
  190.1500  171.7580  139.8020 C   0  0  0  0  0  1  0  0  0  0  0  0
  189.3790  173.8180  142.7280 C   0  0  0  0  0  0  0  0  0  0  0  0
  189.8290  173.7030  145.4580 C   0  0  0  0  0  3  0  0  0  0  0  0
  191.1200  170.6150  142.4880 C   0  0  0  0  0  2  0  0  0  0  0  0
  192.6290  170.8310  142.4370 C   0  0  0  0  0  2  0  0  0  0  0  0
  193.0780  169.3130  144.3680 C   0  0  0  0  0  1  0  0  0  0  0  0
  193.2560  170.7150  143.8190 C   0  0  0  0  0  2  0  0  0  0  0  0
  189.3850  175.9710  147.0150 N   0  0  0  0  0  2  0  0  0  0  0  0
  190.4200  176.9840  146.8690 C   0  0  0  0  0  2  0  0  0  0  0  0
  191.6780  176.5710  147.6240 C   0  0  0  0  0  2  0  0  0  0  0  0
  192.4890  175.5450  146.8400 C   0  0  0  0  0  2  0  0  0  0  0  0
  193.8600  176.0880  146.4530 C   0  0  0  0  0  2  0  0  0  0  0  0
  195.6640  175.5320  145.0110 O   0  0  0  0  0  0  0  0  0  0  0  0
  194.4660  175.3070  145.3270 C   0  0  0  0  0  0  0  0  0  0  0  0
  193.6850  174.4180  144.5150 N   0  0  0  0  0  0  0  0  0  0  0  0
  193.1250  174.6620  143.3640 C   0  0  0  0  0  3  0  0  0  0  0  0
  193.9090  176.3600  141.8810 O   0  0  0  0  0  0  0  0  0  0  0  0
  191.9550  176.9120  143.1060 C   0  0  0  0  0  1  0  0  0  0  0  0
  193.0390  175.9760  142.7060 C   0  0  0  0  0  0  0  0  0  0  0  0
  188.7470  177.2670  145.0510 C   0  0  0  0  0  2  0  0  0  0  0  0
  185.1120  178.0680  140.4420 C   0  0  0  0  0  3  0  0  0  0  0  0
  186.5610  178.2160  145.4860 N   0  0  0  0  0  0  0  0  0  0  0  0
  187.2160  177.6020  143.2030 N   0  0  0  0  0  2  0  0  0  0  0  0
  185.3320  178.7180  145.4150 N   0  0  0  0  0  2  0  0  0  0  0  0
  187.4150  177.7120  144.5480 C   0  0  0  0  0  0  0  0  0  0  0  0
  186.3220  177.6480  140.9740 C   0  0  0  0  0  3  0  0  0  0  0  0
  184.3010  178.5390  141.4120 N   0  0  0  0  0  2  0  0  0  0  0  0
  184.9920  178.4170  142.5540 C   0  0  0  0  0  0  0  0  0  0  0  0
  184.3950  178.8930  144.0430 S   0  0  0  0  0  0  0  0  0  0  0  0
  186.2210  177.8820  142.3280 C   0  0  0  0  0  0  0  0  0  0  0  0
  1 29  1  6  0  0  0
  1 17  1  0  0  0  0
  2  9  1  0  0  0  0
  3  5  2  0  0  0  0
  4 11  1  0  0  0  0
  5 12  1  0  0  0  0
  5  1  1  0  0  0  0
  6  4  1  0  0  0  0
  7  4  2  0  0  0  0
  7  8  1  0  0  0  0
  8 13  1  0  0  0  0
  8  2  1  0  0  0  0
  9 12  2  0  0  0  0
 10  7  1  0  0  0  0
 11  2  2  0  0  0  0
 11  3  1  0  0  0  0
 14 13  1  0  0  0  0
 14 16  1  0  0  0  0
 16 15  1  0  0  0  0
 18 17  1  0  0  0  0
 18 19  1  0  0  0  0
 20 19  1  0  0  0  0
 21 20  1  0  0  0  0
 22 23  2  0  0  0  0
 23 21  1  0  0  0  0
 24 23  1  0  0  0  0
 25 24  2  0  0  0  0
 26 28  2  0  0  0  0
 28 27  1  0  0  0  0
 28 25  1  0  0  0  0
 30 35  2  0  0  0  0
 30 36  1  0  0  0  0
 32 34  1  0  0  0  0
 33 31  1  0  0  0  0
 34 29  1  0  0  0  0
 34 31  2  0  0  0  0
 35 39  1  0  0  0  0
 36 37  1  0  0  0  0
 37 38  1  0  0  0  0
 38 33  1  0  0  0  0
 39 37  2  0  0  0  0
 39 32  1  0  0  0  0
M  END
>  <MODEL>
4

>  <REMARK>
 VINA RESULT:      -6.5      1.058      1.316
  Name = 
  14 active torsions:
  status: ('A' for Active; 'I' for Inactive)
    1  A    between atoms: N_1  and  C_11
    2  A    between atoms: N_1  and  C_24
    3  A    between atoms: C_3  and  C_4
    4  A    between atoms: C_3  and  N_29
    5  A    between atoms: C_4  and  C_22
    6  A    between atoms: N_6  and  C_33
    7  A    between atoms: C_7  and  C_24
    8  A    between atoms: C_7  and  C_34
    9  A    between atoms: C_11  and  C_23
   10  A    between atoms: C_11  and  C_39
   11  A    between atoms: C_12  and  C_39
   12  A    between atoms: C_15  and  C_27
   13  A    between atoms: C_33  and  C_37
   14  A    between atoms: C_34  and  C_37
                            x       y       z     vdW  Elec       q    Type
                         _______ _______ _______ _____ _____    ______ ____

>  <TORSDO>
F 14

$$$$
=
 OpenBabel11042414593D

 39 42  0  0  1  0  0  0  0  0999 V2000
  190.5890  175.1990  145.4590 C   0  0  1  0  0  3  0  0  0  0  0  0
  187.3370  177.5130  143.9200 C   0  0  0  0  0  0  0  0  0  0  0  0
  188.3360  176.2570  145.7300 C   0  0  0  0  0  3  0  0  0  0  0  0
  186.1030  177.4290  145.7580 C   0  0  0  0  0  0  0  0  0  0  0  0
  189.4480  176.0010  144.9060 C   0  0  0  0  0  0  0  0  0  0  0  0
  185.6110  177.1410  147.1360 C   0  0  0  0  0  1  0  0  0  0  0  0
  185.4600  178.1660  144.7710 C   0  0  0  0  0  0  0  0  0  0  0  0
  186.2190  178.2150  143.6480 N   0  0  0  0  0  0  0  0  0  0  0  0
  188.4270  177.2820  143.0800 C   0  0  0  0  0  3  0  0  0  0  0  0
  184.1280  178.8270  144.9170 C   0  0  0  0  0  1  0  0  0  0  0  0
  187.2970  177.0190  145.2010 C   0  0  0  0  0  0  0  0  0  0  0  0
  189.4920  176.5180  143.5880 C   0  0  0  0  0  3  0  0  0  0  0  0
  185.8810  178.8730  142.3900 C   0  0  0  0  0  2  0  0  0  0  0  0
  185.4230  177.8520  141.3530 C   0  0  0  0  0  2  0  0  0  0  0  0
  182.9490  178.1940  141.3550 C   0  0  0  0  0  1  0  0  0  0  0  0
  184.2300  178.3610  140.5590 C   0  0  0  0  0  2  0  0  0  0  0  0
  190.8430  175.5610  146.8470 N   0  0  0  0  0  2  0  0  0  0  0  0
  192.2800  175.4910  147.0630 C   0  0  0  0  0  2  0  0  0  0  0  0
  193.0140  176.3300  146.0240 C   0  0  0  0  0  2  0  0  0  0  0  0
  194.5220  176.3080  146.2530 C   0  0  0  0  0  2  0  0  0  0  0  0
  195.1060  174.9190  146.0260 C   0  0  0  0  0  2  0  0  0  0  0  0
  196.4800  173.7760  144.4610 O   0  0  0  0  0  0  0  0  0  0  0  0
  195.8790  174.8460  144.7450 C   0  0  0  0  0  0  0  0  0  0  0  0
  196.0690  175.9960  143.9080 N   0  0  0  0  0  0  0  0  0  0  0  0
  195.4520  176.2950  142.8000 C   0  0  0  0  0  3  0  0  0  0  0  0
  194.9140  174.6370  141.1690 O   0  0  0  0  0  0  0  0  0  0  0  0
  193.0580  175.5550  142.3270 C   0  0  0  0  0  1  0  0  0  0  0  0
  194.5170  175.4240  142.0680 C   0  0  0  0  0  0  0  0  0  0  0  0
  190.3180  173.7010  145.3600 C   0  0  0  0  0  2  0  0  0  0  0  0
  190.8050  171.7240  139.7970 C   0  0  0  0  0  3  0  0  0  0  0  0
  192.4310  172.7240  144.6880 N   0  0  0  0  0  0  0  0  0  0  0  0
  190.5760  172.8910  143.0920 N   0  0  0  0  0  2  0  0  0  0  0  0
  193.4400  172.1400  144.0500 N   0  0  0  0  0  2  0  0  0  0  0  0
  191.1680  173.0760  144.3060 C   0  0  0  0  0  0  0  0  0  0  0  0
  190.0740  172.3230  140.8110 C   0  0  0  0  0  2  0  0  0  0  0  0
  192.0480  171.4140  140.2210 N   0  0  0  0  0  0  0  0  0  0  0  0
  192.1060  171.8160  141.4990 C   0  0  0  0  0  0  0  0  0  0  0  0
  193.4610  171.6230  142.4610 S   0  0  0  0  0  0  0  0  0  0  0  0
  190.9280  172.3710  141.8910 C   0  0  0  0  0  0  0  0  0  0  0  0
  1 29  1  1  0  0  0
  1 17  1  0  0  0  0
  2 11  1  0  0  0  0
  4  6  1  0  0  0  0
  5  1  1  0  0  0  0
  5  3  1  0  0  0  0
  7 10  1  0  0  0  0
  7  4  2  0  0  0  0
  8  2  1  0  0  0  0
  8  7  1  0  0  0  0
  9 12  1  0  0  0  0
  9  2  2  0  0  0  0
 11  3  2  0  0  0  0
 11  4  1  0  0  0  0
 12  5  2  0  0  0  0
 13  8  1  0  0  0  0
 14 13  1  0  0  0  0
 16 14  1  0  0  0  0
 16 15  1  0  0  0  0
 17 18  1  0  0  0  0
 19 20  1  0  0  0  0
 19 18  1  0  0  0  0
 21 20  1  0  0  0  0
 22 23  2  0  0  0  0
 23 21  1  0  0  0  0
 24 23  1  0  0  0  0
 25 24  2  0  0  0  0
 26 28  2  0  0  0  0
 28 27  1  0  0  0  0
 28 25  1  0  0  0  0
 30 36  2  0  0  0  0
 30 35  1  0  0  0  0
 32 34  1  0  0  0  0
 33 31  1  0  0  0  0
 34 31  2  0  0  0  0
 34 29  1  0  0  0  0
 35 39  1  0  0  0  0
 36 37  1  0  0  0  0
 37 39  2  0  0  0  0
 37 38  1  0  0  0  0
 38 33  1  0  0  0  0
 39 32  1  0  0  0  0
M  END
>  <MODEL>
5

>  <REMARK>
 VINA RESULT:      -6.5      2.608      6.972
  Name = 
  14 active torsions:
  status: ('A' for Active; 'I' for Inactive)
    1  A    between atoms: N_1  and  C_11
    2  A    between atoms: N_1  and  C_24
    3  A    between atoms: C_3  and  C_4
    4  A    between atoms: C_3  and  N_29
    5  A    between atoms: C_4  and  C_22
    6  A    between atoms: N_6  and  C_33
    7  A    between atoms: C_7  and  C_24
    8  A    between atoms: C_7  and  C_34
    9  A    between atoms: C_11  and  C_23
   10  A    between atoms: C_11  and  C_39
   11  A    between atoms: C_12  and  C_39
   12  A    between atoms: C_15  and  C_27
   13  A    between atoms: C_33  and  C_37
   14  A    between atoms: C_34  and  C_37
                            x       y       z     vdW  Elec       q    Type
                         _______ _______ _______ _____ _____    ______ ____

>  <TORSDO>
F 14

$$$$
=
 OpenBabel11042414593D

 39 42  0  0  1  0  0  0  0  0999 V2000
  187.9290  176.1920  142.3630 C   0  0  1  0  0  3  0  0  0  0  0  0
  189.7090  172.5840  140.9070 C   0  0  0  0  0  0  0  0  0  0  0  0
  189.2840  174.1180  142.7300 C   0  0  0  0  0  3  0  0  0  0  0  0
  190.5910  171.9650  142.8430 C   0  0  0  0  0  0  0  0  0  0  0  0
  188.5610  174.9340  141.8400 C   0  0  0  0  0  0  0  0  0  0  0  0
  190.9970  171.9150  144.2770 C   0  0  0  0  0  1  0  0  0  0  0  0
  190.8810  171.0320  141.8530 C   0  0  0  0  0  0  0  0  0  0  0  0
  190.3380  171.4160  140.6710 N   0  0  0  0  0  0  0  0  0  0  0  0
  188.9940  173.3690  140.0020 C   0  0  0  0  0  3  0  0  0  0  0  0
  191.6650  169.7770  142.0520 C   0  0  0  0  0  1  0  0  0  0  0  0
  189.8450  172.9470  142.2250 C   0  0  0  0  0  0  0  0  0  0  0  0
  188.4140  174.5550  140.4840 C   0  0  0  0  0  3  0  0  0  0  0  0
  190.4390  170.7170  139.3920 C   0  0  0  0  0  2  0  0  0  0  0  0
  191.5940  171.2720  138.5640 C   0  0  0  0  0  2  0  0  0  0  0  0
  189.9610  170.7900  136.7370 C   0  0  0  0  0  1  0  0  0  0  0  0
  191.4290  170.9440  137.0880 C   0  0  0  0  0  2  0  0  0  0  0  0
  188.4150  177.3520  141.6290 N   0  0  0  0  0  2  0  0  0  0  0  0
  189.1290  178.2000  142.5720 C   0  0  0  0  0  2  0  0  0  0  0  0
  190.5520  177.6940  142.7690 C   0  0  0  0  0  2  0  0  0  0  0  0
  190.9700  177.7570  144.2340 C   0  0  0  0  0  2  0  0  0  0  0  0
  189.7850  177.5390  145.1680 C   0  0  0  0  0  2  0  0  0  0  0  0
  189.4730  175.2640  145.7790 O   0  0  0  0  0  0  0  0  0  0  0  0
  190.0040  176.3680  146.0760 C   0  0  0  0  0  0  0  0  0  0  0  0
  190.6790  176.5000  147.3350 N   0  0  0  0  0  0  0  0  0  0  0  0
  191.9540  176.3960  147.5800 C   0  0  0  0  0  3  0  0  0  0  0  0
  193.8130  176.7660  146.1300 O   0  0  0  0  0  0  0  0  0  0  0  0
  192.9780  174.5460  146.1550 C   0  0  0  0  0  1  0  0  0  0  0  0
  192.9850  175.9570  146.6240 C   0  0  0  0  0  0  0  0  0  0  0  0
  186.4080  176.1290  142.2770 C   0  0  0  0  0  2  0  0  0  0  0  0
  185.9700  177.5230  148.0180 C   0  0  0  0  0  3  0  0  0  0  0  0
  184.8270  177.8560  142.9050 N   0  0  0  0  0  0  0  0  0  0  0  0
  186.2000  176.7480  144.6100 N   0  0  0  0  0  2  0  0  0  0  0  0
  184.0560  178.7330  143.5380 N   0  0  0  0  0  2  0  0  0  0  0  0
  185.7800  176.9760  143.3330 C   0  0  0  0  0  0  0  0  0  0  0  0
  186.5350  176.7840  146.9890 C   0  0  0  0  0  3  0  0  0  0  0  0
  185.0510  178.3870  147.5400 N   0  0  0  0  0  2  0  0  0  0  0  0
  185.0330  178.1990  146.2120 C   0  0  0  0  0  0  0  0  0  0  0  0
  184.0230  179.0430  145.1790 S   0  0  0  0  0  0  0  0  0  0  0  0
  185.9180  177.2350  145.8420 C   0  0  0  0  0  0  0  0  0  0  0  0
  1 29  1  6  0  0  0
  2 11  1  0  0  0  0
  4  6  1  0  0  0  0
  5  1  1  0  0  0  0
  5  3  1  0  0  0  0
  7 10  1  0  0  0  0
  7  4  2  0  0  0  0
  8  2  1  0  0  0  0
  8  7  1  0  0  0  0
  9 12  1  0  0  0  0
  9  2  2  0  0  0  0
 11  3  2  0  0  0  0
 11  4  1  0  0  0  0
 12  5  2  0  0  0  0
 13  8  1  0  0  0  0
 14 13  1  0  0  0  0
 15 16  1  0  0  0  0
 16 14  1  0  0  0  0
 17  1  1  0  0  0  0
 17 18  1  0  0  0  0
 18 19  1  0  0  0  0
 19 20  1  0  0  0  0
 20 21  1  0  0  0  0
 21 23  1  0  0  0  0
 22 23  2  0  0  0  0
 23 24  1  0  0  0  0
 24 25  2  0  0  0  0
 26 28  2  0  0  0  0
 27 28  1  0  0  0  0
 28 25  1  0  0  0  0
 29 34  1  0  0  0  0
 31 34  2  0  0  0  0
 31 33  1  0  0  0  0
 32 39  1  0  0  0  0
 33 38  1  0  0  0  0
 34 32  1  0  0  0  0
 35 30  2  0  0  0  0
 36 30  1  0  0  0  0
 37 36  1  0  0  0  0
 38 37  1  0  0  0  0
 39 37  2  0  0  0  0
 39 35  1  0  0  0  0
M  END
>  <MODEL>
6

>  <REMARK>
 VINA RESULT:      -6.4      2.104      4.397
  Name = 
  14 active torsions:
  status: ('A' for Active; 'I' for Inactive)
    1  A    between atoms: N_1  and  C_11
    2  A    between atoms: N_1  and  C_24
    3  A    between atoms: C_3  and  C_4
    4  A    between atoms: C_3  and  N_29
    5  A    between atoms: C_4  and  C_22
    6  A    between atoms: N_6  and  C_33
    7  A    between atoms: C_7  and  C_24
    8  A    between atoms: C_7  and  C_34
    9  A    between atoms: C_11  and  C_23
   10  A    between atoms: C_11  and  C_39
   11  A    between atoms: C_12  and  C_39
   12  A    between atoms: C_15  and  C_27
   13  A    between atoms: C_33  and  C_37
   14  A    between atoms: C_34  and  C_37
                            x       y       z     vdW  Elec       q    Type
                         _______ _______ _______ _____ _____    ______ ____

>  <TORSDO>
F 14

$$$$
=
 OpenBabel11042414593D

 39 42  0  0  1  0  0  0  0  0999 V2000
  189.1260  175.3180  145.3560 C   0  0  1  0  0  3  0  0  0  0  0  0
  190.1110  172.0970  142.7190 C   0  0  0  0  0  0  0  0  0  0  0  0
  189.2340  174.3250  143.0600 C   0  0  0  0  0  3  0  0  0  0  0  0
  189.4680  173.1160  140.8600 C   0  0  0  0  0  0  0  0  0  0  0  0
  189.4630  174.1770  144.4410 C   0  0  0  0  0  0  0  0  0  0  0  0
  188.9420  174.1180  139.8890 C   0  0  0  0  0  1  0  0  0  0  0  0
  189.9570  171.8450  140.5770 C   0  0  0  0  0  0  0  0  0  0  0  0
  190.3500  171.2260  141.7180 N   0  0  0  0  0  0  0  0  0  0  0  0
  190.3560  171.9210  144.0810 C   0  0  0  0  0  3  0  0  0  0  0  0
  190.0540  171.2410  139.2140 C   0  0  0  0  0  1  0  0  0  0  0  0
  189.5720  173.2600  142.2280 C   0  0  0  0  0  0  0  0  0  0  0  0
  190.0280  172.9800  144.9450 C   0  0  0  0  0  3  0  0  0  0  0  0
  190.8960  169.8780  141.8400 C   0  0  0  0  0  2  0  0  0  0  0  0
  192.3220  169.8230  141.3000 C   0  0  0  0  0  2  0  0  0  0  0  0
  193.5150  170.0980  143.4770 C   0  0  0  0  0  1  0  0  0  0  0  0
  193.2590  170.7060  142.1110 C   0  0  0  0  0  2  0  0  0  0  0  0
  189.8690  175.2090  146.6050 N   0  0  0  0  0  2  0  0  0  0  0  0
  191.0200  176.0930  146.5100 C   0  0  0  0  0  2  0  0  0  0  0  0
  192.3030  175.3280  146.8100 C   0  0  0  0  0  2  0  0  0  0  0  0
  193.4980  176.2670  146.9300 C   0  0  0  0  0  2  0  0  0  0  0  0
  194.6920  175.7660  146.1240 C   0  0  0  0  0  2  0  0  0  0  0  0
  195.0100  178.0060  145.3980 O   0  0  0  0  0  0  0  0  0  0  0  0
  195.1500  176.7840  145.1250 C   0  0  0  0  0  0  0  0  0  0  0  0
  195.6110  176.4100  143.8190 N   0  0  0  0  0  0  0  0  0  0  0  0
  194.9020  176.0380  142.7910 C   0  0  0  0  0  3  0  0  0  0  0  0
  192.6090  176.6920  142.6870 O   0  0  0  0  0  0  0  0  0  0  0  0
  192.9830  174.3750  143.0270 C   0  0  0  0  0  1  0  0  0  0  0  0
  193.4550  175.7660  142.7920 C   0  0  0  0  0  0  0  0  0  0  0  0
  189.4190  176.6640  144.7010 C   0  0  0  0  0  2  0  0  0  0  0  0
  184.0720  178.4520  146.5190 C   0  0  0  0  0  3  0  0  0  0  0  0
  188.0480  177.9060  143.1350 N   0  0  0  0  0  0  0  0  0  0  0  0
  187.2300  177.4320  145.3990 N   0  0  0  0  0  2  0  0  0  0  0  0
  187.0890  178.5780  142.5080 N   0  0  0  0  0  2  0  0  0  0  0  0
  188.1540  177.3930  144.3960 C   0  0  0  0  0  0  0  0  0  0  0  0
  185.2800  177.8100  146.7500 C   0  0  0  0  0  2  0  0  0  0  0  0
  184.0280  178.9540  145.2680 N   0  0  0  0  0  0  0  0  0  0  0  0
  185.2030  178.6330  144.7060 C   0  0  0  0  0  0  0  0  0  0  0  0
  185.6070  179.0320  143.1330 S   0  0  0  0  0  0  0  0  0  0  0  0
  185.9860  177.9390  145.5740 C   0  0  0  0  0  0  0  0  0  0  0  0
  1 29  1  6  0  0  0
  1 17  1  0  0  0  0
  2  9  1  0  0  0  0
  3  5  2  0  0  0  0
  4 11  1  0  0  0  0
  5 12  1  0  0  0  0
  5  1  1  0  0  0  0
  6  4  1  0  0  0  0
  7  4  2  0  0  0  0
  7  8  1  0  0  0  0
  8 13  1  0  0  0  0
  8  2  1  0  0  0  0
  9 12  2  0  0  0  0
 10  7  1  0  0  0  0
 11  2  2  0  0  0  0
 11  3  1  0  0  0  0
 14 13  1  0  0  0  0
 14 16  1  0  0  0  0
 16 15  1  0  0  0  0
 18 17  1  0  0  0  0
 18 19  1  0  0  0  0
 19 20  1  0  0  0  0
 21 20  1  0  0  0  0
 23 22  2  0  0  0  0
 23 21  1  0  0  0  0
 24 23  1  0  0  0  0
 25 28  1  0  0  0  0
 25 24  2  0  0  0  0
 26 28  2  0  0  0  0
 28 27  1  0  0  0  0
 30 35  1  0  0  0  0
 31 34  2  0  0  0  0
 32 39  1  0  0  0  0
 33 38  1  0  0  0  0
 33 31  1  0  0  0  0
 34 29  1  0  0  0  0
 34 32  1  0  0  0  0
 36 30  2  0  0  0  0
 37 36  1  0  0  0  0
 37 39  2  0  0  0  0
 38 37  1  0  0  0  0
 39 35  1  0  0  0  0
M  END
>  <MODEL>
7

>  <REMARK>
 VINA RESULT:      -6.4      1.698      2.353
  Name = 
  14 active torsions:
  status: ('A' for Active; 'I' for Inactive)
    1  A    between atoms: N_1  and  C_11
    2  A    between atoms: N_1  and  C_24
    3  A    between atoms: C_3  and  C_4
    4  A    between atoms: C_3  and  N_29
    5  A    between atoms: C_4  and  C_22
    6  A    between atoms: N_6  and  C_33
    7  A    between atoms: C_7  and  C_24
    8  A    between atoms: C_7  and  C_34
    9  A    between atoms: C_11  and  C_23
   10  A    between atoms: C_11  and  C_39
   11  A    between atoms: C_12  and  C_39
   12  A    between atoms: C_15  and  C_27
   13  A    between atoms: C_33  and  C_37
   14  A    between atoms: C_34  and  C_37
                            x       y       z     vdW  Elec       q    Type
                         _______ _______ _______ _____ _____    ______ ____

>  <TORSDO>
F 14

$$$$
=
 OpenBabel11042414593D

 39 42  0  0  1  0  0  0  0  0999 V2000
  190.5750  173.0440  143.4240 C   0  0  1  0  0  3  0  0  0  0  0  0
  188.3200  176.3120  145.0150 C   0  0  0  0  0  0  0  0  0  0  0  0
  189.1640  175.0880  143.1070 C   0  0  0  0  0  3  0  0  0  0  0  0
  187.7140  177.1500  143.0560 C   0  0  0  0  0  0  0  0  0  0  0  0
  189.7960  174.1950  143.9920 C   0  0  0  0  0  0  0  0  0  0  0  0
  187.5380  177.3780  141.5930 C   0  0  0  0  0  1  0  0  0  0  0  0
  187.1890  177.9100  144.0960 C   0  0  0  0  0  0  0  0  0  0  0  0
  187.5620  177.3920  145.2930 N   0  0  0  0  0  0  0  0  0  0  0  0
  188.9290  175.4410  145.9190 C   0  0  0  0  0  3  0  0  0  0  0  0
  186.3260  179.1180  143.9330 C   0  0  0  0  0  1  0  0  0  0  0  0
  188.4320  176.1370  143.6580 C   0  0  0  0  0  0  0  0  0  0  0  0
  189.6720  174.3700  145.3920 C   0  0  0  0  0  3  0  0  0  0  0  0
  187.2320  177.9150  146.6150 C   0  0  0  0  0  2  0  0  0  0  0  0
  186.2000  177.0280  147.3040 C   0  0  0  0  0  2  0  0  0  0  0  0
  184.1430  178.2890  146.6610 C   0  0  0  0  0  1  0  0  0  0  0  0
  184.8960  176.9790  146.5230 C   0  0  0  0  0  2  0  0  0  0  0  0
  191.3040  172.3500  144.4770 N   0  0  0  0  0  2  0  0  0  0  0  0
  192.5880  171.9430  143.9260 C   0  0  0  0  0  2  0  0  0  0  0  0
  193.6250  171.8150  145.0360 C   0  0  0  0  0  2  0  0  0  0  0  0
  193.9180  173.1630  145.6850 C   0  0  0  0  0  2  0  0  0  0  0  0
  195.2720  173.7140  145.2520 C   0  0  0  0  0  2  0  0  0  0  0  0
  194.9500  174.7280  143.1280 O   0  0  0  0  0  0  0  0  0  0  0  0
  195.1240  174.9100  144.3630 C   0  0  0  0  0  0  0  0  0  0  0  0
  195.3120  176.2460  144.8510 N   0  0  0  0  0  0  0  0  0  0  0  0
  194.4270  177.0420  145.3800 C   0  0  0  0  0  3  0  0  0  0  0  0
  192.4480  176.2590  146.4590 O   0  0  0  0  0  0  0  0  0  0  0  0
  192.1360  177.0960  144.2620 C   0  0  0  0  0  1  0  0  0  0  0  0
  192.9770  176.7970  145.4510 C   0  0  0  0  0  0  0  0  0  0  0  0
  189.6640  172.0600  142.6960 C   0  0  0  0  0  2  0  0  0  0  0  0
  188.3920  174.2060  137.3230 C   0  0  0  0  0  3  0  0  0  0  0  0
  190.8950  171.1770  140.8040 N   0  0  0  0  0  0  0  0  0  0  0  0
  189.1930  172.9140  140.4780 N   0  0  0  0  0  2  0  0  0  0  0  0
  191.3840  170.8830  139.6040 N   0  0  0  0  0  2  0  0  0  0  0  0
  189.9450  172.0600  141.2310 C   0  0  0  0  0  0  0  0  0  0  0  0
  188.1950  174.1780  138.6950 C   0  0  0  0  0  2  0  0  0  0  0  0
  189.3510  173.3300  136.9580 N   0  0  0  0  0  0  0  0  0  0  0  0
  189.7630  172.7490  138.0950 C   0  0  0  0  0  0  0  0  0  0  0  0
  190.9440  171.5650  138.1440 S   0  0  0  0  0  0  0  0  0  0  0  0
  189.0840  173.2360  139.1670 C   0  0  0  0  0  0  0  0  0  0  0  0
  1 29  1  1  0  0  0
  1  5  1  0  0  0  0
  1 17  1  0  0  0  0
  2  8  1  0  0  0  0
  2  9  1  0  0  0  0
  3 11  1  0  0  0  0
  3  5  2  0  0  0  0
  4 11  1  0  0  0  0
  4  7  2  0  0  0  0
  5 12  1  0  0  0  0
  6  4  1  0  0  0  0
  7  8  1  0  0  0  0
  8 13  1  0  0  0  0
 10  7  1  0  0  0  0
 11  2  2  0  0  0  0
 12  9  2  0  0  0  0
 13 14  1  0  0  0  0
 16 15  1  0  0  0  0
 16 14  1  0  0  0  0
 18 17  1  0  0  0  0
 18 19  1  0  0  0  0
 19 20  1  0  0  0  0
 21 20  1  0  0  0  0
 22 23  2  0  0  0  0
 23 24  1  0  0  0  0
 23 21  1  0  0  0  0
 24 25  2  0  0  0  0
 25 28  1  0  0  0  0
 27 28  1  0  0  0  0
 28 26  2  0  0  0  0
 30 35  1  0  0  0  0
 31 34  2  0  0  0  0
 32 34  1  0  0  0  0
 33 31  1  0  0  0  0
 34 29  1  0  0  0  0
 35 39  1  0  0  0  0
 36 30  2  0  0  0  0
 36 37  1  0  0  0  0
 37 38  1  0  0  0  0
 37 39  2  0  0  0  0
 38 33  1  0  0  0  0
 39 32  1  0  0  0  0
M  END
>  <MODEL>
8

>  <REMARK>
 VINA RESULT:      -6.4      2.771      6.527
  Name = 
  14 active torsions:
  status: ('A' for Active; 'I' for Inactive)
    1  A    between atoms: N_1  and  C_11
    2  A    between atoms: N_1  and  C_24
    3  A    between atoms: C_3  and  C_4
    4  A    between atoms: C_3  and  N_29
    5  A    between atoms: C_4  and  C_22
    6  A    between atoms: N_6  and  C_33
    7  A    between atoms: C_7  and  C_24
    8  A    between atoms: C_7  and  C_34
    9  A    between atoms: C_11  and  C_23
   10  A    between atoms: C_11  and  C_39
   11  A    between atoms: C_12  and  C_39
   12  A    between atoms: C_15  and  C_27
   13  A    between atoms: C_33  and  C_37
   14  A    between atoms: C_34  and  C_37
                            x       y       z     vdW  Elec       q    Type
                         _______ _______ _______ _____ _____    ______ ____

>  <TORSDO>
F 14

$$$$
=
 OpenBabel11042414593D

 39 42  0  0  1  0  0  0  0  0999 V2000
  190.6290  175.0870  145.4630 C   0  0  1  0  0  3  0  0  0  0  0  0
  187.3170  177.5470  144.3330 C   0  0  0  0  0  0  0  0  0  0  0  0
  188.4630  176.2220  146.0010 C   0  0  0  0  0  3  0  0  0  0  0  0
  186.2940  177.4740  146.2970 C   0  0  0  0  0  0  0  0  0  0  0  0
  189.4640  175.9410  145.0530 C   0  0  0  0  0  0  0  0  0  0  0  0
  185.9490  177.1790  147.7170 C   0  0  0  0  0  1  0  0  0  0  0  0
  185.5730  178.2540  145.3990 C   0  0  0  0  0  0  0  0  0  0  0  0
  186.2040  178.2960  144.1990 N   0  0  0  0  0  0  0  0  0  0  0  0
  188.2960  177.2930  143.3720 C   0  0  0  0  0  3  0  0  0  0  0  0
  184.2930  178.9600  145.7030 C   0  0  0  0  0  1  0  0  0  0  0  0
  187.4010  177.0310  145.6030 C   0  0  0  0  0  0  0  0  0  0  0  0
  189.3810  176.4800  143.7470 C   0  0  0  0  0  3  0  0  0  0  0  0
  185.7530  178.9890  142.9960 C   0  0  0  0  0  2  0  0  0  0  0  0
  184.8980  178.0680  142.1310 C   0  0  0  0  0  2  0  0  0  0  0  0
  186.3990  177.5630  140.2000 C   0  0  0  0  0  1  0  0  0  0  0  0
  185.1520  178.3010  140.6490 C   0  0  0  0  0  2  0  0  0  0  0  0
  191.0760  175.4410  146.8030 N   0  0  0  0  0  2  0  0  0  0  0  0
  192.0710  176.4950  146.6690 C   0  0  0  0  0  2  0  0  0  0  0  0
  193.0800  176.1380  145.5840 C   0  0  0  0  0  2  0  0  0  0  0  0
  194.4750  175.9330  146.1640 C   0  0  0  0  0  2  0  0  0  0  0  0
  195.0570  174.5800  145.7690 C   0  0  0  0  0  2  0  0  0  0  0  0
  196.7770  173.7180  144.3750 O   0  0  0  0  0  0  0  0  0  0  0  0
  196.0570  174.7110  144.6610 C   0  0  0  0  0  0  0  0  0  0  0  0
  196.3130  175.9670  144.0160 N   0  0  0  0  0  0  0  0  0  0  0  0
  195.8070  176.4190  142.9040 C   0  0  0  0  0  3  0  0  0  0  0  0
  195.4620  174.9560  141.0500 O   0  0  0  0  0  0  0  0  0  0  0  0
  193.4850  175.8120  142.0420 C   0  0  0  0  0  1  0  0  0  0  0  0
  194.9630  175.6590  141.9660 C   0  0  0  0  0  0  0  0  0  0  0  0
  190.2770  173.6030  145.4150 C   0  0  0  0  0  2  0  0  0  0  0  0
  194.4040  171.6270  141.6530 C   0  0  0  0  0  3  0  0  0  0  0  0
  189.5480  172.8450  143.2320 N   0  0  0  0  0  0  0  0  0  0  0  0
  191.9220  172.7710  143.8440 N   0  0  0  0  0  2  0  0  0  0  0  0
  189.4530  172.3880  141.9880 N   0  0  0  0  0  2  0  0  0  0  0  0
  190.6030  173.0220  144.0800 C   0  0  0  0  0  0  0  0  0  0  0  0
  194.0340  172.1440  142.8860 C   0  0  0  0  0  2  0  0  0  0  0  0
  193.3250  171.4550  140.8620 N   0  0  0  0  0  0  0  0  0  0  0  0
  192.2730  171.8600  141.5900 C   0  0  0  0  0  0  0  0  0  0  0  0
  190.7020  171.8510  141.0170 S   0  0  0  0  0  0  0  0  0  0  0  0
  192.6660  172.2850  142.8210 C   0  0  0  0  0  0  0  0  0  0  0  0
  1 29  1  1  0  0  0
  1 17  1  0  0  0  0
  2 11  1  0  0  0  0
  4  6  1  0  0  0  0
  5  1  1  0  0  0  0
  5  3  1  0  0  0  0
  7 10  1  0  0  0  0
  7  4  2  0  0  0  0
  8  2  1  0  0  0  0
  8  7  1  0  0  0  0
  9 12  1  0  0  0  0
  9  2  2  0  0  0  0
 11  3  2  0  0  0  0
 11  4  1  0  0  0  0
 12  5  2  0  0  0  0
 13  8  1  0  0  0  0
 14 13  1  0  0  0  0
 15 16  1  0  0  0  0
 16 14  1  0  0  0  0
 18 17  1  0  0  0  0
 19 20  1  0  0  0  0
 19 18  1  0  0  0  0
 21 20  1  0  0  0  0
 22 23  2  0  0  0  0
 23 21  1  0  0  0  0
 24 23  1  0  0  0  0
 25 24  2  0  0  0  0
 26 28  2  0  0  0  0
 28 27  1  0  0  0  0
 28 25  1  0  0  0  0
 30 35  1  0  0  0  0
 31 34  2  0  0  0  0
 32 34  1  0  0  0  0
 33 31  1  0  0  0  0
 34 29  1  0  0  0  0
 36 37  1  0  0  0  0
 36 30  2  0  0  0  0
 37 39  2  0  0  0  0
 38 37  1  0  0  0  0
 38 33  1  0  0  0  0
 39 35  1  0  0  0  0
 39 32  1  0  0  0  0
M  END
>  <MODEL>
9

>  <REMARK>
 VINA RESULT:      -6.3      2.475      7.010
  Name = 
  14 active torsions:
  status: ('A' for Active; 'I' for Inactive)
    1  A    between atoms: N_1  and  C_11
    2  A    between atoms: N_1  and  C_24
    3  A    between atoms: C_3  and  C_4
    4  A    between atoms: C_3  and  N_29
    5  A    between atoms: C_4  and  C_22
    6  A    between atoms: N_6  and  C_33
    7  A    between atoms: C_7  and  C_24
    8  A    between atoms: C_7  and  C_34
    9  A    between atoms: C_11  and  C_23
   10  A    between atoms: C_11  and  C_39
   11  A    between atoms: C_12  and  C_39
   12  A    between atoms: C_15  and  C_27
   13  A    between atoms: C_33  and  C_37
   14  A    between atoms: C_34  and  C_37
                            x       y       z     vdW  Elec       q    Type
                         _______ _______ _______ _____ _____    ______ ____

>  <TORSDO>
F 14

$$$$
