=
 OpenBabel11042417583D

 36 40  0  0  1  0  0  0  0  0999 V2000
  190.8550  175.4150  147.2630 C   0  0  0  0  0  3  0  0  0  0  0  0
  191.6390  175.1320  144.6020 C   0  0  0  0  0  3  0  0  0  0  0  0
  190.2740  175.2150  144.9170 C   0  0  0  0  0  0  0  0  0  0  0  0
  192.6090  175.1950  145.6100 C   0  0  0  0  0  0  0  0  0  0  0  0
  189.8790  175.3570  146.2570 C   0  0  0  0  0  0  0  0  0  0  0  0
  192.2110  175.3320  146.9410 C   0  0  0  0  0  3  0  0  0  0  0  0
  188.4780  175.4410  146.5650 N   0  0  0  0  0  2  0  0  0  0  0  0
  187.6950  176.6320  146.7330 C   0  0  0  0  0  0  0  0  0  0  0  0
  188.2250  177.7680  146.6130 O   0  0  0  0  0  0  0  0  0  0  0  0
  186.3270  176.5610  147.0260 O   0  0  0  0  0  0  0  0  0  0  0  0
  184.9980  177.5180  145.3780 O   0  0  0  0  0  0  0  0  0  0  0  0
  184.7700  178.3310  147.5020 O   0  0  0  0  0  1  0  0  0  0  0  0
  185.3570  177.4690  146.5850 C   0  0  0  0  0  0  0  0  0  0  0  0
  194.0670  175.0870  145.2870 C   0  0  2  0  0  3  0  0  0  0  0  0
  194.3360  175.6090  144.0180 O   0  0  0  0  0  1  0  0  0  0  0  0
  195.4720  171.0590  145.6950 C   0  0  0  0  0  0  0  0  0  0  0  0
  195.9140  173.3970  145.6370 C   0  0  0  0  0  0  0  0  0  0  0  0
  194.5560  173.6710  145.4030 C   0  0  1  0  0  3  0  0  0  0  0  0
  196.7510  174.3350  145.7250 O   0  0  0  0  0  0  0  0  0  0  0  0
  194.1140  171.2890  145.4580 C   0  0  0  0  0  3  0  0  0  0  0  0
  196.3340  172.1100  145.7690 N   0  0  0  0  0  0  0  0  0  0  0  0
  193.6570  172.5990  145.3190 C   0  0  0  0  0  3  0  0  0  0  0  0
  196.3240  169.3510  147.2260 C   0  0  2  0  0  3  0  0  0  0  0  0
  195.1240  168.9100  146.6430 O   0  0  0  0  0  0  0  0  0  0  0  0
  195.9840  169.6600  145.8180 C   0  0  1  0  0  3  0  0  0  0  0  0
  197.3040  168.1980  147.2720 C   0  0  0  0  0  1  0  0  0  0  0  0
  189.2940  175.1510  143.9180 O   0  0  0  0  0  0  0  0  0  0  0  0
  189.2390  176.0540  142.8150 C   0  0  2  0  0  3  0  0  0  0  0  0
  187.0850  177.0160  142.2740 C   0  0  1  0  0  0  0  0  0  0  0  0
  186.7250  175.6740  142.8630 C   0  0  0  0  0  2  0  0  0  0  0  0
  189.2260  177.4970  143.3030 C   0  0  0  0  0  2  0  0  0  0  0  0
  187.8030  177.9990  143.1730 C   0  0  0  0  0  2  0  0  0  0  0  0
  187.9740  175.8250  141.9910 C   0  0  2  0  0  3  0  0  0  0  0  0
  186.2980  177.4900  141.0990 C   0  0  0  0  0  0  0  0  0  0  0  0
  186.8230  177.5220  139.9550 O   0  0  0  0  0  0  0  0  0  0  0  0
  184.9920  177.9310  141.2700 O   0  0  0  0  0  1  0  0  0  0  0  0
  2  3  2  0  0  0  0
  2  4  1  0  0  0  0
  3  5  1  0  0  0  0
  4  6  2  0  0  0  0
  5  7  1  0  0  0  0
  5  1  2  0  0  0  0
  6  1  1  0  0  0  0
  7  8  1  0  0  0  0
  8 10  1  0  0  0  0
  9  8  2  0  0  0  0
 11 13  2  0  0  0  0
 13 10  1  0  0  0  0
 13 12  1  0  0  0  0
 14 15  1  6  0  0  0
 14  4  1  0  0  0  0
 16 21  2  0  0  0  0
 17 19  2  0  0  0  0
 17 21  1  0  0  0  0
 18 14  1  1  0  0  0
 18 17  1  0  0  0  0
 20 16  1  0  0  0  0
 22 18  1  0  0  0  0
 22 20  2  0  0  0  0
 23 26  1  6  0  0  0
 24 23  1  0  0  0  0
 25 16  1  1  0  0  0
 25 24  1  0  0  0  0
 25 23  1  0  0  0  0
 27  3  1  0  0  0  0
 28 31  1  0  0  0  0
 28 27  1  1  0  0  0
 29 34  1  6  0  0  0
 29 30  1  0  0  0  0
 29 32  1  0  0  0  0
 32 31  1  0  0  0  0
 33 29  1  0  0  0  0
 33 28  1  0  0  0  0
 33 30  1  1  0  0  0
 34 36  1  0  0  0  0
 35 34  2  0  0  0  0
M  END
>  <MODEL>
1

>  <REMARK>
 VINA RESULT:      -7.5      0.000      0.000
  Name = 
  9 active torsions:
  status: ('A' for Active; 'I' for Inactive)
    1  A    between atoms: C_3  and  C_5
    2  A    between atoms: N_4  and  C_23
    3  A    between atoms: C_6  and  O_26
    4  A    between atoms: C_10  and  C_12
    5  A    between atoms: C_10  and  C_21
    6  A    between atoms: C_13  and  O_26
    7  A    between atoms: C_14  and  C_15
    8  A    between atoms: C_22  and  O_25
    9  A    between atoms: O_25  and  C_35
                            x       y       z     vdW  Elec       q    Type
                         _______ _______ _______ _____ _____    ______ ____

>  <TORSDO>
F 9

$$$$
=
 OpenBabel11042417583D

 36 40  0  0  1  0  0  0  0  0999 V2000
  188.8530  177.4870  145.4280 C   0  0  0  0  0  3  0  0  0  0  0  0
  190.0440  175.0690  144.7180 C   0  0  0  0  0  3  0  0  0  0  0  0
  188.9950  175.5800  143.9380 C   0  0  0  0  0  0  0  0  0  0  0  0
  190.4990  175.7640  145.8440 C   0  0  0  0  0  0  0  0  0  0  0  0
  188.3950  176.7980  144.2950 C   0  0  0  0  0  0  0  0  0  0  0  0
  189.8970  176.9720  146.1990 C   0  0  0  0  0  3  0  0  0  0  0  0
  187.3220  177.3100  143.4880 N   0  0  0  0  0  2  0  0  0  0  0  0
  187.4340  178.0750  142.2790 C   0  0  0  0  0  0  0  0  0  0  0  0
  188.5650  178.3720  141.8120 O   0  0  0  0  0  0  0  0  0  0  0  0
  186.2930  178.5040  141.5890 O   0  0  0  0  0  0  0  0  0  0  0  0
  186.5740  177.4610  139.5310 O   0  0  0  0  0  0  0  0  0  0  0  0
  184.4300  177.8910  140.1950 O   0  0  0  0  0  1  0  0  0  0  0  0
  185.8020  177.9360  140.4060 C   0  0  0  0  0  0  0  0  0  0  0  0
  191.6040  175.2180  146.6950 C   0  0  2  0  0  3  0  0  0  0  0  0
  191.6190  175.8360  147.9490 O   0  0  0  0  0  1  0  0  0  0  0  0
  195.3730  175.5680  144.6880 C   0  0  0  0  0  0  0  0  0  0  0  0
  193.5210  174.2390  145.3710 C   0  0  0  0  0  0  0  0  0  0  0  0
  192.9380  175.3420  146.0160 C   0  0  0  0  0  0  0  0  0  0  0  0
  192.9480  173.1170  145.3760 O   0  0  0  0  0  0  0  0  0  0  0  0
  194.8300  176.6890  145.3210 C   0  0  0  0  0  2  0  0  0  0  0  0
  194.7160  174.3770  144.7350 N   0  0  0  0  0  0  0  0  0  0  0  0
  193.6060  176.5740  145.9810 C   0  0  0  0  0  3  0  0  0  0  0  0
  196.5180  175.8750  142.5460 C   0  0  2  0  0  3  0  0  0  0  0  0
  196.8350  176.9360  143.4110 O   0  0  0  0  0  0  0  0  0  0  0  0
  196.6980  175.6650  144.0010 C   0  0  1  0  0  3  0  0  0  0  0  0
  197.7690  175.4450  141.8100 C   0  0  0  0  0  1  0  0  0  0  0  0
  188.5290  174.8930  142.8090 O   0  0  0  0  0  0  0  0  0  0  0  0
  189.3080  174.7020  141.6300 C   0  0  2  0  0  3  0  0  0  0  0  0
  189.5110  172.4440  140.7850 C   0  0  1  0  0  0  0  0  0  0  0  0
  189.3490  172.2420  142.2720 C   0  0  0  0  0  2  0  0  0  0  0  0
  188.4090  174.5690  140.4080 C   0  0  0  0  0  2  0  0  0  0  0  0
  188.3660  173.0990  140.0440 C   0  0  0  0  0  2  0  0  0  0  0  0
  190.1480  173.4320  141.7360 C   0  0  2  0  0  3  0  0  0  0  0  0
  190.4800  171.5640  140.0700 C   0  0  0  0  0  0  0  0  0  0  0  0
  191.2010  172.0320  139.1500 O   0  0  0  0  0  0  0  0  0  0  0  0
  190.5640  170.2160  140.3930 O   0  0  0  0  0  1  0  0  0  0  0  0
  1  6  1  0  0  0  0
  2  4  1  0  0  0  0
  3  5  1  0  0  0  0
  3  2  2  0  0  0  0
  4  6  2  0  0  0  0
  4 14  1  0  0  0  0
  5  1  2  0  0  0  0
  7  5  1  0  0  0  0
  8  7  1  0  0  0  0
  9  8  2  0  0  0  0
 10  8  1  0  0  0  0
 11 13  2  0  0  0  0
 12 13  1  0  0  0  0
 13 10  1  0  0  0  0
 14 15  1  1  0  0  0
 16 21  2  0  0  0  0
 16 20  1  0  0  0  0
 17 19  2  0  0  0  0
 17 18  1  0  0  0  0
 18 14  1  0  0  0  0
 20 22  1  0  0  0  0
 21 17  1  0  0  0  0
 22 18  2  0  0  0  0
 23 26  1  6  0  0  0
 23 24  1  0  0  0  0
 23 25  1  0  0  0  0
 24 25  1  0  0  0  0
 25 16  1  1  0  0  0
 27  3  1  0  0  0  0
 28 33  1  0  0  0  0
 28 27  1  1  0  0  0
 29 34  1  6  0  0  0
 29 33  1  0  0  0  0
 29 30  1  0  0  0  0
 31 28  1  0  0  0  0
 32 31  1  0  0  0  0
 32 29  1  0  0  0  0
 33 30  1  1  0  0  0
 34 36  1  0  0  0  0
 35 34  2  0  0  0  0
M  END
>  <MODEL>
2

>  <REMARK>
 VINA RESULT:      -7.2      3.151      5.194
  Name = 
  9 active torsions:
  status: ('A' for Active; 'I' for Inactive)
    1  A    between atoms: C_3  and  C_5
    2  A    between atoms: N_4  and  C_23
    3  A    between atoms: C_6  and  O_26
    4  A    between atoms: C_10  and  C_12
    5  A    between atoms: C_10  and  C_21
    6  A    between atoms: C_13  and  O_26
    7  A    between atoms: C_14  and  C_15
    8  A    between atoms: C_22  and  O_25
    9  A    between atoms: O_25  and  C_35
                            x       y       z     vdW  Elec       q    Type
                         _______ _______ _______ _____ _____    ______ ____

>  <TORSDO>
F 9

$$$$
=
 OpenBabel11042417583D

 36 40  0  0  1  0  0  0  0  0999 V2000
  190.0940  175.3580  147.4990 C   0  0  0  0  0  3  0  0  0  0  0  0
  191.5460  176.6130  145.4760 C   0  0  0  0  0  3  0  0  0  0  0  0
  190.1430  176.6150  145.4270 C   0  0  0  0  0  0  0  0  0  0  0  0
  192.2210  175.9910  146.5340 C   0  0  0  0  0  0  0  0  0  0  0  0
  189.4120  175.9830  146.4450 C   0  0  0  0  0  0  0  0  0  0  0  0
  191.4900  175.3600  147.5420 C   0  0  0  0  0  3  0  0  0  0  0  0
  187.9770  175.9930  146.3810 N   0  0  0  0  0  2  0  0  0  0  0  0
  187.0920  177.0040  146.8870 C   0  0  0  0  0  0  0  0  0  0  0  0
  187.5510  178.0240  147.4660 O   0  0  0  0  0  0  0  0  0  0  0  0
  185.7040  176.8830  146.7460 O   0  0  0  0  0  0  0  0  0  0  0  0
  183.9630  178.3220  146.2000 O   0  0  0  0  0  1  0  0  0  0  0  0
  185.2070  177.4910  144.4720 O   0  0  0  0  0  0  0  0  0  0  0  0
  184.9190  177.5920  145.8270 C   0  0  0  0  0  0  0  0  0  0  0  0
  193.7170  175.9650  146.5860 C   0  0  2  0  0  3  0  0  0  0  0  0
  194.2260  177.2260  146.9130 O   0  0  0  0  0  1  0  0  0  0  0  0
  195.3260  174.5170  142.8880 C   0  0  0  0  0  0  0  0  0  0  0  0
  194.2960  174.0920  144.9910 C   0  0  0  0  0  0  0  0  0  0  0  0
  194.3070  175.4630  145.2980 C   0  0  0  0  0  0  0  0  0  0  0  0
  193.8160  173.2570  145.8030 O   0  0  0  0  0  0  0  0  0  0  0  0
  195.3610  175.8880  143.1580 C   0  0  0  0  0  2  0  0  0  0  0  0
  194.8070  173.6570  143.8070 N   0  0  0  0  0  0  0  0  0  0  0  0
  194.8430  176.3590  144.3650 C   0  0  0  0  0  3  0  0  0  0  0  0
  194.9450  174.1640  140.4960 C   0  0  2  0  0  3  0  0  0  0  0  0
  196.0290  175.0380  140.6800 O   0  0  0  0  0  0  0  0  0  0  0  0
  195.9020  173.9910  141.6130 C   0  0  1  0  0  3  0  0  0  0  0  0
  195.2770  173.1920  139.3850 C   0  0  0  0  0  1  0  0  0  0  0  0
  189.4560  177.2320  144.3730 O   0  0  0  0  0  0  0  0  0  0  0  0
  189.8100  177.0640  143.0010 C   0  0  2  0  0  3  0  0  0  0  0  0
  188.3840  175.6510  141.6500 C   0  0  1  0  0  0  0  0  0  0  0  0
  188.2500  175.0570  143.0310 C   0  0  0  0  0  2  0  0  0  0  0  0
  188.9560  177.9600  142.1130 C   0  0  0  0  0  2  0  0  0  0  0  0
  187.9140  177.0770  141.4590 C   0  0  0  0  0  2  0  0  0  0  0  0
  189.5920  175.6190  142.5590 C   0  0  2  0  0  3  0  0  0  0  0  0
  188.4560  174.7100  140.4960 C   0  0  0  0  0  0  0  0  0  0  0  0
  187.9760  175.0370  139.3790 O   0  0  0  0  0  0  0  0  0  0  0  0
  189.0210  173.4510  140.6600 O   0  0  0  0  0  1  0  0  0  0  0  0
  1  6  1  0  0  0  0
  2  4  1  0  0  0  0
  3  2  2  0  0  0  0
  3  5  1  0  0  0  0
  4 14  1  0  0  0  0
  4  6  2  0  0  0  0
  5  1  2  0  0  0  0
  7  5  1  0  0  0  0
  7  8  1  0  0  0  0
  8  9  2  0  0  0  0
 10  8  1  0  0  0  0
 12 13  2  0  0  0  0
 13 11  1  0  0  0  0
 13 10  1  0  0  0  0
 14 15  1  6  0  0  0
 16 20  1  0  0  0  0
 16 21  2  0  0  0  0
 17 18  1  0  0  0  0
 17 19  2  0  0  0  0
 18 14  1  0  0  0  0
 20 22  1  0  0  0  0
 21 17  1  0  0  0  0
 22 18  2  0  0  0  0
 23 26  1  6  0  0  0
 23 24  1  0  0  0  0
 23 25  1  0  0  0  0
 24 25  1  0  0  0  0
 25 16  1  1  0  0  0
 27  3  1  0  0  0  0
 28 27  1  1  0  0  0
 29 34  1  6  0  0  0
 29 33  1  0  0  0  0
 29 30  1  0  0  0  0
 31 28  1  0  0  0  0
 32 29  1  0  0  0  0
 32 31  1  0  0  0  0
 33 28  1  0  0  0  0
 33 30  1  1  0  0  0
 34 36  1  0  0  0  0
 35 34  2  0  0  0  0
M  END
>  <MODEL>
3

>  <REMARK>
 VINA RESULT:      -7.2      2.515      3.646
  Name = 
  9 active torsions:
  status: ('A' for Active; 'I' for Inactive)
    1  A    between atoms: C_3  and  C_5
    2  A    between atoms: N_4  and  C_23
    3  A    between atoms: C_6  and  O_26
    4  A    between atoms: C_10  and  C_12
    5  A    between atoms: C_10  and  C_21
    6  A    between atoms: C_13  and  O_26
    7  A    between atoms: C_14  and  C_15
    8  A    between atoms: C_22  and  O_25
    9  A    between atoms: O_25  and  C_35
                            x       y       z     vdW  Elec       q    Type
                         _______ _______ _______ _____ _____    ______ ____

>  <TORSDO>
F 9

$$$$
=
 OpenBabel11042417583D

 36 40  0  0  1  0  0  0  0  0999 V2000
  188.6820  177.4880  146.6720 C   0  0  0  0  0  3  0  0  0  0  0  0
  189.8240  175.3760  145.2540 C   0  0  0  0  0  3  0  0  0  0  0  0
  188.7380  176.0740  144.7030 C   0  0  0  0  0  0  0  0  0  0  0  0
  190.3410  175.7340  146.5050 C   0  0  0  0  0  0  0  0  0  0  0  0
  188.1620  177.1370  145.4170 C   0  0  0  0  0  0  0  0  0  0  0  0
  189.7630  176.7890  147.2130 C   0  0  0  0  0  3  0  0  0  0  0  0
  187.0510  177.8420  144.8410 N   0  0  0  0  0  2  0  0  0  0  0  0
  185.6560  177.6020  145.0720 C   0  0  0  0  0  0  0  0  0  0  0  0
  185.2860  176.6850  145.8540 O   0  0  0  0  0  0  0  0  0  0  0  0
  184.6750  178.3790  144.4430 O   0  0  0  0  0  0  0  0  0  0  0  0
  184.8800  177.5520  142.2810 O   0  0  0  0  0  0  0  0  0  0  0  0
  182.9740  178.7130  142.7750 O   0  0  0  0  0  1  0  0  0  0  0  0
  184.2090  178.1900  143.1350 C   0  0  0  0  0  0  0  0  0  0  0  0
  191.4860  174.9840  147.1110 C   0  0  2  0  0  3  0  0  0  0  0  0
  191.6640  175.3440  148.4500 O   0  0  0  0  0  1  0  0  0  0  0  0
  195.0550  175.5540  144.8090 C   0  0  0  0  0  0  0  0  0  0  0  0
  193.1900  174.2050  145.4140 C   0  0  0  0  0  0  0  0  0  0  0  0
  192.7530  175.1800  146.3270 C   0  0  1  0  0  3  0  0  0  0  0  0
  192.5420  173.1360  145.2590 O   0  0  0  0  0  0  0  0  0  0  0  0
  194.6570  176.5460  145.7100 C   0  0  0  0  0  3  0  0  0  0  0  0
  194.3230  174.4120  144.6900 N   0  0  0  0  0  0  0  0  0  0  0  0
  193.4990  176.3580  146.4640 C   0  0  0  0  0  3  0  0  0  0  0  0
  196.0040  176.2640  142.6670 C   0  0  2  0  0  3  0  0  0  0  0  0
  196.4900  177.0850  143.6980 O   0  0  0  0  0  0  0  0  0  0  0  0
  196.3090  175.7250  144.0130 C   0  0  1  0  0  3  0  0  0  0  0  0
  197.1370  175.9360  141.7190 C   0  0  0  0  0  1  0  0  0  0  0  0
  188.2100  175.7230  143.4530 O   0  0  0  0  0  0  0  0  0  0  0  0
  188.9030  175.9290  142.2240 C   0  0  2  0  0  3  0  0  0  0  0  0
  188.3590  174.4570  140.3820 C   0  0  1  0  0  0  0  0  0  0  0  0
  188.1120  173.5950  141.5960 C   0  0  0  0  0  2  0  0  0  0  0  0
  188.0330  176.7000  141.2400 C   0  0  0  0  0  2  0  0  0  0  0  0
  187.5120  175.7010  140.2280 C   0  0  0  0  0  2  0  0  0  0  0  0
  189.2710  174.5940  141.5810 C   0  0  2  0  0  3  0  0  0  0  0  0
  188.9940  173.8140  139.1950 C   0  0  0  0  0  0  0  0  0  0  0  0
  188.2820  173.3960  138.2440 O   0  0  0  0  0  0  0  0  0  0  0  0
  190.3710  173.6420  139.1520 O   0  0  0  0  0  1  0  0  0  0  0  0
  1  6  1  0  0  0  0
  2  4  1  0  0  0  0
  3  2  2  0  0  0  0
  3  5  1  0  0  0  0
  4 14  1  0  0  0  0
  4  6  2  0  0  0  0
  5  1  2  0  0  0  0
  7  8  1  0  0  0  0
  7  5  1  0  0  0  0
  8  9  2  0  0  0  0
 10  8  1  0  0  0  0
 11 13  2  0  0  0  0
 12 13  1  0  0  0  0
 13 10  1  0  0  0  0
 14 15  1  1  0  0  0
 16 20  1  0  0  0  0
 17 18  1  0  0  0  0
 18 22  1  0  0  0  0
 18 14  1  6  0  0  0
 19 17  2  0  0  0  0
 20 22  2  0  0  0  0
 21 16  2  0  0  0  0
 21 17  1  0  0  0  0
 23 26  1  6  0  0  0
 23 24  1  0  0  0  0
 23 25  1  0  0  0  0
 24 25  1  0  0  0  0
 25 16  1  1  0  0  0
 27  3  1  0  0  0  0
 28 27  1  1  0  0  0
 29 34  1  6  0  0  0
 29 33  1  0  0  0  0
 29 30  1  0  0  0  0
 31 28  1  0  0  0  0
 32 29  1  0  0  0  0
 32 31  1  0  0  0  0
 33 30  1  1  0  0  0
 33 28  1  0  0  0  0
 35 34  2  0  0  0  0
 36 34  1  0  0  0  0
M  END
>  <MODEL>
4

>  <REMARK>
 VINA RESULT:      -7.2      2.832      4.394
  Name = 
  9 active torsions:
  status: ('A' for Active; 'I' for Inactive)
    1  A    between atoms: C_3  and  C_5
    2  A    between atoms: N_4  and  C_23
    3  A    between atoms: C_6  and  O_26
    4  A    between atoms: C_10  and  C_12
    5  A    between atoms: C_10  and  C_21
    6  A    between atoms: C_13  and  O_26
    7  A    between atoms: C_14  and  C_15
    8  A    between atoms: C_22  and  O_25
    9  A    between atoms: O_25  and  C_35
                            x       y       z     vdW  Elec       q    Type
                         _______ _______ _______ _____ _____    ______ ____

>  <TORSDO>
F 9

$$$$
=
 OpenBabel11042417583D

 36 40  0  0  1  0  0  0  0  0999 V2000
  187.2810  175.4630  142.5340 C   0  0  0  0  0  3  0  0  0  0  0  0
  189.6100  174.5960  143.7980 C   0  0  0  0  0  3  0  0  0  0  0  0
  188.8520  175.6270  144.3730 C   0  0  0  0  0  0  0  0  0  0  0  0
  189.2050  173.9970  142.5990 C   0  0  0  0  0  0  0  0  0  0  0  0
  187.6790  176.0640  143.7380 C   0  0  0  0  0  0  0  0  0  0  0  0
  188.0410  174.4370  141.9670 C   0  0  0  0  0  3  0  0  0  0  0  0
  186.9130  177.1210  144.3380 N   0  0  0  0  0  2  0  0  0  0  0  0
  186.6080  178.4030  143.7700 C   0  0  0  0  0  0  0  0  0  0  0  0
  187.0270  178.7110  142.6230 O   0  0  0  0  0  0  0  0  0  0  0  0
  185.8380  179.3390  144.4730 O   0  0  0  0  0  0  0  0  0  0  0  0
  183.9180  178.7380  145.6350 O   0  0  0  0  0  0  0  0  0  0  0  0
  185.7820  179.1990  146.8740 O   0  0  0  0  0  1  0  0  0  0  0  0
  185.1300  179.0810  145.6540 C   0  0  0  0  0  0  0  0  0  0  0  0
  190.0170  172.9100  141.9660 C   0  0  2  0  0  3  0  0  0  0  0  0
  189.3440  171.6860  142.0260 O   0  0  0  0  0  1  0  0  0  0  0  0
  193.8960  172.6820  143.7730 C   0  0  0  0  0  0  0  0  0  0  0  0
  192.4290  173.6400  142.1620 C   0  0  0  0  0  0  0  0  0  0  0  0
  191.3820  172.8060  142.5870 C   0  0  1  0  0  3  0  0  0  0  0  0
  192.2500  174.4700  141.2310 O   0  0  0  0  0  0  0  0  0  0  0  0
  192.8820  171.8320  144.2220 C   0  0  0  0  0  3  0  0  0  0  0  0
  193.6510  173.5530  142.7550 N   0  0  0  0  0  0  0  0  0  0  0  0
  191.6220  171.9010  143.6290 C   0  0  0  0  0  3  0  0  0  0  0  0
  195.3440  173.4370  145.5970 C   0  0  2  0  0  3  0  0  0  0  0  0
  195.1800  172.0440  145.6660 O   0  0  0  0  0  0  0  0  0  0  0  0
  195.2620  172.6030  144.3760 C   0  0  1  0  0  3  0  0  0  0  0  0
  196.7900  173.7810  145.8830 C   0  0  0  0  0  1  0  0  0  0  0  0
  189.2480  176.2360  145.5720 O   0  0  0  0  0  0  0  0  0  0  0  0
  190.2620  177.2360  145.6460 C   0  0  2  0  0  3  0  0  0  0  0  0
  192.5550  176.5150  145.3660 C   0  0  1  0  0  0  0  0  0  0  0  0
  191.8860  175.3070  145.9760 C   0  0  0  0  0  2  0  0  0  0  0  0
  190.7210  177.6390  144.2500 C   0  0  0  0  0  2  0  0  0  0  0  0
  192.0610  176.9730  144.0120 C   0  0  0  0  0  2  0  0  0  0  0  0
  191.4790  176.7170  146.4090 C   0  0  2  0  0  3  0  0  0  0  0  0
  193.9330  176.8490  145.8300 C   0  0  0  0  0  0  0  0  0  0  0  0
  194.1410  177.1490  147.0350 O   0  0  0  0  0  1  0  0  0  0  0  0
  194.9860  176.8660  144.9240 O   0  0  0  0  0  0  0  0  0  0  0  0
  1  5  1  0  0  0  0
  2  3  1  0  0  0  0
  3 27  1  0  0  0  0
  4  2  2  0  0  0  0
  5  7  1  0  0  0  0
  5  3  2  0  0  0  0
  6  1  2  0  0  0  0
  6  4  1  0  0  0  0
  8  7  1  0  0  0  0
  8 10  1  0  0  0  0
  9  8  2  0  0  0  0
 10 13  1  0  0  0  0
 11 13  2  0  0  0  0
 13 12  1  0  0  0  0
 14 15  1  1  0  0  0
 14  4  1  0  0  0  0
 16 20  1  0  0  0  0
 17 18  1  0  0  0  0
 17 21  1  0  0  0  0
 18 14  1  1  0  0  0
 18 22  1  0  0  0  0
 19 17  2  0  0  0  0
 21 16  2  0  0  0  0
 22 20  2  0  0  0  0
 23 24  1  0  0  0  0
 23 26  1  1  0  0  0
 25 16  1  6  0  0  0
 25 23  1  0  0  0  0
 25 24  1  0  0  0  0
 28 27  1  6  0  0  0
 28 33  1  0  0  0  0
 29 34  1  1  0  0  0
 29 30  1  0  0  0  0
 29 33  1  0  0  0  0
 31 28  1  0  0  0  0
 32 31  1  0  0  0  0
 32 29  1  0  0  0  0
 33 30  1  6  0  0  0
 34 35  1  0  0  0  0
 36 34  2  0  0  0  0
M  END
>  <MODEL>
5

>  <REMARK>
 VINA RESULT:      -6.8      2.391      5.008
  Name = 
  9 active torsions:
  status: ('A' for Active; 'I' for Inactive)
    1  A    between atoms: C_3  and  C_5
    2  A    between atoms: N_4  and  C_23
    3  A    between atoms: C_6  and  O_26
    4  A    between atoms: C_10  and  C_12
    5  A    between atoms: C_10  and  C_21
    6  A    between atoms: C_13  and  O_26
    7  A    between atoms: C_14  and  C_15
    8  A    between atoms: C_22  and  O_25
    9  A    between atoms: O_25  and  C_35
                            x       y       z     vdW  Elec       q    Type
                         _______ _______ _______ _____ _____    ______ ____

>  <TORSDO>
F 9

$$$$
=
 OpenBabel11042417583D

 36 40  0  0  1  0  0  0  0  0999 V2000
  192.0530  176.0120  147.1640 C   0  0  0  0  0  3  0  0  0  0  0  0
  192.6500  176.6500  144.5170 C   0  0  0  0  0  3  0  0  0  0  0  0
  191.3460  176.8390  144.9980 C   0  0  0  0  0  0  0  0  0  0  0  0
  193.6540  176.1480  145.3550 C   0  0  0  0  0  0  0  0  0  0  0  0
  191.0440  176.5180  146.3310 C   0  0  0  0  0  0  0  0  0  0  0  0
  193.3480  175.8250  146.6790 C   0  0  0  0  0  3  0  0  0  0  0  0
  189.7040  176.7180  146.8100 N   0  0  0  0  0  2  0  0  0  0  0  0
  188.6980  175.7160  147.0170 C   0  0  0  0  0  0  0  0  0  0  0  0
  188.9420  174.5040  146.7720 O   0  0  0  0  0  0  0  0  0  0  0  0
  187.4280  176.0570  147.4990 O   0  0  0  0  0  0  0  0  0  0  0  0
  185.8720  177.7830  147.4910 O   0  0  0  0  0  1  0  0  0  0  0  0
  186.3370  176.7910  145.4850 O   0  0  0  0  0  0  0  0  0  0  0  0
  186.5210  176.9090  146.8560 C   0  0  0  0  0  0  0  0  0  0  0  0
  195.0440  175.9220  144.8470 C   0  0  2  0  0  3  0  0  0  0  0  0
  195.1530  176.3080  143.5080 O   0  0  0  0  0  1  0  0  0  0  0  0
  196.3160  171.8570  145.3130 C   0  0  0  0  0  0  0  0  0  0  0  0
  194.9510  173.4740  144.2250 C   0  0  0  0  0  0  0  0  0  0  0  0
  195.4760  174.4950  145.0340 C   0  0  1  0  0  3  0  0  0  0  0  0
  194.0850  173.7340  143.3470 O   0  0  0  0  0  0  0  0  0  0  0  0
  196.8600  172.8420  146.1410 C   0  0  0  0  0  3  0  0  0  0  0  0
  195.3750  172.1920  144.3880 N   0  0  0  0  0  0  0  0  0  0  0  0
  196.4410  174.1650  145.9940 C   0  0  0  0  0  3  0  0  0  0  0  0
  196.2720  169.8970  146.7780 C   0  0  2  0  0  3  0  0  0  0  0  0
  195.5910  169.6120  145.5830 O   0  0  0  0  0  0  0  0  0  0  0  0
  196.7320  170.4300  145.4750 C   0  0  1  0  0  3  0  0  0  0  0  0
  197.1150  168.7000  147.1650 C   0  0  0  0  0  1  0  0  0  0  0  0
  190.3330  177.3390  144.1680 O   0  0  0  0  0  0  0  0  0  0  0  0
  190.2660  177.0770  142.7680 C   0  0  2  0  0  3  0  0  0  0  0  0
  188.5220  175.5870  141.9980 C   0  0  1  0  0  0  0  0  0  0  0  0
  188.8110  175.0870  143.3920 C   0  0  0  0  0  2  0  0  0  0  0  0
  189.1760  177.9170  142.1160 C   0  0  0  0  0  2  0  0  0  0  0  0
  187.9980  177.0000  141.8610 C   0  0  0  0  0  2  0  0  0  0  0  0
  189.9460  175.6070  142.5070 C   0  0  2  0  0  3  0  0  0  0  0  0
  188.2610  174.5700  140.9390 C   0  0  0  0  0  0  0  0  0  0  0  0
  188.1900  174.9150  139.7300 O   0  0  0  0  0  0  0  0  0  0  0  0
  188.0580  173.2400  141.2880 O   0  0  0  0  0  1  0  0  0  0  0  0
  2  3  2  0  0  0  0
  2  4  1  0  0  0  0
  3  5  1  0  0  0  0
  4  6  2  0  0  0  0
  5  7  1  0  0  0  0
  5  1  2  0  0  0  0
  6  1  1  0  0  0  0
  7  8  1  0  0  0  0
  8 10  1  0  0  0  0
  9  8  2  0  0  0  0
 12 13  2  0  0  0  0
 13 11  1  0  0  0  0
 13 10  1  0  0  0  0
 14 15  1  6  0  0  0
 14  4  1  0  0  0  0
 16 20  1  0  0  0  0
 17 21  1  0  0  0  0
 17 18  1  0  0  0  0
 18 14  1  6  0  0  0
 18 22  1  0  0  0  0
 19 17  2  0  0  0  0
 21 16  2  0  0  0  0
 22 20  2  0  0  0  0
 23 26  1  6  0  0  0
 24 23  1  0  0  0  0
 25 16  1  1  0  0  0
 25 24  1  0  0  0  0
 25 23  1  0  0  0  0
 27  3  1  0  0  0  0
 28 27  1  1  0  0  0
 29 34  1  6  0  0  0
 29 33  1  0  0  0  0
 29 30  1  0  0  0  0
 31 28  1  0  0  0  0
 32 29  1  0  0  0  0
 32 31  1  0  0  0  0
 33 28  1  0  0  0  0
 33 30  1  1  0  0  0
 34 36  1  0  0  0  0
 35 34  2  0  0  0  0
M  END
>  <MODEL>
6

>  <REMARK>
 VINA RESULT:      -6.8      1.771      2.222
  Name = 
  9 active torsions:
  status: ('A' for Active; 'I' for Inactive)
    1  A    between atoms: C_3  and  C_5
    2  A    between atoms: N_4  and  C_23
    3  A    between atoms: C_6  and  O_26
    4  A    between atoms: C_10  and  C_12
    5  A    between atoms: C_10  and  C_21
    6  A    between atoms: C_13  and  O_26
    7  A    between atoms: C_14  and  C_15
    8  A    between atoms: C_22  and  O_25
    9  A    between atoms: O_25  and  C_35
                            x       y       z     vdW  Elec       q    Type
                         _______ _______ _______ _____ _____    ______ ____

>  <TORSDO>
F 9

$$$$
=
 OpenBabel11042417583D

 36 40  0  0  1  0  0  0  0  0999 V2000
  187.8080  175.2040  141.1530 C   0  0  0  0  0  3  0  0  0  0  0  0
  189.4790  174.5930  143.2990 C   0  0  0  0  0  3  0  0  0  0  0  0
  188.3800  175.4430  143.4960 C   0  0  0  0  0  0  0  0  0  0  0  0
  189.7410  174.0470  142.0370 C   0  0  0  0  0  0  0  0  0  0  0  0
  187.5380  175.7510  142.4160 C   0  0  0  0  0  0  0  0  0  0  0  0
  188.9040  174.3590  140.9640 C   0  0  0  0  0  3  0  0  0  0  0  0
  186.4160  176.6220  142.6330 N   0  0  0  0  0  2  0  0  0  0  0  0
  186.3700  178.0430  142.4360 C   0  0  0  0  0  0  0  0  0  0  0  0
  187.3870  178.6660  142.0330 O   0  0  0  0  0  0  0  0  0  0  0  0
  185.1960  178.7670  142.6830 O   0  0  0  0  0  0  0  0  0  0  0  0
  183.5680  179.0720  144.3120 O   0  0  0  0  0  0  0  0  0  0  0  0
  185.6800  179.7920  144.8040 O   0  0  0  0  0  1  0  0  0  0  0  0
  184.7650  179.2040  143.9410 C   0  0  0  0  0  0  0  0  0  0  0  0
  190.9230  173.1560  141.8100 C   0  0  2  0  0  3  0  0  0  0  0  0
  190.5690  171.8120  141.9620 O   0  0  0  0  0  1  0  0  0  0  0  0
  194.1600  174.2590  144.3920 C   0  0  0  0  0  0  0  0  0  0  0  0
  193.0630  174.4130  142.2860 C   0  0  0  0  0  0  0  0  0  0  0  0
  192.0690  173.5170  142.7120 C   0  0  1  0  0  3  0  0  0  0  0  0
  193.0260  174.9070  141.1270 O   0  0  0  0  0  0  0  0  0  0  0  0
  193.1940  173.3600  144.8530 C   0  0  0  0  0  3  0  0  0  0  0  0
  194.0780  174.7530  143.1260 N   0  0  0  0  0  0  0  0  0  0  0  0
  192.1440  172.9960  144.0110 C   0  0  0  0  0  3  0  0  0  0  0  0
  196.3400  173.5750  145.2710 C   0  0  2  0  0  3  0  0  0  0  0  0
  196.4830  174.7410  144.5000 O   0  0  0  0  0  0  0  0  0  0  0  0
  195.3090  174.6380  145.2700 C   0  0  1  0  0  3  0  0  0  0  0  0
  197.1950  173.6960  146.5140 C   0  0  0  0  0  1  0  0  0  0  0  0
  188.1090  175.9970  144.7550 O   0  0  0  0  0  0  0  0  0  0  0  0
  188.8930  177.0350  145.3390 C   0  0  2  0  0  3  0  0  0  0  0  0
  191.0080  176.4060  146.3320 C   0  0  1  0  0  0  0  0  0  0  0  0
  190.1610  175.1700  146.5130 C   0  0  0  0  0  2  0  0  0  0  0  0
  190.0080  177.4630  144.3940 C   0  0  0  0  0  2  0  0  0  0  0  0
  191.2930  176.8510  144.9140 C   0  0  0  0  0  2  0  0  0  0  0  0
  189.5360  176.5600  146.6400 C   0  0  2  0  0  3  0  0  0  0  0  0
  191.9160  176.7910  147.4500 C   0  0  0  0  0  0  0  0  0  0  0  0
  191.4390  177.1490  148.5600 O   0  0  0  0  0  1  0  0  0  0  0  0
  193.2920  176.7920  147.2600 O   0  0  0  0  0  0  0  0  0  0  0  0
  1  5  1  0  0  0  0
  2  3  1  0  0  0  0
  3 27  1  0  0  0  0
  4  2  2  0  0  0  0
  5  7  1  0  0  0  0
  5  3  2  0  0  0  0
  6  1  2  0  0  0  0
  6  4  1  0  0  0  0
  8  7  1  0  0  0  0
  8 10  1  0  0  0  0
  9  8  2  0  0  0  0
 10 13  1  0  0  0  0
 13 11  2  0  0  0  0
 13 12  1  0  0  0  0
 14 15  1  1  0  0  0
 14  4  1  0  0  0  0
 16 20  1  0  0  0  0
 17 18  1  0  0  0  0
 17 21  1  0  0  0  0
 18 14  1  1  0  0  0
 18 22  1  0  0  0  0
 19 17  2  0  0  0  0
 21 16  2  0  0  0  0
 22 20  2  0  0  0  0
 23 26  1  1  0  0  0
 24 25  1  0  0  0  0
 24 23  1  0  0  0  0
 25 16  1  6  0  0  0
 25 23  1  0  0  0  0
 28 27  1  6  0  0  0
 28 33  1  0  0  0  0
 29 30  1  0  0  0  0
 29 33  1  0  0  0  0
 29 34  1  1  0  0  0
 31 32  1  0  0  0  0
 31 28  1  0  0  0  0
 32 29  1  0  0  0  0
 33 30  1  6  0  0  0
 34 35  1  0  0  0  0
 36 34  2  0  0  0  0
M  END
>  <MODEL>
7

>  <REMARK>
 VINA RESULT:      -6.7      2.650      5.109
  Name = 
  9 active torsions:
  status: ('A' for Active; 'I' for Inactive)
    1  A    between atoms: C_3  and  C_5
    2  A    between atoms: N_4  and  C_23
    3  A    between atoms: C_6  and  O_26
    4  A    between atoms: C_10  and  C_12
    5  A    between atoms: C_10  and  C_21
    6  A    between atoms: C_13  and  O_26
    7  A    between atoms: C_14  and  C_15
    8  A    between atoms: C_22  and  O_25
    9  A    between atoms: O_25  and  C_35
                            x       y       z     vdW  Elec       q    Type
                         _______ _______ _______ _____ _____    ______ ____

>  <TORSDO>
F 9

$$$$
=
 OpenBabel11042417583D

 36 40  0  0  1  0  0  0  0  0999 V2000
  188.5760  174.8630  140.5870 C   0  0  0  0  0  3  0  0  0  0  0  0
  189.1100  174.1240  143.2220 C   0  0  0  0  0  3  0  0  0  0  0  0
  188.1080  175.0700  142.9560 C   0  0  0  0  0  0  0  0  0  0  0  0
  189.8390  173.5450  142.1750 C   0  0  0  0  0  0  0  0  0  0  0  0
  187.8390  175.4430  141.6300 C   0  0  0  0  0  0  0  0  0  0  0  0
  189.5710  173.9220  140.8580 C   0  0  0  0  0  3  0  0  0  0  0  0
  186.8110  176.4130  141.3740 N   0  0  0  0  0  2  0  0  0  0  0  0
  186.9430  177.8420  141.3840 C   0  0  0  0  0  0  0  0  0  0  0  0
  188.0530  178.3800  141.6390 O   0  0  0  0  0  0  0  0  0  0  0  0
  185.8480  178.6700  141.1060 O   0  0  0  0  0  0  0  0  0  0  0  0
  183.7810  178.0850  140.2210 O   0  0  0  0  0  0  0  0  0  0  0  0
  183.9530  178.1640  142.4980 O   0  0  0  0  0  1  0  0  0  0  0  0
  184.5030  178.3010  141.2310 C   0  0  0  0  0  0  0  0  0  0  0  0
  190.9240  172.5490  142.4480 C   0  0  2  0  0  3  0  0  0  0  0  0
  190.5150  171.6180  143.4070 O   0  0  0  0  0  1  0  0  0  0  0  0
  194.5700  174.5100  143.5550 C   0  0  0  0  0  0  0  0  0  0  0  0
  193.4200  172.8880  142.2470 C   0  0  0  0  0  0  0  0  0  0  0  0
  192.2020  173.2230  142.8600 C   0  0  1  0  0  3  0  0  0  0  0  0
  193.4670  171.9950  141.3590 O   0  0  0  0  0  0  0  0  0  0  0  0
  193.3790  174.8690  144.1930 C   0  0  0  0  0  3  0  0  0  0  0  0
  194.5640  173.5290  142.6120 N   0  0  0  0  0  0  0  0  0  0  0  0
  192.1930  174.2270  143.8380 C   0  0  0  0  0  3  0  0  0  0  0  0
  196.0630  176.4090  143.1640 C   0  0  2  0  0  3  0  0  0  0  0  0
  195.5930  176.4400  144.4870 O   0  0  0  0  0  0  0  0  0  0  0  0
  195.8550  175.1670  143.9440 C   0  0  1  0  0  3  0  0  0  0  0  0
  197.5350  176.7630  143.1530 C   0  0  0  0  0  1  0  0  0  0  0  0
  187.3740  175.6580  143.9950 O   0  0  0  0  0  0  0  0  0  0  0  0
  187.8960  176.6760  144.8470 C   0  0  2  0  0  3  0  0  0  0  0  0
  186.5730  177.2980  146.7750 C   0  0  1  0  0  0  0  0  0  0  0  0
  185.5340  176.8620  145.7710 C   0  0  0  0  0  2  0  0  0  0  0  0
  188.5400  176.0620  146.0830 C   0  0  0  0  0  2  0  0  0  0  0  0
  187.5740  176.2600  147.2340 C   0  0  0  0  0  2  0  0  0  0  0  0
  186.7850  177.6140  145.3120 C   0  0  2  0  0  3  0  0  0  0  0  0
  186.2600  178.4840  147.6230 C   0  0  0  0  0  0  0  0  0  0  0  0
  185.1020  178.9760  147.6220 O   0  0  0  0  0  0  0  0  0  0  0  0
  187.2580  179.0720  148.3910 O   0  0  0  0  0  1  0  0  0  0  0  0
  1  6  2  0  0  0  0
  1  5  1  0  0  0  0
  3  2  1  0  0  0  0
  3 27  1  0  0  0  0
  4 14  1  0  0  0  0
  4  2  2  0  0  0  0
  5  3  2  0  0  0  0
  6  4  1  0  0  0  0
  7  8  1  0  0  0  0
  7  5  1  0  0  0  0
  8  9  2  0  0  0  0
 10 13  1  0  0  0  0
 10  8  1  0  0  0  0
 11 13  2  0  0  0  0
 13 12  1  0  0  0  0
 14 15  1  1  0  0  0
 16 20  1  0  0  0  0
 17 21  1  0  0  0  0
 17 18  1  0  0  0  0
 18 14  1  6  0  0  0
 18 22  1  0  0  0  0
 19 17  2  0  0  0  0
 21 16  2  0  0  0  0
 22 20  2  0  0  0  0
 23 26  1  1  0  0  0
 23 25  1  0  0  0  0
 23 24  1  0  0  0  0
 25 16  1  6  0  0  0
 25 24  1  0  0  0  0
 28 27  1  6  0  0  0
 28 33  1  0  0  0  0
 28 31  1  0  0  0  0
 29 32  1  0  0  0  0
 29 34  1  1  0  0  0
 30 29  1  0  0  0  0
 31 32  1  0  0  0  0
 33 30  1  6  0  0  0
 33 29  1  0  0  0  0
 34 36  1  0  0  0  0
 35 34  2  0  0  0  0
M  END
>  <MODEL>
8

>  <REMARK>
 VINA RESULT:      -6.7      3.132      5.405
  Name = 
  9 active torsions:
  status: ('A' for Active; 'I' for Inactive)
    1  A    between atoms: C_3  and  C_5
    2  A    between atoms: N_4  and  C_23
    3  A    between atoms: C_6  and  O_26
    4  A    between atoms: C_10  and  C_12
    5  A    between atoms: C_10  and  C_21
    6  A    between atoms: C_13  and  O_26
    7  A    between atoms: C_14  and  C_15
    8  A    between atoms: C_22  and  O_25
    9  A    between atoms: O_25  and  C_35
                            x       y       z     vdW  Elec       q    Type
                         _______ _______ _______ _____ _____    ______ ____

>  <TORSDO>
F 9

$$$$
=
 OpenBabel11042417583D

 36 40  0  0  1  0  0  0  0  0999 V2000
  192.9410  175.9970  146.7790 C   0  0  0  0  0  3  0  0  0  0  0  0
  190.8300  174.4690  145.7880 C   0  0  0  0  0  3  0  0  0  0  0  0
  192.1330  174.2330  145.3260 C   0  0  0  0  0  0  0  0  0  0  0  0
  190.5810  175.4610  146.7450 C   0  0  0  0  0  0  0  0  0  0  0  0
  193.1970  175.0020  145.8240 C   0  0  0  0  0  0  0  0  0  0  0  0
  191.6410  176.2270  147.2340 C   0  0  0  0  0  3  0  0  0  0  0  0
  194.5260  174.7480  145.3420 N   0  0  0  0  0  2  0  0  0  0  0  0
  195.2350  175.4760  144.3280 C   0  0  0  0  0  0  0  0  0  0  0  0
  194.6970  176.4570  143.7500 O   0  0  0  0  0  0  0  0  0  0  0  0
  196.5390  175.1180  143.9620 O   0  0  0  0  0  0  0  0  0  0  0  0
  197.4160  175.5350  141.8510 O   0  0  0  0  0  0  0  0  0  0  0  0
  196.8110  173.3820  142.3190 O   0  0  0  0  0  1  0  0  0  0  0  0
  196.9380  174.7160  142.6810 C   0  0  0  0  0  0  0  0  0  0  0  0
  189.1920  175.7360  147.2300 C   0  0  2  0  0  3  0  0  0  0  0  0
  188.5620  174.5550  147.6320 O   0  0  0  0  0  1  0  0  0  0  0  0
  186.8770  177.8590  144.3140 C   0  0  0  0  0  0  0  0  0  0  0  0
  187.0850  176.9210  146.4920 C   0  0  0  0  0  0  0  0  0  0  0  0
  188.3770  176.4570  146.1930 C   0  0  1  0  0  3  0  0  0  0  0  0
  186.5760  176.7160  147.6260 O   0  0  0  0  0  0  0  0  0  0  0  0
  188.1560  177.4090  143.9760 C   0  0  0  0  0  3  0  0  0  0  0  0
  186.3720  177.5980  145.5510 N   0  0  0  0  0  0  0  0  0  0  0  0
  188.9080  176.7130  144.9220 C   0  0  0  0  0  3  0  0  0  0  0  0
  185.3120  177.6210  142.4480 C   0  0  2  0  0  3  0  0  0  0  0  0
  184.6850  178.2900  143.5120 O   0  0  0  0  0  0  0  0  0  0  0  0
  186.0460  178.5810  143.3030 C   0  0  1  0  0  3  0  0  0  0  0  0
  184.9260  178.2900  141.1460 C   0  0  0  0  0  1  0  0  0  0  0  0
  192.3940  173.2440  144.3670 O   0  0  0  0  0  0  0  0  0  0  0  0
  192.2900  173.4670  142.9620 C   0  0  2  0  0  3  0  0  0  0  0  0
  190.1360  173.0780  141.9310 C   0  0  1  0  0  0  0  0  0  0  0  0
  190.1450  172.1080  143.0870 C   0  0  0  0  0  2  0  0  0  0  0  0
  191.6470  174.8190  142.6800 C   0  0  0  0  0  2  0  0  0  0  0  0
  190.2150  174.5530  142.2610 C   0  0  0  0  0  2  0  0  0  0  0  0
  191.4300  172.3910  142.3060 C   0  0  2  0  0  3  0  0  0  0  0  0
  189.5410  172.6150  140.6450 C   0  0  0  0  0  0  0  0  0  0  0  0
  188.2950  172.6580  140.4690 O   0  0  0  0  0  1  0  0  0  0  0  0
  190.3590  172.1000  139.6470 O   0  0  0  0  0  0  0  0  0  0  0  0
  1  6  1  0  0  0  0
  2  4  1  0  0  0  0
  3  2  2  0  0  0  0
  3  5  1  0  0  0  0
  4 14  1  0  0  0  0
  4  6  2  0  0  0  0
  5  1  2  0  0  0  0
  7  5  1  0  0  0  0
  8  7  1  0  0  0  0
  9  8  2  0  0  0  0
 10  8  1  0  0  0  0
 11 13  2  0  0  0  0
 12 13  1  0  0  0  0
 13 10  1  0  0  0  0
 14 15  1  6  0  0  0
 16 21  2  0  0  0  0
 17 19  2  0  0  0  0
 18 17  1  0  0  0  0
 18 14  1  1  0  0  0
 20 16  1  0  0  0  0
 20 22  2  0  0  0  0
 21 17  1  0  0  0  0
 22 18  1  0  0  0  0
 23 26  1  6  0  0  0
 23 25  1  0  0  0  0
 23 24  1  0  0  0  0
 25 24  1  0  0  0  0
 25 16  1  1  0  0  0
 27  3  1  0  0  0  0
 28 27  1  1  0  0  0
 29 34  1  6  0  0  0
 29 32  1  0  0  0  0
 29 33  1  0  0  0  0
 29 30  1  0  0  0  0
 31 28  1  0  0  0  0
 32 31  1  0  0  0  0
 33 28  1  0  0  0  0
 33 30  1  1  0  0  0
 35 34  1  0  0  0  0
 36 34  2  0  0  0  0
M  END
>  <MODEL>
9

>  <REMARK>
 VINA RESULT:      -6.6      3.054      8.617
  Name = 
  9 active torsions:
  status: ('A' for Active; 'I' for Inactive)
    1  A    between atoms: C_3  and  C_5
    2  A    between atoms: N_4  and  C_23
    3  A    between atoms: C_6  and  O_26
    4  A    between atoms: C_10  and  C_12
    5  A    between atoms: C_10  and  C_21
    6  A    between atoms: C_13  and  O_26
    7  A    between atoms: C_14  and  C_15
    8  A    between atoms: C_22  and  O_25
    9  A    between atoms: O_25  and  C_35
                            x       y       z     vdW  Elec       q    Type
                         _______ _______ _______ _____ _____    ______ ____

>  <TORSDO>
F 9

$$$$
