=
 OpenBabel11042416063D

 34 36  0  0  1  0  0  0  0  0999 V2000
  190.4170  176.7280  145.5160 N   0  0  0  0  0  0  0  0  0  0  0  0
  190.4040  177.9440  144.7060 C   0  0  0  0  0  2  0  0  0  0  0  0
  190.8310  176.6480  142.7240 O   0  0  0  0  0  1  0  0  0  0  0  0
  190.0200  177.6530  143.2550 C   0  0  1  0  0  3  0  0  0  0  0  0
  188.5730  177.2950  143.1180 C   0  0  0  0  0  0  0  0  0  0  0  0
  186.8620  175.7110  142.5050 C   0  0  0  0  0  3  0  0  0  0  0  0
  188.2120  176.0180  142.6760 C   0  0  0  0  0  3  0  0  0  0  0  0
  185.8900  176.6760  142.7700 C   0  0  0  0  0  3  0  0  0  0  0  0
  186.2830  177.9480  143.2050 C   0  0  0  0  0  0  0  0  0  0  0  0
  187.6070  178.2240  143.3640 N   0  0  0  0  0  0  0  0  0  0  0  0
  185.2770  178.9800  143.4930 C   0  0  0  0  0  0  0  0  0  0  0  0
  184.0570  178.7540  143.2760 O   0  0  0  0  0  0  0  0  0  0  0  0
  185.6630  180.2150  144.0050 O   0  0  0  0  0  1  0  0  0  0  0  0
  189.4700  176.8860  146.6260 C   0  0  0  0  0  2  0  0  0  0  0  0
  188.1920  176.0540  146.4680 C   0  0  0  0  0  2  0  0  0  0  0  0
  185.7270  176.4670  146.3350 C   0  0  0  0  0  3  0  0  0  0  0  0
  186.9950  176.9000  146.7350 C   0  0  0  0  0  0  0  0  0  0  0  0
  187.1410  178.1110  147.3390 N   0  0  0  0  0  0  0  0  0  0  0  0
  184.6220  177.2900  146.5640 C   0  0  0  0  0  3  0  0  0  0  0  0
  186.0770  178.9250  147.5730 C   0  0  0  0  0  0  0  0  0  0  0  0
  184.7940  178.5260  147.1880 C   0  0  0  0  0  3  0  0  0  0  0  0
  186.2680  180.1840  148.2070 N   0  0  0  0  0  1  0  0  0  0  0  0
  191.7100  176.5560  146.0330 N   0  0  0  0  0  2  0  0  0  0  0  0
  192.1170  175.1990  145.7090 C   0  0  0  0  0  2  0  0  0  0  0  0
  193.4430  175.0070  146.0930 O   0  0  0  0  0  0  0  0  0  0  0  0
  194.1960  175.6300  145.0970 C   0  0  0  0  0  2  0  0  0  0  0  0
  194.3470  175.8850  142.3850 S   0  0  0  0  0  0  0  0  0  0  0  0
  196.1110  175.4500  142.2630 C   0  0  0  0  0  2  0  0  0  0  0  0
  194.1680  174.7940  143.8280 C   0  0  1  0  0  3  0  0  0  0  0  0
  195.3510  173.8870  143.8030 C   0  0  0  0  0  0  0  0  0  0  0  0
  196.3140  174.2310  143.0200 N   0  0  0  0  0  0  0  0  0  0  0  0
  196.1780  172.5410  145.6830 C   0  0  0  0  0  3  0  0  0  0  0  0
  196.9460  173.5950  146.2580 N   0  0  0  0  0  1  0  0  0  0  0  0
  195.4710  172.6980  144.6030 N   0  0  0  0  0  0  0  0  0  0  0  0
  1 23  1  0  0  0  0
  1 14  1  0  0  0  0
  2  1  1  0  0  0  0
  4  3  1  1  0  0  0
  4  2  1  0  0  0  0
  5  4  1  0  0  0  0
  5 10  1  0  0  0  0
  6  7  1  0  0  0  0
  6  8  2  0  0  0  0
  7  5  2  0  0  0  0
  8  9  1  0  0  0  0
  9 10  2  0  0  0  0
  9 11  1  0  0  0  0
 11 13  1  0  0  0  0
 12 11  2  0  0  0  0
 15 14  1  0  0  0  0
 15 17  1  0  0  0  0
 16 19  2  0  0  0  0
 16 17  1  0  0  0  0
 17 18  2  0  0  0  0
 18 20  1  0  0  0  0
 19 21  1  0  0  0  0
 20 22  1  0  0  0  0
 21 20  2  0  0  0  0
 24 23  1  0  0  0  0
 24 25  1  0  0  0  0
 26 25  1  0  0  0  0
 27 29  1  0  0  0  0
 28 27  1  0  0  0  0
 28 31  1  0  0  0  0
 29 26  1  1  0  0  0
 30 29  1  0  0  0  0
 30 34  1  0  0  0  0
 31 30  2  0  0  0  0
 32 33  1  0  0  0  0
 34 32  2  0  0  0  0
M  END
>  <MODEL>
1

>  <REMARK>
 VINA RESULT:      -6.2      0.000      0.000
  Name = 
  13 active torsions:
  status: ('A' for Active; 'I' for Inactive)
    1  A    between atoms: C_3  and  C_8
    2  A    between atoms: C_3  and  N_20
    3  A    between atoms: C_4  and  C_8
    4  A    between atoms: C_9  and  C_17
    5  A    between atoms: C_9  and  O_19
    6  A    between atoms: C_12  and  O_19
    7  A    between atoms: C_12  and  N_34
    8  A    between atoms: C_15  and  CA_26
    9  A    between atoms: C_16  and  N_20
   10  A    between atoms: C_16  and  C_32
   11  A    between atoms: C_18  and  C_32
   12  A    between atoms: N_20  and  N_34
   13  A    between atoms: C_21  and  N_30
                            x       y       z     vdW  Elec       q    Type
                         _______ _______ _______ _____ _____    ______ ____

>  <TORSDO>
F 13

$$$$
=
 OpenBabel11042416063D

 34 36  0  0  1  0  0  0  0  0999 V2000
  189.2060  175.7780  145.7020 N   0  0  0  0  0  0  0  0  0  0  0  0
  188.4920  176.6460  146.6360 C   0  0  0  0  0  2  0  0  0  0  0  0
  186.2970  176.7060  147.6210 O   0  0  0  0  0  1  0  0  0  0  0  0
  186.9810  176.5980  146.4080 C   0  0  1  0  0  3  0  0  0  0  0  0
  186.5240  177.6500  145.4470 C   0  0  0  0  0  0  0  0  0  0  0  0
  185.3280  179.6950  145.0010 C   0  0  0  0  0  3  0  0  0  0  0  0
  185.7920  178.7460  145.9120 C   0  0  0  0  0  3  0  0  0  0  0  0
  185.5940  179.5400  143.6390 C   0  0  0  0  0  3  0  0  0  0  0  0
  186.3250  178.4280  143.2040 C   0  0  0  0  0  0  0  0  0  0  0  0
  186.7660  177.5150  144.1120 N   0  0  0  0  0  0  0  0  0  0  0  0
  186.6200  178.2440  141.7750 C   0  0  0  0  0  0  0  0  0  0  0  0
  185.6990  178.3400  140.9210 O   0  0  0  0  0  0  0  0  0  0  0  0
  187.9150  177.9610  141.3540 O   0  0  0  0  0  1  0  0  0  0  0  0
  190.0440  174.8450  146.4660 C   0  0  0  0  0  2  0  0  0  0  0  0
  191.0210  175.5380  147.4220 C   0  0  0  0  0  2  0  0  0  0  0  0
  193.2220  176.6230  146.9270 C   0  0  0  0  0  3  0  0  0  0  0  0
  192.4020  175.4920  146.8630 C   0  0  0  0  0  0  0  0  0  0  0  0
  192.8520  174.3570  146.2600 N   0  0  0  0  0  0  0  0  0  0  0  0
  194.5000  176.5700  146.3660 C   0  0  0  0  0  3  0  0  0  0  0  0
  194.0950  174.2860  145.7110 C   0  0  0  0  0  0  0  0  0  0  0  0
  194.9430  175.3960  145.7550 C   0  0  0  0  0  3  0  0  0  0  0  0
  194.5320  173.0840  145.0900 N   0  0  0  0  0  1  0  0  0  0  0  0
  190.0280  176.5800  144.8940 N   0  0  0  0  0  2  0  0  0  0  0  0
  190.3460  175.7990  143.7110 C   0  0  0  0  0  2  0  0  0  0  0  0
  189.1660  175.3470  143.1210 O   0  0  0  0  0  0  0  0  0  0  0  0
  189.5390  174.9560  141.8350 C   0  0  0  0  0  2  0  0  0  0  0  0
  188.7000  173.7500  139.5350 S   0  0  0  0  0  0  0  0  0  0  0  0
  189.8570  172.3470  139.6380 C   0  0  0  0  0  2  0  0  0  0  0  0
  188.6310  173.8380  141.3510 C   0  0  1  0  0  3  0  0  0  0  0  0
  189.1460  172.5290  141.8420 C   0  0  0  0  0  0  0  0  0  0  0  0
  189.7600  171.7980  140.9770 N   0  0  0  0  0  0  0  0  0  0  0  0
  189.9520  171.9740  144.0950 C   0  0  0  0  0  3  0  0  0  0  0  0
  191.3000  172.3590  143.8390 N   0  0  0  0  0  1  0  0  0  0  0  0
  189.0150  172.0700  143.1980 N   0  0  0  0  0  0  0  0  0  0  0  0
  1 14  1  0  0  0  0
  1  2  1  0  0  0  0
  4  2  1  0  0  0  0
  4  3  1  1  0  0  0
  5  7  1  0  0  0  0
  5  4  1  0  0  0  0
  6  7  2  0  0  0  0
  8  6  1  0  0  0  0
  9  8  2  0  0  0  0
  9 10  1  0  0  0  0
 10  5  2  0  0  0  0
 11  9  1  0  0  0  0
 12 11  2  0  0  0  0
 13 11  1  0  0  0  0
 14 15  1  0  0  0  0
 17 16  1  0  0  0  0
 17 15  1  0  0  0  0
 18 17  2  0  0  0  0
 19 16  2  0  0  0  0
 20 21  2  0  0  0  0
 20 18  1  0  0  0  0
 21 19  1  0  0  0  0
 22 20  1  0  0  0  0
 23  1  1  0  0  0  0
 24 23  1  0  0  0  0
 25 24  1  0  0  0  0
 26 25  1  0  0  0  0
 27 28  1  0  0  0  0
 27 29  1  0  0  0  0
 28 31  1  0  0  0  0
 29 26  1  1  0  0  0
 29 30  1  0  0  0  0
 30 34  1  0  0  0  0
 31 30  2  0  0  0  0
 33 32  1  0  0  0  0
 34 32  2  0  0  0  0
M  END
>  <MODEL>
2

>  <REMARK>
 VINA RESULT:      -6.2      2.987      5.911
  Name = 
  13 active torsions:
  status: ('A' for Active; 'I' for Inactive)
    1  A    between atoms: C_3  and  C_8
    2  A    between atoms: C_3  and  N_20
    3  A    between atoms: C_4  and  C_8
    4  A    between atoms: C_9  and  C_17
    5  A    between atoms: C_9  and  O_19
    6  A    between atoms: C_12  and  O_19
    7  A    between atoms: C_12  and  N_34
    8  A    between atoms: C_15  and  CA_26
    9  A    between atoms: C_16  and  N_20
   10  A    between atoms: C_16  and  C_32
   11  A    between atoms: C_18  and  C_32
   12  A    between atoms: N_20  and  N_34
   13  A    between atoms: C_21  and  N_30
                            x       y       z     vdW  Elec       q    Type
                         _______ _______ _______ _____ _____    ______ ____

>  <TORSDO>
F 13

$$$$
=
 OpenBabel11042416063D

 34 36  0  0  1  0  0  0  0  0999 V2000
  190.3560  176.6140  145.2940 N   0  0  0  0  0  0  0  0  0  0  0  0
  190.4280  175.8360  144.0600 C   0  0  0  0  0  2  0  0  0  0  0  0
  191.7330  177.7700  143.4700 O   0  0  0  0  0  1  0  0  0  0  0  0
  191.2760  176.5380  142.9990 C   0  0  1  0  0  3  0  0  0  0  0  0
  192.4190  175.6870  142.5400 C   0  0  0  0  0  0  0  0  0  0  0  0
  193.2890  173.5420  141.8700 C   0  0  0  0  0  3  0  0  0  0  0  0
  192.2070  174.3370  142.2480 C   0  0  0  0  0  3  0  0  0  0  0  0
  194.5670  174.0970  141.7920 C   0  0  0  0  0  3  0  0  0  0  0  0
  194.7480  175.4520  142.0970 C   0  0  0  0  0  0  0  0  0  0  0  0
  193.6770  176.2070  142.4650 N   0  0  0  0  0  0  0  0  0  0  0  0
  196.0840  176.0600  142.0190 C   0  0  0  0  0  0  0  0  0  0  0  0
  196.2710  177.0910  141.3180 O   0  0  0  0  0  0  0  0  0  0  0  0
  197.1520  175.5050  142.7150 O   0  0  0  0  0  1  0  0  0  0  0  0
  190.7420  175.7560  146.4210 C   0  0  0  0  0  2  0  0  0  0  0  0
  192.0830  176.1420  147.0550 C   0  0  0  0  0  2  0  0  0  0  0  0
  194.4630  175.8430  146.3420 C   0  0  0  0  0  3  0  0  0  0  0  0
  193.1780  175.3100  146.4830 C   0  0  0  0  0  0  0  0  0  0  0  0
  192.9180  174.0410  146.0640 N   0  0  0  0  0  0  0  0  0  0  0  0
  195.4680  175.0590  145.7710 C   0  0  0  0  0  3  0  0  0  0  0  0
  193.8840  173.2610  145.5080 C   0  0  0  0  0  0  0  0  0  0  0  0
  195.1810  173.7590  145.3520 C   0  0  0  0  0  3  0  0  0  0  0  0
  193.5760  171.9390  145.0830 N   0  0  0  0  0  1  0  0  0  0  0  0
  189.0290  177.0390  145.4720 N   0  0  0  0  0  2  0  0  0  0  0  0
  188.3830  176.0550  146.3240 C   0  0  0  0  0  2  0  0  0  0  0  0
  187.2950  176.6420  146.9680 O   0  0  0  0  0  0  0  0  0  0  0  0
  186.8350  177.6120  146.0780 C   0  0  0  0  0  2  0  0  0  0  0  0
  184.2500  178.4870  146.0880 S   0  0  0  0  0  0  0  0  0  0  0  0
  184.3140  179.2500  144.4360 C   0  0  0  0  0  2  0  0  0  0  0  0
  185.4560  177.2300  145.5640 C   0  0  1  0  0  3  0  0  0  0  0  0
  185.4540  177.2590  144.0740 C   0  0  0  0  0  0  0  0  0  0  0  0
  184.8840  178.2760  143.5260 N   0  0  0  0  0  0  0  0  0  0  0  0
  187.0720  176.3880  142.4450 C   0  0  0  0  0  3  0  0  0  0  0  0
  187.7680  177.6220  142.2950 N   0  0  0  0  0  1  0  0  0  0  0  0
  186.0580  176.2500  143.2480 N   0  0  0  0  0  0  0  0  0  0  0  0
  1 23  1  0  0  0  0
  1 14  1  0  0  0  0
  2  1  1  0  0  0  0
  4  3  1  1  0  0  0
  4  2  1  0  0  0  0
  5  4  1  0  0  0  0
  6  7  1  0  0  0  0
  7  5  2  0  0  0  0
  8  6  2  0  0  0  0
  8  9  1  0  0  0  0
  9 10  2  0  0  0  0
 10  5  1  0  0  0  0
 11  9  1  0  0  0  0
 11 13  1  0  0  0  0
 12 11  2  0  0  0  0
 14 15  1  0  0  0  0
 16 17  1  0  0  0  0
 17 15  1  0  0  0  0
 18 17  2  0  0  0  0
 19 16  2  0  0  0  0
 20 18  1  0  0  0  0
 21 20  2  0  0  0  0
 21 19  1  0  0  0  0
 22 20  1  0  0  0  0
 23 24  1  0  0  0  0
 24 25  1  0  0  0  0
 26 25  1  0  0  0  0
 28 27  1  0  0  0  0
 29 26  1  1  0  0  0
 29 27  1  0  0  0  0
 30 29  1  0  0  0  0
 31 30  2  0  0  0  0
 31 28  1  0  0  0  0
 32 34  2  0  0  0  0
 33 32  1  0  0  0  0
 34 30  1  0  0  0  0
M  END
>  <MODEL>
3

>  <REMARK>
 VINA RESULT:      -6.1      3.020      8.545
  Name = 
  13 active torsions:
  status: ('A' for Active; 'I' for Inactive)
    1  A    between atoms: C_3  and  C_8
    2  A    between atoms: C_3  and  N_20
    3  A    between atoms: C_4  and  C_8
    4  A    between atoms: C_9  and  C_17
    5  A    between atoms: C_9  and  O_19
    6  A    between atoms: C_12  and  O_19
    7  A    between atoms: C_12  and  N_34
    8  A    between atoms: C_15  and  CA_26
    9  A    between atoms: C_16  and  N_20
   10  A    between atoms: C_16  and  C_32
   11  A    between atoms: C_18  and  C_32
   12  A    between atoms: N_20  and  N_34
   13  A    between atoms: C_21  and  N_30
                            x       y       z     vdW  Elec       q    Type
                         _______ _______ _______ _____ _____    ______ ____

>  <TORSDO>
F 13

$$$$
=
 OpenBabel11042416063D

 34 36  0  0  1  0  0  0  0  0999 V2000
  189.5290  176.4490  146.1250 N   0  0  0  0  0  0  0  0  0  0  0  0
  188.5540  177.2370  146.8740 C   0  0  0  0  0  2  0  0  0  0  0  0
  186.2710  176.9250  147.5700 O   0  0  0  0  0  1  0  0  0  0  0  0
  187.1200  176.9010  146.4620 C   0  0  1  0  0  3  0  0  0  0  0  0
  186.6160  177.8130  145.3870 C   0  0  0  0  0  0  0  0  0  0  0  0
  185.2560  179.6810  144.7010 C   0  0  0  0  0  3  0  0  0  0  0  0
  185.7590  178.8670  145.7170 C   0  0  0  0  0  3  0  0  0  0  0  0
  185.6050  179.4330  143.3730 C   0  0  0  0  0  3  0  0  0  0  0  0
  186.4600  178.3650  143.0750 C   0  0  0  0  0  0  0  0  0  0  0  0
  186.9380  177.5840  144.0830 N   0  0  0  0  0  0  0  0  0  0  0  0
  186.8450  178.0850  141.6840 C   0  0  0  0  0  0  0  0  0  0  0  0
  188.0210  177.7220  141.4130 O   0  0  0  0  0  1  0  0  0  0  0  0
  185.9180  178.2210  140.6560 O   0  0  0  0  0  0  0  0  0  0  0  0
  190.3570  175.6920  147.0720 C   0  0  0  0  0  2  0  0  0  0  0  0
  191.6600  176.4020  147.4530 C   0  0  0  0  0  2  0  0  0  0  0  0
  193.9990  176.4660  146.5620 C   0  0  0  0  0  3  0  0  0  0  0  0
  192.8150  175.7520  146.7710 C   0  0  0  0  0  0  0  0  0  0  0  0
  192.7040  174.4720  146.3210 N   0  0  0  0  0  0  0  0  0  0  0  0
  195.0570  175.8510  145.8900 C   0  0  0  0  0  3  0  0  0  0  0  0
  193.7240  173.8550  145.6670 C   0  0  0  0  0  0  0  0  0  0  0  0
  194.9230  174.5360  145.4390 C   0  0  0  0  0  3  0  0  0  0  0  0
  193.5730  172.5160  145.2110 N   0  0  0  0  0  1  0  0  0  0  0  0
  190.3470  177.3310  145.4010 N   0  0  0  0  0  2  0  0  0  0  0  0
  190.3720  176.8530  144.0290 C   0  0  0  0  0  2  0  0  0  0  0  0
  189.6830  175.6440  143.9450 O   0  0  0  0  0  0  0  0  0  0  0  0
  190.1020  175.0780  142.7400 C   0  0  0  0  0  2  0  0  0  0  0  0
  189.9750  172.9190  144.4040 S   0  0  0  0  0  0  0  0  0  0  0  0
  189.0500  171.8580  143.2480 C   0  0  0  0  0  2  0  0  0  0  0  0
  190.7890  173.7490  143.0050 C   0  0  1  0  0  3  0  0  0  0  0  0
  190.6020  172.8490  141.8320 C   0  0  0  0  0  0  0  0  0  0  0  0
  189.7270  171.9130  141.9670 N   0  0  0  0  0  0  0  0  0  0  0  0
  190.8370  173.3860  139.4470 C   0  0  0  0  0  3  0  0  0  0  0  0
  189.4790  173.7850  139.2790 N   0  0  0  0  0  1  0  0  0  0  0  0
  191.3120  172.9870  140.5900 N   0  0  0  0  0  0  0  0  0  0  0  0
  1  2  1  0  0  0  0
  1 14  1  0  0  0  0
  4  2  1  0  0  0  0
  4  3  1  1  0  0  0
  5  7  1  0  0  0  0
  5  4  1  0  0  0  0
  6  7  2  0  0  0  0
  8  6  1  0  0  0  0
  9  8  2  0  0  0  0
  9 10  1  0  0  0  0
 10  5  2  0  0  0  0
 11  9  1  0  0  0  0
 12 11  1  0  0  0  0
 13 11  2  0  0  0  0
 14 15  1  0  0  0  0
 16 17  1  0  0  0  0
 17 15  1  0  0  0  0
 18 17  2  0  0  0  0
 19 16  2  0  0  0  0
 20 18  1  0  0  0  0
 21 20  2  0  0  0  0
 21 19  1  0  0  0  0
 22 20  1  0  0  0  0
 23  1  1  0  0  0  0
 24 23  1  0  0  0  0
 25 24  1  0  0  0  0
 26 25  1  0  0  0  0
 28 27  1  0  0  0  0
 29 26  1  6  0  0  0
 29 27  1  0  0  0  0
 30 31  2  0  0  0  0
 30 29  1  0  0  0  0
 31 28  1  0  0  0  0
 32 34  2  0  0  0  0
 33 32  1  0  0  0  0
 34 30  1  0  0  0  0
M  END
>  <MODEL>
4

>  <REMARK>
 VINA RESULT:      -6.0      3.016      6.022
  Name = 
  13 active torsions:
  status: ('A' for Active; 'I' for Inactive)
    1  A    between atoms: C_3  and  C_8
    2  A    between atoms: C_3  and  N_20
    3  A    between atoms: C_4  and  C_8
    4  A    between atoms: C_9  and  C_17
    5  A    between atoms: C_9  and  O_19
    6  A    between atoms: C_12  and  O_19
    7  A    between atoms: C_12  and  N_34
    8  A    between atoms: C_15  and  CA_26
    9  A    between atoms: C_16  and  N_20
   10  A    between atoms: C_16  and  C_32
   11  A    between atoms: C_18  and  C_32
   12  A    between atoms: N_20  and  N_34
   13  A    between atoms: C_21  and  N_30
                            x       y       z     vdW  Elec       q    Type
                         _______ _______ _______ _____ _____    ______ ____

>  <TORSDO>
F 13

$$$$
=
 OpenBabel11042416063D

 34 36  0  0  1  0  0  0  0  0999 V2000
  190.0320  173.1610  141.9820 N   0  0  0  0  0  0  0  0  0  0  0  0
  188.7870  173.8900  142.2160 C   0  0  0  0  0  2  0  0  0  0  0  0
  187.8460  175.7460  141.0070 O   0  0  0  0  0  1  0  0  0  0  0  0
  188.9130  175.3620  141.8220 C   0  0  1  0  0  3  0  0  0  0  0  0
  189.0160  176.2570  143.0180 C   0  0  0  0  0  0  0  0  0  0  0  0
  190.3260  177.6830  144.4530 C   0  0  0  0  0  3  0  0  0  0  0  0
  190.2270  176.8910  143.3090 C   0  0  0  0  0  3  0  0  0  0  0  0
  189.2230  177.8310  145.2950 C   0  0  0  0  0  3  0  0  0  0  0  0
  188.0250  177.1770  144.9790 C   0  0  0  0  0  0  0  0  0  0  0  0
  187.9540  176.4090  143.8580 N   0  0  0  0  0  0  0  0  0  0  0  0
  186.8480  177.3190  145.8490 C   0  0  0  0  0  0  0  0  0  0  0  0
  186.8930  178.0750  146.8570 O   0  0  0  0  0  1  0  0  0  0  0  0
  185.6790  176.6200  145.5710 O   0  0  0  0  0  0  0  0  0  0  0  0
  190.6680  172.8790  143.2740 C   0  0  0  0  0  2  0  0  0  0  0  0
  189.6990  172.9240  144.4600 C   0  0  0  0  0  2  0  0  0  0  0  0
  189.4030  174.2570  146.5570 C   0  0  0  0  0  3  0  0  0  0  0  0
  190.2380  173.8110  145.5290 C   0  0  0  0  0  0  0  0  0  0  0  0
  191.5370  174.2150  145.4830 N   0  0  0  0  0  0  0  0  0  0  0  0
  189.9180  175.1160  147.5300 C   0  0  0  0  0  3  0  0  0  0  0  0
  192.0580  175.0490  146.4230 C   0  0  0  0  0  0  0  0  0  0  0  0
  191.2540  175.5150  147.4670 C   0  0  0  0  0  3  0  0  0  0  0  0
  193.4200  175.4490  146.3440 N   0  0  0  0  0  1  0  0  0  0  0  0
  190.8820  173.9740  141.2160 N   0  0  0  0  0  2  0  0  0  0  0  0
  192.2070  173.8690  141.8040 C   0  0  0  0  0  2  0  0  0  0  0  0
  192.9060  175.0560  141.5890 O   0  0  0  0  0  0  0  0  0  0  0  0
  193.7350  175.1870  142.7030 C   0  0  0  0  0  2  0  0  0  0  0  0
  195.5290  175.4710  140.6660 S   0  0  0  0  0  0  0  0  0  0  0  0
  196.4030  176.8920  141.3960 C   0  0  0  0  0  2  0  0  0  0  0  0
  195.1640  174.8290  142.3290 C   0  0  1  0  0  3  0  0  0  0  0  0
  196.1100  175.5230  143.2500 C   0  0  0  0  0  0  0  0  0  0  0  0
  196.7170  176.5530  142.7710 N   0  0  0  0  0  0  0  0  0  0  0  0
  197.1400  174.1790  145.0280 C   0  0  0  0  0  3  0  0  0  0  0  0
  197.9370  173.3970  144.1420 N   0  0  0  0  0  1  0  0  0  0  0  0
  196.3490  175.1220  144.6100 N   0  0  0  0  0  0  0  0  0  0  0  0
  1  2  1  0  0  0  0
  1 14  1  0  0  0  0
  4  3  1  1  0  0  0
  4  2  1  0  0  0  0
  4  5  1  0  0  0  0
  5  7  2  0  0  0  0
  5 10  1  0  0  0  0
  6  8  2  0  0  0  0
  7  6  1  0  0  0  0
  9  8  1  0  0  0  0
  9 11  1  0  0  0  0
 10  9  2  0  0  0  0
 11 12  1  0  0  0  0
 13 11  2  0  0  0  0
 14 15  1  0  0  0  0
 15 17  1  0  0  0  0
 16 19  1  0  0  0  0
 17 16  2  0  0  0  0
 18 17  1  0  0  0  0
 18 20  2  0  0  0  0
 20 21  1  0  0  0  0
 21 19  2  0  0  0  0
 22 20  1  0  0  0  0
 23 24  1  0  0  0  0
 23  1  1  0  0  0  0
 25 24  1  0  0  0  0
 25 26  1  0  0  0  0
 27 28  1  0  0  0  0
 27 29  1  0  0  0  0
 28 31  1  0  0  0  0
 29 26  1  1  0  0  0
 29 30  1  0  0  0  0
 30 34  1  0  0  0  0
 31 30  2  0  0  0  0
 33 32  1  0  0  0  0
 34 32  2  0  0  0  0
M  END
>  <MODEL>
5

>  <REMARK>
 VINA RESULT:      -6.0      2.557      4.276
  Name = 
  13 active torsions:
  status: ('A' for Active; 'I' for Inactive)
    1  A    between atoms: C_3  and  C_8
    2  A    between atoms: C_3  and  N_20
    3  A    between atoms: C_4  and  C_8
    4  A    between atoms: C_9  and  C_17
    5  A    between atoms: C_9  and  O_19
    6  A    between atoms: C_12  and  O_19
    7  A    between atoms: C_12  and  N_34
    8  A    between atoms: C_15  and  CA_26
    9  A    between atoms: C_16  and  N_20
   10  A    between atoms: C_16  and  C_32
   11  A    between atoms: C_18  and  C_32
   12  A    between atoms: N_20  and  N_34
   13  A    between atoms: C_21  and  N_30
                            x       y       z     vdW  Elec       q    Type
                         _______ _______ _______ _____ _____    ______ ____

>  <TORSDO>
F 13

$$$$
=
 OpenBabel11042416063D

 34 36  0  0  1  0  0  0  0  0999 V2000
  190.2170  174.8450  146.3430 N   0  0  0  0  0  0  0  0  0  0  0  0
  190.7490  174.9570  144.9860 C   0  0  0  0  0  2  0  0  0  0  0  0
  189.7800  172.7540  144.9290 O   0  0  0  0  0  1  0  0  0  0  0  0
  190.4690  173.6990  144.1650 C   0  0  1  0  0  3  0  0  0  0  0  0
  189.7220  174.0060  142.9040 C   0  0  0  0  0  0  0  0  0  0  0  0
  189.1020  173.4220  140.6490 C   0  0  0  0  0  3  0  0  0  0  0  0
  189.7600  173.1030  141.8370 C   0  0  0  0  0  3  0  0  0  0  0  0
  188.4200  174.6340  140.5350 C   0  0  0  0  0  3  0  0  0  0  0  0
  188.4070  175.5200  141.6190 C   0  0  0  0  0  0  0  0  0  0  0  0
  189.0570  175.1870  142.7670 N   0  0  0  0  0  0  0  0  0  0  0  0
  187.6940  176.8030  141.5240 C   0  0  0  0  0  0  0  0  0  0  0  0
  186.4340  176.8260  141.4850 O   0  0  0  0  0  1  0  0  0  0  0  0
  188.4010  177.9990  141.4730 O   0  0  0  0  0  0  0  0  0  0  0  0
  188.8450  175.3690  146.3600 C   0  0  0  0  0  2  0  0  0  0  0  0
  188.7690  176.8950  146.2320 C   0  0  0  0  0  2  0  0  0  0  0  0
  186.3060  176.8060  146.6690 C   0  0  0  0  0  3  0  0  0  0  0  0
  187.3730  177.3130  145.9210 C   0  0  0  0  0  0  0  0  0  0  0  0
  187.1350  178.1620  144.8840 N   0  0  0  0  0  0  0  0  0  0  0  0
  185.0020  177.1820  146.3380 C   0  0  0  0  0  3  0  0  0  0  0  0
  185.8720  178.5430  144.5490 C   0  0  0  0  0  0  0  0  0  0  0  0
  184.7800  178.0580  145.2740 C   0  0  0  0  0  3  0  0  0  0  0  0
  185.6620  179.4330  143.4600 N   0  0  0  0  0  1  0  0  0  0  0  0
  191.0170  175.6210  147.1960 N   0  0  0  0  0  2  0  0  0  0  0  0
  192.3990  175.2770  146.9060 C   0  0  0  0  0  2  0  0  0  0  0  0
  193.1090  176.4330  146.5860 O   0  0  0  0  0  0  0  0  0  0  0  0
  194.4390  176.0210  146.5020 C   0  0  0  0  0  2  0  0  0  0  0  0
  194.2390  175.9760  143.7810 S   0  0  0  0  0  0  0  0  0  0  0  0
  196.0180  176.2040  143.4670 C   0  0  0  0  0  2  0  0  0  0  0  0
  194.6150  175.0820  145.3190 C   0  0  1  0  0  3  0  0  0  0  0  0
  196.0450  174.6740  145.2140 C   0  0  0  0  0  0  0  0  0  0  0  0
  196.7330  175.2470  144.2880 N   0  0  0  0  0  0  0  0  0  0  0  0
  196.7610  172.4340  145.9200 C   0  0  0  0  0  3  0  0  0  0  0  0
  196.2330  171.7720  144.7730 N   0  0  0  0  0  1  0  0  0  0  0  0
  196.6760  173.7200  146.0860 N   0  0  0  0  0  0  0  0  0  0  0  0
  1 14  1  0  0  0  0
  1 23  1  0  0  0  0
  2  1  1  0  0  0  0
  4  3  1  1  0  0  0
  4  2  1  0  0  0  0
  5  4  1  0  0  0  0
  6  7  1  0  0  0  0
  7  5  2  0  0  0  0
  8  6  2  0  0  0  0
  8  9  1  0  0  0  0
  9 10  2  0  0  0  0
 10  5  1  0  0  0  0
 11  9  1  0  0  0  0
 12 11  1  0  0  0  0
 13 11  2  0  0  0  0
 15 14  1  0  0  0  0
 17 15  1  0  0  0  0
 17 16  2  0  0  0  0
 18 17  1  0  0  0  0
 19 16  1  0  0  0  0
 20 18  2  0  0  0  0
 20 21  1  0  0  0  0
 21 19  2  0  0  0  0
 22 20  1  0  0  0  0
 24 23  1  0  0  0  0
 25 24  1  0  0  0  0
 26 25  1  0  0  0  0
 27 29  1  0  0  0  0
 28 27  1  0  0  0  0
 28 31  1  0  0  0  0
 29 26  1  1  0  0  0
 30 29  1  0  0  0  0
 30 34  1  0  0  0  0
 31 30  2  0  0  0  0
 32 34  2  0  0  0  0
 33 32  1  0  0  0  0
M  END
>  <MODEL>
6

>  <REMARK>
 VINA RESULT:      -6.0      2.054      2.740
  Name = 
  13 active torsions:
  status: ('A' for Active; 'I' for Inactive)
    1  A    between atoms: C_3  and  C_8
    2  A    between atoms: C_3  and  N_20
    3  A    between atoms: C_4  and  C_8
    4  A    between atoms: C_9  and  C_17
    5  A    between atoms: C_9  and  O_19
    6  A    between atoms: C_12  and  O_19
    7  A    between atoms: C_12  and  N_34
    8  A    between atoms: C_15  and  CA_26
    9  A    between atoms: C_16  and  N_20
   10  A    between atoms: C_16  and  C_32
   11  A    between atoms: C_18  and  C_32
   12  A    between atoms: N_20  and  N_34
   13  A    between atoms: C_21  and  N_30
                            x       y       z     vdW  Elec       q    Type
                         _______ _______ _______ _____ _____    ______ ____

>  <TORSDO>
F 13

$$$$
=
 OpenBabel11042416063D

 34 36  0  0  1  0  0  0  0  0999 V2000
  189.7620  175.3990  146.3270 N   0  0  0  0  0  0  0  0  0  0  0  0
  188.4880  175.9870  146.7350 C   0  0  0  0  0  2  0  0  0  0  0  0
  189.1340  177.6560  145.1260 O   0  0  0  0  0  1  0  0  0  0  0  0
  188.3590  177.4370  146.2680 C   0  0  1  0  0  3  0  0  0  0  0  0
  186.9340  177.8250  146.0250 C   0  0  0  0  0  0  0  0  0  0  0  0
  184.7270  178.3010  146.8680 C   0  0  0  0  0  3  0  0  0  0  0  0
  186.0650  177.9880  147.1070 C   0  0  0  0  0  3  0  0  0  0  0  0
  184.2690  178.4430  145.5570 C   0  0  0  0  0  3  0  0  0  0  0  0
  185.1640  178.2680  144.4940 C   0  0  0  0  0  0  0  0  0  0  0  0
  186.4650  177.9610  144.7530 N   0  0  0  0  0  0  0  0  0  0  0  0
  184.7070  178.4140  143.1040 C   0  0  0  0  0  0  0  0  0  0  0  0
  183.4790  178.3370  142.8300 O   0  0  0  0  0  1  0  0  0  0  0  0
  185.6220  178.6360  142.0810 O   0  0  0  0  0  0  0  0  0  0  0  0
  189.5460  173.9880  145.9830 C   0  0  0  0  0  2  0  0  0  0  0  0
  190.3770  173.5140  144.7850 C   0  0  0  0  0  2  0  0  0  0  0  0
  189.2400  172.5230  142.7880 C   0  0  0  0  0  3  0  0  0  0  0  0
  189.5890  173.6560  143.5290 C   0  0  0  0  0  0  0  0  0  0  0  0
  189.2390  174.8940  143.0840 N   0  0  0  0  0  0  0  0  0  0  0  0
  188.5320  172.6800  141.5950 C   0  0  0  0  0  3  0  0  0  0  0  0
  188.5470  175.0670  141.9250 C   0  0  0  0  0  0  0  0  0  0  0  0
  188.1800  173.9580  141.1580 C   0  0  0  0  0  3  0  0  0  0  0  0
  188.1990  176.3760  141.4920 N   0  0  0  0  0  1  0  0  0  0  0  0
  190.6510  175.4790  147.4110 N   0  0  0  0  0  2  0  0  0  0  0  0
  191.8260  176.1930  146.9400 C   0  0  0  0  0  2  0  0  0  0  0  0
  192.9610  175.4110  147.1480 O   0  0  0  0  0  0  0  0  0  0  0  0
  193.9360  175.9730  146.3230 C   0  0  0  0  0  2  0  0  0  0  0  0
  193.8280  175.7430  143.6060 S   0  0  0  0  0  0  0  0  0  0  0  0
  195.5620  176.2180  143.3190 C   0  0  0  0  0  2  0  0  0  0  0  0
  194.2850  175.0050  145.2050 C   0  0  1  0  0  3  0  0  0  0  0  0
  195.7630  174.8110  145.1560 C   0  0  0  0  0  0  0  0  0  0  0  0
  196.3860  175.4270  144.2120 N   0  0  0  0  0  0  0  0  0  0  0  0
  196.8320  172.7620  145.9860 C   0  0  0  0  0  3  0  0  0  0  0  0
  196.5090  171.9840  144.8370 N   0  0  0  0  0  1  0  0  0  0  0  0
  196.5010  174.0150  146.0980 N   0  0  0  0  0  0  0  0  0  0  0  0
  1  2  1  0  0  0  0
  1 23  1  0  0  0  0
  4  3  1  6  0  0  0
  4  2  1  0  0  0  0
  5  4  1  0  0  0  0
  5  7  1  0  0  0  0
  6  7  2  0  0  0  0
  8  6  1  0  0  0  0
  9 10  1  0  0  0  0
  9  8  2  0  0  0  0
 10  5  2  0  0  0  0
 11  9  1  0  0  0  0
 12 11  1  0  0  0  0
 13 11  2  0  0  0  0
 14  1  1  0  0  0  0
 15 14  1  0  0  0  0
 16 17  1  0  0  0  0
 17 15  1  0  0  0  0
 18 17  2  0  0  0  0
 19 16  2  0  0  0  0
 20 18  1  0  0  0  0
 21 19  1  0  0  0  0
 21 20  2  0  0  0  0
 22 20  1  0  0  0  0
 24 25  1  0  0  0  0
 24 23  1  0  0  0  0
 26 25  1  0  0  0  0
 27 29  1  0  0  0  0
 28 27  1  0  0  0  0
 28 31  1  0  0  0  0
 29 26  1  1  0  0  0
 30 29  1  0  0  0  0
 30 34  1  0  0  0  0
 31 30  2  0  0  0  0
 32 34  2  0  0  0  0
 33 32  1  0  0  0  0
M  END
>  <MODEL>
7

>  <REMARK>
 VINA RESULT:      -5.9      1.919      3.967
  Name = 
  13 active torsions:
  status: ('A' for Active; 'I' for Inactive)
    1  A    between atoms: C_3  and  C_8
    2  A    between atoms: C_3  and  N_20
    3  A    between atoms: C_4  and  C_8
    4  A    between atoms: C_9  and  C_17
    5  A    between atoms: C_9  and  O_19
    6  A    between atoms: C_12  and  O_19
    7  A    between atoms: C_12  and  N_34
    8  A    between atoms: C_15  and  CA_26
    9  A    between atoms: C_16  and  N_20
   10  A    between atoms: C_16  and  C_32
   11  A    between atoms: C_18  and  C_32
   12  A    between atoms: N_20  and  N_34
   13  A    between atoms: C_21  and  N_30
                            x       y       z     vdW  Elec       q    Type
                         _______ _______ _______ _____ _____    ______ ____

>  <TORSDO>
F 13

$$$$
=
 OpenBabel11042416063D

 34 36  0  0  1  0  0  0  0  0999 V2000
  191.6880  176.2260  144.9510 N   0  0  0  0  0  0  0  0  0  0  0  0
  190.5020  176.7490  145.6250 C   0  0  0  0  0  2  0  0  0  0  0  0
  189.3180  174.6730  145.9110 O   0  0  0  0  0  1  0  0  0  0  0  0
  189.2560  175.9260  145.2960 C   0  0  1  0  0  3  0  0  0  0  0  0
  187.9950  176.6390  145.6720 C   0  0  0  0  0  0  0  0  0  0  0  0
  186.2280  177.0630  147.2560 C   0  0  0  0  0  3  0  0  0  0  0  0
  187.4300  176.4320  146.9340 C   0  0  0  0  0  3  0  0  0  0  0  0
  185.6030  177.8880  146.3200 C   0  0  0  0  0  3  0  0  0  0  0  0
  186.1910  178.0710  145.0620 C   0  0  0  0  0  0  0  0  0  0  0  0
  187.3630  177.4420  144.7710 N   0  0  0  0  0  0  0  0  0  0  0  0
  185.5530  178.9360  144.0600 C   0  0  0  0  0  0  0  0  0  0  0  0
  185.0820  178.4400  143.0020 O   0  0  0  0  0  0  0  0  0  0  0  0
  185.4650  180.3090  144.2690 O   0  0  0  0  0  1  0  0  0  0  0  0
  192.8660  176.9630  145.4230 C   0  0  0  0  0  2  0  0  0  0  0  0
  193.7710  176.1460  146.3520 C   0  0  0  0  0  2  0  0  0  0  0  0
  195.6750  174.5470  146.0660 C   0  0  0  0  0  3  0  0  0  0  0  0
  194.9660  175.6610  145.6060 C   0  0  0  0  0  0  0  0  0  0  0  0
  195.3880  176.3260  144.4960 N   0  0  0  0  0  0  0  0  0  0  0  0
  196.8130  174.1300  145.3730 C   0  0  0  0  0  3  0  0  0  0  0  0
  196.4930  175.9320  143.8050 C   0  0  0  0  0  0  0  0  0  0  0  0
  197.2270  174.8230  144.2340 C   0  0  0  0  0  3  0  0  0  0  0  0
  196.9030  176.6500  142.6490 N   0  0  0  0  0  1  0  0  0  0  0  0
  191.5380  176.4300  143.5700 N   0  0  0  0  0  2  0  0  0  0  0  0
  192.3590  175.4330  142.9050 C   0  0  0  0  0  2  0  0  0  0  0  0
  191.7550  175.0570  141.7060 O   0  0  0  0  0  0  0  0  0  0  0  0
  190.7140  174.2080  142.0830 C   0  0  0  0  0  2  0  0  0  0  0  0
  188.8630  172.6860  140.7790 S   0  0  0  0  0  0  0  0  0  0  0  0
  187.5010  173.0280  141.9390 C   0  0  0  0  0  2  0  0  0  0  0  0
  189.5630  174.3340  141.0990 C   0  0  1  0  0  3  0  0  0  0  0  0
  188.4640  175.1310  141.7150 C   0  0  0  0  0  0  0  0  0  0  0  0
  187.4440  174.4640  142.1340 N   0  0  0  0  0  0  0  0  0  0  0  0
  187.8140  177.4470  141.2240 C   0  0  0  0  0  3  0  0  0  0  0  0
  186.8650  177.0960  140.2200 N   0  0  0  0  0  1  0  0  0  0  0  0
  188.5000  176.5580  141.8800 N   0  0  0  0  0  0  0  0  0  0  0  0
  1 14  1  0  0  0  0
  1  2  1  0  0  0  0
  4  2  1  0  0  0  0
  4  5  1  0  0  0  0
  4  3  1  1  0  0  0
  5  7  1  0  0  0  0
  7  6  2  0  0  0  0
  8  6  1  0  0  0  0
  9  8  2  0  0  0  0
 10  9  1  0  0  0  0
 10  5  2  0  0  0  0
 11 13  1  0  0  0  0
 11  9  1  0  0  0  0
 12 11  2  0  0  0  0
 14 15  1  0  0  0  0
 17 16  1  0  0  0  0
 17 15  1  0  0  0  0
 18 17  2  0  0  0  0
 19 16  2  0  0  0  0
 20 21  2  0  0  0  0
 20 18  1  0  0  0  0
 21 19  1  0  0  0  0
 22 20  1  0  0  0  0
 23  1  1  0  0  0  0
 24 23  1  0  0  0  0
 25 26  1  0  0  0  0
 25 24  1  0  0  0  0
 27 29  1  0  0  0  0
 27 28  1  0  0  0  0
 28 31  1  0  0  0  0
 29 30  1  0  0  0  0
 29 26  1  1  0  0  0
 30 34  1  0  0  0  0
 30 31  2  0  0  0  0
 32 34  2  0  0  0  0
 33 32  1  0  0  0  0
M  END
>  <MODEL>
8

>  <REMARK>
 VINA RESULT:      -5.9      2.366      7.068
  Name = 
  13 active torsions:
  status: ('A' for Active; 'I' for Inactive)
    1  A    between atoms: C_3  and  C_8
    2  A    between atoms: C_3  and  N_20
    3  A    between atoms: C_4  and  C_8
    4  A    between atoms: C_9  and  C_17
    5  A    between atoms: C_9  and  O_19
    6  A    between atoms: C_12  and  O_19
    7  A    between atoms: C_12  and  N_34
    8  A    between atoms: C_15  and  CA_26
    9  A    between atoms: C_16  and  N_20
   10  A    between atoms: C_16  and  C_32
   11  A    between atoms: C_18  and  C_32
   12  A    between atoms: N_20  and  N_34
   13  A    between atoms: C_21  and  N_30
                            x       y       z     vdW  Elec       q    Type
                         _______ _______ _______ _____ _____    ______ ____

>  <TORSDO>
F 13

$$$$
=
 OpenBabel11042416063D

 34 36  0  0  1  0  0  0  0  0999 V2000
  191.4180  176.3580  145.1320 N   0  0  0  0  0  0  0  0  0  0  0  0
  190.4500  176.6120  146.1970 C   0  0  0  0  0  2  0  0  0  0  0  0
  189.1420  174.8040  147.1000 O   0  0  0  0  0  1  0  0  0  0  0  0
  189.2100  175.7290  146.0550 C   0  0  1  0  0  3  0  0  0  0  0  0
  187.9520  176.5360  145.9780 C   0  0  0  0  0  0  0  0  0  0  0  0
  185.8590  177.2390  146.9460 C   0  0  0  0  0  3  0  0  0  0  0  0
  187.0520  176.5230  147.0480 C   0  0  0  0  0  3  0  0  0  0  0  0
  185.5740  177.9530  145.7810 C   0  0  0  0  0  3  0  0  0  0  0  0
  186.4920  177.9410  144.7250 C   0  0  0  0  0  0  0  0  0  0  0  0
  187.6490  177.2340  144.8470 N   0  0  0  0  0  0  0  0  0  0  0  0
  186.2160  178.6880  143.4890 C   0  0  0  0  0  0  0  0  0  0  0  0
  185.1950  179.4220  143.4070 O   0  0  0  0  0  1  0  0  0  0  0  0
  187.0740  178.5880  142.3990 O   0  0  0  0  0  0  0  0  0  0  0  0
  192.7700  176.6000  145.6520 C   0  0  0  0  0  2  0  0  0  0  0  0
  193.4670  175.3350  146.1630 C   0  0  0  0  0  2  0  0  0  0  0  0
  195.6420  174.1330  145.8640 C   0  0  0  0  0  3  0  0  0  0  0  0
  194.7720  175.1520  145.4660 C   0  0  0  0  0  0  0  0  0  0  0  0
  195.1300  176.0010  144.4640 N   0  0  0  0  0  0  0  0  0  0  0  0
  196.8750  174.0010  145.2220 C   0  0  0  0  0  3  0  0  0  0  0  0
  196.3250  175.8860  143.8250 C   0  0  0  0  0  0  0  0  0  0  0  0
  197.2210  174.8790  144.1940 C   0  0  0  0  0  3  0  0  0  0  0  0
  196.6650  176.7900  142.7810 N   0  0  0  0  0  1  0  0  0  0  0  0
  191.1620  177.2510  144.0800 N   0  0  0  0  0  2  0  0  0  0  0  0
  191.2920  176.4960  142.8460 C   0  0  0  0  0  2  0  0  0  0  0  0
  190.3120  175.5050  142.8000 O   0  0  0  0  0  0  0  0  0  0  0  0
  190.8250  174.5380  141.9350 C   0  0  0  0  0  2  0  0  0  0  0  0
  190.0520  173.2350  139.6650 S   0  0  0  0  0  0  0  0  0  0  0  0
  190.6300  171.5920  140.1970 C   0  0  0  0  0  2  0  0  0  0  0  0
  189.6940  173.6790  141.3920 C   0  0  1  0  0  3  0  0  0  0  0  0
  189.6420  172.3910  142.1420 C   0  0  0  0  0  0  0  0  0  0  0  0
  190.1180  171.3600  141.5330 N   0  0  0  0  0  0  0  0  0  0  0  0
  189.7940  172.2950  144.5910 C   0  0  0  0  0  3  0  0  0  0  0  0
  191.2010  172.5150  144.6330 N   0  0  0  0  0  1  0  0  0  0  0  0
  189.1250  172.2570  143.4760 N   0  0  0  0  0  0  0  0  0  0  0  0
  1 14  1  0  0  0  0
  1  2  1  0  0  0  0
  4  2  1  0  0  0  0
  4  3  1  1  0  0  0
  5  4  1  0  0  0  0
  5  7  1  0  0  0  0
  6  7  2  0  0  0  0
  8  6  1  0  0  0  0
  9 10  1  0  0  0  0
  9  8  2  0  0  0  0
 10  5  2  0  0  0  0
 11  9  1  0  0  0  0
 12 11  1  0  0  0  0
 13 11  2  0  0  0  0
 14 15  1  0  0  0  0
 17 16  1  0  0  0  0
 17 15  1  0  0  0  0
 18 17  2  0  0  0  0
 19 16  2  0  0  0  0
 20 21  2  0  0  0  0
 20 18  1  0  0  0  0
 21 19  1  0  0  0  0
 22 20  1  0  0  0  0
 23  1  1  0  0  0  0
 24 23  1  0  0  0  0
 25 24  1  0  0  0  0
 26 25  1  0  0  0  0
 27 28  1  0  0  0  0
 27 29  1  0  0  0  0
 28 31  1  0  0  0  0
 29 26  1  1  0  0  0
 29 30  1  0  0  0  0
 30 34  1  0  0  0  0
 31 30  2  0  0  0  0
 32 33  1  0  0  0  0
 34 32  2  0  0  0  0
M  END
>  <MODEL>
9

>  <REMARK>
 VINA RESULT:      -5.8      2.859      6.416
  Name = 
  13 active torsions:
  status: ('A' for Active; 'I' for Inactive)
    1  A    between atoms: C_3  and  C_8
    2  A    between atoms: C_3  and  N_20
    3  A    between atoms: C_4  and  C_8
    4  A    between atoms: C_9  and  C_17
    5  A    between atoms: C_9  and  O_19
    6  A    between atoms: C_12  and  O_19
    7  A    between atoms: C_12  and  N_34
    8  A    between atoms: C_15  and  CA_26
    9  A    between atoms: C_16  and  N_20
   10  A    between atoms: C_16  and  C_32
   11  A    between atoms: C_18  and  C_32
   12  A    between atoms: N_20  and  N_34
   13  A    between atoms: C_21  and  N_30
                            x       y       z     vdW  Elec       q    Type
                         _______ _______ _______ _____ _____    ______ ____

>  <TORSDO>
F 13

$$$$
