=
 OpenBabel11042417573D

 36 39  0  0  1  0  0  0  0  0999 V2000
  186.4800  177.0440  141.6050 C   0  0  0  0  0  0  0  0  0  0  0  0
  185.9920  177.3440  140.3130 C   0  0  0  0  0  0  0  0  0  0  0  0
  184.4710  178.0210  142.5640 C   0  0  0  0  0  3  0  0  0  0  0  0
  186.7110  177.0160  139.1700 O   0  0  0  0  0  1  0  0  0  0  0  0
  184.7550  177.9780  140.1650 C   0  0  0  0  0  3  0  0  0  0  0  0
  182.8020  178.9350  141.1350 F   0  0  0  0  0  0  0  0  0  0  0  0
  185.7080  177.3820  142.7280 C   0  0  0  0  0  0  0  0  0  0  0  0
  183.9970  178.3180  141.2860 C   0  0  0  0  0  0  0  0  0  0  0  0
  187.7420  176.4010  141.8260 N   0  0  0  0  0  2  0  0  0  0  0  0
  187.9590  174.9640  141.9290 C   0  0  0  0  0  2  0  0  0  0  0  0
  189.4210  174.6150  141.6360 C   0  0  2  0  0  3  0  0  0  0  0  0
  189.5920  173.6270  140.4860 C   0  0  1  0  0  3  0  0  0  0  0  0
  190.0220  174.0540  142.8370 N   0  0  0  0  0  0  0  0  0  0  0  0
  191.7300  173.0660  144.5640 Cl  0  0  0  0  0  0  0  0  0  0  0  0
  188.5840  173.8470  139.3640 C   0  0  0  0  0  1  0  0  0  0  0  0
  192.2530  173.7290  141.9610 N   0  0  0  0  0  0  0  0  0  0  0  0
  190.9230  173.7820  139.9310 N   0  0  0  0  0  2  0  0  0  0  0  0
  191.2460  173.6510  142.9860 C   0  0  0  0  0  0  0  0  0  0  0  0
  192.1510  173.8050  140.6650 C   0  0  0  0  0  3  0  0  0  0  0  0
  186.2010  177.0880  144.0040 O   0  0  0  0  0  0  0  0  0  0  0  0
  186.7710  176.5020  146.7230 C   0  0  0  0  0  2  0  0  0  0  0  0
  185.0780  178.2850  146.3110 C   0  0  0  0  0  2  0  0  0  0  0  0
  186.0780  178.9600  145.3660 C   0  0  0  0  0  2  0  0  0  0  0  0
  186.9710  177.9820  144.7260 N   0  0  0  0  0  0  0  0  0  0  0  0
  185.8260  177.5000  147.3790 C   0  0  0  0  0  2  0  0  0  0  0  0
  187.7110  177.2430  145.7620 C   0  0  2  0  0  3  0  0  0  0  0  0
  188.7570  176.3150  145.1390 C   0  0  2  0  0  3  0  0  0  0  0  0
  188.7000  175.0450  145.7010 F   0  0  0  0  0  0  0  0  0  0  0  0
  190.1620  176.9130  145.2320 C   0  0  1  0  0  0  0  0  0  0  0  0
  190.8410  177.3610  143.9970 C   0  0  0  0  0  2  0  0  0  0  0  0
  190.1940  178.2700  144.8650 O   0  0  0  0  0  0  0  0  0  0  0  0
  190.6220  177.0200  147.5680 O   0  0  0  0  0  0  0  0  0  0  0  0
  191.0100  176.6440  146.4290 C   0  0  0  0  0  0  0  0  0  0  0  0
  192.2180  175.9580  146.2730 O   0  0  0  0  0  0  0  0  0  0  0  0
  194.6040  175.5790  146.2890 C   0  0  0  0  0  1  0  0  0  0  0  0
  193.4810  176.6000  146.3970 C   0  0  0  0  0  2  0  0  0  0  0  0
  1  9  1  0  0  0  0
  1  7  1  0  0  0  0
  2  1  2  0  0  0  0
  3  7  2  0  0  0  0
  4  2  1  0  0  0  0
  5  2  1  0  0  0  0
  5  8  2  0  0  0  0
  6  8  1  0  0  0  0
  7 20  1  0  0  0  0
  8  3  1  0  0  0  0
  9 10  1  0  0  0  0
 11 10  1  1  0  0  0
 11 13  1  0  0  0  0
 12 15  1  6  0  0  0
 12 11  1  0  0  0  0
 13 18  2  0  0  0  0
 16 18  1  0  0  0  0
 17 12  1  0  0  0  0
 17 19  1  0  0  0  0
 18 14  1  0  0  0  0
 19 16  2  0  0  0  0
 20 24  1  0  0  0  0
 21 25  1  0  0  0  0
 22 25  1  0  0  0  0
 23 22  1  0  0  0  0
 24 23  1  0  0  0  0
 24 26  1  0  0  0  0
 26 27  1  6  0  0  0
 26 21  1  0  0  0  0
 27 29  1  0  0  0  0
 27 28  1  1  0  0  0
 29 33  1  1  0  0  0
 30 31  1  0  0  0  0
 30 29  1  0  0  0  0
 31 29  1  0  0  0  0
 33 32  2  0  0  0  0
 34 36  1  0  0  0  0
 34 33  1  0  0  0  0
 35 36  1  0  0  0  0
M  END
>  <MODEL>
1

>  <REMARK>
 VINA RESULT:      -7.1      0.000      0.000
  Name = 
  10 active torsions:
  status: ('A' for Active; 'I' for Inactive)
    1  A    between atoms: O_2  and  C_27
    2  A    between atoms: O_2  and  C_34
    3  A    between atoms: C_3  and  N_11
    4  A    between atoms: C_5  and  C_25
    5  A    between atoms: C_8  and  C_27
    6  A    between atoms: C_8  and  C_29
    7  A    between atoms: N_11  and  C_25
    8  A    between atoms: N_20  and  O_32
    9  A    between atoms: C_29  and  C_30
   10  A    between atoms: O_32  and  C_33
                            x       y       z     vdW  Elec       q    Type
                         _______ _______ _______ _____ _____    ______ ____

>  <TORSDO>
F 10

$$$$
=
 OpenBabel11042417573D

 36 39  0  0  1  0  0  0  0  0999 V2000
  191.5960  176.0190  145.0250 C   0  0  0  0  0  0  0  0  0  0  0  0
  192.6930  176.0220  145.9160 C   0  0  0  0  0  0  0  0  0  0  0  0
  190.1850  176.9010  146.7960 C   0  0  0  0  0  3  0  0  0  0  0  0
  193.9550  175.6030  145.5150 O   0  0  0  0  0  1  0  0  0  0  0  0
  192.5210  176.4610  147.2310 C   0  0  0  0  0  3  0  0  0  0  0  0
  191.1120  177.3180  148.9490 F   0  0  0  0  0  0  0  0  0  0  0  0
  190.3440  176.4660  145.4730 C   0  0  0  0  0  0  0  0  0  0  0  0
  191.2710  176.8970  147.6720 C   0  0  0  0  0  0  0  0  0  0  0  0
  191.7040  175.5750  143.6650 N   0  0  0  0  0  2  0  0  0  0  0  0
  191.7740  174.1880  143.2240 C   0  0  0  0  0  2  0  0  0  0  0  0
  190.5000  173.7950  142.4710 C   0  0  2  0  0  3  0  0  0  0  0  0
  189.8480  172.5220  143.0010 C   0  0  1  0  0  3  0  0  0  0  0  0
  190.8220  173.6130  141.0630 N   0  0  0  0  0  0  0  0  0  0  0  0
  190.6460  173.1910  138.4810 Cl  0  0  0  0  0  0  0  0  0  0  0  0
  189.9500  172.3940  144.5160 C   0  0  0  0  0  1  0  0  0  0  0  0
  188.5930  173.0880  140.2860 N   0  0  0  0  0  0  0  0  0  0  0  0
  188.4430  172.5340  142.6450 N   0  0  0  0  0  2  0  0  0  0  0  0
  190.0060  173.2900  140.1080 C   0  0  0  0  0  0  0  0  0  0  0  0
  187.8980  172.7870  141.3460 C   0  0  0  0  0  3  0  0  0  0  0  0
  189.2610  176.4540  144.5870 O   0  0  0  0  0  0  0  0  0  0  0  0
  186.7490  176.3040  143.2700 C   0  0  0  0  0  2  0  0  0  0  0  0
  188.7480  176.5790  141.8060 C   0  0  0  0  0  2  0  0  0  0  0  0
  189.1730  177.7660  142.6770 C   0  0  0  0  0  2  0  0  0  0  0  0
  188.7150  177.6150  144.0670 N   0  0  0  0  0  0  0  0  0  0  0  0
  187.2330  176.4360  141.8320 C   0  0  0  0  0  2  0  0  0  0  0  0
  187.2470  177.5020  144.0890 C   0  0  2  0  0  3  0  0  0  0  0  0
  186.7160  177.4870  145.5250 C   0  0  2  0  0  3  0  0  0  0  0  0
  186.3750  176.2000  145.9210 F   0  0  0  0  0  0  0  0  0  0  0  0
  185.5500  178.4630  145.7000 C   0  0  1  0  0  0  0  0  0  0  0  0
  184.7180  178.3860  146.9200 C   0  0  0  0  0  2  0  0  0  0  0  0
  185.7450  179.3470  146.7750 O   0  0  0  0  0  0  0  0  0  0  0  0
  185.4310  180.2750  144.1550 O   0  0  0  0  0  0  0  0  0  0  0  0
  184.9730  179.1550  144.5120 C   0  0  0  0  0  0  0  0  0  0  0  0
  183.9420  178.5420  143.7940 O   0  0  0  0  0  0  0  0  0  0  0  0
  182.6370  178.2840  141.7780 C   0  0  0  0  0  1  0  0  0  0  0  0
  184.0270  178.2960  142.3970 C   0  0  0  0  0  2  0  0  0  0  0  0
  1  7  2  0  0  0  0
  1  2  1  0  0  0  0
  2  5  2  0  0  0  0
  3  8  2  0  0  0  0
  4  2  1  0  0  0  0
  5  8  1  0  0  0  0
  7  3  1  0  0  0  0
  8  6  1  0  0  0  0
  9  1  1  0  0  0  0
 10  9  1  0  0  0  0
 11 12  1  0  0  0  0
 11 10  1  1  0  0  0
 12 15  1  1  0  0  0
 13 11  1  0  0  0  0
 14 18  1  0  0  0  0
 16 19  2  0  0  0  0
 17 12  1  0  0  0  0
 18 16  1  0  0  0  0
 18 13  2  0  0  0  0
 19 17  1  0  0  0  0
 20  7  1  0  0  0  0
 21 26  1  0  0  0  0
 22 25  1  0  0  0  0
 22 23  1  0  0  0  0
 23 24  1  0  0  0  0
 24 26  1  0  0  0  0
 24 20  1  0  0  0  0
 25 21  1  0  0  0  0
 26 27  1  1  0  0  0
 27 29  1  0  0  0  0
 27 28  1  6  0  0  0
 29 33  1  6  0  0  0
 29 31  1  0  0  0  0
 29 30  1  0  0  0  0
 31 30  1  0  0  0  0
 32 33  2  0  0  0  0
 34 33  1  0  0  0  0
 35 36  1  0  0  0  0
 36 34  1  0  0  0  0
M  END
>  <MODEL>
2

>  <REMARK>
 VINA RESULT:      -7.1      2.437      6.448
  Name = 
  10 active torsions:
  status: ('A' for Active; 'I' for Inactive)
    1  A    between atoms: O_2  and  C_27
    2  A    between atoms: O_2  and  C_34
    3  A    between atoms: C_3  and  N_11
    4  A    between atoms: C_5  and  C_25
    5  A    between atoms: C_8  and  C_27
    6  A    between atoms: C_8  and  C_29
    7  A    between atoms: N_11  and  C_25
    8  A    between atoms: N_20  and  O_32
    9  A    between atoms: C_29  and  C_30
   10  A    between atoms: O_32  and  C_33
                            x       y       z     vdW  Elec       q    Type
                         _______ _______ _______ _____ _____    ______ ____

>  <TORSDO>
F 10

$$$$
=
 OpenBabel11042417573D

 36 39  0  0  1  0  0  0  0  0999 V2000
  190.6890  173.3810  141.9520 C   0  0  0  0  0  0  0  0  0  0  0  0
  190.6880  172.3460  140.9890 C   0  0  0  0  0  0  0  0  0  0  0  0
  188.7510  174.3630  140.8620 C   0  0  0  0  0  3  0  0  0  0  0  0
  191.6260  171.3220  141.0230 O   0  0  0  0  0  1  0  0  0  0  0  0
  189.7240  172.3360  139.9780 C   0  0  0  0  0  3  0  0  0  0  0  0
  187.8300  173.3260  138.9280 F   0  0  0  0  0  0  0  0  0  0  0  0
  189.7110  174.3850  141.8840 C   0  0  0  0  0  0  0  0  0  0  0  0
  188.7590  173.3420  139.9120 C   0  0  0  0  0  0  0  0  0  0  0  0
  191.6540  173.4530  143.0100 N   0  0  0  0  0  2  0  0  0  0  0  0
  193.0410  173.8760  142.8700 C   0  0  0  0  0  2  0  0  0  0  0  0
  193.4780  174.7080  144.0800 C   0  0  2  0  0  3  0  0  0  0  0  0
  193.7470  176.1720  143.7460 C   0  0  1  0  0  3  0  0  0  0  0  0
  194.6830  174.1200  144.6450 N   0  0  0  0  0  0  0  0  0  0  0  0
  196.7390  173.6040  146.1900 Cl  0  0  0  0  0  0  0  0  0  0  0  0
  192.7840  176.7260  142.7030 C   0  0  0  0  0  1  0  0  0  0  0  0
  194.9570  175.6580  146.4920 N   0  0  0  0  0  0  0  0  0  0  0  0
  193.6030  176.9600  144.9540 N   0  0  0  0  0  2  0  0  0  0  0  0
  195.3440  174.5330  145.6830 C   0  0  0  0  0  0  0  0  0  0  0  0
  194.2080  176.6900  146.2220 C   0  0  0  0  0  3  0  0  0  0  0  0
  189.7210  175.4100  142.8360 O   0  0  0  0  0  0  0  0  0  0  0  0
  189.6390  177.8500  144.2860 C   0  0  0  0  0  2  0  0  0  0  0  0
  190.2700  175.8170  145.5840 C   0  0  0  0  0  2  0  0  0  0  0  0
  189.0210  175.1240  145.0290 C   0  0  0  0  0  2  0  0  0  0  0  0
  188.6600  175.6330  143.6970 N   0  0  0  0  0  0  0  0  0  0  0  0
  190.0370  177.3190  145.6570 C   0  0  0  0  0  2  0  0  0  0  0  0
  188.4110  177.0820  143.7770 C   0  0  2  0  0  3  0  0  0  0  0  0
  187.8940  177.6300  142.4440 C   0  0  2  0  0  3  0  0  0  0  0  0
  188.6590  178.7060  142.0130 F   0  0  0  0  0  0  0  0  0  0  0  0
  186.4080  177.9850  142.5250 C   0  0  1  0  0  0  0  0  0  0  0  0
  185.6660  178.2860  141.2820 C   0  0  0  0  0  2  0  0  0  0  0  0
  185.5900  177.0220  141.9090 O   0  0  0  0  0  0  0  0  0  0  0  0
  186.0260  179.6510  144.1880 O   0  0  0  0  0  0  0  0  0  0  0  0
  185.8250  178.4640  143.8120 C   0  0  0  0  0  0  0  0  0  0  0  0
  185.0420  177.5940  144.5760 O   0  0  0  0  0  0  0  0  0  0  0  0
  186.1040  176.8860  146.6260 C   0  0  0  0  0  1  0  0  0  0  0  0
  184.9700  177.6780  145.9930 C   0  0  0  0  0  2  0  0  0  0  0  0
  1  9  1  0  0  0  0
  2  4  1  0  0  0  0
  2  1  2  0  0  0  0
  3  7  2  0  0  0  0
  5  2  1  0  0  0  0
  6  8  1  0  0  0  0
  7  1  1  0  0  0  0
  7 20  1  0  0  0  0
  8  5  2  0  0  0  0
  8  3  1  0  0  0  0
 10  9  1  0  0  0  0
 11 10  1  6  0  0  0
 11 13  1  0  0  0  0
 12 15  1  6  0  0  0
 12 11  1  0  0  0  0
 12 17  1  0  0  0  0
 13 18  2  0  0  0  0
 17 19  1  0  0  0  0
 18 14  1  0  0  0  0
 18 16  1  0  0  0  0
 19 16  2  0  0  0  0
 20 24  1  0  0  0  0
 21 25  1  0  0  0  0
 22 25  1  0  0  0  0
 23 22  1  0  0  0  0
 24 26  1  0  0  0  0
 24 23  1  0  0  0  0
 26 27  1  6  0  0  0
 26 21  1  0  0  0  0
 27 28  1  1  0  0  0
 27 29  1  0  0  0  0
 29 33  1  1  0  0  0
 30 31  1  0  0  0  0
 30 29  1  0  0  0  0
 31 29  1  0  0  0  0
 33 32  2  0  0  0  0
 33 34  1  0  0  0  0
 34 36  1  0  0  0  0
 36 35  1  0  0  0  0
M  END
>  <MODEL>
3

>  <REMARK>
 VINA RESULT:      -7.0      2.904      5.870
  Name = 
  10 active torsions:
  status: ('A' for Active; 'I' for Inactive)
    1  A    between atoms: O_2  and  C_27
    2  A    between atoms: O_2  and  C_34
    3  A    between atoms: C_3  and  N_11
    4  A    between atoms: C_5  and  C_25
    5  A    between atoms: C_8  and  C_27
    6  A    between atoms: C_8  and  C_29
    7  A    between atoms: N_11  and  C_25
    8  A    between atoms: N_20  and  O_32
    9  A    between atoms: C_29  and  C_30
   10  A    between atoms: O_32  and  C_33
                            x       y       z     vdW  Elec       q    Type
                         _______ _______ _______ _____ _____    ______ ____

>  <TORSDO>
F 10

$$$$
=
 OpenBabel11042417573D

 36 39  0  0  1  0  0  0  0  0999 V2000
  190.8870  174.9820  145.4120 C   0  0  0  0  0  0  0  0  0  0  0  0
  192.0780  174.8170  146.1550 C   0  0  0  0  0  0  0  0  0  0  0  0
  190.2720  176.8390  146.8540 C   0  0  0  0  0  3  0  0  0  0  0  0
  193.0050  173.8330  145.8340 O   0  0  0  0  0  1  0  0  0  0  0  0
  192.3480  175.6620  147.2350 C   0  0  0  0  0  3  0  0  0  0  0  0
  191.7140  177.4810  148.6350 F   0  0  0  0  0  0  0  0  0  0  0  0
  189.9900  176.0010  145.7660 C   0  0  0  0  0  0  0  0  0  0  0  0
  191.4470  176.6690  147.5860 C   0  0  0  0  0  0  0  0  0  0  0  0
  190.5480  174.1450  144.2970 N   0  0  0  0  0  2  0  0  0  0  0  0
  189.9670  172.8120  144.3780 C   0  0  0  0  0  2  0  0  0  0  0  0
  190.1220  172.0720  143.0470 C   0  0  2  0  0  3  0  0  0  0  0  0
  191.5290  171.5320  142.8100 C   0  0  1  0  0  3  0  0  0  0  0  0
  189.7710  172.9750  141.9620 N   0  0  0  0  0  0  0  0  0  0  0  0
  189.2440  173.9700  139.5930 Cl  0  0  0  0  0  0  0  0  0  0  0  0
  192.1880  171.0240  144.0870 C   0  0  0  0  0  1  0  0  0  0  0  0
  190.0830  171.4230  140.1340 N   0  0  0  0  0  0  0  0  0  0  0  0
  191.4550  170.4290  141.8730 N   0  0  0  0  0  2  0  0  0  0  0  0
  189.7660  172.7100  140.6910 C   0  0  0  0  0  0  0  0  0  0  0  0
  190.7770  170.4300  140.6130 C   0  0  0  0  0  3  0  0  0  0  0  0
  188.8100  176.1540  145.0300 O   0  0  0  0  0  0  0  0  0  0  0  0
  186.7030  176.1870  143.1260 C   0  0  0  0  0  2  0  0  0  0  0  0
  189.0060  176.5120  142.2290 C   0  0  0  0  0  2  0  0  0  0  0  0
  189.2150  177.6130  143.2740 C   0  0  0  0  0  2  0  0  0  0  0  0
  188.4240  177.3690  144.4900 N   0  0  0  0  0  0  0  0  0  0  0  0
  187.5310  176.4160  141.8680 C   0  0  0  0  0  2  0  0  0  0  0  0
  186.9960  177.3010  144.1400 C   0  0  2  0  0  3  0  0  0  0  0  0
  186.1240  177.1900  145.3940 C   0  0  2  0  0  3  0  0  0  0  0  0
  185.3420  176.0420  145.3620 F   0  0  0  0  0  0  0  0  0  0  0  0
  185.2760  178.4480  145.5990 C   0  0  1  0  0  0  0  0  0  0  0  0
  184.5440  178.6290  146.8700 C   0  0  0  0  0  2  0  0  0  0  0  0
  185.7770  179.2730  146.6200 O   0  0  0  0  0  0  0  0  0  0  0  0
  185.4190  180.3090  144.1160 O   0  0  0  0  0  0  0  0  0  0  0  0
  184.8220  179.2410  144.4200 C   0  0  0  0  0  0  0  0  0  0  0  0
  183.7500  178.7760  143.6530 O   0  0  0  0  0  0  0  0  0  0  0  0
  182.5970  178.2160  141.6050 C   0  0  0  0  0  1  0  0  0  0  0  0
  183.9230  178.2310  142.3510 C   0  0  0  0  0  2  0  0  0  0  0  0
  1  7  2  0  0  0  0
  1  2  1  0  0  0  0
  2  5  2  0  0  0  0
  3  8  2  0  0  0  0
  4  2  1  0  0  0  0
  5  8  1  0  0  0  0
  7  3  1  0  0  0  0
  8  6  1  0  0  0  0
  9 10  1  0  0  0  0
  9  1  1  0  0  0  0
 11 10  1  1  0  0  0
 12 11  1  0  0  0  0
 12 15  1  1  0  0  0
 13 11  1  0  0  0  0
 14 18  1  0  0  0  0
 16 19  2  0  0  0  0
 16 18  1  0  0  0  0
 17 12  1  0  0  0  0
 18 13  2  0  0  0  0
 19 17  1  0  0  0  0
 20  7  1  0  0  0  0
 21 26  1  0  0  0  0
 22 23  1  0  0  0  0
 23 24  1  0  0  0  0
 24 20  1  0  0  0  0
 25 22  1  0  0  0  0
 25 21  1  0  0  0  0
 26 24  1  0  0  0  0
 26 27  1  1  0  0  0
 27 28  1  6  0  0  0
 27 29  1  0  0  0  0
 29 33  1  6  0  0  0
 29 31  1  0  0  0  0
 29 30  1  0  0  0  0
 31 30  1  0  0  0  0
 32 33  2  0  0  0  0
 34 33  1  0  0  0  0
 35 36  1  0  0  0  0
 36 34  1  0  0  0  0
M  END
>  <MODEL>
4

>  <REMARK>
 VINA RESULT:      -6.9      2.533      6.512
  Name = 
  10 active torsions:
  status: ('A' for Active; 'I' for Inactive)
    1  A    between atoms: O_2  and  C_27
    2  A    between atoms: O_2  and  C_34
    3  A    between atoms: C_3  and  N_11
    4  A    between atoms: C_5  and  C_25
    5  A    between atoms: C_8  and  C_27
    6  A    between atoms: C_8  and  C_29
    7  A    between atoms: N_11  and  C_25
    8  A    between atoms: N_20  and  O_32
    9  A    between atoms: C_29  and  C_30
   10  A    between atoms: O_32  and  C_33
                            x       y       z     vdW  Elec       q    Type
                         _______ _______ _______ _____ _____    ______ ____

>  <TORSDO>
F 10

$$$$
=
 OpenBabel11042417573D

 36 39  0  0  1  0  0  0  0  0999 V2000
  191.6360  174.6540  142.5020 C   0  0  0  0  0  0  0  0  0  0  0  0
  191.9130  173.8500  141.3730 C   0  0  0  0  0  0  0  0  0  0  0  0
  190.3550  172.8240  143.4610 C   0  0  0  0  0  3  0  0  0  0  0  0
  192.6910  174.3180  140.3210 O   0  0  0  0  0  1  0  0  0  0  0  0
  191.4080  172.5490  141.3030 C   0  0  0  0  0  3  0  0  0  0  0  0
  190.1410  170.7780  142.2650 F   0  0  0  0  0  0  0  0  0  0  0  0
  190.8590  174.1300  143.5460 C   0  0  0  0  0  0  0  0  0  0  0  0
  190.6290  172.0380  142.3420 C   0  0  0  0  0  0  0  0  0  0  0  0
  192.1200  175.9980  142.6330 N   0  0  0  0  0  2  0  0  0  0  0  0
  192.8680  176.5270  143.7660 C   0  0  0  0  0  2  0  0  0  0  0  0
  194.1690  175.7450  143.9680 C   0  0  2  0  0  3  0  0  0  0  0  0
  194.8950  176.0980  145.2630 C   0  0  1  0  0  3  0  0  0  0  0  0
  195.0530  176.0010  142.8420 N   0  0  0  0  0  0  0  0  0  0  0  0
  197.0730  175.9390  141.1700 Cl  0  0  0  0  0  0  0  0  0  0  0  0
  193.9410  176.3730  146.4190 C   0  0  0  0  0  1  0  0  0  0  0  0
  196.8760  174.5690  143.5300 N   0  0  0  0  0  0  0  0  0  0  0  0
  195.7470  174.9870  145.6380 N   0  0  0  0  0  2  0  0  0  0  0  0
  196.2380  175.5090  142.6480 C   0  0  0  0  0  0  0  0  0  0  0  0
  196.6800  174.3090  144.7910 C   0  0  0  0  0  3  0  0  0  0  0  0
  190.5830  174.9340  144.6580 O   0  0  0  0  0  0  0  0  0  0  0  0
  189.8200  177.4220  145.7940 C   0  0  0  0  0  2  0  0  0  0  0  0
  190.3140  175.5800  147.4010 C   0  0  0  0  0  2  0  0  0  0  0  0
  189.3550  174.6860  146.6090 C   0  0  0  0  0  2  0  0  0  0  0  0
  189.3100  175.0580  145.1860 N   0  0  0  0  0  0  0  0  0  0  0  0
  189.8920  177.0360  147.2660 C   0  0  0  0  0  2  0  0  0  0  0  0
  188.8770  176.4590  145.0590 C   0  0  2  0  0  3  0  0  0  0  0  0
  188.6780  176.8460  143.5910 C   0  0  2  0  0  3  0  0  0  0  0  0
  189.3880  177.9980  143.2750 F   0  0  0  0  0  0  0  0  0  0  0  0
  187.1940  176.9800  143.2440 C   0  0  1  0  0  0  0  0  0  0  0  0
  186.7590  176.8040  141.8420 C   0  0  0  0  0  2  0  0  0  0  0  0
  186.6340  175.7700  142.7980 O   0  0  0  0  0  0  0  0  0  0  0  0
  186.2350  178.9670  144.1490 O   0  0  0  0  0  0  0  0  0  0  0  0
  186.2750  177.7070  144.1680 C   0  0  0  0  0  0  0  0  0  0  0  0
  185.4520  176.9770  145.0310 O   0  0  0  0  0  0  0  0  0  0  0  0
  186.1060  176.9370  147.3560 C   0  0  0  0  0  1  0  0  0  0  0  0
  185.1040  177.4420  146.3280 C   0  0  0  0  0  2  0  0  0  0  0  0
  1  9  1  0  0  0  0
  1  7  1  0  0  0  0
  2  1  2  0  0  0  0
  3  7  2  0  0  0  0
  4  2  1  0  0  0  0
  5  2  1  0  0  0  0
  5  8  2  0  0  0  0
  6  8  1  0  0  0  0
  7 20  1  0  0  0  0
  8  3  1  0  0  0  0
  9 10  1  0  0  0  0
 11 10  1  6  0  0  0
 11 12  1  0  0  0  0
 12 17  1  0  0  0  0
 12 15  1  1  0  0  0
 13 11  1  0  0  0  0
 14 18  1  0  0  0  0
 16 19  2  0  0  0  0
 18 13  2  0  0  0  0
 18 16  1  0  0  0  0
 19 17  1  0  0  0  0
 20 24  1  0  0  0  0
 21 25  1  0  0  0  0
 23 22  1  0  0  0  0
 24 23  1  0  0  0  0
 25 22  1  0  0  0  0
 26 27  1  6  0  0  0
 26 24  1  0  0  0  0
 26 21  1  0  0  0  0
 27 28  1  1  0  0  0
 29 27  1  0  0  0  0
 29 33  1  1  0  0  0
 30 31  1  0  0  0  0
 30 29  1  0  0  0  0
 31 29  1  0  0  0  0
 32 33  2  0  0  0  0
 33 34  1  0  0  0  0
 34 36  1  0  0  0  0
 36 35  1  0  0  0  0
M  END
>  <MODEL>
5

>  <REMARK>
 VINA RESULT:      -6.8      2.854      6.286
  Name = 
  10 active torsions:
  status: ('A' for Active; 'I' for Inactive)
    1  A    between atoms: O_2  and  C_27
    2  A    between atoms: O_2  and  C_34
    3  A    between atoms: C_3  and  N_11
    4  A    between atoms: C_5  and  C_25
    5  A    between atoms: C_8  and  C_27
    6  A    between atoms: C_8  and  C_29
    7  A    between atoms: N_11  and  C_25
    8  A    between atoms: N_20  and  O_32
    9  A    between atoms: C_29  and  C_30
   10  A    between atoms: O_32  and  C_33
                            x       y       z     vdW  Elec       q    Type
                         _______ _______ _______ _____ _____    ______ ____

>  <TORSDO>
F 10

$$$$
=
 OpenBabel11042417573D

 36 39  0  0  1  0  0  0  0  0999 V2000
  187.6900  176.6560  141.9120 C   0  0  0  0  0  0  0  0  0  0  0  0
  186.9060  177.5180  141.1120 C   0  0  0  0  0  0  0  0  0  0  0  0
  186.7780  177.7150  143.9010 C   0  0  0  0  0  3  0  0  0  0  0  0
  186.9330  177.4450  139.7250 O   0  0  0  0  0  1  0  0  0  0  0  0
  186.0740  178.4640  141.7140 C   0  0  0  0  0  3  0  0  0  0  0  0
  185.2040  179.4870  143.6810 F   0  0  0  0  0  0  0  0  0  0  0  0
  187.6150  176.7590  143.3100 C   0  0  0  0  0  0  0  0  0  0  0  0
  186.0100  178.5650  143.1050 C   0  0  0  0  0  0  0  0  0  0  0  0
  188.5680  175.6680  141.3570 N   0  0  0  0  0  2  0  0  0  0  0  0
  188.1710  174.3540  140.8690 C   0  0  0  0  0  2  0  0  0  0  0  0
  189.3350  173.6720  140.1440 C   0  0  2  0  0  3  0  0  0  0  0  0
  189.0360  173.3510  138.6820 C   0  0  1  0  0  3  0  0  0  0  0  0
  189.6680  172.4390  140.8410 N   0  0  0  0  0  0  0  0  0  0  0  0
  190.8330  170.2100  141.5830 Cl  0  0  0  0  0  0  0  0  0  0  0  0
  188.1910  174.4230  138.0040 C   0  0  0  0  0  1  0  0  0  0  0  0
  191.5210  171.7650  139.4410 N   0  0  0  0  0  0  0  0  0  0  0  0
  190.2890  173.2450  137.9620 N   0  0  0  0  0  2  0  0  0  0  0  0
  190.6050  171.5950  140.5360 C   0  0  0  0  0  0  0  0  0  0  0  0
  191.4270  172.4690  138.3480 C   0  0  0  0  0  3  0  0  0  0  0  0
  188.3980  175.9070  144.0960 O   0  0  0  0  0  0  0  0  0  0  0  0
  189.6920  174.1690  145.9330 C   0  0  0  0  0  2  0  0  0  0  0  0
  188.5640  176.1660  146.9110 C   0  0  0  0  0  2  0  0  0  0  0  0
  189.3180  177.0370  145.9000 C   0  0  0  0  0  2  0  0  0  0  0  0
  189.6000  176.3080  144.6540 N   0  0  0  0  0  0  0  0  0  0  0  0
  189.3750  174.9160  147.2220 C   0  0  0  0  0  2  0  0  0  0  0  0
  190.4060  175.1140  144.9570 C   0  0  2  0  0  3  0  0  0  0  0  0
  190.8440  174.4020  143.6740 C   0  0  2  0  0  3  0  0  0  0  0  0
  190.6430  173.0300  143.7660 F   0  0  0  0  0  0  0  0  0  0  0  0
  192.2920  174.7420  143.3120 C   0  0  1  0  0  0  0  0  0  0  0  0
  192.6740  174.8600  141.8890 C   0  0  0  0  0  2  0  0  0  0  0  0
  192.4100  175.9960  142.6880 O   0  0  0  0  0  0  0  0  0  0  0  0
  193.5970  173.3500  144.7410 O   0  0  0  0  0  0  0  0  0  0  0  0
  193.3810  174.5130  144.3050 C   0  0  0  0  0  0  0  0  0  0  0  0
  194.1640  175.5920  144.7240 O   0  0  0  0  0  0  0  0  0  0  0  0
  193.2040  176.4160  146.7820 C   0  0  0  0  0  1  0  0  0  0  0  0
  194.4370  175.8490  146.0960 C   0  0  0  0  0  2  0  0  0  0  0  0
  1  7  1  0  0  0  0
  2  5  1  0  0  0  0
  2  1  2  0  0  0  0
  4  2  1  0  0  0  0
  5  8  2  0  0  0  0
  7  3  2  0  0  0  0
  7 20  1  0  0  0  0
  8  6  1  0  0  0  0
  8  3  1  0  0  0  0
  9  1  1  0  0  0  0
 10  9  1  0  0  0  0
 11 13  1  0  0  0  0
 11 10  1  1  0  0  0
 12 15  1  6  0  0  0
 12 11  1  0  0  0  0
 16 18  1  0  0  0  0
 17 19  1  0  0  0  0
 17 12  1  0  0  0  0
 18 13  2  0  0  0  0
 18 14  1  0  0  0  0
 19 16  2  0  0  0  0
 20 24  1  0  0  0  0
 21 25  1  0  0  0  0
 22 25  1  0  0  0  0
 23 22  1  0  0  0  0
 24 26  1  0  0  0  0
 24 23  1  0  0  0  0
 26 27  1  6  0  0  0
 26 21  1  0  0  0  0
 27 28  1  1  0  0  0
 29 27  1  0  0  0  0
 29 33  1  1  0  0  0
 30 31  1  0  0  0  0
 30 29  1  0  0  0  0
 31 29  1  0  0  0  0
 33 34  1  0  0  0  0
 33 32  2  0  0  0  0
 34 36  1  0  0  0  0
 36 35  1  0  0  0  0
M  END
>  <MODEL>
6

>  <REMARK>
 VINA RESULT:      -6.7      2.236      2.995
  Name = 
  10 active torsions:
  status: ('A' for Active; 'I' for Inactive)
    1  A    between atoms: O_2  and  C_27
    2  A    between atoms: O_2  and  C_34
    3  A    between atoms: C_3  and  N_11
    4  A    between atoms: C_5  and  C_25
    5  A    between atoms: C_8  and  C_27
    6  A    between atoms: C_8  and  C_29
    7  A    between atoms: N_11  and  C_25
    8  A    between atoms: N_20  and  O_32
    9  A    between atoms: C_29  and  C_30
   10  A    between atoms: O_32  and  C_33
                            x       y       z     vdW  Elec       q    Type
                         _______ _______ _______ _____ _____    ______ ____

>  <TORSDO>
F 10

$$$$
=
 OpenBabel11042417573D

 36 39  0  0  1  0  0  0  0  0999 V2000
  187.6550  176.4060  141.8320 C   0  0  0  0  0  0  0  0  0  0  0  0
  186.8820  177.1770  140.9340 C   0  0  0  0  0  0  0  0  0  0  0  0
  187.0100  177.9040  143.6350 C   0  0  0  0  0  3  0  0  0  0  0  0
  186.7840  176.8440  139.5890 O   0  0  0  0  0  1  0  0  0  0  0  0
  186.1880  178.2980  141.3970 C   0  0  0  0  0  3  0  0  0  0  0  0
  185.5800  179.7520  143.1820 F   0  0  0  0  0  0  0  0  0  0  0  0
  187.7090  176.7750  143.1850 C   0  0  0  0  0  0  0  0  0  0  0  0
  186.2530  178.6620  142.7420 C   0  0  0  0  0  0  0  0  0  0  0  0
  188.3950  175.2490  141.4210 N   0  0  0  0  0  2  0  0  0  0  0  0
  187.9090  173.8750  141.4410 C   0  0  0  0  0  2  0  0  0  0  0  0
  188.4210  173.1020  140.2220 C   0  0  2  0  0  3  0  0  0  0  0  0
  189.8330  172.5520  140.4000 C   0  0  1  0  0  3  0  0  0  0  0  0
  188.3960  173.9790  139.0620 N   0  0  0  0  0  0  0  0  0  0  0  0
  188.5600  174.9160  136.6180 Cl  0  0  0  0  0  0  0  0  0  0  0  0
  190.1050  172.0740  141.8210 C   0  0  0  0  0  1  0  0  0  0  0  0
  189.1900  172.3810  137.4300 N   0  0  0  0  0  0  0  0  0  0  0  0
  190.0120  171.4260  139.5050 N   0  0  0  0  0  2  0  0  0  0  0  0
  188.7420  173.6820  137.8470 C   0  0  0  0  0  0  0  0  0  0  0  0
  189.7120  171.3970  138.1070 C   0  0  0  0  0  3  0  0  0  0  0  0
  188.4810  176.0110  144.0670 O   0  0  0  0  0  0  0  0  0  0  0  0
  189.7420  174.3730  146.0150 C   0  0  0  0  0  2  0  0  0  0  0  0
  188.1000  176.0420  146.8720 C   0  0  0  0  0  2  0  0  0  0  0  0
  188.8390  177.1200  146.0720 C   0  0  0  0  0  2  0  0  0  0  0  0
  189.4680  176.5680  144.8620 N   0  0  0  0  0  0  0  0  0  0  0  0
  189.0680  174.9340  147.2600 C   0  0  0  0  0  2  0  0  0  0  0  0
  190.4220  175.5130  145.2440 C   0  0  2  0  0  3  0  0  0  0  0  0
  191.2050  175.0090  144.0290 C   0  0  2  0  0  3  0  0  0  0  0  0
  191.4390  173.6420  144.1140 F   0  0  0  0  0  0  0  0  0  0  0  0
  192.5020  175.7970  143.8340 C   0  0  1  0  0  0  0  0  0  0  0  0
  193.0500  175.9640  142.4700 C   0  0  0  0  0  2  0  0  0  0  0  0
  192.3070  176.9840  143.1070 O   0  0  0  0  0  0  0  0  0  0  0  0
  193.6720  177.1640  145.3970 O   0  0  0  0  0  0  0  0  0  0  0  0
  193.4320  175.9980  144.9820 C   0  0  0  0  0  0  0  0  0  0  0  0
  194.0110  174.8850  145.5990 O   0  0  0  0  0  0  0  0  0  0  0  0
  194.2360  172.4850  145.4400 C   0  0  0  0  0  1  0  0  0  0  0  0
  194.6240  173.8370  144.8600 C   0  0  0  0  0  2  0  0  0  0  0  0
  1  7  1  0  0  0  0
  2  5  1  0  0  0  0
  2  1  2  0  0  0  0
  4  2  1  0  0  0  0
  5  8  2  0  0  0  0
  7  3  2  0  0  0  0
  7 20  1  0  0  0  0
  8  6  1  0  0  0  0
  8  3  1  0  0  0  0
  9 10  1  0  0  0  0
  9  1  1  0  0  0  0
 11 12  1  0  0  0  0
 11 10  1  1  0  0  0
 12 15  1  1  0  0  0
 13 11  1  0  0  0  0
 14 18  1  0  0  0  0
 16 18  1  0  0  0  0
 16 19  2  0  0  0  0
 17 12  1  0  0  0  0
 18 13  2  0  0  0  0
 19 17  1  0  0  0  0
 20 24  1  0  0  0  0
 21 25  1  0  0  0  0
 22 25  1  0  0  0  0
 23 22  1  0  0  0  0
 24 26  1  0  0  0  0
 24 23  1  0  0  0  0
 26 27  1  6  0  0  0
 26 21  1  0  0  0  0
 27 28  1  1  0  0  0
 29 27  1  0  0  0  0
 29 33  1  1  0  0  0
 30 31  1  0  0  0  0
 30 29  1  0  0  0  0
 31 29  1  0  0  0  0
 33 32  2  0  0  0  0
 33 34  1  0  0  0  0
 36 35  1  0  0  0  0
 36 34  1  0  0  0  0
M  END
>  <MODEL>
7

>  <REMARK>
 VINA RESULT:      -6.7      2.640      3.425
  Name = 
  10 active torsions:
  status: ('A' for Active; 'I' for Inactive)
    1  A    between atoms: O_2  and  C_27
    2  A    between atoms: O_2  and  C_34
    3  A    between atoms: C_3  and  N_11
    4  A    between atoms: C_5  and  C_25
    5  A    between atoms: C_8  and  C_27
    6  A    between atoms: C_8  and  C_29
    7  A    between atoms: N_11  and  C_25
    8  A    between atoms: N_20  and  O_32
    9  A    between atoms: C_29  and  C_30
   10  A    between atoms: O_32  and  C_33
                            x       y       z     vdW  Elec       q    Type
                         _______ _______ _______ _____ _____    ______ ____

>  <TORSDO>
F 10

$$$$
=
 OpenBabel11042417573D

 36 39  0  0  1  0  0  0  0  0999 V2000
  190.7190  172.8020  143.2670 C   0  0  0  0  0  0  0  0  0  0  0  0
  190.6900  171.8220  142.2500 C   0  0  0  0  0  0  0  0  0  0  0  0
  189.3630  174.2570  141.8690 C   0  0  0  0  0  3  0  0  0  0  0  0
  191.3270  170.5970  142.4040 O   0  0  0  0  0  1  0  0  0  0  0  0
  190.0030  172.0720  141.0600 C   0  0  0  0  0  3  0  0  0  0  0  0
  188.6810  173.5230  139.7100 F   0  0  0  0  0  0  0  0  0  0  0  0
  190.0460  174.0180  143.0700 C   0  0  0  0  0  0  0  0  0  0  0  0
  189.3420  173.2860  140.8680 C   0  0  0  0  0  0  0  0  0  0  0  0
  191.4100  172.6110  144.5090 N   0  0  0  0  0  2  0  0  0  0  0  0
  192.8530  172.4840  144.6690 C   0  0  0  0  0  2  0  0  0  0  0  0
  193.5600  173.7740  144.2430 C   0  0  2  0  0  3  0  0  0  0  0  0
  194.9840  173.5500  143.7410 C   0  0  1  0  0  3  0  0  0  0  0  0
  193.5940  174.6900  145.3730 N   0  0  0  0  0  0  0  0  0  0  0  0
  193.9540  176.8040  146.8830 Cl  0  0  0  0  0  0  0  0  0  0  0  0
  195.1320  172.2580  142.9460 C   0  0  0  0  0  1  0  0  0  0  0  0
  194.6940  176.5350  144.2620 N   0  0  0  0  0  0  0  0  0  0  0  0
  195.3530  174.6540  142.8770 N   0  0  0  0  0  2  0  0  0  0  0  0
  194.0970  175.8850  145.3980 C   0  0  0  0  0  0  0  0  0  0  0  0
  195.2160  176.0460  143.1730 C   0  0  0  0  0  3  0  0  0  0  0  0
  190.0840  174.9870  144.0790 O   0  0  0  0  0  0  0  0  0  0  0  0
  189.9780  177.5450  145.3080 C   0  0  0  0  0  2  0  0  0  0  0  0
  190.4510  175.6160  146.8140 C   0  0  0  0  0  2  0  0  0  0  0  0
  189.2230  174.9100  146.2300 C   0  0  0  0  0  2  0  0  0  0  0  0
  188.9730  175.3120  144.8370 N   0  0  0  0  0  0  0  0  0  0  0  0
  190.2620  177.1240  146.7440 C   0  0  0  0  0  2  0  0  0  0  0  0
  188.7660  176.7680  144.7770 C   0  0  2  0  0  3  0  0  0  0  0  0
  188.3610  177.2120  143.3690 C   0  0  2  0  0  3  0  0  0  0  0  0
  189.0790  178.3320  142.9690 F   0  0  0  0  0  0  0  0  0  0  0  0
  186.8510  177.4390  143.2660 C   0  0  1  0  0  0  0  0  0  0  0  0
  186.2120  177.4690  141.9340 C   0  0  0  0  0  2  0  0  0  0  0  0
  186.1720  176.3200  142.7550 O   0  0  0  0  0  0  0  0  0  0  0  0
  186.3170  179.2720  144.6940 O   0  0  0  0  0  0  0  0  0  0  0  0
  186.1130  178.0630  144.4020 C   0  0  0  0  0  0  0  0  0  0  0  0
  185.1850  177.3000  145.1180 O   0  0  0  0  0  0  0  0  0  0  0  0
  186.3490  177.1770  147.2310 C   0  0  0  0  0  1  0  0  0  0  0  0
  185.0230  177.4200  146.5250 C   0  0  0  0  0  2  0  0  0  0  0  0
  1  9  1  0  0  0  0
  2  4  1  0  0  0  0
  2  1  2  0  0  0  0
  3  7  2  0  0  0  0
  5  2  1  0  0  0  0
  6  8  1  0  0  0  0
  7  1  1  0  0  0  0
  7 20  1  0  0  0  0
  8  5  2  0  0  0  0
  8  3  1  0  0  0  0
  9 10  1  0  0  0  0
 11 10  1  1  0  0  0
 11 13  1  0  0  0  0
 12 15  1  6  0  0  0
 12 11  1  0  0  0  0
 13 18  2  0  0  0  0
 16 18  1  0  0  0  0
 17 19  1  0  0  0  0
 17 12  1  0  0  0  0
 18 14  1  0  0  0  0
 19 16  2  0  0  0  0
 20 24  1  0  0  0  0
 21 25  1  0  0  0  0
 23 22  1  0  0  0  0
 24 23  1  0  0  0  0
 25 22  1  0  0  0  0
 26 27  1  6  0  0  0
 26 24  1  0  0  0  0
 26 21  1  0  0  0  0
 27 28  1  1  0  0  0
 29 27  1  0  0  0  0
 29 33  1  1  0  0  0
 30 31  1  0  0  0  0
 30 29  1  0  0  0  0
 31 29  1  0  0  0  0
 33 32  2  0  0  0  0
 33 34  1  0  0  0  0
 34 36  1  0  0  0  0
 36 35  1  0  0  0  0
M  END
>  <MODEL>
8

>  <REMARK>
 VINA RESULT:      -6.6      2.799      5.828
  Name = 
  10 active torsions:
  status: ('A' for Active; 'I' for Inactive)
    1  A    between atoms: O_2  and  C_27
    2  A    between atoms: O_2  and  C_34
    3  A    between atoms: C_3  and  N_11
    4  A    between atoms: C_5  and  C_25
    5  A    between atoms: C_8  and  C_27
    6  A    between atoms: C_8  and  C_29
    7  A    between atoms: N_11  and  C_25
    8  A    between atoms: N_20  and  O_32
    9  A    between atoms: C_29  and  C_30
   10  A    between atoms: O_32  and  C_33
                            x       y       z     vdW  Elec       q    Type
                         _______ _______ _______ _____ _____    ______ ____

>  <TORSDO>
F 10

$$$$
=
 OpenBabel11042417573D

 36 39  0  0  1  0  0  0  0  0999 V2000
  188.7030  175.4880  143.0520 C   0  0  0  0  0  0  0  0  0  0  0  0
  188.0020  175.3530  141.8320 C   0  0  0  0  0  0  0  0  0  0  0  0
  190.5800  174.2880  142.0780 C   0  0  0  0  0  3  0  0  0  0  0  0
  186.7260  175.8760  141.6660 O   0  0  0  0  0  1  0  0  0  0  0  0
  188.5970  174.6880  140.7560 C   0  0  0  0  0  3  0  0  0  0  0  0
  190.4480  173.5090  139.8330 F   0  0  0  0  0  0  0  0  0  0  0  0
  189.9970  174.9560  143.1650 C   0  0  0  0  0  0  0  0  0  0  0  0
  189.8810  174.1540  140.8790 C   0  0  0  0  0  0  0  0  0  0  0  0
  188.1480  176.1530  144.1940 N   0  0  0  0  0  2  0  0  0  0  0  0
  188.1050  177.5950  144.4030 C   0  0  0  0  0  2  0  0  0  0  0  0
  186.7140  178.0330  144.8680 C   0  0  2  0  0  3  0  0  0  0  0  0
  186.1370  177.1520  145.9730 C   0  0  1  0  0  3  0  0  0  0  0  0
  185.8090  178.0190  143.7290 N   0  0  0  0  0  0  0  0  0  0  0  0
  183.7000  178.2900  142.1930 Cl  0  0  0  0  0  0  0  0  0  0  0  0
  187.1950  176.6750  146.9600 C   0  0  0  0  0  1  0  0  0  0  0  0
  183.8320  178.8120  144.8750 N   0  0  0  0  0  0  0  0  0  0  0  0
  185.1470  177.9150  146.7090 N   0  0  0  0  0  2  0  0  0  0  0  0
  184.5510  178.3400  143.7230 C   0  0  0  0  0  0  0  0  0  0  0  0
  184.0660  178.6670  146.1490 C   0  0  0  0  0  3  0  0  0  0  0  0
  190.6830  175.0880  144.3770 O   0  0  0  0  0  0  0  0  0  0  0  0
  192.3150  174.7610  146.6780 C   0  0  0  0  0  2  0  0  0  0  0  0
  190.8690  176.7910  146.6300 C   0  0  0  0  0  2  0  0  0  0  0  0
  191.4270  177.1080  145.2390 C   0  0  0  0  0  2  0  0  0  0  0  0
  191.8060  175.8860  144.5110 N   0  0  0  0  0  0  0  0  0  0  0  0
  191.9010  176.0150  147.4360 C   0  0  0  0  0  2  0  0  0  0  0  0
  192.8220  175.1510  145.2830 C   0  0  2  0  0  3  0  0  0  0  0  0
  193.3490  173.9470  144.4970 C   0  0  2  0  0  3  0  0  0  0  0  0
  193.5940  172.8680  145.3370 F   0  0  0  0  0  0  0  0  0  0  0  0
  194.5830  174.3160  143.6710 C   0  0  1  0  0  0  0  0  0  0  0  0
  194.9570  173.4770  142.5130 C   0  0  0  0  0  2  0  0  0  0  0  0
  194.2580  174.6950  142.3570 O   0  0  0  0  0  0  0  0  0  0  0  0
  195.8930  176.3080  143.7190 O   0  0  0  0  0  0  0  0  0  0  0  0
  195.6360  175.1960  144.2560 C   0  0  0  0  0  0  0  0  0  0  0  0
  196.3110  174.7830  145.4080 O   0  0  0  0  0  0  0  0  0  0  0  0
  196.8180  172.4950  145.9930 C   0  0  0  0  0  1  0  0  0  0  0  0
  197.3290  173.7910  145.3820 C   0  0  0  0  0  2  0  0  0  0  0  0
  1  7  1  0  0  0  0
  1  9  1  0  0  0  0
  2  1  2  0  0  0  0
  3  7  2  0  0  0  0
  4  2  1  0  0  0  0
  5  8  2  0  0  0  0
  5  2  1  0  0  0  0
  6  8  1  0  0  0  0
  7 20  1  0  0  0  0
  8  3  1  0  0  0  0
  9 10  1  0  0  0  0
 11 10  1  6  0  0  0
 11 12  1  0  0  0  0
 12 17  1  0  0  0  0
 12 15  1  1  0  0  0
 13 11  1  0  0  0  0
 14 18  1  0  0  0  0
 16 19  2  0  0  0  0
 18 13  2  0  0  0  0
 18 16  1  0  0  0  0
 19 17  1  0  0  0  0
 20 24  1  0  0  0  0
 21 25  1  0  0  0  0
 22 25  1  0  0  0  0
 23 22  1  0  0  0  0
 24 23  1  0  0  0  0
 24 26  1  0  0  0  0
 26 27  1  6  0  0  0
 26 21  1  0  0  0  0
 27 28  1  1  0  0  0
 29 33  1  1  0  0  0
 29 27  1  0  0  0  0
 30 29  1  0  0  0  0
 31 30  1  0  0  0  0
 31 29  1  0  0  0  0
 32 33  2  0  0  0  0
 33 34  1  0  0  0  0
 36 34  1  0  0  0  0
 36 35  1  0  0  0  0
M  END
>  <MODEL>
9

>  <REMARK>
 VINA RESULT:      -6.6      3.285      6.385
  Name = 
  10 active torsions:
  status: ('A' for Active; 'I' for Inactive)
    1  A    between atoms: O_2  and  C_27
    2  A    between atoms: O_2  and  C_34
    3  A    between atoms: C_3  and  N_11
    4  A    between atoms: C_5  and  C_25
    5  A    between atoms: C_8  and  C_27
    6  A    between atoms: C_8  and  C_29
    7  A    between atoms: N_11  and  C_25
    8  A    between atoms: N_20  and  O_32
    9  A    between atoms: C_29  and  C_30
   10  A    between atoms: O_32  and  C_33
                            x       y       z     vdW  Elec       q    Type
                         _______ _______ _______ _____ _____    ______ ____

>  <TORSDO>
F 10

$$$$
