=
 OpenBabel11042413573D

 30 33  0  0  1  0  0  0  0  0999 V2000
  189.7280  174.0140  145.6340 O   0  0  0  0  0  0  0  0  0  0  0  0
  186.4770  178.3670  144.8400 N   0  0  0  0  0  0  0  0  0  0  0  0
  184.5960  178.6650  140.4150 N   0  0  0  0  0  1  0  0  0  0  0  0
  185.4910  178.0640  141.3420 C   0  0  0  0  0  0  0  0  0  0  0  0
  187.1770  176.4530  141.7990 C   0  0  0  0  0  0  0  0  0  0  0  0
  187.2430  176.8620  143.1430 C   0  0  0  0  0  0  0  0  0  0  0  0
  186.3110  177.0580  140.9400 N   0  0  0  0  0  0  0  0  0  0  0  0
  188.1560  175.1170  140.1010 O   0  0  0  0  0  0  0  0  0  0  0  0
  188.1190  176.2390  144.0660 C   0  0  0  0  0  0  0  0  0  0  0  0
  186.4180  177.9230  143.5620 C   0  0  0  0  0  0  0  0  0  0  0  0
  188.9890  174.8450  142.2260 O   0  0  0  0  0  0  0  0  0  0  0  0
  188.1080  175.4300  141.3200 C   0  0  0  0  0  0  0  0  0  0  0  0
  189.2010  174.8200  146.6400 C   0  0  0  0  0  0  0  0  0  0  0  0
  189.1160  176.3040  146.4750 C   0  0  2  0  0  3  0  0  0  0  0  0
  187.3250  177.8160  145.7430 C   0  0  0  0  0  3  0  0  0  0  0  0
  185.5360  178.5210  142.6610 C   0  0  0  0  0  3  0  0  0  0  0  0
  188.1600  176.7480  145.3980 C   0  0  0  0  0  0  0  0  0  0  0  0
  190.0530  174.5450  144.3590 C   0  0  0  0  0  2  0  0  0  0  0  0
  188.8130  174.2960  147.7160 O   0  0  0  0  0  0  0  0  0  0  0  0
  188.7750  174.9230  143.6350 C   0  0  1  0  0  3  0  0  0  0  0  0
  190.5030  176.9180  146.3040 C   0  0  0  0  0  2  0  0  0  0  0  0
  191.5900  176.4880  147.6980 S   0  0  0  0  0  0  0  0  0  0  0  0
  192.8300  175.7350  146.6090 C   0  0  0  0  0  2  0  0  0  0  0  0
  194.2310  176.8700  146.4100 S   0  0  0  0  0  0  0  0  0  0  0  0
  193.4220  176.2500  143.9740 O   0  0  0  0  0  0  0  0  0  0  0  0
  194.4420  176.4160  144.6960 C   0  0  0  0  0  0  0  0  0  0  0  0
  195.7690  176.2750  144.1690 N   0  0  0  0  0  0  0  0  0  0  0  0
  196.5170  175.2090  144.1900 C   0  0  0  0  0  3  0  0  0  0  0  0
  196.7440  173.7940  146.1300 N   0  0  0  0  0  1  0  0  0  0  0  0
  196.1200  173.9140  144.8230 C   0  0  0  0  0  2  0  0  0  0  0  0
  1 13  1  0  0  0  0
  2 15  1  0  0  0  0
  3  4  1  0  0  0  0
  4 16  2  0  0  0  0
  5  6  1  0  0  0  0
  6 10  1  0  0  0  0
  6  9  2  0  0  0  0
  7  4  1  0  0  0  0
  7  5  2  0  0  0  0
  8 12  2  0  0  0  0
  9 17  1  0  0  0  0
 10  2  2  0  0  0  0
 11 20  1  0  0  0  0
 12  5  1  0  0  0  0
 12 11  1  0  0  0  0
 13 19  2  0  0  0  0
 14 21  1  6  0  0  0
 14 13  1  0  0  0  0
 16 10  1  0  0  0  0
 17 15  2  0  0  0  0
 17 14  1  0  0  0  0
 18  1  1  0  0  0  0
 20  9  1  0  0  0  0
 20 18  1  1  0  0  0
 21 22  1  0  0  0  0
 23 22  1  0  0  0  0
 24 23  1  0  0  0  0
 25 26  2  0  0  0  0
 26 24  1  0  0  0  0
 27 28  2  0  0  0  0
 27 26  1  0  0  0  0
 28 30  1  0  0  0  0
 30 29  1  0  0  0  0
M  END
>  <MODEL>
1

>  <REMARK>
 VINA RESULT:      -7.0      0.000      0.000
  Name = 
  7 active torsions:
  status: ('A' for Active; 'I' for Inactive)
    1  A    between atoms: C_1  and  S_8
    2  A    between atoms: C_1  and  S_18
    3  A    between atoms: S_8  and  C_11
    4  A    between atoms: N_9  and  C_21
    5  A    between atoms: C_11  and  C_24
    6  A    between atoms: C_16  and  C_20
    7  A    between atoms: S_18  and  C_21
                            x       y       z     vdW  Elec       q    Type
                         _______ _______ _______ _____ _____    ______ ____

>  <TORSDO>
F 7

$$$$
=
 OpenBabel11042413573D

 30 33  0  0  1  0  0  0  0  0999 V2000
  188.3740  174.4650  141.1570 O   0  0  0  0  0  0  0  0  0  0  0  0
  188.2850  176.0550  146.4120 N   0  0  0  0  0  0  0  0  0  0  0  0
  184.3570  178.5440  147.6710 N   0  0  0  0  0  1  0  0  0  0  0  0
  185.1730  177.9380  146.6780 C   0  0  0  0  0  0  0  0  0  0  0  0
  185.5690  177.4420  144.3870 C   0  0  0  0  0  0  0  0  0  0  0  0
  186.7480  176.7470  144.7120 C   0  0  0  0  0  0  0  0  0  0  0  0
  184.8180  178.0150  145.3680 N   0  0  0  0  0  0  0  0  0  0  0  0
  184.2240  178.3210  142.6420 O   0  0  0  0  0  0  0  0  0  0  0  0
  187.5400  176.1230  143.7170 C   0  0  0  0  0  0  0  0  0  0  0  0
  187.1390  176.6870  146.0630 C   0  0  0  0  0  0  0  0  0  0  0  0
  186.0100  177.0240  142.0030 O   0  0  0  0  0  0  0  0  0  0  0  0
  185.2090  177.6120  142.9780 C   0  0  0  0  0  0  0  0  0  0  0  0
  189.2050  173.9750  142.1620 C   0  0  0  0  0  0  0  0  0  0  0  0
  189.7760  174.8840  143.2030 C   0  0  2  0  0  3  0  0  0  0  0  0
  189.0840  175.4740  145.4840 C   0  0  0  0  0  3  0  0  0  0  0  0
  186.3470  177.2780  147.0480 C   0  0  0  0  0  3  0  0  0  0  0  0
  188.7460  175.4820  144.1270 C   0  0  0  0  0  0  0  0  0  0  0  0
  187.9080  175.8040  141.1750 C   0  0  0  0  0  2  0  0  0  0  0  0
  189.5030  172.7530  142.1800 O   0  0  0  0  0  0  0  0  0  0  0  0
  186.9270  175.9770  142.3200 C   0  0  1  0  0  3  0  0  0  0  0  0
  190.6730  175.9460  142.5730 C   0  0  0  0  0  2  0  0  0  0  0  0
  192.4290  175.6120  142.9130 S   0  0  0  0  0  0  0  0  0  0  0  0
  192.4940  176.8480  144.2390 C   0  0  0  0  0  2  0  0  0  0  0  0
  192.7400  176.0160  145.8320 S   0  0  0  0  0  0  0  0  0  0  0  0
  194.8090  177.6310  146.1190 O   0  0  0  0  0  0  0  0  0  0  0  0
  194.4730  176.4430  145.8640 C   0  0  0  0  0  0  0  0  0  0  0  0
  195.4500  175.4200  145.6230 N   0  0  0  0  0  0  0  0  0  0  0  0
  196.1640  175.2490  144.5470 C   0  0  0  0  0  3  0  0  0  0  0  0
  197.2030  176.9870  143.2380 N   0  0  0  0  0  1  0  0  0  0  0  0
  196.0580  176.0980  143.3210 C   0  0  0  0  0  2  0  0  0  0  0  0
  1 18  1  0  0  0  0
  1 13  1  0  0  0  0
  4 16  1  0  0  0  0
  4  3  1  0  0  0  0
  5  6  2  0  0  0  0
  5  7  1  0  0  0  0
  6 10  1  0  0  0  0
  7  4  2  0  0  0  0
  8 12  2  0  0  0  0
  9 17  2  0  0  0  0
  9  6  1  0  0  0  0
 10  2  1  0  0  0  0
 10 16  2  0  0  0  0
 11 20  1  0  0  0  0
 11 12  1  0  0  0  0
 12  5  1  0  0  0  0
 13 19  2  0  0  0  0
 13 14  1  0  0  0  0
 14 21  1  6  0  0  0
 14 17  1  0  0  0  0
 15  2  2  0  0  0  0
 17 15  1  0  0  0  0
 20 18  1  6  0  0  0
 20  9  1  0  0  0  0
 21 22  1  0  0  0  0
 22 23  1  0  0  0  0
 23 24  1  0  0  0  0
 24 26  1  0  0  0  0
 26 25  2  0  0  0  0
 27 26  1  0  0  0  0
 28 27  2  0  0  0  0
 29 30  1  0  0  0  0
 30 28  1  0  0  0  0
M  END
>  <MODEL>
2

>  <REMARK>
 VINA RESULT:      -7.0      2.264      3.798
  Name = 
  7 active torsions:
  status: ('A' for Active; 'I' for Inactive)
    1  A    between atoms: C_1  and  S_8
    2  A    between atoms: C_1  and  S_18
    3  A    between atoms: S_8  and  C_11
    4  A    between atoms: N_9  and  C_21
    5  A    between atoms: C_11  and  C_24
    6  A    between atoms: C_16  and  C_20
    7  A    between atoms: S_18  and  C_21
                            x       y       z     vdW  Elec       q    Type
                         _______ _______ _______ _____ _____    ______ ____

>  <TORSDO>
F 7

$$$$
=
 OpenBabel11042413573D

 30 33  0  0  1  0  0  0  0  0999 V2000
  189.8390  177.9690  145.2910 O   0  0  0  0  0  0  0  0  0  0  0  0
  186.7390  177.6610  140.7690 N   0  0  0  0  0  0  0  0  0  0  0  0
  182.0690  178.5970  141.4910 N   0  0  0  0  0  1  0  0  0  0  0  0
  183.3760  178.3560  141.9950 C   0  0  0  0  0  0  0  0  0  0  0  0
  184.8300  178.1090  143.8600 C   0  0  0  0  0  0  0  0  0  0  0  0
  185.9300  177.8980  143.0100 C   0  0  0  0  0  0  0  0  0  0  0  0
  183.5920  178.3300  143.3370 N   0  0  0  0  0  0  0  0  0  0  0  0
  184.0390  178.0760  146.0960 O   0  0  0  0  0  0  0  0  0  0  0  0
  187.2340  177.6860  143.5220 C   0  0  0  0  0  0  0  0  0  0  0  0
  185.7110  177.8940  141.6190 C   0  0  0  0  0  0  0  0  0  0  0  0
  186.2970  177.7620  145.8040 O   0  0  0  0  0  0  0  0  0  0  0  0
  185.0190  178.0040  145.3080 C   0  0  0  0  0  0  0  0  0  0  0  0
  190.3200  177.9380  143.9840 C   0  0  0  0  0  0  0  0  0  0  0  0
  189.6990  177.0520  142.9530 C   0  0  2  0  0  3  0  0  0  0  0  0
  187.9940  177.4220  141.2240 C   0  0  0  0  0  3  0  0  0  0  0  0
  184.4330  178.1290  141.1110 C   0  0  0  0  0  3  0  0  0  0  0  0
  188.2840  177.4300  142.5920 C   0  0  0  0  0  0  0  0  0  0  0  0
  188.6480  177.2880  145.6520 C   0  0  0  0  0  2  0  0  0  0  0  0
  191.3110  178.6470  143.6710 O   0  0  0  0  0  0  0  0  0  0  0  0
  187.4620  177.9810  145.0080 C   0  0  1  0  0  3  0  0  0  0  0  0
  189.8220  175.5830  143.3440 C   0  0  0  0  0  2  0  0  0  0  0  0
  190.9080  174.6840  142.1930 S   0  0  0  0  0  0  0  0  0  0  0  0
  192.3580  174.8970  143.2630 C   0  0  0  0  0  2  0  0  0  0  0  0
  193.5630  175.9770  142.4410 S   0  0  0  0  0  0  0  0  0  0  0  0
  195.4000  174.6260  143.7730 O   0  0  0  0  0  0  0  0  0  0  0  0
  194.7720  175.7190  143.7290 C   0  0  0  0  0  0  0  0  0  0  0  0
  195.0240  176.7700  144.6730 N   0  0  0  0  0  0  0  0  0  0  0  0
  194.6030  176.8420  145.9040 C   0  0  0  0  0  3  0  0  0  0  0  0
  192.3950  176.3720  146.7510 N   0  0  0  0  0  1  0  0  0  0  0  0
  193.7250  175.8220  146.5550 C   0  0  0  0  0  2  0  0  0  0  0  0
  1 18  1  0  0  0  0
  2 15  2  0  0  0  0
  2 10  1  0  0  0  0
  3  4  1  0  0  0  0
  4  7  1  0  0  0  0
  5 12  1  0  0  0  0
  6  9  1  0  0  0  0
  6  5  1  0  0  0  0
  7  5  2  0  0  0  0
  9 20  1  0  0  0  0
 10  6  2  0  0  0  0
 12 11  1  0  0  0  0
 12  8  2  0  0  0  0
 13  1  1  0  0  0  0
 14 21  1  1  0  0  0
 14 13  1  0  0  0  0
 15 17  1  0  0  0  0
 16 10  1  0  0  0  0
 16  4  2  0  0  0  0
 17 14  1  0  0  0  0
 17  9  2  0  0  0  0
 19 13  2  0  0  0  0
 20 18  1  1  0  0  0
 20 11  1  0  0  0  0
 22 23  1  0  0  0  0
 22 21  1  0  0  0  0
 24 23  1  0  0  0  0
 24 26  1  0  0  0  0
 26 25  2  0  0  0  0
 26 27  1  0  0  0  0
 27 28  2  0  0  0  0
 28 30  1  0  0  0  0
 30 29  1  0  0  0  0
M  END
>  <MODEL>
3

>  <REMARK>
 VINA RESULT:      -6.9      2.736      3.942
  Name = 
  7 active torsions:
  status: ('A' for Active; 'I' for Inactive)
    1  A    between atoms: C_1  and  S_8
    2  A    between atoms: C_1  and  S_18
    3  A    between atoms: S_8  and  C_11
    4  A    between atoms: N_9  and  C_21
    5  A    between atoms: C_11  and  C_24
    6  A    between atoms: C_16  and  C_20
    7  A    between atoms: S_18  and  C_21
                            x       y       z     vdW  Elec       q    Type
                         _______ _______ _______ _____ _____    ______ ____

>  <TORSDO>
F 7

$$$$
=
 OpenBabel11042413573D

 30 33  0  0  1  0  0  0  0  0999 V2000
  190.8340  174.6150  142.9040 O   0  0  0  0  0  0  0  0  0  0  0  0
  187.6140  176.0230  147.1220 N   0  0  0  0  0  0  0  0  0  0  0  0
  183.7940  178.6930  145.9040 N   0  0  0  0  0  1  0  0  0  0  0  0
  185.0290  178.0750  145.5700 C   0  0  0  0  0  0  0  0  0  0  0  0
  186.7220  177.6380  143.9600 C   0  0  0  0  0  0  0  0  0  0  0  0
  187.4430  176.8640  144.8860 C   0  0  0  0  0  0  0  0  0  0  0  0
  185.5450  178.2190  144.3210 N   0  0  0  0  0  0  0  0  0  0  0  0
  186.7350  178.6540  141.8170 O   0  0  0  0  0  0  0  0  0  0  0  0
  188.6600  176.2290  144.5360 C   0  0  0  0  0  0  0  0  0  0  0  0
  186.9310  176.7330  146.1920 C   0  0  0  0  0  0  0  0  0  0  0  0
  188.5090  177.2770  142.3080 O   0  0  0  0  0  0  0  0  0  0  0  0
  187.2960  177.8770  142.6340 C   0  0  0  0  0  0  0  0  0  0  0  0
  190.8720  174.0420  144.1730 C   0  0  0  0  0  0  0  0  0  0  0  0
  190.7170  174.8790  145.4020 C   0  0  2  0  0  3  0  0  0  0  0  0
  188.7970  175.4290  146.8320 C   0  0  0  0  0  3  0  0  0  0  0  0
  185.7190  177.3350  146.5320 C   0  0  0  0  0  3  0  0  0  0  0  0
  189.3530  175.5040  145.5510 C   0  0  0  0  0  0  0  0  0  0  0  0
  190.4870  175.9780  142.7210 C   0  0  0  0  0  2  0  0  0  0  0  0
  191.0660  172.8050  144.2900 O   0  0  0  0  0  0  0  0  0  0  0  0
  189.0180  176.1680  143.0480 C   0  0  1  0  0  3  0  0  0  0  0  0
  191.8380  175.9080  145.5120 C   0  0  0  0  0  2  0  0  0  0  0  0
  193.3750  175.1450  146.1170 S   0  0  0  0  0  0  0  0  0  0  0  0
  194.4150  176.3020  145.1840 C   0  0  0  0  0  2  0  0  0  0  0  0
  194.3240  175.9070  143.4150 S   0  0  0  0  0  0  0  0  0  0  0  0
  196.7690  176.9050  143.4190 O   0  0  0  0  0  0  0  0  0  0  0  0
  196.1030  175.8450  143.2690 C   0  0  0  0  0  0  0  0  0  0  0  0
  196.7400  174.5860  143.0080 N   0  0  0  0  0  0  0  0  0  0  0  0
  197.2550  173.7670  143.8800 C   0  0  0  0  0  3  0  0  0  0  0  0
  196.9600  172.8140  146.0760 N   0  0  0  0  0  1  0  0  0  0  0  0
  197.3050  174.0260  145.3520 C   0  0  0  0  0  2  0  0  0  0  0  0
  1 13  1  0  0  0  0
  4  3  1  0  0  0  0
  4 16  2  0  0  0  0
  5  7  2  0  0  0  0
  5  6  1  0  0  0  0
  6 10  1  0  0  0  0
  7  4  1  0  0  0  0
  8 12  2  0  0  0  0
  9  6  2  0  0  0  0
  9 17  1  0  0  0  0
 10 16  1  0  0  0  0
 10  2  2  0  0  0  0
 11 12  1  0  0  0  0
 11 20  1  0  0  0  0
 12  5  1  0  0  0  0
 13 19  2  0  0  0  0
 13 14  1  0  0  0  0
 14 21  1  6  0  0  0
 14 17  1  0  0  0  0
 15  2  1  0  0  0  0
 17 15  2  0  0  0  0
 18  1  1  0  0  0  0
 20 18  1  1  0  0  0
 20  9  1  0  0  0  0
 21 22  1  0  0  0  0
 23 22  1  0  0  0  0
 24 23  1  0  0  0  0
 26 24  1  0  0  0  0
 26 25  2  0  0  0  0
 27 26  1  0  0  0  0
 27 28  2  0  0  0  0
 28 30  1  0  0  0  0
 30 29  1  0  0  0  0
M  END
>  <MODEL>
4

>  <REMARK>
 VINA RESULT:      -6.7      2.082      2.925
  Name = 
  7 active torsions:
  status: ('A' for Active; 'I' for Inactive)
    1  A    between atoms: C_1  and  S_8
    2  A    between atoms: C_1  and  S_18
    3  A    between atoms: S_8  and  C_11
    4  A    between atoms: N_9  and  C_21
    5  A    between atoms: C_11  and  C_24
    6  A    between atoms: C_16  and  C_20
    7  A    between atoms: S_18  and  C_21
                            x       y       z     vdW  Elec       q    Type
                         _______ _______ _______ _____ _____    ______ ____

>  <TORSDO>
F 7

$$$$
=
 OpenBabel11042413573D

 30 33  0  0  1  0  0  0  0  0999 V2000
  189.9130  177.9080  145.3710 O   0  0  0  0  0  0  0  0  0  0  0  0
  186.8700  177.6710  140.8070 N   0  0  0  0  0  0  0  0  0  0  0  0
  182.1890  178.5840  141.4880 N   0  0  0  0  0  1  0  0  0  0  0  0
  183.4900  178.3370  142.0040 C   0  0  0  0  0  0  0  0  0  0  0  0
  184.9210  178.0620  143.8810 C   0  0  0  0  0  0  0  0  0  0  0  0
  186.0330  177.8680  143.0420 C   0  0  0  0  0  0  0  0  0  0  0  0
  183.6900  178.2890  143.3480 N   0  0  0  0  0  0  0  0  0  0  0  0
  184.1040  177.9880  146.1070 O   0  0  0  0  0  0  0  0  0  0  0  0
  187.3300  177.6500  143.5660 C   0  0  0  0  0  0  0  0  0  0  0  0
  185.8310  177.8870  141.6480 C   0  0  0  0  0  0  0  0  0  0  0  0
  186.3660  177.6840  145.8370 O   0  0  0  0  0  0  0  0  0  0  0  0
  185.0930  177.9320  145.3300 C   0  0  0  0  0  0  0  0  0  0  0  0
  190.4110  177.9020  144.0700 C   0  0  0  0  0  0  0  0  0  0  0  0
  189.8040  177.0320  143.0160 C   0  0  2  0  0  3  0  0  0  0  0  0
  188.1200  177.4280  141.2730 C   0  0  0  0  0  3  0  0  0  0  0  0
  184.5580  178.1280  141.1290 C   0  0  0  0  0  3  0  0  0  0  0  0
  188.3930  177.4120  142.6450 C   0  0  0  0  0  0  0  0  0  0  0  0
  188.7200  177.2190  145.7060 C   0  0  0  0  0  2  0  0  0  0  0  0
  191.4030  178.6180  143.7820 O   0  0  0  0  0  0  0  0  0  0  0  0
  187.5400  177.9200  145.0600 C   0  0  1  0  0  3  0  0  0  0  0  0
  189.9260  175.5560  143.3830 C   0  0  0  0  0  2  0  0  0  0  0  0
  191.3650  174.7930  142.5710 S   0  0  0  0  0  0  0  0  0  0  0  0
  192.3300  174.7780  144.1080 C   0  0  0  0  0  2  0  0  0  0  0  0
  194.0250  174.2410  143.7530 S   0  0  0  0  0  0  0  0  0  0  0  0
  193.9210  176.7290  144.6310 O   0  0  0  0  0  0  0  0  0  0  0  0
  194.6940  175.8400  144.1830 C   0  0  0  0  0  0  0  0  0  0  0  0
  196.1020  176.0720  144.0340 N   0  0  0  0  0  0  0  0  0  0  0  0
  196.7280  176.4620  142.9600 C   0  0  0  0  0  3  0  0  0  0  0  0
  196.8070  176.0380  140.5870 N   0  0  0  0  0  1  0  0  0  0  0  0
  196.0660  176.7080  141.6420 C   0  0  0  0  0  2  0  0  0  0  0  0
  1 18  1  0  0  0  0
  2 15  2  0  0  0  0
  2 10  1  0  0  0  0
  3  4  1  0  0  0  0
  4  7  1  0  0  0  0
  5 12  1  0  0  0  0
  6  9  1  0  0  0  0
  6  5  1  0  0  0  0
  7  5  2  0  0  0  0
  9 20  1  0  0  0  0
 10  6  2  0  0  0  0
 12 11  1  0  0  0  0
 12  8  2  0  0  0  0
 13  1  1  0  0  0  0
 14 21  1  1  0  0  0
 14 13  1  0  0  0  0
 15 17  1  0  0  0  0
 16 10  1  0  0  0  0
 16  4  2  0  0  0  0
 17 14  1  0  0  0  0
 17  9  2  0  0  0  0
 19 13  2  0  0  0  0
 20 18  1  1  0  0  0
 20 11  1  0  0  0  0
 22 21  1  0  0  0  0
 22 23  1  0  0  0  0
 24 23  1  0  0  0  0
 24 26  1  0  0  0  0
 26 25  2  0  0  0  0
 27 26  1  0  0  0  0
 28 27  2  0  0  0  0
 29 30  1  0  0  0  0
 30 28  1  0  0  0  0
M  END
>  <MODEL>
5

>  <REMARK>
 VINA RESULT:      -6.7      2.629      3.857
  Name = 
  7 active torsions:
  status: ('A' for Active; 'I' for Inactive)
    1  A    between atoms: C_1  and  S_8
    2  A    between atoms: C_1  and  S_18
    3  A    between atoms: S_8  and  C_11
    4  A    between atoms: N_9  and  C_21
    5  A    between atoms: C_11  and  C_24
    6  A    between atoms: C_16  and  C_20
    7  A    between atoms: S_18  and  C_21
                            x       y       z     vdW  Elec       q    Type
                         _______ _______ _______ _____ _____    ______ ____

>  <TORSDO>
F 7

$$$$
=
 OpenBabel11042413573D

 30 33  0  0  1  0  0  0  0  0999 V2000
  188.7240  174.1440  141.3390 O   0  0  0  0  0  0  0  0  0  0  0  0
  188.3920  176.0100  146.4920 N   0  0  0  0  0  0  0  0  0  0  0  0
  184.4110  178.5550  147.4340 N   0  0  0  0  0  1  0  0  0  0  0  0
  185.2720  177.8990  146.5130 C   0  0  0  0  0  0  0  0  0  0  0  0
  185.7740  177.2830  144.2730 C   0  0  0  0  0  0  0  0  0  0  0  0
  186.9350  176.6090  144.6880 C   0  0  0  0  0  0  0  0  0  0  0  0
  184.9780  177.9060  145.1860 N   0  0  0  0  0  0  0  0  0  0  0  0
  184.5120  178.0660  142.4230 O   0  0  0  0  0  0  0  0  0  0  0  0
  187.7730  175.9340  143.7660 C   0  0  0  0  0  0  0  0  0  0  0  0
  187.2630  176.6210  146.0580 C   0  0  0  0  0  0  0  0  0  0  0  0
  186.3250  176.7400  141.9370 O   0  0  0  0  0  0  0  0  0  0  0  0
  185.4800  177.3770  142.8410 C   0  0  0  0  0  0  0  0  0  0  0  0
  189.5080  173.7100  142.4060 C   0  0  0  0  0  0  0  0  0  0  0  0
  190.0300  174.6740  143.4220 C   0  0  2  0  0  3  0  0  0  0  0  0
  189.2330  175.3820  145.6350 C   0  0  0  0  0  3  0  0  0  0  0  0
  186.4260  177.2610  146.9720 C   0  0  0  0  0  3  0  0  0  0  0  0
  188.9580  175.3180  144.2640 C   0  0  0  0  0  0  0  0  0  0  0  0
  188.2590  175.4820  141.2650 C   0  0  0  0  0  2  0  0  0  0  0  0
  189.8040  172.4920  142.5020 O   0  0  0  0  0  0  0  0  0  0  0  0
  187.2260  175.7130  142.3510 C   0  0  1  0  0  3  0  0  0  0  0  0
  190.9550  175.7030  142.7800 C   0  0  0  0  0  2  0  0  0  0  0  0
  192.2770  174.8950  141.8260 S   0  0  0  0  0  0  0  0  0  0  0  0
  193.5630  175.9450  142.5580 C   0  0  0  0  0  2  0  0  0  0  0  0
  195.1880  175.1830  142.2970 S   0  0  0  0  0  0  0  0  0  0  0  0
  196.3700  177.0340  143.7650 O   0  0  0  0  0  0  0  0  0  0  0  0
  195.8370  175.8920  143.8030 C   0  0  0  0  0  0  0  0  0  0  0  0
  195.7160  175.1580  145.0300 N   0  0  0  0  0  0  0  0  0  0  0  0
  194.9960  175.4720  146.0690 C   0  0  0  0  0  3  0  0  0  0  0  0
  192.7610  176.3780  146.0880 N   0  0  0  0  0  1  0  0  0  0  0  0
  194.1720  176.7140  146.1790 C   0  0  0  0  0  2  0  0  0  0  0  0
  1 13  1  0  0  0  0
  4 16  1  0  0  0  0
  4  3  1  0  0  0  0
  5  6  2  0  0  0  0
  5  7  1  0  0  0  0
  6 10  1  0  0  0  0
  7  4  2  0  0  0  0
  8 12  2  0  0  0  0
  9 17  2  0  0  0  0
  9  6  1  0  0  0  0
 10  2  1  0  0  0  0
 10 16  2  0  0  0  0
 11 20  1  0  0  0  0
 11 12  1  0  0  0  0
 12  5  1  0  0  0  0
 13 19  2  0  0  0  0
 13 14  1  0  0  0  0
 14 21  1  6  0  0  0
 14 17  1  0  0  0  0
 15  2  2  0  0  0  0
 17 15  1  0  0  0  0
 18  1  1  0  0  0  0
 20 18  1  6  0  0  0
 20  9  1  0  0  0  0
 22 23  1  0  0  0  0
 22 21  1  0  0  0  0
 24 23  1  0  0  0  0
 24 26  1  0  0  0  0
 25 26  2  0  0  0  0
 26 27  1  0  0  0  0
 27 28  2  0  0  0  0
 28 30  1  0  0  0  0
 29 30  1  0  0  0  0
M  END
>  <MODEL>
6

>  <REMARK>
 VINA RESULT:      -6.7      2.576      3.922
  Name = 
  7 active torsions:
  status: ('A' for Active; 'I' for Inactive)
    1  A    between atoms: C_1  and  S_8
    2  A    between atoms: C_1  and  S_18
    3  A    between atoms: S_8  and  C_11
    4  A    between atoms: N_9  and  C_21
    5  A    between atoms: C_11  and  C_24
    6  A    between atoms: C_16  and  C_20
    7  A    between atoms: S_18  and  C_21
                            x       y       z     vdW  Elec       q    Type
                         _______ _______ _______ _____ _____    ______ ____

>  <TORSDO>
F 7

$$$$
=
 OpenBabel11042413573D

 30 33  0  0  1  0  0  0  0  0999 V2000
  190.0080  177.8280  145.6800 O   0  0  0  0  0  0  0  0  0  0  0  0
  187.0100  177.3560  141.1040 N   0  0  0  0  0  0  0  0  0  0  0  0
  182.3720  178.5450  141.6340 N   0  0  0  0  0  1  0  0  0  0  0  0
  183.6530  178.2800  142.1890 C   0  0  0  0  0  0  0  0  0  0  0  0
  185.0470  178.0950  144.1050 C   0  0  0  0  0  0  0  0  0  0  0  0
  186.1570  177.7790  143.3020 C   0  0  0  0  0  0  0  0  0  0  0  0
  183.8350  178.3350  143.5350 N   0  0  0  0  0  0  0  0  0  0  0  0
  184.2020  178.2460  146.3160 O   0  0  0  0  0  0  0  0  0  0  0  0
  187.4370  177.5430  143.8620 C   0  0  0  0  0  0  0  0  0  0  0  0
  185.9730  177.6910  141.9080 C   0  0  0  0  0  0  0  0  0  0  0  0
  186.4490  177.8130  146.1070 O   0  0  0  0  0  0  0  0  0  0  0  0
  185.1960  178.0780  145.5620 C   0  0  0  0  0  0  0  0  0  0  0  0
  190.5200  177.6890  144.3920 C   0  0  0  0  0  0  0  0  0  0  0  0
  189.8840  176.7640  143.4040 C   0  0  2  0  0  3  0  0  0  0  0  0
  188.2410  177.0930  141.6080 C   0  0  0  0  0  3  0  0  0  0  0  0
  184.7200  177.9480  141.3510 C   0  0  0  0  0  3  0  0  0  0  0  0
  188.4970  177.1790  142.9810 C   0  0  0  0  0  0  0  0  0  0  0  0
  188.7790  177.2270  146.0520 C   0  0  0  0  0  2  0  0  0  0  0  0
  191.5500  178.3310  144.0600 O   0  0  0  0  0  0  0  0  0  0  0  0
  187.6420  177.9270  145.3320 C   0  0  1  0  0  3  0  0  0  0  0  0
  189.9290  175.3200  143.8940 C   0  0  0  0  0  2  0  0  0  0  0  0
  191.6080  174.8570  144.4230 S   0  0  0  0  0  0  0  0  0  0  0  0
  191.3790  173.1280  143.9220 C   0  0  0  0  0  2  0  0  0  0  0  0
  189.7270  172.5680  144.4180 S   0  0  0  0  0  0  0  0  0  0  0  0
  190.0420  170.9190  142.3800 O   0  0  0  0  0  0  0  0  0  0  0  0
  189.3870  171.9140  142.7910 C   0  0  0  0  0  0  0  0  0  0  0  0
  188.3570  172.5190  141.9960 N   0  0  0  0  0  0  0  0  0  0  0  0
  188.5120  173.3450  141.0000 C   0  0  0  0  0  3  0  0  0  0  0  0
  190.2910  173.0480  139.4000 N   0  0  0  0  0  1  0  0  0  0  0  0
  189.8360  173.8490  140.5230 C   0  0  0  0  0  2  0  0  0  0  0  0
  1 18  1  0  0  0  0
  2 15  2  0  0  0  0
  2 10  1  0  0  0  0
  3  4  1  0  0  0  0
  4  7  1  0  0  0  0
  5 12  1  0  0  0  0
  6  9  1  0  0  0  0
  6  5  1  0  0  0  0
  7  5  2  0  0  0  0
  9 20  1  0  0  0  0
 10  6  2  0  0  0  0
 12 11  1  0  0  0  0
 12  8  2  0  0  0  0
 13  1  1  0  0  0  0
 14 21  1  1  0  0  0
 14 13  1  0  0  0  0
 15 17  1  0  0  0  0
 16 10  1  0  0  0  0
 16  4  2  0  0  0  0
 17 14  1  0  0  0  0
 17  9  2  0  0  0  0
 19 13  2  0  0  0  0
 20 18  1  1  0  0  0
 20 11  1  0  0  0  0
 21 22  1  0  0  0  0
 23 24  1  0  0  0  0
 23 22  1  0  0  0  0
 25 26  2  0  0  0  0
 26 24  1  0  0  0  0
 27 26  1  0  0  0  0
 28 27  2  0  0  0  0
 29 30  1  0  0  0  0
 30 28  1  0  0  0  0
M  END
>  <MODEL>
7

>  <REMARK>
 VINA RESULT:      -6.7      3.597      5.122
  Name = 
  7 active torsions:
  status: ('A' for Active; 'I' for Inactive)
    1  A    between atoms: C_1  and  S_8
    2  A    between atoms: C_1  and  S_18
    3  A    between atoms: S_8  and  C_11
    4  A    between atoms: N_9  and  C_21
    5  A    between atoms: C_11  and  C_24
    6  A    between atoms: C_16  and  C_20
    7  A    between atoms: S_18  and  C_21
                            x       y       z     vdW  Elec       q    Type
                         _______ _______ _______ _____ _____    ______ ____

>  <TORSDO>
F 7

$$$$
=
 OpenBabel11042413573D

 30 33  0  0  1  0  0  0  0  0999 V2000
  190.3810  174.1610  143.0090 O   0  0  0  0  0  0  0  0  0  0  0  0
  187.4470  176.2630  147.1470 N   0  0  0  0  0  0  0  0  0  0  0  0
  183.6910  178.9440  145.7630 N   0  0  0  0  0  1  0  0  0  0  0  0
  184.8800  178.2260  145.4580 C   0  0  0  0  0  0  0  0  0  0  0  0
  186.4660  177.4990  143.8440 C   0  0  0  0  0  0  0  0  0  0  0  0
  187.1990  176.8160  144.8300 C   0  0  0  0  0  0  0  0  0  0  0  0
  185.3370  178.1810  144.1780 N   0  0  0  0  0  0  0  0  0  0  0  0
  186.4150  178.2300  141.5880 O   0  0  0  0  0  0  0  0  0  0  0  0
  188.3670  176.0810  144.5120 C   0  0  0  0  0  0  0  0  0  0  0  0
  186.7500  176.8810  146.1640 C   0  0  0  0  0  0  0  0  0  0  0  0
  188.1490  176.8390  142.1750 O   0  0  0  0  0  0  0  0  0  0  0  0
  186.9820  177.5370  142.4740 C   0  0  0  0  0  0  0  0  0  0  0  0
  190.4580  173.7560  144.3400 C   0  0  0  0  0  0  0  0  0  0  0  0
  190.4040  174.7510  145.4540 C   0  0  2  0  0  3  0  0  0  0  0  0
  188.5860  175.5770  146.8850 C   0  0  0  0  0  3  0  0  0  0  0  0
  185.5850  177.5820  146.4760 C   0  0  0  0  0  3  0  0  0  0  0  0
  189.0780  175.4580  145.5800 C   0  0  0  0  0  0  0  0  0  0  0  0
  190.0860  175.5060  142.6650 C   0  0  0  0  0  2  0  0  0  0  0  0
  190.6040  172.5360  144.6090 O   0  0  0  0  0  0  0  0  0  0  0  0
  188.6460  175.8100  143.0300 C   0  0  1  0  0  3  0  0  0  0  0  0
  191.5740  175.7280  145.3770 C   0  0  0  0  0  2  0  0  0  0  0  0
  192.3340  175.9740  147.0120 S   0  0  0  0  0  0  0  0  0  0  0  0
  193.9840  176.2270  146.2990 C   0  0  0  0  0  2  0  0  0  0  0  0
  193.9030  176.0230  144.4980 S   0  0  0  0  0  0  0  0  0  0  0  0
  196.2480  174.9280  145.0240 O   0  0  0  0  0  0  0  0  0  0  0  0
  195.6750  175.8430  144.3730 C   0  0  0  0  0  0  0  0  0  0  0  0
  196.4090  176.7270  143.5130 N   0  0  0  0  0  0  0  0  0  0  0  0
  196.7130  176.5380  142.2600 C   0  0  0  0  0  3  0  0  0  0  0  0
  195.9780  175.6660  140.1360 N   0  0  0  0  0  1  0  0  0  0  0  0
  196.3690  175.3050  141.4870 C   0  0  0  0  0  2  0  0  0  0  0  0
  1 13  1  0  0  0  0
  4  3  1  0  0  0  0
  4 16  2  0  0  0  0
  5  7  2  0  0  0  0
  5  6  1  0  0  0  0
  6 10  1  0  0  0  0
  7  4  1  0  0  0  0
  8 12  2  0  0  0  0
  9  6  2  0  0  0  0
  9 17  1  0  0  0  0
 10 16  1  0  0  0  0
 10  2  2  0  0  0  0
 11 12  1  0  0  0  0
 11 20  1  0  0  0  0
 12  5  1  0  0  0  0
 13 19  2  0  0  0  0
 13 14  1  0  0  0  0
 14 21  1  6  0  0  0
 14 17  1  0  0  0  0
 15  2  1  0  0  0  0
 17 15  2  0  0  0  0
 18  1  1  0  0  0  0
 20 18  1  1  0  0  0
 20  9  1  0  0  0  0
 21 22  1  0  0  0  0
 23 22  1  0  0  0  0
 24 23  1  0  0  0  0
 26 24  1  0  0  0  0
 26 25  2  0  0  0  0
 27 26  1  0  0  0  0
 28 27  2  0  0  0  0
 29 30  1  0  0  0  0
 30 28  1  0  0  0  0
M  END
>  <MODEL>
8

>  <REMARK>
 VINA RESULT:      -6.6      2.043      2.969
  Name = 
  7 active torsions:
  status: ('A' for Active; 'I' for Inactive)
    1  A    between atoms: C_1  and  S_8
    2  A    between atoms: C_1  and  S_18
    3  A    between atoms: S_8  and  C_11
    4  A    between atoms: N_9  and  C_21
    5  A    between atoms: C_11  and  C_24
    6  A    between atoms: C_16  and  C_20
    7  A    between atoms: S_18  and  C_21
                            x       y       z     vdW  Elec       q    Type
                         _______ _______ _______ _____ _____    ______ ____

>  <TORSDO>
F 7

$$$$
=
 OpenBabel11042413573D

 30 33  0  0  1  0  0  0  0  0999 V2000
  190.5190  176.1180  146.8580 O   0  0  0  0  0  0  0  0  0  0  0  0
  188.2170  176.6680  141.9030 N   0  0  0  0  0  0  0  0  0  0  0  0
  183.6820  178.2910  141.9850 N   0  0  0  0  0  1  0  0  0  0  0  0
  184.8350  177.8030  142.6590 C   0  0  0  0  0  0  0  0  0  0  0  0
  185.9000  177.1810  144.6900 C   0  0  0  0  0  0  0  0  0  0  0  0
  187.0850  176.8600  144.0040 C   0  0  0  0  0  0  0  0  0  0  0  0
  184.8150  177.6390  144.0080 N   0  0  0  0  0  0  0  0  0  0  0  0
  184.7470  177.1030  146.7610 O   0  0  0  0  0  0  0  0  0  0  0  0
  188.2370  176.4000  144.6870 C   0  0  0  0  0  0  0  0  0  0  0  0
  187.1060  176.9990  142.6030 C   0  0  0  0  0  0  0  0  0  0  0  0
  186.9500  176.4500  146.7920 O   0  0  0  0  0  0  0  0  0  0  0  0
  185.8240  176.9340  146.1320 C   0  0  0  0  0  0  0  0  0  0  0  0
  191.2040  176.1120  145.6450 C   0  0  0  0  0  0  0  0  0  0  0  0
  190.6420  175.4210  144.4440 C   0  0  2  0  0  3  0  0  0  0  0  0
  189.3280  176.1950  142.5200 C   0  0  0  0  0  3  0  0  0  0  0  0
  185.9810  177.4770  141.9300 C   0  0  0  0  0  3  0  0  0  0  0  0
  189.3800  176.0490  143.9100 C   0  0  0  0  0  0  0  0  0  0  0  0
  189.1970  175.6150  146.9590 C   0  0  0  0  0  2  0  0  0  0  0  0
  192.3270  176.6720  145.5640 O   0  0  0  0  0  0  0  0  0  0  0  0
  188.2520  176.5380  146.2130 C   0  0  1  0  0  3  0  0  0  0  0  0
  190.4790  173.9250  144.6970 C   0  0  0  0  0  2  0  0  0  0  0  0
  191.9620  173.0050  144.1810 S   0  0  0  0  0  0  0  0  0  0  0  0
  190.9790  171.6770  143.4290 C   0  0  0  0  0  2  0  0  0  0  0  0
  191.4880  171.4500  141.7030 S   0  0  0  0  0  0  0  0  0  0  0  0
  191.1770  173.8070  140.5520 O   0  0  0  0  0  0  0  0  0  0  0  0
  190.5740  172.8910  141.1740 C   0  0  0  0  0  0  0  0  0  0  0  0
  189.1670  172.9650  141.4450 N   0  0  0  0  0  0  0  0  0  0  0  0
  188.1920  172.8570  140.5890 C   0  0  0  0  0  3  0  0  0  0  0  0
  188.2440  173.9430  138.4360 N   0  0  0  0  0  1  0  0  0  0  0  0
  188.3790  172.6670  139.1180 C   0  0  0  0  0  2  0  0  0  0  0  0
  1 18  1  0  0  0  0
  2 15  2  0  0  0  0
  2 10  1  0  0  0  0
  3  4  1  0  0  0  0
  4  7  1  0  0  0  0
  5 12  1  0  0  0  0
  6  9  1  0  0  0  0
  6  5  1  0  0  0  0
  7  5  2  0  0  0  0
  9 20  1  0  0  0  0
 10  6  2  0  0  0  0
 12  8  2  0  0  0  0
 12 11  1  0  0  0  0
 13  1  1  0  0  0  0
 14 21  1  1  0  0  0
 14 13  1  0  0  0  0
 15 17  1  0  0  0  0
 16 10  1  0  0  0  0
 16  4  2  0  0  0  0
 17 14  1  0  0  0  0
 17  9  2  0  0  0  0
 19 13  2  0  0  0  0
 20 11  1  0  0  0  0
 20 18  1  1  0  0  0
 22 21  1  0  0  0  0
 23 22  1  0  0  0  0
 24 23  1  0  0  0  0
 25 26  2  0  0  0  0
 26 27  1  0  0  0  0
 26 24  1  0  0  0  0
 28 27  2  0  0  0  0
 29 30  1  0  0  0  0
 30 28  1  0  0  0  0
M  END
>  <MODEL>
9

>  <REMARK>
 VINA RESULT:      -6.5      3.340      5.201
  Name = 
  7 active torsions:
  status: ('A' for Active; 'I' for Inactive)
    1  A    between atoms: C_1  and  S_8
    2  A    between atoms: C_1  and  S_18
    3  A    between atoms: S_8  and  C_11
    4  A    between atoms: N_9  and  C_21
    5  A    between atoms: C_11  and  C_24
    6  A    between atoms: C_16  and  C_20
    7  A    between atoms: S_18  and  C_21
                            x       y       z     vdW  Elec       q    Type
                         _______ _______ _______ _____ _____    ______ ____

>  <TORSDO>
F 7

$$$$
