=
 OpenBabel11042417463D

 48 52  0  0  1  0  0  0  0  0999 V2000
  193.3320  174.9240  144.4730 C   0  0  0  0  0  0  0  0  0  0  0  0
  192.6930  174.0030  143.4240 C   0  0  2  0  0  3  0  0  0  0  0  0
  188.5250  177.1290  143.3810 C   0  0  1  0  0  3  0  0  0  0  0  0
  190.1700  174.3190  143.7490 C   0  0  2  0  0  3  0  0  0  0  0  0
  189.0920  176.3950  144.6100 C   0  0  0  0  0  2  0  0  0  0  0  0
  190.2930  171.6070  144.6480 O   0  0  0  0  0  0  0  0  0  0  0  0
  188.6600  176.3500  142.0640 C   0  0  0  0  0  2  0  0  0  0  0  0
  192.5730  175.5390  145.5110 C   0  0  0  0  0  0  0  0  0  0  0  0
  191.1750  175.6000  145.5180 O   0  0  0  0  0  0  0  0  0  0  0  0
  194.5830  176.3220  146.5350 N   0  0  0  0  0  0  0  0  0  0  0  0
  191.3340  172.1400  144.1750 C   0  0  0  0  0  0  0  0  0  0  0  0
  189.6800  174.3930  142.3040 C   0  0  0  0  0  2  0  0  0  0  0  0
  190.4200  175.7070  144.3210 C   0  0  1  0  0  3  0  0  0  0  0  0
  194.7200  175.2160  144.4140 C   0  0  0  0  0  0  0  0  0  0  0  0
  195.3210  175.8920  145.4840 C   0  0  0  0  0  3  0  0  0  0  0  0
  193.2370  176.1770  146.5580 C   0  0  0  0  0  3  0  0  0  0  0  0
  188.4110  174.9870  142.2540 O   0  0  0  0  0  0  0  0  0  0  0  0
  192.5880  171.3790  143.9790 C   0  0  2  0  0  3  0  0  0  0  0  0
  191.3810  173.5170  143.8350 N   0  0  0  0  0  0  0  0  0  0  0  0
  193.7230  172.5070  143.1100 S   0  0  0  0  0  0  0  0  0  0  0  0
  187.1100  177.5950  143.5810 C   0  0  0  0  0  0  0  0  0  0  0  0
  184.9670  176.9740  142.5010 C   0  0  0  0  0  3  0  0  0  0  0  0
  186.9140  178.8740  143.9130 C   0  0  0  0  0  3  0  0  0  0  0  0
  185.9670  176.6260  143.5520 C   0  0  0  0  0  2  0  0  0  0  0  0
  184.2660  178.1130  142.4840 C   0  0  0  0  0  0  0  0  0  0  0  0
  184.4570  179.1890  143.4890 C   0  0  0  0  0  3  0  0  0  0  0  0
  185.6000  179.5190  144.1050 C   0  0  0  0  0  3  0  0  0  0  0  0
  183.5310  178.2430  140.2340 O   0  0  0  0  0  0  0  0  0  0  0  0
  181.8610  178.5200  141.8390 N   0  0  0  0  0  2  0  0  0  0  0  0
  183.2230  178.2910  141.4560 C   0  0  0  0  0  0  0  0  0  0  0  0
  180.4300  180.1160  140.7080 C   0  0  0  0  0  1  0  0  0  0  0  0
  180.7810  178.6510  140.8720 C   0  0  0  0  0  3  0  0  0  0  0  0
  179.5580  177.8960  141.3560 C   0  0  0  0  0  1  0  0  0  0  0  0
  194.8770  176.6440  141.7930 N   0  0  0  0  0  2  0  0  0  0  0  0
  195.4860  174.8680  143.2470 N   0  0  0  0  0  2  0  0  0  0  0  0
  196.3100  174.9830  140.9090 N   0  0  0  0  0  0  0  0  0  0  0  0
  197.0560  173.7520  141.1100 C   0  0  0  0  0  1  0  0  0  0  0  0
  195.5210  175.5360  141.9740 C   0  0  0  0  0  0  0  0  0  0  0  0
  197.6230  175.5440  139.0620 O   0  0  0  0  0  1  0  0  0  0  0  0
  196.3290  175.5820  139.5810 C   0  0  0  0  0  2  0  0  0  0  0  0
  192.3540  170.1780  143.1170 C   0  0  0  0  0  3  0  0  0  0  0  0
  191.7980  171.4950  141.2580 F   0  0  0  0  0  0  0  0  0  0  0  0
  191.9960  170.2760  141.8350 C   0  0  0  0  0  0  0  0  0  0  0  0
  190.6520  168.2030  141.6440 C   0  0  0  0  0  1  0  0  0  0  0  0
  191.7770  169.0280  141.0420 C   0  0  1  0  0  3  0  0  0  0  0  0
  192.4500  169.3500  138.7610 O   0  0  0  0  0  0  0  0  0  0  0  0
  190.2140  169.6040  139.1860 O   0  0  0  0  0  1  0  0  0  0  0  0
  191.5120  169.3480  139.6030 C   0  0  0  0  0  0  0  0  0  0  0  0
  1  8  1  0  0  0  0
  2 20  1  1  0  0  0
  2 19  1  0  0  0  0
  2  1  1  0  0  0  0
  3 21  1  1  0  0  0
  3  5  1  0  0  0  0
  4 12  1  6  0  0  0
  4 19  1  0  0  0  0
  4 13  1  0  0  0  0
  7 17  1  0  0  0  0
  7  3  1  0  0  0  0
  8  9  1  0  0  0  0
  8 16  2  0  0  0  0
 10 16  1  0  0  0  0
 11  6  2  0  0  0  0
 13  5  1  1  0  0  0
 13  9  1  0  0  0  0
 14  1  2  0  0  0  0
 14 15  1  0  0  0  0
 15 10  2  0  0  0  0
 17 12  1  0  0  0  0
 18 41  1  6  0  0  0
 18 11  1  0  0  0  0
 19 11  1  0  0  0  0
 20 18  1  0  0  0  0
 21 23  2  0  0  0  0
 22 24  1  0  0  0  0
 23 27  1  0  0  0  0
 24 21  1  0  0  0  0
 25 22  2  0  0  0  0
 25 26  1  0  0  0  0
 26 27  2  0  0  0  0
 28 30  2  0  0  0  0
 30 29  1  0  0  0  0
 30 25  1  0  0  0  0
 31 32  1  0  0  0  0
 32 33  1  0  0  0  0
 32 29  1  0  0  0  0
 34 38  2  0  0  0  0
 35 14  1  0  0  0  0
 36 37  1  0  0  0  0
 36 38  1  0  0  0  0
 38 35  1  0  0  0  0
 39 40  1  0  0  0  0
 40 36  1  0  0  0  0
 42 43  1  0  0  0  0
 43 41  2  0  0  0  0
 45 44  1  1  0  0  0
 45 43  1  0  0  0  0
 46 48  2  0  0  0  0
 47 48  1  0  0  0  0
 48 45  1  0  0  0  0
M  END
>  <MODEL>
1

>  <REMARK>
 VINA RESULT:      -7.6      0.000      0.000
  Name = 
  8 active torsions:
  status: ('A' for Active; 'I' for Inactive)
    1  A    between atoms: C_1  and  C_6
    2  A    between atoms: N_17  and  C_30
    3  A    between atoms: N_22  and  C_40
    4  A    between atoms: C_24  and  C_38
    5  A    between atoms: C_25  and  N_31
    6  A    between atoms: C_26  and  C_32
    7  A    between atoms: C_35  and  C_47
    8  A    between atoms: C_44  and  C_47
                            x       y       z     vdW  Elec       q    Type
                         _______ _______ _______ _____ _____    ______ ____

>  <TORSDO>
F 8

$$$$
=
 OpenBabel11042417463D

 48 52  0  0  1  0  0  0  0  0999 V2000
  195.9090  173.8050  141.2780 C   0  0  0  0  0  0  0  0  0  0  0  0
  195.2260  172.5460  141.8330 C   0  0  2  0  0  3  0  0  0  0  0  0
  190.6830  175.0940  141.7160 C   0  0  1  0  0  3  0  0  0  0  0  0
  193.1620  173.4320  143.0690 C   0  0  2  0  0  3  0  0  0  0  0  0
  191.9430  175.5270  142.4880 C   0  0  0  0  0  2  0  0  0  0  0  0
  194.5740  172.5110  145.3790 O   0  0  0  0  0  0  0  0  0  0  0  0
  190.4800  173.5740  141.6430 C   0  0  0  0  0  2  0  0  0  0  0  0
  195.5250  175.1180  141.6770 C   0  0  0  0  0  0  0  0  0  0  0  0
  194.3440  175.4050  142.3700 O   0  0  0  0  0  0  0  0  0  0  0  0
  197.3850  176.0360  140.4920 N   0  0  0  0  0  0  0  0  0  0  0  0
  195.0540  172.2730  144.2370 C   0  0  0  0  0  0  0  0  0  0  0  0
  192.0940  172.4250  142.6450 C   0  0  0  0  0  2  0  0  0  0  0  0
  193.1530  174.6590  142.1690 C   0  0  1  0  0  3  0  0  0  0  0  0
  196.9400  173.6880  140.3090 C   0  0  0  0  0  0  0  0  0  0  0  0
  197.6830  174.8240  139.9630 C   0  0  0  0  0  3  0  0  0  0  0  0
  196.3240  176.2040  141.3150 C   0  0  0  0  0  3  0  0  0  0  0  0
  190.8160  172.9590  142.8550 O   0  0  0  0  0  0  0  0  0  0  0  0
  196.2680  171.4480  144.0490 C   0  0  2  0  0  3  0  0  0  0  0  0
  194.4790  172.8120  143.0570 N   0  0  0  0  0  0  0  0  0  0  0  0
  196.4510  171.2330  142.2510 S   0  0  0  0  0  0  0  0  0  0  0  0
  189.4360  175.7750  142.2050 C   0  0  0  0  0  0  0  0  0  0  0  0
  188.9560  177.1780  144.1910 C   0  0  0  0  0  3  0  0  0  0  0  0
  188.2640  175.1750  141.9770 C   0  0  0  0  0  3  0  0  0  0  0  0
  189.4900  177.1510  142.7990 C   0  0  0  0  0  2  0  0  0  0  0  0
  187.6950  176.8690  144.5140 C   0  0  0  0  0  0  0  0  0  0  0  0
  186.7010  176.4020  143.5150 C   0  0  0  0  0  3  0  0  0  0  0  0
  186.9460  175.6690  142.4210 C   0  0  0  0  0  3  0  0  0  0  0  0
  187.5550  176.1820  146.7790 O   0  0  0  0  0  0  0  0  0  0  0  0
  186.4850  178.1960  146.2870 N   0  0  0  0  0  2  0  0  0  0  0  0
  187.2550  177.0470  145.9110 C   0  0  0  0  0  0  0  0  0  0  0  0
  184.5860  178.1590  147.7920 C   0  0  0  0  0  1  0  0  0  0  0  0
  186.0670  178.4510  147.6570 C   0  0  0  0  0  3  0  0  0  0  0  0
  186.3240  179.9020  148.0150 C   0  0  0  0  0  1  0  0  0  0  0  0
  195.8470  172.6960  137.7100 N   0  0  0  0  0  2  0  0  0  0  0  0
  197.1830  172.4300  139.6550 N   0  0  0  0  0  2  0  0  0  0  0  0
  196.9440  170.6180  137.9770 N   0  0  0  0  0  0  0  0  0  0  0  0
  197.8270  169.7720  138.7620 C   0  0  0  0  0  1  0  0  0  0  0  0
  196.6170  171.9420  138.4270 C   0  0  0  0  0  0  0  0  0  0  0  0
  197.1760  170.2870  135.6770 O   0  0  0  0  0  1  0  0  0  0  0  0
  196.3470  170.0500  136.7740 C   0  0  0  0  0  2  0  0  0  0  0  0
  196.0990  170.1000  144.6780 C   0  0  0  0  0  3  0  0  0  0  0  0
  197.0860  170.8020  146.6860 F   0  0  0  0  0  0  0  0  0  0  0  0
  196.4860  169.8410  145.9290 C   0  0  0  0  0  0  0  0  0  0  0  0
  197.2660  168.2000  147.6150 C   0  0  0  0  0  1  0  0  0  0  0  0
  196.2870  168.4670  146.4840 C   0  0  1  0  0  3  0  0  0  0  0  0
  194.5790  168.2370  148.1530 O   0  0  0  0  0  1  0  0  0  0  0  0
  193.8630  168.1660  145.9790 O   0  0  0  0  0  0  0  0  0  0  0  0
  194.8710  168.2700  146.9280 C   0  0  0  0  0  0  0  0  0  0  0  0
  1  8  1  0  0  0  0
  2  1  1  1  0  0  0
  2 20  1  0  0  0  0
  2 19  1  0  0  0  0
  3 21  1  1  0  0  0
  3  5  1  0  0  0  0
  4 12  1  6  0  0  0
  7  3  1  0  0  0  0
  7 17  1  0  0  0  0
  8  9  1  0  0  0  0
 10 16  1  0  0  0  0
 11  6  2  0  0  0  0
 12 17  1  0  0  0  0
 13  9  1  0  0  0  0
 13  5  1  1  0  0  0
 13  4  1  0  0  0  0
 14  1  2  0  0  0  0
 15 14  1  0  0  0  0
 15 10  2  0  0  0  0
 16  8  2  0  0  0  0
 18 11  1  0  0  0  0
 18 41  1  1  0  0  0
 19  4  1  0  0  0  0
 19 11  1  0  0  0  0
 20 18  1  0  0  0  0
 21 24  1  0  0  0  0
 22 25  2  0  0  0  0
 23 21  2  0  0  0  0
 23 27  1  0  0  0  0
 24 22  1  0  0  0  0
 25 30  1  0  0  0  0
 26 25  1  0  0  0  0
 27 26  2  0  0  0  0
 29 32  1  0  0  0  0
 30 29  1  0  0  0  0
 30 28  2  0  0  0  0
 32 31  1  0  0  0  0
 32 33  1  0  0  0  0
 34 38  2  0  0  0  0
 35 14  1  0  0  0  0
 36 38  1  0  0  0  0
 36 37  1  0  0  0  0
 38 35  1  0  0  0  0
 39 40  1  0  0  0  0
 40 36  1  0  0  0  0
 41 43  2  0  0  0  0
 43 45  1  0  0  0  0
 43 42  1  0  0  0  0
 45 48  1  0  0  0  0
 45 44  1  1  0  0  0
 47 48  2  0  0  0  0
 48 46  1  0  0  0  0
M  END
>  <MODEL>
2

>  <REMARK>
 VINA RESULT:      -7.1      3.839      5.642
  Name = 
  8 active torsions:
  status: ('A' for Active; 'I' for Inactive)
    1  A    between atoms: C_1  and  C_6
    2  A    between atoms: N_17  and  C_30
    3  A    between atoms: N_22  and  C_40
    4  A    between atoms: C_24  and  C_38
    5  A    between atoms: C_25  and  N_31
    6  A    between atoms: C_26  and  C_32
    7  A    between atoms: C_35  and  C_47
    8  A    between atoms: C_44  and  C_47
                            x       y       z     vdW  Elec       q    Type
                         _______ _______ _______ _____ _____    ______ ____

>  <TORSDO>
F 8

$$$$
=
 OpenBabel11042417463D

 48 52  0  0  1  0  0  0  0  0999 V2000
  193.1710  170.7940  142.3430 C   0  0  0  0  0  0  0  0  0  0  0  0
  192.7300  171.8470  141.3160 C   0  0  2  0  0  3  0  0  0  0  0  0
  191.2270  174.9040  145.2580 C   0  0  1  0  0  3  0  0  0  0  0  0
  190.8780  173.1620  142.5040 C   0  0  2  0  0  3  0  0  0  0  0  0
  190.7130  173.4800  144.9710 C   0  0  0  0  0  2  0  0  0  0  0  0
  189.2130  171.9380  140.5280 O   0  0  0  0  0  0  0  0  0  0  0  0
  191.5500  175.7230  144.0000 C   0  0  0  0  0  2  0  0  0  0  0  0
  192.4370  170.5420  143.5380 C   0  0  0  0  0  0  0  0  0  0  0  0
  191.4340  171.3870  144.0270 O   0  0  0  0  0  0  0  0  0  0  0  0
  193.8310  168.6610  144.0130 N   0  0  0  0  0  0  0  0  0  0  0  0
  190.4610  171.7690  140.4620 C   0  0  0  0  0  0  0  0  0  0  0  0
  191.2220  174.5990  142.1140 C   0  0  0  0  0  2  0  0  0  0  0  0
  191.4840  172.7950  143.8500 C   0  0  1  0  0  3  0  0  0  0  0  0
  194.3650  170.0540  142.1380 C   0  0  0  0  0  0  0  0  0  0  0  0
  194.6470  168.9680  142.9760 C   0  0  0  0  0  3  0  0  0  0  0  0
  192.7570  169.4290  144.3160 C   0  0  0  0  0  3  0  0  0  0  0  0
  190.6050  175.4990  142.9930 O   0  0  0  0  0  0  0  0  0  0  0  0
  191.0990  171.0430  139.3420 C   0  0  2  0  0  3  0  0  0  0  0  0
  191.3330  172.2340  141.4800 N   0  0  0  0  0  0  0  0  0  0  0  0
  192.8940  171.2250  139.5880 S   0  0  0  0  0  0  0  0  0  0  0  0
  190.3230  175.6760  146.1780 C   0  0  0  0  0  0  0  0  0  0  0  0
  187.8710  176.0390  146.2110 C   0  0  0  0  0  3  0  0  0  0  0  0
  190.7960  176.8010  146.7210 C   0  0  0  0  0  3  0  0  0  0  0  0
  188.9890  175.1270  146.5890 C   0  0  0  0  0  2  0  0  0  0  0  0
  187.7300  177.2840  146.6800 C   0  0  0  0  0  0  0  0  0  0  0  0
  188.7180  177.9160  147.5900 C   0  0  0  0  0  3  0  0  0  0  0  0
  190.0410  177.7090  147.6070 C   0  0  0  0  0  3  0  0  0  0  0  0
  185.9300  178.7390  147.1960 O   0  0  0  0  0  0  0  0  0  0  0  0
  186.0050  178.0000  144.9840 N   0  0  0  0  0  2  0  0  0  0  0  0
  186.5190  178.0460  146.3220 C   0  0  0  0  0  0  0  0  0  0  0  0
  184.2640  178.1480  143.3050 C   0  0  0  0  0  1  0  0  0  0  0  0
  184.8450  178.7690  144.5590 C   0  0  0  0  0  3  0  0  0  0  0  0
  185.2530  180.2000  144.2640 C   0  0  0  0  0  1  0  0  0  0  0  0
  196.3690  172.2710  142.1930 N   0  0  0  0  0  2  0  0  0  0  0  0
  195.2960  170.4480  141.1140 N   0  0  0  0  0  2  0  0  0  0  0  0
  197.0280  171.8070  139.9700 N   0  0  0  0  0  0  0  0  0  0  0  0
  196.8920  170.9820  138.7810 C   0  0  0  0  0  1  0  0  0  0  0  0
  196.2250  171.5440  141.1320 C   0  0  0  0  0  0  0  0  0  0  0  0
  197.4980  173.8530  138.9460 O   0  0  0  0  0  1  0  0  0  0  0  0
  197.9370  172.9450  139.9100 C   0  0  0  0  0  2  0  0  0  0  0  0
  190.7310  171.6580  138.0280 C   0  0  0  0  0  3  0  0  0  0  0  0
  191.6070  173.7440  138.6460 F   0  0  0  0  0  0  0  0  0  0  0  0
  191.0010  172.9320  137.7350 C   0  0  0  0  0  0  0  0  0  0  0  0
  190.4590  172.3500  135.3870 C   0  0  0  0  0  1  0  0  0  0  0  0
  190.5970  173.4740  136.4010 C   0  0  1  0  0  3  0  0  0  0  0  0
  188.9750  175.0360  135.5720 O   0  0  0  0  0  0  0  0  0  0  0  0
  188.5330  174.1380  137.6320 O   0  0  0  0  0  1  0  0  0  0  0  0
  189.3360  174.2730  136.5080 C   0  0  0  0  0  0  0  0  0  0  0  0
  1  8  1  0  0  0  0
  2 20  1  6  0  0  0
  2 19  1  0  0  0  0
  2  1  1  0  0  0  0
  3 21  1  6  0  0  0
  4 12  1  6  0  0  0
  4 13  1  0  0  0  0
  5  3  1  0  0  0  0
  7  3  1  0  0  0  0
  8  9  1  0  0  0  0
  8 16  2  0  0  0  0
 10 16  1  0  0  0  0
 11  6  2  0  0  0  0
 11 19  1  0  0  0  0
 12 17  1  0  0  0  0
 13  9  1  0  0  0  0
 13  5  1  1  0  0  0
 14  1  2  0  0  0  0
 14 15  1  0  0  0  0
 15 10  2  0  0  0  0
 17  7  1  0  0  0  0
 18 41  1  6  0  0  0
 18 20  1  0  0  0  0
 18 11  1  0  0  0  0
 19  4  1  0  0  0  0
 21 24  1  0  0  0  0
 21 23  2  0  0  0  0
 22 24  1  0  0  0  0
 22 25  2  0  0  0  0
 23 27  1  0  0  0  0
 25 26  1  0  0  0  0
 26 27  2  0  0  0  0
 29 30  1  0  0  0  0
 30 25  1  0  0  0  0
 30 28  2  0  0  0  0
 31 32  1  0  0  0  0
 32 29  1  0  0  0  0
 33 32  1  0  0  0  0
 35 38  1  0  0  0  0
 35 14  1  0  0  0  0
 36 38  1  0  0  0  0
 37 36  1  0  0  0  0
 38 34  2  0  0  0  0
 39 40  1  0  0  0  0
 40 36  1  0  0  0  0
 43 41  2  0  0  0  0
 43 42  1  0  0  0  0
 45 44  1  6  0  0  0
 45 48  1  0  0  0  0
 45 43  1  0  0  0  0
 46 48  2  0  0  0  0
 48 47  1  0  0  0  0
M  END
>  <MODEL>
3

>  <REMARK>
 VINA RESULT:      -6.9      3.205      5.040
  Name = 
  8 active torsions:
  status: ('A' for Active; 'I' for Inactive)
    1  A    between atoms: C_1  and  C_6
    2  A    between atoms: N_17  and  C_30
    3  A    between atoms: N_22  and  C_40
    4  A    between atoms: C_24  and  C_38
    5  A    between atoms: C_25  and  N_31
    6  A    between atoms: C_26  and  C_32
    7  A    between atoms: C_35  and  C_47
    8  A    between atoms: C_44  and  C_47
                            x       y       z     vdW  Elec       q    Type
                         _______ _______ _______ _____ _____    ______ ____

>  <TORSDO>
F 8

$$$$
=
 OpenBabel11042417463D

 48 52  0  0  1  0  0  0  0  0999 V2000
  191.7860  170.9050  140.5250 C   0  0  0  0  0  0  0  0  0  0  0  0
  191.8000  172.3050  139.8930 C   0  0  2  0  0  3  0  0  0  0  0  0
  191.2730  174.3400  144.6610 C   0  0  1  0  0  3  0  0  0  0  0  0
  190.4740  173.7600  141.5360 C   0  0  2  0  0  3  0  0  0  0  0  0
  190.3040  173.3490  143.9890 C   0  0  0  0  0  2  0  0  0  0  0  0
  188.5900  173.8650  139.3880 O   0  0  0  0  0  0  0  0  0  0  0  0
  191.9300  175.3340  143.6920 C   0  0  0  0  0  2  0  0  0  0  0  0
  190.9480  170.5770  141.6300 C   0  0  0  0  0  0  0  0  0  0  0  0
  190.2860  171.5290  142.4120 O   0  0  0  0  0  0  0  0  0  0  0  0
  191.5590  168.2760  141.4270 N   0  0  0  0  0  0  0  0  0  0  0  0
  189.6990  173.2950  139.1970 C   0  0  0  0  0  0  0  0  0  0  0  0
  191.3240  175.0280  141.5780 C   0  0  0  0  0  2  0  0  0  0  0  0
  190.8400  172.8110  142.6680 C   0  0  1  0  0  3  0  0  0  0  0  0
  192.6490  169.8910  140.0320 C   0  0  0  0  0  0  0  0  0  0  0  0
  192.4840  168.5760  140.4840 C   0  0  0  0  0  3  0  0  0  0  0  0
  190.8130  169.2420  142.0140 C   0  0  0  0  0  3  0  0  0  0  0  0
  191.0210  175.7750  142.7240 O   0  0  0  0  0  0  0  0  0  0  0  0
  190.0960  172.7690  137.8730 C   0  0  2  0  0  3  0  0  0  0  0  0
  190.6250  173.0900  140.2530 N   0  0  0  0  0  0  0  0  0  0  0  0
  191.8240  172.2230  138.0520 S   0  0  0  0  0  0  0  0  0  0  0  0
  190.6540  175.0610  145.8250 C   0  0  0  0  0  0  0  0  0  0  0  0
  188.3290  175.7610  146.3260 C   0  0  0  0  0  3  0  0  0  0  0  0
  191.3830  175.9960  146.4410 C   0  0  0  0  0  3  0  0  0  0  0  0
  189.3200  174.6460  146.3690 C   0  0  0  0  0  2  0  0  0  0  0  0
  188.4700  176.9120  146.9920 C   0  0  0  0  0  0  0  0  0  0  0  0
  189.6700  177.2290  147.8060 C   0  0  0  0  0  3  0  0  0  0  0  0
  190.9280  176.8350  147.5680 C   0  0  0  0  0  3  0  0  0  0  0  0
  187.0680  178.5360  148.0030 O   0  0  0  0  0  0  0  0  0  0  0  0
  186.6260  178.1090  145.7530 N   0  0  0  0  0  2  0  0  0  0  0  0
  187.3650  177.8900  146.9610 C   0  0  0  0  0  0  0  0  0  0  0  0
  184.2290  178.4250  145.9140 C   0  0  0  0  0  1  0  0  0  0  0  0
  185.5620  179.0960  145.6470 C   0  0  0  0  0  3  0  0  0  0  0  0
  185.5480  179.6960  144.2540 C   0  0  0  0  0  1  0  0  0  0  0  0
  193.2940  168.6530  137.3890 N   0  0  0  0  0  2  0  0  0  0  0  0
  193.7110  170.2230  139.1210 N   0  0  0  0  0  2  0  0  0  0  0  0
  195.1940  170.0390  137.1390 N   0  0  0  0  0  0  0  0  0  0  0  0
  196.0270  171.1090  137.6610 C   0  0  0  0  0  1  0  0  0  0  0  0
  194.0420  169.5920  137.8720 C   0  0  0  0  0  0  0  0  0  0  0  0
  194.9750  169.9910  134.8150 O   0  0  0  0  0  1  0  0  0  0  0  0
  195.6110  169.3910  135.9020 C   0  0  0  0  0  2  0  0  0  0  0  0
  190.0390  173.8430  136.8320 C   0  0  0  0  0  3  0  0  0  0  0  0
  189.3760  172.3330  135.1650 F   0  0  0  0  0  0  0  0  0  0  0  0
  189.6810  173.5980  135.5700 C   0  0  0  0  0  0  0  0  0  0  0  0
  188.4290  175.5980  134.8130 C   0  0  0  0  0  1  0  0  0  0  0  0
  189.6530  174.7250  134.5890 C   0  0  1  0  0  3  0  0  0  0  0  0
  190.8810  176.7650  134.8840 O   0  0  0  0  0  1  0  0  0  0  0  0
  192.1400  174.8890  134.5130 O   0  0  0  0  0  0  0  0  0  0  0  0
  190.9160  175.5260  134.6580 C   0  0  0  0  0  0  0  0  0  0  0  0
  1  8  1  0  0  0  0
  2 20  1  6  0  0  0
  2 19  1  0  0  0  0
  2  1  1  0  0  0  0
  3 21  1  1  0  0  0
  4 12  1  6  0  0  0
  4 13  1  0  0  0  0
  5  3  1  0  0  0  0
  7  3  1  0  0  0  0
  8 16  2  0  0  0  0
  8  9  1  0  0  0  0
  9 13  1  0  0  0  0
 10 16  1  0  0  0  0
 11  6  2  0  0  0  0
 11 19  1  0  0  0  0
 12 17  1  0  0  0  0
 13  5  1  1  0  0  0
 14 15  1  0  0  0  0
 14  1  2  0  0  0  0
 15 10  2  0  0  0  0
 17  7  1  0  0  0  0
 18 41  1  6  0  0  0
 18 20  1  0  0  0  0
 18 11  1  0  0  0  0
 19  4  1  0  0  0  0
 21 24  1  0  0  0  0
 21 23  2  0  0  0  0
 22 24  1  0  0  0  0
 22 25  2  0  0  0  0
 23 27  1  0  0  0  0
 25 26  1  0  0  0  0
 27 26  2  0  0  0  0
 29 30  1  0  0  0  0
 30 25  1  0  0  0  0
 30 28  2  0  0  0  0
 32 29  1  0  0  0  0
 32 31  1  0  0  0  0
 33 32  1  0  0  0  0
 34 38  2  0  0  0  0
 35 14  1  0  0  0  0
 36 37  1  0  0  0  0
 36 38  1  0  0  0  0
 38 35  1  0  0  0  0
 39 40  1  0  0  0  0
 40 36  1  0  0  0  0
 42 43  1  0  0  0  0
 43 41  2  0  0  0  0
 45 48  1  0  0  0  0
 45 44  1  1  0  0  0
 45 43  1  0  0  0  0
 47 48  2  0  0  0  0
 48 46  1  0  0  0  0
M  END
>  <MODEL>
4

>  <REMARK>
 VINA RESULT:      -6.8      4.302      6.582
  Name = 
  8 active torsions:
  status: ('A' for Active; 'I' for Inactive)
    1  A    between atoms: C_1  and  C_6
    2  A    between atoms: N_17  and  C_30
    3  A    between atoms: N_22  and  C_40
    4  A    between atoms: C_24  and  C_38
    5  A    between atoms: C_25  and  N_31
    6  A    between atoms: C_26  and  C_32
    7  A    between atoms: C_35  and  C_47
    8  A    between atoms: C_44  and  C_47
                            x       y       z     vdW  Elec       q    Type
                         _______ _______ _______ _____ _____    ______ ____

>  <TORSDO>
F 8

$$$$
=
 OpenBabel11042417463D

 48 52  0  0  1  0  0  0  0  0999 V2000
  195.3200  172.1330  142.6060 C   0  0  0  0  0  0  0  0  0  0  0  0
  194.2070  172.3080  141.5630 C   0  0  2  0  0  3  0  0  0  0  0  0
  191.7200  175.4380  144.9050 C   0  0  1  0  0  3  0  0  0  0  0  0
  192.1140  172.8410  142.9460 C   0  0  2  0  0  3  0  0  0  0  0  0
  192.1230  173.9740  145.1660 C   0  0  0  0  0  2  0  0  0  0  0  0
  191.2620  170.2770  142.0100 O   0  0  0  0  0  0  0  0  0  0  0  0
  191.3200  175.7320  143.4520 C   0  0  0  0  0  2  0  0  0  0  0  0
  195.0480  172.0370  144.0020 C   0  0  0  0  0  0  0  0  0  0  0  0
  193.8160  172.3670  144.5770 O   0  0  0  0  0  0  0  0  0  0  0  0
  197.3360  171.4950  144.4240 N   0  0  0  0  0  0  0  0  0  0  0  0
  192.3430  170.7570  141.5710 C   0  0  0  0  0  0  0  0  0  0  0  0
  191.4790  173.9610  142.1240 C   0  0  0  0  0  2  0  0  0  0  0  0
  192.9930  173.3990  144.0550 C   0  0  1  0  0  3  0  0  0  0  0  0
  196.6790  172.0930  142.1990 C   0  0  0  0  0  0  0  0  0  0  0  0
  197.6610  171.7360  143.1320 C   0  0  0  0  0  3  0  0  0  0  0  0
  196.0690  171.6560  144.8740 C   0  0  0  0  0  3  0  0  0  0  0  0
  190.5710  174.6820  142.9100 O   0  0  0  0  0  0  0  0  0  0  0  0
  193.1310  170.0840  140.5150 C   0  0  2  0  0  3  0  0  0  0  0  0
  192.8920  171.9580  142.0890 N   0  0  0  0  0  0  0  0  0  0  0  0
  194.4770  171.2340  140.0900 S   0  0  0  0  0  0  0  0  0  0  0  0
  190.6670  175.9310  145.8580 C   0  0  0  0  0  0  0  0  0  0  0  0
  188.1900  175.8500  145.8140 C   0  0  0  0  0  3  0  0  0  0  0  0
  190.9140  177.0560  146.5360 C   0  0  0  0  0  3  0  0  0  0  0  0
  189.4440  175.1140  146.1470 C   0  0  0  0  0  2  0  0  0  0  0  0
  187.8140  176.9910  146.4030 C   0  0  0  0  0  0  0  0  0  0  0  0
  188.6460  177.6830  147.4180 C   0  0  0  0  0  3  0  0  0  0  0  0
  189.9850  177.7130  147.4760 C   0  0  0  0  0  3  0  0  0  0  0  0
  185.6770  177.8350  146.9900 O   0  0  0  0  0  0  0  0  0  0  0  0
  186.1370  177.8070  144.7030 N   0  0  0  0  0  2  0  0  0  0  0  0
  186.4960  177.5620  146.0690 C   0  0  0  0  0  0  0  0  0  0  0  0
  184.4740  177.9110  142.9440 C   0  0  0  0  0  1  0  0  0  0  0  0
  184.8730  178.4150  144.3160 C   0  0  0  0  0  3  0  0  0  0  0  0
  185.0170  179.9240  144.2710 C   0  0  0  0  0  1  0  0  0  0  0  0
  197.4730  174.7800  141.1590 N   0  0  0  0  0  2  0  0  0  0  0  0
  197.0460  172.4640  140.8580 N   0  0  0  0  0  2  0  0  0  0  0  0
  197.6580  173.9370  138.9570 N   0  0  0  0  0  0  0  0  0  0  0  0
  197.5820  172.8030  138.0510 C   0  0  0  0  0  1  0  0  0  0  0  0
  197.3830  173.7690  140.3570 C   0  0  0  0  0  0  0  0  0  0  0  0
  197.0350  175.5220  137.3590 O   0  0  0  0  0  1  0  0  0  0  0  0
  197.9390  175.2480  138.3860 C   0  0  0  0  0  2  0  0  0  0  0  0
  192.2980  169.8490  139.2940 C   0  0  0  0  0  3  0  0  0  0  0  0
  194.0100  168.6480  138.2340 F   0  0  0  0  0  0  0  0  0  0  0  0
  192.7450  169.1540  138.2460 C   0  0  0  0  0  0  0  0  0  0  0  0
  190.4370  168.6380  137.5060 C   0  0  0  0  0  1  0  0  0  0  0  0
  191.8520  168.9670  137.0610 C   0  0  1  0  0  3  0  0  0  0  0  0
  192.9440  170.8320  136.0170 O   0  0  0  0  0  1  0  0  0  0  0  0
  190.7360  170.5430  135.4840 O   0  0  0  0  0  0  0  0  0  0  0  0
  191.8810  170.1730  136.1740 C   0  0  0  0  0  0  0  0  0  0  0  0
  1  8  1  0  0  0  0
  2 20  1  6  0  0  0
  2 19  1  0  0  0  0
  2  1  1  0  0  0  0
  3  5  1  0  0  0  0
  3 21  1  1  0  0  0
  4 12  1  6  0  0  0
  4 13  1  0  0  0  0
  7  3  1  0  0  0  0
  8  9  1  0  0  0  0
  8 16  2  0  0  0  0
 10 16  1  0  0  0  0
 11  6  2  0  0  0  0
 11 19  1  0  0  0  0
 12 17  1  0  0  0  0
 13  9  1  0  0  0  0
 13  5  1  1  0  0  0
 14  1  2  0  0  0  0
 14 15  1  0  0  0  0
 15 10  2  0  0  0  0
 17  7  1  0  0  0  0
 18 41  1  6  0  0  0
 18 11  1  0  0  0  0
 19  4  1  0  0  0  0
 20 18  1  0  0  0  0
 21 24  1  0  0  0  0
 21 23  2  0  0  0  0
 22 24  1  0  0  0  0
 22 25  2  0  0  0  0
 23 27  1  0  0  0  0
 25 26  1  0  0  0  0
 26 27  2  0  0  0  0
 29 30  1  0  0  0  0
 30 25  1  0  0  0  0
 30 28  2  0  0  0  0
 31 32  1  0  0  0  0
 32 29  1  0  0  0  0
 33 32  1  0  0  0  0
 35 14  1  0  0  0  0
 36 38  1  0  0  0  0
 37 36  1  0  0  0  0
 38 35  1  0  0  0  0
 38 34  2  0  0  0  0
 39 40  1  0  0  0  0
 40 36  1  0  0  0  0
 42 43  1  0  0  0  0
 43 41  2  0  0  0  0
 45 44  1  1  0  0  0
 45 43  1  0  0  0  0
 46 48  1  0  0  0  0
 47 48  2  0  0  0  0
 48 45  1  0  0  0  0
M  END
>  <MODEL>
5

>  <REMARK>
 VINA RESULT:      -6.8      2.918      4.264
  Name = 
  8 active torsions:
  status: ('A' for Active; 'I' for Inactive)
    1  A    between atoms: C_1  and  C_6
    2  A    between atoms: N_17  and  C_30
    3  A    between atoms: N_22  and  C_40
    4  A    between atoms: C_24  and  C_38
    5  A    between atoms: C_25  and  N_31
    6  A    between atoms: C_26  and  C_32
    7  A    between atoms: C_35  and  C_47
    8  A    between atoms: C_44  and  C_47
                            x       y       z     vdW  Elec       q    Type
                         _______ _______ _______ _____ _____    ______ ____

>  <TORSDO>
F 8

$$$$
=
 OpenBabel11042417463D

 48 52  0  0  1  0  0  0  0  0999 V2000
  190.0560  172.1210  138.7220 C   0  0  0  0  0  0  0  0  0  0  0  0
  190.0300  173.4460  139.4980 C   0  0  2  0  0  3  0  0  0  0  0  0
  194.8280  172.3940  141.2360 C   0  0  1  0  0  3  0  0  0  0  0  0
  191.6290  173.0640  141.4660 C   0  0  2  0  0  3  0  0  0  0  0  0
  193.5800  171.5140  141.4370 C   0  0  0  0  0  2  0  0  0  0  0  0
  189.2250  173.2300  143.0060 O   0  0  0  0  0  0  0  0  0  0  0  0
  194.5430  173.9030  141.2430 C   0  0  0  0  0  2  0  0  0  0  0  0
  190.6570  170.9410  139.2490 C   0  0  0  0  0  0  0  0  0  0  0  0
  191.5070  170.9330  140.3610 O   0  0  0  0  0  0  0  0  0  0  0  0
  189.7960  169.6690  137.4200 N   0  0  0  0  0  0  0  0  0  0  0  0
  189.1710  173.4560  141.7660 C   0  0  0  0  0  0  0  0  0  0  0  0
  192.3930  174.3870  141.5020 C   0  0  0  0  0  2  0  0  0  0  0  0
  192.3760  172.0170  140.6530 C   0  0  1  0  0  3  0  0  0  0  0  0
  189.4970  172.0460  137.4190 C   0  0  0  0  0  0  0  0  0  0  0  0
  189.3520  170.7940  136.8090 C   0  0  0  0  0  3  0  0  0  0  0  0
  190.4540  169.7210  138.6020 C   0  0  0  0  0  3  0  0  0  0  0  0
  193.5900  174.2340  142.2130 O   0  0  0  0  0  0  0  0  0  0  0  0
  187.9260  173.9010  141.1000 C   0  0  2  0  0  3  0  0  0  0  0  0
  190.2940  173.2630  140.9200 N   0  0  0  0  0  0  0  0  0  0  0  0
  188.3880  174.2740  139.3790 S   0  0  0  0  0  0  0  0  0  0  0  0
  195.9400  172.0570  142.1900 C   0  0  0  0  0  0  0  0  0  0  0  0
  196.7670  169.9120  143.1160 C   0  0  0  0  0  3  0  0  0  0  0  0
  196.2090  172.9250  143.1690 C   0  0  0  0  0  3  0  0  0  0  0  0
  196.8130  170.8590  141.9650 C   0  0  0  0  0  2  0  0  0  0  0  0
  197.1650  170.2220  144.3550 C   0  0  0  0  0  0  0  0  0  0  0  0
  197.6410  171.5760  144.7310 C   0  0  0  0  0  3  0  0  0  0  0  0
  197.2280  172.7430  144.2210 C   0  0  0  0  0  3  0  0  0  0  0  0
  197.9410  168.1660  145.2470 O   0  0  0  0  0  0  0  0  0  0  0  0
  196.3300  169.2590  146.5330 N   0  0  0  0  0  2  0  0  0  0  0  0
  197.1790  169.1630  145.3820 C   0  0  0  0  0  0  0  0  0  0  0  0
  194.9480  168.1680  148.1980 C   0  0  0  0  0  1  0  0  0  0  0  0
  196.3380  168.2730  147.6030 C   0  0  0  0  0  3  0  0  0  0  0  0
  197.3140  168.6920  148.6870 C   0  0  0  0  0  1  0  0  0  0  0  0
  191.2590  173.9260  135.9050 N   0  0  0  0  0  2  0  0  0  0  0  0
  189.1330  173.2480  136.7160 N   0  0  0  0  0  2  0  0  0  0  0  0
  189.4330  175.3550  135.4410 N   0  0  0  0  0  0  0  0  0  0  0  0
  188.0090  175.6270  135.5530 C   0  0  0  0  0  1  0  0  0  0  0  0
  189.9940  174.1710  136.0280 C   0  0  0  0  0  0  0  0  0  0  0  0
  189.6880  177.6180  134.9230 O   0  0  0  0  0  1  0  0  0  0  0  0
  190.2690  176.3560  134.7900 C   0  0  0  0  0  2  0  0  0  0  0  0
  187.3980  175.1490  141.7360 C   0  0  0  0  0  3  0  0  0  0  0  0
  189.4890  176.2060  141.6330 F   0  0  0  0  0  0  0  0  0  0  0  0
  188.1650  176.2180  141.9570 C   0  0  0  0  0  0  0  0  0  0  0  0
  186.4070  177.9550  141.7660 C   0  0  0  0  0  1  0  0  0  0  0  0
  187.5630  177.4260  142.6000 C   0  0  1  0  0  3  0  0  0  0  0  0
  187.9310  177.2780  144.9670 O   0  0  0  0  0  1  0  0  0  0  0  0
  185.8300  176.7190  144.2490 O   0  0  0  0  0  0  0  0  0  0  0  0
  187.1330  177.1270  144.0030 C   0  0  0  0  0  0  0  0  0  0  0  0
  1  8  1  0  0  0  0
  2  1  1  6  0  0  0
  2 19  1  0  0  0  0
  3  7  1  0  0  0  0
  3  5  1  0  0  0  0
  3 21  1  1  0  0  0
  4 12  1  6  0  0  0
  7 17  1  0  0  0  0
  8  9  1  0  0  0  0
  9 13  1  0  0  0  0
 10 16  1  0  0  0  0
 11  6  2  0  0  0  0
 12 17  1  0  0  0  0
 13  5  1  1  0  0  0
 13  4  1  0  0  0  0
 14  1  2  0  0  0  0
 15 14  1  0  0  0  0
 15 10  2  0  0  0  0
 16  8  2  0  0  0  0
 18 41  1  1  0  0  0
 18 11  1  0  0  0  0
 19  4  1  0  0  0  0
 19 11  1  0  0  0  0
 20  2  1  0  0  0  0
 20 18  1  0  0  0  0
 21 23  2  0  0  0  0
 22 25  2  0  0  0  0
 23 27  1  0  0  0  0
 24 21  1  0  0  0  0
 24 22  1  0  0  0  0
 25 26  1  0  0  0  0
 25 30  1  0  0  0  0
 27 26  2  0  0  0  0
 28 30  2  0  0  0  0
 29 32  1  0  0  0  0
 30 29  1  0  0  0  0
 32 31  1  0  0  0  0
 32 33  1  0  0  0  0
 34 38  2  0  0  0  0
 35 14  1  0  0  0  0
 36 37  1  0  0  0  0
 36 38  1  0  0  0  0
 38 35  1  0  0  0  0
 40 39  1  0  0  0  0
 40 36  1  0  0  0  0
 41 43  2  0  0  0  0
 42 43  1  0  0  0  0
 43 45  1  0  0  0  0
 45 44  1  6  0  0  0
 45 48  1  0  0  0  0
 48 47  2  0  0  0  0
 48 46  1  0  0  0  0
M  END
>  <MODEL>
6

>  <REMARK>
 VINA RESULT:      -5.7      4.629     10.842
  Name = 
  8 active torsions:
  status: ('A' for Active; 'I' for Inactive)
    1  A    between atoms: C_1  and  C_6
    2  A    between atoms: N_17  and  C_30
    3  A    between atoms: N_22  and  C_40
    4  A    between atoms: C_24  and  C_38
    5  A    between atoms: C_25  and  N_31
    6  A    between atoms: C_26  and  C_32
    7  A    between atoms: C_35  and  C_47
    8  A    between atoms: C_44  and  C_47
                            x       y       z     vdW  Elec       q    Type
                         _______ _______ _______ _____ _____    ______ ____

>  <TORSDO>
F 8

$$$$
=
 OpenBabel11042417463D

 48 52  0  0  1  0  0  0  0  0999 V2000
  189.0390  173.9610  140.1320 C   0  0  0  0  0  0  0  0  0  0  0  0
  189.1170  175.3380  140.8070 C   0  0  2  0  0  3  0  0  0  0  0  0
  193.9080  174.1350  142.4620 C   0  0  1  0  0  3  0  0  0  0  0  0
  190.7630  175.0080  142.7450 C   0  0  2  0  0  3  0  0  0  0  0  0
  192.6210  173.3470  142.7690 C   0  0  0  0  0  2  0  0  0  0  0  0
  188.4310  175.4270  144.3450 O   0  0  0  0  0  0  0  0  0  0  0  0
  193.7090  175.6540  142.3650 C   0  0  0  0  0  2  0  0  0  0  0  0
  189.5920  172.7890  140.7270 C   0  0  0  0  0  0  0  0  0  0  0  0
  190.4800  172.8130  141.8070 O   0  0  0  0  0  0  0  0  0  0  0  0
  188.5940  171.4400  139.0270 N   0  0  0  0  0  0  0  0  0  0  0  0
  188.3430  175.5650  143.0940 C   0  0  0  0  0  0  0  0  0  0  0  0
  191.6010  176.2820  142.6570 C   0  0  0  0  0  2  0  0  0  0  0  0
  191.4190  173.8620  141.9890 C   0  0  1  0  0  3  0  0  0  0  0  0
  188.4290  173.8240  138.8570 C   0  0  0  0  0  0  0  0  0  0  0  0
  188.1910  172.5410  138.3490 C   0  0  0  0  0  3  0  0  0  0  0  0
  189.2970  171.5400  140.1800 C   0  0  0  0  0  3  0  0  0  0  0  0
  192.8130  176.1110  143.3370 O   0  0  0  0  0  0  0  0  0  0  0  0
  187.1020  176.0320  142.4380 C   0  0  2  0  0  3  0  0  0  0  0  0
  189.4220  175.2440  142.2300 N   0  0  0  0  0  0  0  0  0  0  0  0
  187.5210  176.2510  140.6800 S   0  0  0  0  0  0  0  0  0  0  0  0
  195.0340  173.8040  143.4020 C   0  0  0  0  0  0  0  0  0  0  0  0
  196.4080  171.7670  143.7260 C   0  0  0  0  0  3  0  0  0  0  0  0
  195.0050  174.3390  144.6250 C   0  0  0  0  0  3  0  0  0  0  0  0
  196.2220  173.0180  142.9360 C   0  0  0  0  0  2  0  0  0  0  0  0
  196.6530  171.7430  145.0410 C   0  0  0  0  0  0  0  0  0  0  0  0
  196.7060  172.9720  145.8710 C   0  0  0  0  0  3  0  0  0  0  0  0
  195.9940  174.0930  145.6930 C   0  0  0  0  0  3  0  0  0  0  0  0
  197.9400  169.7720  145.3360 O   0  0  0  0  0  0  0  0  0  0  0  0
  196.0660  169.9480  146.7150 N   0  0  0  0  0  2  0  0  0  0  0  0
  196.9330  170.4470  145.6890 C   0  0  0  0  0  0  0  0  0  0  0  0
  195.0210  168.1910  148.0180 C   0  0  0  0  0  1  0  0  0  0  0  0
  196.3190  168.7030  147.4240 C   0  0  0  0  0  3  0  0  0  0  0  0
  197.3200  168.9370  148.5400 C   0  0  0  0  0  1  0  0  0  0  0  0
  189.0850  174.3940  135.9970 N   0  0  0  0  0  2  0  0  0  0  0  0
  188.1080  174.9900  138.0780 N   0  0  0  0  0  2  0  0  0  0  0  0
  188.0990  176.5390  136.1400 N   0  0  0  0  0  0  0  0  0  0  0  0
  187.3840  177.5270  136.9300 C   0  0  0  0  0  1  0  0  0  0  0  0
  188.4670  175.2760  136.7160 C   0  0  0  0  0  0  0  0  0  0  0  0
  189.8800  176.8120  134.6540 O   0  0  0  0  0  1  0  0  0  0  0  0
  188.4950  176.9060  134.7850 C   0  0  0  0  0  2  0  0  0  0  0  0
  186.6690  177.3530  142.9950 C   0  0  0  0  0  3  0  0  0  0  0  0
  185.5600  176.3410  144.7980 F   0  0  0  0  0  0  0  0  0  0  0  0
  185.9540  177.4550  144.1180 C   0  0  0  0  0  0  0  0  0  0  0  0
  184.5040  179.4200  143.6950 C   0  0  0  0  0  1  0  0  0  0  0  0
  185.5570  178.8110  144.6070 C   0  0  1  0  0  3  0  0  0  0  0  0
  185.8460  179.0750  146.9750 O   0  0  0  0  0  1  0  0  0  0  0  0
  183.7760  178.3700  146.2960 O   0  0  0  0  0  0  0  0  0  0  0  0
  185.0830  178.7490  146.0260 C   0  0  0  0  0  0  0  0  0  0  0  0
  1  8  1  0  0  0  0
  2  1  1  1  0  0  0
  2 19  1  0  0  0  0
  3  5  1  0  0  0  0
  3 21  1  1  0  0  0
  4 12  1  6  0  0  0
  7  3  1  0  0  0  0
  7 17  1  0  0  0  0
  8  9  1  0  0  0  0
  9 13  1  0  0  0  0
 10 16  1  0  0  0  0
 11  6  2  0  0  0  0
 12 17  1  0  0  0  0
 13  4  1  0  0  0  0
 13  5  1  1  0  0  0
 14  1  2  0  0  0  0
 15 14  1  0  0  0  0
 15 10  2  0  0  0  0
 16  8  2  0  0  0  0
 18 41  1  1  0  0  0
 18 11  1  0  0  0  0
 19  4  1  0  0  0  0
 19 11  1  0  0  0  0
 20  2  1  0  0  0  0
 20 18  1  0  0  0  0
 21 23  2  0  0  0  0
 22 25  2  0  0  0  0
 23 27  1  0  0  0  0
 24 21  1  0  0  0  0
 24 22  1  0  0  0  0
 25 30  1  0  0  0  0
 25 26  1  0  0  0  0
 27 26  2  0  0  0  0
 28 30  2  0  0  0  0
 29 32  1  0  0  0  0
 30 29  1  0  0  0  0
 32 31  1  0  0  0  0
 32 33  1  0  0  0  0
 34 38  2  0  0  0  0
 35 14  1  0  0  0  0
 36 38  1  0  0  0  0
 36 37  1  0  0  0  0
 38 35  1  0  0  0  0
 39 40  1  0  0  0  0
 40 36  1  0  0  0  0
 41 43  2  0  0  0  0
 43 45  1  0  0  0  0
 43 42  1  0  0  0  0
 45 44  1  6  0  0  0
 45 48  1  0  0  0  0
 48 47  2  0  0  0  0
 48 46  1  0  0  0  0
M  END
>  <MODEL>
7

>  <REMARK>
 VINA RESULT:      -5.5      4.601     10.810
  Name = 
  8 active torsions:
  status: ('A' for Active; 'I' for Inactive)
    1  A    between atoms: C_1  and  C_6
    2  A    between atoms: N_17  and  C_30
    3  A    between atoms: N_22  and  C_40
    4  A    between atoms: C_24  and  C_38
    5  A    between atoms: C_25  and  N_31
    6  A    between atoms: C_26  and  C_32
    7  A    between atoms: C_35  and  C_47
    8  A    between atoms: C_44  and  C_47
                            x       y       z     vdW  Elec       q    Type
                         _______ _______ _______ _____ _____    ______ ____

>  <TORSDO>
F 8

$$$$
=
 OpenBabel11042417463D

 48 52  0  0  1  0  0  0  0  0999 V2000
  192.8190  170.5490  141.2060 C   0  0  0  0  0  0  0  0  0  0  0  0
  193.8390  171.6740  140.9750 C   0  0  2  0  0  3  0  0  0  0  0  0
  191.6140  174.3380  144.8610 C   0  0  1  0  0  3  0  0  0  0  0  0
  192.6520  173.7910  141.8010 C   0  0  2  0  0  3  0  0  0  0  0  0
  190.9090  173.8450  143.5830 C   0  0  0  0  0  2  0  0  0  0  0  0
  192.7020  174.4880  139.0290 O   0  0  0  0  0  0  0  0  0  0  0  0
  193.0760  174.7590  144.6520 C   0  0  0  0  0  2  0  0  0  0  0  0
  191.4600  170.8110  141.5460 C   0  0  0  0  0  0  0  0  0  0  0  0
  190.9930  172.0590  141.9710 O   0  0  0  0  0  0  0  0  0  0  0  0
  190.9380  168.4930  141.2990 N   0  0  0  0  0  0  0  0  0  0  0  0
  193.2950  173.4400  139.4040 C   0  0  0  0  0  0  0  0  0  0  0  0
  193.7740  174.4960  142.5610 C   0  0  0  0  0  2  0  0  0  0  0  0
  191.7980  172.9450  142.7340 C   0  0  1  0  0  3  0  0  0  0  0  0
  193.2230  169.1910  141.1150 C   0  0  0  0  0  0  0  0  0  0  0  0
  192.2470  168.1870  141.1320 C   0  0  0  0  0  3  0  0  0  0  0  0
  190.5350  169.7660  141.5220 C   0  0  0  0  0  3  0  0  0  0  0  0
  193.2380  175.4440  143.4430 O   0  0  0  0  0  0  0  0  0  0  0  0
  194.0990  172.6150  138.4740 C   0  0  2  0  0  3  0  0  0  0  0  0
  193.2000  172.9640  140.7370 N   0  0  0  0  0  0  0  0  0  0  0  0
  194.8980  171.3430  139.5030 S   0  0  0  0  0  0  0  0  0  0  0  0
  190.8460  175.4160  145.5720 C   0  0  0  0  0  0  0  0  0  0  0  0
  188.6770  175.4220  146.7720 C   0  0  0  0  0  3  0  0  0  0  0  0
  190.9190  176.6590  145.0890 C   0  0  0  0  0  3  0  0  0  0  0  0
  190.1380  175.1350  146.8640 C   0  0  0  0  0  2  0  0  0  0  0  0
  188.1660  176.6330  146.5210 C   0  0  0  0  0  0  0  0  0  0  0  0
  189.0130  177.8200  146.2450 C   0  0  0  0  0  3  0  0  0  0  0  0
  190.2010  177.8320  145.6250 C   0  0  0  0  0  3  0  0  0  0  0  0
  186.0260  176.2180  147.4550 O   0  0  0  0  0  0  0  0  0  0  0  0
  186.0440  177.6530  145.6160 N   0  0  0  0  0  2  0  0  0  0  0  0
  186.7030  176.8110  146.5700 C   0  0  0  0  0  0  0  0  0  0  0  0
  184.1870  178.5420  144.3360 C   0  0  0  0  0  1  0  0  0  0  0  0
  184.6110  177.9080  145.6460 C   0  0  0  0  0  3  0  0  0  0  0  0
  184.2770  178.8500  146.7870 C   0  0  0  0  0  1  0  0  0  0  0  0
  195.0910  168.5990  143.3720 N   0  0  0  0  0  2  0  0  0  0  0  0
  194.6200  168.8520  141.0590 N   0  0  0  0  0  2  0  0  0  0  0  0
  196.9070  168.3500  141.8790 N   0  0  0  0  0  0  0  0  0  0  0  0
  197.3980  168.3390  140.5100 C   0  0  0  0  0  1  0  0  0  0  0  0
  195.5220  168.6130  142.1520 C   0  0  0  0  0  0  0  0  0  0  0  0
  197.7480  169.1920  143.8880 O   0  0  0  0  0  1  0  0  0  0  0  0
  197.8770  168.1660  142.9520 C   0  0  0  0  0  2  0  0  0  0  0  0
  195.1620  173.4360  137.8150 C   0  0  0  0  0  3  0  0  0  0  0  0
  194.4970  172.7570  135.6710 F   0  0  0  0  0  0  0  0  0  0  0  0
  195.3070  173.4860  136.4890 C   0  0  0  0  0  0  0  0  0  0  0  0
  196.7620  173.8400  134.5140 C   0  0  0  0  0  1  0  0  0  0  0  0
  196.3970  174.3270  135.9070 C   0  0  1  0  0  3  0  0  0  0  0  0
  194.8440  176.1300  136.2190 O   0  0  0  0  0  1  0  0  0  0  0  0
  196.9550  176.7350  135.5680 O   0  0  0  0  0  0  0  0  0  0  0  0
  196.0090  175.7730  135.8960 C   0  0  0  0  0  0  0  0  0  0  0  0
  1  8  1  0  0  0  0
  2 20  1  6  0  0  0
  2  1  1  0  0  0  0
  3 21  1  6  0  0  0
  4 12  1  1  0  0  0
  4 13  1  0  0  0  0
  5  3  1  0  0  0  0
  6 11  2  0  0  0  0
  7  3  1  0  0  0  0
  8  9  1  0  0  0  0
  9 13  1  0  0  0  0
 10 16  1  0  0  0  0
 11 19  1  0  0  0  0
 12 17  1  0  0  0  0
 13  5  1  6  0  0  0
 14 15  1  0  0  0  0
 14  1  2  0  0  0  0
 15 10  2  0  0  0  0
 16  8  2  0  0  0  0
 17  7  1  0  0  0  0
 18 41  1  1  0  0  0
 18 11  1  0  0  0  0
 18 20  1  0  0  0  0
 19  2  1  0  0  0  0
 19  4  1  0  0  0  0
 21 24  1  0  0  0  0
 22 24  1  0  0  0  0
 23 21  2  0  0  0  0
 23 27  1  0  0  0  0
 25 30  1  0  0  0  0
 25 22  2  0  0  0  0
 26 25  1  0  0  0  0
 27 26  2  0  0  0  0
 29 32  1  0  0  0  0
 29 30  1  0  0  0  0
 30 28  2  0  0  0  0
 31 32  1  0  0  0  0
 32 33  1  0  0  0  0
 35 14  1  0  0  0  0
 35 38  1  0  0  0  0
 36 38  1  0  0  0  0
 36 40  1  0  0  0  0
 37 36  1  0  0  0  0
 38 34  2  0  0  0  0
 40 39  1  0  0  0  0
 42 43  1  0  0  0  0
 43 41  2  0  0  0  0
 45 44  1  6  0  0  0
 45 43  1  0  0  0  0
 47 48  2  0  0  0  0
 48 45  1  0  0  0  0
 48 46  1  0  0  0  0
M  END
>  <MODEL>
8

>  <REMARK>
 VINA RESULT:      -5.4      3.771      6.577
  Name = 
  8 active torsions:
  status: ('A' for Active; 'I' for Inactive)
    1  A    between atoms: C_1  and  C_6
    2  A    between atoms: N_17  and  C_30
    3  A    between atoms: N_22  and  C_40
    4  A    between atoms: C_24  and  C_38
    5  A    between atoms: C_25  and  N_31
    6  A    between atoms: C_26  and  C_32
    7  A    between atoms: C_35  and  C_47
    8  A    between atoms: C_44  and  C_47
                            x       y       z     vdW  Elec       q    Type
                         _______ _______ _______ _____ _____    ______ ____

>  <TORSDO>
F 8

$$$$
=
 OpenBabel11042417463D

 48 52  0  0  1  0  0  0  0  0999 V2000
  192.0140  171.0150  141.3400 C   0  0  0  0  0  0  0  0  0  0  0  0
  193.0070  172.0480  141.8910 C   0  0  2  0  0  3  0  0  0  0  0  0
  188.9700  174.7910  143.7130 C   0  0  1  0  0  3  0  0  0  0  0  0
  191.6780  174.2400  141.9530 C   0  0  2  0  0  3  0  0  0  0  0  0
  189.2070  174.4010  142.2420 C   0  0  0  0  0  2  0  0  0  0  0  0
  193.5070  175.0080  139.8940 O   0  0  0  0  0  0  0  0  0  0  0  0
  190.2530  175.0840  144.5030 C   0  0  0  0  0  2  0  0  0  0  0  0
  190.7630  171.3890  140.7700 C   0  0  0  0  0  0  0  0  0  0  0  0
  190.1980  172.6620  140.9050 O   0  0  0  0  0  0  0  0  0  0  0  0
  190.3940  169.1360  140.0670 N   0  0  0  0  0  0  0  0  0  0  0  0
  193.6740  173.9000  140.4740 C   0  0  0  0  0  0  0  0  0  0  0  0
  192.1010  174.8180  143.3020 C   0  0  0  0  0  2  0  0  0  0  0  0
  190.3840  173.4490  142.0720 C   0  0  1  0  0  3  0  0  0  0  0  0
  192.3130  169.6290  141.4150 C   0  0  0  0  0  0  0  0  0  0  0  0
  191.4950  168.7170  140.7360 C   0  0  0  0  0  3  0  0  0  0  0  0
  190.0080  170.4340  140.0880 C   0  0  0  0  0  3  0  0  0  0  0  0
  191.1800  175.7850  143.7240 O   0  0  0  0  0  0  0  0  0  0  0  0
  194.8390  173.0320  140.1940 C   0  0  2  0  0  3  0  0  0  0  0  0
  192.7320  173.3970  141.4080 N   0  0  0  0  0  0  0  0  0  0  0  0
  194.7390  171.6650  141.3910 S   0  0  0  0  0  0  0  0  0  0  0  0
  187.9820  175.9140  143.8660 C   0  0  0  0  0  0  0  0  0  0  0  0
  185.7000  176.2790  142.9720 C   0  0  0  0  0  3  0  0  0  0  0  0
  188.4600  177.1570  143.9730 C   0  0  0  0  0  3  0  0  0  0  0  0
  186.5190  175.6370  144.0400 C   0  0  0  0  0  2  0  0  0  0  0  0
  185.6330  177.6010  142.7740 C   0  0  0  0  0  0  0  0  0  0  0  0
  186.4240  178.5730  143.5670 C   0  0  0  0  0  3  0  0  0  0  0  0
  187.6450  178.3830  144.0840 C   0  0  0  0  0  3  0  0  0  0  0  0
  185.1320  178.5040  140.6390 O   0  0  0  0  0  0  0  0  0  0  0  0
  183.2930  178.1950  142.0400 N   0  0  0  0  0  2  0  0  0  0  0  0
  184.6960  178.1210  141.7590 C   0  0  0  0  0  0  0  0  0  0  0  0
  181.0310  179.0240  141.7740 C   0  0  0  0  0  1  0  0  0  0  0  0
  182.3160  178.6500  141.0620 C   0  0  0  0  0  3  0  0  0  0  0  0
  182.0300  177.5450  140.0630 C   0  0  0  0  0  1  0  0  0  0  0  0
  192.4550  169.3520  144.3880 N   0  0  0  0  0  2  0  0  0  0  0  0
  193.4100  169.1660  142.2220 N   0  0  0  0  0  2  0  0  0  0  0  0
  194.7090  168.6460  144.2720 N   0  0  0  0  0  0  0  0  0  0  0  0
  195.8650  168.3130  143.4570 C   0  0  0  0  0  1  0  0  0  0  0  0
  193.4860  169.0780  143.6550 C   0  0  0  0  0  0  0  0  0  0  0  0
  195.5180  169.7510  146.1630 O   0  0  0  0  0  1  0  0  0  0  0  0
  194.8610  168.6030  145.7210 C   0  0  0  0  0  2  0  0  0  0  0  0
  196.1210  173.7720  140.4160 C   0  0  0  0  0  3  0  0  0  0  0  0
  195.5950  174.2120  142.6590 F   0  0  0  0  0  0  0  0  0  0  0  0
  196.4460  174.3010  141.5980 C   0  0  0  0  0  0  0  0  0  0  0  0
  197.9390  176.0000  140.5860 C   0  0  0  0  0  1  0  0  0  0  0  0
  197.7440  175.0280  141.7390 C   0  0  1  0  0  3  0  0  0  0  0  0
  197.9360  175.0650  144.1310 O   0  0  0  0  0  1  0  0  0  0  0  0
  197.8240  177.1110  143.1080 O   0  0  0  0  0  0  0  0  0  0  0  0
  197.8260  175.7240  143.0620 C   0  0  0  0  0  0  0  0  0  0  0  0
  1 14  1  0  0  0  0
  2  1  1  6  0  0  0
  3 21  1  6  0  0  0
  3  7  1  0  0  0  0
  4 13  1  0  0  0  0
  4 12  1  1  0  0  0
  5  3  1  0  0  0  0
  6 11  2  0  0  0  0
  8  9  1  0  0  0  0
  8  1  2  0  0  0  0
  9 13  1  0  0  0  0
 10 16  2  0  0  0  0
 10 15  1  0  0  0  0
 11 19  1  0  0  0  0
 12 17  1  0  0  0  0
 13  5  1  6  0  0  0
 14 35  1  0  0  0  0
 15 14  2  0  0  0  0
 16  8  1  0  0  0  0
 17  7  1  0  0  0  0
 18 41  1  1  0  0  0
 18 11  1  0  0  0  0
 18 20  1  0  0  0  0
 19  2  1  0  0  0  0
 19  4  1  0  0  0  0
 20  2  1  0  0  0  0
 21 23  2  0  0  0  0
 21 24  1  0  0  0  0
 22 24  1  0  0  0  0
 23 27  1  0  0  0  0
 25 22  2  0  0  0  0
 25 26  1  0  0  0  0
 26 27  2  0  0  0  0
 28 30  2  0  0  0  0
 30 29  1  0  0  0  0
 30 25  1  0  0  0  0
 32 31  1  0  0  0  0
 32 29  1  0  0  0  0
 33 32  1  0  0  0  0
 35 38  1  0  0  0  0
 36 40  1  0  0  0  0
 37 36  1  0  0  0  0
 38 36  1  0  0  0  0
 38 34  2  0  0  0  0
 40 39  1  0  0  0  0
 41 43  2  0  0  0  0
 43 45  1  0  0  0  0
 43 42  1  0  0  0  0
 45 44  1  6  0  0  0
 45 48  1  0  0  0  0
 48 47  2  0  0  0  0
 48 46  1  0  0  0  0
M  END
>  <MODEL>
9

>  <REMARK>
 VINA RESULT:      -5.3      2.749      5.875
  Name = 
  8 active torsions:
  status: ('A' for Active; 'I' for Inactive)
    1  A    between atoms: C_1  and  C_6
    2  A    between atoms: N_17  and  C_30
    3  A    between atoms: N_22  and  C_40
    4  A    between atoms: C_24  and  C_38
    5  A    between atoms: C_25  and  N_31
    6  A    between atoms: C_26  and  C_32
    7  A    between atoms: C_35  and  C_47
    8  A    between atoms: C_44  and  C_47
                            x       y       z     vdW  Elec       q    Type
                         _______ _______ _______ _____ _____    ______ ____

>  <TORSDO>
F 8

$$$$
