=
 OpenBabel11042418293D

 30 36  0  0  1  0  0  0  0  0999 V2000
  185.7570  176.8460  144.8950 C   0  0  0  0  0  2  0  0  0  0  0  0
  190.1700  176.1580  142.7120 C   0  0  0  0  0  2  0  0  0  0  0  0
  190.0610  172.5260  143.7380 C   0  0  2  0  0  3  0  0  0  0  0  0
  190.7260  173.1850  144.9820 C   0  0  0  0  0  1  0  0  0  0  0  0
  188.6070  173.1480  142.4270 C   0  0  2  0  0  3  0  0  0  0  0  0
  187.6540  175.9710  142.1350 C   0  0  0  0  0  2  0  0  0  0  0  0
  191.2910  176.4380  148.1870 C   0  0  0  0  0  3  0  0  0  0  0  0
  188.7840  176.8180  142.7310 C   0  0  1  0  0  3  0  0  0  0  0  0
  190.9930  175.2330  147.5510 C   0  0  0  0  0  3  0  0  0  0  0  0
  189.6790  173.9210  145.9060 C   0  0  0  0  0  2  0  0  0  0  0  0
  189.6110  177.5300  146.8840 N   0  0  0  0  0  0  0  0  0  0  0  0
  190.5800  177.5890  147.8370 C   0  0  0  0  0  3  0  0  0  0  0  0
  188.2090  176.3640  145.2060 C   0  0  1  0  0  3  0  0  0  0  0  0
  186.8380  176.4520  145.8930 C   0  0  0  0  0  2  0  0  0  0  0  0
  188.4580  177.4280  144.1020 C   0  0  2  0  0  3  0  0  0  0  0  0
  188.1630  175.1470  140.9520 C   0  0  0  0  0  2  0  0  0  0  0  0
  189.4160  171.8860  142.5310 C   0  0  0  0  0  2  0  0  0  0  0  0
  187.3640  178.4640  143.9790 C   0  0  0  0  0  3  0  0  0  0  0  0
  189.2120  174.1080  141.3850 C   0  0  1  0  0  3  0  0  0  0  0  0
  190.2000  174.6420  142.4410 C   0  0  2  0  0  3  0  0  0  0  0  0
  190.2440  173.6580  144.7870 C   0  0  2  0  0  0  0  0  0  0  0  0
  189.9920  175.1850  146.5760 C   0  0  0  0  0  0  0  0  0  0  0  0
  189.4690  173.8230  143.5040 C   0  0  2  0  0  0  0  0  0  0  0  0
  189.3020  176.3710  146.2410 C   0  0  0  0  0  0  0  0  0  0  0  0
  186.0980  178.1860  144.3150 C   0  0  0  0  0  0  0  0  0  0  0  0
  185.0590  179.2510  144.2410 C   0  0  0  0  0  2  0  0  0  0  0  0
  184.8470  178.5520  141.4930 O   0  0  0  0  0  0  0  0  0  0  0  0
  183.8610  178.7250  143.6040 N   0  0  0  0  0  2  0  0  0  0  0  0
  183.8280  178.3930  142.2170 C   0  0  0  0  0  0  0  0  0  0  0  0
  182.6600  177.8910  141.6590 O   0  0  0  0  0  1  0  0  0  0  0  0
  1 14  1  0  0  0  0
  2  8  1  0  0  0  0
  3 17  1  1  0  0  0
  3 21  1  0  0  0  0
  5 17  1  6  0  0  0
  5 23  1  0  0  0  0
  8  6  1  1  0  0  0
  8 15  1  0  0  0  0
  9  7  2  0  0  0  0
 10 22  1  0  0  0  0
 11 12  2  0  0  0  0
 12  7  1  0  0  0  0
 13 14  1  1  0  0  0
 13 24  1  0  0  0  0
 15 18  1  6  0  0  0
 15 13  1  0  0  0  0
 16  6  1  0  0  0  0
 18 25  2  0  0  0  0
 19 16  1  1  0  0  0
 19  5  1  0  0  0  0
 19 20  1  0  0  0  0
 20  2  1  1  0  0  0
 20 23  1  0  0  0  0
 21  4  1  6  0  0  0
 21 10  1  0  0  0  0
 22  9  1  0  0  0  0
 23  3  1  0  0  0  0
 23 21  1  0  0  0  0
 24 22  2  0  0  0  0
 24 11  1  0  0  0  0
 25  1  1  0  0  0  0
 26 25  1  0  0  0  0
 27 29  2  0  0  0  0
 28 26  1  0  0  0  0
 29 28  1  0  0  0  0
 30 29  1  0  0  0  0
M  END
>  <MODEL>
1

>  <REMARK>
 VINA RESULT:      -9.1      0.000      0.000
  Name = 
  2 active torsions:
  status: ('A' for Active; 'I' for Inactive)
    1  A    between atoms: C_10  and  N_13
    2  A    between atoms: C_10  and  C_30
                            x       y       z     vdW  Elec       q    Type
                         _______ _______ _______ _____ _____    ______ ____

>  <TORSDO>
F 2

$$$$
=
 OpenBabel11042418293D

 30 36  0  0  1  0  0  0  0  0999 V2000
  188.8750  173.0710  142.6450 C   0  0  0  0  0  2  0  0  0  0  0  0
  189.3820  177.7130  144.3530 C   0  0  0  0  0  2  0  0  0  0  0  0
  186.1640  177.3040  146.2870 C   0  0  2  0  0  3  0  0  0  0  0  0
  185.6430  177.8160  144.9120 C   0  0  0  0  0  1  0  0  0  0  0  0
  187.7190  176.0760  146.8310 C   0  0  2  0  0  3  0  0  0  0  0  0
  189.9940  175.2960  145.0490 C   0  0  0  0  0  2  0  0  0  0  0  0
  185.5210  178.0670  140.3180 C   0  0  0  0  0  3  0  0  0  0  0  0
  190.0040  176.3670  143.9530 C   0  0  1  0  0  3  0  0  0  0  0  0
  185.1840  177.8090  141.6470 C   0  0  0  0  0  3  0  0  0  0  0  0
  185.6270  176.6830  143.8130 C   0  0  0  0  0  2  0  0  0  0  0  0
  187.4220  176.6350  140.5320 N   0  0  0  0  0  0  0  0  0  0  0  0
  186.6560  177.4630  139.7720 C   0  0  0  0  0  3  0  0  0  0  0  0
  188.0010  175.4320  142.6200 C   0  0  1  0  0  3  0  0  0  0  0  0
  187.7500  173.9840  142.1750 C   0  0  0  0  0  2  0  0  0  0  0  0
  189.4890  175.8790  142.5910 C   0  0  2  0  0  3  0  0  0  0  0  0
  190.2050  175.9290  146.4240 C   0  0  0  0  0  2  0  0  0  0  0  0
  186.6700  176.8070  147.6210 C   0  0  0  0  0  2  0  0  0  0  0  0
  190.4320  174.8590  141.9970 C   0  0  0  0  0  3  0  0  0  0  0  0
  189.0430  176.8620  146.8110 C   0  0  1  0  0  3  0  0  0  0  0  0
  188.5280  177.7150  145.6350 C   0  0  2  0  0  3  0  0  0  0  0  0
  186.1710  177.3870  144.7340 C   0  0  2  0  0  0  0  0  0  0  0  0
  185.9780  176.9540  142.4160 C   0  0  0  0  0  0  0  0  0  0  0  0
  187.3020  176.8070  145.5460 C   0  0  2  0  0  0  0  0  0  0  0  0
  187.1240  176.3690  141.8330 C   0  0  0  0  0  0  0  0  0  0  0  0
  190.1670  173.5480  142.0510 C   0  0  0  0  0  0  0  0  0  0  0  0
  191.0890  172.5760  141.3980 C   0  0  0  0  0  2  0  0  0  0  0  0
  190.4210  173.0470  138.6760 O   0  0  0  0  0  1  0  0  0  0  0  0
  190.3280  171.6650  140.5570 N   0  0  0  0  0  2  0  0  0  0  0  0
  190.0310  171.9670  139.1940 C   0  0  0  0  0  0  0  0  0  0  0  0
  189.3040  171.0610  138.4340 O   0  0  0  0  0  0  0  0  0  0  0  0
  3 17  1  6  0  0  0
  5 17  1  1  0  0  0
  6 16  1  0  0  0  0
  7  9  1  0  0  0  0
  8  2  1  1  0  0  0
  8  6  1  0  0  0  0
  9 22  2  0  0  0  0
 10 21  1  0  0  0  0
 11 24  2  0  0  0  0
 12  7  2  0  0  0  0
 12 11  1  0  0  0  0
 13 14  1  6  0  0  0
 14  1  1  0  0  0  0
 15 18  1  1  0  0  0
 15 13  1  0  0  0  0
 15  8  1  0  0  0  0
 18 25  2  0  0  0  0
 19 16  1  6  0  0  0
 19  5  1  0  0  0  0
 20  2  1  6  0  0  0
 20 19  1  0  0  0  0
 21  4  1  6  0  0  0
 21 23  1  0  0  0  0
 21  3  1  0  0  0  0
 22 10  1  0  0  0  0
 23 20  1  0  0  0  0
 23  3  1  0  0  0  0
 23  5  1  0  0  0  0
 24 22  1  0  0  0  0
 24 13  1  0  0  0  0
 25  1  1  0  0  0  0
 26 25  1  0  0  0  0
 27 29  1  0  0  0  0
 28 26  1  0  0  0  0
 29 28  1  0  0  0  0
 30 29  2  0  0  0  0
M  END
>  <MODEL>
2

>  <REMARK>
 VINA RESULT:      -9.1      3.240      6.620
  Name = 
  2 active torsions:
  status: ('A' for Active; 'I' for Inactive)
    1  A    between atoms: C_10  and  N_13
    2  A    between atoms: C_10  and  C_30
                            x       y       z     vdW  Elec       q    Type
                         _______ _______ _______ _____ _____    ______ ____

>  <TORSDO>
F 2

$$$$
=
 OpenBabel11042418293D

 30 36  0  0  1  0  0  0  0  0999 V2000
  188.7890  178.0090  143.0000 C   0  0  0  0  0  2  0  0  0  0  0  0
  189.6190  174.8260  146.7280 C   0  0  0  0  0  2  0  0  0  0  0  0
  193.2920  174.8250  145.8490 C   0  0  2  0  0  3  0  0  0  0  0  0
  192.7490  173.6870  144.9350 C   0  0  0  0  0  1  0  0  0  0  0  0
  192.5050  176.6140  146.4830 C   0  0  2  0  0  3  0  0  0  0  0  0
  189.6170  177.3790  146.3010 C   0  0  0  0  0  2  0  0  0  0  0  0
  189.7280  171.6910  142.0940 C   0  0  0  0  0  3  0  0  0  0  0  0
  188.8770  176.0440  146.1590 C   0  0  1  0  0  3  0  0  0  0  0  0
  190.8740  172.3030  142.6030 C   0  0  0  0  0  3  0  0  0  0  0  0
  192.0050  174.2420  143.6590 C   0  0  0  0  0  2  0  0  0  0  0  0
  188.4610  173.6470  142.6200 N   0  0  0  0  0  0  0  0  0  0  0  0
  188.5180  172.3880  142.1100 C   0  0  0  0  0  3  0  0  0  0  0  0
  189.4390  175.6700  143.6670 C   0  0  1  0  0  3  0  0  0  0  0  0
  189.3070  176.6650  142.5050 C   0  0  0  0  0  2  0  0  0  0  0  0
  188.3290  175.7750  144.7500 C   0  0  2  0  0  3  0  0  0  0  0  0
  190.4000  177.4250  147.6130 C   0  0  0  0  0  2  0  0  0  0  0  0
  193.8190  175.9290  146.7360 C   0  0  0  0  0  2  0  0  0  0  0  0
  187.2230  176.7480  144.4130 C   0  0  0  0  0  3  0  0  0  0  0  0
  191.5260  176.3760  147.6470 C   0  0  1  0  0  3  0  0  0  0  0  0
  191.1160  175.0220  147.0360 C   0  0  2  0  0  3  0  0  0  0  0  0
  192.2360  174.1680  144.9160 C   0  0  2  0  0  0  0  0  0  0  0  0
  190.8030  173.5990  143.1210 C   0  0  0  0  0  0  0  0  0  0  0  0
  191.9490  175.3570  145.7990 C   0  0  2  0  0  0  0  0  0  0  0  0
  189.5600  174.2690  143.1310 C   0  0  0  0  0  0  0  0  0  0  0  0
  187.4420  177.8090  143.6260 C   0  0  0  0  0  0  0  0  0  0  0  0
  186.3120  178.7110  143.2630 C   0  0  0  0  0  2  0  0  0  0  0  0
  183.6870  178.0810  142.3720 O   0  0  0  0  0  1  0  0  0  0  0  0
  185.9330  178.4910  141.8760 N   0  0  0  0  0  2  0  0  0  0  0  0
  184.5910  178.1790  141.5010 C   0  0  0  0  0  0  0  0  0  0  0  0
  184.2820  177.9820  140.1620 O   0  0  0  0  0  0  0  0  0  0  0  0
  1 25  1  0  0  0  0
  3 17  1  6  0  0  0
  5 17  1  1  0  0  0
  5 19  1  0  0  0  0
  6 16  1  0  0  0  0
  7 12  2  0  0  0  0
  7  9  1  0  0  0  0
  8  6  1  6  0  0  0
  8  2  1  0  0  0  0
  9 22  2  0  0  0  0
 10 21  1  0  0  0  0
 11 24  2  0  0  0  0
 12 11  1  0  0  0  0
 13 14  1  6  0  0  0
 13 15  1  0  0  0  0
 14  1  1  0  0  0  0
 15 18  1  6  0  0  0
 15  8  1  0  0  0  0
 19 16  1  6  0  0  0
 20  2  1  6  0  0  0
 20 19  1  0  0  0  0
 21  4  1  1  0  0  0
 21 23  1  0  0  0  0
 21  3  1  0  0  0  0
 22 24  1  0  0  0  0
 22 10  1  0  0  0  0
 23  3  1  0  0  0  0
 23  5  1  0  0  0  0
 23 20  1  0  0  0  0
 24 13  1  0  0  0  0
 25 18  2  0  0  0  0
 26 25  1  0  0  0  0
 28 26  1  0  0  0  0
 29 28  1  0  0  0  0
 29 27  1  0  0  0  0
 30 29  2  0  0  0  0
M  END
>  <MODEL>
3

>  <REMARK>
 VINA RESULT:      -8.8      1.828      4.534
  Name = 
  2 active torsions:
  status: ('A' for Active; 'I' for Inactive)
    1  A    between atoms: C_10  and  N_13
    2  A    between atoms: C_10  and  C_30
                            x       y       z     vdW  Elec       q    Type
                         _______ _______ _______ _____ _____    ______ ____

>  <TORSDO>
F 2

$$$$
=
 OpenBabel11042418293D

 30 36  0  0  1  0  0  0  0  0999 V2000
  188.9970  177.9420  142.9050 C   0  0  0  0  0  2  0  0  0  0  0  0
  189.6970  174.8950  146.7710 C   0  0  0  0  0  2  0  0  0  0  0  0
  193.3980  174.8700  146.0230 C   0  0  2  0  0  3  0  0  0  0  0  0
  192.8880  173.6990  145.1320 C   0  0  0  0  0  1  0  0  0  0  0  0
  192.5880  176.6790  146.5640 C   0  0  2  0  0  3  0  0  0  0  0  0
  189.7080  177.4310  146.2540 C   0  0  0  0  0  2  0  0  0  0  0  0
  189.9720  171.5970  142.2590 C   0  0  0  0  0  3  0  0  0  0  0  0
  188.9740  176.0910  146.1330 C   0  0  1  0  0  3  0  0  0  0  0  0
  191.0980  172.2290  142.7860 C   0  0  0  0  0  3  0  0  0  0  0  0
  192.1900  174.2070  143.8110 C   0  0  0  0  0  2  0  0  0  0  0  0
  188.6850  173.5690  142.6690 N   0  0  0  0  0  0  0  0  0  0  0  0
  188.7610  172.2910  142.2070 C   0  0  0  0  0  3  0  0  0  0  0  0
  189.6240  175.6290  143.6780 C   0  0  1  0  0  3  0  0  0  0  0  0
  189.5330  176.5820  142.4760 C   0  0  0  0  0  2  0  0  0  0  0  0
  188.4770  175.7710  144.7160 C   0  0  2  0  0  3  0  0  0  0  0  0
  190.4440  177.5260  147.5900 C   0  0  0  0  0  2  0  0  0  0  0  0
  193.8930  176.0060  146.8870 C   0  0  0  0  0  2  0  0  0  0  0  0
  187.3820  176.7290  144.3060 C   0  0  0  0  0  3  0  0  0  0  0  0
  191.5690  176.4810  147.7010 C   0  0  1  0  0  3  0  0  0  0  0  0
  191.1820  175.1050  147.1240 C   0  0  2  0  0  3  0  0  0  0  0  0
  192.3760  174.1780  145.0770 C   0  0  2  0  0  0  0  0  0  0  0  0
  191.0080  173.5420  143.2540 C   0  0  0  0  0  0  0  0  0  0  0  0
  192.0570  175.3970  145.9060 C   0  0  2  0  0  0  0  0  0  0  0  0
  189.7650  174.2100  143.1960 C   0  0  0  0  0  0  0  0  0  0  0  0
  187.6280  177.7610  143.4890 C   0  0  0  0  0  0  0  0  0  0  0  0
  186.5110  178.6470  143.0550 C   0  0  0  0  0  2  0  0  0  0  0  0
  183.6910  178.2930  143.1210 O   0  0  0  0  0  0  0  0  0  0  0  0
  185.6580  178.9550  144.1930 N   0  0  0  0  0  2  0  0  0  0  0  0
  184.2460  178.7490  144.1550 C   0  0  0  0  0  0  0  0  0  0  0  0
  183.4780  179.0560  145.2700 O   0  0  0  0  0  1  0  0  0  0  0  0
  1 25  1  0  0  0  0
  3 17  1  6  0  0  0
  5 17  1  1  0  0  0
  5 19  1  0  0  0  0
  6 16  1  0  0  0  0
  7  9  1  0  0  0  0
  8  6  1  6  0  0  0
  8  2  1  0  0  0  0
  9 22  2  0  0  0  0
 10 21  1  0  0  0  0
 11 24  2  0  0  0  0
 12  7  2  0  0  0  0
 12 11  1  0  0  0  0
 13 14  1  6  0  0  0
 13 15  1  0  0  0  0
 14  1  1  0  0  0  0
 15 18  1  6  0  0  0
 15  8  1  0  0  0  0
 19 16  1  6  0  0  0
 20  2  1  6  0  0  0
 20 19  1  0  0  0  0
 21  4  1  1  0  0  0
 21 23  1  0  0  0  0
 21  3  1  0  0  0  0
 22 10  1  0  0  0  0
 23  3  1  0  0  0  0
 23  5  1  0  0  0  0
 23 20  1  0  0  0  0
 24 22  1  0  0  0  0
 24 13  1  0  0  0  0
 25 18  2  0  0  0  0
 26 25  1  0  0  0  0
 26 28  1  0  0  0  0
 27 29  2  0  0  0  0
 29 28  1  0  0  0  0
 29 30  1  0  0  0  0
M  END
>  <MODEL>
4

>  <REMARK>
 VINA RESULT:      -8.7      1.932      4.618
  Name = 
  2 active torsions:
  status: ('A' for Active; 'I' for Inactive)
    1  A    between atoms: C_10  and  N_13
    2  A    between atoms: C_10  and  C_30
                            x       y       z     vdW  Elec       q    Type
                         _______ _______ _______ _____ _____    ______ ____

>  <TORSDO>
F 2

$$$$
=
 OpenBabel11042418293D

 30 36  0  0  1  0  0  0  0  0999 V2000
  188.3330  175.5440  146.8940 C   0  0  0  0  0  2  0  0  0  0  0  0
  190.6270  175.8080  142.4910 C   0  0  0  0  0  2  0  0  0  0  0  0
  191.2910  172.0950  142.6650 C   0  0  2  0  0  3  0  0  0  0  0  0
  192.5360  172.6730  143.4010 C   0  0  0  0  0  1  0  0  0  0  0  0
  189.3200  172.6670  142.5770 C   0  0  2  0  0  3  0  0  0  0  0  0
  188.2660  175.3320  143.4390 C   0  0  0  0  0  2  0  0  0  0  0  0
  194.7530  175.5180  146.2590 C   0  0  0  0  0  3  0  0  0  0  0  0
  189.4940  176.2490  143.4290 C   0  0  1  0  0  3  0  0  0  0  0  0
  194.1860  174.3780  145.6900 C   0  0  0  0  0  3  0  0  0  0  0  0
  192.2090  173.1180  144.8800 C   0  0  0  0  0  2  0  0  0  0  0  0
  192.5860  176.5150  146.3980 N   0  0  0  0  0  0  0  0  0  0  0  0
  193.9280  176.5880  146.6110 C   0  0  0  0  0  3  0  0  0  0  0  0
  190.5120  175.3900  145.6410 C   0  0  1  0  0  3  0  0  0  0  0  0
  189.8100  175.1830  146.9910 C   0  0  0  0  0  2  0  0  0  0  0  0
  190.0170  176.6170  144.8260 C   0  0  2  0  0  3  0  0  0  0  0  0
  188.0100  174.7570  142.0470 C   0  0  0  0  0  2  0  0  0  0  0  0
  190.0840  171.5340  141.9500 C   0  0  0  0  0  2  0  0  0  0  0  0
  189.0210  177.4870  145.5560 C   0  0  0  0  0  3  0  0  0  0  0  0
  189.1530  173.8340  141.5870 C   0  0  1  0  0  3  0  0  0  0  0  0
  190.5520  174.3620  141.9640 C   0  0  2  0  0  3  0  0  0  0  0  0
  192.0130  173.0920  143.6140 C   0  0  2  0  0  0  0  0  0  0  0  0
  192.8060  174.3140  145.4790 C   0  0  0  0  0  0  0  0  0  0  0  0
  190.6240  173.3110  143.0700 C   0  0  2  0  0  0  0  0  0  0  0  0
  192.0040  175.4190  145.8380 C   0  0  0  0  0  0  0  0  0  0  0  0
  188.2110  176.9840  146.4960 C   0  0  0  0  0  0  0  0  0  0  0  0
  187.2870  177.8860  147.2400 C   0  0  0  0  0  2  0  0  0  0  0  0
  184.8090  176.6800  146.5390 O   0  0  0  0  0  1  0  0  0  0  0  0
  186.3120  178.4560  146.3230 N   0  0  0  0  0  2  0  0  0  0  0  0
  185.0850  177.7940  146.0190 C   0  0  0  0  0  0  0  0  0  0  0  0
  184.1880  178.3830  145.1380 O   0  0  0  0  0  0  0  0  0  0  0  0
  1 14  1  0  0  0  0
  3 17  1  1  0  0  0
  3 23  1  0  0  0  0
  3 21  1  0  0  0  0
  5 17  1  6  0  0  0
  5 23  1  0  0  0  0
  7 12  1  0  0  0  0
  8  2  1  6  0  0  0
  8  6  1  0  0  0  0
  8 15  1  0  0  0  0
  9  7  2  0  0  0  0
 10 22  1  0  0  0  0
 11 12  2  0  0  0  0
 13 24  1  0  0  0  0
 13 14  1  1  0  0  0
 15 18  1  1  0  0  0
 15 13  1  0  0  0  0
 16  6  1  0  0  0  0
 18 25  2  0  0  0  0
 19 20  1  0  0  0  0
 19 16  1  1  0  0  0
 19  5  1  0  0  0  0
 20  2  1  1  0  0  0
 20 23  1  0  0  0  0
 21  4  1  6  0  0  0
 21 10  1  0  0  0  0
 22  9  1  0  0  0  0
 22 24  2  0  0  0  0
 23 21  1  0  0  0  0
 24 11  1  0  0  0  0
 25  1  1  0  0  0  0
 25 26  1  0  0  0  0
 28 26  1  0  0  0  0
 29 28  1  0  0  0  0
 29 27  1  0  0  0  0
 30 29  2  0  0  0  0
M  END
>  <MODEL>
5

>  <REMARK>
 VINA RESULT:      -8.6      2.261      2.855
  Name = 
  2 active torsions:
  status: ('A' for Active; 'I' for Inactive)
    1  A    between atoms: C_10  and  N_13
    2  A    between atoms: C_10  and  C_30
                            x       y       z     vdW  Elec       q    Type
                         _______ _______ _______ _____ _____    ______ ____

>  <TORSDO>
F 2

$$$$
=
 OpenBabel11042418293D

 30 36  0  0  1  0  0  0  0  0999 V2000
  189.0090  177.5100  145.0580 C   0  0  0  0  0  2  0  0  0  0  0  0
  192.4770  174.0480  145.9010 C   0  0  0  0  0  2  0  0  0  0  0  0
  194.6590  175.6580  143.2730 C   0  0  2  0  0  3  0  0  0  0  0  0
  193.8120  174.6700  142.4180 C   0  0  0  0  0  1  0  0  0  0  0  0
  194.2400  176.7940  144.9330 C   0  0  2  0  0  3  0  0  0  0  0  0
  191.8560  176.4290  146.7050 C   0  0  0  0  0  2  0  0  0  0  0  0
  189.9750  172.4660  141.1520 C   0  0  0  0  0  3  0  0  0  0  0  0
  191.3880  174.9960  146.4250 C   0  0  1  0  0  3  0  0  0  0  0  0
  191.0820  173.3160  141.1610 C   0  0  0  0  0  3  0  0  0  0  0  0
  192.3530  175.2050  142.1470 C   0  0  0  0  0  2  0  0  0  0  0  0
  189.1040  173.5970  143.0690 N   0  0  0  0  0  0  0  0  0  0  0  0
  188.9850  172.6250  142.1240 C   0  0  0  0  0  3  0  0  0  0  0  0
  190.2430  175.5040  144.1680 C   0  0  1  0  0  3  0  0  0  0  0  0
  189.2570  176.6340  143.8370 C   0  0  0  0  0  2  0  0  0  0  0  0
  190.1000  174.9050  145.5940 C   0  0  2  0  0  3  0  0  0  0  0  0
  193.2870  176.4350  147.2420 C   0  0  0  0  0  2  0  0  0  0  0  0
  195.4800  176.6170  144.1030 C   0  0  0  0  0  2  0  0  0  0  0  0
  188.9220  175.4380  146.3760 C   0  0  0  0  0  3  0  0  0  0  0  0
  194.2930  175.9180  146.1980 C   0  0  1  0  0  3  0  0  0  0  0  0
  193.7720  174.7110  145.3940 C   0  0  2  0  0  3  0  0  0  0  0  0
  193.3510  174.9090  142.8920 C   0  0  2  0  0  0  0  0  0  0  0  0
  191.1900  174.3130  142.1340 C   0  0  0  0  0  0  0  0  0  0  0  0
  193.5480  175.6370  144.1980 C   0  0  2  0  0  0  0  0  0  0  0  0
  190.1750  174.4370  143.1080 C   0  0  0  0  0  0  0  0  0  0  0  0
  188.4320  176.6640  146.1530 C   0  0  0  0  0  0  0  0  0  0  0  0
  187.2300  177.1310  146.8990 C   0  0  0  0  0  2  0  0  0  0  0  0
  184.8430  178.5100  147.5930 O   0  0  0  0  0  1  0  0  0  0  0  0
  186.1910  177.5250  145.9590 N   0  0  0  0  0  2  0  0  0  0  0  0
  185.0170  178.2190  146.3800 C   0  0  0  0  0  0  0  0  0  0  0  0
  184.0580  178.5750  145.4420 O   0  0  0  0  0  0  0  0  0  0  0  0
  1 25  1  0  0  0  0
  3 17  1  6  0  0  0
  3 23  1  0  0  0  0
  5 17  1  6  0  0  0
  5 19  1  0  0  0  0
  6 16  1  0  0  0  0
  7  9  2  0  0  0  0
  7 12  1  0  0  0  0
  8  2  1  6  0  0  0
  8  6  1  0  0  0  0
  9 22  1  0  0  0  0
 10 21  1  0  0  0  0
 11 24  1  0  0  0  0
 12 11  2  0  0  0  0
 13 14  1  6  0  0  0
 13 15  1  0  0  0  0
 14  1  1  0  0  0  0
 15 18  1  1  0  0  0
 15  8  1  0  0  0  0
 19 16  1  1  0  0  0
 20  2  1  1  0  0  0
 20 19  1  0  0  0  0
 21  4  1  1  0  0  0
 21  3  1  0  0  0  0
 21 23  1  0  0  0  0
 22 10  1  0  0  0  0
 22 24  2  0  0  0  0
 23  5  1  0  0  0  0
 23 20  1  0  0  0  0
 24 13  1  0  0  0  0
 25 18  2  0  0  0  0
 25 26  1  0  0  0  0
 28 29  1  0  0  0  0
 28 26  1  0  0  0  0
 29 27  1  0  0  0  0
 30 29  2  0  0  0  0
M  END
>  <MODEL>
6

>  <REMARK>
 VINA RESULT:      -8.3      3.003      5.324
  Name = 
  2 active torsions:
  status: ('A' for Active; 'I' for Inactive)
    1  A    between atoms: C_10  and  N_13
    2  A    between atoms: C_10  and  C_30
                            x       y       z     vdW  Elec       q    Type
                         _______ _______ _______ _____ _____    ______ ____

>  <TORSDO>
F 2

$$$$
=
 OpenBabel11042418293D

 30 36  0  0  1  0  0  0  0  0999 V2000
  189.0000  177.9290  142.5770 C   0  0  0  0  0  2  0  0  0  0  0  0
  190.3980  174.1690  145.5140 C   0  0  0  0  0  2  0  0  0  0  0  0
  192.5240  176.5740  147.5030 C   0  0  2  0  0  3  0  0  0  0  0  0
  193.5130  176.1300  146.3850 C   0  0  0  0  0  1  0  0  0  0  0  0
  190.4970  176.9050  147.5360 C   0  0  2  0  0  3  0  0  0  0  0  0
  188.5770  176.0060  145.4240 C   0  0  0  0  0  2  0  0  0  0  0  0
  194.7400  175.0240  142.0900 C   0  0  0  0  0  3  0  0  0  0  0  0
  189.3160  174.8820  144.6890 C   0  0  1  0  0  3  0  0  0  0  0  0
  194.6140  175.6900  143.3090 C   0  0  0  0  0  3  0  0  0  0  0  0
  193.2280  176.8490  145.0090 C   0  0  0  0  0  2  0  0  0  0  0  0
  192.3930  175.2770  141.7200 N   0  0  0  0  0  0  0  0  0  0  0  0
  193.6060  174.8260  141.3000 C   0  0  0  0  0  3  0  0  0  0  0  0
  190.8720  176.4140  143.3120 C   0  0  1  0  0  3  0  0  0  0  0  0
  190.4950  177.6530  142.4870 C   0  0  0  0  0  2  0  0  0  0  0  0
  189.8220  175.2690  143.2920 C   0  0  2  0  0  3  0  0  0  0  0  0
  188.3970  175.6590  146.9010 C   0  0  0  0  0  2  0  0  0  0  0  0
  191.5660  177.0050  148.5890 C   0  0  0  0  0  2  0  0  0  0  0  0
  188.6630  175.5050  142.3510 C   0  0  0  0  0  3  0  0  0  0  0  0
  189.7450  175.5650  147.6370 C   0  0  1  0  0  3  0  0  0  0  0  0
  190.8470  174.8760  146.8070 C   0  0  2  0  0  3  0  0  0  0  0  0
  192.8980  176.1770  146.0470 C   0  0  2  0  0  0  0  0  0  0  0  0
  193.3640  176.1520  143.7280 C   0  0  0  0  0  0  0  0  0  0  0  0
  191.4810  176.2450  146.5590 C   0  0  2  0  0  0  0  0  0  0  0  0
  192.2370  175.9240  142.9070 C   0  0  0  0  0  0  0  0  0  0  0  0
  188.2550  176.7420  142.0430 C   0  0  0  0  0  0  0  0  0  0  0  0
  187.1500  176.9370  141.0620 C   0  0  0  0  0  2  0  0  0  0  0  0
  185.0840  178.6580  140.1420 O   0  0  0  0  0  0  0  0  0  0  0  0
  185.9060  177.1970  141.7690 N   0  0  0  0  0  2  0  0  0  0  0  0
  184.9100  178.0740  141.2440 C   0  0  0  0  0  0  0  0  0  0  0  0
  183.7370  178.2850  141.9580 O   0  0  0  0  0  1  0  0  0  0  0  0
  3 17  1  6  0  0  0
  5 19  1  0  0  0  0
  5 17  1  1  0  0  0
  6 16  1  0  0  0  0
  7  9  1  0  0  0  0
  8  6  1  1  0  0  0
  8  2  1  0  0  0  0
  9 22  2  0  0  0  0
 10 21  1  0  0  0  0
 11 24  2  0  0  0  0
 12 11  1  0  0  0  0
 12  7  2  0  0  0  0
 13 14  1  6  0  0  0
 14  1  1  0  0  0  0
 15 18  1  6  0  0  0
 15 13  1  0  0  0  0
 15  8  1  0  0  0  0
 19 16  1  6  0  0  0
 20  2  1  6  0  0  0
 20 19  1  0  0  0  0
 21  4  1  6  0  0  0
 21 23  1  0  0  0  0
 21  3  1  0  0  0  0
 22 10  1  0  0  0  0
 23 20  1  0  0  0  0
 23  3  1  0  0  0  0
 23  5  1  0  0  0  0
 24 13  1  0  0  0  0
 24 22  1  0  0  0  0
 25 18  2  0  0  0  0
 25  1  1  0  0  0  0
 26 28  1  0  0  0  0
 26 25  1  0  0  0  0
 27 29  2  0  0  0  0
 29 28  1  0  0  0  0
 29 30  1  0  0  0  0
M  END
>  <MODEL>
7

>  <REMARK>
 VINA RESULT:      -8.2      2.426      4.810
  Name = 
  2 active torsions:
  status: ('A' for Active; 'I' for Inactive)
    1  A    between atoms: C_10  and  N_13
    2  A    between atoms: C_10  and  C_30
                            x       y       z     vdW  Elec       q    Type
                         _______ _______ _______ _____ _____    ______ ____

>  <TORSDO>
F 2

$$$$
=
 OpenBabel11042418293D

 30 36  0  0  1  0  0  0  0  0999 V2000
  188.7610  178.2910  143.5920 C   0  0  0  0  0  2  0  0  0  0  0  0
  190.4890  174.1660  145.7630 C   0  0  0  0  0  2  0  0  0  0  0  0
  194.0100  175.2910  144.9960 C   0  0  2  0  0  3  0  0  0  0  0  0
  193.6400  174.5110  143.7000 C   0  0  0  0  0  1  0  0  0  0  0  0
  192.9310  176.4790  146.2780 C   0  0  2  0  0  3  0  0  0  0  0  0
  189.9430  176.6180  146.3830 C   0  0  0  0  0  2  0  0  0  0  0  0
  190.8760  173.1820  140.2680 C   0  0  0  0  0  3  0  0  0  0  0  0
  189.4770  175.3200  145.7150 C   0  0  1  0  0  3  0  0  0  0  0  0
  191.9110  173.7770  140.9900 C   0  0  0  0  0  3  0  0  0  0  0  0
  192.7060  175.3460  142.7400 C   0  0  0  0  0  2  0  0  0  0  0  0
  189.2860  174.4600  141.5120 N   0  0  0  0  0  0  0  0  0  0  0  0
  189.5560  173.5420  140.5460 C   0  0  0  0  0  3  0  0  0  0  0  0
  189.9140  176.0740  143.2850 C   0  0  1  0  0  3  0  0  0  0  0  0
  189.4990  177.3900  142.6110 C   0  0  0  0  0  2  0  0  0  0  0  0
  188.8900  175.5100  144.3090 C   0  0  2  0  0  3  0  0  0  0  0  0
  190.7970  176.3160  147.6140 C   0  0  0  0  0  2  0  0  0  0  0  0
  194.3710  176.0480  146.2530 C   0  0  0  0  0  2  0  0  0  0  0  0
  187.5890  176.2760  144.3730 C   0  0  0  0  0  3  0  0  0  0  0  0
  192.1090  175.6040  147.2420 C   0  0  1  0  0  3  0  0  0  0  0  0
  191.9350  174.5410  146.1390 C   0  0  2  0  0  3  0  0  0  0  0  0
  193.0410  174.8400  143.8680 C   0  0  2  0  0  0  0  0  0  0  0  0
  191.6210  174.7220  141.9780 C   0  0  0  0  0  0  0  0  0  0  0  0
  192.5880  175.5000  145.1460 C   0  0  2  0  0  0  0  0  0  0  0  0
  190.2730  175.0530  142.2390 C   0  0  0  0  0  0  0  0  0  0  0  0
  187.5310  177.5800  144.0730 C   0  0  0  0  0  0  0  0  0  0  0  0
  186.2190  178.2870  144.0860 C   0  0  0  0  0  2  0  0  0  0  0  0
  184.8160  177.2080  146.3100 O   0  0  0  0  0  0  0  0  0  0  0  0
  186.0360  178.9600  145.3620 N   0  0  0  0  0  2  0  0  0  0  0  0
  185.3200  178.3550  146.4380 C   0  0  0  0  0  0  0  0  0  0  0  0
  185.1770  179.0390  147.6380 O   0  0  0  0  0  1  0  0  0  0  0  0
  1 25  1  0  0  0  0
  3 23  1  0  0  0  0
  3 17  1  6  0  0  0
  5 17  1  1  0  0  0
  5 19  1  0  0  0  0
  6 16  1  0  0  0  0
  7 12  2  0  0  0  0
  7  9  1  0  0  0  0
  8  2  1  6  0  0  0
  8  6  1  0  0  0  0
  9 22  2  0  0  0  0
 10 21  1  0  0  0  0
 11 24  2  0  0  0  0
 12 11  1  0  0  0  0
 13 14  1  6  0  0  0
 13 15  1  0  0  0  0
 14  1  1  0  0  0  0
 15 18  1  1  0  0  0
 15  8  1  0  0  0  0
 19 16  1  6  0  0  0
 20  2  1  6  0  0  0
 20 19  1  0  0  0  0
 21  4  1  1  0  0  0
 21  3  1  0  0  0  0
 21 23  1  0  0  0  0
 22 24  1  0  0  0  0
 22 10  1  0  0  0  0
 23 20  1  0  0  0  0
 23  5  1  0  0  0  0
 24 13  1  0  0  0  0
 25 26  1  0  0  0  0
 25 18  2  0  0  0  0
 26 28  1  0  0  0  0
 27 29  2  0  0  0  0
 28 29  1  0  0  0  0
 29 30  1  0  0  0  0
M  END
>  <MODEL>
8

>  <REMARK>
 VINA RESULT:      -8.2      2.670      5.053
  Name = 
  2 active torsions:
  status: ('A' for Active; 'I' for Inactive)
    1  A    between atoms: C_10  and  N_13
    2  A    between atoms: C_10  and  C_30
                            x       y       z     vdW  Elec       q    Type
                         _______ _______ _______ _____ _____    ______ ____

>  <TORSDO>
F 2

$$$$
=
 OpenBabel11042418293D

 30 36  0  0  1  0  0  0  0  0999 V2000
  190.9530  177.5350  144.9490 C   0  0  0  0  0  2  0  0  0  0  0  0
  186.9340  175.1160  143.3030 C   0  0  0  0  0  2  0  0  0  0  0  0
  185.9060  178.2120  141.4010 C   0  0  2  0  0  3  0  0  0  0  0  0
  185.2460  178.4610  142.7890 C   0  0  0  0  0  1  0  0  0  0  0  0
  187.6670  177.3260  140.8210 C   0  0  2  0  0  3  0  0  0  0  0  0
  189.3690  175.5890  142.5650 C   0  0  0  0  0  2  0  0  0  0  0  0
  185.0500  178.4460  147.3870 C   0  0  0  0  0  3  0  0  0  0  0  0
  188.4230  175.1210  143.6770 C   0  0  1  0  0  3  0  0  0  0  0  0
  185.1170  178.8660  146.0580 C   0  0  0  0  0  3  0  0  0  0  0  0
  186.2850  178.9510  143.8710 C   0  0  0  0  0  2  0  0  0  0  0  0
  187.1490  177.3320  147.1310 N   0  0  0  0  0  0  0  0  0  0  0  0
  186.0880  177.6720  147.9110 C   0  0  0  0  0  3  0  0  0  0  0  0
  188.4450  177.3260  145.0180 C   0  0  1  0  0  3  0  0  0  0  0  0
  189.6590  178.1650  145.4460 C   0  0  0  0  0  2  0  0  0  0  0  0
  188.6710  175.7890  145.0370 C   0  0  2  0  0  3  0  0  0  0  0  0
  188.8600  175.1360  141.1970 C   0  0  0  0  0  2  0  0  0  0  0  0
  186.5460  177.9700  140.0540 C   0  0  0  0  0  2  0  0  0  0  0  0
  190.0060  175.3640  145.6050 C   0  0  0  0  0  3  0  0  0  0  0  0
  187.5170  175.7940  140.8370 C   0  0  1  0  0  3  0  0  0  0  0  0
  186.5470  175.8940  142.0310 C   0  0  2  0  0  3  0  0  0  0  0  0
  185.8610  178.1640  142.9540 C   0  0  2  0  0  0  0  0  0  0  0  0
  186.2140  178.5130  145.2670 C   0  0  0  0  0  0  0  0  0  0  0  0
  186.8510  177.3890  142.1210 C   0  0  2  0  0  0  0  0  0  0  0  0
  187.2390  177.7210  145.8290 C   0  0  0  0  0  0  0  0  0  0  0  0
  191.0800  176.1610  145.5360 C   0  0  0  0  0  0  0  0  0  0  0  0
  192.3620  175.7350  146.1630 C   0  0  0  0  0  2  0  0  0  0  0  0
  194.6320  177.4340  146.3680 O   0  0  0  0  0  1  0  0  0  0  0  0
  193.4370  175.8110  145.1860 N   0  0  0  0  0  2  0  0  0  0  0  0
  194.5500  176.6890  145.3560 C   0  0  0  0  0  0  0  0  0  0  0  0
  195.5510  176.7210  144.3940 O   0  0  0  0  0  0  0  0  0  0  0  0
  1 14  1  0  0  0  0
  1 25  1  0  0  0  0
  2  8  1  0  0  0  0
  3 17  1  1  0  0  0
  3 23  1  0  0  0  0
  3 21  1  0  0  0  0
  5 17  1  6  0  0  0
  5 19  1  0  0  0  0
  5 23  1  0  0  0  0
  7 12  1  0  0  0  0
  8  6  1  6  0  0  0
  8 15  1  0  0  0  0
  9  7  2  0  0  0  0
 10 22  1  0  0  0  0
 11 12  2  0  0  0  0
 13 15  1  0  0  0  0
 13 14  1  1  0  0  0
 13 24  1  0  0  0  0
 15 18  1  6  0  0  0
 16  6  1  0  0  0  0
 19 16  1  1  0  0  0
 19 20  1  0  0  0  0
 20 23  1  0  0  0  0
 20  2  1  1  0  0  0
 21  4  1  1  0  0  0
 21 10  1  0  0  0  0
 22 24  2  0  0  0  0
 22  9  1  0  0  0  0
 23 21  1  0  0  0  0
 24 11  1  0  0  0  0
 25 18  2  0  0  0  0
 25 26  1  0  0  0  0
 28 29  1  0  0  0  0
 28 26  1  0  0  0  0
 29 27  1  0  0  0  0
 30 29  2  0  0  0  0
M  END
>  <MODEL>
9

>  <REMARK>
 VINA RESULT:      -8.1      3.649      6.266
  Name = 
  2 active torsions:
  status: ('A' for Active; 'I' for Inactive)
    1  A    between atoms: C_10  and  N_13
    2  A    between atoms: C_10  and  C_30
                            x       y       z     vdW  Elec       q    Type
                         _______ _______ _______ _____ _____    ______ ____

>  <TORSDO>
F 2

$$$$
