=
 OpenBabel11042417333D

 39 44  0  0  1  0  0  0  0  0999 V2000
  188.6080  174.5120  140.3940 N   0  0  0  0  0  0  0  0  0  0  0  0
  190.9840  174.5410  146.3950 C   0  0  2  0  0  3  0  0  0  0  0  0
  193.0520  170.7090  142.5670 N   0  0  0  0  0  0  0  0  0  0  0  0
  188.8860  174.8840  147.6120 O   0  0  0  0  0  1  0  0  0  0  0  0
  195.7290  172.0870  144.5730 C   0  0  0  0  0  2  0  0  0  0  0  0
  192.7390  173.3820  144.9610 C   0  0  1  0  0  3  0  0  0  0  0  0
  194.5430  171.1970  144.3110 C   0  0  1  0  0  3  0  0  0  0  0  0
  187.1150  177.0770  143.2690 C   0  0  0  0  0  3  0  0  0  0  0  0
  190.5530  172.5540  140.8050 C   0  0  0  0  0  0  0  0  0  0  0  0
  190.1340  172.8950  139.4400 C   0  0  0  0  0  3  0  0  0  0  0  0
  191.4990  171.6850  141.0270 C   0  0  0  0  0  0  0  0  0  0  0  0
  193.8160  171.8000  143.1520 C   0  0  2  0  0  3  0  0  0  0  0  0
  188.8500  174.1670  141.6290 C   0  0  0  0  0  0  0  0  0  0  0  0
  188.1580  177.6060  144.2010 C   0  0  0  0  0  2  0  0  0  0  0  0
  193.0660  173.0960  143.5000 C   0  0  2  0  0  3  0  0  0  0  0  0
  188.3880  175.0040  142.7540 C   0  0  0  0  0  0  0  0  0  0  0  0
  192.4060  170.7840  141.2910 C   0  0  0  0  0  3  0  0  0  0  0  0
  193.9730  174.0220  144.3430 C   0  0  2  0  0  3  0  0  0  0  0  0
  191.6570  174.4390  145.0170 C   0  0  0  0  0  2  0  0  0  0  0  0
  189.1850  173.8230  139.2680 C   0  0  0  0  0  3  0  0  0  0  0  0
  189.4350  174.6140  146.3560 C   0  0  1  0  0  3  0  0  0  0  0  0
  188.4150  176.7160  145.3890 C   0  0  0  0  0  0  0  0  0  0  0  0
  189.6610  172.9280  141.9350 C   0  0  0  0  0  2  0  0  0  0  0  0
  193.6530  169.4430  142.9670 C   0  0  0  0  0  2  0  0  0  0  0  0
  189.0020  174.8030  143.9210 C   0  0  0  0  0  3  0  0  0  0  0  0
  194.8560  169.7980  143.8420 C   0  0  0  0  0  2  0  0  0  0  0  0
  195.2000  173.4300  145.0920 C   0  0  0  0  0  2  0  0  0  0  0  0
  187.2590  175.9400  142.5890 C   0  0  0  0  0  3  0  0  0  0  0  0
  188.8480  175.4470  145.2330 C   0  0  0  0  0  0  0  0  0  0  0  0
  191.5940  175.4760  147.2610 O   0  0  0  0  0  0  0  0  0  0  0  0
  192.1200  176.5300  146.4970 C   0  0  0  0  0  1  0  0  0  0  0  0
  188.2920  177.2490  146.6770 O   0  0  0  0  0  0  0  0  0  0  0  0
  187.0870  177.8250  147.1620 C   0  0  0  0  0  2  0  0  0  0  0  0
  185.9460  176.8390  146.9980 C   0  0  0  0  0  2  0  0  0  0  0  0
  184.7910  177.4980  146.2670 C   0  0  0  0  0  2  0  0  0  0  0  0
  185.0790  178.9760  146.0940 C   0  0  0  0  0  2  0  0  0  0  0  0
  184.7350  179.3930  144.7080 C   0  0  0  0  0  0  0  0  0  0  0  0
  183.7120  178.9230  144.1450 O   0  0  0  0  0  1  0  0  0  0  0  0
  185.5600  180.2750  144.0230 O   0  0  0  0  0  0  0  0  0  0  0  0
  1 13  2  0  0  0  0
  2 30  1  6  0  0  0
  3 24  1  0  0  0  0
  5 27  1  0  0  0  0
  6 19  1  6  0  0  0
  7 26  1  6  0  0  0
  7  5  1  0  0  0  0
  8 14  1  0  0  0  0
  9 11  2  0  0  0  0
  9 23  1  0  0  0  0
 10  9  1  0  0  0  0
 11 17  2  0  0  0  0
 12  3  1  1  0  0  0
 12 15  1  0  0  0  0
 12  7  1  0  0  0  0
 13 23  1  0  0  0  0
 13 16  1  0  0  0  0
 14 22  1  0  0  0  0
 15 18  1  0  0  0  0
 15  6  1  0  0  0  0
 16 25  2  0  0  0  0
 17  3  1  0  0  0  0
 18  6  1  0  0  0  0
 18 27  1  0  0  0  0
 19  2  1  0  0  0  0
 20 10  2  0  0  0  0
 20  1  1  0  0  0  0
 21  2  1  0  0  0  0
 21  4  1  0  0  0  0
 22 32  1  0  0  0  0
 24 26  1  0  0  0  0
 25 29  1  0  0  0  0
 28 16  1  0  0  0  0
 28  8  2  0  0  0  0
 29 22  2  0  0  0  0
 29 21  1  0  0  0  0
 31 30  1  0  0  0  0
 32 33  1  0  0  0  0
 34 33  1  0  0  0  0
 35 34  1  0  0  0  0
 36 35  1  0  0  0  0
 37 36  1  0  0  0  0
 38 37  1  0  0  0  0
 39 37  2  0  0  0  0
M  END
>  <MODEL>
1

>  <REMARK>
 VINA RESULT:      -7.8      0.000      0.000
  Name = 
  7 active torsions:
  status: ('A' for Active; 'I' for Inactive)
    1  A    between atoms: C_2  and  O_8
    2  A    between atoms: O_6  and  C_19
    3  A    between atoms: O_6  and  C_28
    4  A    between atoms: C_19  and  C_27
    5  A    between atoms: C_25  and  C_29
    6  A    between atoms: C_25  and  C_39
    7  A    between atoms: C_27  and  C_39
                            x       y       z     vdW  Elec       q    Type
                         _______ _______ _______ _____ _____    ______ ____

>  <TORSDO>
F 7

$$$$
=
 OpenBabel11042417333D

 39 44  0  0  1  0  0  0  0  0999 V2000
  190.2700  172.8880  141.2160 N   0  0  0  0  0  0  0  0  0  0  0  0
  191.4250  176.8990  146.1390 C   0  0  2  0  0  3  0  0  0  0  0  0
  186.6880  177.7130  142.8960 N   0  0  0  0  0  0  0  0  0  0  0  0
  193.8450  177.1410  145.8460 O   0  0  0  0  0  1  0  0  0  0  0  0
  185.9440  178.2230  146.3990 C   0  0  0  0  0  2  0  0  0  0  0  0
  188.9360  177.1080  145.6440 C   0  0  1  0  0  3  0  0  0  0  0  0
  186.5140  178.6050  145.0590 C   0  0  1  0  0  3  0  0  0  0  0  0
  193.6880  172.5250  143.5080 C   0  0  0  0  0  3  0  0  0  0  0  0
  188.3410  174.8890  141.4660 C   0  0  0  0  0  0  0  0  0  0  0  0
  188.0810  173.7230  140.6120 C   0  0  0  0  0  3  0  0  0  0  0  0
  187.4390  175.8120  141.6480 C   0  0  0  0  0  0  0  0  0  0  0  0
  186.6830  177.3280  144.2980 C   0  0  2  0  0  3  0  0  0  0  0  0
  190.6060  173.9540  141.8870 C   0  0  0  0  0  0  0  0  0  0  0  0
  193.4730  172.8240  144.9570 C   0  0  0  0  0  2  0  0  0  0  0  0
  187.8420  176.4560  144.8070 C   0  0  2  0  0  3  0  0  0  0  0  0
  191.7970  173.9550  142.7600 C   0  0  0  0  0  0  0  0  0  0  0  0
  186.5800  176.7810  141.8140 C   0  0  0  0  0  3  0  0  0  0  0  0
  187.8060  176.3760  146.3520 C   0  0  2  0  0  3  0  0  0  0  0  0
  190.1450  176.1970  145.6550 C   0  0  0  0  0  2  0  0  0  0  0  0
  189.0280  172.7860  140.4920 C   0  0  0  0  0  3  0  0  0  0  0  0
  192.6790  176.6320  145.2670 C   0  0  1  0  0  3  0  0  0  0  0  0
  193.6160  174.2830  145.3020 C   0  0  0  0  0  0  0  0  0  0  0  0
  189.7490  175.2000  141.8320 C   0  0  0  0  0  2  0  0  0  0  0  0
  186.0420  179.0120  142.7590 C   0  0  0  0  0  2  0  0  0  0  0  0
  191.8390  174.9130  143.6880 C   0  0  0  0  0  3  0  0  0  0  0  0
  185.6180  179.4290  144.1680 C   0  0  0  0  0  2  0  0  0  0  0  0
  187.0250  177.4480  147.1630 C   0  0  0  0  0  2  0  0  0  0  0  0
  192.8960  172.9940  142.5450 C   0  0  0  0  0  3  0  0  0  0  0  0
  192.8200  175.2170  144.7390 C   0  0  0  0  0  0  0  0  0  0  0  0
  191.6430  176.7900  147.5300 O   0  0  0  0  0  0  0  0  0  0  0  0
  191.1910  175.5360  147.9680 C   0  0  0  0  0  1  0  0  0  0  0  0
  194.5280  174.6610  146.2930 O   0  0  0  0  0  0  0  0  0  0  0  0
  195.9060  174.3180  146.2460 C   0  0  0  0  0  2  0  0  0  0  0  0
  196.4650  174.6300  144.8710 C   0  0  0  0  0  2  0  0  0  0  0  0
  197.2650  173.4500  144.3550 C   0  0  0  0  0  2  0  0  0  0  0  0
  197.1920  172.3120  145.3530 C   0  0  0  0  0  2  0  0  0  0  0  0
  197.4690  171.0230  144.6640 C   0  0  0  0  0  0  0  0  0  0  0  0
  197.2480  170.9090  143.4300 O   0  0  0  0  0  0  0  0  0  0  0  0
  197.9410  169.9370  145.3870 O   0  0  0  0  0  1  0  0  0  0  0  0
  1 13  2  0  0  0  0
  2 30  1  1  0  0  0
  5 27  1  0  0  0  0
  6 19  1  6  0  0  0
  6 18  1  0  0  0  0
  7 26  1  6  0  0  0
  7  5  1  0  0  0  0
  8 14  1  0  0  0  0
  9 11  2  0  0  0  0
  9 23  1  0  0  0  0
 10  9  1  0  0  0  0
 11 17  2  0  0  0  0
 12  3  1  6  0  0  0
 12 15  1  0  0  0  0
 12  7  1  0  0  0  0
 13 16  1  0  0  0  0
 14 22  1  0  0  0  0
 15  6  1  0  0  0  0
 15 18  1  0  0  0  0
 16 25  2  0  0  0  0
 17  3  1  0  0  0  0
 18 27  1  0  0  0  0
 19  2  1  0  0  0  0
 20 10  2  0  0  0  0
 20  1  1  0  0  0  0
 21  4  1  0  0  0  0
 21  2  1  0  0  0  0
 22 32  1  0  0  0  0
 23 13  1  0  0  0  0
 24  3  1  0  0  0  0
 24 26  1  0  0  0  0
 25 29  1  0  0  0  0
 28 16  1  0  0  0  0
 28  8  2  0  0  0  0
 29 21  1  0  0  0  0
 29 22  2  0  0  0  0
 30 31  1  0  0  0  0
 33 32  1  0  0  0  0
 34 33  1  0  0  0  0
 35 34  1  0  0  0  0
 35 36  1  0  0  0  0
 37 36  1  0  0  0  0
 37 39  1  0  0  0  0
 38 37  2  0  0  0  0
M  END
>  <MODEL>
2

>  <REMARK>
 VINA RESULT:      -7.7      2.624      8.408
  Name = 
  7 active torsions:
  status: ('A' for Active; 'I' for Inactive)
    1  A    between atoms: C_2  and  O_8
    2  A    between atoms: O_6  and  C_19
    3  A    between atoms: O_6  and  C_28
    4  A    between atoms: C_19  and  C_27
    5  A    between atoms: C_25  and  C_29
    6  A    between atoms: C_25  and  C_39
    7  A    between atoms: C_27  and  C_39
                            x       y       z     vdW  Elec       q    Type
                         _______ _______ _______ _____ _____    ______ ____

>  <TORSDO>
F 7

$$$$
=
 OpenBabel11042417333D

 39 44  0  0  1  0  0  0  0  0999 V2000
  190.4290  172.5630  140.9990 N   0  0  0  0  0  0  0  0  0  0  0  0
  191.8930  176.6250  145.7960 C   0  0  2  0  0  3  0  0  0  0  0  0
  186.9640  177.4120  142.8470 N   0  0  0  0  0  0  0  0  0  0  0  0
  194.2900  176.8610  145.3490 O   0  0  0  0  0  1  0  0  0  0  0  0
  186.4410  177.9610  146.3840 C   0  0  0  0  0  2  0  0  0  0  0  0
  189.3790  176.8330  145.4550 C   0  0  1  0  0  3  0  0  0  0  0  0
  186.9270  178.3280  145.0060 C   0  0  1  0  0  3  0  0  0  0  0  0
  193.9830  172.2190  143.0770 C   0  0  0  0  0  3  0  0  0  0  0  0
  188.5220  174.5690  141.3470 C   0  0  0  0  0  0  0  0  0  0  0  0
  188.2070  173.3950  140.5240 C   0  0  0  0  0  3  0  0  0  0  0  0
  187.6330  175.4960  141.5750 C   0  0  0  0  0  0  0  0  0  0  0  0
  187.0470  177.0420  144.2510 C   0  0  2  0  0  3  0  0  0  0  0  0
  190.8070  173.6360  141.6360 C   0  0  0  0  0  0  0  0  0  0  0  0
  193.8600  172.5340  144.5330 C   0  0  0  0  0  2  0  0  0  0  0  0
  188.2340  176.1730  144.6960 C   0  0  2  0  0  3  0  0  0  0  0  0
  192.0510  173.6450  142.4330 C   0  0  0  0  0  0  0  0  0  0  0  0
  186.7880  176.4690  141.7840 C   0  0  0  0  0  3  0  0  0  0  0  0
  188.2940  176.1110  146.2400 C   0  0  2  0  0  3  0  0  0  0  0  0
  190.5850  175.9200  145.4000 C   0  0  0  0  0  2  0  0  0  0  0  0
  189.1440  172.4550  140.3550 C   0  0  0  0  0  3  0  0  0  0  0  0
  193.0910  176.3470  144.8500 C   0  0  1  0  0  3  0  0  0  0  0  0
  194.0250  173.9970  144.8520 C   0  0  0  0  0  0  0  0  0  0  0  0
  189.9500  174.8820  141.6210 C   0  0  0  0  0  2  0  0  0  0  0  0
  186.3120  178.7100  142.7360 C   0  0  0  0  0  2  0  0  0  0  0  0
  192.1510  174.6120  143.3450 C   0  0  0  0  0  3  0  0  0  0  0  0
  185.9770  179.1430  144.1640 C   0  0  0  0  0  2  0  0  0  0  0  0
  187.5670  177.1930  147.0870 C   0  0  0  0  0  2  0  0  0  0  0  0
  193.1340  172.6800  142.1600 C   0  0  0  0  0  3  0  0  0  0  0  0
  193.1970  174.9260  144.3300 C   0  0  0  0  0  0  0  0  0  0  0  0
  192.1980  176.5310  147.1720 O   0  0  0  0  0  0  0  0  0  0  0  0
  191.6420  175.3490  147.6840 C   0  0  0  0  0  1  0  0  0  0  0  0
  194.9980  174.3840  145.7800 O   0  0  0  0  0  0  0  0  0  0  0  0
  196.1540  173.6060  146.0580 C   0  0  0  0  0  2  0  0  0  0  0  0
  197.3490  174.1850  145.3250 C   0  0  0  0  0  2  0  0  0  0  0  0
  197.3720  173.6860  143.8930 C   0  0  0  0  0  2  0  0  0  0  0  0
  197.8500  174.7950  142.9780 C   0  0  0  0  0  2  0  0  0  0  0  0
  196.7600  175.7890  142.7830 C   0  0  0  0  0  0  0  0  0  0  0  0
  195.7320  175.4740  142.1290 O   0  0  0  0  0  0  0  0  0  0  0  0
  196.8900  177.0720  143.2960 O   0  0  0  0  0  1  0  0  0  0  0  0
  1 13  2  0  0  0  0
  2 30  1  1  0  0  0
  5 27  1  0  0  0  0
  6 19  1  6  0  0  0
  6 18  1  0  0  0  0
  7 26  1  6  0  0  0
  7  5  1  0  0  0  0
  8 14  1  0  0  0  0
  9 11  2  0  0  0  0
  9 23  1  0  0  0  0
 10  9  1  0  0  0  0
 11 17  2  0  0  0  0
 12  3  1  6  0  0  0
 12 15  1  0  0  0  0
 12  7  1  0  0  0  0
 13 16  1  0  0  0  0
 14 22  1  0  0  0  0
 15  6  1  0  0  0  0
 15 18  1  0  0  0  0
 16 25  2  0  0  0  0
 17  3  1  0  0  0  0
 18 27  1  0  0  0  0
 19  2  1  0  0  0  0
 20 10  2  0  0  0  0
 20  1  1  0  0  0  0
 21  4  1  0  0  0  0
 21  2  1  0  0  0  0
 22 32  1  0  0  0  0
 23 13  1  0  0  0  0
 24  3  1  0  0  0  0
 24 26  1  0  0  0  0
 25 29  1  0  0  0  0
 28 16  1  0  0  0  0
 28  8  2  0  0  0  0
 29 21  1  0  0  0  0
 29 22  2  0  0  0  0
 30 31  1  0  0  0  0
 32 33  1  0  0  0  0
 34 33  1  0  0  0  0
 35 34  1  0  0  0  0
 36 35  1  0  0  0  0
 37 36  1  0  0  0  0
 37 39  1  0  0  0  0
 38 37  2  0  0  0  0
M  END
>  <MODEL>
3

>  <REMARK>
 VINA RESULT:      -7.7      2.695      7.928
  Name = 
  7 active torsions:
  status: ('A' for Active; 'I' for Inactive)
    1  A    between atoms: C_2  and  O_8
    2  A    between atoms: O_6  and  C_19
    3  A    between atoms: O_6  and  C_28
    4  A    between atoms: C_19  and  C_27
    5  A    between atoms: C_25  and  C_29
    6  A    between atoms: C_25  and  C_39
    7  A    between atoms: C_27  and  C_39
                            x       y       z     vdW  Elec       q    Type
                         _______ _______ _______ _____ _____    ______ ____

>  <TORSDO>
F 7

$$$$
=
 OpenBabel11042417333D

 39 44  0  0  1  0  0  0  0  0999 V2000
  193.6440  173.3180  145.6620 N   0  0  0  0  0  0  0  0  0  0  0  0
  188.5100  176.1110  142.9240 C   0  0  2  0  0  3  0  0  0  0  0  0
  192.4500  173.5320  139.5420 N   0  0  0  0  0  0  0  0  0  0  0  0
  188.4070  178.1220  144.3190 O   0  0  0  0  0  1  0  0  0  0  0  0
  189.1010  172.8280  138.3710 C   0  0  0  0  0  2  0  0  0  0  0  0
  189.3920  174.4500  141.2080 C   0  0  1  0  0  3  0  0  0  0  0  0
  190.3240  173.6850  138.5630 C   0  0  1  0  0  3  0  0  0  0  0  0
  190.8420  175.3310  147.9360 C   0  0  0  0  0  3  0  0  0  0  0  0
  193.6610  173.1350  142.8790 C   0  0  0  0  0  0  0  0  0  0  0  0
  194.5710  172.3020  143.6730 C   0  0  0  0  0  3  0  0  0  0  0  0
  193.6050  173.0330  141.5800 C   0  0  0  0  0  0  0  0  0  0  0  0
  191.0760  173.0880  139.7100 C   0  0  2  0  0  3  0  0  0  0  0  0
  192.9030  174.1690  145.0080 C   0  0  0  0  0  0  0  0  0  0  0  0
  189.4400  175.1670  147.4450 C   0  0  0  0  0  2  0  0  0  0  0  0
  190.4080  173.3210  141.0750 C   0  0  2  0  0  3  0  0  0  0  0  0
  191.8510  174.9430  145.6970 C   0  0  0  0  0  0  0  0  0  0  0  0
  193.5560  172.9950  140.2760 C   0  0  0  0  0  3  0  0  0  0  0  0
  188.8910  173.0320  140.9780 C   0  0  2  0  0  3  0  0  0  0  0  0
  189.2080  174.7640  142.6780 C   0  0  0  0  0  2  0  0  0  0  0  0
  194.5590  172.4200  145.0050 C   0  0  0  0  0  3  0  0  0  0  0  0
  189.1760  176.9970  144.0090 C   0  0  1  0  0  3  0  0  0  0  0  0
  189.0440  176.1720  146.3960 C   0  0  0  0  0  0  0  0  0  0  0  0
  193.0670  174.3420  143.5150 C   0  0  0  0  0  2  0  0  0  0  0  0
  192.6590  173.9090  138.1500 C   0  0  0  0  0  2  0  0  0  0  0  0
  190.9070  175.4690  144.9140 C   0  0  0  0  0  3  0  0  0  0  0  0
  191.3280  173.6690  137.4370 C   0  0  0  0  0  2  0  0  0  0  0  0
  188.1910  173.0310  139.5900 C   0  0  0  0  0  2  0  0  0  0  0  0
  191.9090  175.1740  147.1540 C   0  0  0  0  0  3  0  0  0  0  0  0
  189.7050  176.2570  145.2220 C   0  0  0  0  0  0  0  0  0  0  0  0
  187.1040  176.0150  143.0250 O   0  0  0  0  0  0  0  0  0  0  0  0
  186.5180  176.7900  142.0140 C   0  0  0  0  0  1  0  0  0  0  0  0
  187.9110  176.9650  146.6080 O   0  0  0  0  0  0  0  0  0  0  0  0
  186.7220  176.4690  147.2070 C   0  0  0  0  0  2  0  0  0  0  0  0
  185.5200  176.8900  146.3830 C   0  0  0  0  0  2  0  0  0  0  0  0
  185.3030  178.3860  146.5060 C   0  0  0  0  0  2  0  0  0  0  0  0
  184.0660  178.7840  145.7260 C   0  0  0  0  0  2  0  0  0  0  0  0
  184.4430  179.1130  144.3250 C   0  0  0  0  0  0  0  0  0  0  0  0
  183.7690  178.6510  143.3670 O   0  0  0  0  0  0  0  0  0  0  0  0
  185.5560  179.9030  144.0720 O   0  0  0  0  0  1  0  0  0  0  0  0
  2 30  1  1  0  0  0
  2 21  1  0  0  0  0
  3 17  1  0  0  0  0
  5  7  1  0  0  0  0
  5 27  1  0  0  0  0
  6 19  1  1  0  0  0
  7 26  1  6  0  0  0
  7 12  1  0  0  0  0
  9 23  1  0  0  0  0
  9 10  1  0  0  0  0
 10 20  2  0  0  0  0
 11  9  2  0  0  0  0
 12  3  1  1  0  0  0
 12 15  1  0  0  0  0
 13  1  2  0  0  0  0
 13 16  1  0  0  0  0
 14  8  1  0  0  0  0
 15  6  1  0  0  0  0
 16 28  1  0  0  0  0
 17 11  2  0  0  0  0
 18 15  1  0  0  0  0
 18  6  1  0  0  0  0
 19  2  1  0  0  0  0
 20  1  1  0  0  0  0
 21  4  1  0  0  0  0
 21 29  1  0  0  0  0
 22 32  1  0  0  0  0
 22 14  1  0  0  0  0
 23 13  1  0  0  0  0
 24  3  1  0  0  0  0
 25 29  1  0  0  0  0
 25 16  2  0  0  0  0
 26 24  1  0  0  0  0
 27 18  1  0  0  0  0
 28  8  2  0  0  0  0
 29 22  2  0  0  0  0
 31 30  1  0  0  0  0
 32 33  1  0  0  0  0
 34 35  1  0  0  0  0
 34 33  1  0  0  0  0
 36 35  1  0  0  0  0
 37 36  1  0  0  0  0
 38 37  2  0  0  0  0
 39 37  1  0  0  0  0
M  END
>  <MODEL>
4

>  <REMARK>
 VINA RESULT:      -7.7      1.740      4.978
  Name = 
  7 active torsions:
  status: ('A' for Active; 'I' for Inactive)
    1  A    between atoms: C_2  and  O_8
    2  A    between atoms: O_6  and  C_19
    3  A    between atoms: O_6  and  C_28
    4  A    between atoms: C_19  and  C_27
    5  A    between atoms: C_25  and  C_29
    6  A    between atoms: C_25  and  C_39
    7  A    between atoms: C_27  and  C_39
                            x       y       z     vdW  Elec       q    Type
                         _______ _______ _______ _____ _____    ______ ____

>  <TORSDO>
F 7

$$$$
=
 OpenBabel11042417333D

 39 44  0  0  1  0  0  0  0  0999 V2000
  192.2610  176.7770  146.4870 N   0  0  0  0  0  0  0  0  0  0  0  0
  189.1120  174.7710  141.2220 C   0  0  2  0  0  3  0  0  0  0  0  0
  194.8340  173.9090  141.5790 N   0  0  0  0  0  0  0  0  0  0  0  0
  187.6160  176.6910  140.9440 O   0  0  0  0  0  1  0  0  0  0  0  0
  193.1890  171.0140  140.1640 C   0  0  0  0  0  2  0  0  0  0  0  0
  191.2760  173.4320  141.2870 C   0  0  1  0  0  3  0  0  0  0  0  0
  193.7440  172.4140  140.1370 C   0  0  1  0  0  3  0  0  0  0  0  0
  188.2140  177.4690  146.0270 C   0  0  0  0  0  3  0  0  0  0  0  0
  193.9400  175.5950  144.5980 C   0  0  0  0  0  0  0  0  0  0  0  0
  194.4230  175.8240  145.9650 C   0  0  0  0  0  3  0  0  0  0  0  0
  194.6810  174.9940  143.7080 C   0  0  0  0  0  0  0  0  0  0  0  0
  193.8310  172.8560  141.5630 C   0  0  2  0  0  3  0  0  0  0  0  0
  191.8210  176.7120  145.2610 C   0  0  0  0  0  0  0  0  0  0  0  0
  187.4860  176.3510  145.3530 C   0  0  0  0  0  2  0  0  0  0  0  0
  192.4650  173.1570  142.2000 C   0  0  2  0  0  3  0  0  0  0  0  0
  190.3910  176.9220  144.9580 C   0  0  0  0  0  0  0  0  0  0  0  0
  195.4100  174.4420  142.7770 C   0  0  0  0  0  3  0  0  0  0  0  0
  191.4600  172.0320  141.8540 C   0  0  2  0  0  3  0  0  0  0  0  0
  190.1920  174.1120  142.0950 C   0  0  0  0  0  2  0  0  0  0  0  0
  193.6070  176.4100  146.8490 C   0  0  0  0  0  3  0  0  0  0  0  0
  188.7200  176.2080  141.6530 C   0  0  1  0  0  3  0  0  0  0  0  0
  187.4890  176.4470  143.8500 C   0  0  0  0  0  0  0  0  0  0  0  0
  192.7570  176.3620  144.1250 C   0  0  0  0  0  2  0  0  0  0  0  0
  195.6840  173.7710  140.4030 C   0  0  0  0  0  2  0  0  0  0  0  0
  189.9700  176.4550  143.7810 C   0  0  0  0  0  3  0  0  0  0  0  0
  195.1610  172.5550  139.6380 C   0  0  0  0  0  2  0  0  0  0  0  0
  191.7340  171.0980  140.6420 C   0  0  0  0  0  2  0  0  0  0  0  0
  189.5220  177.6760  145.8830 C   0  0  0  0  0  3  0  0  0  0  0  0
  188.6430  176.4450  143.1490 C   0  0  0  0  0  0  0  0  0  0  0  0
  188.0180  173.9260  140.9320 O   0  0  0  0  0  0  0  0  0  0  0  0
  187.8160  173.0530  142.0120 C   0  0  0  0  0  1  0  0  0  0  0  0
  186.2680  176.4420  143.1670 O   0  0  0  0  0  0  0  0  0  0  0  0
  185.2880  177.4580  143.3300 C   0  0  0  0  0  2  0  0  0  0  0  0
  185.9430  178.8230  143.2280 C   0  0  0  0  0  2  0  0  0  0  0  0
  185.5260  179.6890  144.4010 C   0  0  0  0  0  2  0  0  0  0  0  0
  184.3600  179.0410  145.1200 C   0  0  0  0  0  2  0  0  0  0  0  0
  184.7960  178.5820  146.4660 C   0  0  0  0  0  0  0  0  0  0  0  0
  184.4450  177.4490  146.8890 O   0  0  0  0  0  0  0  0  0  0  0  0
  185.5620  179.4150  147.2700 O   0  0  0  0  0  1  0  0  0  0  0  0
  1 20  1  0  0  0  0
  2 30  1  1  0  0  0
  2 21  1  0  0  0  0
  2 19  1  0  0  0  0
  3 17  1  0  0  0  0
  4 21  1  0  0  0  0
  5 27  1  0  0  0  0
  6 18  1  0  0  0  0
  6 19  1  1  0  0  0
  6 15  1  0  0  0  0
  7 26  1  1  0  0  0
  7  5  1  0  0  0  0
  7 12  1  0  0  0  0
  9 10  1  0  0  0  0
 10 20  2  0  0  0  0
 11  9  2  0  0  0  0
 12  3  1  6  0  0  0
 12 15  1  0  0  0  0
 13  1  2  0  0  0  0
 14  8  1  0  0  0  0
 16 13  1  0  0  0  0
 16 28  1  0  0  0  0
 17 11  2  0  0  0  0
 18 15  1  0  0  0  0
 21 29  1  0  0  0  0
 22 14  1  0  0  0  0
 23  9  1  0  0  0  0
 23 13  1  0  0  0  0
 24  3  1  0  0  0  0
 25 16  2  0  0  0  0
 26 24  1  0  0  0  0
 27 18  1  0  0  0  0
 28  8  2  0  0  0  0
 29 25  1  0  0  0  0
 29 22  2  0  0  0  0
 30 31  1  0  0  0  0
 32 33  1  0  0  0  0
 32 22  1  0  0  0  0
 34 33  1  0  0  0  0
 34 35  1  0  0  0  0
 35 36  1  0  0  0  0
 36 37  1  0  0  0  0
 37 38  2  0  0  0  0
 37 39  1  0  0  0  0
M  END
>  <MODEL>
5

>  <REMARK>
 VINA RESULT:      -7.5      2.709      4.828
  Name = 
  7 active torsions:
  status: ('A' for Active; 'I' for Inactive)
    1  A    between atoms: C_2  and  O_8
    2  A    between atoms: O_6  and  C_19
    3  A    between atoms: O_6  and  C_28
    4  A    between atoms: C_19  and  C_27
    5  A    between atoms: C_25  and  C_29
    6  A    between atoms: C_25  and  C_39
    7  A    between atoms: C_27  and  C_39
                            x       y       z     vdW  Elec       q    Type
                         _______ _______ _______ _____ _____    ______ ____

>  <TORSDO>
F 7

$$$$
=
 OpenBabel11042417333D

 39 44  0  0  1  0  0  0  0  0999 V2000
  195.1030  175.2810  145.4030 N   0  0  0  0  0  0  0  0  0  0  0  0
  189.1130  176.0630  143.1310 C   0  0  2  0  0  3  0  0  0  0  0  0
  193.2620  174.1900  139.5420 N   0  0  0  0  0  0  0  0  0  0  0  0
  188.5640  178.1570  144.2770 O   0  0  0  0  0  1  0  0  0  0  0  0
  190.1700  172.4030  138.9660 C   0  0  0  0  0  2  0  0  0  0  0  0
  190.2630  174.4660  141.5160 C   0  0  1  0  0  3  0  0  0  0  0  0
  191.0960  173.5870  138.8740 C   0  0  1  0  0  3  0  0  0  0  0  0
  192.0860  176.7620  147.8050 C   0  0  0  0  0  3  0  0  0  0  0  0
  194.8800  174.6750  142.6880 C   0  0  0  0  0  0  0  0  0  0  0  0
  196.0750  174.2640  143.4350 C   0  0  0  0  0  3  0  0  0  0  0  0
  194.7210  174.3590  141.4340 C   0  0  0  0  0  0  0  0  0  0  0  0
  192.1080  173.4110  139.9610 C   0  0  2  0  0  3  0  0  0  0  0  0
  194.0780  175.7780  144.7670 C   0  0  0  0  0  0  0  0  0  0  0  0
  190.7520  176.1370  147.5480 C   0  0  0  0  0  2  0  0  0  0  0  0
  191.5480  173.6600  141.3710 C   0  0  2  0  0  3  0  0  0  0  0  0
  192.9220  176.3250  145.5050 C   0  0  0  0  0  0  0  0  0  0  0  0
  194.5490  174.1050  140.1650 C   0  0  0  0  0  3  0  0  0  0  0  0
  190.1850  172.9470  141.5320 C   0  0  2  0  0  3  0  0  0  0  0  0
  190.1500  174.9430  142.9480 C   0  0  0  0  0  2  0  0  0  0  0  0
  196.1690  174.5830  144.7310 C   0  0  0  0  0  3  0  0  0  0  0  0
  189.5950  177.2580  143.9930 C   0  0  1  0  0  3  0  0  0  0  0  0
  189.9670  176.8140  146.4560 C   0  0  0  0  0  0  0  0  0  0  0  0
  194.0250  175.7520  143.2560 C   0  0  0  0  0  2  0  0  0  0  0  0
  193.2020  174.3870  138.0990 C   0  0  0  0  0  2  0  0  0  0  0  0
  191.7880  176.4360  144.8120 C   0  0  0  0  0  3  0  0  0  0  0  0
  191.9350  173.6750  137.6230 C   0  0  0  0  0  2  0  0  0  0  0  0
  189.3750  172.5330  140.2720 C   0  0  0  0  0  2  0  0  0  0  0  0
  193.0620  176.7880  146.9000 C   0  0  0  0  0  3  0  0  0  0  0  0
  190.4460  176.8960  145.1960 C   0  0  0  0  0  0  0  0  0  0  0  0
  187.8180  175.5940  143.4490 O   0  0  0  0  0  0  0  0  0  0  0  0
  186.9560  175.8740  142.3780 C   0  0  0  0  0  1  0  0  0  0  0  0
  188.6780  177.2830  146.7350 O   0  0  0  0  0  0  0  0  0  0  0  0
  187.5620  176.4190  146.9020 C   0  0  0  0  0  2  0  0  0  0  0  0
  186.3180  177.2400  147.1850 C   0  0  0  0  0  2  0  0  0  0  0  0
  185.2620  176.9620  146.1330 C   0  0  0  0  0  2  0  0  0  0  0  0
  184.4310  178.2090  145.9060 C   0  0  0  0  0  2  0  0  0  0  0  0
  184.7790  178.8090  144.5900 C   0  0  0  0  0  0  0  0  0  0  0  0
  185.5540  179.7990  144.5340 O   0  0  0  0  0  1  0  0  0  0  0  0
  184.2240  178.2960  143.4250 O   0  0  0  0  0  0  0  0  0  0  0  0
  2 30  1  1  0  0  0
  2 21  1  0  0  0  0
  3 17  1  0  0  0  0
  5 27  1  0  0  0  0
  6 18  1  0  0  0  0
  6 19  1  1  0  0  0
  7 26  1  6  0  0  0
  7  5  1  0  0  0  0
  7 12  1  0  0  0  0
  9 23  1  0  0  0  0
  9 10  1  0  0  0  0
 10 20  2  0  0  0  0
 11  9  2  0  0  0  0
 12  3  1  6  0  0  0
 12 15  1  0  0  0  0
 13  1  2  0  0  0  0
 13 16  1  0  0  0  0
 14  8  1  0  0  0  0
 15  6  1  0  0  0  0
 15 18  1  0  0  0  0
 16 28  1  0  0  0  0
 17 11  2  0  0  0  0
 19  2  1  0  0  0  0
 20  1  1  0  0  0  0
 21  4  1  0  0  0  0
 21 29  1  0  0  0  0
 22 32  1  0  0  0  0
 22 14  1  0  0  0  0
 23 13  1  0  0  0  0
 24  3  1  0  0  0  0
 25 29  1  0  0  0  0
 25 16  2  0  0  0  0
 26 24  1  0  0  0  0
 27 18  1  0  0  0  0
 28  8  2  0  0  0  0
 29 22  2  0  0  0  0
 31 30  1  0  0  0  0
 32 33  1  0  0  0  0
 33 34  1  0  0  0  0
 35 34  1  0  0  0  0
 36 35  1  0  0  0  0
 37 36  1  0  0  0  0
 38 37  1  0  0  0  0
 39 37  2  0  0  0  0
M  END
>  <MODEL>
6

>  <REMARK>
 VINA RESULT:      -7.3      2.327      5.085
  Name = 
  7 active torsions:
  status: ('A' for Active; 'I' for Inactive)
    1  A    between atoms: C_2  and  O_8
    2  A    between atoms: O_6  and  C_19
    3  A    between atoms: O_6  and  C_28
    4  A    between atoms: C_19  and  C_27
    5  A    between atoms: C_25  and  C_29
    6  A    between atoms: C_25  and  C_39
    7  A    between atoms: C_27  and  C_39
                            x       y       z     vdW  Elec       q    Type
                         _______ _______ _______ _____ _____    ______ ____

>  <TORSDO>
F 7

$$$$
=
 OpenBabel11042417333D

 39 44  0  0  1  0  0  0  0  0999 V2000
  192.3380  175.7350  147.2630 N   0  0  0  0  0  0  0  0  0  0  0  0
  189.4780  173.8450  141.7950 C   0  0  2  0  0  3  0  0  0  0  0  0
  186.6330  177.4110  145.3730 N   0  0  0  0  0  0  0  0  0  0  0  0
  190.1830  171.5000  141.8110 O   0  0  0  0  0  1  0  0  0  0  0  0
  186.1310  178.3890  141.9270 C   0  0  0  0  0  2  0  0  0  0  0  0
  188.2720  175.9720  142.5080 C   0  0  1  0  0  3  0  0  0  0  0  0
  185.9060  177.5350  143.1460 C   0  0  1  0  0  3  0  0  0  0  0  0
  194.1820  173.0700  144.7000 C   0  0  0  0  0  3  0  0  0  0  0  0
  189.7660  176.7730  146.9650 C   0  0  0  0  0  0  0  0  0  0  0  0
  190.6690  177.3340  147.9770 C   0  0  0  0  0  3  0  0  0  0  0  0
  188.5780  177.2720  146.7630 C   0  0  0  0  0  0  0  0  0  0  0  0
  187.0870  177.7580  144.0370 C   0  0  2  0  0  3  0  0  0  0  0  0
  191.5420  175.1160  146.4350 C   0  0  0  0  0  0  0  0  0  0  0  0
  193.9300  173.3560  143.2540 C   0  0  0  0  0  2  0  0  0  0  0  0
  188.3800  177.1020  143.5240 C   0  0  2  0  0  3  0  0  0  0  0  0
  192.0730  174.1500  145.4540 C   0  0  0  0  0  0  0  0  0  0  0  0
  187.3650  177.7120  146.5670 C   0  0  0  0  0  3  0  0  0  0  0  0
  188.5520  177.3830  142.0130 C   0  0  2  0  0  3  0  0  0  0  0  0
  189.5830  175.2140  142.4870 C   0  0  0  0  0  2  0  0  0  0  0  0
  191.8910  176.8070  148.1150 C   0  0  0  0  0  3  0  0  0  0  0  0
  190.1500  172.6780  142.5620 C   0  0  1  0  0  3  0  0  0  0  0  0
  192.6740  172.7190  142.7210 C   0  0  0  0  0  0  0  0  0  0  0  0
  190.0600  175.4190  146.4240 C   0  0  0  0  0  2  0  0  0  0  0  0
  185.1780  177.4880  145.4140 C   0  0  0  0  0  2  0  0  0  0  0  0
  191.2800  173.8780  144.4160 C   0  0  0  0  0  3  0  0  0  0  0  0
  184.7330  177.9160  144.0160 C   0  0  0  0  0  2  0  0  0  0  0  0
  187.3230  177.8020  141.1590 C   0  0  0  0  0  2  0  0  0  0  0  0
  193.3700  173.4800  145.6730 C   0  0  0  0  0  3  0  0  0  0  0  0
  191.4640  173.0130  143.2420 C   0  0  0  0  0  0  0  0  0  0  0  0
  189.7650  173.8830  140.4120 O   0  0  0  0  0  0  0  0  0  0  0  0
  188.5670  173.7630  139.6920 C   0  0  0  0  0  1  0  0  0  0  0  0
  192.7590  171.8810  141.6040 O   0  0  0  0  0  0  0  0  0  0  0  0
  193.6040  170.7390  141.5560 C   0  0  0  0  0  2  0  0  0  0  0  0
  193.1890  169.7500  142.6290 C   0  0  0  0  0  2  0  0  0  0  0  0
  194.3290  169.5350  143.6060 C   0  0  0  0  0  2  0  0  0  0  0  0
  193.7720  169.3630  145.0050 C   0  0  0  0  0  2  0  0  0  0  0  0
  194.8670  169.5070  146.0010 C   0  0  0  0  0  0  0  0  0  0  0  0
  195.9120  170.1410  145.7000 O   0  0  0  0  0  0  0  0  0  0  0  0
  194.7510  168.9160  147.2520 O   0  0  0  0  0  1  0  0  0  0  0  0
  1 20  1  0  0  0  0
  2 30  1  6  0  0  0
  2 19  1  0  0  0  0
  2 21  1  0  0  0  0
  3 24  1  0  0  0  0
  3 17  1  0  0  0  0
  4 21  1  0  0  0  0
  6 19  1  1  0  0  0
  6 15  1  0  0  0  0
  7  5  1  6  0  0  0
  7 26  1  0  0  0  0
  7 12  1  0  0  0  0
  8 28  2  0  0  0  0
  9 10  1  0  0  0  0
 10 20  2  0  0  0  0
 11  9  2  0  0  0  0
 12  3  1  1  0  0  0
 13  1  2  0  0  0  0
 14  8  1  0  0  0  0
 15 12  1  0  0  0  0
 16 28  1  0  0  0  0
 16 13  1  0  0  0  0
 17 11  2  0  0  0  0
 18  6  1  0  0  0  0
 18 15  1  0  0  0  0
 21 29  1  0  0  0  0
 22 29  2  0  0  0  0
 22 14  1  0  0  0  0
 23 13  1  0  0  0  0
 23  9  1  0  0  0  0
 25 16  2  0  0  0  0
 26 24  1  0  0  0  0
 27  5  1  0  0  0  0
 27 18  1  0  0  0  0
 29 25  1  0  0  0  0
 31 30  1  0  0  0  0
 32 22  1  0  0  0  0
 33 32  1  0  0  0  0
 33 34  1  0  0  0  0
 34 35  1  0  0  0  0
 35 36  1  0  0  0  0
 36 37  1  0  0  0  0
 37 39  1  0  0  0  0
 38 37  2  0  0  0  0
M  END
>  <MODEL>
7

>  <REMARK>
 VINA RESULT:      -7.1      3.332      9.167
  Name = 
  7 active torsions:
  status: ('A' for Active; 'I' for Inactive)
    1  A    between atoms: C_2  and  O_8
    2  A    between atoms: O_6  and  C_19
    3  A    between atoms: O_6  and  C_28
    4  A    between atoms: C_19  and  C_27
    5  A    between atoms: C_25  and  C_29
    6  A    between atoms: C_25  and  C_39
    7  A    between atoms: C_27  and  C_39
                            x       y       z     vdW  Elec       q    Type
                         _______ _______ _______ _____ _____    ______ ____

>  <TORSDO>
F 7

$$$$
=
 OpenBabel11042417333D

 39 44  0  0  1  0  0  0  0  0999 V2000
  192.2720  175.6250  147.0950 N   0  0  0  0  0  0  0  0  0  0  0  0
  189.3840  173.9260  141.5790 C   0  0  2  0  0  3  0  0  0  0  0  0
  186.5630  177.3750  145.2880 N   0  0  0  0  0  0  0  0  0  0  0  0
  190.0850  171.5800  141.5130 O   0  0  0  0  0  1  0  0  0  0  0  0
  186.0480  178.4690  141.8780 C   0  0  0  0  0  2  0  0  0  0  0  0
  188.1870  176.0300  142.3680 C   0  0  1  0  0  3  0  0  0  0  0  0
  185.8270  177.5750  143.0690 C   0  0  1  0  0  3  0  0  0  0  0  0
  194.0990  173.0440  144.4360 C   0  0  0  0  0  3  0  0  0  0  0  0
  189.7010  176.6780  146.8430 C   0  0  0  0  0  0  0  0  0  0  0  0
  190.6100  177.2030  147.8690 C   0  0  0  0  0  3  0  0  0  0  0  0
  188.5140  177.1860  146.6640 C   0  0  0  0  0  0  0  0  0  0  0  0
  187.0120  177.7670  143.9610 C   0  0  2  0  0  3  0  0  0  0  0  0
  191.4710  175.0370  146.2500 C   0  0  0  0  0  0  0  0  0  0  0  0
  193.8420  173.3790  143.0010 C   0  0  0  0  0  2  0  0  0  0  0  0
  188.3010  177.1250  143.4210 C   0  0  2  0  0  3  0  0  0  0  0  0
  191.9960  174.1020  145.2350 C   0  0  0  0  0  0  0  0  0  0  0  0
  187.3010  177.6350  146.4870 C   0  0  0  0  0  3  0  0  0  0  0  0
  188.4670  177.4560  141.9190 C   0  0  2  0  0  3  0  0  0  0  0  0
  189.4950  175.2700  142.3160 C   0  0  0  0  0  2  0  0  0  0  0  0
  191.8320  176.6690  147.9840 C   0  0  0  0  0  3  0  0  0  0  0  0
  190.0570  172.7320  142.3030 C   0  0  1  0  0  3  0  0  0  0  0  0
  192.5820  172.7630  142.4530 C   0  0  0  0  0  0  0  0  0  0  0  0
  189.9900  175.3420  146.2550 C   0  0  0  0  0  2  0  0  0  0  0  0
  185.1090  177.4540  145.3380 C   0  0  0  0  0  2  0  0  0  0  0  0
  191.1980  173.8670  144.1920 C   0  0  0  0  0  3  0  0  0  0  0  0
  184.6580  177.9290  143.9560 C   0  0  0  0  0  2  0  0  0  0  0  0
  187.2350  177.9070  141.0860 C   0  0  0  0  0  2  0  0  0  0  0  0
  193.2920  173.4230  145.4260 C   0  0  0  0  0  3  0  0  0  0  0  0
  191.3750  173.0410  142.9880 C   0  0  0  0  0  0  0  0  0  0  0  0
  189.6660  174.0090  140.1970 O   0  0  0  0  0  0  0  0  0  0  0  0
  188.4680  173.8820  139.4780 C   0  0  0  0  0  1  0  0  0  0  0  0
  192.6600  171.9620  141.3080 O   0  0  0  0  0  0  0  0  0  0  0  0
  193.5180  172.2590  140.2140 C   0  0  0  0  0  2  0  0  0  0  0  0
  192.8140  173.1970  139.2520 C   0  0  0  0  0  2  0  0  0  0  0  0
  193.5760  174.5050  139.1520 C   0  0  0  0  0  2  0  0  0  0  0  0
  195.0010  174.2990  139.6230 C   0  0  0  0  0  2  0  0  0  0  0  0
  195.4880  175.5320  140.2980 C   0  0  0  0  0  0  0  0  0  0  0  0
  196.7010  175.8590  140.2120 O   0  0  0  0  0  0  0  0  0  0  0  0
  194.6130  176.3060  141.0470 O   0  0  0  0  0  1  0  0  0  0  0  0
  1 20  1  0  0  0  0
  2 30  1  6  0  0  0
  2 21  1  0  0  0  0
  2 19  1  0  0  0  0
  3 24  1  0  0  0  0
  3 17  1  0  0  0  0
  4 21  1  0  0  0  0
  6 19  1  1  0  0  0
  6 15  1  0  0  0  0
  7  5  1  6  0  0  0
  7 26  1  0  0  0  0
  7 12  1  0  0  0  0
  8 28  2  0  0  0  0
  9 10  1  0  0  0  0
 10 20  2  0  0  0  0
 11  9  2  0  0  0  0
 12  3  1  1  0  0  0
 13 23  1  0  0  0  0
 13  1  2  0  0  0  0
 14  8  1  0  0  0  0
 15 12  1  0  0  0  0
 16 28  1  0  0  0  0
 16 13  1  0  0  0  0
 17 11  2  0  0  0  0
 18  6  1  0  0  0  0
 18 15  1  0  0  0  0
 21 29  1  0  0  0  0
 22 29  2  0  0  0  0
 22 14  1  0  0  0  0
 23  9  1  0  0  0  0
 25 16  2  0  0  0  0
 26 24  1  0  0  0  0
 27  5  1  0  0  0  0
 27 18  1  0  0  0  0
 29 25  1  0  0  0  0
 31 30  1  0  0  0  0
 32 22  1  0  0  0  0
 33 32  1  0  0  0  0
 34 33  1  0  0  0  0
 35 34  1  0  0  0  0
 35 36  1  0  0  0  0
 36 37  1  0  0  0  0
 37 39  1  0  0  0  0
 38 37  2  0  0  0  0
M  END
>  <MODEL>
8

>  <REMARK>
 VINA RESULT:      -7.0      3.488      8.833
  Name = 
  7 active torsions:
  status: ('A' for Active; 'I' for Inactive)
    1  A    between atoms: C_2  and  O_8
    2  A    between atoms: O_6  and  C_19
    3  A    between atoms: O_6  and  C_28
    4  A    between atoms: C_19  and  C_27
    5  A    between atoms: C_25  and  C_29
    6  A    between atoms: C_25  and  C_39
    7  A    between atoms: C_27  and  C_39
                            x       y       z     vdW  Elec       q    Type
                         _______ _______ _______ _____ _____    ______ ____

>  <TORSDO>
F 7

$$$$
=
 OpenBabel11042417333D

 39 44  0  0  1  0  0  0  0  0999 V2000
  196.2570  175.6620  144.1210 N   0  0  0  0  0  0  0  0  0  0  0  0
  189.9480  175.7380  142.7640 C   0  0  2  0  0  3  0  0  0  0  0  0
  193.7180  174.4540  138.5510 N   0  0  0  0  0  0  0  0  0  0  0  0
  189.3270  177.7280  144.0500 O   0  0  0  0  0  1  0  0  0  0  0  0
  190.8110  172.3090  138.3650 C   0  0  0  0  0  2  0  0  0  0  0  0
  191.0310  174.3230  140.9450 C   0  0  1  0  0  3  0  0  0  0  0  0
  191.5650  173.5990  138.1810 C   0  0  1  0  0  3  0  0  0  0  0  0
  193.4710  176.7180  146.9830 C   0  0  0  0  0  3  0  0  0  0  0  0
  195.7120  175.0810  141.4480 C   0  0  0  0  0  0  0  0  0  0  0  0
  197.0440  174.8080  141.9990 C   0  0  0  0  0  3  0  0  0  0  0  0
  195.4080  174.7690  140.2180 C   0  0  0  0  0  0  0  0  0  0  0  0
  192.7390  173.5320  139.1050 C   0  0  2  0  0  3  0  0  0  0  0  0
  195.0980  176.0400  143.6580 C   0  0  0  0  0  0  0  0  0  0  0  0
  192.1980  175.9380  146.8990 C   0  0  0  0  0  2  0  0  0  0  0  0
  192.3670  173.6850  140.5890 C   0  0  2  0  0  3  0  0  0  0  0  0
  194.0060  176.4270  144.5730 C   0  0  0  0  0  0  0  0  0  0  0  0
  195.0830  174.5180  138.9790 C   0  0  0  0  0  3  0  0  0  0  0  0
  191.1380  172.8060  140.9190 C   0  0  2  0  0  3  0  0  0  0  0  0
  191.0730  174.7580  142.3950 C   0  0  0  0  0  2  0  0  0  0  0  0
  197.2890  175.1130  143.2790 C   0  0  0  0  0  3  0  0  0  0  0  0
  190.4050  176.9690  143.5890 C   0  0  1  0  0  3  0  0  0  0  0  0
  191.1860  176.5320  145.9550 C   0  0  0  0  0  0  0  0  0  0  0  0
  194.8260  176.0340  142.1700 C   0  0  0  0  0  2  0  0  0  0  0  0
  193.4230  174.6660  137.1400 C   0  0  0  0  0  2  0  0  0  0  0  0
  192.7770  176.4100  144.0540 C   0  0  0  0  0  3  0  0  0  0  0  0
  192.1940  173.8130  136.8270 C   0  0  0  0  0  2  0  0  0  0  0  0
  190.2070  172.3170  139.7750 C   0  0  0  0  0  2  0  0  0  0  0  0
  194.2930  176.8800  145.9480 C   0  0  0  0  0  3  0  0  0  0  0  0
  191.4610  176.6930  144.6440 C   0  0  0  0  0  0  0  0  0  0  0  0
  188.7790  175.1080  143.2480 O   0  0  0  0  0  0  0  0  0  0  0  0
  187.7740  175.1980  142.2730 C   0  0  0  0  0  1  0  0  0  0  0  0
  189.9050  176.8320  146.4330 O   0  0  0  0  0  0  0  0  0  0  0  0
  189.0060  175.8410  146.9100 C   0  0  0  0  0  2  0  0  0  0  0  0
  187.5890  176.1980  146.5050 C   0  0  0  0  0  2  0  0  0  0  0  0
  187.2860  177.6340  146.8860 C   0  0  0  0  0  2  0  0  0  0  0  0
  186.4110  178.2670  145.8230 C   0  0  0  0  0  2  0  0  0  0  0  0
  185.0690  178.5640  146.3900 C   0  0  0  0  0  0  0  0  0  0  0  0
  184.9190  178.6570  147.6370 O   0  0  0  0  0  1  0  0  0  0  0  0
  183.9740  178.7070  145.5480 O   0  0  0  0  0  0  0  0  0  0  0  0
  2 30  1  1  0  0  0
  2 21  1  0  0  0  0
  3 17  1  0  0  0  0
  5 27  1  0  0  0  0
  6 19  1  1  0  0  0
  7 26  1  6  0  0  0
  7  5  1  0  0  0  0
  7 12  1  0  0  0  0
  9 10  1  0  0  0  0
  9 23  1  0  0  0  0
 10 20  2  0  0  0  0
 11  9  2  0  0  0  0
 12  3  1  6  0  0  0
 12 15  1  0  0  0  0
 13  1  2  0  0  0  0
 13 16  1  0  0  0  0
 14  8  1  0  0  0  0
 15 18  1  0  0  0  0
 15  6  1  0  0  0  0
 16 28  1  0  0  0  0
 17 11  2  0  0  0  0
 18  6  1  0  0  0  0
 19  2  1  0  0  0  0
 20  1  1  0  0  0  0
 21  4  1  0  0  0  0
 21 29  1  0  0  0  0
 22 32  1  0  0  0  0
 22 14  1  0  0  0  0
 23 13  1  0  0  0  0
 24  3  1  0  0  0  0
 25 16  2  0  0  0  0
 25 29  1  0  0  0  0
 26 24  1  0  0  0  0
 27 18  1  0  0  0  0
 28  8  2  0  0  0  0
 29 22  2  0  0  0  0
 31 30  1  0  0  0  0
 32 33  1  0  0  0  0
 34 35  1  0  0  0  0
 34 33  1  0  0  0  0
 36 37  1  0  0  0  0
 36 35  1  0  0  0  0
 37 38  1  0  0  0  0
 39 37  2  0  0  0  0
M  END
>  <MODEL>
9

>  <REMARK>
 VINA RESULT:      -7.0      2.808      5.476
  Name = 
  7 active torsions:
  status: ('A' for Active; 'I' for Inactive)
    1  A    between atoms: C_2  and  O_8
    2  A    between atoms: O_6  and  C_19
    3  A    between atoms: O_6  and  C_28
    4  A    between atoms: C_19  and  C_27
    5  A    between atoms: C_25  and  C_29
    6  A    between atoms: C_25  and  C_39
    7  A    between atoms: C_27  and  C_39
                            x       y       z     vdW  Elec       q    Type
                         _______ _______ _______ _____ _____    ______ ____

>  <TORSDO>
F 7

$$$$
