=
 OpenBabel11042415203D

 47 53  0  0  1  0  0  0  0  0999 V2000
  190.8320  177.9270  145.5470 F   0  0  0  0  0  0  0  0  0  0  0  0
  193.0920  174.9090  143.2860 C   0  0  1  0  0  3  0  0  0  0  0  0
  191.4300  175.6370  145.1910 C   0  0  0  0  0  0  0  0  0  0  0  0
  191.9190  173.1510  144.6700 C   0  0  1  0  0  3  0  0  0  0  0  0
  189.9180  173.8970  145.9630 C   0  0  0  0  0  3  0  0  0  0  0  0
  193.2340  173.5790  144.0130 C   0  0  0  0  0  2  0  0  0  0  0  0
  193.0200  176.1940  144.5560 S   0  0  0  0  0  0  0  0  0  0  0  0
  190.5260  176.6080  145.6570 C   0  0  0  0  0  0  0  0  0  0  0  0
  191.1050  174.2620  145.3090 C   0  0  0  0  0  0  0  0  0  0  0  0
  189.3330  176.2200  146.2830 C   0  0  0  0  0  0  0  0  0  0  0  0
  189.0440  174.8670  146.4530 C   0  0  0  0  0  3  0  0  0  0  0  0
  196.5030  175.9660  142.0810 N   0  0  0  0  0  0  0  0  0  0  0  0
  195.5850  174.8160  138.7860 C   0  0  0  0  0  2  0  0  0  0  0  0
  196.9980  175.3490  138.6890 C   0  0  0  0  0  3  0  0  0  0  0  0
  194.2390  175.1750  142.3580 C   0  0  0  0  0  0  0  0  0  0  0  0
  194.1980  174.8080  140.9960 C   0  0  0  0  0  3  0  0  0  0  0  0
  197.4660  175.7960  139.8170 N   0  0  0  0  0  0  0  0  0  0  0  0
  195.4200  175.7480  142.8830 C   0  0  0  0  0  3  0  0  0  0  0  0
  196.4390  175.6180  140.7720 C   0  0  0  0  0  0  0  0  0  0  0  0
  195.3280  175.0560  140.2250 C   0  0  0  0  0  0  0  0  0  0  0  0
  191.6680  171.5670  142.8110 C   0  0  0  0  0  3  0  0  0  0  0  0
  191.0880  172.3850  143.6860 C   0  0  0  0  0  3  0  0  0  0  0  0
  190.6720  170.6410  141.6480 S   0  0  0  0  0  0  0  0  0  0  0  0
  191.6890  172.8480  138.4240 N   0  0  0  0  0  0  0  0  0  0  0  0
  191.4490  171.5340  137.8290 C   0  0  0  0  0  2  0  0  0  0  0  0
  191.2680  172.7450  139.8320 C   0  0  2  0  0  3  0  0  0  0  0  0
  191.3420  170.5170  138.9570 C   0  0  0  0  0  2  0  0  0  0  0  0
  191.5910  171.3100  140.2180 C   0  0  2  0  0  3  0  0  0  0  0  0
  187.8430  174.2940  142.8140 C   0  0  0  0  0  1  0  0  0  0  0  0
  188.5510  175.0410  141.7020 C   0  0  0  0  0  0  0  0  0  0  0  0
  187.7720  175.9610  140.7870 C   0  0  0  0  0  1  0  0  0  0  0  0
  189.8160  173.1080  140.0740 C   0  0  0  0  0  0  0  0  0  0  0  0
  189.5040  174.1780  140.9580 N   0  0  0  0  0  0  0  0  0  0  0  0
  189.8920  175.3020  141.8700 C   0  0  0  0  0  2  0  0  0  0  0  0
  188.8850  172.4620  139.5220 O   0  0  0  0  0  0  0  0  0  0  0  0
  190.9650  173.8560  137.6510 C   0  0  0  0  0  2  0  0  0  0  0  0
  190.6990  173.3520  136.3170 N   0  0  0  0  0  1  0  0  0  0  0  0
  188.3920  177.2400  146.8410 C   0  0  0  0  0  2  0  0  0  0  0  0
  187.0170  176.8990  146.5000 N   0  0  0  0  0  2  0  0  0  0  0  0
  186.1270  178.9860  143.6340 C   0  0  0  0  0  0  0  0  0  0  0  0
  184.9580  179.7530  144.1760 C   0  0  0  0  0  2  0  0  0  0  0  0
  184.0830  178.8160  145.0140 C   0  0  0  0  0  2  0  0  0  0  0  0
  186.4430  179.0560  142.3160 F   0  0  0  0  0  0  0  0  0  0  0  0
  186.4090  178.0720  145.8940 C   0  0  2  0  0  3  0  0  0  0  0  0
  184.8790  178.0310  146.0770 C   0  0  1  0  0  3  0  0  0  0  0  0
  184.5480  178.4970  147.3490 O   0  0  0  0  0  1  0  0  0  0  0  0
  186.8000  178.1620  144.4430 C   0  0  0  0  0  3  0  0  0  0  0  0
  1  8  1  0  0  0  0
  2 15  1  6  0  0  0
  2  6  1  0  0  0  0
  2  7  1  0  0  0  0
  3  9  2  0  0  0  0
  3  8  1  0  0  0  0
  4 22  1  6  0  0  0
  4  9  1  0  0  0  0
  5 11  2  0  0  0  0
  6  4  1  0  0  0  0
  7  3  1  0  0  0  0
  8 10  2  0  0  0  0
  9  5  1  0  0  0  0
 10 11  1  0  0  0  0
 10 38  1  0  0  0  0
 12 18  1  0  0  0  0
 13 20  1  0  0  0  0
 14 13  1  0  0  0  0
 14 17  2  0  0  0  0
 15 18  2  0  0  0  0
 16 15  1  0  0  0  0
 17 19  1  0  0  0  0
 19 12  2  0  0  0  0
 20 19  1  0  0  0  0
 20 16  2  0  0  0  0
 21 22  2  0  0  0  0
 23 21  1  0  0  0  0
 24 26  1  0  0  0  0
 25 24  1  0  0  0  0
 25 27  1  0  0  0  0
 26 32  1  6  0  0  0
 26 28  1  0  0  0  0
 27 28  1  0  0  0  0
 28 23  1  1  0  0  0
 30 34  1  0  0  0  0
 30 29  1  0  0  0  0
 31 30  1  0  0  0  0
 32 33  1  0  0  0  0
 33 30  1  0  0  0  0
 33 34  1  0  0  0  0
 35 32  2  0  0  0  0
 36 24  1  0  0  0  0
 37 36  1  0  0  0  0
 39 38  1  0  0  0  0
 40 41  1  0  0  0  0
 40 47  2  0  0  0  0
 41 42  1  0  0  0  0
 42 45  1  0  0  0  0
 43 40  1  0  0  0  0
 44 45  1  0  0  0  0
 44 39  1  6  0  0  0
 45 46  1  1  0  0  0
 47 44  1  0  0  0  0
M  END
>  <MODEL>
1

>  <REMARK>
 VINA RESULT:      -8.1      0.000      0.000
  Name = 
  9 active torsions:
  status: ('A' for Active; 'I' for Inactive)
    1  A    between atoms: C_2  and  S_16
    2  A    between atoms: C_7  and  C_17
    3  A    between atoms: C_10  and  C_21
    4  A    between atoms: S_16  and  C_46
    5  A    between atoms: C_19  and  N_29
    6  A    between atoms: C_19  and  C_37
    7  A    between atoms: N_20  and  C_30
    8  A    between atoms: C_22  and  C_31
    9  A    between atoms: C_26  and  N_29
                            x       y       z     vdW  Elec       q    Type
                         _______ _______ _______ _____ _____    ______ ____

>  <TORSDO>
F 9

$$$$
=
 OpenBabel11042415203D

 47 53  0  0  1  0  0  0  0  0999 V2000
  190.2890  177.8060  143.8500 F   0  0  0  0  0  0  0  0  0  0  0  0
  194.0130  175.5190  143.3730 C   0  0  1  0  0  3  0  0  0  0  0  0
  192.0270  176.4710  144.8130 C   0  0  0  0  0  0  0  0  0  0  0  0
  193.7920  174.8610  145.8030 C   0  0  1  0  0  3  0  0  0  0  0  0
  191.5730  175.2660  146.8740 C   0  0  0  0  0  3  0  0  0  0  0  0
  194.7510  175.2710  144.6820 C   0  0  0  0  0  2  0  0  0  0  0  0
  193.1490  177.0970  143.5510 S   0  0  0  0  0  0  0  0  0  0  0  0
  190.7070  176.9540  144.8230 C   0  0  0  0  0  0  0  0  0  0  0  0
  192.4570  175.5820  145.8300 C   0  0  0  0  0  0  0  0  0  0  0  0
  189.8330  176.6020  145.8610 C   0  0  0  0  0  0  0  0  0  0  0  0
  190.2770  175.7770  146.8940 C   0  0  0  0  0  3  0  0  0  0  0  0
  197.1750  175.9900  141.3770 N   0  0  0  0  0  0  0  0  0  0  0  0
  195.3610  174.9290  138.4440 C   0  0  0  0  0  2  0  0  0  0  0  0
  196.7780  175.2270  138.0020 C   0  0  0  0  0  3  0  0  0  0  0  0
  194.9420  175.5770  142.1990 C   0  0  0  0  0  0  0  0  0  0  0  0
  194.5340  175.1910  140.9050 C   0  0  0  0  0  3  0  0  0  0  0  0
  197.5540  175.6180  138.9690 N   0  0  0  0  0  0  0  0  0  0  0  0
  196.2850  175.9660  142.4120 C   0  0  0  0  0  3  0  0  0  0  0  0
  196.7600  175.6280  140.1370 C   0  0  0  0  0  0  0  0  0  0  0  0
  195.4810  175.2390  139.8870 C   0  0  0  0  0  0  0  0  0  0  0  0
  194.5820  172.5710  145.4010 C   0  0  0  0  0  3  0  0  0  0  0  0
  193.5920  173.3760  145.7780 C   0  0  0  0  0  3  0  0  0  0  0  0
  194.3440  170.7970  145.3880 S   0  0  0  0  0  0  0  0  0  0  0  0
  194.2900  170.4570  141.3640 N   0  0  0  0  0  0  0  0  0  0  0  0
  194.8340  169.1620  141.7720 C   0  0  0  0  0  2  0  0  0  0  0  0
  193.8760  171.1370  142.6040 C   0  0  2  0  0  3  0  0  0  0  0  0
  195.1930  169.2430  143.2490 C   0  0  0  0  0  2  0  0  0  0  0  0
  194.8790  170.6660  143.6460 C   0  0  2  0  0  3  0  0  0  0  0  0
  189.9030  172.5500  144.8950 C   0  0  0  0  0  1  0  0  0  0  0  0
  190.2000  172.5490  143.4090 C   0  0  0  0  0  0  0  0  0  0  0  0
  189.1350  172.1240  142.4200 C   0  0  0  0  0  1  0  0  0  0  0  0
  192.4390  170.8720  143.0080 C   0  0  0  0  0  0  0  0  0  0  0  0
  191.5280  171.9600  143.0980 N   0  0  0  0  0  0  0  0  0  0  0  0
  191.1750  173.4100  142.9590 C   0  0  0  0  0  2  0  0  0  0  0  0
  192.0480  169.7050  143.2860 O   0  0  0  0  0  0  0  0  0  0  0  0
  193.2070  170.2350  140.4090 C   0  0  0  0  0  2  0  0  0  0  0  0
  193.1250  168.8240  140.0810 N   0  0  0  0  0  1  0  0  0  0  0  0
  188.4470  177.1580  145.9200 C   0  0  0  0  0  2  0  0  0  0  0  0
  187.5460  176.3580  145.1000 N   0  0  0  0  0  2  0  0  0  0  0  0
  184.6900  178.2280  146.4060 C   0  0  0  0  0  0  0  0  0  0  0  0
  184.3030  179.0520  145.2140 C   0  0  0  0  0  2  0  0  0  0  0  0
  185.5690  179.5580  144.5160 C   0  0  0  0  0  2  0  0  0  0  0  0
  184.1200  178.4620  147.6160 F   0  0  0  0  0  0  0  0  0  0  0  0
  186.3090  177.1080  144.9430 C   0  0  2  0  0  3  0  0  0  0  0  0
  186.5840  178.4380  144.2150 C   0  0  1  0  0  3  0  0  0  0  0  0
  186.6430  178.2140  142.8390 O   0  0  0  0  0  1  0  0  0  0  0  0
  185.6660  177.3240  146.2870 C   0  0  0  0  0  3  0  0  0  0  0  0
  1  8  1  0  0  0  0
  2 15  1  6  0  0  0
  2  7  1  0  0  0  0
  2  6  1  0  0  0  0
  3  8  2  0  0  0  0
  3  9  1  0  0  0  0
  4 22  1  6  0  0  0
  4  9  1  0  0  0  0
  5 11  1  0  0  0  0
  6  4  1  0  0  0  0
  7  3  1  0  0  0  0
  8 10  1  0  0  0  0
  9  5  2  0  0  0  0
 10 38  1  0  0  0  0
 10 11  2  0  0  0  0
 12 18  1  0  0  0  0
 13 20  1  0  0  0  0
 14 13  1  0  0  0  0
 14 17  2  0  0  0  0
 15 18  2  0  0  0  0
 16 15  1  0  0  0  0
 17 19  1  0  0  0  0
 19 12  2  0  0  0  0
 20 19  1  0  0  0  0
 20 16  2  0  0  0  0
 21 22  2  0  0  0  0
 23 21  1  0  0  0  0
 24 25  1  0  0  0  0
 24 26  1  0  0  0  0
 25 27  1  0  0  0  0
 26 32  1  1  0  0  0
 26 28  1  0  0  0  0
 27 28  1  0  0  0  0
 28 23  1  1  0  0  0
 30 29  1  0  0  0  0
 31 30  1  0  0  0  0
 32 33  1  0  0  0  0
 32 35  2  0  0  0  0
 33 30  1  0  0  0  0
 34 33  1  0  0  0  0
 34 30  1  0  0  0  0
 36 24  1  0  0  0  0
 37 36  1  0  0  0  0
 39 38  1  0  0  0  0
 40 43  1  0  0  0  0
 41 40  1  0  0  0  0
 42 41  1  0  0  0  0
 44 39  1  1  0  0  0
 44 47  1  0  0  0  0
 45 46  1  6  0  0  0
 45 42  1  0  0  0  0
 45 44  1  0  0  0  0
 47 40  2  0  0  0  0
M  END
>  <MODEL>
2

>  <REMARK>
 VINA RESULT:      -7.7      2.595      3.247
  Name = 
  9 active torsions:
  status: ('A' for Active; 'I' for Inactive)
    1  A    between atoms: C_2  and  S_16
    2  A    between atoms: C_7  and  C_17
    3  A    between atoms: C_10  and  C_21
    4  A    between atoms: S_16  and  C_46
    5  A    between atoms: C_19  and  N_29
    6  A    between atoms: C_19  and  C_37
    7  A    between atoms: N_20  and  C_30
    8  A    between atoms: C_22  and  C_31
    9  A    between atoms: C_26  and  N_29
                            x       y       z     vdW  Elec       q    Type
                         _______ _______ _______ _____ _____    ______ ____

>  <TORSDO>
F 9

$$$$
=
 OpenBabel11042415203D

 47 53  0  0  1  0  0  0  0  0999 V2000
  189.7080  177.1440  143.4610 F   0  0  0  0  0  0  0  0  0  0  0  0
  193.7630  175.4440  143.4470 C   0  0  1  0  0  3  0  0  0  0  0  0
  191.5380  176.1660  144.6540 C   0  0  0  0  0  0  0  0  0  0  0  0
  193.4350  174.9230  145.8970 C   0  0  1  0  0  3  0  0  0  0  0  0
  191.0970  175.0430  146.7640 C   0  0  0  0  0  3  0  0  0  0  0  0
  194.4140  175.4030  144.8240 C   0  0  0  0  0  2  0  0  0  0  0  0
  192.6580  176.8750  143.4350 S   0  0  0  0  0  0  0  0  0  0  0  0
  190.1650  176.4340  144.5270 C   0  0  0  0  0  0  0  0  0  0  0  0
  192.0090  175.4250  145.7680 C   0  0  0  0  0  0  0  0  0  0  0  0
  189.2680  176.0180  145.5220 C   0  0  0  0  0  0  0  0  0  0  0  0
  189.7410  175.3440  146.6460 C   0  0  0  0  0  3  0  0  0  0  0  0
  196.9820  176.2620  141.6660 N   0  0  0  0  0  0  0  0  0  0  0  0
  195.5950  174.7690  138.6880 C   0  0  0  0  0  2  0  0  0  0  0  0
  196.9870  175.2490  138.3340 C   0  0  0  0  0  3  0  0  0  0  0  0
  194.7710  175.5710  142.3450 C   0  0  0  0  0  0  0  0  0  0  0  0
  194.5340  175.0520  141.0550 C   0  0  0  0  0  3  0  0  0  0  0  0
  197.6140  175.8080  139.3260 N   0  0  0  0  0  0  0  0  0  0  0  0
  196.0200  176.1670  142.6310 C   0  0  0  0  0  3  0  0  0  0  0  0
  196.7300  175.7690  140.4280 C   0  0  0  0  0  0  0  0  0  0  0  0
  195.5460  175.1790  140.1110 C   0  0  0  0  0  0  0  0  0  0  0  0
  194.5130  172.7500  145.5120 C   0  0  0  0  0  3  0  0  0  0  0  0
  193.4650  173.4260  145.9750 C   0  0  0  0  0  3  0  0  0  0  0  0
  194.5530  170.9650  145.6200 S   0  0  0  0  0  0  0  0  0  0  0  0
  194.8950  170.4360  141.6310 N   0  0  0  0  0  0  0  0  0  0  0  0
  195.5180  169.2200  142.1540 C   0  0  0  0  0  2  0  0  0  0  0  0
  194.3090  171.1280  142.7920 C   0  0  2  0  0  3  0  0  0  0  0  0
  195.7330  169.4040  143.6490 C   0  0  0  0  0  2  0  0  0  0  0  0
  195.2530  170.8070  143.9400 C   0  0  2  0  0  3  0  0  0  0  0  0
  190.0220  172.2620  144.6270 C   0  0  0  0  0  1  0  0  0  0  0  0
  190.4560  172.2060  143.1760 C   0  0  0  0  0  0  0  0  0  0  0  0
  189.5340  171.6200  142.1280 C   0  0  0  0  0  1  0  0  0  0  0  0
  192.8720  170.7430  143.0850 C   0  0  0  0  0  0  0  0  0  0  0  0
  191.8570  171.7370  143.0230 N   0  0  0  0  0  0  0  0  0  0  0  0
  191.3830  173.1340  142.7570 C   0  0  0  0  0  2  0  0  0  0  0  0
  192.5700  169.5610  143.4050 O   0  0  0  0  0  0  0  0  0  0  0  0
  193.9280  170.0650  140.6000 C   0  0  0  0  0  2  0  0  0  0  0  0
  193.7090  171.1890  139.7080 N   0  0  0  0  0  1  0  0  0  0  0  0
  187.8130  176.3520  145.4320 C   0  0  0  0  0  2  0  0  0  0  0  0
  187.4280  177.2300  146.5300 N   0  0  0  0  0  2  0  0  0  0  0  0
  185.8500  179.0140  143.7570 C   0  0  0  0  0  0  0  0  0  0  0  0
  184.6810  179.6570  144.4440 C   0  0  0  0  0  2  0  0  0  0  0  0
  184.0750  178.6680  145.4440 C   0  0  0  0  0  2  0  0  0  0  0  0
  185.9530  179.0450  142.4040 F   0  0  0  0  0  0  0  0  0  0  0  0
  186.5840  178.2790  145.9800 C   0  0  2  0  0  3  0  0  0  0  0  0
  185.1190  178.0560  146.3990 C   0  0  1  0  0  3  0  0  0  0  0  0
  184.9210  178.5500  147.6890 O   0  0  0  0  0  1  0  0  0  0  0  0
  186.7400  178.3320  144.4830 C   0  0  0  0  0  3  0  0  0  0  0  0
  1  8  1  0  0  0  0
  2 15  1  6  0  0  0
  2  6  1  0  0  0  0
  3  9  1  0  0  0  0
  4 22  1  6  0  0  0
  6  4  1  0  0  0  0
  7  2  1  0  0  0  0
  7  3  1  0  0  0  0
  8  3  2  0  0  0  0
  8 10  1  0  0  0  0
  9  4  1  0  0  0  0
  9  5  2  0  0  0  0
 10 11  2  0  0  0  0
 11  5  1  0  0  0  0
 12 18  1  0  0  0  0
 13 20  1  0  0  0  0
 14 13  1  0  0  0  0
 14 17  2  0  0  0  0
 15 18  2  0  0  0  0
 16 15  1  0  0  0  0
 17 19  1  0  0  0  0
 19 12  2  0  0  0  0
 20 19  1  0  0  0  0
 20 16  2  0  0  0  0
 21 23  1  0  0  0  0
 21 22  2  0  0  0  0
 24 25  1  0  0  0  0
 24 26  1  0  0  0  0
 25 27  1  0  0  0  0
 26 32  1  1  0  0  0
 26 28  1  0  0  0  0
 27 28  1  0  0  0  0
 28 23  1  1  0  0  0
 30 29  1  0  0  0  0
 31 30  1  0  0  0  0
 32 35  2  0  0  0  0
 33 32  1  0  0  0  0
 33 30  1  0  0  0  0
 34 33  1  0  0  0  0
 34 30  1  0  0  0  0
 36 24  1  0  0  0  0
 37 36  1  0  0  0  0
 38 10  1  0  0  0  0
 38 39  1  0  0  0  0
 40 41  1  0  0  0  0
 40 47  2  0  0  0  0
 41 42  1  0  0  0  0
 42 45  1  0  0  0  0
 43 40  1  0  0  0  0
 44 45  1  0  0  0  0
 44 39  1  6  0  0  0
 45 46  1  1  0  0  0
 47 44  1  0  0  0  0
M  END
>  <MODEL>
3

>  <REMARK>
 VINA RESULT:      -7.5      2.416      3.081
  Name = 
  9 active torsions:
  status: ('A' for Active; 'I' for Inactive)
    1  A    between atoms: C_2  and  S_16
    2  A    between atoms: C_7  and  C_17
    3  A    between atoms: C_10  and  C_21
    4  A    between atoms: S_16  and  C_46
    5  A    between atoms: C_19  and  N_29
    6  A    between atoms: C_19  and  C_37
    7  A    between atoms: N_20  and  C_30
    8  A    between atoms: C_22  and  C_31
    9  A    between atoms: C_26  and  N_29
                            x       y       z     vdW  Elec       q    Type
                         _______ _______ _______ _____ _____    ______ ____

>  <TORSDO>
F 9

$$$$
=
 OpenBabel11042415203D

 47 53  0  0  1  0  0  0  0  0999 V2000
  189.2560  174.3710  146.0060 F   0  0  0  0  0  0  0  0  0  0  0  0
  192.1020  172.1100  143.5320 C   0  0  1  0  0  3  0  0  0  0  0  0
  189.9860  173.6430  143.8460 C   0  0  0  0  0  0  0  0  0  0  0  0
  190.8980  173.0220  141.5070 C   0  0  1  0  0  3  0  0  0  0  0  0
  189.3570  174.9470  141.8940 C   0  0  0  0  0  3  0  0  0  0  0  0
  191.5880  171.8070  142.1310 C   0  0  0  0  0  2  0  0  0  0  0  0
  190.6580  172.1610  144.6190 S   0  0  0  0  0  0  0  0  0  0  0  0
  189.3140  174.5680  144.6630 C   0  0  0  0  0  0  0  0  0  0  0  0
  190.0430  173.8540  142.4450 C   0  0  0  0  0  0  0  0  0  0  0  0
  188.6590  175.6690  144.0920 C   0  0  0  0  0  0  0  0  0  0  0  0
  188.6640  175.8420  142.7090 C   0  0  0  0  0  3  0  0  0  0  0  0
  193.8220  168.7810  143.9410 N   0  0  0  0  0  0  0  0  0  0  0  0
  196.2020  170.3930  146.1220 C   0  0  0  0  0  2  0  0  0  0  0  0
  196.5990  168.9340  146.0370 C   0  0  0  0  0  3  0  0  0  0  0  0
  193.0690  171.0740  144.0200 C   0  0  0  0  0  0  0  0  0  0  0  0
  194.1450  171.4010  144.8730 C   0  0  0  0  0  3  0  0  0  0  0  0
  195.8240  168.2260  145.2700 N   0  0  0  0  0  0  0  0  0  0  0  0
  192.9350  169.7460  143.5550 C   0  0  0  0  0  3  0  0  0  0  0  0
  194.8410  169.1120  144.7720 C   0  0  0  0  0  0  0  0  0  0  0  0
  195.0150  170.3790  145.2360 C   0  0  0  0  0  0  0  0  0  0  0  0
  193.0280  174.2440  141.4460 C   0  0  0  0  0  3  0  0  0  0  0  0
  191.9140  173.8800  140.8150 C   0  0  0  0  0  3  0  0  0  0  0  0
  194.2460  175.2540  140.6120 S   0  0  0  0  0  0  0  0  0  0  0  0
  197.1810  173.9590  143.0650 N   0  0  0  0  0  0  0  0  0  0  0  0
  197.9410  174.4930  141.9370 C   0  0  0  0  0  2  0  0  0  0  0  0
  195.7740  174.3250  142.8230 C   0  0  2  0  0  3  0  0  0  0  0  0
  196.9710  174.7530  140.7930 C   0  0  0  0  0  2  0  0  0  0  0  0
  195.6310  174.2870  141.3090 C   0  0  2  0  0  3  0  0  0  0  0  0
  192.3540  177.1660  144.6270 C   0  0  0  0  0  1  0  0  0  0  0  0
  193.4450  176.4050  145.3530 C   0  0  0  0  0  0  0  0  0  0  0  0
  194.1890  177.0510  146.5020 C   0  0  0  0  0  1  0  0  0  0  0  0
  195.3660  175.6570  143.4200 C   0  0  0  0  0  0  0  0  0  0  0  0
  194.3540  175.6930  144.4180 N   0  0  0  0  0  0  0  0  0  0  0  0
  193.3730  175.0300  145.3370 C   0  0  0  0  0  2  0  0  0  0  0  0
  195.8940  176.7330  143.0270 O   0  0  0  0  0  0  0  0  0  0  0  0
  197.7360  174.4970  144.3060 C   0  0  0  0  0  2  0  0  0  0  0  0
  197.5120  173.5570  145.3900 N   0  0  0  0  0  1  0  0  0  0  0  0
  187.8870  176.6270  144.9410 C   0  0  0  0  0  2  0  0  0  0  0  0
  187.9470  177.9680  144.3730 N   0  0  0  0  0  2  0  0  0  0  0  0
  184.4510  178.3270  143.3700 C   0  0  0  0  0  0  0  0  0  0  0  0
  183.8370  178.8790  144.6220 C   0  0  0  0  0  2  0  0  0  0  0  0
  184.4400  178.1680  145.8370 C   0  0  0  0  0  2  0  0  0  0  0  0
  183.6640  177.9310  142.3370 F   0  0  0  0  0  0  0  0  0  0  0  0
  186.6220  178.5570  144.4880 C   0  0  2  0  0  3  0  0  0  0  0  0
  185.9820  178.1590  145.8320 C   0  0  1  0  0  3  0  0  0  0  0  0
  186.4590  178.9950  146.8430 O   0  0  0  0  0  1  0  0  0  0  0  0
  185.7730  178.1440  143.3160 C   0  0  0  0  0  3  0  0  0  0  0  0
  2 15  1  1  0  0  0
  2  7  1  0  0  0  0
  3  7  1  0  0  0  0
  3  8  1  0  0  0  0
  4 22  1  1  0  0  0
  4  6  1  0  0  0  0
  4  9  1  0  0  0  0
  5  9  1  0  0  0  0
  5 11  2  0  0  0  0
  6  2  1  0  0  0  0
  8  1  1  0  0  0  0
  9  3  2  0  0  0  0
 10  8  2  0  0  0  0
 10 38  1  0  0  0  0
 11 10  1  0  0  0  0
 12 19  2  0  0  0  0
 14 13  1  0  0  0  0
 15 16  1  0  0  0  0
 16 20  2  0  0  0  0
 17 14  2  0  0  0  0
 18 12  1  0  0  0  0
 18 15  2  0  0  0  0
 19 20  1  0  0  0  0
 19 17  1  0  0  0  0
 20 13  1  0  0  0  0
 22 21  2  0  0  0  0
 23 21  1  0  0  0  0
 24 36  1  0  0  0  0
 25 24  1  0  0  0  0
 26 24  1  0  0  0  0
 26 32  1  6  0  0  0
 27 28  1  0  0  0  0
 27 25  1  0  0  0  0
 28 23  1  1  0  0  0
 28 26  1  0  0  0  0
 29 30  1  0  0  0  0
 30 31  1  0  0  0  0
 32 33  1  0  0  0  0
 33 34  1  0  0  0  0
 33 30  1  0  0  0  0
 34 30  1  0  0  0  0
 35 32  2  0  0  0  0
 36 37  1  0  0  0  0
 39 38  1  0  0  0  0
 40 41  1  0  0  0  0
 41 42  1  0  0  0  0
 43 40  1  0  0  0  0
 44 39  1  6  0  0  0
 44 45  1  0  0  0  0
 45 42  1  0  0  0  0
 45 46  1  1  0  0  0
 47 40  2  0  0  0  0
 47 44  1  0  0  0  0
M  END
>  <MODEL>
4

>  <REMARK>
 VINA RESULT:      -7.3      3.210      5.705
  Name = 
  9 active torsions:
  status: ('A' for Active; 'I' for Inactive)
    1  A    between atoms: C_2  and  S_16
    2  A    between atoms: C_7  and  C_17
    3  A    between atoms: C_10  and  C_21
    4  A    between atoms: S_16  and  C_46
    5  A    between atoms: C_19  and  N_29
    6  A    between atoms: C_19  and  C_37
    7  A    between atoms: N_20  and  C_30
    8  A    between atoms: C_22  and  C_31
    9  A    between atoms: C_26  and  N_29
                            x       y       z     vdW  Elec       q    Type
                         _______ _______ _______ _____ _____    ______ ____

>  <TORSDO>
F 9

$$$$
=
 OpenBabel11042415203D

 47 53  0  0  1  0  0  0  0  0999 V2000
  193.2300  176.2070  146.6870 F   0  0  0  0  0  0  0  0  0  0  0  0
  189.3100  176.3210  144.6990 C   0  0  1  0  0  3  0  0  0  0  0  0
  191.9340  176.1190  144.6770 C   0  0  0  0  0  0  0  0  0  0  0  0
  190.5140  175.8200  142.5360 C   0  0  1  0  0  3  0  0  0  0  0  0
  192.8680  175.0090  142.7270 C   0  0  0  0  0  3  0  0  0  0  0  0
  189.3890  176.6120  143.2070 C   0  0  0  0  0  2  0  0  0  0  0  0
  190.7070  177.1710  145.4720 S   0  0  0  0  0  0  0  0  0  0  0  0
  193.0950  175.7950  145.3990 C   0  0  0  0  0  0  0  0  0  0  0  0
  191.7990  175.6870  143.3330 C   0  0  0  0  0  0  0  0  0  0  0  0
  194.1390  175.0930  144.7800 C   0  0  0  0  0  0  0  0  0  0  0  0
  194.0300  174.7220  143.4410 C   0  0  0  0  0  3  0  0  0  0  0  0
  186.7090  177.1470  147.2990 N   0  0  0  0  0  0  0  0  0  0  0  0
  184.6660  178.5330  144.6680 C   0  0  0  0  0  2  0  0  0  0  0  0
  183.8930  178.6980  145.9590 C   0  0  0  0  0  3  0  0  0  0  0  0
  188.0250  176.8000  145.3050 C   0  0  0  0  0  0  0  0  0  0  0  0
  187.0230  177.4240  144.5310 C   0  0  0  0  0  3  0  0  0  0  0  0
  184.5200  178.2430  147.0040 N   0  0  0  0  0  0  0  0  0  0  0  0
  187.8470  176.6830  146.7020 C   0  0  0  0  0  3  0  0  0  0  0  0
  185.7520  177.7320  146.5370 C   0  0  0  0  0  0  0  0  0  0  0  0
  185.8850  177.8740  145.1900 C   0  0  0  0  0  0  0  0  0  0  0  0
  189.9280  174.1510  140.8320 C   0  0  0  0  0  3  0  0  0  0  0  0
  190.0060  174.4730  142.1210 C   0  0  0  0  0  3  0  0  0  0  0  0
  189.3360  172.5360  140.3410 S   0  0  0  0  0  0  0  0  0  0  0  0
  192.4880  170.0380  140.7060 N   0  0  0  0  0  0  0  0  0  0  0  0
  191.6210  169.5950  141.7970 C   0  0  0  0  0  2  0  0  0  0  0  0
  191.7080  171.0210  139.9340 C   0  0  2  0  0  3  0  0  0  0  0  0
  190.5210  170.6320  141.9780 C   0  0  0  0  0  2  0  0  0  0  0  0
  190.8400  171.7140  140.9740 C   0  0  2  0  0  3  0  0  0  0  0  0
  189.4310  171.5720  135.7460 C   0  0  0  0  0  1  0  0  0  0  0  0
  190.7810  170.9430  136.0240 C   0  0  0  0  0  0  0  0  0  0  0  0
  191.1910  169.6740  135.3080 C   0  0  0  0  0  1  0  0  0  0  0  0
  190.9020  170.4210  138.7990 C   0  0  0  0  0  0  0  0  0  0  0  0
  191.0980  170.9020  137.4750 N   0  0  0  0  0  0  0  0  0  0  0  0
  191.7860  171.7730  136.4680 C   0  0  0  0  0  2  0  0  0  0  0  0
  190.0460  169.5210  139.0160 O   0  0  0  0  0  0  0  0  0  0  0  0
  192.9140  168.8710  139.9360 C   0  0  0  0  0  2  0  0  0  0  0  0
  194.1550  169.1680  139.2440 N   0  0  0  0  0  1  0  0  0  0  0  0
  195.4070  174.7960  145.5160 C   0  0  0  0  0  2  0  0  0  0  0  0
  196.5550  174.9740  144.6350 N   0  0  0  0  0  2  0  0  0  0  0  0
  197.1830  171.5500  145.7520 C   0  0  0  0  0  0  0  0  0  0  0  0
  197.9030  170.9780  144.5670 C   0  0  0  0  0  2  0  0  0  0  0  0
  197.2420  171.4830  143.2810 C   0  0  0  0  0  2  0  0  0  0  0  0
  196.7810  170.7430  146.7670 F   0  0  0  0  0  0  0  0  0  0  0  0
  197.2840  173.7160  144.6040 C   0  0  2  0  0  3  0  0  0  0  0  0
  197.0740  173.0150  143.2470 C   0  0  1  0  0  3  0  0  0  0  0  0
  197.9410  173.5610  142.3000 O   0  0  0  0  0  1  0  0  0  0  0  0
  196.8610  172.8470  145.7580 C   0  0  0  0  0  3  0  0  0  0  0  0
  2 15  1  1  0  0  0
  2  7  1  0  0  0  0
  3  8  1  0  0  0  0
  3  7  1  0  0  0  0
  4 22  1  1  0  0  0
  4  6  1  0  0  0  0
  4  9  1  0  0  0  0
  5  9  1  0  0  0  0
  5 11  2  0  0  0  0
  6  2  1  0  0  0  0
  8  1  1  0  0  0  0
  9  3  2  0  0  0  0
 10  8  2  0  0  0  0
 10 38  1  0  0  0  0
 11 10  1  0  0  0  0
 13 20  1  0  0  0  0
 13 14  1  0  0  0  0
 14 17  2  0  0  0  0
 15 18  2  0  0  0  0
 16 20  2  0  0  0  0
 16 15  1  0  0  0  0
 18 12  1  0  0  0  0
 19 17  1  0  0  0  0
 19 12  2  0  0  0  0
 20 19  1  0  0  0  0
 21 22  2  0  0  0  0
 23 21  1  0  0  0  0
 24 25  1  0  0  0  0
 25 27  1  0  0  0  0
 26 32  1  6  0  0  0
 26 24  1  0  0  0  0
 26 28  1  0  0  0  0
 28 23  1  6  0  0  0
 28 27  1  0  0  0  0
 29 30  1  0  0  0  0
 30 34  1  0  0  0  0
 30 33  1  0  0  0  0
 31 30  1  0  0  0  0
 32 35  2  0  0  0  0
 33 32  1  0  0  0  0
 34 33  1  0  0  0  0
 36 24  1  0  0  0  0
 37 36  1  0  0  0  0
 39 38  1  0  0  0  0
 40 47  2  0  0  0  0
 40 43  1  0  0  0  0
 41 40  1  0  0  0  0
 42 41  1  0  0  0  0
 44 39  1  6  0  0  0
 44 47  1  0  0  0  0
 45 46  1  6  0  0  0
 45 42  1  0  0  0  0
 45 44  1  0  0  0  0
M  END
>  <MODEL>
5

>  <REMARK>
 VINA RESULT:      -6.8      3.340      8.645
  Name = 
  9 active torsions:
  status: ('A' for Active; 'I' for Inactive)
    1  A    between atoms: C_2  and  S_16
    2  A    between atoms: C_7  and  C_17
    3  A    between atoms: C_10  and  C_21
    4  A    between atoms: S_16  and  C_46
    5  A    between atoms: C_19  and  N_29
    6  A    between atoms: C_19  and  C_37
    7  A    between atoms: N_20  and  C_30
    8  A    between atoms: C_22  and  C_31
    9  A    between atoms: C_26  and  N_29
                            x       y       z     vdW  Elec       q    Type
                         _______ _______ _______ _____ _____    ______ ____

>  <TORSDO>
F 9

$$$$
=
 OpenBabel11042415203D

 47 53  0  0  1  0  0  0  0  0999 V2000
  188.0880  173.9960  139.1320 F   0  0  0  0  0  0  0  0  0  0  0  0
  188.2300  175.7470  143.1620 C   0  0  1  0  0  3  0  0  0  0  0  0
  189.1070  174.1140  141.2940 C   0  0  0  0  0  0  0  0  0  0  0  0
  190.3270  174.3960  143.5570 C   0  0  1  0  0  3  0  0  0  0  0  0
  191.4210  173.4120  141.5400 C   0  0  0  0  0  3  0  0  0  0  0  0
  189.0220  174.9160  144.1630 C   0  0  0  0  0  2  0  0  0  0  0  0
  187.5090  174.5890  141.9760 S   0  0  0  0  0  0  0  0  0  0  0  0
  189.1830  173.8310  139.9200 C   0  0  0  0  0  0  0  0  0  0  0  0
  190.2530  173.9400  142.1110 C   0  0  0  0  0  0  0  0  0  0  0  0
  190.3700  173.3300  139.3660 C   0  0  0  0  0  0  0  0  0  0  0  0
  191.4760  173.1020  140.1820 C   0  0  0  0  0  3  0  0  0  0  0  0
  185.0280  177.6860  143.5990 N   0  0  0  0  0  0  0  0  0  0  0  0
  185.7850  177.9500  147.1170 C   0  0  0  0  0  2  0  0  0  0  0  0
  184.4700  178.6650  146.8940 C   0  0  0  0  0  3  0  0  0  0  0  0
  187.1430  176.5440  143.8190 C   0  0  0  0  0  0  0  0  0  0  0  0
  187.1390  176.7970  145.2070 C   0  0  0  0  0  3  0  0  0  0  0  0
  184.0670  178.6440  145.6580 N   0  0  0  0  0  0  0  0  0  0  0  0
  186.0600  176.9950  143.0310 C   0  0  0  0  0  3  0  0  0  0  0  0
  185.0480  177.9310  144.9320 C   0  0  0  0  0  0  0  0  0  0  0  0
  186.0650  177.5080  145.7310 C   0  0  0  0  0  0  0  0  0  0  0  0
  192.1900  175.3880  144.8130 C   0  0  0  0  0  3  0  0  0  0  0  0
  191.4090  175.4170  143.7360 C   0  0  0  0  0  3  0  0  0  0  0  0
  193.4910  176.5990  145.0160 S   0  0  0  0  0  0  0  0  0  0  0  0
  196.5960  174.0740  145.5590 N   0  0  0  0  0  0  0  0  0  0  0  0
  195.4770  173.1480  145.3880 C   0  0  0  0  0  2  0  0  0  0  0  0
  196.0650  175.4170  145.2680 C   0  0  2  0  0  3  0  0  0  0  0  0
  194.1850  173.9480  145.4670 C   0  0  0  0  0  2  0  0  0  0  0  0
  194.6230  175.3660  145.7480 C   0  0  2  0  0  3  0  0  0  0  0  0
  196.5680  174.1970  140.6540 C   0  0  0  0  0  1  0  0  0  0  0  0
  195.3280  174.6640  141.3890 C   0  0  0  0  0  0  0  0  0  0  0  0
  194.3750  175.6390  140.7320 C   0  0  0  0  0  1  0  0  0  0  0  0
  196.1880  175.8320  143.8150 C   0  0  0  0  0  0  0  0  0  0  0  0
  195.6090  175.0150  142.8050 N   0  0  0  0  0  0  0  0  0  0  0  0
  194.8140  173.8270  142.3540 C   0  0  0  0  0  2  0  0  0  0  0  0
  196.8140  176.8770  143.4890 O   0  0  0  0  0  0  0  0  0  0  0  0
  197.6910  173.6580  144.6850 C   0  0  0  0  0  2  0  0  0  0  0  0
  197.5180  172.2660  144.3130 N   0  0  0  0  0  1  0  0  0  0  0  0
  190.4460  172.9640  137.9180 C   0  0  0  0  0  2  0  0  0  0  0  0
  190.5320  174.1660  137.0970 N   0  0  0  0  0  2  0  0  0  0  0  0
  194.1420  174.6720  136.8190 C   0  0  0  0  0  0  0  0  0  0  0  0
  194.4930  173.7100  135.7230 C   0  0  0  0  0  2  0  0  0  0  0  0
  193.6980  172.4150  135.9110 C   0  0  0  0  0  2  0  0  0  0  0  0
  195.1190  175.2910  137.5290 F   0  0  0  0  0  0  0  0  0  0  0  0
  191.7940  174.1170  136.3740 C   0  0  2  0  0  3  0  0  0  0  0  0
  192.1850  172.6540  136.0890 C   0  0  1  0  0  3  0  0  0  0  0  0
  191.5020  172.1990  134.9610 O   0  0  0  0  0  1  0  0  0  0  0  0
  192.8590  174.8430  137.1510 C   0  0  0  0  0  3  0  0  0  0  0  0
  1  8  1  0  0  0  0
  2 15  1  1  0  0  0
  2  6  1  0  0  0  0
  3  7  1  0  0  0  0
  3  9  1  0  0  0  0
  4 22  1  6  0  0  0
  4  6  1  0  0  0  0
  5  9  2  0  0  0  0
  7  2  1  0  0  0  0
  8  3  2  0  0  0  0
  9  4  1  0  0  0  0
 10  8  1  0  0  0  0
 10 11  2  0  0  0  0
 11  5  1  0  0  0  0
 12 19  2  0  0  0  0
 14 13  1  0  0  0  0
 15 16  1  0  0  0  0
 16 20  2  0  0  0  0
 17 14  2  0  0  0  0
 18 12  1  0  0  0  0
 18 15  2  0  0  0  0
 19 17  1  0  0  0  0
 19 20  1  0  0  0  0
 20 13  1  0  0  0  0
 21 23  1  0  0  0  0
 22 21  2  0  0  0  0
 25 27  1  0  0  0  0
 25 24  1  0  0  0  0
 26 32  1  6  0  0  0
 26 24  1  0  0  0  0
 26 28  1  0  0  0  0
 27 28  1  0  0  0  0
 28 23  1  6  0  0  0
 29 30  1  0  0  0  0
 30 34  1  0  0  0  0
 30 33  1  0  0  0  0
 31 30  1  0  0  0  0
 33 32  1  0  0  0  0
 34 33  1  0  0  0  0
 35 32  2  0  0  0  0
 36 24  1  0  0  0  0
 37 36  1  0  0  0  0
 38 10  1  0  0  0  0
 39 38  1  0  0  0  0
 40 47  2  0  0  0  0
 40 43  1  0  0  0  0
 41 42  1  0  0  0  0
 41 40  1  0  0  0  0
 42 45  1  0  0  0  0
 44 39  1  1  0  0  0
 44 47  1  0  0  0  0
 45 46  1  6  0  0  0
 45 44  1  0  0  0  0
M  END
>  <MODEL>
6

>  <REMARK>
 VINA RESULT:      -6.7      3.212      9.410
  Name = 
  9 active torsions:
  status: ('A' for Active; 'I' for Inactive)
    1  A    between atoms: C_2  and  S_16
    2  A    between atoms: C_7  and  C_17
    3  A    between atoms: C_10  and  C_21
    4  A    between atoms: S_16  and  C_46
    5  A    between atoms: C_19  and  N_29
    6  A    between atoms: C_19  and  C_37
    7  A    between atoms: N_20  and  C_30
    8  A    between atoms: C_22  and  C_31
    9  A    between atoms: C_26  and  N_29
                            x       y       z     vdW  Elec       q    Type
                         _______ _______ _______ _____ _____    ______ ____

>  <TORSDO>
F 9

$$$$
=
 OpenBabel11042415203D

 47 53  0  0  1  0  0  0  0  0999 V2000
  189.1050  174.3840  139.9470 F   0  0  0  0  0  0  0  0  0  0  0  0
  189.3160  175.4970  144.1950 C   0  0  1  0  0  3  0  0  0  0  0  0
  190.0560  174.0590  142.1190 C   0  0  0  0  0  0  0  0  0  0  0  0
  191.2230  173.8550  144.4180 C   0  0  1  0  0  3  0  0  0  0  0  0
  192.2600  173.0490  142.2940 C   0  0  0  0  0  3  0  0  0  0  0  0
  189.9680  174.4370  145.0730 C   0  0  0  0  0  2  0  0  0  0  0  0
  188.5040  174.6210  142.8370 S   0  0  0  0  0  0  0  0  0  0  0  0
  190.1450  173.9720  140.7180 C   0  0  0  0  0  0  0  0  0  0  0  0
  191.1450  173.6280  142.9190 C   0  0  0  0  0  0  0  0  0  0  0  0
  191.2810  173.4150  140.1160 C   0  0  0  0  0  0  0  0  0  0  0  0
  192.3240  172.9360  140.9060 C   0  0  0  0  0  3  0  0  0  0  0  0
  187.7680  177.5620  146.9410 N   0  0  0  0  0  0  0  0  0  0  0  0
  184.8850  178.0330  144.8230 C   0  0  0  0  0  2  0  0  0  0  0  0
  184.6100  178.7760  146.1140 C   0  0  0  0  0  3  0  0  0  0  0  0
  188.3110  176.3170  144.9450 C   0  0  0  0  0  0  0  0  0  0  0  0
  187.0810  176.6990  144.3690 C   0  0  0  0  0  3  0  0  0  0  0  0
  185.5790  178.6970  146.9770 N   0  0  0  0  0  0  0  0  0  0  0  0
  188.6380  176.7760  146.2410 C   0  0  0  0  0  3  0  0  0  0  0  0
  186.5850  177.9070  146.3750 C   0  0  0  0  0  0  0  0  0  0  0  0
  186.2320  177.4970  145.1280 C   0  0  0  0  0  0  0  0  0  0  0  0
  193.3890  174.2040  145.5210 C   0  0  0  0  0  3  0  0  0  0  0  0
  192.4120  174.6980  144.7640 C   0  0  0  0  0  3  0  0  0  0  0  0
  194.8150  175.2080  145.9190 S   0  0  0  0  0  0  0  0  0  0  0  0
  196.2550  175.3390  142.1490 N   0  0  0  0  0  0  0  0  0  0  0  0
  196.7120  176.6170  142.6940 C   0  0  0  0  0  2  0  0  0  0  0  0
  195.6770  174.5930  143.2810 C   0  0  2  0  0  3  0  0  0  0  0  0
  195.9980  176.8490  144.0170 C   0  0  0  0  0  2  0  0  0  0  0  0
  195.0700  175.6680  144.1700 C   0  0  2  0  0  3  0  0  0  0  0  0
  196.5330  170.8340  146.1370 C   0  0  0  0  0  1  0  0  0  0  0  0
  196.7170  170.9560  144.6380 C   0  0  0  0  0  0  0  0  0  0  0  0
  197.9390  170.3640  143.9710 C   0  0  0  0  0  1  0  0  0  0  0  0
  196.6680  173.7120  144.0150 C   0  0  0  0  0  0  0  0  0  0  0  0
  196.4040  172.3200  144.1400 N   0  0  0  0  0  0  0  0  0  0  0  0
  195.5820  171.0970  143.8720 C   0  0  0  0  0  2  0  0  0  0  0  0
  197.7090  174.2000  144.5350 O   0  0  0  0  0  0  0  0  0  0  0  0
  197.3820  174.6710  141.5010 C   0  0  0  0  0  2  0  0  0  0  0  0
  197.8720  175.4880  140.4070 N   0  0  0  0  0  1  0  0  0  0  0  0
  191.3630  173.2580  138.6310 C   0  0  0  0  0  2  0  0  0  0  0  0
  192.5530  172.4980  138.2680 N   0  0  0  0  0  2  0  0  0  0  0  0
  193.2730  175.6250  136.5160 C   0  0  0  0  0  0  0  0  0  0  0  0
  194.7680  175.5690  136.4110 C   0  0  0  0  0  2  0  0  0  0  0  0
  195.3480  175.0240  137.7190 C   0  0  0  0  0  2  0  0  0  0  0  0
  192.6020  176.7560  136.1800 F   0  0  0  0  0  0  0  0  0  0  0  0
  193.3840  173.3520  137.4330 C   0  0  2  0  0  3  0  0  0  0  0  0
  194.6910  173.7040  138.1690 C   0  0  1  0  0  3  0  0  0  0  0  0
  195.6010  172.6550  138.0320 O   0  0  0  0  0  1  0  0  0  0  0  0
  192.6150  174.5820  137.0310 C   0  0  0  0  0  3  0  0  0  0  0  0
  1  8  1  0  0  0  0
  2 15  1  1  0  0  0
  2  6  1  0  0  0  0
  3  7  1  0  0  0  0
  3  9  1  0  0  0  0
  4 22  1  6  0  0  0
  4  6  1  0  0  0  0
  5  9  2  0  0  0  0
  7  2  1  0  0  0  0
  8  3  2  0  0  0  0
  9  4  1  0  0  0  0
 10  8  1  0  0  0  0
 10 11  2  0  0  0  0
 11  5  1  0  0  0  0
 13 20  1  0  0  0  0
 13 14  1  0  0  0  0
 14 17  2  0  0  0  0
 15 18  2  0  0  0  0
 16 15  1  0  0  0  0
 16 20  2  0  0  0  0
 18 12  1  0  0  0  0
 19 12  2  0  0  0  0
 19 17  1  0  0  0  0
 20 19  1  0  0  0  0
 21 23  1  0  0  0  0
 22 21  2  0  0  0  0
 24 25  1  0  0  0  0
 24 26  1  0  0  0  0
 25 27  1  0  0  0  0
 26 32  1  1  0  0  0
 26 28  1  0  0  0  0
 27 28  1  0  0  0  0
 28 23  1  1  0  0  0
 30 29  1  0  0  0  0
 31 30  1  0  0  0  0
 32 33  1  0  0  0  0
 32 35  2  0  0  0  0
 33 30  1  0  0  0  0
 34 33  1  0  0  0  0
 34 30  1  0  0  0  0
 36 24  1  0  0  0  0
 37 36  1  0  0  0  0
 38 10  1  0  0  0  0
 39 38  1  0  0  0  0
 40 47  2  0  0  0  0
 41 40  1  0  0  0  0
 41 42  1  0  0  0  0
 42 45  1  0  0  0  0
 43 40  1  0  0  0  0
 44 45  1  0  0  0  0
 44 39  1  1  0  0  0
 45 46  1  6  0  0  0
 47 44  1  0  0  0  0
M  END
>  <MODEL>
7

>  <REMARK>
 VINA RESULT:      -6.7      3.230      9.134
  Name = 
  9 active torsions:
  status: ('A' for Active; 'I' for Inactive)
    1  A    between atoms: C_2  and  S_16
    2  A    between atoms: C_7  and  C_17
    3  A    between atoms: C_10  and  C_21
    4  A    between atoms: S_16  and  C_46
    5  A    between atoms: C_19  and  N_29
    6  A    between atoms: C_19  and  C_37
    7  A    between atoms: N_20  and  C_30
    8  A    between atoms: C_22  and  C_31
    9  A    between atoms: C_26  and  N_29
                            x       y       z     vdW  Elec       q    Type
                         _______ _______ _______ _____ _____    ______ ____

>  <TORSDO>
F 9

$$$$
=
 OpenBabel11042415203D

 47 53  0  0  1  0  0  0  0  0999 V2000
  193.1900  176.6480  146.4230 F   0  0  0  0  0  0  0  0  0  0  0  0
  189.1990  176.3990  144.5960 C   0  0  1  0  0  3  0  0  0  0  0  0
  191.8270  176.3070  144.4860 C   0  0  0  0  0  0  0  0  0  0  0  0
  190.3450  175.7380  142.4430 C   0  0  1  0  0  3  0  0  0  0  0  0
  192.7390  175.0500  142.6160 C   0  0  0  0  0  3  0  0  0  0  0  0
  189.2100  176.5440  143.0800 C   0  0  0  0  0  2  0  0  0  0  0  0
  190.5820  177.3790  145.2240 S   0  0  0  0  0  0  0  0  0  0  0  0
  193.0280  176.1050  145.1880 C   0  0  0  0  0  0  0  0  0  0  0  0
  191.6630  175.7390  143.1970 C   0  0  0  0  0  0  0  0  0  0  0  0
  194.0790  175.3900  144.5980 C   0  0  0  0  0  0  0  0  0  0  0  0
  193.9390  174.8840  143.3060 C   0  0  0  0  0  3  0  0  0  0  0  0
  186.4820  176.9750  147.1440 N   0  0  0  0  0  0  0  0  0  0  0  0
  184.7790  179.0280  144.7140 C   0  0  0  0  0  2  0  0  0  0  0  0
  183.9240  179.0220  145.9640 C   0  0  0  0  0  3  0  0  0  0  0  0
  187.9170  176.8810  145.2040 C   0  0  0  0  0  0  0  0  0  0  0  0
  187.0360  177.7360  144.5080 C   0  0  0  0  0  3  0  0  0  0  0  0
  184.4250  178.3190  146.9360 N   0  0  0  0  0  0  0  0  0  0  0  0
  187.6190  176.5210  146.5380 C   0  0  0  0  0  3  0  0  0  0  0  0
  185.6420  177.7850  146.4540 C   0  0  0  0  0  0  0  0  0  0  0  0
  185.8920  178.1650  145.1720 C   0  0  0  0  0  0  0  0  0  0  0  0
  189.0650  174.0750  141.1670 C   0  0  0  0  0  3  0  0  0  0  0  0
  189.8850  174.3360  142.1830 C   0  0  0  0  0  3  0  0  0  0  0  0
  188.5310  172.3980  140.8490 S   0  0  0  0  0  0  0  0  0  0  0  0
  189.2740  172.7540  136.8950 N   0  0  0  0  0  0  0  0  0  0  0  0
  189.1410  174.1500  137.3070 C   0  0  0  0  0  2  0  0  0  0  0  0
  189.2550  171.9570  138.1350 C   0  0  2  0  0  3  0  0  0  0  0  0
  188.5670  174.1760  138.7160 C   0  0  0  0  0  2  0  0  0  0  0  0
  188.3270  172.7260  139.0630 C   0  0  2  0  0  3  0  0  0  0  0  0
  192.0580  169.4940  141.1520 C   0  0  0  0  0  1  0  0  0  0  0  0
  191.9560  169.3910  139.6440 C   0  0  0  0  0  0  0  0  0  0  0  0
  193.2060  169.2330  138.8050 C   0  0  0  0  0  1  0  0  0  0  0  0
  190.6240  171.7140  138.7390 C   0  0  0  0  0  0  0  0  0  0  0  0
  191.0130  170.3870  139.0720 N   0  0  0  0  0  0  0  0  0  0  0  0
  190.7770  168.9080  139.1220 C   0  0  0  0  0  2  0  0  0  0  0  0
  191.4100  172.6730  138.9710 O   0  0  0  0  0  0  0  0  0  0  0  0
  190.4960  172.6080  136.1060 C   0  0  0  0  0  2  0  0  0  0  0  0
  190.5320  171.2890  135.4990 N   0  0  0  0  0  1  0  0  0  0  0  0
  195.3850  175.2210  145.3060 C   0  0  0  0  0  2  0  0  0  0  0  0
  196.4920  175.3760  144.3700 N   0  0  0  0  0  2  0  0  0  0  0  0
  197.1930  171.9990  145.5800 C   0  0  0  0  0  0  0  0  0  0  0  0
  197.9410  171.4160  144.4180 C   0  0  0  0  0  2  0  0  0  0  0  0
  197.2830  171.8710  143.1130 C   0  0  0  0  0  2  0  0  0  0  0  0
  196.8000  171.2080  146.6110 F   0  0  0  0  0  0  0  0  0  0  0  0
  197.2530  174.1370  144.3780 C   0  0  2  0  0  3  0  0  0  0  0  0
  197.0770  173.3980  143.0380 C   0  0  1  0  0  3  0  0  0  0  0  0
  197.9410  173.9420  142.0870 O   0  0  0  0  0  1  0  0  0  0  0  0
  196.8380  173.2870  145.5490 C   0  0  0  0  0  3  0  0  0  0  0  0
  2 15  1  1  0  0  0
  2  7  1  0  0  0  0
  3  8  1  0  0  0  0
  3  7  1  0  0  0  0
  4 22  1  1  0  0  0
  4  6  1  0  0  0  0
  4  9  1  0  0  0  0
  5  9  1  0  0  0  0
  5 11  2  0  0  0  0
  6  2  1  0  0  0  0
  8  1  1  0  0  0  0
  9  3  2  0  0  0  0
 10  8  2  0  0  0  0
 10 38  1  0  0  0  0
 11 10  1  0  0  0  0
 13 20  1  0  0  0  0
 13 14  1  0  0  0  0
 14 17  2  0  0  0  0
 15 18  2  0  0  0  0
 16 20  2  0  0  0  0
 16 15  1  0  0  0  0
 18 12  1  0  0  0  0
 19 17  1  0  0  0  0
 19 12  2  0  0  0  0
 20 19  1  0  0  0  0
 21 22  2  0  0  0  0
 23 21  1  0  0  0  0
 24 25  1  0  0  0  0
 24 26  1  0  0  0  0
 25 27  1  0  0  0  0
 26 32  1  1  0  0  0
 26 28  1  0  0  0  0
 27 28  1  0  0  0  0
 28 23  1  1  0  0  0
 30 29  1  0  0  0  0
 31 30  1  0  0  0  0
 32 35  2  0  0  0  0
 32 33  1  0  0  0  0
 33 34  1  0  0  0  0
 33 30  1  0  0  0  0
 34 30  1  0  0  0  0
 36 24  1  0  0  0  0
 37 36  1  0  0  0  0
 39 38  1  0  0  0  0
 40 43  1  0  0  0  0
 41 40  1  0  0  0  0
 42 41  1  0  0  0  0
 44 39  1  6  0  0  0
 44 47  1  0  0  0  0
 45 46  1  6  0  0  0
 45 42  1  0  0  0  0
 45 44  1  0  0  0  0
 47 40  2  0  0  0  0
M  END
>  <MODEL>
8

>  <REMARK>
 VINA RESULT:      -6.7      3.162      8.515
  Name = 
  9 active torsions:
  status: ('A' for Active; 'I' for Inactive)
    1  A    between atoms: C_2  and  S_16
    2  A    between atoms: C_7  and  C_17
    3  A    between atoms: C_10  and  C_21
    4  A    between atoms: S_16  and  C_46
    5  A    between atoms: C_19  and  N_29
    6  A    between atoms: C_19  and  C_37
    7  A    between atoms: N_20  and  C_30
    8  A    between atoms: C_22  and  C_31
    9  A    between atoms: C_26  and  N_29
                            x       y       z     vdW  Elec       q    Type
                         _______ _______ _______ _____ _____    ______ ____

>  <TORSDO>
F 9

$$$$
=
 OpenBabel11042415203D

 47 53  0  0  1  0  0  0  0  0999 V2000
  192.5870  174.3050  146.7250 F   0  0  0  0  0  0  0  0  0  0  0  0
  188.9990  175.6590  144.5750 C   0  0  1  0  0  3  0  0  0  0  0  0
  191.5010  174.8480  144.6630 C   0  0  0  0  0  0  0  0  0  0  0  0
  190.2610  175.2380  142.4270 C   0  0  1  0  0  3  0  0  0  0  0  0
  192.3440  173.8730  142.6020 C   0  0  0  0  0  3  0  0  0  0  0  0
  189.2830  176.1570  143.1640 C   0  0  0  0  0  2  0  0  0  0  0  0
  190.4710  176.0190  145.5620 S   0  0  0  0  0  0  0  0  0  0  0  0
  192.4860  174.1470  145.3790 C   0  0  0  0  0  0  0  0  0  0  0  0
  191.4010  174.6790  143.2580 C   0  0  0  0  0  0  0  0  0  0  0  0
  193.4000  173.3250  144.7050 C   0  0  0  0  0  0  0  0  0  0  0  0
  193.3390  173.2090  143.3170 C   0  0  0  0  0  3  0  0  0  0  0  0
  186.6000  176.9370  147.1860 N   0  0  0  0  0  0  0  0  0  0  0  0
  184.6670  178.4330  144.5320 C   0  0  0  0  0  2  0  0  0  0  0  0
  183.9600  178.7580  145.8300 C   0  0  0  0  0  3  0  0  0  0  0  0
  187.8030  176.3260  145.1830 C   0  0  0  0  0  0  0  0  0  0  0  0
  186.8630  177.0300  144.4010 C   0  0  0  0  0  3  0  0  0  0  0  0
  184.5560  178.2820  146.8830 N   0  0  0  0  0  0  0  0  0  0  0  0
  187.6530  176.3040  146.5880 C   0  0  0  0  0  3  0  0  0  0  0  0
  185.7000  177.5970  146.4150 C   0  0  0  0  0  0  0  0  0  0  0  0
  185.8100  177.6530  145.0610 C   0  0  0  0  0  0  0  0  0  0  0  0
  189.3330  174.1450  140.4330 C   0  0  0  0  0  3  0  0  0  0  0  0
  189.5060  174.1330  141.7530 C   0  0  0  0  0  3  0  0  0  0  0  0
  188.4450  172.8150  139.6300 S   0  0  0  0  0  0  0  0  0  0  0  0
  190.8750  172.1660  136.4700 N   0  0  0  0  0  0  0  0  0  0  0  0
  191.6130  173.1830  137.2170 C   0  0  0  0  0  2  0  0  0  0  0  0
  189.7410  171.7710  137.3240 C   0  0  2  0  0  3  0  0  0  0  0  0
  190.6880  173.7490  138.2860 C   0  0  0  0  0  2  0  0  0  0  0  0
  189.3710  173.0440  138.0710 C   0  0  2  0  0  3  0  0  0  0  0  0
  192.8970  169.2640  139.9270 C   0  0  0  0  0  1  0  0  0  0  0  0
  191.8450  170.2500  140.3920 C   0  0  0  0  0  0  0  0  0  0  0  0
  191.0260  169.9620  141.6310 C   0  0  0  0  0  1  0  0  0  0  0  0
  190.0350  170.6090  138.2500 C   0  0  0  0  0  0  0  0  0  0  0  0
  191.0150  170.7610  139.2700 N   0  0  0  0  0  0  0  0  0  0  0  0
  192.0160  171.5700  140.0380 C   0  0  0  0  0  2  0  0  0  0  0  0
  189.4420  169.5040  138.1140 O   0  0  0  0  0  0  0  0  0  0  0  0
  191.7850  171.0720  136.1360 C   0  0  0  0  0  2  0  0  0  0  0  0
  193.1360  171.4190  136.5350 N   0  0  0  0  0  1  0  0  0  0  0  0
  194.4940  172.6240  145.4450 C   0  0  0  0  0  2  0  0  0  0  0  0
  195.4680  172.0770  144.5090 N   0  0  0  0  0  2  0  0  0  0  0  0
  196.3950  169.3880  146.8050 C   0  0  0  0  0  0  0  0  0  0  0  0
  195.6600  168.2240  146.2120 C   0  0  0  0  0  2  0  0  0  0  0  0
  194.2740  168.6830  145.7500 C   0  0  0  0  0  2  0  0  0  0  0  0
  196.9980  169.2750  148.0160 F   0  0  0  0  0  0  0  0  0  0  0  0
  195.6680  170.6770  144.8480 C   0  0  2  0  0  3  0  0  0  0  0  0
  194.3180  169.9340  144.8510 C   0  0  1  0  0  3  0  0  0  0  0  0
  193.9740  169.5860  143.5450 O   0  0  0  0  0  1  0  0  0  0  0  0
  196.3750  170.5650  146.1730 C   0  0  0  0  0  3  0  0  0  0  0  0
  2 15  1  1  0  0  0
  2  7  1  0  0  0  0
  3  8  1  0  0  0  0
  3  7  1  0  0  0  0
  4 22  1  1  0  0  0
  4  6  1  0  0  0  0
  4  9  1  0  0  0  0
  5  9  1  0  0  0  0
  5 11  2  0  0  0  0
  6  2  1  0  0  0  0
  8  1  1  0  0  0  0
  9  3  2  0  0  0  0
 10  8  2  0  0  0  0
 10 38  1  0  0  0  0
 11 10  1  0  0  0  0
 13 20  1  0  0  0  0
 13 14  1  0  0  0  0
 14 17  2  0  0  0  0
 15 18  2  0  0  0  0
 16 20  2  0  0  0  0
 16 15  1  0  0  0  0
 18 12  1  0  0  0  0
 19 17  1  0  0  0  0
 19 12  2  0  0  0  0
 20 19  1  0  0  0  0
 21 22  2  0  0  0  0
 23 21  1  0  0  0  0
 24 25  1  0  0  0  0
 24 26  1  0  0  0  0
 25 27  1  0  0  0  0
 26 28  1  0  0  0  0
 26 32  1  1  0  0  0
 28 27  1  0  0  0  0
 28 23  1  1  0  0  0
 29 30  1  0  0  0  0
 30 31  1  0  0  0  0
 32 33  1  0  0  0  0
 33 34  1  0  0  0  0
 33 30  1  0  0  0  0
 34 30  1  0  0  0  0
 35 32  2  0  0  0  0
 36 24  1  0  0  0  0
 36 37  1  0  0  0  0
 39 38  1  0  0  0  0
 40 43  1  0  0  0  0
 41 40  1  0  0  0  0
 42 41  1  0  0  0  0
 44 39  1  1  0  0  0
 44 45  1  0  0  0  0
 44 47  1  0  0  0  0
 45 46  1  6  0  0  0
 45 42  1  0  0  0  0
 47 40  2  0  0  0  0
M  END
>  <MODEL>
9

>  <REMARK>
 VINA RESULT:      -6.6      3.513      8.487
  Name = 
  9 active torsions:
  status: ('A' for Active; 'I' for Inactive)
    1  A    between atoms: C_2  and  S_16
    2  A    between atoms: C_7  and  C_17
    3  A    between atoms: C_10  and  C_21
    4  A    between atoms: S_16  and  C_46
    5  A    between atoms: C_19  and  N_29
    6  A    between atoms: C_19  and  C_37
    7  A    between atoms: N_20  and  C_30
    8  A    between atoms: C_22  and  C_31
    9  A    between atoms: C_26  and  N_29
                            x       y       z     vdW  Elec       q    Type
                         _______ _______ _______ _____ _____    ______ ____

>  <TORSDO>
F 9

$$$$
