=
 OpenBabel11042418133D

 47 49  0  0  1  0  0  0  0  0999 V2000
  189.6330  174.3920  143.9780 C   0  0  2  0  0  3  0  0  0  0  0  0
  189.0970  175.2430  145.1360 C   0  0  0  0  0  2  0  0  0  0  0  0
  189.7560  176.6270  145.1950 C   0  0  1  0  0  3  0  0  0  0  0  0
  190.9810  176.6860  144.2520 C   0  0  1  0  0  3  0  0  0  0  0  0
  190.9050  177.7890  143.2050 C   0  0  0  0  0  1  0  0  0  0  0  0
  193.3460  176.6720  144.4750 O   0  0  0  0  0  0  0  0  0  0  0  0
  192.2630  176.8140  145.0240 C   0  0  0  0  0  3  0  0  0  0  0  0
  188.6730  177.6590  144.8710 C   0  0  0  0  0  2  0  0  0  0  0  0
  185.4760  177.7690  142.0280 C   0  0  0  0  0  0  0  0  0  0  0  0
  187.2930  178.1370  147.4870 O   0  0  0  0  0  0  0  0  0  0  0  0
  186.3300  177.5100  144.0140 C   0  0  0  0  0  0  0  0  0  0  0  0
  186.6030  177.9600  146.4500 C   0  0  0  0  0  0  0  0  0  0  0  0
  185.0260  177.9120  144.1010 C   0  0  0  0  0  0  0  0  0  0  0  0
  184.3840  178.2240  145.3860 C   0  0  0  0  0  3  0  0  0  0  0  0
  185.1410  178.2550  146.4940 C   0  0  0  0  0  3  0  0  0  0  0  0
  187.2150  177.3140  145.2100 C   0  0  2  0  0  3  0  0  0  0  0  0
  186.6490  177.4090  142.6810 C   0  0  0  0  0  3  0  0  0  0  0  0
  184.4840  178.1030  142.8840 N   0  0  0  0  0  2  0  0  0  0  0  0
  185.4250  178.0380  140.5530 C   0  0  0  0  0  2  0  0  0  0  0  0
  186.5700  177.3480  139.8240 C   0  0  0  0  0  1  0  0  0  0  0  0
  188.6100  174.2530  142.8450 C   0  0  0  0  0  2  0  0  0  0  0  0
  189.1480  174.6770  141.4880 C   0  0  0  0  0  2  0  0  0  0  0  0
  188.7870  173.7120  140.3970 C   0  0  0  0  0  0  0  0  0  0  0  0
  188.0700  172.7590  140.6660 O   0  0  0  0  0  0  0  0  0  0  0  0
  189.1610  173.9880  138.9640 C   0  0  2  0  0  3  0  0  0  0  0  0
  188.0470  173.7960  138.1450 O   0  0  0  0  0  1  0  0  0  0  0  0
  190.3400  173.1140  138.5040 C   0  0  2  0  0  3  0  0  0  0  0  0
  193.2190  175.0610  137.0930 C   0  0  0  0  0  3  0  0  0  0  0  0
  194.1350  175.0480  138.1440 C   0  0  0  0  0  3  0  0  0  0  0  0
  192.0060  174.4680  137.2310 N   0  0  0  0  0  0  0  0  0  0  0  0
  192.5360  173.8100  139.4670 C   0  0  0  0  0  3  0  0  0  0  0  0
  193.7900  174.4120  139.3360 C   0  0  0  0  0  3  0  0  0  0  0  0
  191.6420  173.8520  138.3940 C   0  0  0  0  0  0  0  0  0  0  0  0
  190.0480  172.3490  137.3260 O   0  0  0  0  0  0  0  0  0  0  0  0
  190.8620  170.2430  138.2610 N   0  0  0  0  0  1  0  0  0  0  0  0
  190.3400  170.9880  137.1660 C   0  0  0  0  0  0  0  0  0  0  0  0
  190.1480  170.4120  136.0600 O   0  0  0  0  0  0  0  0  0  0  0  0
  190.1730  173.0570  144.4780 C   0  0  0  0  0  2  0  0  0  0  0  0
  191.6560  172.9460  144.2870 C   0  0  0  0  0  3  0  0  0  0  0  0
  192.2440  173.4210  143.1890 C   0  0  0  0  0  3  0  0  0  0  0  0
  193.7320  173.3660  143.0260 C   0  0  0  0  0  2  0  0  0  0  0  0
  194.4000  173.0390  144.3530 C   0  0  0  0  0  2  0  0  0  0  0  0
  195.5410  174.0130  144.6260 C   0  0  0  0  0  2  0  0  0  0  0  0
  196.3400  174.2200  143.4260 N   0  0  0  0  0  2  0  0  0  0  0  0
  197.1850  175.3860  143.6510 C   0  0  0  0  0  2  0  0  0  0  0  0
  196.5410  176.6290  143.0630 C   0  0  0  0  0  2  0  0  0  0  0  0
  195.7930  176.2810  141.8650 N   0  0  0  0  0  1  0  0  0  0  0  0
  1 21  1  6  0  0  0
  1 38  1  0  0  0  0
  1  2  1  0  0  0  0
  2  3  1  0  0  0  0
  3  8  1  6  0  0  0
  4  5  1  6  0  0  0
  4  7  1  0  0  0  0
  4  3  1  0  0  0  0
  6  7  2  0  0  0  0
  9 17  2  0  0  0  0
  9 18  1  0  0  0  0
 11 13  2  0  0  0  0
 11 16  1  0  0  0  0
 12 15  1  0  0  0  0
 12 10  2  0  0  0  0
 13 14  1  0  0  0  0
 14 15  2  0  0  0  0
 16  8  1  6  0  0  0
 16 12  1  0  0  0  0
 17 11  1  0  0  0  0
 18 13  1  0  0  0  0
 19  9  1  0  0  0  0
 20 19  1  0  0  0  0
 22 21  1  0  0  0  0
 23 24  2  0  0  0  0
 23 22  1  0  0  0  0
 25 26  1  6  0  0  0
 25 23  1  0  0  0  0
 27 34  1  6  0  0  0
 27 25  1  0  0  0  0
 28 30  2  0  0  0  0
 28 29  1  0  0  0  0
 29 32  2  0  0  0  0
 30 33  1  0  0  0  0
 32 31  1  0  0  0  0
 33 27  1  0  0  0  0
 33 31  2  0  0  0  0
 36 34  1  0  0  0  0
 36 35  1  0  0  0  0
 37 36  2  0  0  0  0
 39 38  1  0  0  0  0
 40 39  2  0  0  0  0
 41 40  1  0  0  0  0
 41 42  1  0  0  0  0
 42 43  1  0  0  0  0
 44 45  1  0  0  0  0
 44 43  1  0  0  0  0
 46 45  1  0  0  0  0
 47 46  1  0  0  0  0
M  END
>  <MODEL>
1

>  <REMARK>
 VINA RESULT:      -5.7      0.000      0.000
  Name = 
  23 active torsions:
  status: ('A' for Active; 'I' for Inactive)
    1  A    between atoms: C_1  and  C_4
    2  A    between atoms: C_2  and  C_12
    3  A    between atoms: C_2  and  O_22
    4  A    between atoms: C_2  and  C_41
    5  A    between atoms: N_3  and  C_19
    6  A    between atoms: N_3  and  C_33
    7  A    between atoms: C_5  and  C_6
    8  A    between atoms: C_6  and  C_30
    9  A    between atoms: C_8  and  C_25
   10  A    between atoms: C_8  and  C_34
   11  A    between atoms: C_10  and  C_19
   12  A    between atoms: C_10  and  C_47
   13  A    between atoms: C_12  and  C_36
   14  A    between atoms: C_16  and  C_33
   15  A    between atoms: C_17  and  C_30
   16  A    between atoms: C_17  and  C_31
   17  A    between atoms: O_22  and  C_26
   18  A    between atoms: C_25  and  C_35
   19  A    between atoms: C_25  and  C_40
   20  A    between atoms: C_30  and  C_35
   21  A    between atoms: C_31  and  C_36
   22  A    between atoms: C_40  and  C_45
   23  A    between atoms: C_42  and  C_47
                            x       y       z     vdW  Elec       q    Type
                         _______ _______ _______ _____ _____    ______ ____

>  <TORSDO>
F 23

$$$$
=
 OpenBabel11042418133D

 47 49  0  0  1  0  0  0  0  0999 V2000
  188.2840  175.7270  142.5870 C   0  0  2  0  0  3  0  0  0  0  0  0
  188.2180  176.9310  141.6400 C   0  0  0  0  0  2  0  0  0  0  0  0
  187.0370  177.8580  141.9560 C   0  0  1  0  0  3  0  0  0  0  0  0
  186.1980  178.1210  140.6830 C   0  0  1  0  0  3  0  0  0  0  0  0
  186.5850  177.2510  139.4940 C   0  0  0  0  0  1  0  0  0  0  0  0
  183.9020  178.5990  140.3020 O   0  0  0  0  0  0  0  0  0  0  0  0
  184.7280  177.9750  140.9540 C   0  0  0  0  0  3  0  0  0  0  0  0
  186.2470  177.2120  143.0970 C   0  0  0  0  0  2  0  0  0  0  0  0
  187.7490  176.1400  146.9580 C   0  0  0  0  0  0  0  0  0  0  0  0
  183.8040  178.8290  143.7250 O   0  0  0  0  0  0  0  0  0  0  0  0
  186.6050  177.3630  145.5660 C   0  0  0  0  0  0  0  0  0  0  0  0
  184.5720  178.4830  144.6610 C   0  0  0  0  0  0  0  0  0  0  0  0
  186.0710  177.4390  146.8220 C   0  0  0  0  0  0  0  0  0  0  0  0
  184.8250  178.1660  147.1030 C   0  0  0  0  0  3  0  0  0  0  0  0
  184.1140  178.6490  146.0720 C   0  0  0  0  0  3  0  0  0  0  0  0
  186.0020  178.0370  144.3700 C   0  0  2  0  0  3  0  0  0  0  0  0
  187.6960  176.5270  145.6250 C   0  0  0  0  0  3  0  0  0  0  0  0
  186.7470  176.6700  147.6960 N   0  0  0  0  0  2  0  0  0  0  0  0
  188.6380  175.0320  147.4420 C   0  0  0  0  0  2  0  0  0  0  0  0
  190.1050  175.3420  147.1720 C   0  0  0  0  0  1  0  0  0  0  0  0
  189.6850  175.5370  143.1790 C   0  0  0  0  0  2  0  0  0  0  0  0
  190.4500  176.8390  143.3540 C   0  0  0  0  0  2  0  0  0  0  0  0
  191.9370  176.6380  143.3650 C   0  0  0  0  0  0  0  0  0  0  0  0
  192.5910  177.0290  142.4090 O   0  0  0  0  0  0  0  0  0  0  0  0
  192.6380  176.1140  144.5910 C   0  0  2  0  0  3  0  0  0  0  0  0
  193.4390  177.1190  145.1360 O   0  0  0  0  0  1  0  0  0  0  0  0
  193.4680  174.8570  144.2790 C   0  0  2  0  0  3  0  0  0  0  0  0
  191.1880  171.8780  144.2460 C   0  0  0  0  0  3  0  0  0  0  0  0
  191.3060  171.4240  142.9330 C   0  0  0  0  0  3  0  0  0  0  0  0
  191.8580  172.9860  144.6530 N   0  0  0  0  0  0  0  0  0  0  0  0
  192.8040  173.2640  142.4750 C   0  0  0  0  0  3  0  0  0  0  0  0
  192.1240  172.1220  142.0450 C   0  0  0  0  0  3  0  0  0  0  0  0
  192.6540  173.6920  143.7960 C   0  0  0  0  0  0  0  0  0  0  0  0
  194.3590  174.4930  145.3430 O   0  0  0  0  0  0  0  0  0  0  0  0
  196.5430  173.7000  146.1010 N   0  0  0  0  0  1  0  0  0  0  0  0
  195.7580  174.5390  145.2620 C   0  0  0  0  0  0  0  0  0  0  0  0
  196.3320  175.3180  144.4530 O   0  0  0  0  0  0  0  0  0  0  0  0
  187.7280  174.4720  141.9240 C   0  0  0  0  0  2  0  0  0  0  0  0
  188.7870  173.7140  141.1820 C   0  0  0  0  0  3  0  0  0  0  0  0
  188.9440  173.8630  139.8660 C   0  0  0  0  0  3  0  0  0  0  0  0
  190.0410  173.1540  139.1350 C   0  0  0  0  0  2  0  0  0  0  0  0
  190.3170  173.8310  137.8020 C   0  0  0  0  0  2  0  0  0  0  0  0
  189.0120  174.0770  137.0520 C   0  0  0  0  0  2  0  0  0  0  0  0
  189.2300  174.0410  135.6120 N   0  0  0  0  0  2  0  0  0  0  0  0
  189.3380  175.4160  135.1450 C   0  0  0  0  0  2  0  0  0  0  0  0
  188.0810  176.1940  135.4900 C   0  0  0  0  0  2  0  0  0  0  0  0
  187.0400  175.9130  134.5140 N   0  0  0  0  0  1  0  0  0  0  0  0
  1  2  1  6  0  0  0
  1 21  1  0  0  0  0
  3  2  1  6  0  0  0
  3  8  1  0  0  0  0
  4  5  1  6  0  0  0
  4  7  1  0  0  0  0
  4  3  1  0  0  0  0
  6  7  2  0  0  0  0
  9 19  1  0  0  0  0
  9 18  1  0  0  0  0
 10 12  2  0  0  0  0
 11 17  1  0  0  0  0
 11 13  2  0  0  0  0
 12 15  1  0  0  0  0
 13 14  1  0  0  0  0
 13 18  1  0  0  0  0
 15 14  2  0  0  0  0
 16  8  1  6  0  0  0
 16 12  1  0  0  0  0
 16 11  1  0  0  0  0
 17  9  2  0  0  0  0
 20 19  1  0  0  0  0
 21 22  1  0  0  0  0
 22 23  1  0  0  0  0
 23 25  1  0  0  0  0
 24 23  2  0  0  0  0
 25 26  1  6  0  0  0
 27 25  1  0  0  0  0
 27 34  1  1  0  0  0
 28 30  1  0  0  0  0
 29 28  2  0  0  0  0
 31 33  1  0  0  0  0
 32 31  2  0  0  0  0
 32 29  1  0  0  0  0
 33 27  1  0  0  0  0
 33 30  2  0  0  0  0
 36 34  1  0  0  0  0
 36 35  1  0  0  0  0
 37 36  2  0  0  0  0
 38  1  1  0  0  0  0
 39 38  1  0  0  0  0
 40 39  2  0  0  0  0
 41 40  1  0  0  0  0
 42 41  1  0  0  0  0
 43 42  1  0  0  0  0
 44 43  1  0  0  0  0
 45 46  1  0  0  0  0
 45 44  1  0  0  0  0
 47 46  1  0  0  0  0
M  END
>  <MODEL>
2

>  <REMARK>
 VINA RESULT:      -5.7      3.142      6.901
  Name = 
  23 active torsions:
  status: ('A' for Active; 'I' for Inactive)
    1  A    between atoms: C_1  and  C_4
    2  A    between atoms: C_2  and  C_12
    3  A    between atoms: C_2  and  O_22
    4  A    between atoms: C_2  and  C_41
    5  A    between atoms: N_3  and  C_19
    6  A    between atoms: N_3  and  C_33
    7  A    between atoms: C_5  and  C_6
    8  A    between atoms: C_6  and  C_30
    9  A    between atoms: C_8  and  C_25
   10  A    between atoms: C_8  and  C_34
   11  A    between atoms: C_10  and  C_19
   12  A    between atoms: C_10  and  C_47
   13  A    between atoms: C_12  and  C_36
   14  A    between atoms: C_16  and  C_33
   15  A    between atoms: C_17  and  C_30
   16  A    between atoms: C_17  and  C_31
   17  A    between atoms: O_22  and  C_26
   18  A    between atoms: C_25  and  C_35
   19  A    between atoms: C_25  and  C_40
   20  A    between atoms: C_30  and  C_35
   21  A    between atoms: C_31  and  C_36
   22  A    between atoms: C_40  and  C_45
   23  A    between atoms: C_42  and  C_47
                            x       y       z     vdW  Elec       q    Type
                         _______ _______ _______ _____ _____    ______ ____

>  <TORSDO>
F 23

$$$$
=
 OpenBabel11042418133D

 47 49  0  0  1  0  0  0  0  0999 V2000
  189.5220  174.5420  144.3020 C   0  0  2  0  0  3  0  0  0  0  0  0
  188.9480  175.3600  145.4650 C   0  0  0  0  0  2  0  0  0  0  0  0
  189.5330  176.7780  145.5260 C   0  0  1  0  0  3  0  0  0  0  0  0
  190.8370  176.8610  144.6990 C   0  0  1  0  0  3  0  0  0  0  0  0
  190.9320  178.0960  143.8130 C   0  0  0  0  0  1  0  0  0  0  0  0
  192.0110  176.2120  146.6600 O   0  0  0  0  0  0  0  0  0  0  0  0
  192.0520  176.7820  145.5790 C   0  0  0  0  0  3  0  0  0  0  0  0
  188.4390  177.7400  145.0590 C   0  0  0  0  0  2  0  0  0  0  0  0
  185.0970  177.8860  142.3890 C   0  0  0  0  0  0  0  0  0  0  0  0
  187.2220  178.3390  147.7300 O   0  0  0  0  0  0  0  0  0  0  0  0
  186.0490  177.6520  144.3340 C   0  0  0  0  0  0  0  0  0  0  0  0
  186.4690  178.1580  146.7370 C   0  0  0  0  0  0  0  0  0  0  0  0
  184.7660  178.1020  144.4780 C   0  0  0  0  0  0  0  0  0  0  0  0
  184.2060  178.4720  145.7860 C   0  0  0  0  0  3  0  0  0  0  0  0
  185.0230  178.5070  146.8510 C   0  0  0  0  0  3  0  0  0  0  0  0
  186.9900  177.4570  145.4850 C   0  0  2  0  0  3  0  0  0  0  0  0
  186.2900  177.5020  142.9890 C   0  0  0  0  0  3  0  0  0  0  0  0
  184.1650  178.2790  143.2880 N   0  0  0  0  0  2  0  0  0  0  0  0
  184.9740  178.1160  140.9120 C   0  0  0  0  0  2  0  0  0  0  0  0
  183.5170  178.2760  140.4960 C   0  0  0  0  0  1  0  0  0  0  0  0
  188.6140  174.5820  143.0680 C   0  0  0  0  0  2  0  0  0  0  0  0
  189.3060  175.1130  141.8230 C   0  0  0  0  0  2  0  0  0  0  0  0
  188.5320  174.8320  140.5680 C   0  0  0  0  0  0  0  0  0  0  0  0
  187.6140  175.5790  140.2620 O   0  0  0  0  0  0  0  0  0  0  0  0
  188.9710  173.7520  139.6140 C   0  0  2  0  0  3  0  0  0  0  0  0
  187.9500  172.8100  139.4730 O   0  0  0  0  0  1  0  0  0  0  0  0
  190.2770  173.0830  140.0740 C   0  0  2  0  0  3  0  0  0  0  0  0
  192.8270  174.2040  137.5610 C   0  0  0  0  0  3  0  0  0  0  0  0
  193.8880  174.6100  138.3700 C   0  0  0  0  0  3  0  0  0  0  0  0
  191.6750  173.7480  138.1160 N   0  0  0  0  0  0  0  0  0  0  0  0
  192.5590  174.0700  140.3130 C   0  0  0  0  0  3  0  0  0  0  0  0
  193.7510  174.5360  139.7550 C   0  0  0  0  0  3  0  0  0  0  0  0
  191.5150  173.6800  139.4700 C   0  0  0  0  0  0  0  0  0  0  0  0
  190.2500  171.6530  139.9540 O   0  0  0  0  0  0  0  0  0  0  0  0
  190.4020  170.6110  142.1590 N   0  0  0  0  0  1  0  0  0  0  0  0
  190.8900  170.7670  140.8310 C   0  0  0  0  0  0  0  0  0  0  0  0
  191.8970  170.1050  140.4590 O   0  0  0  0  0  0  0  0  0  0  0  0
  189.8850  173.1300  144.7460 C   0  0  0  0  0  2  0  0  0  0  0  0
  191.3690  172.9330  144.8310 C   0  0  0  0  0  3  0  0  0  0  0  0
  192.1880  173.5000  143.9440 C   0  0  0  0  0  3  0  0  0  0  0  0
  193.6730  173.3540  144.0640 C   0  0  0  0  0  2  0  0  0  0  0  0
  194.0240  172.4030  145.1980 C   0  0  0  0  0  2  0  0  0  0  0  0
  195.5350  172.3520  145.3990 C   0  0  0  0  0  2  0  0  0  0  0  0
  196.0700  171.0720  144.9540 N   0  0  0  0  0  2  0  0  0  0  0  0
  196.3870  170.2870  146.1400 C   0  0  0  0  0  2  0  0  0  0  0  0
  197.6060  169.4180  145.8910 C   0  0  0  0  0  2  0  0  0  0  0  0
  197.2480  168.2910  145.0440 N   0  0  0  0  0  1  0  0  0  0  0  0
  1 21  1  6  0  0  0
  1 38  1  0  0  0  0
  1  2  1  0  0  0  0
  2  3  1  0  0  0  0
  3  8  1  6  0  0  0
  4  5  1  1  0  0  0
  4  3  1  0  0  0  0
  4  7  1  0  0  0  0
  7  6  2  0  0  0  0
  9 17  2  0  0  0  0
  9 18  1  0  0  0  0
 11 13  2  0  0  0  0
 11 16  1  0  0  0  0
 12 15  1  0  0  0  0
 12 10  2  0  0  0  0
 13 14  1  0  0  0  0
 14 15  2  0  0  0  0
 16  8  1  6  0  0  0
 16 12  1  0  0  0  0
 17 11  1  0  0  0  0
 18 13  1  0  0  0  0
 19  9  1  0  0  0  0
 20 19  1  0  0  0  0
 22 21  1  0  0  0  0
 23 22  1  0  0  0  0
 24 23  2  0  0  0  0
 25 26  1  1  0  0  0
 25 27  1  0  0  0  0
 25 23  1  0  0  0  0
 27 34  1  6  0  0  0
 28 30  2  0  0  0  0
 28 29  1  0  0  0  0
 29 32  2  0  0  0  0
 30 33  1  0  0  0  0
 32 31  1  0  0  0  0
 33 27  1  0  0  0  0
 33 31  2  0  0  0  0
 34 36  1  0  0  0  0
 36 35  1  0  0  0  0
 37 36  2  0  0  0  0
 38 39  1  0  0  0  0
 40 41  1  0  0  0  0
 40 39  2  0  0  0  0
 41 42  1  0  0  0  0
 42 43  1  0  0  0  0
 44 43  1  0  0  0  0
 44 45  1  0  0  0  0
 46 45  1  0  0  0  0
 47 46  1  0  0  0  0
M  END
>  <MODEL>
3

>  <REMARK>
 VINA RESULT:      -5.6      1.969      2.487
  Name = 
  23 active torsions:
  status: ('A' for Active; 'I' for Inactive)
    1  A    between atoms: C_1  and  C_4
    2  A    between atoms: C_2  and  C_12
    3  A    between atoms: C_2  and  O_22
    4  A    between atoms: C_2  and  C_41
    5  A    between atoms: N_3  and  C_19
    6  A    between atoms: N_3  and  C_33
    7  A    between atoms: C_5  and  C_6
    8  A    between atoms: C_6  and  C_30
    9  A    between atoms: C_8  and  C_25
   10  A    between atoms: C_8  and  C_34
   11  A    between atoms: C_10  and  C_19
   12  A    between atoms: C_10  and  C_47
   13  A    between atoms: C_12  and  C_36
   14  A    between atoms: C_16  and  C_33
   15  A    between atoms: C_17  and  C_30
   16  A    between atoms: C_17  and  C_31
   17  A    between atoms: O_22  and  C_26
   18  A    between atoms: C_25  and  C_35
   19  A    between atoms: C_25  and  C_40
   20  A    between atoms: C_30  and  C_35
   21  A    between atoms: C_31  and  C_36
   22  A    between atoms: C_40  and  C_45
   23  A    between atoms: C_42  and  C_47
                            x       y       z     vdW  Elec       q    Type
                         _______ _______ _______ _____ _____    ______ ____

>  <TORSDO>
F 23

$$$$
=
 OpenBabel11042418133D

 47 49  0  0  1  0  0  0  0  0999 V2000
  188.6420  174.6910  141.5780 C   0  0  2  0  0  3  0  0  0  0  0  0
  187.6290  175.7040  142.1270 C   0  0  0  0  0  2  0  0  0  0  0  0
  187.9400  177.1390  141.6790 C   0  0  1  0  0  3  0  0  0  0  0  0
  186.7040  177.7750  141.0020 C   0  0  1  0  0  3  0  0  0  0  0  0
  186.4990  177.3460  139.5550 C   0  0  0  0  0  1  0  0  0  0  0  0
  184.4520  178.2000  141.6320 O   0  0  0  0  0  0  0  0  0  0  0  0
  185.4500  177.5090  141.7860 C   0  0  0  0  0  3  0  0  0  0  0  0
  188.4350  177.9010  142.9100 C   0  0  0  0  0  2  0  0  0  0  0  0
  186.0950  177.7050  146.4890 C   0  0  0  0  0  0  0  0  0  0  0  0
  191.2260  177.3970  143.8760 O   0  0  0  0  0  0  0  0  0  0  0  0
  187.8400  177.2800  145.2570 C   0  0  0  0  0  0  0  0  0  0  0  0
  190.2630  177.2570  144.6750 C   0  0  0  0  0  0  0  0  0  0  0  0
  188.1730  177.2670  146.5840 C   0  0  0  0  0  0  0  0  0  0  0  0
  189.5600  177.1030  147.0430 C   0  0  0  0  0  3  0  0  0  0  0  0
  190.5460  177.1090  146.1330 C   0  0  0  0  0  3  0  0  0  0  0  0
  188.8380  177.0920  144.1530 C   0  0  2  0  0  3  0  0  0  0  0  0
  186.4970  177.5610  145.1670 C   0  0  0  0  0  3  0  0  0  0  0  0
  187.1150  177.5530  147.3640 N   0  0  0  0  0  2  0  0  0  0  0  0
  184.7520  178.2570  146.8680 C   0  0  0  0  0  2  0  0  0  0  0  0
  184.0290  178.8340  145.6580 C   0  0  0  0  0  1  0  0  0  0  0  0
  188.5240  174.5260  140.0580 C   0  0  0  0  0  2  0  0  0  0  0  0
  188.4430  173.0760  139.6110 C   0  0  0  0  0  2  0  0  0  0  0  0
  189.0730  172.8500  138.2680 C   0  0  0  0  0  0  0  0  0  0  0  0
  188.6130  173.4320  137.2960 O   0  0  0  0  0  0  0  0  0  0  0  0
  190.3450  172.0540  138.1340 C   0  0  2  0  0  3  0  0  0  0  0  0
  190.0670  170.8270  137.5290 O   0  0  0  0  0  1  0  0  0  0  0  0
  191.0370  171.8540  139.4930 C   0  0  2  0  0  3  0  0  0  0  0  0
  194.6070  173.0070  139.4830 C   0  0  0  0  0  3  0  0  0  0  0  0
  194.5440  174.1870  140.2220 C   0  0  0  0  0  3  0  0  0  0  0  0
  193.4810  172.2900  139.2340 N   0  0  0  0  0  0  0  0  0  0  0  0
  192.1580  173.8750  140.4390 C   0  0  0  0  0  3  0  0  0  0  0  0
  193.3090  174.6190  140.7060 C   0  0  0  0  0  3  0  0  0  0  0  0
  192.2600  172.7020  139.6870 C   0  0  0  0  0  0  0  0  0  0  0  0
  191.2780  170.4740  139.8040 O   0  0  0  0  0  0  0  0  0  0  0  0
  190.5330  170.2620  142.1220 N   0  0  0  0  0  1  0  0  0  0  0  0
  191.4770  169.9720  141.0970 C   0  0  0  0  0  0  0  0  0  0  0  0
  192.4850  169.2640  141.3660 O   0  0  0  0  0  0  0  0  0  0  0  0
  188.5730  173.3740  142.3410 C   0  0  0  0  0  2  0  0  0  0  0  0
  189.3610  173.4220  143.6150 C   0  0  0  0  0  3  0  0  0  0  0  0
  190.6700  173.6770  143.6040 C   0  0  0  0  0  3  0  0  0  0  0  0
  191.4450  173.7870  144.8800 C   0  0  0  0  0  2  0  0  0  0  0  0
  192.8240  174.3710  144.6150 C   0  0  0  0  0  2  0  0  0  0  0  0
  193.4870  174.7820  145.9260 C   0  0  0  0  0  2  0  0  0  0  0  0
  194.7260  175.5040  145.6730 N   0  0  0  0  0  2  0  0  0  0  0  0
  195.5900  174.6380  144.8810 C   0  0  0  0  0  2  0  0  0  0  0  0
  196.4790  175.4650  143.9690 C   0  0  0  0  0  2  0  0  0  0  0  0
  195.6610  176.2640  143.0710 N   0  0  0  0  0  1  0  0  0  0  0  0
  1 21  1  6  0  0  0
  1  2  1  0  0  0  0
  1 38  1  0  0  0  0
  3  2  1  1  0  0  0
  3  8  1  0  0  0  0
  4  5  1  6  0  0  0
  4  3  1  0  0  0  0
  4  7  1  0  0  0  0
  6  7  2  0  0  0  0
  9 19  1  0  0  0  0
  9 18  1  0  0  0  0
 10 12  2  0  0  0  0
 11 13  2  0  0  0  0
 12 15  1  0  0  0  0
 13 14  1  0  0  0  0
 13 18  1  0  0  0  0
 15 14  2  0  0  0  0
 16  8  1  6  0  0  0
 16 12  1  0  0  0  0
 16 11  1  0  0  0  0
 17 11  1  0  0  0  0
 17  9  2  0  0  0  0
 20 19  1  0  0  0  0
 22 21  1  0  0  0  0
 23 22  1  0  0  0  0
 24 23  2  0  0  0  0
 25 26  1  1  0  0  0
 25 23  1  0  0  0  0
 25 27  1  0  0  0  0
 27 33  1  0  0  0  0
 27 34  1  6  0  0  0
 28 29  1  0  0  0  0
 29 32  2  0  0  0  0
 30 28  2  0  0  0  0
 30 33  1  0  0  0  0
 31 32  1  0  0  0  0
 33 31  2  0  0  0  0
 34 36  1  0  0  0  0
 36 37  2  0  0  0  0
 36 35  1  0  0  0  0
 38 39  1  0  0  0  0
 40 39  2  0  0  0  0
 40 41  1  0  0  0  0
 42 41  1  0  0  0  0
 42 43  1  0  0  0  0
 44 43  1  0  0  0  0
 45 44  1  0  0  0  0
 46 45  1  0  0  0  0
 47 46  1  0  0  0  0
M  END
>  <MODEL>
4

>  <REMARK>
 VINA RESULT:      -5.5      2.218      3.961
  Name = 
  23 active torsions:
  status: ('A' for Active; 'I' for Inactive)
    1  A    between atoms: C_1  and  C_4
    2  A    between atoms: C_2  and  C_12
    3  A    between atoms: C_2  and  O_22
    4  A    between atoms: C_2  and  C_41
    5  A    between atoms: N_3  and  C_19
    6  A    between atoms: N_3  and  C_33
    7  A    between atoms: C_5  and  C_6
    8  A    between atoms: C_6  and  C_30
    9  A    between atoms: C_8  and  C_25
   10  A    between atoms: C_8  and  C_34
   11  A    between atoms: C_10  and  C_19
   12  A    between atoms: C_10  and  C_47
   13  A    between atoms: C_12  and  C_36
   14  A    between atoms: C_16  and  C_33
   15  A    between atoms: C_17  and  C_30
   16  A    between atoms: C_17  and  C_31
   17  A    between atoms: O_22  and  C_26
   18  A    between atoms: C_25  and  C_35
   19  A    between atoms: C_25  and  C_40
   20  A    between atoms: C_30  and  C_35
   21  A    between atoms: C_31  and  C_36
   22  A    between atoms: C_40  and  C_45
   23  A    between atoms: C_42  and  C_47
                            x       y       z     vdW  Elec       q    Type
                         _______ _______ _______ _____ _____    ______ ____

>  <TORSDO>
F 23

$$$$
=
 OpenBabel11042418133D

 47 49  0  0  1  0  0  0  0  0999 V2000
  190.5010  175.3050  143.7330 C   0  0  2  0  0  3  0  0  0  0  0  0
  190.2200  176.5270  144.6160 C   0  0  0  0  0  2  0  0  0  0  0  0
  188.9690  176.3430  145.4850 C   0  0  1  0  0  3  0  0  0  0  0  0
  189.3660  176.0560  146.9530 C   0  0  1  0  0  3  0  0  0  0  0  0
  189.1580  174.6090  147.3790 C   0  0  0  0  0  1  0  0  0  0  0  0
  191.0850  177.0660  148.2460 O   0  0  0  0  0  0  0  0  0  0  0  0
  190.7870  176.4600  147.2260 C   0  0  0  0  0  3  0  0  0  0  0  0
  188.1060  177.5940  145.3100 C   0  0  0  0  0  2  0  0  0  0  0  0
  185.2710  177.8890  142.1170 C   0  0  0  0  0  0  0  0  0  0  0  0
  186.5350  178.4420  147.7160 O   0  0  0  0  0  0  0  0  0  0  0  0
  185.8680  177.6770  144.2010 C   0  0  0  0  0  0  0  0  0  0  0  0
  185.9400  178.2740  146.6190 C   0  0  0  0  0  0  0  0  0  0  0  0
  184.6270  178.2460  144.1120 C   0  0  0  0  0  0  0  0  0  0  0  0
  183.9010  178.7350  145.2940 C   0  0  0  0  0  3  0  0  0  0  0  0
  184.5350  178.7540  146.4770 C   0  0  0  0  0  3  0  0  0  0  0  0
  186.5870  177.4630  145.4990 C   0  0  2  0  0  3  0  0  0  0  0  0
  186.3090  177.4350  142.9210 C   0  0  0  0  0  2  0  0  0  0  0  0
  184.2470  178.4110  142.8320 N   0  0  0  0  0  0  0  0  0  0  0  0
  185.4110  178.0490  140.6320 C   0  0  0  0  0  2  0  0  0  0  0  0
  186.6840  177.3860  140.1220 C   0  0  0  0  0  1  0  0  0  0  0  0
  191.5620  175.5980  142.6660 C   0  0  0  0  0  2  0  0  0  0  0  0
  192.7470  176.3920  143.1920 C   0  0  0  0  0  2  0  0  0  0  0  0
  193.6840  175.5540  144.0120 C   0  0  0  0  0  0  0  0  0  0  0  0
  193.4700  175.4310  145.2090 O   0  0  0  0  0  0  0  0  0  0  0  0
  194.7740  174.7460  143.3570 C   0  0  2  0  0  3  0  0  0  0  0  0
  194.7600  174.9740  141.9790 O   0  0  0  0  0  1  0  0  0  0  0  0
  194.6360  173.2460  143.6690 C   0  0  2  0  0  3  0  0  0  0  0  0
  191.2500  171.6820  144.0610 C   0  0  0  0  0  3  0  0  0  0  0  0
  190.8710  171.4480  142.7400 C   0  0  0  0  0  3  0  0  0  0  0  0
  192.4360  172.2790  144.3420 N   0  0  0  0  0  0  0  0  0  0  0  0
  192.9450  172.4530  142.0120 C   0  0  0  0  0  3  0  0  0  0  0  0
  191.7300  171.8340  141.7110 C   0  0  0  0  0  3  0  0  0  0  0  0
  193.2850  172.6770  143.3490 C   0  0  0  0  0  0  0  0  0  0  0  0
  195.0690  172.9050  144.9940 O   0  0  0  0  0  0  0  0  0  0  0  0
  195.6150  170.6750  145.8310 N   0  0  0  0  0  1  0  0  0  0  0  0
  196.0270  171.9270  145.2920 C   0  0  0  0  0  0  0  0  0  0  0  0
  197.2530  172.1410  145.0910 O   0  0  0  0  0  0  0  0  0  0  0  0
  189.2100  174.7270  143.1660 C   0  0  0  0  0  2  0  0  0  0  0  0
  189.1210  174.9060  141.6800 C   0  0  0  0  0  3  0  0  0  0  0  0
  188.6750  173.9230  140.8960 C   0  0  0  0  0  3  0  0  0  0  0  0
  188.5280  174.1230  139.4190 C   0  0  0  0  0  2  0  0  0  0  0  0
  189.6530  173.4220  138.6730 C   0  0  0  0  0  2  0  0  0  0  0  0
  189.4760  171.9090  138.7460 C   0  0  0  0  0  2  0  0  0  0  0  0
  189.6930  171.3020  137.4400 N   0  0  0  0  0  2  0  0  0  0  0  0
  191.0570  171.6080  137.0290 C   0  0  0  0  0  2  0  0  0  0  0  0
  191.5900  170.5250  136.1080 C   0  0  0  0  0  2  0  0  0  0  0  0
  190.8260  170.5050  134.8710 N   0  0  0  0  0  1  0  0  0  0  0  0
  1 21  1  6  0  0  0
  1  2  1  0  0  0  0
  3  2  1  6  0  0  0
  3  4  1  0  0  0  0
  4  7  1  0  0  0  0
  4  5  1  6  0  0  0
  7  6  2  0  0  0  0
  8  3  1  0  0  0  0
  9 18  2  0  0  0  0
  9 17  1  0  0  0  0
 11 16  1  0  0  0  0
 12 10  2  0  0  0  0
 13 11  2  0  0  0  0
 13 14  1  0  0  0  0
 14 15  2  0  0  0  0
 15 12  1  0  0  0  0
 16  8  1  6  0  0  0
 16 12  1  0  0  0  0
 17 11  1  0  0  0  0
 18 13  1  0  0  0  0
 19  9  1  0  0  0  0
 20 19  1  0  0  0  0
 21 22  1  0  0  0  0
 22 23  1  0  0  0  0
 23 24  2  0  0  0  0
 25 26  1  6  0  0  0
 25 27  1  0  0  0  0
 25 23  1  0  0  0  0
 27 34  1  1  0  0  0
 28 30  1  0  0  0  0
 29 28  2  0  0  0  0
 31 33  1  0  0  0  0
 32 31  2  0  0  0  0
 32 29  1  0  0  0  0
 33 27  1  0  0  0  0
 33 30  2  0  0  0  0
 34 36  1  0  0  0  0
 36 35  1  0  0  0  0
 37 36  2  0  0  0  0
 38  1  1  0  0  0  0
 39 38  1  0  0  0  0
 40 39  2  0  0  0  0
 41 40  1  0  0  0  0
 42 43  1  0  0  0  0
 42 41  1  0  0  0  0
 44 43  1  0  0  0  0
 45 44  1  0  0  0  0
 46 45  1  0  0  0  0
 47 46  1  0  0  0  0
M  END
>  <MODEL>
5

>  <REMARK>
 VINA RESULT:      -5.5      2.987      5.820
  Name = 
  23 active torsions:
  status: ('A' for Active; 'I' for Inactive)
    1  A    between atoms: C_1  and  C_4
    2  A    between atoms: C_2  and  C_12
    3  A    between atoms: C_2  and  O_22
    4  A    between atoms: C_2  and  C_41
    5  A    between atoms: N_3  and  C_19
    6  A    between atoms: N_3  and  C_33
    7  A    between atoms: C_5  and  C_6
    8  A    between atoms: C_6  and  C_30
    9  A    between atoms: C_8  and  C_25
   10  A    between atoms: C_8  and  C_34
   11  A    between atoms: C_10  and  C_19
   12  A    between atoms: C_10  and  C_47
   13  A    between atoms: C_12  and  C_36
   14  A    between atoms: C_16  and  C_33
   15  A    between atoms: C_17  and  C_30
   16  A    between atoms: C_17  and  C_31
   17  A    between atoms: O_22  and  C_26
   18  A    between atoms: C_25  and  C_35
   19  A    between atoms: C_25  and  C_40
   20  A    between atoms: C_30  and  C_35
   21  A    between atoms: C_31  and  C_36
   22  A    between atoms: C_40  and  C_45
   23  A    between atoms: C_42  and  C_47
                            x       y       z     vdW  Elec       q    Type
                         _______ _______ _______ _____ _____    ______ ____

>  <TORSDO>
F 23

$$$$
=
 OpenBabel11042418133D

 47 49  0  0  1  0  0  0  0  0999 V2000
  189.8870  174.6520  143.2150 C   0  0  2  0  0  3  0  0  0  0  0  0
  189.1470  175.1440  144.4650 C   0  0  0  0  0  2  0  0  0  0  0  0
  189.6680  176.5020  144.9530 C   0  0  1  0  0  3  0  0  0  0  0  0
  191.0470  176.8120  144.3240 C   0  0  1  0  0  3  0  0  0  0  0  0
  191.1020  178.1360  143.5730 C   0  0  0  0  0  1  0  0  0  0  0  0
  191.9400  176.3200  146.4700 O   0  0  0  0  0  0  0  0  0  0  0  0
  192.1410  176.7730  145.3520 C   0  0  0  0  0  3  0  0  0  0  0  0
  188.5920  177.5420  144.6340 C   0  0  0  0  0  2  0  0  0  0  0  0
  185.2020  177.8300  142.0380 C   0  0  0  0  0  0  0  0  0  0  0  0
  187.4320  178.0420  147.3510 O   0  0  0  0  0  0  0  0  0  0  0  0
  186.1880  177.5060  143.9520 C   0  0  0  0  0  0  0  0  0  0  0  0
  186.6590  177.9090  146.3660 C   0  0  0  0  0  0  0  0  0  0  0  0
  184.9120  177.9620  144.1400 C   0  0  0  0  0  0  0  0  0  0  0  0
  184.3820  178.2840  145.4730 C   0  0  0  0  0  3  0  0  0  0  0  0
  185.2190  178.2660  146.5210 C   0  0  0  0  0  3  0  0  0  0  0  0
  187.1490  177.2550  145.0760 C   0  0  2  0  0  3  0  0  0  0  0  0
  186.4020  177.4110  142.5980 C   0  0  0  0  0  3  0  0  0  0  0  0
  184.2910  178.1940  142.9690 N   0  0  0  0  0  2  0  0  0  0  0  0
  185.0530  178.1220  140.5730 C   0  0  0  0  0  2  0  0  0  0  0  0
  186.2240  177.5620  139.7760 C   0  0  0  0  0  1  0  0  0  0  0  0
  189.0450  174.8220  141.9450 C   0  0  0  0  0  2  0  0  0  0  0  0
  188.6620  173.5050  141.2910 C   0  0  0  0  0  2  0  0  0  0  0  0
  188.6330  173.5910  139.7930 C   0  0  0  0  0  0  0  0  0  0  0  0
  188.2680  174.6330  139.2700 O   0  0  0  0  0  0  0  0  0  0  0  0
  189.1930  172.4800  138.9430 C   0  0  2  0  0  3  0  0  0  0  0  0
  189.3340  171.3260  139.7170 O   0  0  0  0  0  1  0  0  0  0  0  0
  190.5310  172.8770  138.2970 C   0  0  2  0  0  3  0  0  0  0  0  0
  193.3270  171.4700  140.3660 C   0  0  0  0  0  3  0  0  0  0  0  0
  193.7620  172.5850  141.0800 C   0  0  0  0  0  3  0  0  0  0  0  0
  192.3180  171.5830  139.4640 N   0  0  0  0  0  0  0  0  0  0  0  0
  192.1120  173.9190  139.9250 C   0  0  0  0  0  3  0  0  0  0  0  0
  193.1450  173.8160  140.8590 C   0  0  0  0  0  3  0  0  0  0  0  0
  191.7090  172.7810  139.2220 C   0  0  0  0  0  0  0  0  0  0  0  0
  190.4750  174.1400  137.6190 O   0  0  0  0  0  0  0  0  0  0  0  0
  190.9710  175.3480  135.5530 N   0  0  0  0  0  1  0  0  0  0  0  0
  190.3000  174.2950  136.2370 C   0  0  0  0  0  0  0  0  0  0  0  0
  189.5530  173.5130  135.5890 O   0  0  0  0  0  0  0  0  0  0  0  0
  190.4170  173.2370  143.4090 C   0  0  0  0  0  2  0  0  0  0  0  0
  191.3180  173.1350  144.6040 C   0  0  0  0  0  3  0  0  0  0  0  0
  192.6370  173.2860  144.4830 C   0  0  0  0  0  3  0  0  0  0  0  0
  193.5310  173.2460  145.6830 C   0  0  0  0  0  2  0  0  0  0  0  0
  194.8780  173.8750  145.3650 C   0  0  0  0  0  2  0  0  0  0  0  0
  194.7780  174.7370  144.1110 C   0  0  0  0  0  2  0  0  0  0  0  0
  195.9240  174.5160  143.2400 N   0  0  0  0  0  2  0  0  0  0  0  0
  196.9920  175.4050  143.6770 C   0  0  0  0  0  2  0  0  0  0  0  0
  196.7860  176.8000  143.1150 C   0  0  0  0  0  2  0  0  0  0  0  0
  196.4390  176.7200  141.7050 N   0  0  0  0  0  1  0  0  0  0  0  0
  1 21  1  6  0  0  0
  1 38  1  0  0  0  0
  1  2  1  0  0  0  0
  3  2  1  6  0  0  0
  4  5  1  1  0  0  0
  4  3  1  0  0  0  0
  4  7  1  0  0  0  0
  7  6  2  0  0  0  0
  8  3  1  0  0  0  0
  9 17  2  0  0  0  0
  9 18  1  0  0  0  0
 11 13  2  0  0  0  0
 11 16  1  0  0  0  0
 12 15  1  0  0  0  0
 12 10  2  0  0  0  0
 13 14  1  0  0  0  0
 14 15  2  0  0  0  0
 16  8  1  6  0  0  0
 16 12  1  0  0  0  0
 17 11  1  0  0  0  0
 18 13  1  0  0  0  0
 19  9  1  0  0  0  0
 20 19  1  0  0  0  0
 22 21  1  0  0  0  0
 23 22  1  0  0  0  0
 24 23  2  0  0  0  0
 25 26  1  1  0  0  0
 25 23  1  0  0  0  0
 27 34  1  1  0  0  0
 27 25  1  0  0  0  0
 27 33  1  0  0  0  0
 28 29  1  0  0  0  0
 30 28  2  0  0  0  0
 31 32  1  0  0  0  0
 32 29  2  0  0  0  0
 33 30  1  0  0  0  0
 33 31  2  0  0  0  0
 35 36  1  0  0  0  0
 36 34  1  0  0  0  0
 37 36  2  0  0  0  0
 38 39  1  0  0  0  0
 40 39  2  0  0  0  0
 40 41  1  0  0  0  0
 42 41  1  0  0  0  0
 43 42  1  0  0  0  0
 44 45  1  0  0  0  0
 44 43  1  0  0  0  0
 46 45  1  0  0  0  0
 47 46  1  0  0  0  0
M  END
>  <MODEL>
6

>  <REMARK>
 VINA RESULT:      -5.5      1.315      1.850
  Name = 
  23 active torsions:
  status: ('A' for Active; 'I' for Inactive)
    1  A    between atoms: C_1  and  C_4
    2  A    between atoms: C_2  and  C_12
    3  A    between atoms: C_2  and  O_22
    4  A    between atoms: C_2  and  C_41
    5  A    between atoms: N_3  and  C_19
    6  A    between atoms: N_3  and  C_33
    7  A    between atoms: C_5  and  C_6
    8  A    between atoms: C_6  and  C_30
    9  A    between atoms: C_8  and  C_25
   10  A    between atoms: C_8  and  C_34
   11  A    between atoms: C_10  and  C_19
   12  A    between atoms: C_10  and  C_47
   13  A    between atoms: C_12  and  C_36
   14  A    between atoms: C_16  and  C_33
   15  A    between atoms: C_17  and  C_30
   16  A    between atoms: C_17  and  C_31
   17  A    between atoms: O_22  and  C_26
   18  A    between atoms: C_25  and  C_35
   19  A    between atoms: C_25  and  C_40
   20  A    between atoms: C_30  and  C_35
   21  A    between atoms: C_31  and  C_36
   22  A    between atoms: C_40  and  C_45
   23  A    between atoms: C_42  and  C_47
                            x       y       z     vdW  Elec       q    Type
                         _______ _______ _______ _____ _____    ______ ____

>  <TORSDO>
F 23

$$$$
=
 OpenBabel11042418133D

 47 49  0  0  1  0  0  0  0  0999 V2000
  189.2500  174.5770  143.3970 C   0  0  2  0  0  3  0  0  0  0  0  0
  188.7560  175.4940  144.5230 C   0  0  0  0  0  2  0  0  0  0  0  0
  189.4970  176.8380  144.5470 C   0  0  1  0  0  3  0  0  0  0  0  0
  190.2370  177.0730  143.2090 C   0  0  1  0  0  3  0  0  0  0  0  0
  189.6820  178.2290  142.3880 C   0  0  0  0  0  1  0  0  0  0  0  0
  192.5330  176.6830  142.7360 O   0  0  0  0  0  0  0  0  0  0  0  0
  191.7100  177.2720  143.4240 C   0  0  0  0  0  3  0  0  0  0  0  0
  188.4670  177.9170  144.8840 C   0  0  0  0  0  2  0  0  0  0  0  0
  185.0580  177.9520  142.2950 C   0  0  0  0  0  0  0  0  0  0  0  0
  187.2680  178.2050  147.6150 O   0  0  0  0  0  0  0  0  0  0  0  0
  186.0760  177.6640  144.1990 C   0  0  0  0  0  0  0  0  0  0  0  0
  186.5110  178.0290  146.6250 C   0  0  0  0  0  0  0  0  0  0  0  0
  184.7620  177.9830  144.4010 C   0  0  0  0  0  0  0  0  0  0  0  0
  184.2050  178.2040  145.7430 C   0  0  0  0  0  3  0  0  0  0  0  0
  185.0420  178.2350  146.7920 C   0  0  0  0  0  3  0  0  0  0  0  0
  187.0600  177.4720  145.3150 C   0  0  2  0  0  3  0  0  0  0  0  0
  186.2960  177.6360  142.8420 C   0  0  0  0  0  3  0  0  0  0  0  0
  184.1180  178.1910  143.2380 N   0  0  0  0  0  2  0  0  0  0  0  0
  184.8770  178.2770  140.8420 C   0  0  0  0  0  2  0  0  0  0  0  0
  183.4180  178.5650  140.5170 C   0  0  0  0  0  1  0  0  0  0  0  0
  188.1200  174.1840  142.4380 C   0  0  0  0  0  2  0  0  0  0  0  0
  188.2270  174.8440  141.0730 C   0  0  0  0  0  2  0  0  0  0  0  0
  189.1660  174.1190  140.1540 C   0  0  0  0  0  0  0  0  0  0  0  0
  190.3420  174.0180  140.4730 O   0  0  0  0  0  0  0  0  0  0  0  0
  188.6510  173.3890  138.9410 C   0  0  2  0  0  3  0  0  0  0  0  0
  187.8260  172.3370  139.3450 O   0  0  0  0  0  1  0  0  0  0  0  0
  189.8000  172.8790  138.0540 C   0  0  2  0  0  3  0  0  0  0  0  0
  189.6800  174.7350  134.7970 C   0  0  0  0  0  3  0  0  0  0  0  0
  190.9230  175.3660  134.7650 C   0  0  0  0  0  3  0  0  0  0  0  0
  189.3240  173.9710  135.8610 N   0  0  0  0  0  0  0  0  0  0  0  0
  191.4170  174.4120  136.9290 C   0  0  0  0  0  3  0  0  0  0  0  0
  191.7970  175.1970  135.8380 C   0  0  0  0  0  3  0  0  0  0  0  0
  190.1600  173.8030  136.9290 C   0  0  0  0  0  0  0  0  0  0  0  0
  189.6090  171.5280  137.6080 O   0  0  0  0  0  0  0  0  0  0  0  0
  191.3320  170.6640  136.1060 N   0  0  0  0  0  1  0  0  0  0  0  0
  190.6440  170.6190  137.3510 C   0  0  0  0  0  0  0  0  0  0  0  0
  190.9750  169.7590  138.2120 O   0  0  0  0  0  0  0  0  0  0  0  0
  190.0180  173.3840  143.9550 C   0  0  0  0  0  2  0  0  0  0  0  0
  190.7190  173.7190  145.2370 C   0  0  0  0  0  3  0  0  0  0  0  0
  191.9830  174.1430  145.2390 C   0  0  0  0  0  3  0  0  0  0  0  0
  192.6630  174.5360  146.5130 C   0  0  0  0  0  2  0  0  0  0  0  0
  193.0420  176.0090  146.4810 C   0  0  0  0  0  2  0  0  0  0  0  0
  194.5480  176.1650  146.3040 C   0  0  0  0  0  2  0  0  0  0  0  0
  194.8470  177.0870  145.2170 N   0  0  0  0  0  2  0  0  0  0  0  0
  195.6880  176.3850  144.2570 C   0  0  0  0  0  2  0  0  0  0  0  0
  196.0070  174.9860  144.7540 C   0  0  0  0  0  2  0  0  0  0  0  0
  196.1270  174.0750  143.6270 N   0  0  0  0  0  1  0  0  0  0  0  0
  1 21  1  1  0  0  0
  1 38  1  0  0  0  0
  1  2  1  0  0  0  0
  3  2  1  6  0  0  0
  3  8  1  0  0  0  0
  4  5  1  1  0  0  0
  4  7  1  0  0  0  0
  4  3  1  0  0  0  0
  6  7  2  0  0  0  0
  9 17  2  0  0  0  0
  9 18  1  0  0  0  0
 11 13  2  0  0  0  0
 11 16  1  0  0  0  0
 12 15  1  0  0  0  0
 12 10  2  0  0  0  0
 13 14  1  0  0  0  0
 14 15  2  0  0  0  0
 16  8  1  6  0  0  0
 16 12  1  0  0  0  0
 17 11  1  0  0  0  0
 18 13  1  0  0  0  0
 19  9  1  0  0  0  0
 20 19  1  0  0  0  0
 22 21  1  0  0  0  0
 23 24  2  0  0  0  0
 23 22  1  0  0  0  0
 25 26  1  1  0  0  0
 25 23  1  0  0  0  0
 27 34  1  6  0  0  0
 27 25  1  0  0  0  0
 28 30  1  0  0  0  0
 29 28  2  0  0  0  0
 29 32  1  0  0  0  0
 30 33  2  0  0  0  0
 32 31  2  0  0  0  0
 33 31  1  0  0  0  0
 33 27  1  0  0  0  0
 35 36  1  0  0  0  0
 36 34  1  0  0  0  0
 36 37  2  0  0  0  0
 38 39  1  0  0  0  0
 39 40  2  0  0  0  0
 40 41  1  0  0  0  0
 42 41  1  0  0  0  0
 43 42  1  0  0  0  0
 44 43  1  0  0  0  0
 45 46  1  0  0  0  0
 45 44  1  0  0  0  0
 47 46  1  0  0  0  0
M  END
>  <MODEL>
7

>  <REMARK>
 VINA RESULT:      -5.3      1.626      2.099
  Name = 
  23 active torsions:
  status: ('A' for Active; 'I' for Inactive)
    1  A    between atoms: C_1  and  C_4
    2  A    between atoms: C_2  and  C_12
    3  A    between atoms: C_2  and  O_22
    4  A    between atoms: C_2  and  C_41
    5  A    between atoms: N_3  and  C_19
    6  A    between atoms: N_3  and  C_33
    7  A    between atoms: C_5  and  C_6
    8  A    between atoms: C_6  and  C_30
    9  A    between atoms: C_8  and  C_25
   10  A    between atoms: C_8  and  C_34
   11  A    between atoms: C_10  and  C_19
   12  A    between atoms: C_10  and  C_47
   13  A    between atoms: C_12  and  C_36
   14  A    between atoms: C_16  and  C_33
   15  A    between atoms: C_17  and  C_30
   16  A    between atoms: C_17  and  C_31
   17  A    between atoms: O_22  and  C_26
   18  A    between atoms: C_25  and  C_35
   19  A    between atoms: C_25  and  C_40
   20  A    between atoms: C_30  and  C_35
   21  A    between atoms: C_31  and  C_36
   22  A    between atoms: C_40  and  C_45
   23  A    between atoms: C_42  and  C_47
                            x       y       z     vdW  Elec       q    Type
                         _______ _______ _______ _____ _____    ______ ____

>  <TORSDO>
F 23

$$$$
=
 OpenBabel11042418133D

 47 49  0  0  1  0  0  0  0  0999 V2000
  189.4610  174.5700  143.7340 C   0  0  2  0  0  3  0  0  0  0  0  0
  189.1060  174.9730  145.1710 C   0  0  0  0  0  2  0  0  0  0  0  0
  189.4630  176.4350  145.4710 C   0  0  1  0  0  3  0  0  0  0  0  0
  190.8700  176.7730  144.9240 C   0  0  1  0  0  3  0  0  0  0  0  0
  190.9370  178.0830  144.1520 C   0  0  0  0  0  1  0  0  0  0  0  0
  191.7620  176.0900  147.0180 O   0  0  0  0  0  0  0  0  0  0  0  0
  191.8980  176.7840  146.0200 C   0  0  0  0  0  3  0  0  0  0  0  0
  188.3460  177.3040  144.8900 C   0  0  0  0  0  2  0  0  0  0  0  0
  184.6850  177.9250  142.7620 C   0  0  0  0  0  0  0  0  0  0  0  0
  187.6560  178.0750  147.7010 O   0  0  0  0  0  0  0  0  0  0  0  0
  185.8840  177.5580  144.5430 C   0  0  0  0  0  0  0  0  0  0  0  0
  186.7400  178.0020  146.8400 C   0  0  0  0  0  0  0  0  0  0  0  0
  184.7160  178.1880  144.8720 C   0  0  0  0  0  0  0  0  0  0  0  0
  184.4250  178.6370  146.2410 C   0  0  0  0  0  3  0  0  0  0  0  0
  185.3940  178.5550  147.1660 C   0  0  0  0  0  3  0  0  0  0  0  0
  186.9560  177.2320  145.5400 C   0  0  2  0  0  3  0  0  0  0  0  0
  185.8900  177.3740  143.1800 C   0  0  0  0  0  3  0  0  0  0  0  0
  183.9690  178.4490  143.7830 N   0  0  0  0  0  2  0  0  0  0  0  0
  184.3670  178.1680  141.3160 C   0  0  0  0  0  2  0  0  0  0  0  0
  185.6350  178.2420  140.4760 C   0  0  0  0  0  1  0  0  0  0  0  0
  188.2200  174.4840  142.8390 C   0  0  0  0  0  2  0  0  0  0  0  0
  188.3530  173.4710  141.7140 C   0  0  0  0  0  2  0  0  0  0  0  0
  188.4740  174.1170  140.3660 C   0  0  0  0  0  0  0  0  0  0  0  0
  188.1870  175.3000  140.2510 O   0  0  0  0  0  0  0  0  0  0  0  0
  189.0890  173.3780  139.2050 C   0  0  2  0  0  3  0  0  0  0  0  0
  188.3110  172.2600  138.8990 O   0  0  0  0  0  1  0  0  0  0  0  0
  190.5440  172.9730  139.4960 C   0  0  2  0  0  3  0  0  0  0  0  0
  190.8910  169.2940  138.8520 C   0  0  0  0  0  3  0  0  0  0  0  0
  190.9020  168.7620  140.1410 C   0  0  0  0  0  3  0  0  0  0  0  0
  190.8060  170.6350  138.6610 N   0  0  0  0  0  0  0  0  0  0  0  0
  190.7360  171.0060  141.0220 C   0  0  0  0  0  3  0  0  0  0  0  0
  190.8180  169.6280  141.2310 C   0  0  0  0  0  3  0  0  0  0  0  0
  190.7370  171.5010  139.7160 C   0  0  0  0  0  0  0  0  0  0  0  0
  191.1510  173.7610  140.5300 O   0  0  0  0  0  0  0  0  0  0  0  0
  193.2320  174.1450  139.3070 N   0  0  0  0  0  1  0  0  0  0  0  0
  192.4770  174.2170  140.5110 C   0  0  0  0  0  0  0  0  0  0  0  0
  193.0110  174.6900  141.5500 O   0  0  0  0  0  0  0  0  0  0  0  0
  190.3180  173.3100  143.7100 C   0  0  0  0  0  2  0  0  0  0  0  0
  191.3840  173.3380  144.7640 C   0  0  0  0  0  3  0  0  0  0  0  0
  192.5790  172.7870  144.5460 C   0  0  0  0  0  3  0  0  0  0  0  0
  193.6640  172.8680  145.5740 C   0  0  0  0  0  2  0  0  0  0  0  0
  194.8400  173.6740  145.0430 C   0  0  0  0  0  2  0  0  0  0  0  0
  194.9670  174.9910  145.8010 C   0  0  0  0  0  2  0  0  0  0  0  0
  195.2310  176.0910  144.8840 N   0  0  0  0  0  2  0  0  0  0  0  0
  195.8560  175.5340  143.6920 C   0  0  0  0  0  2  0  0  0  0  0  0
  196.6370  176.6060  142.9520 C   0  0  0  0  0  2  0  0  0  0  0  0
  196.0860  176.7890  141.6180 N   0  0  0  0  0  1  0  0  0  0  0  0
  1 21  1  6  0  0  0
  1  2  1  0  0  0  0
  2  3  1  0  0  0  0
  3  8  1  6  0  0  0
  4  5  1  1  0  0  0
  4  3  1  0  0  0  0
  4  7  1  0  0  0  0
  7  6  2  0  0  0  0
  9 17  2  0  0  0  0
  9 18  1  0  0  0  0
 11 13  2  0  0  0  0
 11 16  1  0  0  0  0
 12 15  1  0  0  0  0
 12 10  2  0  0  0  0
 13 14  1  0  0  0  0
 14 15  2  0  0  0  0
 16  8  1  6  0  0  0
 16 12  1  0  0  0  0
 17 11  1  0  0  0  0
 18 13  1  0  0  0  0
 19  9  1  0  0  0  0
 20 19  1  0  0  0  0
 22 21  1  0  0  0  0
 23 22  1  0  0  0  0
 24 23  2  0  0  0  0
 25 26  1  1  0  0  0
 25 27  1  0  0  0  0
 25 23  1  0  0  0  0
 27 33  1  0  0  0  0
 27 34  1  1  0  0  0
 28 29  1  0  0  0  0
 29 32  2  0  0  0  0
 30 28  2  0  0  0  0
 30 33  1  0  0  0  0
 31 32  1  0  0  0  0
 33 31  2  0  0  0  0
 35 36  1  0  0  0  0
 36 34  1  0  0  0  0
 36 37  2  0  0  0  0
 38  1  1  0  0  0  0
 38 39  1  0  0  0  0
 40 39  2  0  0  0  0
 40 41  1  0  0  0  0
 42 41  1  0  0  0  0
 42 43  1  0  0  0  0
 44 43  1  0  0  0  0
 45 44  1  0  0  0  0
 46 45  1  0  0  0  0
 47 46  1  0  0  0  0
M  END
>  <MODEL>
8

>  <REMARK>
 VINA RESULT:      -5.3      1.695      2.724
  Name = 
  23 active torsions:
  status: ('A' for Active; 'I' for Inactive)
    1  A    between atoms: C_1  and  C_4
    2  A    between atoms: C_2  and  C_12
    3  A    between atoms: C_2  and  O_22
    4  A    between atoms: C_2  and  C_41
    5  A    between atoms: N_3  and  C_19
    6  A    between atoms: N_3  and  C_33
    7  A    between atoms: C_5  and  C_6
    8  A    between atoms: C_6  and  C_30
    9  A    between atoms: C_8  and  C_25
   10  A    between atoms: C_8  and  C_34
   11  A    between atoms: C_10  and  C_19
   12  A    between atoms: C_10  and  C_47
   13  A    between atoms: C_12  and  C_36
   14  A    between atoms: C_16  and  C_33
   15  A    between atoms: C_17  and  C_30
   16  A    between atoms: C_17  and  C_31
   17  A    between atoms: O_22  and  C_26
   18  A    between atoms: C_25  and  C_35
   19  A    between atoms: C_25  and  C_40
   20  A    between atoms: C_30  and  C_35
   21  A    between atoms: C_31  and  C_36
   22  A    between atoms: C_40  and  C_45
   23  A    between atoms: C_42  and  C_47
                            x       y       z     vdW  Elec       q    Type
                         _______ _______ _______ _____ _____    ______ ____

>  <TORSDO>
F 23

$$$$
=
 OpenBabel11042418133D

 47 49  0  0  1  0  0  0  0  0999 V2000
  193.0080  175.0080  144.8080 C   0  0  2  0  0  3  0  0  0  0  0  0
  194.3860  175.0780  144.1380 C   0  0  0  0  0  2  0  0  0  0  0  0
  194.4560  174.2270  142.8620 C   0  0  1  0  0  3  0  0  0  0  0  0
  193.9240  175.0250  141.6480 C   0  0  1  0  0  3  0  0  0  0  0  0
  194.6240  176.3600  141.4290 C   0  0  0  0  0  1  0  0  0  0  0  0
  193.3360  174.5290  139.4000 O   0  0  0  0  0  0  0  0  0  0  0  0
  193.9870  174.2130  140.3870 C   0  0  0  0  0  3  0  0  0  0  0  0
  195.9040  173.7580  142.7090 C   0  0  0  0  0  2  0  0  0  0  0  0
  193.5720  170.1980  143.1690 C   0  0  0  0  0  0  0  0  0  0  0  0
  197.6160  173.7890  145.1670 O   0  0  0  0  0  0  0  0  0  0  0  0
  195.2940  171.4800  143.5380 C   0  0  0  0  0  0  0  0  0  0  0  0
  196.9100  172.7760  144.9220 C   0  0  0  0  0  0  0  0  0  0  0  0
  195.0880  170.6360  144.5940 C   0  0  0  0  0  0  0  0  0  0  0  0
  195.8810  170.7170  145.8300 C   0  0  0  0  0  3  0  0  0  0  0  0
  196.7350  171.7400  145.9820 C   0  0  0  0  0  3  0  0  0  0  0  0
  196.3610  172.5330  143.5180 C   0  0  2  0  0  3  0  0  0  0  0  0
  194.3250  171.2170  142.5990 C   0  0  0  0  0  3  0  0  0  0  0  0
  194.0130  169.8510  144.4000 N   0  0  0  0  0  2  0  0  0  0  0  0
  192.2550  169.7540  142.6040 C   0  0  0  0  0  2  0  0  0  0  0  0
  191.7530  170.7250  141.5430 C   0  0  0  0  0  1  0  0  0  0  0  0
  192.9550  175.8320  146.1000 C   0  0  0  0  0  2  0  0  0  0  0  0
  192.1330  175.1830  147.2000 C   0  0  0  0  0  2  0  0  0  0  0  0
  190.6870  175.5800  147.1510 C   0  0  0  0  0  0  0  0  0  0  0  0
  189.8380  174.7530  147.4490 O   0  0  0  0  0  0  0  0  0  0  0  0
  190.2850  177.0100  146.8990 C   0  0  2  0  0  3  0  0  0  0  0  0
  190.3940  177.7410  148.0830 O   0  0  0  0  0  1  0  0  0  0  0  0
  188.8640  177.1080  146.3190 C   0  0  2  0  0  3  0  0  0  0  0  0
  187.6720  177.2700  142.7660 C   0  0  0  0  0  3  0  0  0  0  0  0
  188.8180  177.6740  142.0830 C   0  0  0  0  0  3  0  0  0  0  0  0
  187.6930  177.1210  144.1160 N   0  0  0  0  0  0  0  0  0  0  0  0
  189.9930  177.7670  144.1920 C   0  0  0  0  0  3  0  0  0  0  0  0
  189.9870  177.9190  142.8040 C   0  0  0  0  0  3  0  0  0  0  0  0
  188.8220  177.3690  144.8420 C   0  0  0  0  0  0  0  0  0  0  0  0
  188.0180  178.0060  147.0530 O   0  0  0  0  0  0  0  0  0  0  0  0
  185.8120  178.8950  147.6140 N   0  0  0  0  0  1  0  0  0  0  0  0
  186.6550  177.7920  147.3030 C   0  0  0  0  0  0  0  0  0  0  0  0
  186.1660  176.6300  147.2580 O   0  0  0  0  0  0  0  0  0  0  0  0
  192.5550  173.5640  144.9890 C   0  0  0  0  0  2  0  0  0  0  0  0
  191.3900  173.2270  144.1070 C   0  0  0  0  0  3  0  0  0  0  0  0
  190.5260  174.1680  143.7240 C   0  0  0  0  0  3  0  0  0  0  0  0
  189.3980  173.8450  142.7940 C   0  0  0  0  0  2  0  0  0  0  0  0
  189.7940  174.1410  141.3560 C   0  0  0  0  0  2  0  0  0  0  0  0
  188.5600  174.1670  140.4600 C   0  0  0  0  0  2  0  0  0  0  0  0
  188.7470  173.3060  139.3000 N   0  0  0  0  0  2  0  0  0  0  0  0
  190.1800  173.1290  139.1050 C   0  0  0  0  0  2  0  0  0  0  0  0
  190.4840  172.8220  137.6490 C   0  0  0  0  0  2  0  0  0  0  0  0
  190.6630  174.0610  136.9080 N   0  0  0  0  0  1  0  0  0  0  0  0
  1  2  1  1  0  0  0
  1 38  1  0  0  0  0
  1 21  1  0  0  0  0
  3  8  1  6  0  0  0
  3  2  1  0  0  0  0
  4  5  1  6  0  0  0
  4  3  1  0  0  0  0
  6  7  2  0  0  0  0
  7  4  1  0  0  0  0
  9 18  1  0  0  0  0
 11 13  2  0  0  0  0
 12 10  2  0  0  0  0
 12 15  1  0  0  0  0
 13 14  1  0  0  0  0
 14 15  2  0  0  0  0
 16  8  1  1  0  0  0
 16 11  1  0  0  0  0
 16 12  1  0  0  0  0
 17  9  2  0  0  0  0
 17 11  1  0  0  0  0
 18 13  1  0  0  0  0
 19  9  1  0  0  0  0
 20 19  1  0  0  0  0
 21 22  1  0  0  0  0
 23 22  1  0  0  0  0
 23 24  2  0  0  0  0
 25 23  1  0  0  0  0
 25 26  1  1  0  0  0
 27 25  1  0  0  0  0
 27 34  1  1  0  0  0
 28 30  1  0  0  0  0
 29 28  2  0  0  0  0
 29 32  1  0  0  0  0
 30 33  2  0  0  0  0
 31 33  1  0  0  0  0
 32 31  2  0  0  0  0
 33 27  1  0  0  0  0
 34 36  1  0  0  0  0
 36 35  1  0  0  0  0
 37 36  2  0  0  0  0
 39 38  1  0  0  0  0
 40 39  2  0  0  0  0
 41 40  1  0  0  0  0
 42 41  1  0  0  0  0
 43 42  1  0  0  0  0
 44 43  1  0  0  0  0
 45 44  1  0  0  0  0
 46 45  1  0  0  0  0
 47 46  1  0  0  0  0
M  END
>  <MODEL>
9

>  <REMARK>
 VINA RESULT:      -5.2      2.822      8.870
  Name = 
  23 active torsions:
  status: ('A' for Active; 'I' for Inactive)
    1  A    between atoms: C_1  and  C_4
    2  A    between atoms: C_2  and  C_12
    3  A    between atoms: C_2  and  O_22
    4  A    between atoms: C_2  and  C_41
    5  A    between atoms: N_3  and  C_19
    6  A    between atoms: N_3  and  C_33
    7  A    between atoms: C_5  and  C_6
    8  A    between atoms: C_6  and  C_30
    9  A    between atoms: C_8  and  C_25
   10  A    between atoms: C_8  and  C_34
   11  A    between atoms: C_10  and  C_19
   12  A    between atoms: C_10  and  C_47
   13  A    between atoms: C_12  and  C_36
   14  A    between atoms: C_16  and  C_33
   15  A    between atoms: C_17  and  C_30
   16  A    between atoms: C_17  and  C_31
   17  A    between atoms: O_22  and  C_26
   18  A    between atoms: C_25  and  C_35
   19  A    between atoms: C_25  and  C_40
   20  A    between atoms: C_30  and  C_35
   21  A    between atoms: C_31  and  C_36
   22  A    between atoms: C_40  and  C_45
   23  A    between atoms: C_42  and  C_47
                            x       y       z     vdW  Elec       q    Type
                         _______ _______ _______ _____ _____    ______ ____

>  <TORSDO>
F 23

$$$$
