=
 OpenBabel11042419083D

 57 64  0  0  1  0  0  0  0  0999 V2000
  190.7920  175.6610  145.5970 C   0  0  2  0  0  3  0  0  0  0  0  0
  190.0020  176.2340  144.4070 C   0  0  0  0  0  0  0  0  0  0  0  0
  190.5890  176.3530  146.8190 O   0  0  0  0  0  0  0  0  0  0  0  0
  188.8590  177.7400  145.9900 C   0  0  0  0  0  2  0  0  0  0  0  0
  189.1370  177.2530  144.5990 C   0  0  0  0  0  0  0  0  0  0  0  0
  189.2290  176.6490  146.9790 C   0  0  0  0  0  2  0  0  0  0  0  0
  192.1450  173.2840  144.7380 O   0  0  0  0  0  0  0  0  0  0  0  0
  195.5780  174.8030  145.2500 C   0  0  1  0  0  0  0  0  0  0  0  0
  195.4960  174.1210  144.0530 C   0  0  2  0  0  3  0  0  0  0  0  0
  192.8800  174.2610  145.0440 C   0  0  0  0  0  0  0  0  0  0  0  0
  196.1760  174.2220  146.3570 F   0  0  0  0  0  0  0  0  0  0  0  0
  192.3140  175.6250  145.3580 C   0  0  2  0  0  3  0  0  0  0  0  0
  195.3630  176.3110  145.2440 C   0  0  0  0  0  2  0  0  0  0  0  0
  194.4090  176.7190  146.3400 C   0  0  0  0  0  3  0  0  0  0  0  0
  194.2860  174.1440  144.9330 N   0  0  0  0  0  0  0  0  0  0  0  0
  193.0970  176.4120  146.3900 C   0  0  0  0  0  3  0  0  0  0  0  0
  196.1210  172.7370  144.0870 C   0  0  0  0  0  2  0  0  0  0  0  0
  195.8730  172.0790  142.8130 N   0  0  0  0  0  2  0  0  0  0  0  0
  197.5610  173.1860  141.6300 O   0  0  0  0  0  0  0  0  0  0  0  0
  196.4800  172.5320  141.6000 C   0  0  0  0  0  0  0  0  0  0  0  0
  194.2550  173.3370  138.6060 C   0  0  1  0  0  3  0  0  0  0  0  0
  194.9950  173.5370  139.9250 C   0  0  0  0  0  2  0  0  0  0  0  0
  195.0600  170.5170  138.0230 O   0  0  0  0  0  1  0  0  0  0  0  0
  194.8980  171.0640  140.3590 C   0  0  0  0  0  2  0  0  0  0  0  0
  194.1580  170.8490  139.0380 C   0  0  1  0  0  3  0  0  0  0  0  0
  195.8030  172.2970  140.2930 C   0  0  2  0  0  3  0  0  0  0  0  0
  193.3580  172.0940  138.6510 C   0  0  0  0  0  2  0  0  0  0  0  0
  193.4850  174.6000  138.2080 C   0  0  0  0  0  2  0  0  0  0  0  0
  196.1060  176.1700  135.8400 C   0  0  0  0  0  2  0  0  0  0  0  0
  194.0750  175.3480  137.0510 C   0  0  0  0  0  0  0  0  0  0  0  0
  195.4150  174.9580  136.4740 C   0  0  0  0  0  2  0  0  0  0  0  0
  193.3270  176.2620  136.4240 C   0  0  0  0  0  3  0  0  0  0  0  0
  193.8570  177.0020  135.2620 C   0  0  0  0  0  3  0  0  0  0  0  0
  195.1550  176.9340  134.9580 C   0  0  0  0  0  3  0  0  0  0  0  0
  186.9450  177.6740  143.3440 C   0  0  0  0  0  0  0  0  0  0  0  0
  186.4740  177.5160  142.1870 O   0  0  0  0  0  0  0  0  0  0  0  0
  188.3690  177.7570  143.4950 N   0  0  0  0  0  2  0  0  0  0  0  0
  185.6990  176.7300  145.2960 C   0  0  0  0  0  3  0  0  0  0  0  0
  184.3620  178.1000  146.6810 C   0  0  0  0  0  3  0  0  0  0  0  0
  185.4850  179.0760  144.8430 C   0  0  0  0  0  0  0  0  0  0  0  0
  184.8780  176.8840  146.3680 N   0  0  0  0  0  0  0  0  0  0  0  0
  185.7550  180.1840  144.1070 F   0  0  0  0  0  0  0  0  0  0  0  0
  184.6650  179.1820  145.9220 N   0  0  0  0  0  0  0  0  0  0  0  0
  186.0220  177.8280  144.4910 C   0  0  0  0  0  0  0  0  0  0  0  0
  189.9850  175.5460  143.1020 C   0  0  0  0  0  3  0  0  0  0  0  0
  189.4950  174.3600  142.9550 N   0  0  0  0  0  0  0  0  0  0  0  0
  189.5690  171.7380  137.4480 C   0  0  0  0  0  0  0  0  0  0  0  0
  189.1250  173.5680  139.4800 C   0  0  0  0  0  0  0  0  0  0  0  0
  189.9270  172.1170  141.3700 S   0  0  0  0  0  0  0  0  0  0  0  0
  189.6090  172.2970  139.7320 C   0  0  0  0  0  0  0  0  0  0  0  0
  189.4190  173.7150  141.6850 C   0  0  0  0  0  0  0  0  0  0  0  0
  189.8430  171.3970  138.7420 N   0  0  0  0  0  0  0  0  0  0  0  0
  189.0780  173.0220  137.1410 C   0  0  0  0  0  3  0  0  0  0  0  0
  188.8500  173.9530  138.1710 C   0  0  0  0  0  3  0  0  0  0  0  0
  189.0180  174.3710  140.5670 N   0  0  0  0  0  0  0  0  0  0  0  0
  190.6050  169.6370  136.8860 N   0  0  0  0  0  1  0  0  0  0  0  0
  189.8610  170.7660  136.3530 C   0  0  0  0  0  2  0  0  0  0  0  0
  1  2  1  6  0  0  0
  1  3  1  0  0  0  0
  2  5  2  0  0  0  0
  3  6  1  0  0  0  0
  4  6  1  0  0  0  0
  5  4  1  0  0  0  0
  7 10  2  0  0  0  0
  8 11  1  1  0  0  0
  9 17  1  1  0  0  0
  9 15  1  0  0  0  0
  9  8  1  0  0  0  0
 10 12  1  0  0  0  0
 12  1  1  0  0  0  0
 12 16  1  1  0  0  0
 13  8  1  0  0  0  0
 13 14  1  0  0  0  0
 14 16  2  0  0  0  0
 15 10  1  0  0  0  0
 15  8  1  0  0  0  0
 18 17  1  0  0  0  0
 20 19  2  0  0  0  0
 20 18  1  0  0  0  0
 21 28  1  1  0  0  0
 21 27  1  0  0  0  0
 21 22  1  0  0  0  0
 22 26  1  0  0  0  0
 25 23  1  6  0  0  0
 25 24  1  0  0  0  0
 26 24  1  0  0  0  0
 26 20  1  1  0  0  0
 27 25  1  0  0  0  0
 29 31  1  0  0  0  0
 30 28  1  0  0  0  0
 31 30  1  0  0  0  0
 32 30  2  0  0  0  0
 33 32  1  0  0  0  0
 34 33  2  0  0  0  0
 34 29  1  0  0  0  0
 35 37  1  0  0  0  0
 35 44  1  0  0  0  0
 36 35  2  0  0  0  0
 37  5  1  0  0  0  0
 38 41  1  0  0  0  0
 40 43  2  0  0  0  0
 41 39  2  0  0  0  0
 42 40  1  0  0  0  0
 43 39  1  0  0  0  0
 44 40  1  0  0  0  0
 44 38  2  0  0  0  0
 45  2  1  0  0  0  0
 46 45  2  0  0  0  0
 47 52  1  0  0  0  0
 48 50  1  0  0  0  0
 48 55  1  0  0  0  0
 49 51  1  0  0  0  0
 50 49  1  0  0  0  0
 51 46  1  0  0  0  0
 52 50  2  0  0  0  0
 53 47  2  0  0  0  0
 53 54  1  0  0  0  0
 54 48  2  0  0  0  0
 55 51  2  0  0  0  0
 57 56  1  0  0  0  0
 57 47  1  0  0  0  0
M  END
>  <MODEL>
1

>  <REMARK>
 VINA RESULT:      -8.4      0.000      0.000
  Name = 
  11 active torsions:
  status: ('A' for Active; 'I' for Inactive)
    1  A    between atoms: C_2  and  N_19
    2  A    between atoms: C_2  and  C_24
    3  A    between atoms: C_3  and  C_8
    4  A    between atoms: C_4  and  C_9
    5  A    between atoms: C_5  and  C_49
    6  A    between atoms: C_9  and  C_20
    7  A    between atoms: C_14  and  C_41
    8  A    between atoms: C_15  and  C_30
    9  A    between atoms: C_18  and  N_35
   10  A    between atoms: C_46  and  N_51
   11  A    between atoms: C_54  and  C_56
                            x       y       z     vdW  Elec       q    Type
                         _______ _______ _______ _____ _____    ______ ____

>  <TORSDO>
F 11

$$$$
=
 OpenBabel11042419083D

 57 64  0  0  1  0  0  0  0  0999 V2000
  195.5280  174.0980  144.4560 C   0  0  2  0  0  3  0  0  0  0  0  0
  195.6590  172.7310  143.7600 C   0  0  0  0  0  0  0  0  0  0  0  0
  196.1630  174.1710  145.7220 O   0  0  0  0  0  0  0  0  0  0  0  0
  197.2040  172.0520  145.5580 C   0  0  0  0  0  2  0  0  0  0  0  0
  196.4060  171.7580  144.3230 C   0  0  0  0  0  0  0  0  0  0  0  0
  197.4180  173.5510  145.6630 C   0  0  0  0  0  2  0  0  0  0  0  0
  194.2430  176.0100  142.7490 O   0  0  0  0  0  0  0  0  0  0  0  0
  191.1930  176.2670  144.9830 C   0  0  1  0  0  0  0  0  0  0  0  0
  190.8430  176.1700  143.6520 C   0  0  2  0  0  3  0  0  0  0  0  0
  193.5930  175.6500  143.7680 C   0  0  0  0  0  0  0  0  0  0  0  0
  191.2000  177.4940  145.6260 F   0  0  0  0  0  0  0  0  0  0  0  0
  194.0660  174.5370  144.6700 C   0  0  2  0  0  3  0  0  0  0  0  0
  191.1980  175.0000  145.8270 C   0  0  0  0  0  2  0  0  0  0  0  0
  192.4690  174.9010  146.6360 C   0  0  0  0  0  3  0  0  0  0  0  0
  192.3000  176.1760  143.9970 N   0  0  0  0  0  0  0  0  0  0  0  0
  193.7050  174.7110  146.1310 C   0  0  0  0  0  3  0  0  0  0  0  0
  190.4680  177.4970  143.0140 C   0  0  0  0  0  2  0  0  0  0  0  0
  189.0310  177.6930  143.1480 N   0  0  0  0  0  2  0  0  0  0  0  0
  188.4370  176.4670  141.2470 O   0  0  0  0  0  0  0  0  0  0  0  0
  188.1220  177.3430  142.1020 C   0  0  0  0  0  0  0  0  0  0  0  0
  184.9610  179.1240  143.2830 C   0  0  1  0  0  3  0  0  0  0  0  0
  186.3080  178.4120  143.3610 C   0  0  0  0  0  2  0  0  0  0  0  0
  184.5500  179.0570  140.3220 O   0  0  0  0  0  1  0  0  0  0  0  0
  185.8000  177.2070  141.2160 C   0  0  0  0  0  2  0  0  0  0  0  0
  184.4480  177.9160  141.1230 C   0  0  1  0  0  3  0  0  0  0  0  0
  186.8230  178.0610  141.9690 C   0  0  2  0  0  3  0  0  0  0  0  0
  183.9310  178.2890  142.5140 C   0  0  0  0  0  2  0  0  0  0  0  0
  184.4670  179.5250  144.6760 C   0  0  0  0  0  2  0  0  0  0  0  0
  186.7340  178.4540  147.6190 C   0  0  0  0  0  2  0  0  0  0  0  0
  185.0360  178.7070  145.7960 C   0  0  0  0  0  0  0  0  0  0  0  0
  185.6720  179.3670  146.9970 C   0  0  0  0  0  2  0  0  0  0  0  0
  184.8280  177.3860  145.8030 C   0  0  0  0  0  3  0  0  0  0  0  0
  185.3460  176.5460  146.9000 C   0  0  0  0  0  3  0  0  0  0  0  0
  186.2120  177.0510  147.7810 C   0  0  0  0  0  3  0  0  0  0  0  0
  196.8100  169.2290  144.2720 C   0  0  0  0  0  0  0  0  0  0  0  0
  197.5470  168.4030  143.6720 O   0  0  0  0  0  0  0  0  0  0  0  0
  196.5630  170.4980  143.6500 N   0  0  0  0  0  2  0  0  0  0  0  0
  196.9670  168.5780  146.6810 C   0  0  0  0  0  3  0  0  0  0  0  0
  195.0310  168.2030  147.9830 C   0  0  0  0  0  3  0  0  0  0  0  0
  194.7860  168.7940  145.7070 C   0  0  0  0  0  0  0  0  0  0  0  0
  196.3820  168.2600  147.8670 N   0  0  0  0  0  0  0  0  0  0  0  0
  193.9620  169.0420  144.6570 F   0  0  0  0  0  0  0  0  0  0  0  0
  194.2460  168.4680  146.9100 N   0  0  0  0  0  0  0  0  0  0  0  0
  196.1800  168.8470  145.5560 C   0  0  0  0  0  0  0  0  0  0  0  0
  195.1840  172.5320  142.3790 C   0  0  0  0  0  3  0  0  0  0  0  0
  193.9570  172.2370  142.1080 N   0  0  0  0  0  0  0  0  0  0  0  0
  191.6210  171.9780  136.4780 C   0  0  0  0  0  0  0  0  0  0  0  0
  192.1220  171.4080  139.1430 C   0  0  0  0  0  0  0  0  0  0  0  0
  194.0240  173.0240  139.4420 S   0  0  0  0  0  0  0  0  0  0  0  0
  192.8810  172.3220  138.4350 C   0  0  0  0  0  0  0  0  0  0  0  0
  193.4770  172.1040  140.7700 C   0  0  0  0  0  0  0  0  0  0  0  0
  192.6360  172.6180  137.1310 N   0  0  0  0  0  0  0  0  0  0  0  0
  190.8180  171.0410  137.1580 C   0  0  0  0  0  3  0  0  0  0  0  0
  191.0710  170.7490  138.5120 C   0  0  0  0  0  3  0  0  0  0  0  0
  192.4460  171.2820  140.4530 N   0  0  0  0  0  0  0  0  0  0  0  0
  190.1700  173.2110  135.0030 N   0  0  0  0  0  1  0  0  0  0  0  0
  191.3230  172.3280  135.0580 C   0  0  0  0  0  2  0  0  0  0  0  0
  1  2  1  1  0  0  0
  1 12  1  0  0  0  0
  1  3  1  0  0  0  0
  2  5  2  0  0  0  0
  4  6  1  0  0  0  0
  5  4  1  0  0  0  0
  6  3  1  0  0  0  0
  7 10  2  0  0  0  0
  8 11  1  1  0  0  0
  8 13  1  0  0  0  0
  9 17  1  6  0  0  0
  9 15  1  0  0  0  0
  9  8  1  0  0  0  0
 10 15  1  0  0  0  0
 10 12  1  0  0  0  0
 12 16  1  1  0  0  0
 13 14  1  0  0  0  0
 15  8  1  0  0  0  0
 16 14  2  0  0  0  0
 17 18  1  0  0  0  0
 19 20  2  0  0  0  0
 20 18  1  0  0  0  0
 21 22  1  0  0  0  0
 21 28  1  1  0  0  0
 24 26  1  0  0  0  0
 25 23  1  6  0  0  0
 25 24  1  0  0  0  0
 25 27  1  0  0  0  0
 26 20  1  1  0  0  0
 26 22  1  0  0  0  0
 27 21  1  0  0  0  0
 28 30  1  0  0  0  0
 29 34  1  0  0  0  0
 30 32  2  0  0  0  0
 30 31  1  0  0  0  0
 31 29  1  0  0  0  0
 32 33  1  0  0  0  0
 33 34  2  0  0  0  0
 35 44  1  0  0  0  0
 36 35  2  0  0  0  0
 37 35  1  0  0  0  0
 37  5  1  0  0  0  0
 38 41  1  0  0  0  0
 40 43  2  0  0  0  0
 41 39  2  0  0  0  0
 42 40  1  0  0  0  0
 43 39  1  0  0  0  0
 44 40  1  0  0  0  0
 44 38  2  0  0  0  0
 45  2  1  0  0  0  0
 46 45  2  0  0  0  0
 47 52  2  0  0  0  0
 47 53  1  0  0  0  0
 48 55  1  0  0  0  0
 49 51  1  0  0  0  0
 50 48  2  0  0  0  0
 50 49  1  0  0  0  0
 51 46  1  0  0  0  0
 52 50  1  0  0  0  0
 53 54  2  0  0  0  0
 54 48  1  0  0  0  0
 55 51  2  0  0  0  0
 56 57  1  0  0  0  0
 57 47  1  0  0  0  0
M  END
>  <MODEL>
2

>  <REMARK>
 VINA RESULT:      -8.2      3.265      9.645
  Name = 
  11 active torsions:
  status: ('A' for Active; 'I' for Inactive)
    1  A    between atoms: C_2  and  N_19
    2  A    between atoms: C_2  and  C_24
    3  A    between atoms: C_3  and  C_8
    4  A    between atoms: C_4  and  C_9
    5  A    between atoms: C_5  and  C_49
    6  A    between atoms: C_9  and  C_20
    7  A    between atoms: C_14  and  C_41
    8  A    between atoms: C_15  and  C_30
    9  A    between atoms: C_18  and  N_35
   10  A    between atoms: C_46  and  N_51
   11  A    between atoms: C_54  and  C_56
                            x       y       z     vdW  Elec       q    Type
                         _______ _______ _______ _____ _____    ______ ____

>  <TORSDO>
F 11

$$$$
=
 OpenBabel11042419083D

 57 64  0  0  1  0  0  0  0  0999 V2000
  195.2530  174.5920  144.8940 C   0  0  2  0  0  3  0  0  0  0  0  0
  195.6900  173.6760  143.7370 C   0  0  0  0  0  0  0  0  0  0  0  0
  195.7470  174.2000  146.1650 O   0  0  0  0  0  0  0  0  0  0  0  0
  197.1610  172.4980  145.3260 C   0  0  0  0  0  2  0  0  0  0  0  0
  196.5450  172.6580  143.9680 C   0  0  0  0  0  0  0  0  0  0  0  0
  197.0930  173.8250  146.0590 C   0  0  0  0  0  2  0  0  0  0  0  0
  194.0250  176.5910  146.5410 O   0  0  0  0  0  0  0  0  0  0  0  0
  190.5710  175.0800  146.1620 C   0  0  1  0  0  0  0  0  0  0  0  0
  190.5450  176.4520  146.0180 C   0  0  2  0  0  3  0  0  0  0  0  0
  193.2510  175.7280  146.0460 C   0  0  0  0  0  0  0  0  0  0  0  0
  190.1980  174.4860  147.3570 F   0  0  0  0  0  0  0  0  0  0  0  0
  193.7230  174.7130  145.0340 C   0  0  2  0  0  3  0  0  0  0  0  0
  190.6380  174.2180  144.9080 C   0  0  0  0  0  2  0  0  0  0  0  0
  191.6960  173.1510  145.0490 C   0  0  0  0  0  3  0  0  0  0  0  0
  191.8620  175.8000  146.3040 N   0  0  0  0  0  0  0  0  0  0  0  0
  193.0250  173.3700  145.1120 C   0  0  0  0  0  3  0  0  0  0  0  0
  190.0670  177.1940  147.2550 C   0  0  0  0  0  2  0  0  0  0  0  0
  188.7910  177.8270  146.9570 N   0  0  0  0  0  2  0  0  0  0  0  0
  187.4660  175.9720  147.4820 O   0  0  0  0  0  0  0  0  0  0  0  0
  187.5770  177.0760  146.8770 C   0  0  0  0  0  0  0  0  0  0  0  0
  185.8250  178.1060  143.6480 C   0  0  1  0  0  3  0  0  0  0  0  0
  186.9270  177.5920  144.5680 C   0  0  0  0  0  2  0  0  0  0  0  0
  183.7180  178.6760  145.6900 O   0  0  0  0  0  1  0  0  0  0  0  0
  185.9790  178.9390  146.4650 C   0  0  0  0  0  2  0  0  0  0  0  0
  184.8660  179.4610  145.5540 C   0  0  1  0  0  3  0  0  0  0  0  0
  186.4570  177.5550  146.0180 C   0  0  2  0  0  3  0  0  0  0  0  0
  185.3220  179.4840  144.0930 C   0  0  0  0  0  2  0  0  0  0  0  0
  186.2770  178.0940  142.1840 C   0  0  0  0  0  2  0  0  0  0  0  0
  188.0540  174.6630  142.3210 C   0  0  0  0  0  2  0  0  0  0  0  0
  186.8940  176.8030  141.7350 C   0  0  0  0  0  0  0  0  0  0  0  0
  186.8590  175.5770  142.6160 C   0  0  0  0  0  2  0  0  0  0  0  0
  187.3300  176.6990  140.4760 C   0  0  0  0  0  3  0  0  0  0  0  0
  187.9180  175.4390  139.9830 C   0  0  0  0  0  3  0  0  0  0  0  0
  188.2260  174.4610  140.8380 C   0  0  0  0  0  3  0  0  0  0  0  0
  196.4960  170.5220  142.5560 C   0  0  0  0  0  0  0  0  0  0  0  0
  197.3080  169.6780  142.0920 O   0  0  0  0  0  0  0  0  0  0  0  0
  196.9850  171.8310  142.8790 N   0  0  0  0  0  2  0  0  0  0  0  0
  194.2260  170.1450  141.5790 C   0  0  0  0  0  3  0  0  0  0  0  0
  192.4170  169.4160  142.9140 C   0  0  0  0  0  3  0  0  0  0  0  0
  194.5240  169.7670  143.9290 C   0  0  0  0  0  0  0  0  0  0  0  0
  192.9230  169.7790  141.7080 N   0  0  0  0  0  0  0  0  0  0  0  0
  195.2830  169.7570  145.0540 F   0  0  0  0  0  0  0  0  0  0  0  0
  193.2150  169.4120  144.0100 N   0  0  0  0  0  0  0  0  0  0  0  0
  195.0690  170.1590  142.6960 C   0  0  0  0  0  0  0  0  0  0  0  0
  195.3870  174.0230  142.3360 C   0  0  0  0  0  3  0  0  0  0  0  0
  194.3340  173.5850  141.7300 N   0  0  0  0  0  0  0  0  0  0  0  0
  192.6870  175.5420  136.1920 C   0  0  0  0  0  0  0  0  0  0  0  0
  192.7420  174.1090  138.5630 C   0  0  0  0  0  0  0  0  0  0  0  0
  194.8750  175.0930  139.4580 S   0  0  0  0  0  0  0  0  0  0  0  0
  193.7450  174.9970  138.2210 C   0  0  0  0  0  0  0  0  0  0  0  0
  194.0020  173.9670  140.3960 C   0  0  0  0  0  0  0  0  0  0  0  0
  193.7220  175.7150  137.0670 N   0  0  0  0  0  0  0  0  0  0  0  0
  191.6400  174.6510  136.4970 C   0  0  0  0  0  3  0  0  0  0  0  0
  191.6660  173.9210  137.7000 C   0  0  0  0  0  3  0  0  0  0  0  0
  192.8750  173.5290  139.7810 N   0  0  0  0  0  0  0  0  0  0  0  0
  191.3250  176.9680  134.8080 N   0  0  0  0  0  1  0  0  0  0  0  0
  192.6370  176.3560  134.9410 C   0  0  0  0  0  2  0  0  0  0  0  0
  1  2  1  6  0  0  0
  1 12  1  0  0  0  0
  1  3  1  0  0  0  0
  2  5  2  0  0  0  0
  4  6  1  0  0  0  0
  5  4  1  0  0  0  0
  6  3  1  0  0  0  0
  8 15  1  0  0  0  0
  8 11  1  1  0  0  0
  9  8  1  0  0  0  0
  9 15  1  0  0  0  0
  9 17  1  1  0  0  0
 10 15  1  0  0  0  0
 10  7  2  0  0  0  0
 12 16  1  1  0  0  0
 12 10  1  0  0  0  0
 13 14  1  0  0  0  0
 13  8  1  0  0  0  0
 14 16  2  0  0  0  0
 18 17  1  0  0  0  0
 20 18  1  0  0  0  0
 20 19  2  0  0  0  0
 21 28  1  6  0  0  0
 21 27  1  0  0  0  0
 21 22  1  0  0  0  0
 22 26  1  0  0  0  0
 25 23  1  6  0  0  0
 25 24  1  0  0  0  0
 26 24  1  0  0  0  0
 26 20  1  1  0  0  0
 27 25  1  0  0  0  0
 29 31  1  0  0  0  0
 30 28  1  0  0  0  0
 30 31  1  0  0  0  0
 32 30  2  0  0  0  0
 33 32  1  0  0  0  0
 33 34  2  0  0  0  0
 34 29  1  0  0  0  0
 35 44  1  0  0  0  0
 35 37  1  0  0  0  0
 36 35  2  0  0  0  0
 37  5  1  0  0  0  0
 38 41  2  0  0  0  0
 38 44  1  0  0  0  0
 39 43  2  0  0  0  0
 40 43  1  0  0  0  0
 40 42  1  0  0  0  0
 41 39  1  0  0  0  0
 44 40  2  0  0  0  0
 45  2  1  0  0  0  0
 46 45  2  0  0  0  0
 47 53  2  0  0  0  0
 47 52  1  0  0  0  0
 48 55  1  0  0  0  0
 49 51  1  0  0  0  0
 50 48  1  0  0  0  0
 50 49  1  0  0  0  0
 51 46  1  0  0  0  0
 52 50  2  0  0  0  0
 53 54  1  0  0  0  0
 54 48  2  0  0  0  0
 55 51  2  0  0  0  0
 56 57  1  0  0  0  0
 57 47  1  0  0  0  0
M  END
>  <MODEL>
3

>  <REMARK>
 VINA RESULT:      -8.2      2.928      8.974
  Name = 
  11 active torsions:
  status: ('A' for Active; 'I' for Inactive)
    1  A    between atoms: C_2  and  N_19
    2  A    between atoms: C_2  and  C_24
    3  A    between atoms: C_3  and  C_8
    4  A    between atoms: C_4  and  C_9
    5  A    between atoms: C_5  and  C_49
    6  A    between atoms: C_9  and  C_20
    7  A    between atoms: C_14  and  C_41
    8  A    between atoms: C_15  and  C_30
    9  A    between atoms: C_18  and  N_35
   10  A    between atoms: C_46  and  N_51
   11  A    between atoms: C_54  and  C_56
                            x       y       z     vdW  Elec       q    Type
                         _______ _______ _______ _____ _____    ______ ____

>  <TORSDO>
F 11

$$$$
=
 OpenBabel11042419083D

 57 64  0  0  1  0  0  0  0  0999 V2000
  193.9270  174.8030  143.8540 C   0  0  2  0  0  3  0  0  0  0  0  0
  195.0550  173.7730  143.6730 C   0  0  0  0  0  0  0  0  0  0  0  0
  193.8160  175.3220  145.1690 O   0  0  0  0  0  0  0  0  0  0  0  0
  195.7920  174.2910  145.9680 C   0  0  0  0  0  2  0  0  0  0  0  0
  195.8900  173.5000  144.6980 C   0  0  0  0  0  0  0  0  0  0  0  0
  195.0900  175.6060  145.6780 C   0  0  0  0  0  2  0  0  0  0  0  0
  192.1740  176.1970  142.0630 O   0  0  0  0  0  0  0  0  0  0  0  0
  189.2650  173.8760  142.7710 C   0  0  1  0  0  0  0  0  0  0  0  0
  189.3970  174.1290  141.4210 C   0  0  2  0  0  3  0  0  0  0  0  0
  191.6910  175.1830  142.6350 C   0  0  0  0  0  0  0  0  0  0  0  0
  188.3170  174.5470  143.5270 F   0  0  0  0  0  0  0  0  0  0  0  0
  192.5350  174.2570  143.4770 C   0  0  2  0  0  3  0  0  0  0  0  0
  189.8840  172.6050  143.3360 C   0  0  0  0  0  2  0  0  0  0  0  0
  190.6690  172.9050  144.5900 C   0  0  0  0  0  3  0  0  0  0  0  0
  190.3610  174.7880  142.3580 N   0  0  0  0  0  0  0  0  0  0  0  0
  191.8070  173.6270  144.6470 C   0  0  0  0  0  3  0  0  0  0  0  0
  188.4210  175.1650  140.8880 C   0  0  0  0  0  2  0  0  0  0  0  0
  187.5790  175.6240  141.9830 N   0  0  0  0  0  2  0  0  0  0  0  0
  186.2720  177.0760  140.6970 O   0  0  0  0  0  0  0  0  0  0  0  0
  186.6970  176.7400  141.8380 C   0  0  0  0  0  0  0  0  0  0  0  0
  186.2380  177.5450  145.5400 C   0  0  1  0  0  3  0  0  0  0  0  0
  186.6270  176.7600  144.2910 C   0  0  0  0  0  2  0  0  0  0  0  0
  185.1090  179.9900  144.2420 O   0  0  0  0  0  1  0  0  0  0  0  0
  184.8520  177.9600  142.9790 C   0  0  0  0  0  2  0  0  0  0  0  0
  184.4530  178.7570  144.2230 C   0  0  1  0  0  3  0  0  0  0  0  0
  186.3290  177.5600  143.0270 C   0  0  2  0  0  3  0  0  0  0  0  0
  184.7660  177.9690  145.4970 C   0  0  0  0  0  2  0  0  0  0  0  0
  186.5860  176.7650  146.8120 C   0  0  0  0  0  2  0  0  0  0  0  0
  190.4230  176.9540  146.3840 C   0  0  0  0  0  2  0  0  0  0  0  0
  188.0420  176.4440  146.9650 C   0  0  0  0  0  0  0  0  0  0  0  0
  189.0910  177.5270  146.8800 C   0  0  0  0  0  2  0  0  0  0  0  0
  188.3950  175.2120  147.3440 C   0  0  0  0  0  3  0  0  0  0  0  0
  189.8150  174.8590  147.5350 C   0  0  0  0  0  3  0  0  0  0  0  0
  190.7750  175.6890  147.1220 C   0  0  0  0  0  3  0  0  0  0  0  0
  196.9150  171.1540  144.7300 C   0  0  0  0  0  0  0  0  0  0  0  0
  197.9410  170.5780  145.1800 O   0  0  0  0  0  0  0  0  0  0  0  0
  196.9700  172.5710  144.5140 N   0  0  0  0  0  2  0  0  0  0  0  0
  195.6940  169.5790  143.2200 C   0  0  0  0  0  3  0  0  0  0  0  0
  193.5330  168.7870  143.7550 C   0  0  0  0  0  3  0  0  0  0  0  0
  194.6030  170.2930  145.2320 C   0  0  0  0  0  0  0  0  0  0  0  0
  194.6070  168.8180  142.9260 N   0  0  0  0  0  0  0  0  0  0  0  0
  194.5590  171.0170  146.3790 F   0  0  0  0  0  0  0  0  0  0  0  0
  193.5360  169.5210  144.8960 N   0  0  0  0  0  0  0  0  0  0  0  0
  195.7210  170.3510  144.3860 C   0  0  0  0  0  0  0  0  0  0  0  0
  195.4000  173.2470  142.3390 C   0  0  0  0  0  3  0  0  0  0  0  0
  195.3170  173.9690  141.2710 N   0  0  0  0  0  0  0  0  0  0  0  0
  197.3400  171.7390  135.9660 C   0  0  0  0  0  0  0  0  0  0  0  0
  196.8180  173.4850  138.0540 C   0  0  0  0  0  0  0  0  0  0  0  0
  195.3340  171.9400  139.3700 S   0  0  0  0  0  0  0  0  0  0  0  0
  196.2570  172.2220  137.9970 C   0  0  0  0  0  0  0  0  0  0  0  0
  195.7080  173.4860  139.9870 C   0  0  0  0  0  0  0  0  0  0  0  0
  196.5170  171.3530  136.9850 N   0  0  0  0  0  0  0  0  0  0  0  0
  197.9380  173.0150  135.9810 C   0  0  0  0  0  3  0  0  0  0  0  0
  197.6740  173.9040  137.0390 C   0  0  0  0  0  3  0  0  0  0  0  0
  196.5190  174.2000  139.1660 N   0  0  0  0  0  0  0  0  0  0  0  0
  196.4650  170.0290  134.5130 N   0  0  0  0  0  1  0  0  0  0  0  0
  197.6600  170.7760  134.8720 C   0  0  0  0  0  2  0  0  0  0  0  0
  1  2  1  1  0  0  0
  1  3  1  0  0  0  0
  2  5  2  0  0  0  0
  3  6  1  0  0  0  0
  5  4  1  0  0  0  0
  6  4  1  0  0  0  0
  7 10  2  0  0  0  0
  8 13  1  0  0  0  0
  8 11  1  1  0  0  0
  9 17  1  1  0  0  0
  9 15  1  0  0  0  0
  9  8  1  0  0  0  0
 10 12  1  0  0  0  0
 12  1  1  0  0  0  0
 12 16  1  1  0  0  0
 13 14  1  0  0  0  0
 14 16  2  0  0  0  0
 15 10  1  0  0  0  0
 15  8  1  0  0  0  0
 17 18  1  0  0  0  0
 19 20  2  0  0  0  0
 20 18  1  0  0  0  0
 21 28  1  1  0  0  0
 22 21  1  0  0  0  0
 24 26  1  0  0  0  0
 24 25  1  0  0  0  0
 25 23  1  1  0  0  0
 25 27  1  0  0  0  0
 26 20  1  6  0  0  0
 26 22  1  0  0  0  0
 27 21  1  0  0  0  0
 28 30  1  0  0  0  0
 29 31  1  0  0  0  0
 29 34  1  0  0  0  0
 30 32  2  0  0  0  0
 31 30  1  0  0  0  0
 32 33  1  0  0  0  0
 34 33  2  0  0  0  0
 35 36  2  0  0  0  0
 37  5  1  0  0  0  0
 37 35  1  0  0  0  0
 38 44  1  0  0  0  0
 39 43  2  0  0  0  0
 40 42  1  0  0  0  0
 41 38  2  0  0  0  0
 41 39  1  0  0  0  0
 43 40  1  0  0  0  0
 44 35  1  0  0  0  0
 44 40  2  0  0  0  0
 45  2  1  0  0  0  0
 46 45  2  0  0  0  0
 47 53  2  0  0  0  0
 47 52  1  0  0  0  0
 48 55  1  0  0  0  0
 49 51  1  0  0  0  0
 50 48  1  0  0  0  0
 50 49  1  0  0  0  0
 51 46  1  0  0  0  0
 52 50  2  0  0  0  0
 53 54  1  0  0  0  0
 54 48  2  0  0  0  0
 55 51  2  0  0  0  0
 56 57  1  0  0  0  0
 57 47  1  0  0  0  0
M  END
>  <MODEL>
4

>  <REMARK>
 VINA RESULT:      -8.0      3.286      9.674
  Name = 
  11 active torsions:
  status: ('A' for Active; 'I' for Inactive)
    1  A    between atoms: C_2  and  N_19
    2  A    between atoms: C_2  and  C_24
    3  A    between atoms: C_3  and  C_8
    4  A    between atoms: C_4  and  C_9
    5  A    between atoms: C_5  and  C_49
    6  A    between atoms: C_9  and  C_20
    7  A    between atoms: C_14  and  C_41
    8  A    between atoms: C_15  and  C_30
    9  A    between atoms: C_18  and  N_35
   10  A    between atoms: C_46  and  N_51
   11  A    between atoms: C_54  and  C_56
                            x       y       z     vdW  Elec       q    Type
                         _______ _______ _______ _____ _____    ______ ____

>  <TORSDO>
F 11

$$$$
=
 OpenBabel11042419083D

 57 64  0  0  1  0  0  0  0  0999 V2000
  194.3680  170.6190  140.9350 C   0  0  2  0  0  3  0  0  0  0  0  0
  192.9340  170.3380  140.4530 C   0  0  0  0  0  0  0  0  0  0  0  0
  195.2540  169.5190  140.8010 O   0  0  0  0  0  0  0  0  0  0  0  0
  193.7280  168.1660  139.5980 C   0  0  0  0  0  2  0  0  0  0  0  0
  192.6360  169.1540  139.8770 C   0  0  0  0  0  0  0  0  0  0  0  0
  195.0580  168.8970  139.5600 C   0  0  0  0  0  2  0  0  0  0  0  0
  194.9250  173.3300  141.6810 O   0  0  0  0  0  0  0  0  0  0  0  0
  195.2840  172.4660  145.3520 C   0  0  1  0  0  0  0  0  0  0  0  0
  194.5310  173.6080  145.1690 C   0  0  2  0  0  3  0  0  0  0  0  0
  194.8800  172.4940  142.6230 C   0  0  0  0  0  0  0  0  0  0  0  0
  196.6190  172.5500  145.7140 F   0  0  0  0  0  0  0  0  0  0  0  0
  194.4410  171.0660  142.4080 C   0  0  2  0  0  3  0  0  0  0  0  0
  194.5600  171.1390  145.5320 C   0  0  0  0  0  2  0  0  0  0  0  0
  195.1700  170.0750  144.6520 C   0  0  0  0  0  3  0  0  0  0  0  0
  195.0800  172.9250  143.9550 N   0  0  0  0  0  0  0  0  0  0  0  0
  195.1240  170.0530  143.3050 C   0  0  0  0  0  3  0  0  0  0  0  0
  195.2940  174.8980  145.4140 C   0  0  0  0  0  2  0  0  0  0  0  0
  194.3490  176.0050  145.4370 N   0  0  0  0  0  2  0  0  0  0  0  0
  192.8930  175.0540  147.0010 O   0  0  0  0  0  0  0  0  0  0  0  0
  193.0740  175.8950  146.0750 C   0  0  0  0  0  0  0  0  0  0  0  0
  189.4200  176.7860  145.4330 C   0  0  1  0  0  3  0  0  0  0  0  0
  190.6270  175.9940  145.9250 C   0  0  0  0  0  2  0  0  0  0  0  0
  190.8400  179.0820  144.1480 O   0  0  0  0  0  1  0  0  0  0  0  0
  192.0340  176.9950  144.1000 C   0  0  0  0  0  2  0  0  0  0  0  0
  190.8320  177.7980  143.5980 C   0  0  1  0  0  3  0  0  0  0  0  0
  191.9280  176.7220  145.6030 C   0  0  2  0  0  3  0  0  0  0  0  0
  189.5210  177.0840  143.9330 C   0  0  0  0  0  2  0  0  0  0  0  0
  188.1100  176.0830  145.8030 C   0  0  0  0  0  2  0  0  0  0  0  0
  184.8260  178.1230  145.8800 C   0  0  0  0  0  2  0  0  0  0  0  0
  187.0280  177.0010  146.2860 C   0  0  0  0  0  0  0  0  0  0  0  0
  185.5900  176.7940  145.8750 C   0  0  0  0  0  2  0  0  0  0  0  0
  187.3220  177.9100  147.2220 C   0  0  0  0  0  3  0  0  0  0  0  0
  186.2820  178.8150  147.7470 C   0  0  0  0  0  3  0  0  0  0  0  0
  185.0920  178.8930  147.1460 C   0  0  0  0  0  3  0  0  0  0  0  0
  190.7710  169.3480  138.1320 C   0  0  0  0  0  0  0  0  0  0  0  0
  189.5560  169.6760  138.0810 O   0  0  0  0  0  0  0  0  0  0  0  0
  191.3070  168.9110  139.3880 N   0  0  0  0  0  2  0  0  0  0  0  0
  191.8170  168.1900  136.1780 C   0  0  0  0  0  3  0  0  0  0  0  0
  193.0350  169.3860  134.5450 C   0  0  0  0  0  3  0  0  0  0  0  0
  192.1000  170.5630  136.3710 C   0  0  0  0  0  0  0  0  0  0  0  0
  192.5370  168.2190  135.0250 N   0  0  0  0  0  0  0  0  0  0  0  0
  191.9130  171.7440  137.0130 F   0  0  0  0  0  0  0  0  0  0  0  0
  192.8160  170.5440  135.2160 N   0  0  0  0  0  0  0  0  0  0  0  0
  191.5840  169.3680  136.8950 C   0  0  0  0  0  0  0  0  0  0  0  0
  191.9290  171.4150  140.3860 C   0  0  0  0  0  3  0  0  0  0  0  0
  190.9050  171.4520  141.1730 N   0  0  0  0  0  0  0  0  0  0  0  0
  187.1520  176.2580  141.3430 C   0  0  0  0  0  0  0  0  0  0  0  0
  188.3220  173.8160  141.9330 C   0  0  0  0  0  0  0  0  0  0  0  0
  189.9600  173.8010  140.0250 S   0  0  0  0  0  0  0  0  0  0  0  0
  188.6990  174.5620  140.8310 C   0  0  0  0  0  0  0  0  0  0  0  0
  189.9630  172.5230  141.1550 C   0  0  0  0  0  0  0  0  0  0  0  0
  188.1420  175.7660  140.5400 N   0  0  0  0  0  0  0  0  0  0  0  0
  186.7360  175.5360  142.4790 C   0  0  0  0  0  3  0  0  0  0  0  0
  187.3270  174.2950  142.7800 C   0  0  0  0  0  3  0  0  0  0  0  0
  189.0260  172.6740  142.1250 N   0  0  0  0  0  0  0  0  0  0  0  0
  186.6300  178.4320  142.2400 N   0  0  0  0  0  1  0  0  0  0  0  0
  186.5630  177.5980  141.0510 C   0  0  0  0  0  2  0  0  0  0  0  0
  1  2  1  1  0  0  0
  1 12  1  0  0  0  0
  3  1  1  0  0  0  0
  4  5  1  0  0  0  0
  5  2  2  0  0  0  0
  6  4  1  0  0  0  0
  6  3  1  0  0  0  0
  7 10  2  0  0  0  0
  8 13  1  0  0  0  0
  8 11  1  1  0  0  0
  9  8  1  0  0  0  0
  9 17  1  1  0  0  0
 10 15  1  0  0  0  0
 12 10  1  0  0  0  0
 12 16  1  1  0  0  0
 14 13  1  0  0  0  0
 15  9  1  0  0  0  0
 15  8  1  0  0  0  0
 16 14  2  0  0  0  0
 17 18  1  0  0  0  0
 18 20  1  0  0  0  0
 20 19  2  0  0  0  0
 21 28  1  6  0  0  0
 21 22  1  0  0  0  0
 24 26  1  0  0  0  0
 25 27  1  0  0  0  0
 25 24  1  0  0  0  0
 25 23  1  1  0  0  0
 26 22  1  0  0  0  0
 26 20  1  6  0  0  0
 27 21  1  0  0  0  0
 28 30  1  0  0  0  0
 29 34  1  0  0  0  0
 30 32  2  0  0  0  0
 31 29  1  0  0  0  0
 31 30  1  0  0  0  0
 32 33  1  0  0  0  0
 34 33  2  0  0  0  0
 35 37  1  0  0  0  0
 36 35  2  0  0  0  0
 37  5  1  0  0  0  0
 38 44  1  0  0  0  0
 39 41  1  0  0  0  0
 39 43  2  0  0  0  0
 40 44  2  0  0  0  0
 40 42  1  0  0  0  0
 41 38  2  0  0  0  0
 43 40  1  0  0  0  0
 44 35  1  0  0  0  0
 45  2  1  0  0  0  0
 45 46  2  0  0  0  0
 47 53  1  0  0  0  0
 48 55  1  0  0  0  0
 48 54  1  0  0  0  0
 49 50  1  0  0  0  0
 49 51  1  0  0  0  0
 50 48  2  0  0  0  0
 51 46  1  0  0  0  0
 51 55  2  0  0  0  0
 52 50  1  0  0  0  0
 52 47  2  0  0  0  0
 53 54  2  0  0  0  0
 57 47  1  0  0  0  0
 57 56  1  0  0  0  0
M  END
>  <MODEL>
5

>  <REMARK>
 VINA RESULT:      -7.8      3.424      9.363
  Name = 
  11 active torsions:
  status: ('A' for Active; 'I' for Inactive)
    1  A    between atoms: C_2  and  N_19
    2  A    between atoms: C_2  and  C_24
    3  A    between atoms: C_3  and  C_8
    4  A    between atoms: C_4  and  C_9
    5  A    between atoms: C_5  and  C_49
    6  A    between atoms: C_9  and  C_20
    7  A    between atoms: C_14  and  C_41
    8  A    between atoms: C_15  and  C_30
    9  A    between atoms: C_18  and  N_35
   10  A    between atoms: C_46  and  N_51
   11  A    between atoms: C_54  and  C_56
                            x       y       z     vdW  Elec       q    Type
                         _______ _______ _______ _____ _____    ______ ____

>  <TORSDO>
F 11

$$$$
=
 OpenBabel11042419083D

 57 64  0  0  1  0  0  0  0  0999 V2000
  190.7380  175.7490  145.7730 C   0  0  2  0  0  3  0  0  0  0  0  0
  189.9100  176.0970  144.5230 C   0  0  0  0  0  0  0  0  0  0  0  0
  190.5570  176.6440  146.8600 O   0  0  0  0  0  0  0  0  0  0  0  0
  188.7880  177.8480  145.8480 C   0  0  0  0  0  2  0  0  0  0  0  0
  189.0370  177.1260  144.5570 C   0  0  0  0  0  0  0  0  0  0  0  0
  189.1980  176.9510  147.0020 C   0  0  0  0  0  2  0  0  0  0  0  0
  192.0300  173.3480  144.8900 O   0  0  0  0  0  0  0  0  0  0  0  0
  195.5000  174.8050  145.3280 C   0  0  1  0  0  0  0  0  0  0  0  0
  195.3810  174.1230  144.1340 C   0  0  2  0  0  3  0  0  0  0  0  0
  192.7890  174.3110  145.1800 C   0  0  0  0  0  0  0  0  0  0  0  0
  196.1100  174.2140  146.4230 F   0  0  0  0  0  0  0  0  0  0  0  0
  192.2540  175.6850  145.5030 C   0  0  2  0  0  3  0  0  0  0  0  0
  195.3120  176.3160  145.3240 C   0  0  0  0  0  2  0  0  0  0  0  0
  194.3890  176.7420  146.4390 C   0  0  0  0  0  3  0  0  0  0  0  0
  194.1900  174.1690  145.0400 N   0  0  0  0  0  0  0  0  0  0  0  0
  193.0730  176.4590  146.5170 C   0  0  0  0  0  3  0  0  0  0  0  0
  195.9810  172.7270  144.1570 C   0  0  0  0  0  2  0  0  0  0  0  0
  195.7550  172.0980  142.8640 N   0  0  0  0  0  2  0  0  0  0  0  0
  196.2350  169.9180  143.5630 O   0  0  0  0  0  0  0  0  0  0  0  0
  196.1290  170.7410  142.6110 C   0  0  0  0  0  0  0  0  0  0  0  0
  197.0060  171.1500  138.9200 C   0  0  1  0  0  3  0  0  0  0  0  0
  196.6870  171.5400  140.3590 C   0  0  0  0  0  2  0  0  0  0  0  0
  196.7820  168.1790  139.1650 O   0  0  0  0  0  1  0  0  0  0  0  0
  195.3550  169.4290  140.6420 C   0  0  0  0  0  2  0  0  0  0  0  0
  195.6690  169.0230  139.2010 C   0  0  1  0  0  3  0  0  0  0  0  0
  196.4660  170.3050  141.2260 C   0  0  2  0  0  3  0  0  0  0  0  0
  195.9100  170.2560  138.3270 C   0  0  0  0  0  2  0  0  0  0  0  0
  197.2800  172.3870  138.0590 C   0  0  0  0  0  2  0  0  0  0  0  0
  194.7080  175.0340  139.2100 C   0  0  0  0  0  2  0  0  0  0  0  0
  196.1530  173.3750  138.0150 C   0  0  0  0  0  0  0  0  0  0  0  0
  196.1440  174.5860  138.9170 C   0  0  0  0  0  2  0  0  0  0  0  0
  195.2340  173.2640  137.0510 C   0  0  0  0  0  3  0  0  0  0  0  0
  194.1240  174.2310  136.9520 C   0  0  0  0  0  3  0  0  0  0  0  0
  193.8930  175.0930  137.9450 C   0  0  0  0  0  3  0  0  0  0  0  0
  186.8080  177.3050  143.3100 C   0  0  0  0  0  0  0  0  0  0  0  0
  186.3080  176.9410  142.2120 O   0  0  0  0  0  0  0  0  0  0  0  0
  188.2340  177.4220  143.4040 N   0  0  0  0  0  2  0  0  0  0  0  0
  185.6260  176.7160  145.4330 C   0  0  0  0  0  3  0  0  0  0  0  0
  184.3100  178.3010  146.5900 C   0  0  0  0  0  3  0  0  0  0  0  0
  185.3730  178.9410  144.5760 C   0  0  0  0  0  0  0  0  0  0  0  0
  184.8320  177.0520  146.4830 N   0  0  0  0  0  0  0  0  0  0  0  0
  185.6100  179.9020  143.6480 F   0  0  0  0  0  0  0  0  0  0  0  0
  184.5810  179.2320  145.6420 N   0  0  0  0  0  0  0  0  0  0  0  0
  185.9150  177.6540  144.4370 C   0  0  0  0  0  0  0  0  0  0  0  0
  189.8700  175.1910  143.3610 C   0  0  0  0  0  3  0  0  0  0  0  0
  190.7670  175.2200  142.4320 N   0  0  0  0  0  0  0  0  0  0  0  0
  190.6990  170.9900  138.0370 C   0  0  0  0  0  0  0  0  0  0  0  0
  191.6080  172.7690  139.9570 C   0  0  0  0  0  0  0  0  0  0  0  0
  189.3820  173.8200  140.4700 S   0  0  0  0  0  0  0  0  0  0  0  0
  190.2820  172.7260  139.5690 C   0  0  0  0  0  0  0  0  0  0  0  0
  190.7680  174.3050  141.3380 C   0  0  0  0  0  0  0  0  0  0  0  0
  189.8220  171.8500  138.6380 N   0  0  0  0  0  0  0  0  0  0  0  0
  192.0590  170.9940  138.4020 C   0  0  0  0  0  3  0  0  0  0  0  0
  192.5240  171.8970  139.3760 C   0  0  0  0  0  3  0  0  0  0  0  0
  191.8910  173.6470  140.9510 N   0  0  0  0  0  0  0  0  0  0  0  0
  191.1880  169.7980  136.0020 N   0  0  0  0  0  1  0  0  0  0  0  0
  190.1930  169.9990  137.0420 C   0  0  0  0  0  2  0  0  0  0  0  0
  1  2  1  6  0  0  0
  1  3  1  0  0  0  0
  2  5  2  0  0  0  0
  3  6  1  0  0  0  0
  4  6  1  0  0  0  0
  5  4  1  0  0  0  0
  7 10  2  0  0  0  0
  8 11  1  1  0  0  0
  9 17  1  1  0  0  0
  9 15  1  0  0  0  0
  9  8  1  0  0  0  0
 10 12  1  0  0  0  0
 12  1  1  0  0  0  0
 12 16  1  1  0  0  0
 13  8  1  0  0  0  0
 13 14  1  0  0  0  0
 14 16  2  0  0  0  0
 15 10  1  0  0  0  0
 15  8  1  0  0  0  0
 18 17  1  0  0  0  0
 20 18  1  0  0  0  0
 20 19  2  0  0  0  0
 21 28  1  6  0  0  0
 21 22  1  0  0  0  0
 22 26  1  0  0  0  0
 24 26  1  0  0  0  0
 25 23  1  1  0  0  0
 25 24  1  0  0  0  0
 26 20  1  1  0  0  0
 27 21  1  0  0  0  0
 27 25  1  0  0  0  0
 30 28  1  0  0  0  0
 30 31  1  0  0  0  0
 31 29  1  0  0  0  0
 32 30  2  0  0  0  0
 33 32  1  0  0  0  0
 33 34  2  0  0  0  0
 34 29  1  0  0  0  0
 35 37  1  0  0  0  0
 35 44  1  0  0  0  0
 36 35  2  0  0  0  0
 37  5  1  0  0  0  0
 38 41  1  0  0  0  0
 40 43  2  0  0  0  0
 41 39  2  0  0  0  0
 42 40  1  0  0  0  0
 43 39  1  0  0  0  0
 44 40  1  0  0  0  0
 44 38  2  0  0  0  0
 45  2  1  0  0  0  0
 46 45  2  0  0  0  0
 47 53  2  0  0  0  0
 47 52  1  0  0  0  0
 48 55  1  0  0  0  0
 49 51  1  0  0  0  0
 50 48  1  0  0  0  0
 50 49  1  0  0  0  0
 51 46  1  0  0  0  0
 52 50  2  0  0  0  0
 53 54  1  0  0  0  0
 54 48  2  0  0  0  0
 55 51  2  0  0  0  0
 56 57  1  0  0  0  0
 57 47  1  0  0  0  0
M  END
>  <MODEL>
6

>  <REMARK>
 VINA RESULT:      -7.8      1.466      1.996
  Name = 
  11 active torsions:
  status: ('A' for Active; 'I' for Inactive)
    1  A    between atoms: C_2  and  N_19
    2  A    between atoms: C_2  and  C_24
    3  A    between atoms: C_3  and  C_8
    4  A    between atoms: C_4  and  C_9
    5  A    between atoms: C_5  and  C_49
    6  A    between atoms: C_9  and  C_20
    7  A    between atoms: C_14  and  C_41
    8  A    between atoms: C_15  and  C_30
    9  A    between atoms: C_18  and  N_35
   10  A    between atoms: C_46  and  N_51
   11  A    between atoms: C_54  and  C_56
                            x       y       z     vdW  Elec       q    Type
                         _______ _______ _______ _____ _____    ______ ____

>  <TORSDO>
F 11

$$$$
=
 OpenBabel11042419083D

 57 64  0  0  1  0  0  0  0  0999 V2000
  193.1370  176.7380  143.6790 C   0  0  2  0  0  3  0  0  0  0  0  0
  194.4760  175.9960  143.5130 C   0  0  0  0  0  0  0  0  0  0  0  0
  192.7900  177.0180  145.0260 O   0  0  0  0  0  0  0  0  0  0  0  0
  194.8560  176.2990  145.9300 C   0  0  0  0  0  2  0  0  0  0  0  0
  195.2470  175.7460  144.5920 C   0  0  0  0  0  0  0  0  0  0  0  0
  193.9160  177.4730  145.7240 C   0  0  0  0  0  2  0  0  0  0  0  0
  190.7380  178.0850  142.8760 O   0  0  0  0  0  0  0  0  0  0  0  0
  188.8820  174.8440  142.2400 C   0  0  1  0  0  0  0  0  0  0  0  0
  188.6760  175.7560  141.2250 C   0  0  2  0  0  3  0  0  0  0  0  0
  190.7100  176.8260  142.8270 C   0  0  0  0  0  0  0  0  0  0  0  0
  187.9300  174.6590  143.2300 F   0  0  0  0  0  0  0  0  0  0  0  0
  191.9410  175.9860  143.0630 C   0  0  2  0  0  3  0  0  0  0  0  0
  189.9610  173.7850  142.0580 C   0  0  0  0  0  2  0  0  0  0  0  0
  190.8310  173.6910  143.2870 C   0  0  0  0  0  3  0  0  0  0  0  0
  189.5430  176.1670  142.3750 N   0  0  0  0  0  0  0  0  0  0  0  0
  191.6770  174.6470  143.7220 C   0  0  0  0  0  3  0  0  0  0  0  0
  187.3450  176.4830  141.3090 C   0  0  0  0  0  2  0  0  0  0  0  0
  186.8870  176.4670  142.6910 N   0  0  0  0  0  2  0  0  0  0  0  0
  185.1370  177.9900  142.3890 O   0  0  0  0  0  0  0  0  0  0  0  0
  185.9380  177.4170  143.1810 C   0  0  0  0  0  0  0  0  0  0  0  0
  187.4250  178.1990  146.6070 C   0  0  1  0  0  3  0  0  0  0  0  0
  187.3730  177.8470  145.1240 C   0  0  0  0  0  2  0  0  0  0  0  0
  184.4930  178.3540  147.1690 O   0  0  0  0  0  1  0  0  0  0  0  0
  185.1150  176.7950  145.4470 C   0  0  0  0  0  2  0  0  0  0  0  0
  185.1520  177.1440  146.9360 C   0  0  1  0  0  3  0  0  0  0  0  0
  185.9340  177.7930  144.6240 C   0  0  2  0  0  3  0  0  0  0  0  0
  186.5940  177.2190  147.4430 C   0  0  0  0  0  2  0  0  0  0  0  0
  188.8720  178.3060  147.1000 C   0  0  0  0  0  2  0  0  0  0  0  0
  189.6360  174.5350  146.7270 C   0  0  0  0  0  2  0  0  0  0  0  0
  189.6280  177.0120  147.0900 C   0  0  0  0  0  0  0  0  0  0  0  0
  189.2540  175.8980  146.1410 C   0  0  0  0  0  2  0  0  0  0  0  0
  190.7460  176.9120  147.8160 C   0  0  0  0  0  3  0  0  0  0  0  0
  191.5380  175.6670  147.8150 C   0  0  0  0  0  3  0  0  0  0  0  0
  191.0400  174.5550  147.2700 C   0  0  0  0  0  3  0  0  0  0  0  0
  196.8030  173.7160  144.7130 C   0  0  0  0  0  0  0  0  0  0  0  0
  197.9410  173.4250  145.1680 O   0  0  0  0  0  0  0  0  0  0  0  0
  196.5150  175.0920  144.4290 N   0  0  0  0  0  2  0  0  0  0  0  0
  194.7320  172.4330  145.2730 C   0  0  0  0  0  3  0  0  0  0  0  0
  193.9630  170.6740  143.8940 C   0  0  0  0  0  3  0  0  0  0  0  0
  195.9460  171.8180  143.2980 C   0  0  0  0  0  0  0  0  0  0  0  0
  193.8240  171.4600  144.9920 N   0  0  0  0  0  0  0  0  0  0  0  0
  196.9880  171.9570  142.4400 F   0  0  0  0  0  0  0  0  0  0  0  0
  195.0160  170.8550  143.0590 N   0  0  0  0  0  0  0  0  0  0  0  0
  195.8320  172.6360  144.4330 C   0  0  0  0  0  0  0  0  0  0  0  0
  195.0540  175.7590  142.1770 C   0  0  0  0  0  3  0  0  0  0  0  0
  194.8740  174.6530  141.5350 N   0  0  0  0  0  0  0  0  0  0  0  0
  197.3650  173.5490  136.0770 C   0  0  0  0  0  0  0  0  0  0  0  0
  196.6430  174.8330  138.4240 C   0  0  0  0  0  0  0  0  0  0  0  0
  195.0830  173.0530  139.2710 S   0  0  0  0  0  0  0  0  0  0  0  0
  196.1110  173.6070  138.0660 C   0  0  0  0  0  0  0  0  0  0  0  0
  195.3780  174.4410  140.2170 C   0  0  0  0  0  0  0  0  0  0  0  0
  196.4670  172.9630  136.9250 N   0  0  0  0  0  0  0  0  0  0  0  0
  197.9370  174.7950  136.4000 C   0  0  0  0  0  3  0  0  0  0  0  0
  197.5710  175.4500  137.5900 C   0  0  0  0  0  3  0  0  0  0  0  0
  196.2410  175.3070  139.6290 N   0  0  0  0  0  0  0  0  0  0  0  0
  196.9930  171.6230  134.6790 N   0  0  0  0  0  1  0  0  0  0  0  0
  197.7900  172.8280  134.8410 C   0  0  0  0  0  2  0  0  0  0  0  0
  1  2  1  1  0  0  0
  1  3  1  0  0  0  0
  2  5  2  0  0  0  0
  3  6  1  0  0  0  0
  5  4  1  0  0  0  0
  6  4  1  0  0  0  0
  8 15  1  0  0  0  0
  8 11  1  1  0  0  0
  9 17  1  1  0  0  0
  9  8  1  0  0  0  0
  9 15  1  0  0  0  0
 10  7  2  0  0  0  0
 10 12  1  0  0  0  0
 12  1  1  0  0  0  0
 12 16  1  1  0  0  0
 13  8  1  0  0  0  0
 13 14  1  0  0  0  0
 14 16  2  0  0  0  0
 15 10  1  0  0  0  0
 17 18  1  0  0  0  0
 18 20  1  0  0  0  0
 19 20  2  0  0  0  0
 21 28  1  1  0  0  0
 21 27  1  0  0  0  0
 22 21  1  0  0  0  0
 24 25  1  0  0  0  0
 25 23  1  6  0  0  0
 25 27  1  0  0  0  0
 26 20  1  6  0  0  0
 26 22  1  0  0  0  0
 26 24  1  0  0  0  0
 29 34  1  0  0  0  0
 30 28  1  0  0  0  0
 30 32  2  0  0  0  0
 31 29  1  0  0  0  0
 31 30  1  0  0  0  0
 33 32  1  0  0  0  0
 34 33  2  0  0  0  0
 35 36  2  0  0  0  0
 37  5  1  0  0  0  0
 37 35  1  0  0  0  0
 39 41  2  0  0  0  0
 40 44  1  0  0  0  0
 41 38  1  0  0  0  0
 42 40  1  0  0  0  0
 43 40  2  0  0  0  0
 43 39  1  0  0  0  0
 44 35  1  0  0  0  0
 44 38  2  0  0  0  0
 45  2  1  0  0  0  0
 46 45  2  0  0  0  0
 47 53  2  0  0  0  0
 47 52  1  0  0  0  0
 48 55  1  0  0  0  0
 49 51  1  0  0  0  0
 50 48  1  0  0  0  0
 50 49  1  0  0  0  0
 51 46  1  0  0  0  0
 52 50  2  0  0  0  0
 53 54  1  0  0  0  0
 54 48  2  0  0  0  0
 55 51  2  0  0  0  0
 56 57  1  0  0  0  0
 57 47  1  0  0  0  0
M  END
>  <MODEL>
7

>  <REMARK>
 VINA RESULT:      -7.6      3.295      9.569
  Name = 
  11 active torsions:
  status: ('A' for Active; 'I' for Inactive)
    1  A    between atoms: C_2  and  N_19
    2  A    between atoms: C_2  and  C_24
    3  A    between atoms: C_3  and  C_8
    4  A    between atoms: C_4  and  C_9
    5  A    between atoms: C_5  and  C_49
    6  A    between atoms: C_9  and  C_20
    7  A    between atoms: C_14  and  C_41
    8  A    between atoms: C_15  and  C_30
    9  A    between atoms: C_18  and  N_35
   10  A    between atoms: C_46  and  N_51
   11  A    between atoms: C_54  and  C_56
                            x       y       z     vdW  Elec       q    Type
                         _______ _______ _______ _____ _____    ______ ____

>  <TORSDO>
F 11

$$$$
=
 OpenBabel11042419083D

 57 64  0  0  1  0  0  0  0  0999 V2000
  192.6510  173.9550  143.7330 C   0  0  2  0  0  3  0  0  0  0  0  0
  193.8110  173.0310  143.3190 C   0  0  0  0  0  0  0  0  0  0  0  0
  192.3060  173.8780  145.1070 O   0  0  0  0  0  0  0  0  0  0  0  0
  194.1280  172.4900  145.7040 C   0  0  0  0  0  2  0  0  0  0  0  0
  194.4590  172.3030  144.2540 C   0  0  0  0  0  0  0  0  0  0  0  0
  193.4670  173.8440  145.8890 C   0  0  0  0  0  2  0  0  0  0  0  0
  191.2320  176.0710  142.4180 O   0  0  0  0  0  0  0  0  0  0  0  0
  188.2680  173.8560  141.6020 C   0  0  1  0  0  0  0  0  0  0  0  0
  188.6370  174.6320  140.5220 C   0  0  2  0  0  3  0  0  0  0  0  0
  190.6650  174.9450  142.4280 C   0  0  0  0  0  0  0  0  0  0  0  0
  187.1940  174.2180  142.3990 F   0  0  0  0  0  0  0  0  0  0  0  0
  191.3550  173.7030  142.9370 C   0  0  2  0  0  3  0  0  0  0  0  0
  188.7900  172.4290  141.6830 C   0  0  0  0  0  2  0  0  0  0  0  0
  189.3360  172.1370  143.0600 C   0  0  0  0  0  3  0  0  0  0  0  0
  189.4110  174.7850  141.7940 N   0  0  0  0  0  0  0  0  0  0  0  0
  190.4370  172.6960  143.6000 C   0  0  0  0  0  3  0  0  0  0  0  0
  187.7600  175.8560  140.3120 C   0  0  0  0  0  2  0  0  0  0  0  0
  187.0690  176.1570  141.5570 N   0  0  0  0  0  2  0  0  0  0  0  0
  185.7930  177.9240  140.7090 O   0  0  0  0  0  0  0  0  0  0  0  0
  186.2860  177.3430  141.7160 C   0  0  0  0  0  0  0  0  0  0  0  0
  186.2830  177.4620  145.5300 C   0  0  1  0  0  3  0  0  0  0  0  0
  186.4780  176.9070  144.1230 C   0  0  0  0  0  2  0  0  0  0  0  0
  185.2020  180.1620  144.8370 O   0  0  0  0  0  1  0  0  0  0  0  0
  184.6650  178.4210  143.2680 C   0  0  0  0  0  2  0  0  0  0  0  0
  184.4600  178.9890  144.6730 C   0  0  1  0  0  3  0  0  0  0  0  0
  186.1060  177.9430  143.0690 C   0  0  2  0  0  3  0  0  0  0  0  0
  184.8490  177.9620  145.7390 C   0  0  0  0  0  2  0  0  0  0  0  0
  186.7060  176.4410  146.5910 C   0  0  0  0  0  2  0  0  0  0  0  0
  190.1510  175.0080  147.6050 C   0  0  0  0  0  2  0  0  0  0  0  0
  188.1880  176.3320  146.7910 C   0  0  0  0  0  0  0  0  0  0  0  0
  188.8830  174.9930  146.7430 C   0  0  0  0  0  2  0  0  0  0  0  0
  188.9160  177.4520  146.8470 C   0  0  0  0  0  3  0  0  0  0  0  0
  190.3810  177.3920  147.0140 C   0  0  0  0  0  3  0  0  0  0  0  0
  190.9740  176.2390  147.3320 C   0  0  0  0  0  3  0  0  0  0  0  0
  195.5040  170.0930  143.4910 C   0  0  0  0  0  0  0  0  0  0  0  0
  196.4580  169.3380  143.8170 O   0  0  0  0  0  0  0  0  0  0  0  0
  195.5680  171.4750  143.8720 N   0  0  0  0  0  2  0  0  0  0  0  0
  194.5700  169.2560  141.3280 C   0  0  0  0  0  3  0  0  0  0  0  0
  192.3470  168.4710  141.1690 C   0  0  0  0  0  3  0  0  0  0  0  0
  193.1380  169.2660  143.2520 C   0  0  0  0  0  0  0  0  0  0  0  0
  193.5510  168.7270  140.5990 N   0  0  0  0  0  0  0  0  0  0  0  0
  192.8910  169.5280  144.5600 F   0  0  0  0  0  0  0  0  0  0  0  0
  192.1470  168.7410  142.4830 N   0  0  0  0  0  0  0  0  0  0  0  0
  194.3890  169.5510  142.6830 C   0  0  0  0  0  0  0  0  0  0  0  0
  194.3900  173.0960  141.9650 C   0  0  0  0  0  3  0  0  0  0  0  0
  195.4030  173.8470  141.6840 N   0  0  0  0  0  0  0  0  0  0  0  0
  197.5980  173.8500  135.9920 C   0  0  0  0  0  0  0  0  0  0  0  0
  196.9010  173.0080  138.5390 C   0  0  0  0  0  0  0  0  0  0  0  0
  196.1230  175.2420  139.3900 S   0  0  0  0  0  0  0  0  0  0  0  0
  196.7870  174.3300  138.1480 C   0  0  0  0  0  0  0  0  0  0  0  0
  196.0070  173.8670  140.3920 C   0  0  0  0  0  0  0  0  0  0  0  0
  197.1140  174.7520  136.8980 N   0  0  0  0  0  0  0  0  0  0  0  0
  197.7280  172.4920  136.3430 C   0  0  0  0  0  3  0  0  0  0  0  0
  197.3760  172.0620  137.6350 C   0  0  0  0  0  3  0  0  0  0  0  0
  196.4630  172.7380  139.7930 N   0  0  0  0  0  0  0  0  0  0  0  0
  197.7700  175.7430  134.5130 N   0  0  0  0  0  1  0  0  0  0  0  0
  197.9220  174.3000  134.6060 C   0  0  0  0  0  2  0  0  0  0  0  0
  1  2  1  6  0  0  0
  1  3  1  0  0  0  0
  2  5  2  0  0  0  0
  3  6  1  0  0  0  0
  4  6  1  0  0  0  0
  5  4  1  0  0  0  0
  7 10  2  0  0  0  0
  8 13  1  0  0  0  0
  8 15  1  0  0  0  0
  8 11  1  1  0  0  0
  9 17  1  1  0  0  0
  9  8  1  0  0  0  0
  9 15  1  0  0  0  0
 10 12  1  0  0  0  0
 12 16  1  1  0  0  0
 12  1  1  0  0  0  0
 13 14  1  0  0  0  0
 14 16  2  0  0  0  0
 15 10  1  0  0  0  0
 17 18  1  0  0  0  0
 18 20  1  0  0  0  0
 19 20  2  0  0  0  0
 21 27  1  0  0  0  0
 21 28  1  1  0  0  0
 22 21  1  0  0  0  0
 24 25  1  0  0  0  0
 25 23  1  6  0  0  0
 25 27  1  0  0  0  0
 26 20  1  6  0  0  0
 26 24  1  0  0  0  0
 26 22  1  0  0  0  0
 28 30  1  0  0  0  0
 30 32  2  0  0  0  0
 31 30  1  0  0  0  0
 31 29  1  0  0  0  0
 32 33  1  0  0  0  0
 33 34  2  0  0  0  0
 34 29  1  0  0  0  0
 35 36  2  0  0  0  0
 35 37  1  0  0  0  0
 37  5  1  0  0  0  0
 38 44  1  0  0  0  0
 39 43  2  0  0  0  0
 40 42  1  0  0  0  0
 41 39  1  0  0  0  0
 41 38  2  0  0  0  0
 43 40  1  0  0  0  0
 44 40  2  0  0  0  0
 44 35  1  0  0  0  0
 45  2  1  0  0  0  0
 46 45  2  0  0  0  0
 47 53  2  0  0  0  0
 47 52  1  0  0  0  0
 48 55  1  0  0  0  0
 49 51  1  0  0  0  0
 50 48  1  0  0  0  0
 50 49  1  0  0  0  0
 51 46  1  0  0  0  0
 52 50  2  0  0  0  0
 53 54  1  0  0  0  0
 54 48  2  0  0  0  0
 55 51  2  0  0  0  0
 56 57  1  0  0  0  0
 57 47  1  0  0  0  0
M  END
>  <MODEL>
8

>  <REMARK>
 VINA RESULT:      -7.5      3.265      9.915
  Name = 
  11 active torsions:
  status: ('A' for Active; 'I' for Inactive)
    1  A    between atoms: C_2  and  N_19
    2  A    between atoms: C_2  and  C_24
    3  A    between atoms: C_3  and  C_8
    4  A    between atoms: C_4  and  C_9
    5  A    between atoms: C_5  and  C_49
    6  A    between atoms: C_9  and  C_20
    7  A    between atoms: C_14  and  C_41
    8  A    between atoms: C_15  and  C_30
    9  A    between atoms: C_18  and  N_35
   10  A    between atoms: C_46  and  N_51
   11  A    between atoms: C_54  and  C_56
                            x       y       z     vdW  Elec       q    Type
                         _______ _______ _______ _____ _____    ______ ____

>  <TORSDO>
F 11

$$$$
=
 OpenBabel11042419083D

 57 64  0  0  1  0  0  0  0  0999 V2000
  194.4880  171.4040  144.2970 C   0  0  2  0  0  3  0  0  0  0  0  0
  194.0180  171.1950  142.8460 C   0  0  0  0  0  0  0  0  0  0  0  0
  193.7810  170.6340  145.2560 O   0  0  0  0  0  0  0  0  0  0  0  0
  192.5700  169.3730  143.6600 C   0  0  0  0  0  2  0  0  0  0  0  0
  193.0710  170.2730  142.5710 C   0  0  0  0  0  0  0  0  0  0  0  0
  193.5970  169.3300  144.7770 C   0  0  0  0  0  2  0  0  0  0  0  0
  192.1400  172.9980  143.8890 O   0  0  0  0  0  0  0  0  0  0  0  0
  193.8540  176.1850  145.0100 C   0  0  1  0  0  0  0  0  0  0  0  0
  192.5950  176.0640  145.5610 C   0  0  2  0  0  3  0  0  0  0  0  0
  193.1480  173.6020  144.3440 C   0  0  0  0  0  0  0  0  0  0  0  0
  194.0700  177.0000  143.9100 F   0  0  0  0  0  0  0  0  0  0  0  0
  194.4020  172.8720  144.7610 C   0  0  2  0  0  3  0  0  0  0  0  0
  195.0540  175.7360  145.8330 C   0  0  0  0  0  2  0  0  0  0  0  0
  195.9760  174.8740  145.0060 C   0  0  0  0  0  3  0  0  0  0  0  0
  193.0660  174.9840  144.6370 N   0  0  0  0  0  0  0  0  0  0  0  0
  195.6870  173.6430  144.5380 C   0  0  0  0  0  3  0  0  0  0  0  0
  191.5330  176.8990  144.8650 C   0  0  0  0  0  2  0  0  0  0  0  0
  190.2210  176.4610  145.3190 N   0  0  0  0  0  2  0  0  0  0  0  0
  189.0490  177.1980  143.4330 O   0  0  0  0  0  0  0  0  0  0  0  0
  189.0210  176.8580  144.6500 C   0  0  0  0  0  0  0  0  0  0  0  0
  185.4040  177.8740  145.3170 C   0  0  1  0  0  3  0  0  0  0  0  0
  186.7290  177.7310  144.5750 C   0  0  0  0  0  2  0  0  0  0  0  0
  186.1250  176.4860  147.8650 O   0  0  0  0  0  1  0  0  0  0  0  0
  187.9490  177.6050  146.7680 C   0  0  0  0  0  2  0  0  0  0  0  0
  186.6270  177.7450  147.5250 C   0  0  1  0  0  3  0  0  0  0  0  0
  187.7380  176.9430  145.4040 C   0  0  2  0  0  3  0  0  0  0  0  0
  185.6010  178.5180  146.6940 C   0  0  0  0  0  2  0  0  0  0  0  0
  184.3720  178.6190  144.4650 C   0  0  0  0  0  2  0  0  0  0  0  0
  185.7380  177.8010  140.9420 C   0  0  0  0  0  2  0  0  0  0  0  0
  184.4030  178.2710  143.0070 C   0  0  0  0  0  0  0  0  0  0  0  0
  185.5370  177.4630  142.4230 C   0  0  0  0  0  2  0  0  0  0  0  0
  183.3300  178.5410  142.2560 C   0  0  0  0  0  3  0  0  0  0  0  0
  183.3050  178.1900  140.8230 C   0  0  0  0  0  3  0  0  0  0  0  0
  184.4250  177.8040  140.2060 C   0  0  0  0  0  3  0  0  0  0  0  0
  191.3760  170.3360  140.6520 C   0  0  0  0  0  0  0  0  0  0  0  0
  190.9220  169.5630  139.7680 O   0  0  0  0  0  0  0  0  0  0  0  0
  192.6650  170.0490  141.2120 N   0  0  0  0  0  2  0  0  0  0  0  0
  189.6600  171.4730  142.0720 C   0  0  0  0  0  3  0  0  0  0  0  0
  189.1930  173.7770  141.8300 C   0  0  0  0  0  3  0  0  0  0  0  0
  190.8160  172.7810  140.4280 C   0  0  0  0  0  0  0  0  0  0  0  0
  188.9750  172.5860  142.4450 N   0  0  0  0  0  0  0  0  0  0  0  0
  191.7130  172.9160  139.4180 F   0  0  0  0  0  0  0  0  0  0  0  0
  190.1060  173.8670  140.8320 N   0  0  0  0  0  0  0  0  0  0  0  0
  190.6010  171.5360  141.0390 C   0  0  0  0  0  0  0  0  0  0  0  0
  194.7410  171.8060  141.7160 C   0  0  0  0  0  3  0  0  0  0  0  0
  194.2960  172.8490  141.0970 N   0  0  0  0  0  0  0  0  0  0  0  0
  197.1580  175.3340  136.3160 C   0  0  0  0  0  0  0  0  0  0  0  0
  196.5700  173.6670  138.4500 C   0  0  0  0  0  0  0  0  0  0  0  0
  194.5520  174.9260  139.2660 S   0  0  0  0  0  0  0  0  0  0  0  0
  195.8280  174.8030  138.1820 C   0  0  0  0  0  0  0  0  0  0  0  0
  195.0220  173.4820  140.0440 C   0  0  0  0  0  0  0  0  0  0  0  0
  196.0990  175.6200  137.1310 N   0  0  0  0  0  0  0  0  0  0  0  0
  197.9410  174.1860  136.5470 C   0  0  0  0  0  3  0  0  0  0  0  0
  197.6460  173.3390  137.6310 C   0  0  0  0  0  3  0  0  0  0  0  0
  196.1250  172.9180  139.4890 N   0  0  0  0  0  0  0  0  0  0  0  0
  196.4150  177.2350  135.0380 N   0  0  0  0  0  1  0  0  0  0  0  0
  197.4370  176.2060  135.1380 C   0  0  0  0  0  2  0  0  0  0  0  0
  1  2  1  6  0  0  0
  1 12  1  0  0  0  0
  1  3  1  0  0  0  0
  4  6  1  0  0  0  0
  5  2  2  0  0  0  0
  5  4  1  0  0  0  0
  6  3  1  0  0  0  0
  7 10  2  0  0  0  0
  8 11  1  6  0  0  0
  8  9  1  0  0  0  0
  8 13  1  0  0  0  0
  9 17  1  6  0  0  0
 10 15  1  0  0  0  0
 10 12  1  0  0  0  0
 12 16  1  6  0  0  0
 14 13  1  0  0  0  0
 15  8  1  0  0  0  0
 15  9  1  0  0  0  0
 16 14  2  0  0  0  0
 17 18  1  0  0  0  0
 19 20  2  0  0  0  0
 20 18  1  0  0  0  0
 21 28  1  6  0  0  0
 21 27  1  0  0  0  0
 22 21  1  0  0  0  0
 22 26  1  0  0  0  0
 24 25  1  0  0  0  0
 25 23  1  6  0  0  0
 26 20  1  6  0  0  0
 26 24  1  0  0  0  0
 27 25  1  0  0  0  0
 29 31  1  0  0  0  0
 30 28  1  0  0  0  0
 31 30  1  0  0  0  0
 32 30  2  0  0  0  0
 33 32  1  0  0  0  0
 34 33  2  0  0  0  0
 34 29  1  0  0  0  0
 35 44  1  0  0  0  0
 35 37  1  0  0  0  0
 36 35  2  0  0  0  0
 37  5  1  0  0  0  0
 38 41  1  0  0  0  0
 39 41  2  0  0  0  0
 40 43  2  0  0  0  0
 40 44  1  0  0  0  0
 42 40  1  0  0  0  0
 43 39  1  0  0  0  0
 44 38  2  0  0  0  0
 45  2  1  0  0  0  0
 46 45  2  0  0  0  0
 47 53  2  0  0  0  0
 47 52  1  0  0  0  0
 48 55  1  0  0  0  0
 49 51  1  0  0  0  0
 50 48  1  0  0  0  0
 50 49  1  0  0  0  0
 51 46  1  0  0  0  0
 52 50  2  0  0  0  0
 53 54  1  0  0  0  0
 54 48  2  0  0  0  0
 55 51  2  0  0  0  0
 56 57  1  0  0  0  0
 57 47  1  0  0  0  0
M  END
>  <MODEL>
9

>  <REMARK>
 VINA RESULT:      -7.4      3.134      8.666
  Name = 
  11 active torsions:
  status: ('A' for Active; 'I' for Inactive)
    1  A    between atoms: C_2  and  N_19
    2  A    between atoms: C_2  and  C_24
    3  A    between atoms: C_3  and  C_8
    4  A    between atoms: C_4  and  C_9
    5  A    between atoms: C_5  and  C_49
    6  A    between atoms: C_9  and  C_20
    7  A    between atoms: C_14  and  C_41
    8  A    between atoms: C_15  and  C_30
    9  A    between atoms: C_18  and  N_35
   10  A    between atoms: C_46  and  N_51
   11  A    between atoms: C_54  and  C_56
                            x       y       z     vdW  Elec       q    Type
                         _______ _______ _______ _____ _____    ______ ____

>  <TORSDO>
F 11

$$$$
