=
 OpenBabel11042414413D

 28 32  0  0  1  0  0  0  0  0999 V2000
  190.2050  177.8850  143.6990 C   0  0  0  0  0  2  0  0  0  0  0  0
  194.0120  175.8600  145.8040 N   0  0  0  0  0  2  0  0  0  0  0  0
  190.6670  173.4590  139.4320 C   0  0  0  0  0  3  0  0  0  0  0  0
  190.7610  176.5800  144.3030 C   0  0  2  0  0  3  0  0  0  0  0  0
  192.7490  175.7950  145.1370 C   0  0  0  0  0  0  0  0  0  0  0  0
  189.9140  174.7530  142.8600 N   0  0  0  0  0  2  0  0  0  0  0  0
  187.2720  176.9520  141.3390 S   0  0  0  0  0  0  0  0  0  0  0  0
  187.2830  175.1090  141.4840 C   0  0  0  0  0  2  0  0  0  0  0  0
  192.3540  174.4260  144.0440 S   0  0  0  0  0  0  0  0  0  0  0  0
  188.8370  177.6530  143.2330 N   0  0  0  0  0  0  0  0  0  0  0  0
  189.7290  174.3230  141.4960 C   0  0  0  0  0  0  0  0  0  0  0  0
  188.8420  176.9900  142.0390 O   0  0  0  0  0  0  0  0  0  0  0  0
  189.4150  173.5940  138.8200 C   0  0  0  0  0  3  0  0  0  0  0  0
  188.3630  174.0770  139.5300 N   0  0  0  0  0  0  0  0  0  0  0  0
  188.4870  174.4760  140.8280 C   0  0  0  0  0  0  0  0  0  0  0  0
  190.8150  173.8240  140.7710 C   0  0  0  0  0  3  0  0  0  0  0  0
  191.9520  176.8140  145.0910 N   0  0  0  0  0  0  0  0  0  0  0  0
  191.1060  175.5060  143.2590 C   0  0  2  0  0  3  0  0  0  0  0  0
  186.8740  178.2080  144.5380 C   0  0  0  0  0  3  0  0  0  0  0  0
  186.0420  176.7060  146.3780 O   0  0  0  0  0  0  0  0  0  0  0  0
  184.6490  178.6170  145.7090 C   0  0  0  0  0  2  0  0  0  0  0  0
  186.0120  177.9750  145.7460 C   0  0  0  0  0  0  0  0  0  0  0  0
  187.3950  176.4000  146.5910 C   0  0  0  0  0  2  0  0  0  0  0  0
  188.0900  176.1790  145.2260 C   0  0  0  0  0  2  0  0  0  0  0  0
  187.8930  177.3650  144.3000 C   0  0  0  0  0  0  0  0  0  0  0  0
  185.7250  179.1590  146.6640 C   0  0  0  0  0  2  0  0  0  0  0  0
  194.4360  177.0000  146.5610 C   0  0  0  0  0  3  0  0  0  0  0  0
  195.0690  177.9930  145.9510 C   0  0  0  0  0  2  0  0  0  0  0  0
  2 27  1  0  0  0  0
  3 16  1  0  0  0  0
  4  1  1  6  0  0  0
  4 17  1  0  0  0  0
  5  2  1  0  0  0  0
  7  8  1  0  0  0  0
  7 12  1  0  0  0  0
  9  5  1  0  0  0  0
 10  1  1  0  0  0  0
 10 25  1  0  0  0  0
 11  6  1  0  0  0  0
 12 10  1  0  0  0  0
 13  3  2  0  0  0  0
 13 14  1  0  0  0  0
 14 15  2  0  0  0  0
 15  8  1  0  0  0  0
 15 11  1  0  0  0  0
 16 11  2  0  0  0  0
 17  5  2  0  0  0  0
 18  6  1  1  0  0  0
 18  9  1  0  0  0  0
 18  4  1  0  0  0  0
 19 22  1  0  0  0  0
 20 23  1  0  0  0  0
 21 22  1  0  0  0  0
 21 26  1  0  0  0  0
 22 20  1  0  0  0  0
 22 26  1  0  0  0  0
 24 23  1  0  0  0  0
 25 19  2  0  0  0  0
 25 24  1  0  0  0  0
 28 27  2  0  0  0  0
M  END
>  <MODEL>
1

>  <REMARK>
 VINA RESULT:      -7.4      0.000      0.000
  Name = 
  2 active torsions:
  status: ('A' for Active; 'I' for Inactive)
    1  A    between atoms: N_2  and  C_7
    2  A    between atoms: N_16  and  C_24
                            x       y       z     vdW  Elec       q    Type
                         _______ _______ _______ _____ _____    ______ ____

>  <TORSDO>
F 2

$$$$
=
 OpenBabel11042414413D

 28 32  0  0  1  0  0  0  0  0999 V2000
  189.3010  176.5470  142.7900 C   0  0  0  0  0  2  0  0  0  0  0  0
  186.2100  177.0100  146.4300 N   0  0  0  0  0  2  0  0  0  0  0  0
  193.7710  176.8330  147.0260 C   0  0  0  0  0  3  0  0  0  0  0  0
  188.8400  175.9450  144.1320 C   0  0  2  0  0  3  0  0  0  0  0  0
  187.3850  176.4640  145.8280 C   0  0  0  0  0  0  0  0  0  0  0  0
  190.9030  175.1880  145.2750 N   0  0  0  0  0  2  0  0  0  0  0  0
  192.9080  175.3030  142.0980 S   0  0  0  0  0  0  0  0  0  0  0  0
  193.2230  174.2930  143.6150 C   0  0  0  0  0  2  0  0  0  0  0  0
  188.8290  176.0660  146.8200 S   0  0  0  0  0  0  0  0  0  0  0  0
  190.3960  175.7390  142.2510 N   0  0  0  0  0  0  0  0  0  0  0  0
  192.2510  175.5540  145.6300 C   0  0  0  0  0  0  0  0  0  0  0  0
  191.5670  176.0280  142.8920 O   0  0  0  0  0  0  0  0  0  0  0  0
  194.8470  176.3670  146.2610 C   0  0  0  0  0  3  0  0  0  0  0  0
  194.6230  175.5240  145.2190 N   0  0  0  0  0  0  0  0  0  0  0  0
  193.3670  175.1340  144.8600 C   0  0  0  0  0  0  0  0  0  0  0  0
  192.4770  176.4200  146.7060 C   0  0  0  0  0  3  0  0  0  0  0  0
  187.5540  176.4640  144.5450 N   0  0  0  0  0  0  0  0  0  0  0  0
  189.8230  176.1770  145.2910 C   0  0  2  0  0  3  0  0  0  0  0  0
  189.8160  174.0800  140.5850 C   0  0  0  0  0  3  0  0  0  0  0  0
  189.2860  171.7010  141.2160 O   0  0  0  0  0  0  0  0  0  0  0  0
  189.5080  172.2570  138.8320 C   0  0  0  0  0  2  0  0  0  0  0  0
  189.2540  172.7300  140.2400 C   0  0  0  0  0  0  0  0  0  0  0  0
  188.7440  172.2490  142.3890 C   0  0  0  0  0  2  0  0  0  0  0  0
  189.6970  173.3410  142.9320 C   0  0  0  0  0  2  0  0  0  0  0  0
  190.0030  174.3900  141.8790 C   0  0  0  0  0  0  0  0  0  0  0  0
  188.0880  172.6650  139.2580 C   0  0  0  0  0  2  0  0  0  0  0  0
  185.0930  177.4860  145.6690 C   0  0  0  0  0  3  0  0  0  0  0  0
  184.2560  178.3600  146.2120 C   0  0  0  0  0  2  0  0  0  0  0  0
  4  1  1  6  0  0  0
  4 17  1  0  0  0  0
  4 18  1  0  0  0  0
  5  2  1  0  0  0  0
  5  9  1  0  0  0  0
  6 11  1  0  0  0  0
  7 12  1  0  0  0  0
  7  8  1  0  0  0  0
  8 15  1  0  0  0  0
 10  1  1  0  0  0  0
 10 12  1  0  0  0  0
 11 16  2  0  0  0  0
 13  3  2  0  0  0  0
 14 13  1  0  0  0  0
 15 14  2  0  0  0  0
 15 11  1  0  0  0  0
 16  3  1  0  0  0  0
 17  5  2  0  0  0  0
 18  6  1  1  0  0  0
 18  9  1  0  0  0  0
 19 25  2  0  0  0  0
 20 23  1  0  0  0  0
 21 26  1  0  0  0  0
 21 22  1  0  0  0  0
 22 19  1  0  0  0  0
 22 20  1  0  0  0  0
 23 24  1  0  0  0  0
 25 10  1  0  0  0  0
 25 24  1  0  0  0  0
 26 22  1  0  0  0  0
 27 28  2  0  0  0  0
 27  2  1  0  0  0  0
M  END
>  <MODEL>
2

>  <REMARK>
 VINA RESULT:      -7.1      2.381      6.723
  Name = 
  2 active torsions:
  status: ('A' for Active; 'I' for Inactive)
    1  A    between atoms: N_2  and  C_7
    2  A    between atoms: N_16  and  C_24
                            x       y       z     vdW  Elec       q    Type
                         _______ _______ _______ _____ _____    ______ ____

>  <TORSDO>
F 2

$$$$
=
 OpenBabel11042414413D

 28 32  0  0  1  0  0  0  0  0999 V2000
  188.9070  176.8800  142.0420 C   0  0  0  0  0  2  0  0  0  0  0  0
  184.3310  177.9730  142.9830 N   0  0  0  0  0  2  0  0  0  0  0  0
  190.0160  177.9770  148.0060 C   0  0  0  0  0  3  0  0  0  0  0  0
  187.6840  176.5290  142.9130 C   0  0  2  0  0  3  0  0  0  0  0  0
  185.5720  177.3370  143.2970 C   0  0  0  0  0  0  0  0  0  0  0  0
  188.5840  176.0140  145.1630 N   0  0  0  0  0  2  0  0  0  0  0  0
  192.0760  175.5640  143.8470 S   0  0  0  0  0  0  0  0  0  0  0  0
  191.3310  174.8510  145.3820 C   0  0  0  0  0  2  0  0  0  0  0  0
  186.1010  177.1400  145.0020 S   0  0  0  0  0  0  0  0  0  0  0  0
  190.0190  175.9970  142.3970 N   0  0  0  0  0  0  0  0  0  0  0  0
  189.4920  176.4510  146.1940 C   0  0  0  0  0  0  0  0  0  0  0  0
  190.6080  176.4100  143.5580 O   0  0  0  0  0  0  0  0  0  0  0  0
  191.2820  177.3890  148.1200 C   0  0  0  0  0  3  0  0  0  0  0  0
  191.6310  176.3680  147.2950 N   0  0  0  0  0  0  0  0  0  0  0  0
  190.7970  175.9070  146.3190 C   0  0  0  0  0  0  0  0  0  0  0  0
  189.1260  177.5010  147.0420 C   0  0  0  0  0  3  0  0  0  0  0  0
  186.4640  177.1040  142.3890 N   0  0  0  0  0  0  0  0  0  0  0  0
  187.8110  176.9790  144.3770 C   0  0  2  0  0  3  0  0  0  0  0  0
  189.9410  174.1690  140.8110 C   0  0  0  0  0  3  0  0  0  0  0  0
  189.3650  171.8240  141.5230 O   0  0  0  0  0  0  0  0  0  0  0  0
  190.1550  172.1870  139.2240 C   0  0  0  0  0  2  0  0  0  0  0  0
  189.5380  172.7620  140.4730 C   0  0  0  0  0  0  0  0  0  0  0  0
  188.5250  172.4350  142.4670 C   0  0  0  0  0  2  0  0  0  0  0  0
  189.2670  173.6270  143.1170 C   0  0  0  0  0  2  0  0  0  0  0  0
  189.7850  174.5990  142.0740 C   0  0  0  0  0  0  0  0  0  0  0  0
  188.6590  172.5410  139.2450 C   0  0  0  0  0  2  0  0  0  0  0  0
  183.9340  178.2920  141.6440 C   0  0  0  0  0  3  0  0  0  0  0  0
  182.6530  178.2320  141.3090 C   0  0  0  0  0  2  0  0  0  0  0  0
  1 10  1  0  0  0  0
  2  5  1  0  0  0  0
  3 13  1  0  0  0  0
  4  1  1  6  0  0  0
  4 18  1  0  0  0  0
  5  9  1  0  0  0  0
  6 11  1  0  0  0  0
  7  8  1  0  0  0  0
  8 15  1  0  0  0  0
 10 12  1  0  0  0  0
 11 15  2  0  0  0  0
 11 16  1  0  0  0  0
 12  7  1  0  0  0  0
 14 13  2  0  0  0  0
 15 14  1  0  0  0  0
 16  3  2  0  0  0  0
 17  4  1  0  0  0  0
 17  5  2  0  0  0  0
 18  9  1  1  0  0  0
 18  6  1  0  0  0  0
 19 25  2  0  0  0  0
 20 23  1  0  0  0  0
 21 26  1  0  0  0  0
 21 22  1  0  0  0  0
 22 19  1  0  0  0  0
 22 20  1  0  0  0  0
 23 24  1  0  0  0  0
 25 10  1  0  0  0  0
 25 24  1  0  0  0  0
 26 22  1  0  0  0  0
 27  2  1  0  0  0  0
 28 27  2  0  0  0  0
M  END
>  <MODEL>
3

>  <REMARK>
 VINA RESULT:      -7.0      2.660      7.362
  Name = 
  2 active torsions:
  status: ('A' for Active; 'I' for Inactive)
    1  A    between atoms: N_2  and  C_7
    2  A    between atoms: N_16  and  C_24
                            x       y       z     vdW  Elec       q    Type
                         _______ _______ _______ _____ _____    ______ ____

>  <TORSDO>
F 2

$$$$
=
 OpenBabel11042414413D

 28 32  0  0  1  0  0  0  0  0999 V2000
  189.5980  174.1720  144.7730 C   0  0  0  0  0  2  0  0  0  0  0  0
  185.9070  177.2310  144.5530 N   0  0  0  0  0  0  0  0  0  0  0  0
  188.1920  172.6240  138.9740 C   0  0  0  0  0  3  0  0  0  0  0  0
  188.9990  175.3670  144.0040 C   0  0  2  0  0  3  0  0  0  0  0  0
  187.0650  176.6010  144.0000 C   0  0  0  0  0  0  0  0  0  0  0  0
  189.4840  174.9400  141.6120 N   0  0  0  0  0  2  0  0  0  0  0  0
  192.1130  172.3810  142.4280 S   0  0  0  0  0  0  0  0  0  0  0  0
  191.9450  173.4010  140.8950 C   0  0  0  0  0  2  0  0  0  0  0  0
  187.1900  176.2860  142.2360 S   0  0  0  0  0  0  0  0  0  0  0  0
  190.8690  173.7920  144.1560 N   0  0  0  0  0  0  0  0  0  0  0  0
  189.4570  173.9470  140.5670 C   0  0  0  0  0  0  0  0  0  0  0  0
  190.6530  173.0720  143.0160 O   0  0  0  0  0  0  0  0  0  0  0  0
  189.3650  171.9460  138.6230 C   0  0  0  0  0  3  0  0  0  0  0  0
  190.5390  172.2650  139.2280 N   0  0  0  0  0  0  0  0  0  0  0  0
  190.6150  173.2120  140.2070 C   0  0  0  0  0  0  0  0  0  0  0  0
  188.2460  173.6250  139.9450 C   0  0  0  0  0  3  0  0  0  0  0  0
  187.9440  176.0170  144.7500 N   0  0  0  0  0  0  0  0  0  0  0  0
  188.4280  174.9990  142.6260 C   0  0  2  0  0  3  0  0  0  0  0  0
  192.7670  174.7610  145.3070 C   0  0  0  0  0  3  0  0  0  0  0  0
  193.9580  176.7910  144.4160 O   0  0  0  0  0  0  0  0  0  0  0  0
  194.9420  175.6050  146.3300 C   0  0  0  0  0  2  0  0  0  0  0  0
  193.7220  175.9040  145.4970 C   0  0  0  0  0  0  0  0  0  0  0  0
  192.6970  177.1890  143.9460 C   0  0  0  0  0  2  0  0  0  0  0  0
  191.9790  175.9730  143.3130 C   0  0  0  0  0  2  0  0  0  0  0  0
  191.9070  174.8030  144.2760 C   0  0  0  0  0  0  0  0  0  0  0  0
  193.8390  176.5200  146.8880 C   0  0  0  0  0  2  0  0  0  0  0  0
  185.6900  177.3660  145.9620 C   0  0  0  0  0  3  0  0  0  0  0  0
  184.5450  177.8690  146.4030 C   0  0  0  0  0  1  0  0  0  0  0  0
  2 27  2  0  0  0  0
  3 16  1  0  0  0  0
  4 17  1  0  0  0  0
  4  1  1  1  0  0  0
  5  2  1  0  0  0  0
  5 17  2  0  0  0  0
  7 12  1  0  0  0  0
  8  7  1  0  0  0  0
  9 18  1  0  0  0  0
  9  5  1  0  0  0  0
 10 25  1  0  0  0  0
 10  1  1  0  0  0  0
 11  6  1  0  0  0  0
 12 10  1  0  0  0  0
 13  3  2  0  0  0  0
 13 14  1  0  0  0  0
 14 15  2  0  0  0  0
 15 11  1  0  0  0  0
 15  8  1  0  0  0  0
 16 11  2  0  0  0  0
 18  6  1  6  0  0  0
 18  4  1  0  0  0  0
 19 22  1  0  0  0  0
 20 22  1  0  0  0  0
 21 26  1  0  0  0  0
 22 21  1  0  0  0  0
 22 26  1  0  0  0  0
 23 20  1  0  0  0  0
 24 23  1  0  0  0  0
 24 25  1  0  0  0  0
 25 19  2  0  0  0  0
 27 28  1  0  0  0  0
M  END
>  <MODEL>
4

>  <REMARK>
 VINA RESULT:      -6.9      2.369      5.846
  Name = 
  2 active torsions:
  status: ('A' for Active; 'I' for Inactive)
    1  A    between atoms: N_2  and  C_7
    2  A    between atoms: N_16  and  C_24
                            x       y       z     vdW  Elec       q    Type
                         _______ _______ _______ _____ _____    ______ ____

>  <TORSDO>
F 2

$$$$
=
 OpenBabel11042414413D

 28 32  0  0  1  0  0  0  0  0999 V2000
  189.0640  173.9190  143.1800 C   0  0  0  0  0  2  0  0  0  0  0  0
  190.7490  172.2080  139.0260 N   0  0  0  0  0  2  0  0  0  0  0  0
  194.9530  174.6570  144.8480 C   0  0  0  0  0  3  0  0  0  0  0  0
  189.9560  174.2300  141.9620 C   0  0  2  0  0  3  0  0  0  0  0  0
  190.7590  173.1410  140.1090 C   0  0  0  0  0  0  0  0  0  0  0  0
  191.8990  175.4830  142.8520 N   0  0  0  0  0  2  0  0  0  0  0  0
  190.1300  176.2700  146.0730 S   0  0  0  0  0  0  0  0  0  0  0  0
  191.5210  177.1910  145.2770 C   0  0  0  0  0  2  0  0  0  0  0  0
  192.2960  173.8770  140.6790 S   0  0  0  0  0  0  0  0  0  0  0  0
  189.0680  175.0690  144.0840 N   0  0  0  0  0  0  0  0  0  0  0  0
  192.8960  175.5210  143.8920 C   0  0  0  0  0  0  0  0  0  0  0  0
  190.2200  175.1000  144.8170 O   0  0  0  0  0  0  0  0  0  0  0  0
  194.7780  175.4970  145.9540 C   0  0  0  0  0  3  0  0  0  0  0  0
  193.6970  176.3170  146.0180 N   0  0  0  0  0  0  0  0  0  0  0  0
  192.7390  176.3300  145.0470 C   0  0  0  0  0  0  0  0  0  0  0  0
  194.0090  174.6760  143.8200 C   0  0  0  0  0  3  0  0  0  0  0  0
  189.7270  173.3050  140.8730 N   0  0  0  0  0  0  0  0  0  0  0  0
  191.4620  174.2120  142.2700 C   0  0  2  0  0  3  0  0  0  0  0  0
  187.1820  176.5720  143.8600 C   0  0  0  0  0  3  0  0  0  0  0  0
  187.3050  178.6430  142.4350 O   0  0  0  0  0  0  0  0  0  0  0  0
  185.3260  178.3170  143.8550 C   0  0  0  0  0  2  0  0  0  0  0  0
  186.5090  177.7100  143.1460 C   0  0  0  0  0  0  0  0  0  0  0  0
  188.1570  177.8920  141.6100 C   0  0  0  0  0  2  0  0  0  0  0  0
  189.1580  177.1060  142.4890 C   0  0  0  0  0  2  0  0  0  0  0  0
  188.4460  176.2580  143.5260 C   0  0  0  0  0  0  0  0  0  0  0  0
  185.1100  177.4790  142.5840 C   0  0  0  0  0  2  0  0  0  0  0  0
  189.5800  171.4790  138.6340 C   0  0  0  0  0  3  0  0  0  0  0  0
  189.7090  170.2670  138.1130 C   0  0  0  0  0  2  0  0  0  0  0  0
  1 10  1  0  0  0  0
  2  5  1  0  0  0  0
  3 13  1  0  0  0  0
  4 18  1  0  0  0  0
  4  1  1  1  0  0  0
  5  9  1  0  0  0  0
  5 17  2  0  0  0  0
  6 11  1  0  0  0  0
  8  7  1  0  0  0  0
 10 12  1  0  0  0  0
 11 15  2  0  0  0  0
 12  7  1  0  0  0  0
 13 14  2  0  0  0  0
 15  8  1  0  0  0  0
 15 14  1  0  0  0  0
 16 11  1  0  0  0  0
 16  3  2  0  0  0  0
 17  4  1  0  0  0  0
 18  9  1  6  0  0  0
 18  6  1  0  0  0  0
 20 22  1  0  0  0  0
 22 21  1  0  0  0  0
 22 19  1  0  0  0  0
 23 20  1  0  0  0  0
 23 24  1  0  0  0  0
 24 25  1  0  0  0  0
 25 19  2  0  0  0  0
 25 10  1  0  0  0  0
 26 22  1  0  0  0  0
 26 21  1  0  0  0  0
 27  2  1  0  0  0  0
 28 27  2  0  0  0  0
M  END
>  <MODEL>
5

>  <REMARK>
 VINA RESULT:      -6.9      2.324      5.742
  Name = 
  2 active torsions:
  status: ('A' for Active; 'I' for Inactive)
    1  A    between atoms: N_2  and  C_7
    2  A    between atoms: N_16  and  C_24
                            x       y       z     vdW  Elec       q    Type
                         _______ _______ _______ _____ _____    ______ ____

>  <TORSDO>
F 2

$$$$
=
 OpenBabel11042414413D

 28 32  0  0  1  0  0  0  0  0999 V2000
  189.6560  173.6370  144.2510 C   0  0  0  0  0  2  0  0  0  0  0  0
  190.3620  173.1150  139.5340 N   0  0  0  0  0  2  0  0  0  0  0  0
  195.7580  174.3840  144.7140 C   0  0  0  0  0  3  0  0  0  0  0  0
  190.2370  174.2990  142.9860 C   0  0  2  0  0  3  0  0  0  0  0  0
  190.6070  173.7550  140.7890 C   0  0  0  0  0  0  0  0  0  0  0  0
  192.3120  175.4400  143.7140 N   0  0  0  0  0  2  0  0  0  0  0  0
  191.3240  175.2890  147.3380 S   0  0  0  0  0  0  0  0  0  0  0  0
  192.4770  176.4770  146.5140 C   0  0  0  0  0  2  0  0  0  0  0  0
  192.2210  174.4430  141.1740 S   0  0  0  0  0  0  0  0  0  0  0  0
  189.8500  174.5300  145.3940 N   0  0  0  0  0  0  0  0  0  0  0  0
  193.5220  175.2990  144.4850 C   0  0  0  0  0  0  0  0  0  0  0  0
  191.1400  174.4690  145.8380 O   0  0  0  0  0  0  0  0  0  0  0  0
  195.8300  174.9160  146.0070 C   0  0  0  0  0  3  0  0  0  0  0  0
  194.7800  175.6130  146.5130 N   0  0  0  0  0  0  0  0  0  0  0  0
  193.6230  175.7900  145.8120 C   0  0  0  0  0  0  0  0  0  0  0  0
  194.6020  174.5820  143.9580 C   0  0  0  0  0  3  0  0  0  0  0  0
  189.7770  173.6520  141.7770 N   0  0  0  0  0  0  0  0  0  0  0  0
  191.7730  174.3190  142.9410 C   0  0  2  0  0  3  0  0  0  0  0  0
  188.0130  175.9510  146.0800 C   0  0  0  0  0  3  0  0  0  0  0  0
  187.6930  178.2550  145.1210 O   0  0  0  0  0  0  0  0  0  0  0  0
  186.2780  177.5690  147.0090 C   0  0  0  0  0  2  0  0  0  0  0  0
  187.1590  177.1660  145.8550 C   0  0  0  0  0  0  0  0  0  0  0  0
  188.2220  177.7160  143.9370 C   0  0  0  0  0  2  0  0  0  0  0  0
  189.4440  176.8310  144.2790 C   0  0  0  0  0  2  0  0  0  0  0  0
  189.0960  175.7700  145.3060 C   0  0  0  0  0  0  0  0  0  0  0  0
  185.6500  176.9730  145.7380 C   0  0  0  0  0  2  0  0  0  0  0  0
  189.1470  172.4180  139.2380 C   0  0  0  0  0  3  0  0  0  0  0  0
  188.1910  173.0300  138.5530 C   0  0  0  0  0  2  0  0  0  0  0  0
  1 10  1  0  0  0  0
  2  5  1  0  0  0  0
  3 13  1  0  0  0  0
  4  1  1  1  0  0  0
  5  9  1  0  0  0  0
  5 17  2  0  0  0  0
  6 11  1  0  0  0  0
  8  7  1  0  0  0  0
 10 12  1  0  0  0  0
 11 15  2  0  0  0  0
 12  7  1  0  0  0  0
 13 14  2  0  0  0  0
 15 14  1  0  0  0  0
 15  8  1  0  0  0  0
 16 11  1  0  0  0  0
 16  3  2  0  0  0  0
 17  4  1  0  0  0  0
 18  9  1  6  0  0  0
 18  4  1  0  0  0  0
 18  6  1  0  0  0  0
 20 22  1  0  0  0  0
 22 19  1  0  0  0  0
 22 21  1  0  0  0  0
 23 24  1  0  0  0  0
 23 20  1  0  0  0  0
 24 25  1  0  0  0  0
 25 10  1  0  0  0  0
 25 19  2  0  0  0  0
 26 22  1  0  0  0  0
 26 21  1  0  0  0  0
 27  2  1  0  0  0  0
 28 27  2  0  0  0  0
M  END
>  <MODEL>
6

>  <REMARK>
 VINA RESULT:      -6.9      2.210      5.753
  Name = 
  2 active torsions:
  status: ('A' for Active; 'I' for Inactive)
    1  A    between atoms: N_2  and  C_7
    2  A    between atoms: N_16  and  C_24
                            x       y       z     vdW  Elec       q    Type
                         _______ _______ _______ _____ _____    ______ ____

>  <TORSDO>
F 2

$$$$
=
 OpenBabel11042414413D

 28 32  0  0  1  0  0  0  0  0999 V2000
  189.4520  178.2650  144.4080 C   0  0  0  0  0  2  0  0  0  0  0  0
  191.2170  176.6460  148.5660 N   0  0  0  0  0  2  0  0  0  0  0  0
  190.4500  172.5980  142.1950 C   0  0  0  0  0  3  0  0  0  0  0  0
  189.2960  177.1980  145.5100 C   0  0  2  0  0  3  0  0  0  0  0  0
  190.4100  176.5110  147.3940 C   0  0  0  0  0  0  0  0  0  0  0  0
  188.6820  175.1030  144.3380 N   0  0  0  0  0  2  0  0  0  0  0  0
  187.7070  176.9420  141.2080 S   0  0  0  0  0  0  0  0  0  0  0  0
  187.1320  175.2830  141.7870 C   0  0  0  0  0  2  0  0  0  0  0  0
  190.1590  174.9060  146.6270 S   0  0  0  0  0  0  0  0  0  0  0  0
  188.4200  178.0600  143.3910 N   0  0  0  0  0  0  0  0  0  0  0  0
  188.9940  174.2470  143.2210 C   0  0  0  0  0  0  0  0  0  0  0  0
  188.7560  177.0240  142.5670 O   0  0  0  0  0  0  0  0  0  0  0  0
  189.6830  172.6660  141.0250 C   0  0  0  0  0  3  0  0  0  0  0  0
  188.6120  173.4990  140.9650 N   0  0  0  0  0  0  0  0  0  0  0  0
  188.2660  174.3110  142.0050 C   0  0  0  0  0  0  0  0  0  0  0  0
  190.0970  173.3890  143.2890 C   0  0  0  0  0  3  0  0  0  0  0  0
  190.0370  177.5410  146.7040 N   0  0  0  0  0  0  0  0  0  0  0  0
  189.7400  175.7900  145.0830 C   0  0  2  0  0  3  0  0  0  0  0  0
  186.7820  178.1240  145.1740 C   0  0  0  0  0  3  0  0  0  0  0  0
  184.3990  178.8180  144.7550 O   0  0  0  0  0  0  0  0  0  0  0  0
  185.1310  178.4940  147.0790 C   0  0  0  0  0  2  0  0  0  0  0  0
  185.3490  178.2090  145.6150 C   0  0  0  0  0  0  0  0  0  0  0  0
  184.5620  178.2180  143.4960 C   0  0  0  0  0  2  0  0  0  0  0  0
  185.9380  178.6180  142.9130 C   0  0  0  0  0  2  0  0  0  0  0  0
  187.0680  178.2900  143.8710 C   0  0  0  0  0  0  0  0  0  0  0  0
  184.8050  177.1020  146.5130 C   0  0  0  0  0  2  0  0  0  0  0  0
  191.5740  177.9150  149.1260 C   0  0  0  0  0  3  0  0  0  0  0  0
  191.5660  178.0760  150.4420 C   0  0  0  0  0  2  0  0  0  0  0  0
  2 27  1  0  0  0  0
  3 16  1  0  0  0  0
  4  1  1  6  0  0  0
  4 17  1  0  0  0  0
  5  2  1  0  0  0  0
  7  8  1  0  0  0  0
  7 12  1  0  0  0  0
  8 15  1  0  0  0  0
  9  5  1  0  0  0  0
 10 25  1  0  0  0  0
 10  1  1  0  0  0  0
 11 16  2  0  0  0  0
 11  6  1  0  0  0  0
 12 10  1  0  0  0  0
 13  3  2  0  0  0  0
 14 13  1  0  0  0  0
 14 15  2  0  0  0  0
 15 11  1  0  0  0  0
 17  5  2  0  0  0  0
 18  6  1  1  0  0  0
 18  4  1  0  0  0  0
 18  9  1  0  0  0  0
 19 22  1  0  0  0  0
 20 22  1  0  0  0  0
 22 26  1  0  0  0  0
 22 21  1  0  0  0  0
 23 20  1  0  0  0  0
 24 23  1  0  0  0  0
 24 25  1  0  0  0  0
 25 19  2  0  0  0  0
 26 21  1  0  0  0  0
 27 28  2  0  0  0  0
M  END
>  <MODEL>
7

>  <REMARK>
 VINA RESULT:      -6.7      2.204      2.634
  Name = 
  2 active torsions:
  status: ('A' for Active; 'I' for Inactive)
    1  A    between atoms: N_2  and  C_7
    2  A    between atoms: N_16  and  C_24
                            x       y       z     vdW  Elec       q    Type
                         _______ _______ _______ _____ _____    ______ ____

>  <TORSDO>
F 2

$$$$
=
 OpenBabel11042414413D

 28 32  0  0  1  0  0  0  0  0999 V2000
  191.2850  176.7440  142.8190 C   0  0  0  0  0  2  0  0  0  0  0  0
  195.6930  174.9390  143.4030 N   0  0  0  0  0  2  0  0  0  0  0  0
  190.3170  172.1290  138.8480 C   0  0  0  0  0  3  0  0  0  0  0  0
  192.0880  175.4880  143.2130 C   0  0  2  0  0  3  0  0  0  0  0  0
  194.2770  174.8040  143.2640 C   0  0  0  0  0  0  0  0  0  0  0  0
  190.8460  173.5680  142.2600 N   0  0  0  0  0  2  0  0  0  0  0  0
  187.7280  175.6100  141.7720 S   0  0  0  0  0  0  0  0  0  0  0  0
  187.8780  173.7770  141.9650 C   0  0  0  0  0  2  0  0  0  0  0  0
  193.5640  173.3710  142.4480 S   0  0  0  0  0  0  0  0  0  0  0  0
  189.8550  176.4490  142.9110 N   0  0  0  0  0  0  0  0  0  0  0  0
  190.1830  173.0650  141.0830 C   0  0  0  0  0  0  0  0  0  0  0  0
  189.4420  175.7290  141.8260 O   0  0  0  0  0  0  0  0  0  0  0  0
  188.9220  172.1960  138.7490 C   0  0  0  0  0  3  0  0  0  0  0  0
  188.1910  172.6820  139.7860 N   0  0  0  0  0  0  0  0  0  0  0  0
  188.7750  173.1480  140.9270 C   0  0  0  0  0  0  0  0  0  0  0  0
  190.9390  172.5630  140.0190 C   0  0  0  0  0  3  0  0  0  0  0  0
  193.4750  175.7950  143.4870 N   0  0  0  0  0  0  0  0  0  0  0  0
  192.0640  174.3740  142.1550 C   0  0  2  0  0  3  0  0  0  0  0  0
  188.9050  177.1910  145.0120 C   0  0  0  0  0  3  0  0  0  0  0  0
  188.4540  175.5860  146.8980 O   0  0  0  0  0  0  0  0  0  0  0  0
  187.6280  177.8920  147.1010 C   0  0  0  0  0  2  0  0  0  0  0  0
  188.5890  176.9270  146.4560 C   0  0  0  0  0  0  0  0  0  0  0  0
  189.5910  174.9010  146.4400 C   0  0  0  0  0  2  0  0  0  0  0  0
  189.5500  174.8160  144.8960 C   0  0  0  0  0  2  0  0  0  0  0  0
  189.3950  176.1860  144.2650 C   0  0  0  0  0  0  0  0  0  0  0  0
  189.1140  177.9110  147.4980 C   0  0  0  0  0  2  0  0  0  0  0  0
  196.3180  176.1270  143.9040 C   0  0  0  0  0  3  0  0  0  0  0  0
  197.1720  176.7910  143.1380 C   0  0  0  0  0  2  0  0  0  0  0  0
  1 10  1  0  0  0  0
  2 27  1  0  0  0  0
  3 16  1  0  0  0  0
  4  1  1  6  0  0  0
  4 17  1  0  0  0  0
  5  2  1  0  0  0  0
  5 17  2  0  0  0  0
  7 12  1  0  0  0  0
  7  8  1  0  0  0  0
  9  5  1  0  0  0  0
 10 25  1  0  0  0  0
 11  6  1  0  0  0  0
 12 10  1  0  0  0  0
 13  3  2  0  0  0  0
 13 14  1  0  0  0  0
 14 15  2  0  0  0  0
 15 11  1  0  0  0  0
 15  8  1  0  0  0  0
 16 11  2  0  0  0  0
 18  6  1  1  0  0  0
 18  9  1  0  0  0  0
 18  4  1  0  0  0  0
 19 22  1  0  0  0  0
 21 26  1  0  0  0  0
 22 20  1  0  0  0  0
 22 21  1  0  0  0  0
 22 26  1  0  0  0  0
 23 20  1  0  0  0  0
 24 23  1  0  0  0  0
 25 24  1  0  0  0  0
 25 19  2  0  0  0  0
 28 27  2  0  0  0  0
M  END
>  <MODEL>
8

>  <REMARK>
 VINA RESULT:      -6.7      1.974      2.302
  Name = 
  2 active torsions:
  status: ('A' for Active; 'I' for Inactive)
    1  A    between atoms: N_2  and  C_7
    2  A    between atoms: N_16  and  C_24
                            x       y       z     vdW  Elec       q    Type
                         _______ _______ _______ _____ _____    ______ ____

>  <TORSDO>
F 2

$$$$
=
 OpenBabel11042414413D

 28 32  0  0  1  0  0  0  0  0999 V2000
  191.3430  177.2020  142.7960 C   0  0  0  0  0  2  0  0  0  0  0  0
  195.6190  175.1670  143.5680 N   0  0  0  0  0  2  0  0  0  0  0  0
  190.0310  172.2770  139.3280 C   0  0  0  0  0  3  0  0  0  0  0  0
  192.0590  175.9410  143.3200 C   0  0  2  0  0  3  0  0  0  0  0  0
  194.1960  175.1170  143.4430 C   0  0  0  0  0  0  0  0  0  0  0  0
  190.6820  174.0230  142.5720 N   0  0  0  0  0  2  0  0  0  0  0  0
  187.7090  176.2140  141.8720 S   0  0  0  0  0  0  0  0  0  0  0  0
  187.7330  174.4050  142.2550 C   0  0  0  0  0  2  0  0  0  0  0  0
  193.3800  173.6600  142.7810 S   0  0  0  0  0  0  0  0  0  0  0  0
  189.8960  177.0180  142.9180 N   0  0  0  0  0  0  0  0  0  0  0  0
  189.9770  173.4480  141.4530 C   0  0  0  0  0  0  0  0  0  0  0  0
  189.4270  176.2190  141.9140 O   0  0  0  0  0  0  0  0  0  0  0  0
  188.6440  172.4300  139.2220 C   0  0  0  0  0  3  0  0  0  0  0  0
  187.9560  173.0700  140.2020 N   0  0  0  0  0  0  0  0  0  0  0  0
  188.5770  173.6120  141.2880 C   0  0  0  0  0  0  0  0  0  0  0  0
  190.6900  172.7870  140.4480 C   0  0  0  0  0  3  0  0  0  0  0  0
  193.4660  176.1790  143.5610 N   0  0  0  0  0  0  0  0  0  0  0  0
  191.9520  174.7270  142.3830 C   0  0  2  0  0  3  0  0  0  0  0  0
  190.0090  176.0690  145.1440 C   0  0  0  0  0  3  0  0  0  0  0  0
  188.4930  176.8530  146.9930 O   0  0  0  0  0  0  0  0  0  0  0  0
  190.3190  175.3070  147.5550 C   0  0  0  0  0  2  0  0  0  0  0  0
  189.4030  175.8810  146.5050 C   0  0  0  0  0  0  0  0  0  0  0  0
  187.5410  177.0510  145.9800 C   0  0  0  0  0  2  0  0  0  0  0  0
  188.2220  177.7210  144.7630 C   0  0  0  0  0  2  0  0  0  0  0  0
  189.4280  176.9300  144.2910 C   0  0  0  0  0  0  0  0  0  0  0  0
  189.1670  174.4560  146.9970 C   0  0  0  0  0  2  0  0  0  0  0  0
  196.3280  176.3550  143.9430 C   0  0  0  0  0  3  0  0  0  0  0  0
  197.1790  176.9060  143.0890 C   0  0  0  0  0  2  0  0  0  0  0  0
  1 10  1  0  0  0  0
  2 27  1  0  0  0  0
  3 16  1  0  0  0  0
  4  1  1  6  0  0  0
  4 17  1  0  0  0  0
  5 17  2  0  0  0  0
  5  2  1  0  0  0  0
  7 12  1  0  0  0  0
  7  8  1  0  0  0  0
  9  5  1  0  0  0  0
 10 25  1  0  0  0  0
 11  6  1  0  0  0  0
 12 10  1  0  0  0  0
 13  3  2  0  0  0  0
 13 14  1  0  0  0  0
 14 15  2  0  0  0  0
 15 11  1  0  0  0  0
 15  8  1  0  0  0  0
 16 11  2  0  0  0  0
 18  6  1  1  0  0  0
 18  9  1  0  0  0  0
 18  4  1  0  0  0  0
 19 22  1  0  0  0  0
 22 20  1  0  0  0  0
 22 26  1  0  0  0  0
 22 21  1  0  0  0  0
 23 20  1  0  0  0  0
 24 23  1  0  0  0  0
 25 24  1  0  0  0  0
 25 19  2  0  0  0  0
 26 21  1  0  0  0  0
 28 27  2  0  0  0  0
M  END
>  <MODEL>
9

>  <REMARK>
 VINA RESULT:      -6.7      1.857      2.625
  Name = 
  2 active torsions:
  status: ('A' for Active; 'I' for Inactive)
    1  A    between atoms: N_2  and  C_7
    2  A    between atoms: N_16  and  C_24
                            x       y       z     vdW  Elec       q    Type
                         _______ _______ _______ _____ _____    ______ ____

>  <TORSDO>
F 2

$$$$
