=
 OpenBabel11042414393D

 59 68  0  0  1  0  0  0  0  0999 V2000
  192.6580  174.6950  144.0330 C   0  0  0  0  0  0  0  0  0  0  0  0
  193.4520  175.7370  143.5160 C   0  0  0  0  0  3  0  0  0  0  0  0
  192.8630  173.3790  143.5600 C   0  0  0  0  0  0  0  0  0  0  0  0
  193.8560  173.1350  142.6060 C   0  0  0  0  0  3  0  0  0  0  0  0
  194.6600  174.1690  142.1150 C   0  0  0  0  0  0  0  0  0  0  0  0
  194.4480  175.4740  142.5700 C   0  0  0  0  0  3  0  0  0  0  0  0
  195.9570  172.4310  137.0160 N   0  0  0  0  0  2  0  0  0  0  0  0
  196.6790  175.2040  137.9360 C   0  0  0  0  0  2  0  0  0  0  0  0
  197.9410  171.0540  137.3680 C   0  0  0  0  0  1  0  0  0  0  0  0
  195.9100  172.3330  141.0980 C   0  0  1  0  0  3  0  0  0  0  0  0
  197.5050  170.8740  140.2750 O   0  0  0  0  0  0  0  0  0  0  0  0
  196.0140  174.6340  140.1610 N   0  0  0  0  0  0  0  0  0  0  0  0
  195.9150  173.8390  141.3700 C   0  0  1  0  0  3  0  0  0  0  0  0
  195.8140  173.6210  136.1860 C   0  0  0  0  0  2  0  0  0  0  0  0
  197.3170  172.4260  137.5510 C   0  0  2  0  0  3  0  0  0  0  0  0
  196.6390  171.8580  139.9220 C   0  0  1  0  0  0  0  0  0  0  0  0
  195.2100  176.0230  136.1130 C   0  0  0  0  0  1  0  0  0  0  0  0
  197.3310  172.9060  139.0210 C   0  0  2  0  0  3  0  0  0  0  0  0
  196.7110  174.2930  139.1340 C   0  0  0  0  0  0  0  0  0  0  0  0
  195.5040  174.8540  137.0330 C   0  0  2  0  0  3  0  0  0  0  0  0
  197.2900  171.8490  141.2360 N   0  0  1  0  0  0  0  0  0  0  0  0
  190.3000  175.2840  144.7790 C   0  0  0  0  0  2  0  0  0  0  0  0
  190.0880  176.4850  147.0150 O   0  0  0  0  0  0  0  0  0  0  0  0
  193.2790  176.6490  145.8800 O   0  0  0  0  0  0  0  0  0  0  0  0
  191.7370  174.9540  145.2040 C   0  0  2  0  0  3  0  0  0  0  0  0
  188.2190  176.1700  145.6340 N   0  0  0  0  0  0  0  0  0  0  0  0
  192.2630  176.0220  146.1240 C   0  0  0  0  0  0  0  0  0  0  0  0
  191.4650  176.3150  147.3460 C   0  0  0  0  0  2  0  0  0  0  0  0
  189.4830  175.9670  145.8550 C   0  0  0  0  0  0  0  0  0  0  0  0
  187.3190  176.8240  146.5470 C   0  0  0  0  0  0  0  0  0  0  0  0
  186.9160  176.2290  147.5820 O   0  0  0  0  0  0  0  0  0  0  0  0
  184.4380  178.6520  146.6430 C   0  0  0  0  0  2  0  0  0  0  0  0
  185.6880  178.2800  142.6410 C   0  0  0  0  0  0  0  0  0  0  0  0
  184.3540  178.3720  142.8440 C   0  0  0  0  0  0  0  0  0  0  0  0
  182.1950  178.2320  141.8760 O   0  0  0  0  0  0  0  0  0  0  0  0
  186.8780  178.2460  146.3100 C   0  0  2  0  0  3  0  0  0  0  0  0
  186.2780  178.1980  141.2540 C   0  0  0  0  0  2  0  0  0  0  0  0
  183.4430  178.3170  141.6970 C   0  0  0  0  0  0  0  0  0  0  0  0
  183.9750  178.2840  140.3720 N   0  0  0  0  0  0  0  0  0  0  0  0
  185.8100  178.6790  147.3420 C   0  0  0  0  0  2  0  0  0  0  0  0
  184.7500  178.4880  145.2430 N   0  0  0  0  0  0  0  0  0  0  0  0
  183.8370  178.4920  144.1810 N   0  0  0  0  0  2  0  0  0  0  0  0
  186.6200  178.2310  143.7970 C   0  0  0  0  0  3  0  0  0  0  0  0
  185.2520  178.2390  140.1450 C   0  0  0  0  0  3  0  0  0  0  0  0
  186.1280  178.3300  145.0330 C   0  0  0  0  0  0  0  0  0  0  0  0
  192.1220  172.2060  144.1410 C   0  0  0  0  0  2  0  0  0  0  0  0
  191.9110  171.1290  143.0800 C   0  0  0  0  0  2  0  0  0  0  0  0
  190.0670  171.5940  139.8600 N   0  0  0  0  0  0  0  0  0  0  0  0
  189.7870  172.3250  142.5020 C   0  0  0  0  0  3  0  0  0  0  0  0
  188.8420  172.7560  141.5670 C   0  0  0  0  0  0  0  0  0  0  0  0
  188.9980  172.3610  140.2170 C   0  0  0  0  0  0  0  0  0  0  0  0
  190.9910  171.1750  140.7650 C   0  0  0  0  0  3  0  0  0  0  0  0
  190.8660  171.5330  142.1060 C   0  0  0  0  0  0  0  0  0  0  0  0
  187.8740  174.9860  142.0990 C   0  0  0  0  0  1  0  0  0  0  0  0
  187.7940  173.5730  142.0180 O   0  0  0  0  0  0  0  0  0  0  0  0
  188.0540  172.7320  139.2510 O   0  0  0  0  0  0  0  0  0  0  0  0
  188.2380  173.8390  138.3700 C   0  0  0  0  0  2  0  0  0  0  0  0
  188.9540  174.5650  136.4050 C   0  0  0  0  0  1  0  0  0  0  0  0
  189.0320  173.4760  137.2790 O   0  0  0  0  0  0  0  0  0  0  0  0
  1 25  1  0  0  0  0
  2  1  2  0  0  0  0
  3  1  1  0  0  0  0
  3 46  1  0  0  0  0
  4  3  2  0  0  0  0
  5  6  2  0  0  0  0
  5  4  1  0  0  0  0
  6  2  1  0  0  0  0
  7 15  1  0  0  0  0
  8 19  1  0  0  0  0
  9 15  1  0  0  0  0
 10 21  1  0  0  0  0
 10 13  1  0  0  0  0
 11 21  1  0  0  0  0
 12 13  1  0  0  0  0
 13  5  1  0  0  0  0
 14  7  1  0  0  0  0
 14 20  1  0  0  0  0
 15 18  1  0  0  0  0
 16 11  1  0  0  0  0
 16 10  1  0  0  0  0
 16 21  1  0  0  0  0
 17 20  1  0  0  0  0
 18 19  1  0  0  0  0
 18 16  1  0  0  0  0
 19 12  2  0  0  0  0
 20  8  1  0  0  0  0
 22 25  1  0  0  0  0
 22 29  1  0  0  0  0
 23 28  1  0  0  0  0
 24 27  2  0  0  0  0
 25 27  1  0  0  0  0
 26 29  2  0  0  0  0
 26 30  1  0  0  0  0
 27 28  1  0  0  0  0
 29 23  1  0  0  0  0
 30 31  2  0  0  0  0
 32 40  1  0  0  0  0
 33 34  2  0  0  0  0
 33 43  1  0  0  0  0
 34 42  1  0  0  0  0
 36 30  1  0  0  0  0
 36 40  1  0  0  0  0
 37 33  1  0  0  0  0
 38 35  2  0  0  0  0
 38 34  1  0  0  0  0
 39 38  1  0  0  0  0
 41 32  1  0  0  0  0
 42 41  1  0  0  0  0
 43 45  2  0  0  0  0
 44 39  2  0  0  0  0
 44 37  1  0  0  0  0
 45 41  1  0  0  0  0
 45 36  1  0  0  0  0
 47 46  1  0  0  0  0
 48 51  2  0  0  0  0
 48 52  1  0  0  0  0
 50 55  1  0  0  0  0
 50 49  2  0  0  0  0
 51 50  1  0  0  0  0
 52 53  2  0  0  0  0
 53 49  1  0  0  0  0
 53 47  1  0  0  0  0
 55 54  1  0  0  0  0
 56 51  1  0  0  0  0
 57 56  1  0  0  0  0
 58 59  1  0  0  0  0
 59 57  1  0  0  0  0
M  END
>  <MODEL>
1

>  <REMARK>
 VINA RESULT:      -8.7      0.000      0.000
  Name = 
  11 active torsions:
  status: ('A' for Active; 'I' for Inactive)
    1  A    between atoms: C_10  and  C_24
    2  A    between atoms: C_10  and  N_44
    3  A    between atoms: C_13  and  C_43
    4  A    between atoms: C_13  and  C_53
    5  A    between atoms: C_14  and  C_32
    6  A    between atoms: C_20  and  C_51
    7  A    between atoms: C_25  and  O_45
    8  A    between atoms: C_29  and  O_52
    9  A    between atoms: C_29  and  O_57
   10  A    between atoms: C_33  and  C_53
   11  A    between atoms: C_36  and  O_57
                            x       y       z     vdW  Elec       q    Type
                         _______ _______ _______ _____ _____    ______ ____

>  <TORSDO>
F 11

$$$$
=
 OpenBabel11042414393D

 59 68  0  0  1  0  0  0  0  0999 V2000
  192.6500  176.0740  144.3140 C   0  0  0  0  0  0  0  0  0  0  0  0
  191.9020  177.2640  144.3990 C   0  0  0  0  0  3  0  0  0  0  0  0
  192.0620  174.8630  144.7430 C   0  0  0  0  0  0  0  0  0  0  0  0
  190.7490  174.8660  145.2250 C   0  0  0  0  0  3  0  0  0  0  0  0
  190.0000  176.0460  145.2830 C   0  0  0  0  0  0  0  0  0  0  0  0
  190.5860  177.2480  144.8740 C   0  0  0  0  0  3  0  0  0  0  0  0
  185.6330  179.2180  144.0300 N   0  0  0  0  0  2  0  0  0  0  0  0
  186.0600  176.5660  142.6720 C   0  0  0  0  0  2  0  0  0  0  0  0
  184.0810  178.8060  145.8670 C   0  0  0  0  0  1  0  0  0  0  0  0
  188.1210  177.0760  146.4570 C   0  0  1  0  0  3  0  0  0  0  0  0
  186.1500  177.5710  147.5600 O   0  0  0  0  0  0  0  0  0  0  0  0
  187.8350  176.0760  144.1990 N   0  0  0  0  0  0  0  0  0  0  0  0
  188.5180  175.9720  145.4740 C   0  0  1  0  0  3  0  0  0  0  0  0
  185.4300  178.9980  142.6030 C   0  0  0  0  0  2  0  0  0  0  0  0
  184.8930  178.1820  144.7470 C   0  0  2  0  0  3  0  0  0  0  0  0
  186.7670  177.6180  146.3510 C   0  0  1  0  0  0  0  0  0  0  0  0
  186.2340  177.8510  140.5580 C   0  0  0  0  0  1  0  0  0  0  0  0
  185.8460  177.0680  145.2390 C   0  0  2  0  0  3  0  0  0  0  0  0
  186.6160  176.4700  144.0680 C   0  0  0  0  0  0  0  0  0  0  0  0
  186.3760  177.9260  142.0660 C   0  0  2  0  0  3  0  0  0  0  0  0
  187.0510  176.5480  147.3130 N   0  0  1  0  0  0  0  0  0  0  0  0
  194.1200  174.9280  142.5850 C   0  0  0  0  0  2  0  0  0  0  0  0
  196.6370  175.1560  142.9110 O   0  0  0  0  0  0  0  0  0  0  0  0
  194.9940  175.9640  145.7660 O   0  0  0  0  0  0  0  0  0  0  0  0
  193.9850  176.0680  143.6030 C   0  0  2  0  0  3  0  0  0  0  0  0
  195.7590  173.7620  141.2430 N   0  0  0  0  0  0  0  0  0  0  0  0
  195.1450  176.0500  144.5590 C   0  0  0  0  0  0  0  0  0  0  0  0
  196.5100  176.1060  143.9680 C   0  0  0  0  0  2  0  0  0  0  0  0
  195.5500  174.6230  142.1920 C   0  0  0  0  0  0  0  0  0  0  0  0
  197.0560  173.3510  140.7730 C   0  0  0  0  0  0  0  0  0  0  0  0
  197.7170  172.4830  141.4040 O   0  0  0  0  0  0  0  0  0  0  0  0
  195.9790  175.0930  138.0420 C   0  0  0  0  0  2  0  0  0  0  0  0
  196.9780  171.1780  136.8600 C   0  0  0  0  0  0  0  0  0  0  0  0
  195.9920  171.7810  136.1580 C   0  0  0  0  0  0  0  0  0  0  0  0
  194.3010  171.5320  134.5160 O   0  0  0  0  0  0  0  0  0  0  0  0
  197.6300  173.9160  139.4980 C   0  0  2  0  0  3  0  0  0  0  0  0
  197.4750  169.7970  136.5100 C   0  0  0  0  0  2  0  0  0  0  0  0
  195.3300  171.0530  135.0710 C   0  0  0  0  0  0  0  0  0  0  0  0
  195.8090  169.7640  134.6890 N   0  0  0  0  0  0  0  0  0  0  0  0
  197.0090  175.2940  139.1690 C   0  0  0  0  0  2  0  0  0  0  0  0
  196.2100  173.7440  137.5800 N   0  0  0  0  0  0  0  0  0  0  0  0
  195.5790  173.1150  136.5000 N   0  0  0  0  0  2  0  0  0  0  0  0
  197.5890  171.8600  138.0300 C   0  0  0  0  0  3  0  0  0  0  0  0
  196.7830  169.1780  135.3170 C   0  0  0  0  0  3  0  0  0  0  0  0
  197.1890  173.0940  138.3460 C   0  0  0  0  0  0  0  0  0  0  0  0
  192.7650  173.5430  144.5850 C   0  0  0  0  0  2  0  0  0  0  0  0
  191.7660  172.4460  144.2250 C   0  0  0  0  0  2  0  0  0  0  0  0
  192.4180  171.6560  140.6280 N   0  0  0  0  0  0  0  0  0  0  0  0
  190.4980  172.9480  142.1230 C   0  0  0  0  0  3  0  0  0  0  0  0
  190.3700  172.9050  140.7320 C   0  0  0  0  0  0  0  0  0  0  0  0
  191.3620  172.2270  139.9830 C   0  0  0  0  0  0  0  0  0  0  0  0
  192.5490  171.6980  141.9810 C   0  0  0  0  0  3  0  0  0  0  0  0
  191.5870  172.3450  142.7540 C   0  0  0  0  0  0  0  0  0  0  0  0
  188.5440  174.5940  140.7820 C   0  0  0  0  0  1  0  0  0  0  0  0
  189.2690  173.5530  140.1520 O   0  0  0  0  0  0  0  0  0  0  0  0
  191.2560  172.1200  138.5910 O   0  0  0  0  0  0  0  0  0  0  0  0
  192.3840  172.1690  137.7190 C   0  0  0  0  0  2  0  0  0  0  0  0
  192.1270  174.2770  137.0960 C   0  0  0  0  0  1  0  0  0  0  0  0
  192.1150  172.9680  136.6050 O   0  0  0  0  0  0  0  0  0  0  0  0
  1  2  2  0  0  0  0
  1  3  1  0  0  0  0
  2  6  1  0  0  0  0
  3  4  2  0  0  0  0
  4  5  1  0  0  0  0
  5 13  1  0  0  0  0
  6  5  2  0  0  0  0
  7 15  1  0  0  0  0
  8 19  1  0  0  0  0
 10 21  1  0  0  0  0
 12 13  1  0  0  0  0
 13 10  1  0  0  0  0
 14  7  1  0  0  0  0
 15 18  1  0  0  0  0
 15  9  1  0  0  0  0
 16 10  1  0  0  0  0
 16 21  1  0  0  0  0
 16 11  1  0  0  0  0
 17 20  1  0  0  0  0
 18 16  1  0  0  0  0
 19 12  2  0  0  0  0
 19 18  1  0  0  0  0
 20 14  1  0  0  0  0
 20  8  1  0  0  0  0
 21 11  1  0  0  0  0
 22 25  1  0  0  0  0
 23 28  1  0  0  0  0
 25  1  1  0  0  0  0
 25 27  1  0  0  0  0
 26 29  2  0  0  0  0
 27 24  2  0  0  0  0
 28 27  1  0  0  0  0
 29 22  1  0  0  0  0
 29 23  1  0  0  0  0
 30 26  1  0  0  0  0
 30 31  2  0  0  0  0
 32 40  1  0  0  0  0
 33 43  1  0  0  0  0
 34 42  1  0  0  0  0
 34 33  2  0  0  0  0
 35 38  2  0  0  0  0
 36 30  1  0  0  0  0
 37 33  1  0  0  0  0
 38 34  1  0  0  0  0
 39 38  1  0  0  0  0
 39 44  2  0  0  0  0
 40 36  1  0  0  0  0
 41 32  1  0  0  0  0
 41 45  1  0  0  0  0
 42 41  1  0  0  0  0
 43 45  2  0  0  0  0
 44 37  1  0  0  0  0
 45 36  1  0  0  0  0
 46  3  1  0  0  0  0
 47 46  1  0  0  0  0
 48 52  1  0  0  0  0
 49 53  1  0  0  0  0
 50 49  2  0  0  0  0
 51 48  2  0  0  0  0
 51 50  1  0  0  0  0
 52 53  2  0  0  0  0
 53 47  1  0  0  0  0
 55 50  1  0  0  0  0
 55 54  1  0  0  0  0
 56 51  1  0  0  0  0
 57 56  1  0  0  0  0
 59 58  1  0  0  0  0
 59 57  1  0  0  0  0
M  END
>  <MODEL>
2

>  <REMARK>
 VINA RESULT:      -8.7      1.973     10.309
  Name = 
  11 active torsions:
  status: ('A' for Active; 'I' for Inactive)
    1  A    between atoms: C_10  and  C_24
    2  A    between atoms: C_10  and  N_44
    3  A    between atoms: C_13  and  C_43
    4  A    between atoms: C_13  and  C_53
    5  A    between atoms: C_14  and  C_32
    6  A    between atoms: C_20  and  C_51
    7  A    between atoms: C_25  and  O_45
    8  A    between atoms: C_29  and  O_52
    9  A    between atoms: C_29  and  O_57
   10  A    between atoms: C_33  and  C_53
   11  A    between atoms: C_36  and  O_57
                            x       y       z     vdW  Elec       q    Type
                         _______ _______ _______ _____ _____    ______ ____

>  <TORSDO>
F 11

$$$$
=
 OpenBabel11042414393D

 59 68  0  0  1  0  0  0  0  0999 V2000
  192.5790  174.4220  145.3400 C   0  0  0  0  0  0  0  0  0  0  0  0
  193.8890  174.1110  145.7500 C   0  0  0  0  0  3  0  0  0  0  0  0
  192.1780  174.0970  144.0240 C   0  0  0  0  0  0  0  0  0  0  0  0
  193.0800  173.4610  143.1650 C   0  0  0  0  0  3  0  0  0  0  0  0
  194.3720  173.1310  143.5850 C   0  0  0  0  0  0  0  0  0  0  0  0
  194.7760  173.4660  144.8820 C   0  0  0  0  0  3  0  0  0  0  0  0
  195.6280  172.4230  138.2360 N   0  0  0  0  0  2  0  0  0  0  0  0
  197.7290  173.2650  140.2200 C   0  0  0  0  0  2  0  0  0  0  0  0
  195.8290  170.0020  138.0110 C   0  0  0  0  0  1  0  0  0  0  0  0
  194.2210  171.3540  141.9160 C   0  0  1  0  0  3  0  0  0  0  0  0
  194.4920  169.4840  140.5830 O   0  0  0  0  0  0  0  0  0  0  0  0
  196.1910  172.8680  142.0080 N   0  0  0  0  0  0  0  0  0  0  0  0
  195.1870  172.1660  142.7830 C   0  0  1  0  0  3  0  0  0  0  0  0
  196.6310  173.4460  137.9660 C   0  0  0  0  0  2  0  0  0  0  0  0
  196.3260  171.2400  138.7340 C   0  0  2  0  0  3  0  0  0  0  0  0
  194.7350  170.8170  140.6560 C   0  0  1  0  0  0  0  0  0  0  0  0
  197.9410  175.3410  138.8800 C   0  0  0  0  0  1  0  0  0  0  0  0
  196.1980  171.1350  140.2720 C   0  0  2  0  0  3  0  0  0  0  0  0
  196.7300  172.3970  140.9390 C   0  0  0  0  0  0  0  0  0  0  0  0
  197.0210  174.1910  139.2410 C   0  0  2  0  0  3  0  0  0  0  0  0
  194.7250  169.9750  141.8570 N   0  0  1  0  0  0  0  0  0  0  0  0
  190.1490  175.0290  145.7750 C   0  0  0  0  0  2  0  0  0  0  0  0
  189.7240  176.7640  147.5920 O   0  0  0  0  0  0  0  0  0  0  0  0
  192.9730  176.8320  146.6250 O   0  0  0  0  0  0  0  0  0  0  0  0
  191.5680  174.9210  146.3480 C   0  0  2  0  0  3  0  0  0  0  0  0
  187.9730  175.9710  146.2500 N   0  0  0  0  0  0  0  0  0  0  0  0
  191.9750  176.2260  146.9740 C   0  0  0  0  0  0  0  0  0  0  0  0
  191.0820  176.7790  148.0280 C   0  0  0  0  0  2  0  0  0  0  0  0
  189.2270  175.9180  146.5830 C   0  0  0  0  0  0  0  0  0  0  0  0
  186.9800  176.7830  146.9040 C   0  0  0  0  0  0  0  0  0  0  0  0
  186.3340  176.3310  147.8870 O   0  0  0  0  0  0  0  0  0  0  0  0
  184.3170  178.8020  146.2100 C   0  0  0  0  0  2  0  0  0  0  0  0
  186.3540  177.9470  142.6270 C   0  0  0  0  0  0  0  0  0  0  0  0
  185.0210  178.1490  142.5230 C   0  0  0  0  0  0  0  0  0  0  0  0
  183.1140  178.0600  141.1180 O   0  0  0  0  0  0  0  0  0  0  0  0
  186.7270  178.2000  146.4580 C   0  0  2  0  0  3  0  0  0  0  0  0
  187.2160  177.6870  141.4160 C   0  0  0  0  0  2  0  0  0  0  0  0
  184.3740  178.0410  141.2120 C   0  0  0  0  0  0  0  0  0  0  0  0
  185.1700  177.8400  140.0440 N   0  0  0  0  0  0  0  0  0  0  0  0
  185.5050  178.8060  147.1900 C   0  0  0  0  0  2  0  0  0  0  0  0
  184.9050  178.4780  144.9320 N   0  0  0  0  0  0  0  0  0  0  0  0
  184.2430  178.4370  143.6980 N   0  0  0  0  0  2  0  0  0  0  0  0
  187.0090  177.9510  143.9600 C   0  0  0  0  0  3  0  0  0  0  0  0
  186.4580  177.6860  140.1090 C   0  0  0  0  0  3  0  0  0  0  0  0
  186.2760  178.2070  145.0450 C   0  0  0  0  0  0  0  0  0  0  0  0
  190.7650  174.3060  143.5540 C   0  0  0  0  0  2  0  0  0  0  0  0
  190.1810  173.0010  143.0200 C   0  0  0  0  0  2  0  0  0  0  0  0
  188.5190  174.4750  140.0120 N   0  0  0  0  0  0  0  0  0  0  0  0
  189.7810  172.1260  140.7070 C   0  0  0  0  0  3  0  0  0  0  0  0
  189.2460  172.2640  139.4220 C   0  0  0  0  0  0  0  0  0  0  0  0
  188.6110  173.4830  139.0830 C   0  0  0  0  0  0  0  0  0  0  0  0
  189.0340  174.3450  141.2630 C   0  0  0  0  0  3  0  0  0  0  0  0
  189.6770  173.1650  141.6320 C   0  0  0  0  0  0  0  0  0  0  0  0
  190.5070  170.9030  137.7640 C   0  0  0  0  0  1  0  0  0  0  0  0
  189.3550  171.1760  138.5440 O   0  0  0  0  0  0  0  0  0  0  0  0
  188.0980  173.6840  137.7950 O   0  0  0  0  0  0  0  0  0  0  0  0
  188.7480  174.4950  136.8170 C   0  0  0  0  0  2  0  0  0  0  0  0
  190.4740  174.1170  135.4840 C   0  0  0  0  0  1  0  0  0  0  0  0
  190.1280  174.2750  136.8300 O   0  0  0  0  0  0  0  0  0  0  0  0
  1  2  1  0  0  0  0
  1 25  1  0  0  0  0
  3  1  2  0  0  0  0
  4  5  2  0  0  0  0
  4  3  1  0  0  0  0
  5  6  1  0  0  0  0
  6  2  2  0  0  0  0
  7 15  1  0  0  0  0
  8 19  1  0  0  0  0
  9 15  1  0  0  0  0
 10 13  1  0  0  0  0
 11 16  1  0  0  0  0
 11 21  1  0  0  0  0
 12 13  1  0  0  0  0
 13  5  1  0  0  0  0
 14  7  1  0  0  0  0
 14 20  1  0  0  0  0
 15 18  1  0  0  0  0
 16 21  1  0  0  0  0
 16 10  1  0  0  0  0
 17 20  1  0  0  0  0
 18 16  1  0  0  0  0
 18 19  1  0  0  0  0
 19 12  2  0  0  0  0
 20  8  1  0  0  0  0
 21 10  1  0  0  0  0
 22 25  1  0  0  0  0
 22 29  1  0  0  0  0
 23 28  1  0  0  0  0
 24 27  2  0  0  0  0
 25 27  1  0  0  0  0
 26 29  2  0  0  0  0
 26 30  1  0  0  0  0
 27 28  1  0  0  0  0
 29 23  1  0  0  0  0
 30 31  2  0  0  0  0
 32 40  1  0  0  0  0
 33 43  1  0  0  0  0
 34 33  2  0  0  0  0
 34 42  1  0  0  0  0
 35 38  2  0  0  0  0
 36 30  1  0  0  0  0
 36 40  1  0  0  0  0
 37 33  1  0  0  0  0
 38 34  1  0  0  0  0
 39 44  2  0  0  0  0
 39 38  1  0  0  0  0
 41 45  1  0  0  0  0
 41 32  1  0  0  0  0
 42 41  1  0  0  0  0
 43 45  2  0  0  0  0
 44 37  1  0  0  0  0
 45 36  1  0  0  0  0
 46  3  1  0  0  0  0
 47 46  1  0  0  0  0
 48 52  1  0  0  0  0
 49 53  1  0  0  0  0
 50 49  2  0  0  0  0
 51 50  1  0  0  0  0
 51 48  2  0  0  0  0
 52 53  2  0  0  0  0
 53 47  1  0  0  0  0
 54 55  1  0  0  0  0
 55 50  1  0  0  0  0
 56 51  1  0  0  0  0
 57 59  1  0  0  0  0
 57 56  1  0  0  0  0
 58 59  1  0  0  0  0
M  END
>  <MODEL>
3

>  <REMARK>
 VINA RESULT:      -8.3      1.560      2.152
  Name = 
  11 active torsions:
  status: ('A' for Active; 'I' for Inactive)
    1  A    between atoms: C_10  and  C_24
    2  A    between atoms: C_10  and  N_44
    3  A    between atoms: C_13  and  C_43
    4  A    between atoms: C_13  and  C_53
    5  A    between atoms: C_14  and  C_32
    6  A    between atoms: C_20  and  C_51
    7  A    between atoms: C_25  and  O_45
    8  A    between atoms: C_29  and  O_52
    9  A    between atoms: C_29  and  O_57
   10  A    between atoms: C_33  and  C_53
   11  A    between atoms: C_36  and  O_57
                            x       y       z     vdW  Elec       q    Type
                         _______ _______ _______ _____ _____    ______ ____

>  <TORSDO>
F 11

$$$$
=
 OpenBabel11042414393D

 59 68  0  0  1  0  0  0  0  0999 V2000
  191.7260  174.2530  141.9670 C   0  0  0  0  0  0  0  0  0  0  0  0
  191.1750  175.5480  141.9320 C   0  0  0  0  0  3  0  0  0  0  0  0
  191.2990  173.3550  142.9720 C   0  0  0  0  0  0  0  0  0  0  0  0
  190.3310  173.7620  143.8950 C   0  0  0  0  0  3  0  0  0  0  0  0
  189.7680  175.0410  143.8400 C   0  0  0  0  0  0  0  0  0  0  0  0
  190.2000  175.9360  142.8570 C   0  0  0  0  0  3  0  0  0  0  0  0
  186.3450  179.3560  144.4440 N   0  0  0  0  0  2  0  0  0  0  0  0
  185.4520  176.8600  143.0190 C   0  0  0  0  0  2  0  0  0  0  0  0
  185.5630  179.1480  146.7460 C   0  0  0  0  0  1  0  0  0  0  0  0
  188.8540  176.3770  145.6700 C   0  0  1  0  0  3  0  0  0  0  0  0
  187.6800  177.2330  147.4690 O   0  0  0  0  0  0  0  0  0  0  0  0
  187.4570  175.7550  143.7090 N   0  0  0  0  0  0  0  0  0  0  0  0
  188.5150  175.3310  144.6060 C   0  0  1  0  0  3  0  0  0  0  0  0
  185.5590  179.3640  143.2160 C   0  0  0  0  0  2  0  0  0  0  0  0
  185.6740  178.4700  145.3930 C   0  0  2  0  0  3  0  0  0  0  0  0
  187.7750  177.2590  146.1150 C   0  0  1  0  0  0  0  0  0  0  0  0
  185.1620  178.2930  141.0160 C   0  0  0  0  0  1  0  0  0  0  0  0
  186.3850  177.0990  145.4600 C   0  0  2  0  0  3  0  0  0  0  0  0
  186.4470  176.4620  144.0770 C   0  0  0  0  0  0  0  0  0  0  0  0
  185.8840  178.1530  142.3420 C   0  0  2  0  0  3  0  0  0  0  0  0
  188.0890  176.0480  146.8800 N   0  0  1  0  0  0  0  0  0  0  0  0
  193.5840  174.8550  140.3400 C   0  0  0  0  0  2  0  0  0  0  0  0
  193.6220  173.5690  138.1410 O   0  0  0  0  0  0  0  0  0  0  0  0
  190.6110  173.2270  139.6610 O   0  0  0  0  0  0  0  0  0  0  0  0
  192.6140  173.7760  140.8400 C   0  0  2  0  0  3  0  0  0  0  0  0
  195.0830  175.3660  138.5120 N   0  0  0  0  0  0  0  0  0  0  0  0
  191.8290  173.2110  139.6880 C   0  0  0  0  0  0  0  0  0  0  0  0
  192.6070  172.6540  138.5480 C   0  0  0  0  0  2  0  0  0  0  0  0
  194.1560  174.5760  138.9660 C   0  0  0  0  0  0  0  0  0  0  0  0
  195.7070  175.2450  137.2210 C   0  0  0  0  0  0  0  0  0  0  0  0
  195.0350  175.4180  136.1690 O   0  0  0  0  0  0  0  0  0  0  0  0
  197.8950  174.0720  134.8780 C   0  0  0  0  0  2  0  0  0  0  0  0
  197.4930  171.2020  137.9320 C   0  0  0  0  0  0  0  0  0  0  0  0
  197.7540  170.7250  136.6930 C   0  0  0  0  0  0  0  0  0  0  0  0
  197.9320  168.8050  135.3150 O   0  0  0  0  0  0  0  0  0  0  0  0
  197.1820  174.9560  137.1010 C   0  0  2  0  0  3  0  0  0  0  0  0
  197.3800  170.2900  139.1290 C   0  0  0  0  0  2  0  0  0  0  0  0
  197.8570  169.2770  136.4840 C   0  0  0  0  0  0  0  0  0  0  0  0
  197.7980  168.3950  137.6050 N   0  0  0  0  0  0  0  0  0  0  0  0
  197.7180  175.3580  135.7060 C   0  0  0  0  0  2  0  0  0  0  0  0
  197.7380  173.0030  135.8360 N   0  0  0  0  0  0  0  0  0  0  0  0
  197.8970  171.6340  135.5880 N   0  0  0  0  0  2  0  0  0  0  0  0
  197.2830  172.6570  138.1440 C   0  0  0  0  0  3  0  0  0  0  0  0
  197.5930  168.8280  138.8110 C   0  0  0  0  0  3  0  0  0  0  0  0
  197.4060  173.4900  137.1080 C   0  0  0  0  0  0  0  0  0  0  0  0
  191.7680  171.9260  143.0070 C   0  0  0  0  0  2  0  0  0  0  0  0
  192.5860  171.6640  144.2680 C   0  0  0  0  0  2  0  0  0  0  0  0
  195.9900  173.0510  143.5750 N   0  0  0  0  0  0  0  0  0  0  0  0
  193.8680  173.5790  145.2510 C   0  0  0  0  0  3  0  0  0  0  0  0
  195.0250  174.3590  145.3420 C   0  0  0  0  0  0  0  0  0  0  0  0
  196.0990  174.0770  144.4640 C   0  0  0  0  0  0  0  0  0  0  0  0
  194.8680  172.2880  143.4850 C   0  0  0  0  0  3  0  0  0  0  0  0
  193.7850  172.5400  144.3230 C   0  0  0  0  0  0  0  0  0  0  0  0
  194.5380  176.6730  146.1160 C   0  0  0  0  0  1  0  0  0  0  0  0
  195.0620  175.3710  146.3130 O   0  0  0  0  0  0  0  0  0  0  0  0
  197.2620  174.8570  144.4880 O   0  0  0  0  0  0  0  0  0  0  0  0
  197.7080  175.6220  143.3690 C   0  0  0  0  0  2  0  0  0  0  0  0
  196.3900  176.5940  141.8790 C   0  0  0  0  0  1  0  0  0  0  0  0
  196.8920  176.7400  143.1760 O   0  0  0  0  0  0  0  0  0  0  0  0
  1  3  1  0  0  0  0
  2  1  2  0  0  0  0
  2  6  1  0  0  0  0
  3 46  1  0  0  0  0
  3  4  2  0  0  0  0
  5  4  1  0  0  0  0
  5 13  1  0  0  0  0
  6  5  2  0  0  0  0
  7 15  1  0  0  0  0
  8 19  1  0  0  0  0
 10 16  1  0  0  0  0
 10 21  1  0  0  0  0
 12 19  2  0  0  0  0
 12 13  1  0  0  0  0
 13 10  1  0  0  0  0
 14  7  1  0  0  0  0
 15 18  1  0  0  0  0
 15  9  1  0  0  0  0
 16 21  1  0  0  0  0
 16 11  1  0  0  0  0
 17 20  1  0  0  0  0
 18 16  1  0  0  0  0
 19 18  1  0  0  0  0
 20  8  1  0  0  0  0
 20 14  1  0  0  0  0
 21 11  1  0  0  0  0
 22 25  1  0  0  0  0
 23 28  1  0  0  0  0
 23 29  1  0  0  0  0
 24 27  2  0  0  0  0
 25  1  1  0  0  0  0
 26 29  2  0  0  0  0
 27 25  1  0  0  0  0
 28 27  1  0  0  0  0
 29 22  1  0  0  0  0
 30 26  1  0  0  0  0
 31 30  2  0  0  0  0
 32 40  1  0  0  0  0
 32 41  1  0  0  0  0
 33 43  1  0  0  0  0
 33 37  1  0  0  0  0
 34 33  2  0  0  0  0
 35 38  2  0  0  0  0
 36 45  1  0  0  0  0
 36 30  1  0  0  0  0
 38 34  1  0  0  0  0
 38 39  1  0  0  0  0
 39 44  2  0  0  0  0
 40 36  1  0  0  0  0
 41 45  1  0  0  0  0
 42 41  1  0  0  0  0
 42 34  1  0  0  0  0
 44 37  1  0  0  0  0
 45 43  2  0  0  0  0
 46 47  1  0  0  0  0
 47 53  1  0  0  0  0
 48 51  2  0  0  0  0
 49 50  2  0  0  0  0
 50 55  1  0  0  0  0
 51 56  1  0  0  0  0
 51 50  1  0  0  0  0
 52 48  1  0  0  0  0
 52 53  2  0  0  0  0
 53 49  1  0  0  0  0
 54 55  1  0  0  0  0
 57 56  1  0  0  0  0
 58 59  1  0  0  0  0
 59 57  1  0  0  0  0
M  END
>  <MODEL>
4

>  <REMARK>
 VINA RESULT:      -8.2      2.575     11.550
  Name = 
  11 active torsions:
  status: ('A' for Active; 'I' for Inactive)
    1  A    between atoms: C_10  and  C_24
    2  A    between atoms: C_10  and  N_44
    3  A    between atoms: C_13  and  C_43
    4  A    between atoms: C_13  and  C_53
    5  A    between atoms: C_14  and  C_32
    6  A    between atoms: C_20  and  C_51
    7  A    between atoms: C_25  and  O_45
    8  A    between atoms: C_29  and  O_52
    9  A    between atoms: C_29  and  O_57
   10  A    between atoms: C_33  and  C_53
   11  A    between atoms: C_36  and  O_57
                            x       y       z     vdW  Elec       q    Type
                         _______ _______ _______ _____ _____    ______ ____

>  <TORSDO>
F 11

$$$$
=
 OpenBabel11042414393D

 59 68  0  0  1  0  0  0  0  0999 V2000
  194.2040  174.5320  145.3700 C   0  0  0  0  0  0  0  0  0  0  0  0
  195.2040  173.6510  145.8220 C   0  0  0  0  0  3  0  0  0  0  0  0
  194.1730  174.8900  144.0030 C   0  0  0  0  0  0  0  0  0  0  0  0
  195.1190  174.3500  143.1270 C   0  0  0  0  0  3  0  0  0  0  0  0
  196.0950  173.4540  143.5750 C   0  0  0  0  0  0  0  0  0  0  0  0
  196.1380  173.1120  144.9300 C   0  0  0  0  0  3  0  0  0  0  0  0
  195.3300  171.7000  138.3760 N   0  0  0  0  0  2  0  0  0  0  0  0
  197.4300  173.7570  139.0210 C   0  0  0  0  0  2  0  0  0  0  0  0
  196.4740  169.5450  138.3250 C   0  0  0  0  0  1  0  0  0  0  0  0
  196.1060  171.3310  142.3670 C   0  0  1  0  0  3  0  0  0  0  0  0
  196.6290  169.3690  141.2600 O   0  0  0  0  0  0  0  0  0  0  0  0
  197.0630  173.3910  141.3560 N   0  0  0  0  0  0  0  0  0  0  0  0
  196.8650  172.6420  142.5820 C   0  0  1  0  0  3  0  0  0  0  0  0
  195.5820  172.8810  137.5590 C   0  0  0  0  0  2  0  0  0  0  0  0
  196.6110  171.0320  138.5960 C   0  0  2  0  0  3  0  0  0  0  0  0
  196.2650  170.6640  141.0750 C   0  0  1  0  0  0  0  0  0  0  0  0
  196.1600  175.2910  137.5430 C   0  0  0  0  0  1  0  0  0  0  0  0
  197.1550  171.3420  140.0100 C   0  0  2  0  0  3  0  0  0  0  0  0
  197.2880  172.8460  140.2120 C   0  0  0  0  0  0  0  0  0  0  0  0
  196.0660  174.0520  138.4130 C   0  0  2  0  0  3  0  0  0  0  0  0
  197.0980  170.2590  142.2120 N   0  0  1  0  0  0  0  0  0  0  0  0
  191.6930  174.8280  145.6400 C   0  0  0  0  0  2  0  0  0  0  0  0
  190.9350  176.5710  147.3360 O   0  0  0  0  0  0  0  0  0  0  0  0
  194.2000  177.0300  146.5440 O   0  0  0  0  0  0  0  0  0  0  0  0
  193.0770  174.9370  146.2940 C   0  0  2  0  0  3  0  0  0  0  0  0
  189.3870  175.4900  145.9460 N   0  0  0  0  0  0  0  0  0  0  0  0
  193.2710  176.3120  146.8700 C   0  0  0  0  0  0  0  0  0  0  0  0
  192.2500  176.7880  147.8440 C   0  0  0  0  0  2  0  0  0  0  0  0
  190.6150  175.6210  146.3490 C   0  0  0  0  0  0  0  0  0  0  0  0
  188.2590  176.1910  146.5010 C   0  0  0  0  0  0  0  0  0  0  0  0
  187.4490  175.5950  147.2600 O   0  0  0  0  0  0  0  0  0  0  0  0
  185.7390  178.4860  146.6770 C   0  0  0  0  0  2  0  0  0  0  0  0
  186.6540  177.7680  142.6310 C   0  0  0  0  0  0  0  0  0  0  0  0
  185.3700  178.0930  142.9060 C   0  0  0  0  0  0  0  0  0  0  0  0
  183.1610  178.2920  142.0680 O   0  0  0  0  0  0  0  0  0  0  0  0
  188.0500  177.6580  146.2250 C   0  0  2  0  0  3  0  0  0  0  0  0
  187.1320  177.5380  141.2190 C   0  0  0  0  0  2  0  0  0  0  0  0
  184.3920  178.1550  141.8150 C   0  0  0  0  0  0  0  0  0  0  0  0
  184.8250  177.9860  140.4650 N   0  0  0  0  0  0  0  0  0  0  0  0
  187.1380  178.3030  147.2960 C   0  0  0  0  0  2  0  0  0  0  0  0
  185.9300  178.2230  145.2700 N   0  0  0  0  0  0  0  0  0  0  0  0
  184.9660  178.3460  144.2620 N   0  0  0  0  0  2  0  0  0  0  0  0
  187.6350  177.6000  143.7340 C   0  0  0  0  0  3  0  0  0  0  0  0
  186.0600  177.7160  140.1690 C   0  0  0  0  0  3  0  0  0  0  0  0
  187.2460  177.8240  144.9910 C   0  0  0  0  0  0  0  0  0  0  0  0
  193.0730  175.7440  143.4340 C   0  0  0  0  0  2  0  0  0  0  0  0
  193.1060  175.7090  141.9090 C   0  0  0  0  0  2  0  0  0  0  0  0
  192.0960  172.7850  139.8070 N   0  0  0  0  0  0  0  0  0  0  0  0
  191.0530  174.2740  141.8770 C   0  0  0  0  0  3  0  0  0  0  0  0
  190.2960  173.2340  141.3310 C   0  0  0  0  0  0  0  0  0  0  0  0
  190.8550  172.4740  140.2750 C   0  0  0  0  0  0  0  0  0  0  0  0
  192.8350  173.7980  140.3320 C   0  0  0  0  0  3  0  0  0  0  0  0
  192.3250  174.5620  141.3800 C   0  0  0  0  0  0  0  0  0  0  0  0
  188.1410  174.0430  142.2760 C   0  0  0  0  0  1  0  0  0  0  0  0
  189.0120  173.0090  141.8520 O   0  0  0  0  0  0  0  0  0  0  0  0
  190.1530  171.3950  139.7250 O   0  0  0  0  0  0  0  0  0  0  0  0
  189.9400  171.2400  138.3220 C   0  0  0  0  0  2  0  0  0  0  0  0
  190.4020  169.6780  136.8230 C   0  0  0  0  0  1  0  0  0  0  0  0
  189.6880  169.9030  138.0050 O   0  0  0  0  0  0  0  0  0  0  0  0
  1  2  1  0  0  0  0
  1 25  1  0  0  0  0
  3  1  2  0  0  0  0
  4  5  2  0  0  0  0
  4  3  1  0  0  0  0
  5  6  1  0  0  0  0
  6  2  2  0  0  0  0
  7 15  1  0  0  0  0
  8 19  1  0  0  0  0
  9 15  1  0  0  0  0
 10 13  1  0  0  0  0
 11 21  1  0  0  0  0
 12 13  1  0  0  0  0
 13  5  1  0  0  0  0
 14  7  1  0  0  0  0
 14 20  1  0  0  0  0
 15 18  1  0  0  0  0
 16 11  1  0  0  0  0
 16 21  1  0  0  0  0
 16 10  1  0  0  0  0
 17 20  1  0  0  0  0
 18 19  1  0  0  0  0
 18 16  1  0  0  0  0
 19 12  2  0  0  0  0
 20  8  1  0  0  0  0
 21 10  1  0  0  0  0
 22 25  1  0  0  0  0
 22 29  1  0  0  0  0
 23 28  1  0  0  0  0
 24 27  2  0  0  0  0
 25 27  1  0  0  0  0
 26 29  2  0  0  0  0
 26 30  1  0  0  0  0
 27 28  1  0  0  0  0
 29 23  1  0  0  0  0
 30 31  2  0  0  0  0
 32 40  1  0  0  0  0
 33 34  2  0  0  0  0
 33 43  1  0  0  0  0
 34 42  1  0  0  0  0
 36 30  1  0  0  0  0
 36 40  1  0  0  0  0
 37 33  1  0  0  0  0
 38 35  2  0  0  0  0
 38 34  1  0  0  0  0
 39 38  1  0  0  0  0
 41 32  1  0  0  0  0
 42 41  1  0  0  0  0
 43 45  2  0  0  0  0
 44 39  2  0  0  0  0
 44 37  1  0  0  0  0
 45 41  1  0  0  0  0
 45 36  1  0  0  0  0
 46  3  1  0  0  0  0
 47 46  1  0  0  0  0
 48 51  2  0  0  0  0
 48 52  1  0  0  0  0
 50 55  1  0  0  0  0
 50 49  2  0  0  0  0
 51 50  1  0  0  0  0
 52 53  2  0  0  0  0
 53 49  1  0  0  0  0
 53 47  1  0  0  0  0
 55 54  1  0  0  0  0
 56 51  1  0  0  0  0
 57 56  1  0  0  0  0
 58 59  1  0  0  0  0
 59 57  1  0  0  0  0
M  END
>  <MODEL>
5

>  <REMARK>
 VINA RESULT:      -8.2      1.708      2.124
  Name = 
  11 active torsions:
  status: ('A' for Active; 'I' for Inactive)
    1  A    between atoms: C_10  and  C_24
    2  A    between atoms: C_10  and  N_44
    3  A    between atoms: C_13  and  C_43
    4  A    between atoms: C_13  and  C_53
    5  A    between atoms: C_14  and  C_32
    6  A    between atoms: C_20  and  C_51
    7  A    between atoms: C_25  and  O_45
    8  A    between atoms: C_29  and  O_52
    9  A    between atoms: C_29  and  O_57
   10  A    between atoms: C_33  and  C_53
   11  A    between atoms: C_36  and  O_57
                            x       y       z     vdW  Elec       q    Type
                         _______ _______ _______ _____ _____    ______ ____

>  <TORSDO>
F 11

$$$$
=
 OpenBabel11042414393D

 59 68  0  0  1  0  0  0  0  0999 V2000
  189.8920  172.6430  142.0610 C   0  0  0  0  0  0  0  0  0  0  0  0
  188.5340  172.8110  142.3910 C   0  0  0  0  0  3  0  0  0  0  0  0
  190.6250  173.7570  141.5930 C   0  0  0  0  0  0  0  0  0  0  0  0
  189.9970  175.0010  141.4840 C   0  0  0  0  0  3  0  0  0  0  0  0
  188.6540  175.1690  141.8380 C   0  0  0  0  0  0  0  0  0  0  0  0
  187.9220  174.0650  142.2850 C   0  0  0  0  0  3  0  0  0  0  0  0
  184.5380  177.4740  144.7430 N   0  0  0  0  0  2  0  0  0  0  0  0
  187.4150  178.0080  145.4460 C   0  0  0  0  0  2  0  0  0  0  0  0
  183.8190  179.3360  143.3380 C   0  0  0  0  0  1  0  0  0  0  0  0
  186.7150  176.5910  141.4040 C   0  0  1  0  0  3  0  0  0  0  0  0
  185.2330  178.3120  140.9680 O   0  0  0  0  0  0  0  0  0  0  0  0
  188.1050  176.8970  143.4430 N   0  0  0  0  0  0  0  0  0  0  0  0
  188.1080  176.5490  142.0360 C   0  0  1  0  0  3  0  0  0  0  0  0
  185.0420  177.5110  146.1100 C   0  0  0  0  0  2  0  0  0  0  0  0
  184.9810  178.6960  144.0750 C   0  0  2  0  0  3  0  0  0  0  0  0
  185.7530  177.5430  141.9580 C   0  0  1  0  0  0  0  0  0  0  0  0
  186.9160  176.9490  147.6320 C   0  0  0  0  0  1  0  0  0  0  0  0
  186.1940  178.4100  143.1580 C   0  0  2  0  0  3  0  0  0  0  0  0
  187.3320  177.7880  143.9580 C   0  0  0  0  0  0  0  0  0  0  0  0
  186.4940  177.0420  146.1780 C   0  0  2  0  0  3  0  0  0  0  0  0
  186.5460  177.9100  140.7810 N   0  0  1  0  0  0  0  0  0  0  0  0
  191.9370  171.5420  143.0960 C   0  0  0  0  0  2  0  0  0  0  0  0
  192.5850  169.2610  142.1660 O   0  0  0  0  0  0  0  0  0  0  0  0
  190.4610  170.8430  140.0490 O   0  0  0  0  0  0  0  0  0  0  0  0
  190.5940  171.3430  142.3810 C   0  0  2  0  0  3  0  0  0  0  0  0
  193.9550  170.3640  143.7170 N   0  0  0  0  0  0  0  0  0  0  0  0
  190.7780  170.4740  141.1670 C   0  0  0  0  0  0  0  0  0  0  0  0
  191.4030  169.1400  141.3780 C   0  0  0  0  0  2  0  0  0  0  0  0
  192.8500  170.3370  143.0340 C   0  0  0  0  0  0  0  0  0  0  0  0
  194.9330  169.3090  143.7430 C   0  0  0  0  0  0  0  0  0  0  0  0
  194.6280  168.1660  144.1750 O   0  0  0  0  0  0  0  0  0  0  0  0
  197.6860  171.1760  144.5120 C   0  0  0  0  0  2  0  0  0  0  0  0
  195.9950  172.6400  140.9460 C   0  0  0  0  0  0  0  0  0  0  0  0
  196.6260  173.5470  141.7260 C   0  0  0  0  0  0  0  0  0  0  0  0
  197.1020  175.8390  142.0970 O   0  0  0  0  0  0  0  0  0  0  0  0
  196.3260  169.5350  143.2110 C   0  0  2  0  0  3  0  0  0  0  0  0
  195.3920  173.0160  139.6150 C   0  0  0  0  0  2  0  0  0  0  0  0
  196.6670  174.9530  141.3090 C   0  0  0  0  0  0  0  0  0  0  0  0
  196.1440  175.3290  140.0350 N   0  0  0  0  0  0  0  0  0  0  0  0
  197.3470  169.6800  144.3650 C   0  0  0  0  0  2  0  0  0  0  0  0
  197.1110  171.7920  143.3400 N   0  0  0  0  0  0  0  0  0  0  0  0
  197.2250  173.1370  142.9670 N   0  0  0  0  0  2  0  0  0  0  0  0
  195.8540  171.2330  141.4010 C   0  0  0  0  0  3  0  0  0  0  0  0
  195.5720  174.4710  139.2470 C   0  0  0  0  0  3  0  0  0  0  0  0
  196.4030  170.8660  142.5610 C   0  0  0  0  0  0  0  0  0  0  0  0
  192.1030  173.6730  141.3220 C   0  0  0  0  0  2  0  0  0  0  0  0
  192.7380  175.0600  141.3930 C   0  0  0  0  0  2  0  0  0  0  0  0
  192.8450  177.1040  144.5230 N   0  0  0  0  0  0  0  0  0  0  0  0
  193.7110  174.6340  143.6620 C   0  0  0  0  0  3  0  0  0  0  0  0
  194.0020  175.0470  144.9660 C   0  0  0  0  0  0  0  0  0  0  0  0
  193.5380  176.3150  145.3910 C   0  0  0  0  0  0  0  0  0  0  0  0
  192.5620  176.7080  143.2540 C   0  0  0  0  0  3  0  0  0  0  0  0
  192.9910  175.4620  142.8010 C   0  0  0  0  0  0  0  0  0  0  0  0
  196.1530  174.3000  145.9690 C   0  0  0  0  0  1  0  0  0  0  0  0
  194.7530  174.1840  145.7780 O   0  0  0  0  0  0  0  0  0  0  0  0
  193.7680  176.7550  146.7010 O   0  0  0  0  0  0  0  0  0  0  0  0
  192.7600  176.7490  147.7110 C   0  0  0  0  0  2  0  0  0  0  0  0
  190.5570  176.8800  147.5350 C   0  0  0  0  0  1  0  0  0  0  0  0
  191.6390  176.0290  147.2880 O   0  0  0  0  0  0  0  0  0  0  0  0
  1 25  1  0  0  0  0
  1  2  1  0  0  0  0
  3  1  2  0  0  0  0
  4  3  1  0  0  0  0
  4  5  2  0  0  0  0
  5 13  1  0  0  0  0
  5  6  1  0  0  0  0
  6  2  2  0  0  0  0
  7 14  1  0  0  0  0
  8 20  1  0  0  0  0
  9 15  1  0  0  0  0
 10 16  1  0  0  0  0
 10 13  1  0  0  0  0
 11 16  1  0  0  0  0
 12 19  2  0  0  0  0
 13 12  1  0  0  0  0
 14 20  1  0  0  0  0
 15  7  1  0  0  0  0
 16 18  1  0  0  0  0
 18 19  1  0  0  0  0
 18 15  1  0  0  0  0
 19  8  1  0  0  0  0
 20 17  1  0  0  0  0
 21 11  1  0  0  0  0
 21 10  1  0  0  0  0
 21 16  1  0  0  0  0
 23 29  1  0  0  0  0
 24 27  2  0  0  0  0
 25 22  1  0  0  0  0
 26 30  1  0  0  0  0
 27 28  1  0  0  0  0
 27 25  1  0  0  0  0
 28 23  1  0  0  0  0
 29 22  1  0  0  0  0
 29 26  2  0  0  0  0
 30 31  2  0  0  0  0
 33 43  1  0  0  0  0
 33 34  2  0  0  0  0
 34 42  1  0  0  0  0
 36 30  1  0  0  0  0
 36 40  1  0  0  0  0
 37 33  1  0  0  0  0
 38 34  1  0  0  0  0
 38 35  2  0  0  0  0
 39 38  1  0  0  0  0
 40 32  1  0  0  0  0
 41 32  1  0  0  0  0
 42 41  1  0  0  0  0
 43 45  2  0  0  0  0
 44 37  1  0  0  0  0
 44 39  2  0  0  0  0
 45 36  1  0  0  0  0
 45 41  1  0  0  0  0
 46 47  1  0  0  0  0
 46  3  1  0  0  0  0
 47 53  1  0  0  0  0
 48 51  2  0  0  0  0
 49 50  2  0  0  0  0
 50 51  1  0  0  0  0
 50 55  1  0  0  0  0
 51 56  1  0  0  0  0
 52 48  1  0  0  0  0
 53 52  2  0  0  0  0
 53 49  1  0  0  0  0
 55 54  1  0  0  0  0
 56 57  1  0  0  0  0
 59 58  1  0  0  0  0
 59 57  1  0  0  0  0
M  END
>  <MODEL>
6

>  <REMARK>
 VINA RESULT:      -8.0      2.432     10.744
  Name = 
  11 active torsions:
  status: ('A' for Active; 'I' for Inactive)
    1  A    between atoms: C_10  and  C_24
    2  A    between atoms: C_10  and  N_44
    3  A    between atoms: C_13  and  C_43
    4  A    between atoms: C_13  and  C_53
    5  A    between atoms: C_14  and  C_32
    6  A    between atoms: C_20  and  C_51
    7  A    between atoms: C_25  and  O_45
    8  A    between atoms: C_29  and  O_52
    9  A    between atoms: C_29  and  O_57
   10  A    between atoms: C_33  and  C_53
   11  A    between atoms: C_36  and  O_57
                            x       y       z     vdW  Elec       q    Type
                         _______ _______ _______ _____ _____    ______ ____

>  <TORSDO>
F 11

$$$$
=
 OpenBabel11042414393D

 59 68  0  0  1  0  0  0  0  0999 V2000
  191.8640  173.7680  142.1210 C   0  0  0  0  0  0  0  0  0  0  0  0
  191.1460  174.9130  141.7270 C   0  0  0  0  0  3  0  0  0  0  0  0
  191.5480  173.1540  143.3540 C   0  0  0  0  0  0  0  0  0  0  0  0
  190.5230  173.6810  144.1450 C   0  0  0  0  0  3  0  0  0  0  0  0
  189.7950  174.8030  143.7370 C   0  0  0  0  0  0  0  0  0  0  0  0
  190.1160  175.4220  142.5250 C   0  0  0  0  0  3  0  0  0  0  0  0
  186.5210  179.2510  144.1710 N   0  0  0  0  0  2  0  0  0  0  0  0
  185.6260  176.8140  142.6490 C   0  0  0  0  0  2  0  0  0  0  0  0
  185.5720  179.0470  146.4100 C   0  0  0  0  0  1  0  0  0  0  0  0
  188.8120  176.1530  145.5200 C   0  0  1  0  0  3  0  0  0  0  0  0
  187.5530  177.0350  147.2470 O   0  0  0  0  0  0  0  0  0  0  0  0
  187.5310  175.6160  143.4580 N   0  0  0  0  0  0  0  0  0  0  0  0
  188.5050  175.1360  144.4190 C   0  0  1  0  0  3  0  0  0  0  0  0
  185.8230  179.3080  142.8920 C   0  0  0  0  0  2  0  0  0  0  0  0
  185.7490  178.3830  145.0570 C   0  0  2  0  0  3  0  0  0  0  0  0
  187.7430  177.0740  145.9040 C   0  0  1  0  0  0  0  0  0  0  0  0
  185.5360  178.2840  140.6540 C   0  0  0  0  0  1  0  0  0  0  0  0
  186.3960  176.9810  145.1520 C   0  0  2  0  0  3  0  0  0  0  0  0
  186.5270  176.3600  143.7670 C   0  0  0  0  0  0  0  0  0  0  0  0
  186.1570  178.0960  142.0240 C   0  0  2  0  0  3  0  0  0  0  0  0
  187.9520  175.8410  146.6690 N   0  0  1  0  0  0  0  0  0  0  0  0
  193.6850  174.1080  140.3800 C   0  0  0  0  0  2  0  0  0  0  0  0
  193.9070  172.2930  138.6060 O   0  0  0  0  0  0  0  0  0  0  0  0
  190.9140  172.0500  140.1810 O   0  0  0  0  0  0  0  0  0  0  0  0
  192.8220  173.1050  141.1580 C   0  0  2  0  0  3  0  0  0  0  0  0
  195.1630  174.2690  138.4730 N   0  0  0  0  0  0  0  0  0  0  0  0
  192.1270  172.1730  140.2050 C   0  0  0  0  0  0  0  0  0  0  0  0
  192.9830  171.4170  139.2500 C   0  0  0  0  0  2  0  0  0  0  0  0
  194.3140  173.5350  139.1280 C   0  0  0  0  0  0  0  0  0  0  0  0
  195.8250  173.8750  137.2570 C   0  0  0  0  0  0  0  0  0  0  0  0
  196.7350  173.0030  137.2800 O   0  0  0  0  0  0  0  0  0  0  0  0
  193.8440  176.3950  136.0840 C   0  0  0  0  0  2  0  0  0  0  0  0
  192.0840  172.7010  135.0960 C   0  0  0  0  0  0  0  0  0  0  0  0
  191.2330  173.7310  135.3090 C   0  0  0  0  0  0  0  0  0  0  0  0
  188.9760  174.4060  135.5650 O   0  0  0  0  0  0  0  0  0  0  0  0
  195.4140  174.4600  135.9300 C   0  0  2  0  0  3  0  0  0  0  0  0
  191.5930  171.3360  134.6820 C   0  0  0  0  0  2  0  0  0  0  0  0
  189.7880  173.5060  135.2080 C   0  0  0  0  0  0  0  0  0  0  0  0
  189.2970  172.2380  134.7750 N   0  0  0  0  0  0  0  0  0  0  0  0
  195.3320  176.0040  136.0020 C   0  0  0  0  0  2  0  0  0  0  0  0
  193.1340  175.1720  135.7930 N   0  0  0  0  0  0  0  0  0  0  0  0
  191.7470  175.0270  135.6610 N   0  0  0  0  0  2  0  0  0  0  0  0
  193.5440  172.8840  135.2940 C   0  0  0  0  0  3  0  0  0  0  0  0
  190.0930  171.2440  134.5220 C   0  0  0  0  0  3  0  0  0  0  0  0
  194.0090  174.0880  135.6330 C   0  0  0  0  0  0  0  0  0  0  0  0
  192.2030  171.8710  143.7890 C   0  0  0  0  0  2  0  0  0  0  0  0
  193.0730  172.1070  145.0210 C   0  0  0  0  0  2  0  0  0  0  0  0
  196.3530  173.3630  143.7360 N   0  0  0  0  0  0  0  0  0  0  0  0
  194.2320  174.3200  145.2100 C   0  0  0  0  0  3  0  0  0  0  0  0
  195.3310  175.1500  144.9700 C   0  0  0  0  0  0  0  0  0  0  0  0
  196.4060  174.6420  144.2020 C   0  0  0  0  0  0  0  0  0  0  0  0
  195.2890  172.5510  143.9690 C   0  0  0  0  0  3  0  0  0  0  0  0
  194.2060  173.0170  144.7120 C   0  0  0  0  0  0  0  0  0  0  0  0
  194.3940  176.8640  146.5120 C   0  0  0  0  0  1  0  0  0  0  0  0
  195.3140  176.4410  145.5210 O   0  0  0  0  0  0  0  0  0  0  0  0
  197.5090  175.4490  143.8990 O   0  0  0  0  0  0  0  0  0  0  0  0
  197.5020  176.4120  142.8460 C   0  0  0  0  0  2  0  0  0  0  0  0
  196.0110  176.7930  141.2550 C   0  0  0  0  0  1  0  0  0  0  0  0
  196.9670  175.8640  141.6780 O   0  0  0  0  0  0  0  0  0  0  0  0
  1  3  1  0  0  0  0
  2  1  2  0  0  0  0
  2  6  1  0  0  0  0
  3 46  1  0  0  0  0
  3  4  2  0  0  0  0
  5  4  1  0  0  0  0
  5 13  1  0  0  0  0
  6  5  2  0  0  0  0
  7 15  1  0  0  0  0
  8 19  1  0  0  0  0
 10 16  1  0  0  0  0
 10 21  1  0  0  0  0
 12 19  2  0  0  0  0
 12 13  1  0  0  0  0
 13 10  1  0  0  0  0
 14  7  1  0  0  0  0
 15 18  1  0  0  0  0
 15  9  1  0  0  0  0
 16 21  1  0  0  0  0
 16 11  1  0  0  0  0
 17 20  1  0  0  0  0
 18 16  1  0  0  0  0
 19 18  1  0  0  0  0
 20  8  1  0  0  0  0
 20 14  1  0  0  0  0
 21 11  1  0  0  0  0
 22 25  1  0  0  0  0
 23 29  1  0  0  0  0
 23 28  1  0  0  0  0
 24 27  2  0  0  0  0
 25  1  1  0  0  0  0
 26 29  2  0  0  0  0
 27 25  1  0  0  0  0
 28 27  1  0  0  0  0
 29 22  1  0  0  0  0
 30 31  2  0  0  0  0
 30 26  1  0  0  0  0
 33 43  1  0  0  0  0
 33 34  2  0  0  0  0
 34 42  1  0  0  0  0
 36 40  1  0  0  0  0
 36 30  1  0  0  0  0
 37 33  1  0  0  0  0
 38 34  1  0  0  0  0
 38 35  2  0  0  0  0
 39 38  1  0  0  0  0
 40 32  1  0  0  0  0
 41 32  1  0  0  0  0
 42 41  1  0  0  0  0
 43 45  2  0  0  0  0
 44 37  1  0  0  0  0
 44 39  2  0  0  0  0
 45 41  1  0  0  0  0
 45 36  1  0  0  0  0
 46 47  1  0  0  0  0
 48 52  1  0  0  0  0
 48 51  2  0  0  0  0
 50 49  2  0  0  0  0
 50 55  1  0  0  0  0
 51 50  1  0  0  0  0
 52 53  2  0  0  0  0
 53 47  1  0  0  0  0
 53 49  1  0  0  0  0
 55 54  1  0  0  0  0
 56 51  1  0  0  0  0
 57 56  1  0  0  0  0
 58 59  1  0  0  0  0
 59 57  1  0  0  0  0
M  END
>  <MODEL>
7

>  <REMARK>
 VINA RESULT:      -8.0      2.539     10.191
  Name = 
  11 active torsions:
  status: ('A' for Active; 'I' for Inactive)
    1  A    between atoms: C_10  and  C_24
    2  A    between atoms: C_10  and  N_44
    3  A    between atoms: C_13  and  C_43
    4  A    between atoms: C_13  and  C_53
    5  A    between atoms: C_14  and  C_32
    6  A    between atoms: C_20  and  C_51
    7  A    between atoms: C_25  and  O_45
    8  A    between atoms: C_29  and  O_52
    9  A    between atoms: C_29  and  O_57
   10  A    between atoms: C_33  and  C_53
   11  A    between atoms: C_36  and  O_57
                            x       y       z     vdW  Elec       q    Type
                         _______ _______ _______ _____ _____    ______ ____

>  <TORSDO>
F 11

$$$$
=
 OpenBabel11042414393D

 59 68  0  0  1  0  0  0  0  0999 V2000
  186.4250  178.2120  144.8110 C   0  0  0  0  0  0  0  0  0  0  0  0
  185.6080  179.3230  145.0920 C   0  0  0  0  0  3  0  0  0  0  0  0
  186.0130  177.2930  143.8190 C   0  0  0  0  0  0  0  0  0  0  0  0
  184.8180  177.5140  143.1270 C   0  0  0  0  0  3  0  0  0  0  0  0
  184.0230  178.6340  143.3920 C   0  0  0  0  0  0  0  0  0  0  0  0
  184.4200  179.5350  144.3840 C   0  0  0  0  0  3  0  0  0  0  0  0
  178.8150  177.0660  142.3360 N   0  0  0  0  0  2  0  0  0  0  0  0
  179.4090  179.7810  143.4900 C   0  0  0  0  0  2  0  0  0  0  0  0
  178.6010  177.3770  139.9250 C   0  0  0  0  0  1  0  0  0  0  0  0
  182.7290  177.8430  141.4760 C   0  0  1  0  0  3  0  0  0  0  0  0
  181.5100  177.5930  139.5270 O   0  0  0  0  0  0  0  0  0  0  0  0
  181.7450  179.4160  143.1320 N   0  0  0  0  0  0  0  0  0  0  0  0
  182.9490  179.0230  142.4250 C   0  0  1  0  0  3  0  0  0  0  0  0
  178.0330  177.6800  143.4030 C   0  0  0  0  0  2  0  0  0  0  0  0
  178.9240  178.0400  141.2520 C   0  0  2  0  0  3  0  0  0  0  0  0
  181.4030  177.6990  140.8760 C   0  0  1  0  0  0  0  0  0  0  0  0
  178.0810  179.0660  145.4570 C   0  0  0  0  0  1  0  0  0  0  0  0
  180.3120  178.7210  141.2660 C   0  0  2  0  0  3  0  0  0  0  0  0
  180.5680  179.3830  142.6140 C   0  0  0  0  0  0  0  0  0  0  0  0
  178.9020  178.5820  144.2780 C   0  0  2  0  0  3  0  0  0  0  0  0
  182.4660  178.3880  140.1380 N   0  0  1  0  0  0  0  0  0  0  0  0
  188.9010  177.8080  144.3980 C   0  0  0  0  0  2  0  0  0  0  0  0
  190.2290  176.8360  146.3430 O   0  0  0  0  0  0  0  0  0  0  0  0
  186.9030  176.4160  146.8510 O   0  0  0  0  0  0  0  0  0  0  0  0
  187.8030  178.1090  145.4260 C   0  0  2  0  0  3  0  0  0  0  0  0
  191.2090  177.1060  144.2300 N   0  0  0  0  0  0  0  0  0  0  0  0
  187.8580  177.1110  146.5500 C   0  0  0  0  0  0  0  0  0  0  0  0
  189.1530  176.9740  147.2700 C   0  0  0  0  0  2  0  0  0  0  0  0
  190.1790  177.2700  145.0050 C   0  0  0  0  0  0  0  0  0  0  0  0
  192.4820  176.5840  144.6520 C   0  0  0  0  0  0  0  0  0  0  0  0
  193.3230  177.3340  145.2170 O   0  0  0  0  0  0  0  0  0  0  0  0
  195.1600  174.5090  145.0720 C   0  0  0  0  0  2  0  0  0  0  0  0
  194.3950  174.9370  140.9550 C   0  0  0  0  0  0  0  0  0  0  0  0
  195.6850  174.7300  141.3050 C   0  0  0  0  0  0  0  0  0  0  0  0
  197.9410  174.6650  140.5810 O   0  0  0  0  0  0  0  0  0  0  0  0
  192.8170  175.1260  144.4700 C   0  0  2  0  0  3  0  0  0  0  0  0
  193.9710  175.0520  139.5110 C   0  0  0  0  0  2  0  0  0  0  0  0
  196.7180  174.6890  140.2650 C   0  0  0  0  0  0  0  0  0  0  0  0
  196.3400  174.7500  138.8900 N   0  0  0  0  0  0  0  0  0  0  0  0
  193.7230  174.6130  145.6150 C   0  0  0  0  0  2  0  0  0  0  0  0
  195.0190  174.6820  143.6450 N   0  0  0  0  0  0  0  0  0  0  0  0
  196.0390  174.5830  142.6910 N   0  0  0  0  0  2  0  0  0  0  0  0
  193.3510  175.0840  142.0000 C   0  0  0  0  0  3  0  0  0  0  0  0
  195.1040  174.9050  138.5230 C   0  0  0  0  0  3  0  0  0  0  0  0
  193.6930  174.9590  143.2840 C   0  0  0  0  0  0  0  0  0  0  0  0
  186.8850  176.1420  143.3960 C   0  0  0  0  0  2  0  0  0  0  0  0
  187.0950  176.1600  141.8840 C   0  0  0  0  0  2  0  0  0  0  0  0
  189.0640  173.7930  139.7610 N   0  0  0  0  0  0  0  0  0  0  0  0
  188.9160  174.5230  142.4140 C   0  0  0  0  0  3  0  0  0  0  0  0
  189.8130  173.5230  142.0260 C   0  0  0  0  0  0  0  0  0  0  0  0
  189.8810  173.1710  140.6570 C   0  0  0  0  0  0  0  0  0  0  0  0
  188.1880  174.7630  140.1330 C   0  0  0  0  0  3  0  0  0  0  0  0
  188.0990  175.1470  141.4700 C   0  0  0  0  0  0  0  0  0  0  0  0
  190.0470  172.3050  144.1830 C   0  0  0  0  0  1  0  0  0  0  0  0
  190.5890  172.9120  143.0230 O   0  0  0  0  0  0  0  0  0  0  0  0
  190.7940  172.2060  140.2130 O   0  0  0  0  0  0  0  0  0  0  0  0
  190.5100  171.2970  139.1510 C   0  0  0  0  0  2  0  0  0  0  0  0
  191.8360  172.3770  137.7450 C   0  0  0  0  0  1  0  0  0  0  0  0
  191.6300  171.1250  138.3340 O   0  0  0  0  0  0  0  0  0  0  0  0
  1  2  1  0  0  0  0
  1 25  1  0  0  0  0
  3  1  2  0  0  0  0
  4  5  2  0  0  0  0
  4  3  1  0  0  0  0
  5  6  1  0  0  0  0
  6  2  2  0  0  0  0
  7 14  1  0  0  0  0
  8 20  1  0  0  0  0
  9 15  1  0  0  0  0
 10 13  1  0  0  0  0
 11 21  1  0  0  0  0
 11 16  1  0  0  0  0
 13 12  1  0  0  0  0
 13  5  1  0  0  0  0
 14 20  1  0  0  0  0
 15 18  1  0  0  0  0
 15  7  1  0  0  0  0
 16 18  1  0  0  0  0
 16 10  1  0  0  0  0
 18 19  1  0  0  0  0
 19 12  2  0  0  0  0
 19  8  1  0  0  0  0
 20 17  1  0  0  0  0
 21 16  1  0  0  0  0
 21 10  1  0  0  0  0
 22 29  1  0  0  0  0
 22 25  1  0  0  0  0
 23 28  1  0  0  0  0
 25 27  1  0  0  0  0
 26 30  1  0  0  0  0
 26 29  2  0  0  0  0
 27 24  2  0  0  0  0
 27 28  1  0  0  0  0
 29 23  1  0  0  0  0
 30 31  2  0  0  0  0
 32 40  1  0  0  0  0
 33 34  2  0  0  0  0
 33 43  1  0  0  0  0
 34 42  1  0  0  0  0
 36 30  1  0  0  0  0
 36 40  1  0  0  0  0
 37 33  1  0  0  0  0
 38 35  2  0  0  0  0
 38 34  1  0  0  0  0
 39 38  1  0  0  0  0
 41 32  1  0  0  0  0
 42 41  1  0  0  0  0
 43 45  2  0  0  0  0
 44 39  2  0  0  0  0
 44 37  1  0  0  0  0
 45 41  1  0  0  0  0
 45 36  1  0  0  0  0
 46  3  1  0  0  0  0
 47 46  1  0  0  0  0
 48 52  1  0  0  0  0
 48 51  2  0  0  0  0
 50 49  2  0  0  0  0
 50 55  1  0  0  0  0
 51 50  1  0  0  0  0
 52 53  2  0  0  0  0
 53 47  1  0  0  0  0
 53 49  1  0  0  0  0
 55 54  1  0  0  0  0
 56 51  1  0  0  0  0
 57 56  1  0  0  0  0
 58 59  1  0  0  0  0
 59 57  1  0  0  0  0
M  END
>  <MODEL>
8

>  <REMARK>
 VINA RESULT:      -7.9      2.657     11.199
  Name = 
  11 active torsions:
  status: ('A' for Active; 'I' for Inactive)
    1  A    between atoms: C_10  and  C_24
    2  A    between atoms: C_10  and  N_44
    3  A    between atoms: C_13  and  C_43
    4  A    between atoms: C_13  and  C_53
    5  A    between atoms: C_14  and  C_32
    6  A    between atoms: C_20  and  C_51
    7  A    between atoms: C_25  and  O_45
    8  A    between atoms: C_29  and  O_52
    9  A    between atoms: C_29  and  O_57
   10  A    between atoms: C_33  and  C_53
   11  A    between atoms: C_36  and  O_57
                            x       y       z     vdW  Elec       q    Type
                         _______ _______ _______ _____ _____    ______ ____

>  <TORSDO>
F 11

$$$$
=
 OpenBabel11042414393D

 59 68  0  0  1  0  0  0  0  0999 V2000
  193.0790  176.0460  144.6840 C   0  0  0  0  0  0  0  0  0  0  0  0
  194.3790  176.4780  145.0080 C   0  0  0  0  0  3  0  0  0  0  0  0
  192.8970  174.7400  144.1770 C   0  0  0  0  0  0  0  0  0  0  0  0
  194.0040  173.8990  144.0240 C   0  0  0  0  0  3  0  0  0  0  0  0
  195.2910  174.3230  144.3710 C   0  0  0  0  0  0  0  0  0  0  0  0
  195.4750  175.6200  144.8580 C   0  0  0  0  0  3  0  0  0  0  0  0
  196.2960  169.1930  142.5340 N   0  0  0  0  0  2  0  0  0  0  0  0
  197.9400  171.5280  141.5820 C   0  0  0  0  0  2  0  0  0  0  0  0
  197.5530  168.1680  144.3570 C   0  0  0  0  0  1  0  0  0  0  0  0
  195.8270  172.1380  145.3230 C   0  0  1  0  0  3  0  0  0  0  0  0
  196.8060  170.2720  146.2770 O   0  0  0  0  0  0  0  0  0  0  0  0
  196.8980  172.9230  143.2210 N   0  0  0  0  0  0  0  0  0  0  0  0
  196.3860  173.3140  144.5200 C   0  0  1  0  0  3  0  0  0  0  0  0
  196.7020  169.3840  141.1460 C   0  0  0  0  0  2  0  0  0  0  0  0
  197.4920  169.3150  143.3650 C   0  0  2  0  0  3  0  0  0  0  0  0
  196.4250  170.8220  145.0960 C   0  0  1  0  0  0  0  0  0  0  0  0
  197.0810  171.0090  139.3140 C   0  0  0  0  0  1  0  0  0  0  0  0
  197.5490  170.7040  144.0420 C   0  0  2  0  0  3  0  0  0  0  0  0
  197.5040  171.8100  142.9950 C   0  0  0  0  0  0  0  0  0  0  0  0
  196.8130  170.8680  140.8000 C   0  0  2  0  0  3  0  0  0  0  0  0
  196.8940  171.6530  146.2090 N   0  0  1  0  0  0  0  0  0  0  0  0
  190.7940  176.1210  145.7960 C   0  0  0  0  0  2  0  0  0  0  0  0
  189.1720  177.8850  144.9320 O   0  0  0  0  0  0  0  0  0  0  0  0
  191.7040  177.4210  142.7250 O   0  0  0  0  0  0  0  0  0  0  0  0
  191.8850  176.8990  145.0490 C   0  0  2  0  0  3  0  0  0  0  0  0
  188.4850  176.2790  146.4970 N   0  0  0  0  0  0  0  0  0  0  0  0
  191.2950  177.6040  143.8590 C   0  0  0  0  0  0  0  0  0  0  0  0
  190.1510  178.5220  144.1140 C   0  0  0  0  0  2  0  0  0  0  0  0
  189.4390  176.7970  145.7840 C   0  0  0  0  0  0  0  0  0  0  0  0
  187.1420  176.7910  146.5700 C   0  0  0  0  0  0  0  0  0  0  0  0
  186.1980  176.0520  146.9590 O   0  0  0  0  0  0  0  0  0  0  0  0
  184.4730  178.9190  146.5900 C   0  0  0  0  0  2  0  0  0  0  0  0
  185.5430  178.1050  142.6010 C   0  0  0  0  0  0  0  0  0  0  0  0
  184.2340  178.3550  142.8300 C   0  0  0  0  0  0  0  0  0  0  0  0
  182.0400  178.3720  141.9300 O   0  0  0  0  0  0  0  0  0  0  0  0
  186.8450  178.2290  146.2300 C   0  0  2  0  0  3  0  0  0  0  0  0
  186.0740  177.8520  141.2110 C   0  0  0  0  0  2  0  0  0  0  0  0
  183.2840  178.3080  141.7130 C   0  0  0  0  0  0  0  0  0  0  0  0
  183.7640  178.1160  140.3830 N   0  0  0  0  0  0  0  0  0  0  0  0
  185.8630  178.8530  147.2500 C   0  0  0  0  0  2  0  0  0  0  0  0
  184.7190  178.6140  145.2000 N   0  0  0  0  0  0  0  0  0  0  0  0
  183.7770  178.6330  144.1640 N   0  0  0  0  0  2  0  0  0  0  0  0
  186.5020  178.0460  143.7330 C   0  0  0  0  0  3  0  0  0  0  0  0
  185.0210  177.9170  140.1290 C   0  0  0  0  0  3  0  0  0  0  0  0
  186.0650  178.2930  144.9700 C   0  0  0  0  0  0  0  0  0  0  0  0
  191.5280  174.1790  143.9080 C   0  0  0  0  0  2  0  0  0  0  0  0
  191.5860  172.6580  143.8000 C   0  0  0  0  0  2  0  0  0  0  0  0
  190.7950  170.4280  140.9030 N   0  0  0  0  0  0  0  0  0  0  0  0
  190.6040  173.1030  141.5380 C   0  0  0  0  0  3  0  0  0  0  0  0
  190.2060  172.6680  140.2700 C   0  0  0  0  0  0  0  0  0  0  0  0
  190.3030  171.2890  139.9680 C   0  0  0  0  0  0  0  0  0  0  0  0
  191.1870  170.8460  142.1360 C   0  0  0  0  0  3  0  0  0  0  0  0
  191.0960  172.1940  142.4760 C   0  0  0  0  0  0  0  0  0  0  0  0
  188.4420  174.1830  139.3850 C   0  0  0  0  0  1  0  0  0  0  0  0
  189.7470  173.6310  139.3590 O   0  0  0  0  0  0  0  0  0  0  0  0
  189.8760  170.8000  138.7270 O   0  0  0  0  0  0  0  0  0  0  0  0
  190.7660  170.2270  137.7700 C   0  0  0  0  0  2  0  0  0  0  0  0
  192.0280  171.8200  136.8910 C   0  0  0  0  0  1  0  0  0  0  0  0
  192.0320  170.8120  137.8600 O   0  0  0  0  0  0  0  0  0  0  0  0
  1  2  1  0  0  0  0
  1 25  1  0  0  0  0
  3  1  2  0  0  0  0
  4  3  1  0  0  0  0
  4  5  2  0  0  0  0
  5 13  1  0  0  0  0
  5  6  1  0  0  0  0
  6  2  2  0  0  0  0
  7 15  1  0  0  0  0
  8 19  1  0  0  0  0
 10 21  1  0  0  0  0
 12 13  1  0  0  0  0
 13 10  1  0  0  0  0
 14  7  1  0  0  0  0
 15 18  1  0  0  0  0
 15  9  1  0  0  0  0
 16 10  1  0  0  0  0
 16 21  1  0  0  0  0
 16 11  1  0  0  0  0
 17 20  1  0  0  0  0
 18 16  1  0  0  0  0
 19 12  2  0  0  0  0
 19 18  1  0  0  0  0
 20 14  1  0  0  0  0
 20  8  1  0  0  0  0
 21 11  1  0  0  0  0
 23 29  1  0  0  0  0
 24 27  2  0  0  0  0
 25 22  1  0  0  0  0
 26 30  1  0  0  0  0
 27 28  1  0  0  0  0
 27 25  1  0  0  0  0
 28 23  1  0  0  0  0
 29 22  1  0  0  0  0
 29 26  2  0  0  0  0
 30 31  2  0  0  0  0
 32 40  1  0  0  0  0
 33 34  2  0  0  0  0
 33 43  1  0  0  0  0
 34 42  1  0  0  0  0
 36 30  1  0  0  0  0
 36 40  1  0  0  0  0
 37 33  1  0  0  0  0
 38 35  2  0  0  0  0
 38 34  1  0  0  0  0
 39 38  1  0  0  0  0
 41 32  1  0  0  0  0
 42 41  1  0  0  0  0
 43 45  2  0  0  0  0
 44 39  2  0  0  0  0
 44 37  1  0  0  0  0
 45 41  1  0  0  0  0
 45 36  1  0  0  0  0
 46  3  1  0  0  0  0
 47 46  1  0  0  0  0
 48 52  1  0  0  0  0
 49 53  1  0  0  0  0
 50 49  2  0  0  0  0
 51 50  1  0  0  0  0
 51 48  2  0  0  0  0
 52 53  2  0  0  0  0
 53 47  1  0  0  0  0
 55 54  1  0  0  0  0
 55 50  1  0  0  0  0
 56 51  1  0  0  0  0
 57 59  1  0  0  0  0
 57 56  1  0  0  0  0
 58 59  1  0  0  0  0
M  END
>  <MODEL>
9

>  <REMARK>
 VINA RESULT:      -7.7      2.361      3.310
  Name = 
  11 active torsions:
  status: ('A' for Active; 'I' for Inactive)
    1  A    between atoms: C_10  and  C_24
    2  A    between atoms: C_10  and  N_44
    3  A    between atoms: C_13  and  C_43
    4  A    between atoms: C_13  and  C_53
    5  A    between atoms: C_14  and  C_32
    6  A    between atoms: C_20  and  C_51
    7  A    between atoms: C_25  and  O_45
    8  A    between atoms: C_29  and  O_52
    9  A    between atoms: C_29  and  O_57
   10  A    between atoms: C_33  and  C_53
   11  A    between atoms: C_36  and  O_57
                            x       y       z     vdW  Elec       q    Type
                         _______ _______ _______ _____ _____    ______ ____

>  <TORSDO>
F 11

$$$$
