=
 OpenBabel11042419043D

 43 45  0  0  1  0  0  0  0  0999 V2000
  187.1700  175.3280  142.3160 C   0  0  0  0  0  3  0  0  0  0  0  0
  186.9030  176.2550  143.3160 C   0  0  0  0  0  0  0  0  0  0  0  0
  187.9320  176.3270  144.1960 N   0  0  0  0  0  0  0  0  0  0  0  0
  190.2920  176.0150  145.6170 C   0  0  0  0  0  0  0  0  0  0  0  0
  189.3030  176.9370  146.0550 C   0  0  0  0  0  0  0  0  0  0  0  0
  188.1090  177.0880  145.3180 C   0  0  0  0  0  0  0  0  0  0  0  0
  190.0560  175.2750  144.4440 C   0  0  0  0  0  3  0  0  0  0  0  0
  189.4940  177.7010  147.2020 O   0  0  0  0  0  1  0  0  0  0  0  0
  188.8600  175.4600  143.7610 C   0  0  0  0  0  0  0  0  0  0  0  0
  188.4280  174.8250  142.6120 C   0  0  0  0  0  0  0  0  0  0  0  0
  191.5400  175.2330  147.6830 N   0  0  0  0  0  1  0  0  0  0  0  0
  191.5600  175.7900  146.3680 C   0  0  0  0  0  0  0  0  0  0  0  0
  192.7350  176.0830  145.8020 C   0  0  0  0  0  3  0  0  0  0  0  0
  194.0450  175.8470  146.4810 C   0  0  0  0  0  2  0  0  0  0  0  0
  194.7740  174.7310  145.8180 C   0  0  0  0  0  0  0  0  0  0  0  0
  196.4860  173.5970  144.7270 C   0  0  0  0  0  3  0  0  0  0  0  0
  195.5260  172.5930  144.8080 C   0  0  0  0  0  0  0  0  0  0  0  0
  196.0610  174.8050  145.2980 C   0  0  0  0  0  3  0  0  0  0  0  0
  194.1510  173.1910  145.5790 S   0  0  0  0  0  0  0  0  0  0  0  0
  195.6700  171.2640  144.2730 N   0  0  0  0  0  0  0  0  0  0  0  0
  196.7580  170.3980  144.7080 C   0  0  0  0  0  2  0  0  0  0  0  0
  196.6960  170.1960  146.2090 C   0  0  0  0  0  1  0  0  0  0  0  0
  194.8560  170.8150  143.1530 C   0  0  0  0  0  2  0  0  0  0  0  0
  195.0050  171.7700  141.9800 C   0  0  0  0  0  2  0  0  0  0  0  0
  193.6650  172.0890  141.4070 C   0  0  0  0  0  0  0  0  0  0  0  0
  193.0360  171.2310  140.8020 O   0  0  0  0  0  0  0  0  0  0  0  0
  194.0610  174.3040  142.1400 O   0  0  0  0  0  1  0  0  0  0  0  0
  193.0950  173.4590  141.5940 C   0  0  1  0  0  3  0  0  0  0  0  0
  192.6070  174.0240  140.2740 C   0  0  0  0  0  1  0  0  0  0  0  0
  185.6180  177.0070  143.4130 C   0  0  0  0  0  2  0  0  0  0  0  0
  185.7110  178.2330  142.6400 N   0  0  0  0  0  2  0  0  0  0  0  0
  185.4910  177.9540  140.2490 C   0  0  0  0  0  1  0  0  0  0  0  0
  184.7510  178.1190  141.5580 C   0  0  0  0  0  2  0  0  0  0  0  0
  187.0600  178.0460  145.7930 C   0  0  0  0  0  2  0  0  0  0  0  0
  186.1840  177.3820  146.8410 C   0  0  0  0  0  2  0  0  0  0  0  0
  184.1590  178.5940  146.4900 O   0  0  0  0  0  1  0  0  0  0  0  0
  185.1910  178.3820  147.4050 C   0  0  0  0  0  3  0  0  0  0  0  0
  185.8430  179.5890  147.6520 O   0  0  0  0  0  1  0  0  0  0  0  0
  189.1690  173.8210  141.7790 C   0  0  2  0  0  3  0  0  0  0  0  0
  188.5730  174.0860  139.1850 C   0  0  0  0  0  3  0  0  0  0  0  0
  188.8400  173.9670  140.3550 C   0  0  0  0  0  0  0  0  0  0  0  0
  189.9220  171.6940  141.8910 O   0  0  0  0  0  1  0  0  0  0  0  0
  188.8610  172.4700  142.2200 N   0  0  0  0  0  2  0  0  0  0  0  0
  1 10  1  0  0  0  0
  1  2  2  0  0  0  0
  2 30  1  0  0  0  0
  2  3  1  0  0  0  0
  3  6  1  0  0  0  0
  4  5  1  0  0  0  0
  4 12  1  0  0  0  0
  5  8  1  0  0  0  0
  6 34  1  0  0  0  0
  6  5  2  0  0  0  0
  7  4  2  0  0  0  0
  9  3  1  0  0  0  0
  9  7  1  0  0  0  0
 10  9  2  0  0  0  0
 12 11  1  0  0  0  0
 13 12  2  0  0  0  0
 13 14  1  0  0  0  0
 15 14  1  0  0  0  0
 16 17  2  0  0  0  0
 16 18  1  0  0  0  0
 17 19  1  0  0  0  0
 18 15  2  0  0  0  0
 19 15  1  0  0  0  0
 20 21  1  0  0  0  0
 20 17  1  0  0  0  0
 21 22  1  0  0  0  0
 23 20  1  0  0  0  0
 24 23  1  0  0  0  0
 25 28  1  0  0  0  0
 25 24  1  0  0  0  0
 26 25  2  0  0  0  0
 28 29  1  6  0  0  0
 28 27  1  0  0  0  0
 31 30  1  0  0  0  0
 32 33  1  0  0  0  0
 33 31  1  0  0  0  0
 34 35  1  0  0  0  0
 35 37  1  0  0  0  0
 36 37  1  0  0  0  0
 37 38  1  0  0  0  0
 39 41  1  6  0  0  0
 39 43  1  0  0  0  0
 39 10  1  0  0  0  0
 40 41  3  0  0  0  0
 42 43  1  0  0  0  0
M  END
>  <MODEL>
1

>  <REMARK>
 VINA RESULT:      -5.9      0.000      0.000
  Name = 
  18 active torsions:
  status: ('A' for Active; 'I' for Inactive)
    1  A    between atoms: C_2  and  C_34
    2  A    between atoms: C_2  and  C_39
    3  A    between atoms: C_4  and  C_5
    4  A    between atoms: C_4  and  C_41
    5  A    between atoms: C_6  and  C_28
    6  A    between atoms: C_9  and  N_17
    7  A    between atoms: C_9  and  C_42
    8  A    between atoms: C_9  and  C_43
    9  A    between atoms: C_12  and  N_23
   10  A    between atoms: C_13  and  C_14
   11  A    between atoms: C_14  and  N_19
   12  A    between atoms: N_19  and  C_37
   13  A    between atoms: C_20  and  C_21
   14  A    between atoms: N_23  and  C_29
   15  A    between atoms: N_23  and  C_30
   16  A    between atoms: C_25  and  C_34
   17  A    between atoms: C_26  and  C_28
   18  A    between atoms: C_30  and  C_41
                            x       y       z     vdW  Elec       q    Type
                         _______ _______ _______ _____ _____    ______ ____

>  <TORSDO>
F 18

$$$$
=
 OpenBabel11042419043D

 43 45  0  0  1  0  0  0  0  0999 V2000
  187.1420  175.3830  142.2610 C   0  0  0  0  0  3  0  0  0  0  0  0
  186.8690  176.2820  143.2850 C   0  0  0  0  0  0  0  0  0  0  0  0
  187.9250  176.3870  144.1300 N   0  0  0  0  0  0  0  0  0  0  0  0
  190.3460  176.1600  145.4630 C   0  0  0  0  0  0  0  0  0  0  0  0
  189.3320  177.0300  145.9500 C   0  0  0  0  0  0  0  0  0  0  0  0
  188.1070  177.1390  145.2570 C   0  0  0  0  0  0  0  0  0  0  0  0
  190.1000  175.4280  144.2870 C   0  0  0  0  0  3  0  0  0  0  0  0
  189.5300  177.7850  147.1020 O   0  0  0  0  0  1  0  0  0  0  0  0
  188.8740  175.5690  143.6490 C   0  0  0  0  0  0  0  0  0  0  0  0
  188.4300  174.9320  142.5050 C   0  0  0  0  0  0  0  0  0  0  0  0
  191.7490  175.1310  147.3090 N   0  0  0  0  0  1  0  0  0  0  0  0
  191.6480  175.9810  146.1660 C   0  0  0  0  0  0  0  0  0  0  0  0
  192.7450  176.5950  145.7120 C   0  0  0  0  0  3  0  0  0  0  0  0
  194.0890  176.4300  146.3420 C   0  0  0  0  0  2  0  0  0  0  0  0
  195.0010  175.6960  145.4230 C   0  0  0  0  0  0  0  0  0  0  0  0
  196.5000  175.3290  143.6830 C   0  0  0  0  0  3  0  0  0  0  0  0
  196.3650  174.0360  144.1810 C   0  0  0  0  0  0  0  0  0  0  0  0
  195.7300  176.2670  144.3850 C   0  0  0  0  0  3  0  0  0  0  0  0
  195.2940  174.0450  145.4840 S   0  0  0  0  0  0  0  0  0  0  0  0
  197.0050  172.8680  143.6360 N   0  0  0  0  0  0  0  0  0  0  0  0
  197.9350  172.0830  144.4360 C   0  0  0  0  0  2  0  0  0  0  0  0
  197.2640  170.8140  144.9220 C   0  0  0  0  0  1  0  0  0  0  0  0
  196.8920  172.5430  142.2210 C   0  0  0  0  0  2  0  0  0  0  0  0
  195.4430  172.2510  141.8640 C   0  0  0  0  0  2  0  0  0  0  0  0
  195.0940  172.9050  140.5690 C   0  0  0  0  0  0  0  0  0  0  0  0
  194.8930  172.2240  139.5730 O   0  0  0  0  0  0  0  0  0  0  0  0
  195.0470  174.8220  139.1820 O   0  0  0  0  0  1  0  0  0  0  0  0
  194.9770  174.3950  140.5080 C   0  0  1  0  0  3  0  0  0  0  0  0
  193.6720  174.8580  141.1280 C   0  0  0  0  0  1  0  0  0  0  0  0
  185.5570  176.9750  143.4390 C   0  0  0  0  0  2  0  0  0  0  0  0
  185.4920  178.1050  142.5300 N   0  0  0  0  0  2  0  0  0  0  0  0
  184.1350  178.2820  140.5370 C   0  0  0  0  0  1  0  0  0  0  0  0
  184.1260  178.1750  142.0460 C   0  0  0  0  0  2  0  0  0  0  0  0
  187.0350  178.0410  145.7840 C   0  0  0  0  0  2  0  0  0  0  0  0
  186.2580  177.3400  146.8850 C   0  0  0  0  0  2  0  0  0  0  0  0
  184.1080  178.3530  146.6790 O   0  0  0  0  0  1  0  0  0  0  0  0
  185.2390  178.2870  147.4930 C   0  0  0  0  0  3  0  0  0  0  0  0
  185.8010  179.5570  147.6060 O   0  0  0  0  0  1  0  0  0  0  0  0
  189.1860  173.9750  141.6310 C   0  0  2  0  0  3  0  0  0  0  0  0
  188.4560  174.2210  139.0690 C   0  0  0  0  0  3  0  0  0  0  0  0
  188.7830  174.1120  140.2240 C   0  0  0  0  0  0  0  0  0  0  0  0
  190.1880  172.0950  142.3800 O   0  0  0  0  0  1  0  0  0  0  0  0
  188.9720  172.6060  142.0740 N   0  0  0  0  0  2  0  0  0  0  0  0
  1 10  1  0  0  0  0
  1  2  2  0  0  0  0
  2 30  1  0  0  0  0
  2  3  1  0  0  0  0
  3  6  1  0  0  0  0
  4  5  1  0  0  0  0
  4 12  1  0  0  0  0
  5  8  1  0  0  0  0
  6 34  1  0  0  0  0
  6  5  2  0  0  0  0
  7  4  2  0  0  0  0
  9  3  1  0  0  0  0
  9  7  1  0  0  0  0
 10  9  2  0  0  0  0
 12 11  1  0  0  0  0
 13 12  2  0  0  0  0
 13 14  1  0  0  0  0
 15 19  1  0  0  0  0
 15 14  1  0  0  0  0
 16 17  2  0  0  0  0
 16 18  1  0  0  0  0
 17 19  1  0  0  0  0
 18 15  2  0  0  0  0
 20 17  1  0  0  0  0
 20 21  1  0  0  0  0
 21 22  1  0  0  0  0
 23 20  1  0  0  0  0
 24 23  1  0  0  0  0
 25 24  1  0  0  0  0
 26 25  2  0  0  0  0
 27 28  1  0  0  0  0
 28 25  1  0  0  0  0
 28 29  1  6  0  0  0
 31 30  1  0  0  0  0
 32 33  1  0  0  0  0
 33 31  1  0  0  0  0
 34 35  1  0  0  0  0
 35 37  1  0  0  0  0
 36 37  1  0  0  0  0
 37 38  1  0  0  0  0
 39 41  1  6  0  0  0
 39 43  1  0  0  0  0
 39 10  1  0  0  0  0
 40 41  3  0  0  0  0
 43 42  1  0  0  0  0
M  END
>  <MODEL>
2

>  <REMARK>
 VINA RESULT:      -5.9      1.135      1.235
  Name = 
  18 active torsions:
  status: ('A' for Active; 'I' for Inactive)
    1  A    between atoms: C_2  and  C_34
    2  A    between atoms: C_2  and  C_39
    3  A    between atoms: C_4  and  C_5
    4  A    between atoms: C_4  and  C_41
    5  A    between atoms: C_6  and  C_28
    6  A    between atoms: C_9  and  N_17
    7  A    between atoms: C_9  and  C_42
    8  A    between atoms: C_9  and  C_43
    9  A    between atoms: C_12  and  N_23
   10  A    between atoms: C_13  and  C_14
   11  A    between atoms: C_14  and  N_19
   12  A    between atoms: N_19  and  C_37
   13  A    between atoms: C_20  and  C_21
   14  A    between atoms: N_23  and  C_29
   15  A    between atoms: N_23  and  C_30
   16  A    between atoms: C_25  and  C_34
   17  A    between atoms: C_26  and  C_28
   18  A    between atoms: C_30  and  C_41
                            x       y       z     vdW  Elec       q    Type
                         _______ _______ _______ _____ _____    ______ ____

>  <TORSDO>
F 18

$$$$
=
 OpenBabel11042419043D

 43 45  0  0  1  0  0  0  0  0999 V2000
  187.6150  175.2640  142.2270 C   0  0  0  0  0  3  0  0  0  0  0  0
  187.3310  176.1040  143.2970 C   0  0  0  0  0  0  0  0  0  0  0  0
  188.3780  176.1620  144.1570 N   0  0  0  0  0  0  0  0  0  0  0  0
  190.7860  175.8610  145.5000 C   0  0  0  0  0  0  0  0  0  0  0  0
  189.7660  176.7020  146.0240 C   0  0  0  0  0  0  0  0  0  0  0  0
  188.5490  176.8490  145.3270 C   0  0  0  0  0  0  0  0  0  0  0  0
  190.5530  175.1970  144.2820 C   0  0  0  0  0  3  0  0  0  0  0  0
  189.9520  177.3920  147.2190 O   0  0  0  0  0  1  0  0  0  0  0  0
  189.3330  175.3730  143.6400 C   0  0  0  0  0  0  0  0  0  0  0  0
  188.9010  174.8010  142.4580 C   0  0  0  0  0  0  0  0  0  0  0  0
  192.1370  174.8760  147.4070 N   0  0  0  0  0  1  0  0  0  0  0  0
  192.0810  175.6440  146.2040 C   0  0  0  0  0  0  0  0  0  0  0  0
  193.2120  176.1440  145.6980 C   0  0  0  0  0  3  0  0  0  0  0  0
  194.5490  175.9330  146.3290 C   0  0  0  0  0  2  0  0  0  0  0  0
  195.3800  175.0320  145.4830 C   0  0  0  0  0  0  0  0  0  0  0  0
  197.0520  173.5210  144.9060 C   0  0  0  0  0  3  0  0  0  0  0  0
  196.4370  173.7070  143.6710 C   0  0  0  0  0  0  0  0  0  0  0  0
  196.4540  174.2700  145.9300 C   0  0  0  0  0  3  0  0  0  0  0  0
  195.1600  174.7950  143.8360 S   0  0  0  0  0  0  0  0  0  0  0  0
  196.8600  173.0980  142.4370 N   0  0  0  0  0  0  0  0  0  0  0  0
  197.7960  173.7770  141.5510 C   0  0  0  0  0  2  0  0  0  0  0  0
  197.0650  174.3250  140.3410 C   0  0  0  0  0  1  0  0  0  0  0  0
  196.2260  171.8830  141.9460 C   0  0  0  0  0  2  0  0  0  0  0  0
  195.9210  170.9460  143.1030 C   0  0  0  0  0  2  0  0  0  0  0  0
  194.4700  170.6000  143.1120 C   0  0  0  0  0  0  0  0  0  0  0  0
  194.0060  169.8780  142.2400 O   0  0  0  0  0  0  0  0  0  0  0  0
  192.4240  170.3780  144.2810 O   0  0  0  0  0  1  0  0  0  0  0  0
  193.5970  171.1290  144.2060 C   0  0  1  0  0  3  0  0  0  0  0  0
  194.3190  171.0870  145.5390 C   0  0  0  0  0  1  0  0  0  0  0  0
  186.0170  176.7860  143.4760 C   0  0  0  0  0  2  0  0  0  0  0  0
  185.6400  177.4520  142.2430 N   0  0  0  0  0  2  0  0  0  0  0  0
  185.3170  179.3920  143.6490 C   0  0  0  0  0  1  0  0  0  0  0  0
  185.9810  178.8540  142.4010 C   0  0  0  0  0  2  0  0  0  0  0  0
  187.4700  177.7200  145.8920 C   0  0  0  0  0  2  0  0  0  0  0  0
  186.6710  176.9530  146.9320 C   0  0  0  0  0  2  0  0  0  0  0  0
  184.4000  177.6280  146.6530 O   0  0  0  0  0  1  0  0  0  0  0  0
  185.5300  177.8070  147.4520 C   0  0  0  0  0  3  0  0  0  0  0  0
  185.9080  179.1480  147.4230 O   0  0  0  0  0  1  0  0  0  0  0  0
  189.6660  173.8950  141.5390 C   0  0  2  0  0  3  0  0  0  0  0  0
  188.7380  174.0560  139.0360 C   0  0  0  0  0  3  0  0  0  0  0  0
  189.1560  173.9810  140.1640 C   0  0  0  0  0  0  0  0  0  0  0  0
  190.8460  172.0100  141.9340 O   0  0  0  0  0  1  0  0  0  0  0  0
  189.5930  172.5190  142.0070 N   0  0  0  0  0  2  0  0  0  0  0  0
  1 10  1  0  0  0  0
  1  2  2  0  0  0  0
  2 30  1  0  0  0  0
  2  3  1  0  0  0  0
  3  6  1  0  0  0  0
  4  5  1  0  0  0  0
  4 12  1  0  0  0  0
  5  8  1  0  0  0  0
  6 34  1  0  0  0  0
  6  5  2  0  0  0  0
  7  4  2  0  0  0  0
  9  3  1  0  0  0  0
  9  7  1  0  0  0  0
 10  9  2  0  0  0  0
 12 11  1  0  0  0  0
 13 12  2  0  0  0  0
 13 14  1  0  0  0  0
 15 18  2  0  0  0  0
 15 14  1  0  0  0  0
 16 18  1  0  0  0  0
 17 19  1  0  0  0  0
 17 16  2  0  0  0  0
 19 15  1  0  0  0  0
 20 17  1  0  0  0  0
 21 20  1  0  0  0  0
 22 21  1  0  0  0  0
 23 20  1  0  0  0  0
 23 24  1  0  0  0  0
 24 25  1  0  0  0  0
 25 28  1  0  0  0  0
 26 25  2  0  0  0  0
 28 27  1  0  0  0  0
 28 29  1  1  0  0  0
 31 33  1  0  0  0  0
 31 30  1  0  0  0  0
 33 32  1  0  0  0  0
 34 35  1  0  0  0  0
 35 37  1  0  0  0  0
 36 37  1  0  0  0  0
 38 37  1  0  0  0  0
 39 41  1  6  0  0  0
 39 43  1  0  0  0  0
 39 10  1  0  0  0  0
 40 41  3  0  0  0  0
 42 43  1  0  0  0  0
M  END
>  <MODEL>
3

>  <REMARK>
 VINA RESULT:      -5.8      1.509      2.221
  Name = 
  18 active torsions:
  status: ('A' for Active; 'I' for Inactive)
    1  A    between atoms: C_2  and  C_34
    2  A    between atoms: C_2  and  C_39
    3  A    between atoms: C_4  and  C_5
    4  A    between atoms: C_4  and  C_41
    5  A    between atoms: C_6  and  C_28
    6  A    between atoms: C_9  and  N_17
    7  A    between atoms: C_9  and  C_42
    8  A    between atoms: C_9  and  C_43
    9  A    between atoms: C_12  and  N_23
   10  A    between atoms: C_13  and  C_14
   11  A    between atoms: C_14  and  N_19
   12  A    between atoms: N_19  and  C_37
   13  A    between atoms: C_20  and  C_21
   14  A    between atoms: N_23  and  C_29
   15  A    between atoms: N_23  and  C_30
   16  A    between atoms: C_25  and  C_34
   17  A    between atoms: C_26  and  C_28
   18  A    between atoms: C_30  and  C_41
                            x       y       z     vdW  Elec       q    Type
                         _______ _______ _______ _____ _____    ______ ____

>  <TORSDO>
F 18

$$$$
=
 OpenBabel11042419043D

 43 45  0  0  1  0  0  0  0  0999 V2000
  189.1280  177.1780  146.5090 C   0  0  0  0  0  3  0  0  0  0  0  0
  188.1420  177.1090  145.5310 C   0  0  0  0  0  0  0  0  0  0  0  0
  188.4950  176.2440  144.5490 N   0  0  0  0  0  0  0  0  0  0  0  0
  189.7560  174.4100  142.8950 C   0  0  0  0  0  0  0  0  0  0  0  0
  188.4800  174.9340  142.5510 C   0  0  0  0  0  0  0  0  0  0  0  0
  187.8490  175.8630  143.4060 C   0  0  0  0  0  0  0  0  0  0  0  0
  190.3590  174.8300  144.0940 C   0  0  0  0  0  3  0  0  0  0  0  0
  187.8360  174.5400  141.3820 O   0  0  0  0  0  1  0  0  0  0  0  0
  189.6950  175.7520  144.8950 C   0  0  0  0  0  0  0  0  0  0  0  0
  190.1180  176.3030  146.0900 C   0  0  0  0  0  0  0  0  0  0  0  0
  190.2850  172.0410  142.1570 N   0  0  0  0  0  1  0  0  0  0  0  0
  190.4850  173.4490  142.0190 C   0  0  0  0  0  0  0  0  0  0  0  0
  191.3160  173.9000  141.0740 C   0  0  0  0  0  3  0  0  0  0  0  0
  192.0490  172.9960  140.1370 C   0  0  0  0  0  2  0  0  0  0  0  0
  193.5000  173.3290  140.1320 C   0  0  0  0  0  0  0  0  0  0  0  0
  195.8040  173.0100  140.1160 C   0  0  0  0  0  3  0  0  0  0  0  0
  195.7380  174.4000  140.1440 C   0  0  0  0  0  0  0  0  0  0  0  0
  194.5390  172.4050  140.1080 C   0  0  0  0  0  3  0  0  0  0  0  0
  194.1240  174.8870  140.1650 S   0  0  0  0  0  0  0  0  0  0  0  0
  196.8750  175.2810  140.1960 N   0  0  0  0  0  0  0  0  0  0  0  0
  197.9410  175.1850  139.2080 C   0  0  0  0  0  2  0  0  0  0  0  0
  197.3860  175.4230  137.8180 C   0  0  0  0  0  1  0  0  0  0  0  0
  197.0890  176.1610  141.3360 C   0  0  0  0  0  2  0  0  0  0  0  0
  197.2780  175.3430  142.6030 C   0  0  0  0  0  2  0  0  0  0  0  0
  196.3990  175.8710  143.6880 C   0  0  0  0  0  0  0  0  0  0  0  0
  196.3300  177.0760  143.8880 O   0  0  0  0  0  0  0  0  0  0  0  0
  195.0200  173.9480  143.6900 O   0  0  0  0  0  1  0  0  0  0  0  0
  195.5970  174.9150  144.5120 C   0  0  1  0  0  3  0  0  0  0  0  0
  196.4680  174.2450  145.5590 C   0  0  0  0  0  1  0  0  0  0  0  0
  186.9020  177.9370  145.5590 C   0  0  0  0  0  2  0  0  0  0  0  0
  186.0250  177.4690  146.6170 N   0  0  0  0  0  2  0  0  0  0  0  0
  184.3250  178.9510  145.7490 C   0  0  0  0  0  1  0  0  0  0  0  0
  185.1510  178.5750  146.9590 C   0  0  0  0  0  2  0  0  0  0  0  0
  186.5140  176.4270  143.0310 C   0  0  0  0  0  2  0  0  0  0  0  0
  186.6880  177.5710  142.0470 C   0  0  0  0  0  2  0  0  0  0  0  0
  184.3640  177.6660  142.5760 O   0  0  0  0  0  1  0  0  0  0  0  0
  185.3760  178.3100  141.8640 C   0  0  0  0  0  3  0  0  0  0  0  0
  185.0450  178.3330  140.5100 O   0  0  0  0  0  1  0  0  0  0  0  0
  191.3740  175.9980  146.8530 C   0  0  2  0  0  3  0  0  0  0  0  0
  191.5350  177.4850  149.0700 C   0  0  0  0  0  3  0  0  0  0  0  0
  191.4650  176.8130  148.0720 C   0  0  0  0  0  0  0  0  0  0  0  0
  193.5180  176.7060  146.8260 O   0  0  0  0  0  1  0  0  0  0  0  0
  192.5430  176.2280  146.0180 N   0  0  0  0  0  2  0  0  0  0  0  0
  2 30  1  0  0  0  0
  2  1  2  0  0  0  0
  3  9  1  0  0  0  0
  3  2  1  0  0  0  0
  4  7  2  0  0  0  0
  5  4  1  0  0  0  0
  5  6  2  0  0  0  0
  6  3  1  0  0  0  0
  7  9  1  0  0  0  0
  8  5  1  0  0  0  0
  9 10  2  0  0  0  0
 10  1  1  0  0  0  0
 10 39  1  0  0  0  0
 12 11  1  0  0  0  0
 12  4  1  0  0  0  0
 13 12  2  0  0  0  0
 14 13  1  0  0  0  0
 15 14  1  0  0  0  0
 15 19  1  0  0  0  0
 16 17  2  0  0  0  0
 17 19  1  0  0  0  0
 17 20  1  0  0  0  0
 18 16  1  0  0  0  0
 18 15  2  0  0  0  0
 20 23  1  0  0  0  0
 21 20  1  0  0  0  0
 22 21  1  0  0  0  0
 23 24  1  0  0  0  0
 24 25  1  0  0  0  0
 25 26  2  0  0  0  0
 25 28  1  0  0  0  0
 27 28  1  0  0  0  0
 28 29  1  1  0  0  0
 30 31  1  0  0  0  0
 31 33  1  0  0  0  0
 32 33  1  0  0  0  0
 34  6  1  0  0  0  0
 35 34  1  0  0  0  0
 37 35  1  0  0  0  0
 37 36  1  0  0  0  0
 38 37  1  0  0  0  0
 39 41  1  1  0  0  0
 41 40  3  0  0  0  0
 43 42  1  0  0  0  0
 43 39  1  0  0  0  0
M  END
>  <MODEL>
4

>  <REMARK>
 VINA RESULT:      -5.6      2.770      5.644
  Name = 
  18 active torsions:
  status: ('A' for Active; 'I' for Inactive)
    1  A    between atoms: C_2  and  C_34
    2  A    between atoms: C_2  and  C_39
    3  A    between atoms: C_4  and  C_5
    4  A    between atoms: C_4  and  C_41
    5  A    between atoms: C_6  and  C_28
    6  A    between atoms: C_9  and  N_17
    7  A    between atoms: C_9  and  C_42
    8  A    between atoms: C_9  and  C_43
    9  A    between atoms: C_12  and  N_23
   10  A    between atoms: C_13  and  C_14
   11  A    between atoms: C_14  and  N_19
   12  A    between atoms: N_19  and  C_37
   13  A    between atoms: C_20  and  C_21
   14  A    between atoms: N_23  and  C_29
   15  A    between atoms: N_23  and  C_30
   16  A    between atoms: C_25  and  C_34
   17  A    between atoms: C_26  and  C_28
   18  A    between atoms: C_30  and  C_41
                            x       y       z     vdW  Elec       q    Type
                         _______ _______ _______ _____ _____    ______ ____

>  <TORSDO>
F 18

$$$$
=
 OpenBabel11042419043D

 43 45  0  0  1  0  0  0  0  0999 V2000
  189.1830  177.2350  146.3770 C   0  0  0  0  0  3  0  0  0  0  0  0
  188.3350  177.0890  145.2860 C   0  0  0  0  0  0  0  0  0  0  0  0
  188.7100  176.0340  144.5210 N   0  0  0  0  0  0  0  0  0  0  0  0
  189.9530  173.8250  143.3940 C   0  0  0  0  0  0  0  0  0  0  0  0
  188.8050  174.3990  142.7810 C   0  0  0  0  0  0  0  0  0  0  0  0
  188.1810  175.5200  143.3700 C   0  0  0  0  0  0  0  0  0  0  0  0
  190.4360  174.3920  144.5880 C   0  0  0  0  0  3  0  0  0  0  0  0
  188.2810  173.8680  141.6070 O   0  0  0  0  0  1  0  0  0  0  0  0
  189.7860  175.4990  145.1200 C   0  0  0  0  0  0  0  0  0  0  0  0
  190.1090  176.2100  146.2600 C   0  0  0  0  0  0  0  0  0  0  0  0
  190.0600  171.3700  142.7670 N   0  0  0  0  0  1  0  0  0  0  0  0
  190.6720  172.6600  142.8060 C   0  0  0  0  0  0  0  0  0  0  0  0
  191.8910  172.8200  142.2820 C   0  0  0  0  0  3  0  0  0  0  0  0
  192.6530  171.7050  141.6420 C   0  0  0  0  0  2  0  0  0  0  0  0
  193.9820  171.5510  142.2950 C   0  0  0  0  0  0  0  0  0  0  0  0
  196.2580  171.1250  142.5210 C   0  0  0  0  0  3  0  0  0  0  0  0
  195.9200  171.4170  143.8390 C   0  0  0  0  0  0  0  0  0  0  0  0
  195.1620  171.2010  141.6480 C   0  0  0  0  0  3  0  0  0  0  0  0
  194.2740  171.7660  143.9340 S   0  0  0  0  0  0  0  0  0  0  0  0
  196.8300  171.3800  144.9540 N   0  0  0  0  0  0  0  0  0  0  0  0
  197.4850  170.1390  145.3430 C   0  0  0  0  0  2  0  0  0  0  0  0
  196.4500  169.0610  145.5990 C   0  0  0  0  0  1  0  0  0  0  0  0
  196.9780  172.5280  145.8380 C   0  0  0  0  0  2  0  0  0  0  0  0
  197.6110  173.6890  145.0890 C   0  0  0  0  0  2  0  0  0  0  0  0
  196.5680  174.6910  144.7230 C   0  0  0  0  0  0  0  0  0  0  0  0
  195.7440  175.0490  145.5530 O   0  0  0  0  0  0  0  0  0  0  0  0
  195.3610  174.9220  142.7000 O   0  0  0  0  0  1  0  0  0  0  0  0
  196.5530  175.2620  143.3400 C   0  0  1  0  0  3  0  0  0  0  0  0
  196.7010  176.7710  143.3800 C   0  0  0  0  0  1  0  0  0  0  0  0
  187.2100  178.0230  144.9910 C   0  0  0  0  0  2  0  0  0  0  0  0
  186.2250  177.9520  146.0560 N   0  0  0  0  0  2  0  0  0  0  0  0
  185.5060  179.6390  144.4810 C   0  0  0  0  0  1  0  0  0  0  0  0
  185.3300  179.0800  145.8750 C   0  0  0  0  0  2  0  0  0  0  0  0
  186.9850  176.1330  142.7110 C   0  0  0  0  0  2  0  0  0  0  0  0
  187.4250  177.0750  141.6030 C   0  0  0  0  0  2  0  0  0  0  0  0
  186.7370  177.5390  139.3660 O   0  0  0  0  0  1  0  0  0  0  0  0
  186.2660  177.3640  140.6680 C   0  0  0  0  0  3  0  0  0  0  0  0
  185.6170  178.5260  141.0830 O   0  0  0  0  0  1  0  0  0  0  0  0
  191.2060  175.9270  147.2440 C   0  0  2  0  0  3  0  0  0  0  0  0
  191.3510  177.8410  149.1060 C   0  0  0  0  0  3  0  0  0  0  0  0
  191.2840  176.9770  148.2680 C   0  0  0  0  0  0  0  0  0  0  0  0
  193.2630  176.8270  147.0000 O   0  0  0  0  0  1  0  0  0  0  0  0
  192.4840  175.8110  146.5590 N   0  0  0  0  0  2  0  0  0  0  0  0
  2  1  2  0  0  0  0
  3  9  1  0  0  0  0
  3  2  1  0  0  0  0
  4  7  2  0  0  0  0
  5  6  2  0  0  0  0
  5  4  1  0  0  0  0
  6  3  1  0  0  0  0
  7  9  1  0  0  0  0
  8  5  1  0  0  0  0
  9 10  2  0  0  0  0
 10  1  1  0  0  0  0
 10 39  1  0  0  0  0
 11 12  1  0  0  0  0
 12  4  1  0  0  0  0
 13 12  2  0  0  0  0
 14 13  1  0  0  0  0
 14 15  1  0  0  0  0
 15 19  1  0  0  0  0
 16 17  2  0  0  0  0
 17 19  1  0  0  0  0
 17 20  1  0  0  0  0
 18 15  2  0  0  0  0
 18 16  1  0  0  0  0
 20 21  1  0  0  0  0
 20 23  1  0  0  0  0
 21 22  1  0  0  0  0
 24 23  1  0  0  0  0
 25 24  1  0  0  0  0
 25 26  2  0  0  0  0
 27 28  1  0  0  0  0
 28 29  1  1  0  0  0
 28 25  1  0  0  0  0
 30  2  1  0  0  0  0
 30 31  1  0  0  0  0
 32 33  1  0  0  0  0
 33 31  1  0  0  0  0
 34  6  1  0  0  0  0
 35 34  1  0  0  0  0
 36 37  1  0  0  0  0
 37 38  1  0  0  0  0
 37 35  1  0  0  0  0
 39 41  1  1  0  0  0
 41 40  3  0  0  0  0
 43 42  1  0  0  0  0
 43 39  1  0  0  0  0
M  END
>  <MODEL>
5

>  <REMARK>
 VINA RESULT:      -5.5      2.288      5.041
  Name = 
  18 active torsions:
  status: ('A' for Active; 'I' for Inactive)
    1  A    between atoms: C_2  and  C_34
    2  A    between atoms: C_2  and  C_39
    3  A    between atoms: C_4  and  C_5
    4  A    between atoms: C_4  and  C_41
    5  A    between atoms: C_6  and  C_28
    6  A    between atoms: C_9  and  N_17
    7  A    between atoms: C_9  and  C_42
    8  A    between atoms: C_9  and  C_43
    9  A    between atoms: C_12  and  N_23
   10  A    between atoms: C_13  and  C_14
   11  A    between atoms: C_14  and  N_19
   12  A    between atoms: N_19  and  C_37
   13  A    between atoms: C_20  and  C_21
   14  A    between atoms: N_23  and  C_29
   15  A    between atoms: N_23  and  C_30
   16  A    between atoms: C_25  and  C_34
   17  A    between atoms: C_26  and  C_28
   18  A    between atoms: C_30  and  C_41
                            x       y       z     vdW  Elec       q    Type
                         _______ _______ _______ _____ _____    ______ ____

>  <TORSDO>
F 18

$$$$
=
 OpenBabel11042419043D

 43 45  0  0  1  0  0  0  0  0999 V2000
  187.6140  175.0870  141.8350 C   0  0  0  0  0  3  0  0  0  0  0  0
  187.4360  175.8870  142.9560 C   0  0  0  0  0  0  0  0  0  0  0  0
  188.5960  176.0200  143.6450 N   0  0  0  0  0  0  0  0  0  0  0  0
  191.2000  175.8980  144.5910 C   0  0  0  0  0  0  0  0  0  0  0  0
  190.2130  176.6470  145.2880 C   0  0  0  0  0  0  0  0  0  0  0  0
  188.8940  176.7030  144.7910 C   0  0  0  0  0  0  0  0  0  0  0  0
  190.8330  175.2320  143.4070 C   0  0  0  0  0  3  0  0  0  0  0  0
  190.5290  177.3340  146.4560 O   0  0  0  0  0  1  0  0  0  0  0  0
  189.5170  175.3170  142.9670 C   0  0  0  0  0  0  0  0  0  0  0  0
  188.9520  174.7270  141.8520 C   0  0  0  0  0  0  0  0  0  0  0  0
  192.9100  174.9740  146.2210 N   0  0  0  0  0  1  0  0  0  0  0  0
  192.6030  175.7770  145.0800 C   0  0  0  0  0  0  0  0  0  0  0  0
  193.5940  176.3990  144.4350 C   0  0  0  0  0  3  0  0  0  0  0  0
  195.0260  176.2910  144.8470 C   0  0  0  0  0  2  0  0  0  0  0  0
  195.8280  175.6700  143.7570 C   0  0  0  0  0  0  0  0  0  0  0  0
  197.6620  175.1910  142.4090 C   0  0  0  0  0  3  0  0  0  0  0  0
  196.6930  174.3880  141.8160 C   0  0  0  0  0  0  0  0  0  0  0  0
  197.1740  175.9160  143.5050 C   0  0  0  0  0  3  0  0  0  0  0  0
  195.2320  174.5690  142.6380 S   0  0  0  0  0  0  0  0  0  0  0  0
  196.8970  173.5650  140.6520 N   0  0  0  0  0  0  0  0  0  0  0  0
  196.6920  172.1240  140.7100 C   0  0  0  0  0  2  0  0  0  0  0  0
  195.4540  171.7420  139.9240 C   0  0  0  0  0  1  0  0  0  0  0  0
  197.4930  174.1140  139.4430 C   0  0  0  0  0  2  0  0  0  0  0  0
  196.6970  175.3180  138.9650 C   0  0  0  0  0  2  0  0  0  0  0  0
  195.9080  174.9600  137.7500 C   0  0  0  0  0  0  0  0  0  0  0  0
  196.4560  174.4150  136.8020 O   0  0  0  0  0  0  0  0  0  0  0  0
  193.8400  174.5490  136.6760 O   0  0  0  0  0  1  0  0  0  0  0  0
  194.4430  175.2590  137.7140 C   0  0  1  0  0  3  0  0  0  0  0  0
  193.7870  174.8970  139.0330 C   0  0  0  0  0  1  0  0  0  0  0  0
  186.1160  176.4590  143.3550 C   0  0  0  0  0  2  0  0  0  0  0  0
  185.5460  177.1940  142.2400 N   0  0  0  0  0  2  0  0  0  0  0  0
  183.4800  178.2880  141.6250 C   0  0  0  0  0  1  0  0  0  0  0  0
  184.4140  177.9360  142.7620 C   0  0  0  0  0  2  0  0  0  0  0  0
  187.8520  177.4770  145.5390 C   0  0  0  0  0  2  0  0  0  0  0  0
  187.2890  176.6350  146.6710 C   0  0  0  0  0  2  0  0  0  0  0  0
  184.9100  176.7850  146.5830 O   0  0  0  0  0  1  0  0  0  0  0  0
  186.0390  177.2830  147.2350 C   0  0  0  0  0  3  0  0  0  0  0  0
  186.1100  178.6620  147.0470 O   0  0  0  0  0  1  0  0  0  0  0  0
  189.6320  173.8970  140.8030 C   0  0  2  0  0  3  0  0  0  0  0  0
  188.2490  173.9150  138.5140 C   0  0  0  0  0  3  0  0  0  0  0  0
  188.8740  173.9080  139.5450 C   0  0  0  0  0  0  0  0  0  0  0  0
  190.7000  171.9390  140.4470 O   0  0  0  0  0  1  0  0  0  0  0  0
  189.7970  172.5280  141.2670 N   0  0  0  0  0  2  0  0  0  0  0  0
  1 10  1  0  0  0  0
  1  2  2  0  0  0  0
  2 30  1  0  0  0  0
  2  3  1  0  0  0  0
  3  6  1  0  0  0  0
  4 12  1  0  0  0  0
  4  5  1  0  0  0  0
  5  8  1  0  0  0  0
  6  5  2  0  0  0  0
  6 34  1  0  0  0  0
  7  4  2  0  0  0  0
  9  7  1  0  0  0  0
  9  3  1  0  0  0  0
 10  9  2  0  0  0  0
 12 11  1  0  0  0  0
 13 14  1  0  0  0  0
 13 12  2  0  0  0  0
 15 14  1  0  0  0  0
 16 18  1  0  0  0  0
 17 16  2  0  0  0  0
 17 19  1  0  0  0  0
 18 15  2  0  0  0  0
 19 15  1  0  0  0  0
 20 21  1  0  0  0  0
 20 17  1  0  0  0  0
 22 21  1  0  0  0  0
 23 20  1  0  0  0  0
 24 23  1  0  0  0  0
 25 24  1  0  0  0  0
 26 25  2  0  0  0  0
 27 28  1  0  0  0  0
 28 25  1  0  0  0  0
 28 29  1  1  0  0  0
 31 33  1  0  0  0  0
 31 30  1  0  0  0  0
 32 33  1  0  0  0  0
 34 35  1  0  0  0  0
 35 37  1  0  0  0  0
 36 37  1  0  0  0  0
 38 37  1  0  0  0  0
 39 41  1  6  0  0  0
 39 43  1  0  0  0  0
 39 10  1  0  0  0  0
 40 41  3  0  0  0  0
 42 43  1  0  0  0  0
M  END
>  <MODEL>
6

>  <REMARK>
 VINA RESULT:      -5.3      2.375      2.872
  Name = 
  18 active torsions:
  status: ('A' for Active; 'I' for Inactive)
    1  A    between atoms: C_2  and  C_34
    2  A    between atoms: C_2  and  C_39
    3  A    between atoms: C_4  and  C_5
    4  A    between atoms: C_4  and  C_41
    5  A    between atoms: C_6  and  C_28
    6  A    between atoms: C_9  and  N_17
    7  A    between atoms: C_9  and  C_42
    8  A    between atoms: C_9  and  C_43
    9  A    between atoms: C_12  and  N_23
   10  A    between atoms: C_13  and  C_14
   11  A    between atoms: C_14  and  N_19
   12  A    between atoms: N_19  and  C_37
   13  A    between atoms: C_20  and  C_21
   14  A    between atoms: N_23  and  C_29
   15  A    between atoms: N_23  and  C_30
   16  A    between atoms: C_25  and  C_34
   17  A    between atoms: C_26  and  C_28
   18  A    between atoms: C_30  and  C_41
                            x       y       z     vdW  Elec       q    Type
                         _______ _______ _______ _____ _____    ______ ____

>  <TORSDO>
F 18

$$$$
=
 OpenBabel11042419043D

 43 45  0  0  1  0  0  0  0  0999 V2000
  187.5800  175.1780  141.9980 C   0  0  0  0  0  3  0  0  0  0  0  0
  187.2650  176.0920  142.9950 C   0  0  0  0  0  0  0  0  0  0  0  0
  188.2890  176.2210  143.8740 N   0  0  0  0  0  0  0  0  0  0  0  0
  190.6630  176.0370  145.2960 C   0  0  0  0  0  0  0  0  0  0  0  0
  189.6260  176.9070  145.7310 C   0  0  0  0  0  0  0  0  0  0  0  0
  188.4260  176.9940  144.9940 C   0  0  0  0  0  0  0  0  0  0  0  0
  190.4650  175.2830  144.1250 C   0  0  0  0  0  3  0  0  0  0  0  0
  189.7780  177.6840  146.8760 O   0  0  0  0  0  1  0  0  0  0  0  0
  189.2610  175.4030  143.4420 C   0  0  0  0  0  0  0  0  0  0  0  0
  188.8620  174.7420  142.2950 C   0  0  0  0  0  0  0  0  0  0  0  0
  191.9380  175.4620  147.4120 N   0  0  0  0  0  1  0  0  0  0  0  0
  191.9410  175.8810  146.0460 C   0  0  0  0  0  0  0  0  0  0  0  0
  193.1090  176.1060  145.4360 C   0  0  0  0  0  3  0  0  0  0  0  0
  194.4280  175.9320  146.1160 C   0  0  0  0  0  2  0  0  0  0  0  0
  195.0030  174.5990  145.7860 C   0  0  0  0  0  0  0  0  0  0  0  0
  196.5640  172.8810  145.6370 C   0  0  0  0  0  3  0  0  0  0  0  0
  195.4680  172.2850  145.0210 C   0  0  0  0  0  0  0  0  0  0  0  0
  196.3010  174.1890  146.0690 C   0  0  0  0  0  3  0  0  0  0  0  0
  194.1740  173.3660  145.0050 S   0  0  0  0  0  0  0  0  0  0  0  0
  195.4580  170.9650  144.4460 N   0  0  0  0  0  0  0  0  0  0  0  0
  195.7990  169.7980  145.2480 C   0  0  0  0  0  2  0  0  0  0  0  0
  194.6170  169.3930  146.1070 C   0  0  0  0  0  1  0  0  0  0  0  0
  195.2940  170.7740  143.0120 C   0  0  0  0  0  2  0  0  0  0  0  0
  193.8220  170.6230  142.6670 C   0  0  0  0  0  2  0  0  0  0  0  0
  193.5890  169.3210  141.9750 C   0  0  0  0  0  0  0  0  0  0  0  0
  193.8240  168.2690  142.5530 O   0  0  0  0  0  0  0  0  0  0  0  0
  192.2890  168.1710  140.3660 O   0  0  0  0  0  1  0  0  0  0  0  0
  193.0530  169.3190  140.5790 C   0  0  1  0  0  3  0  0  0  0  0  0
  192.2070  170.5530  140.3260 C   0  0  0  0  0  1  0  0  0  0  0  0
  185.9420  176.7770  143.0910 C   0  0  0  0  0  2  0  0  0  0  0  0
  185.9350  177.9470  142.2310 N   0  0  0  0  0  2  0  0  0  0  0  0
  184.2670  178.2980  140.5170 C   0  0  0  0  0  1  0  0  0  0  0  0
  184.5440  178.2910  142.0040 C   0  0  0  0  0  2  0  0  0  0  0  0
  187.3290  177.8960  145.4670 C   0  0  0  0  0  2  0  0  0  0  0  0
  186.5850  177.2520  146.6250 C   0  0  0  0  0  2  0  0  0  0  0  0
  185.4150  179.3300  146.5730 O   0  0  0  0  0  1  0  0  0  0  0  0
  185.8390  178.3060  147.4210 C   0  0  0  0  0  3  0  0  0  0  0  0
  186.6850  178.8340  148.3940 O   0  0  0  0  0  1  0  0  0  0  0  0
  189.6560  173.7760  141.4640 C   0  0  2  0  0  3  0  0  0  0  0  0
  188.5960  173.5070  139.0240 C   0  0  0  0  0  3  0  0  0  0  0  0
  189.0750  173.6300  140.1230 C   0  0  0  0  0  0  0  0  0  0  0  0
  188.5090  172.2630  142.6870 O   0  0  0  0  0  1  0  0  0  0  0  0
  189.7190  172.4790  142.1180 N   0  0  0  0  0  2  0  0  0  0  0  0
  1 10  1  0  0  0  0
  1  2  2  0  0  0  0
  2 30  1  0  0  0  0
  2  3  1  0  0  0  0
  3  6  1  0  0  0  0
  4  5  1  0  0  0  0
  4 12  1  0  0  0  0
  5  8  1  0  0  0  0
  6 34  1  0  0  0  0
  6  5  2  0  0  0  0
  7  4  2  0  0  0  0
  9  3  1  0  0  0  0
  9  7  1  0  0  0  0
 10  9  2  0  0  0  0
 12 11  1  0  0  0  0
 13 12  2  0  0  0  0
 13 14  1  0  0  0  0
 15 18  2  0  0  0  0
 15 14  1  0  0  0  0
 16 18  1  0  0  0  0
 17 16  2  0  0  0  0
 19 17  1  0  0  0  0
 19 15  1  0  0  0  0
 20 17  1  0  0  0  0
 20 21  1  0  0  0  0
 21 22  1  0  0  0  0
 23 20  1  0  0  0  0
 24 23  1  0  0  0  0
 25 26  2  0  0  0  0
 25 24  1  0  0  0  0
 27 28  1  0  0  0  0
 28 29  1  1  0  0  0
 28 25  1  0  0  0  0
 31 30  1  0  0  0  0
 32 33  1  0  0  0  0
 33 31  1  0  0  0  0
 34 35  1  0  0  0  0
 35 37  1  0  0  0  0
 36 37  1  0  0  0  0
 37 38  1  0  0  0  0
 39 41  1  6  0  0  0
 39 43  1  0  0  0  0
 39 10  1  0  0  0  0
 40 41  3  0  0  0  0
 43 42  1  0  0  0  0
M  END
>  <MODEL>
7

>  <REMARK>
 VINA RESULT:      -5.3      1.472      1.694
  Name = 
  18 active torsions:
  status: ('A' for Active; 'I' for Inactive)
    1  A    between atoms: C_2  and  C_34
    2  A    between atoms: C_2  and  C_39
    3  A    between atoms: C_4  and  C_5
    4  A    between atoms: C_4  and  C_41
    5  A    between atoms: C_6  and  C_28
    6  A    between atoms: C_9  and  N_17
    7  A    between atoms: C_9  and  C_42
    8  A    between atoms: C_9  and  C_43
    9  A    between atoms: C_12  and  N_23
   10  A    between atoms: C_13  and  C_14
   11  A    between atoms: C_14  and  N_19
   12  A    between atoms: N_19  and  C_37
   13  A    between atoms: C_20  and  C_21
   14  A    between atoms: N_23  and  C_29
   15  A    between atoms: N_23  and  C_30
   16  A    between atoms: C_25  and  C_34
   17  A    between atoms: C_26  and  C_28
   18  A    between atoms: C_30  and  C_41
                            x       y       z     vdW  Elec       q    Type
                         _______ _______ _______ _____ _____    ______ ____

>  <TORSDO>
F 18

$$$$
=
 OpenBabel11042419043D

 43 45  0  0  1  0  0  0  0  0999 V2000
  190.3620  174.8340  144.5560 C   0  0  0  0  0  3  0  0  0  0  0  0
  189.5920  175.7000  145.3240 C   0  0  0  0  0  0  0  0  0  0  0  0
  188.6410  176.3010  144.5670 N   0  0  0  0  0  0  0  0  0  0  0  0
  186.9680  177.1880  142.5410 C   0  0  0  0  0  0  0  0  0  0  0  0
  186.8180  177.6770  143.8670 C   0  0  0  0  0  0  0  0  0  0  0  0
  187.6740  177.2120  144.8890 C   0  0  0  0  0  0  0  0  0  0  0  0
  187.9730  176.2370  142.2800 C   0  0  0  0  0  3  0  0  0  0  0  0
  185.8310  178.6070  144.1790 O   0  0  0  0  0  1  0  0  0  0  0  0
  188.7910  175.8200  143.3230 C   0  0  0  0  0  0  0  0  0  0  0  0
  189.8390  174.9200  143.2750 C   0  0  0  0  0  0  0  0  0  0  0  0
  186.6880  177.9670  140.1430 N   0  0  0  0  0  1  0  0  0  0  0  0
  186.1140  177.6610  141.4150 C   0  0  0  0  0  0  0  0  0  0  0  0
  184.7930  177.7760  141.5780 C   0  0  0  0  0  3  0  0  0  0  0  0
  183.8730  178.2070  140.4830 C   0  0  0  0  0  2  0  0  0  0  0  0
  182.5120  178.4690  141.0270 C   0  0  0  0  0  0  0  0  0  0  0  0
  180.8560  179.0610  142.5500 C   0  0  0  0  0  3  0  0  0  0  0  0
  180.0800  178.7430  141.4390 C   0  0  0  0  0  0  0  0  0  0  0  0
  182.2310  178.9070  142.3170 C   0  0  0  0  0  3  0  0  0  0  0  0
  181.0830  178.2670  140.1700 S   0  0  0  0  0  0  0  0  0  0  0  0
  178.6420  178.7710  141.3990 N   0  0  0  0  0  0  0  0  0  0  0  0
  177.8640  177.5570  141.6070 C   0  0  0  0  0  2  0  0  0  0  0  0
  178.2130  176.9380  142.9460 C   0  0  0  0  0  1  0  0  0  0  0  0
  177.9280  179.9640  140.9650 C   0  0  0  0  0  2  0  0  0  0  0  0
  178.8760  180.9100  140.2470 C   0  0  0  0  0  2  0  0  0  0  0  0
  178.2530  181.3930  138.9790 C   0  0  0  0  0  0  0  0  0  0  0  0
  177.8260  180.5900  138.1620 O   0  0  0  0  0  0  0  0  0  0  0  0
  177.9520  183.5360  139.9380 O   0  0  0  0  0  1  0  0  0  0  0  0
  178.1440  182.8640  138.7310 C   0  0  1  0  0  3  0  0  0  0  0  0
  179.3910  183.3880  138.0440 C   0  0  0  0  0  1  0  0  0  0  0  0
  189.8450  175.9570  146.7720 C   0  0  0  0  0  2  0  0  0  0  0  0
  190.9410  176.8970  146.9170 N   0  0  0  0  0  2  0  0  0  0  0  0
  191.5750  177.8960  149.0250 C   0  0  0  0  0  1  0  0  0  0  0  0
  191.5580  176.6270  148.2020 C   0  0  0  0  0  2  0  0  0  0  0  0
  187.5240  177.7440  146.2800 C   0  0  0  0  0  2  0  0  0  0  0  0
  186.4940  176.9280  147.0430 C   0  0  0  0  0  2  0  0  0  0  0  0
  184.2020  177.5830  146.9610 O   0  0  0  0  0  1  0  0  0  0  0  0
  185.4150  177.8360  147.6010 C   0  0  0  0  0  3  0  0  0  0  0  0
  185.7770  179.1660  147.3920 O   0  0  0  0  0  1  0  0  0  0  0  0
  190.3150  174.1210  142.0980 C   0  0  2  0  0  3  0  0  0  0  0  0
  189.5320  171.5700  142.2850 C   0  0  0  0  0  3  0  0  0  0  0  0
  189.8840  172.7200  142.1990 C   0  0  0  0  0  0  0  0  0  0  0  0
  192.0550  174.5930  140.7370 O   0  0  0  0  0  1  0  0  0  0  0  0
  191.7650  174.1840  141.9960 N   0  0  0  0  0  2  0  0  0  0  0  0
  1  2  2  0  0  0  0
  2 30  1  0  0  0  0
  3  6  1  0  0  0  0
  3  2  1  0  0  0  0
  4  5  1  0  0  0  0
  5  8  1  0  0  0  0
  5  6  2  0  0  0  0
  6 34  1  0  0  0  0
  7  4  2  0  0  0  0
  7  9  1  0  0  0  0
  9  3  1  0  0  0  0
 10  9  2  0  0  0  0
 10  1  1  0  0  0  0
 11 12  1  0  0  0  0
 12 13  2  0  0  0  0
 12  4  1  0  0  0  0
 14 15  1  0  0  0  0
 14 13  1  0  0  0  0
 15 18  2  0  0  0  0
 17 16  2  0  0  0  0
 18 16  1  0  0  0  0
 19 15  1  0  0  0  0
 19 17  1  0  0  0  0
 20 17  1  0  0  0  0
 20 21  1  0  0  0  0
 21 22  1  0  0  0  0
 23 20  1  0  0  0  0
 24 23  1  0  0  0  0
 25 24  1  0  0  0  0
 26 25  2  0  0  0  0
 28 29  1  1  0  0  0
 28 25  1  0  0  0  0
 28 27  1  0  0  0  0
 30 31  1  0  0  0  0
 31 33  1  0  0  0  0
 33 32  1  0  0  0  0
 34 35  1  0  0  0  0
 35 37  1  0  0  0  0
 36 37  1  0  0  0  0
 38 37  1  0  0  0  0
 39 41  1  1  0  0  0
 39 10  1  0  0  0  0
 41 40  3  0  0  0  0
 42 43  1  0  0  0  0
 43 39  1  0  0  0  0
M  END
>  <MODEL>
8

>  <REMARK>
 VINA RESULT:      -5.2      4.866     11.300
  Name = 
  18 active torsions:
  status: ('A' for Active; 'I' for Inactive)
    1  A    between atoms: C_2  and  C_34
    2  A    between atoms: C_2  and  C_39
    3  A    between atoms: C_4  and  C_5
    4  A    between atoms: C_4  and  C_41
    5  A    between atoms: C_6  and  C_28
    6  A    between atoms: C_9  and  N_17
    7  A    between atoms: C_9  and  C_42
    8  A    between atoms: C_9  and  C_43
    9  A    between atoms: C_12  and  N_23
   10  A    between atoms: C_13  and  C_14
   11  A    between atoms: C_14  and  N_19
   12  A    between atoms: N_19  and  C_37
   13  A    between atoms: C_20  and  C_21
   14  A    between atoms: N_23  and  C_29
   15  A    between atoms: N_23  and  C_30
   16  A    between atoms: C_25  and  C_34
   17  A    between atoms: C_26  and  C_28
   18  A    between atoms: C_30  and  C_41
                            x       y       z     vdW  Elec       q    Type
                         _______ _______ _______ _____ _____    ______ ____

>  <TORSDO>
F 18

$$$$
=
 OpenBabel11042419043D

 43 45  0  0  1  0  0  0  0  0999 V2000
  188.9880  177.4890  146.3220 C   0  0  0  0  0  3  0  0  0  0  0  0
  187.9500  177.2660  145.4260 C   0  0  0  0  0  0  0  0  0  0  0  0
  188.2820  176.3030  144.5320 N   0  0  0  0  0  0  0  0  0  0  0  0
  189.5230  174.3320  143.0250 C   0  0  0  0  0  0  0  0  0  0  0  0
  188.2060  174.7620  142.7070 C   0  0  0  0  0  0  0  0  0  0  0  0
  187.5850  175.7620  143.4860 C   0  0  0  0  0  0  0  0  0  0  0  0
  190.1770  174.9170  144.1250 C   0  0  0  0  0  3  0  0  0  0  0  0
  187.5110  174.2060  141.6370 O   0  0  0  0  0  1  0  0  0  0  0  0
  189.5220  175.9020  144.8540 C   0  0  0  0  0  0  0  0  0  0  0  0
  189.9910  176.6090  145.9450 C   0  0  0  0  0  0  0  0  0  0  0  0
  189.8860  171.9220  142.3240 N   0  0  0  0  0  1  0  0  0  0  0  0
  190.2410  173.3020  142.2240 C   0  0  0  0  0  0  0  0  0  0  0  0
  191.2100  173.6650  141.3780 C   0  0  0  0  0  3  0  0  0  0  0  0
  191.9440  172.6910  140.5150 C   0  0  0  0  0  2  0  0  0  0  0  0
  193.4000  172.7260  140.8250 C   0  0  0  0  0  0  0  0  0  0  0  0
  195.6990  172.7270  140.4720 C   0  0  0  0  0  3  0  0  0  0  0  0
  195.6540  172.8030  141.8610 C   0  0  0  0  0  0  0  0  0  0  0  0
  194.4250  172.6840  139.8870 C   0  0  0  0  0  3  0  0  0  0  0  0
  194.0470  172.8130  142.3720 S   0  0  0  0  0  0  0  0  0  0  0  0
  196.8030  172.8210  142.7270 N   0  0  0  0  0  0  0  0  0  0  0  0
  197.2280  171.6190  143.4310 C   0  0  0  0  0  2  0  0  0  0  0  0
  196.8690  171.7210  144.9000 C   0  0  0  0  0  1  0  0  0  0  0  0
  197.4600  174.0740  143.0730 C   0  0  0  0  0  2  0  0  0  0  0  0
  196.4240  175.1420  143.3820 C   0  0  0  0  0  2  0  0  0  0  0  0
  196.7670  176.4080  142.6700 C   0  0  0  0  0  0  0  0  0  0  0  0
  197.6050  177.1660  143.1380 O   0  0  0  0  0  0  0  0  0  0  0  0
  196.7070  176.0410  140.3330 O   0  0  0  0  0  1  0  0  0  0  0  0
  196.0880  176.7290  141.3770 C   0  0  1  0  0  3  0  0  0  0  0  0
  194.6180  176.3590  141.4350 C   0  0  0  0  0  1  0  0  0  0  0  0
  186.6770  178.0430  145.4370 C   0  0  0  0  0  2  0  0  0  0  0  0
  186.0800  177.9840  146.7600 N   0  0  0  0  0  2  0  0  0  0  0  0
  184.4600  178.9950  145.2770 C   0  0  0  0  0  1  0  0  0  0  0  0
  184.6710  178.2900  146.5980 C   0  0  0  0  0  2  0  0  0  0  0  0
  186.2060  176.2260  143.1360 C   0  0  0  0  0  2  0  0  0  0  0  0
  186.2770  177.5070  142.3220 C   0  0  0  0  0  2  0  0  0  0  0  0
  188.2960  178.2910  141.3210 O   0  0  0  0  0  1  0  0  0  0  0  0
  187.2720  177.3520  141.1870 C   0  0  0  0  0  3  0  0  0  0  0  0
  186.6200  177.5520  139.9710 O   0  0  0  0  0  1  0  0  0  0  0  0
  191.3030  176.4460  146.6550 C   0  0  2  0  0  3  0  0  0  0  0  0
  193.3550  176.7910  144.9750 C   0  0  0  0  0  3  0  0  0  0  0  0
  192.4310  176.6370  145.7340 C   0  0  0  0  0  0  0  0  0  0  0  0
  191.1910  175.3030  148.5990 O   0  0  0  0  0  1  0  0  0  0  0  0
  191.3860  175.1300  147.2700 N   0  0  0  0  0  2  0  0  0  0  0  0
  2 30  1  0  0  0  0
  2  1  2  0  0  0  0
  3  9  1  0  0  0  0
  3  2  1  0  0  0  0
  4  7  2  0  0  0  0
  5  4  1  0  0  0  0
  5  6  2  0  0  0  0
  6  3  1  0  0  0  0
  7  9  1  0  0  0  0
  8  5  1  0  0  0  0
  9 10  2  0  0  0  0
 10  1  1  0  0  0  0
 10 39  1  0  0  0  0
 12 11  1  0  0  0  0
 12  4  1  0  0  0  0
 13 12  2  0  0  0  0
 14 15  1  0  0  0  0
 14 13  1  0  0  0  0
 15 19  1  0  0  0  0
 16 17  2  0  0  0  0
 17 19  1  0  0  0  0
 17 20  1  0  0  0  0
 18 16  1  0  0  0  0
 18 15  2  0  0  0  0
 20 23  1  0  0  0  0
 20 21  1  0  0  0  0
 21 22  1  0  0  0  0
 23 24  1  0  0  0  0
 25 26  2  0  0  0  0
 25 24  1  0  0  0  0
 27 28  1  0  0  0  0
 28 29  1  1  0  0  0
 28 25  1  0  0  0  0
 30 31  1  0  0  0  0
 32 33  1  0  0  0  0
 33 31  1  0  0  0  0
 34  6  1  0  0  0  0
 35 34  1  0  0  0  0
 37 36  1  0  0  0  0
 37 35  1  0  0  0  0
 38 37  1  0  0  0  0
 39 41  1  6  0  0  0
 39 43  1  0  0  0  0
 40 41  3  0  0  0  0
 43 42  1  0  0  0  0
M  END
>  <MODEL>
9

>  <REMARK>
 VINA RESULT:      -5.2      2.524      4.984
  Name = 
  18 active torsions:
  status: ('A' for Active; 'I' for Inactive)
    1  A    between atoms: C_2  and  C_34
    2  A    between atoms: C_2  and  C_39
    3  A    between atoms: C_4  and  C_5
    4  A    between atoms: C_4  and  C_41
    5  A    between atoms: C_6  and  C_28
    6  A    between atoms: C_9  and  N_17
    7  A    between atoms: C_9  and  C_42
    8  A    between atoms: C_9  and  C_43
    9  A    between atoms: C_12  and  N_23
   10  A    between atoms: C_13  and  C_14
   11  A    between atoms: C_14  and  N_19
   12  A    between atoms: N_19  and  C_37
   13  A    between atoms: C_20  and  C_21
   14  A    between atoms: N_23  and  C_29
   15  A    between atoms: N_23  and  C_30
   16  A    between atoms: C_25  and  C_34
   17  A    between atoms: C_26  and  C_28
   18  A    between atoms: C_30  and  C_41
                            x       y       z     vdW  Elec       q    Type
                         _______ _______ _______ _____ _____    ______ ____

>  <TORSDO>
F 18

$$$$
