=
 OpenBabel11042416113D

 26 28  0  0  1  0  0  0  0  0999 V2000
  189.4900  175.8760  142.1220 N   0  0  0  0  0  2  0  0  0  0  0  0
  190.3560  176.7440  142.8610 C   0  0  0  0  0  0  0  0  0  0  0  0
  187.7420  175.7300  140.6090 O   0  0  0  0  0  0  0  0  0  0  0  0
  188.1570  176.1960  141.7040 C   0  0  0  0  0  0  0  0  0  0  0  0
  190.0990  177.9750  142.9660 O   0  0  0  0  0  0  0  0  0  0  0  0
  185.9050  177.2980  144.5350 C   0  0  0  0  0  0  0  0  0  0  0  0
  185.4610  178.5360  144.0330 C   0  0  0  0  0  0  0  0  0  0  0  0
  187.2410  177.0020  142.5380 C   0  0  1  0  0  3  0  0  0  0  0  0
  184.1430  178.8770  145.9760 C   0  0  0  0  0  3  0  0  0  0  0  0
  184.5950  179.2910  144.7620 N   0  0  0  0  0  0  0  0  0  0  0  0
  184.5620  177.6530  146.5060 C   0  0  0  0  0  3  0  0  0  0  0  0
  186.7610  178.2360  142.0710 C   0  0  0  0  0  3  0  0  0  0  0  0
  185.8950  178.9700  142.8200 N   0  0  0  0  0  0  0  0  0  0  0  0
  185.4500  176.8580  145.7780 C   0  0  0  0  0  2  0  0  0  0  0  0
  186.7920  176.5330  143.7800 C   0  0  0  0  0  3  0  0  0  0  0  0
  191.5850  176.1840  143.4890 C   0  0  1  0  0  3  0  0  0  0  0  0
  192.5970  176.0990  142.5490 F   0  0  0  0  0  0  0  0  0  0  0  0
  192.0140  177.0600  144.6570 C   0  0  0  0  0  2  0  0  0  0  0  0
  192.9900  176.3250  145.5600 C   0  0  0  0  0  2  0  0  0  0  0  0
  192.2350  175.4480  146.5640 C   0  0  0  0  0  2  0  0  0  0  0  0
  191.0430  176.0970  147.1290 N   0  0  0  0  0  0  0  0  0  0  0  0
  190.0240  175.0940  147.4300 C   0  0  0  0  0  3  0  0  0  0  0  0
  189.6190  174.3780  146.1540 C   0  0  0  0  0  2  0  0  0  0  0  0
  188.7280  175.4560  146.7270 C   0  0  0  0  0  2  0  0  0  0  0  0
  190.6650  178.0280  148.4700 N   0  0  0  0  0  1  0  0  0  0  0  0
  191.4000  176.7790  148.3690 C   0  0  0  0  0  2  0  0  0  0  0  0
  1  2  1  0  0  0  0
  2  5  2  0  0  0  0
  2 16  1  0  0  0  0
  3  4  2  0  0  0  0
  4  1  1  0  0  0  0
  6 14  1  0  0  0  0
  7  6  1  0  0  0  0
  7 10  2  0  0  0  0
  8  4  1  6  0  0  0
  8 15  1  0  0  0  0
  9 11  2  0  0  0  0
 10  9  1  0  0  0  0
 12  8  1  0  0  0  0
 12 13  2  0  0  0  0
 13  7  1  0  0  0  0
 14 11  1  0  0  0  0
 15  6  2  0  0  0  0
 16 17  1  6  0  0  0
 16 18  1  0  0  0  0
 18 19  1  0  0  0  0
 19 20  1  0  0  0  0
 20 21  1  0  0  0  0
 21 22  1  0  0  0  0
 21 26  1  0  0  0  0
 23 24  1  0  0  0  0
 23 22  1  0  0  0  0
 24 22  1  0  0  0  0
 26 25  1  0  0  0  0
M  END
>  <MODEL>
1

>  <REMARK>
 VINA RESULT:      -6.4      0.000      0.000
  Name = 
  8 active torsions:
  status: ('A' for Active; 'I' for Inactive)
    1  A    between atoms: C_1  and  C_10
    2  A    between atoms: C_1  and  C_21
    3  A    between atoms: C_3  and  C_21
    4  A    between atoms: C_3  and  C_23
    5  A    between atoms: C_5  and  N_18
    6  A    between atoms: C_8  and  C_14
    7  A    between atoms: N_18  and  C_23
    8  A    between atoms: N_18  and  C_24
                            x       y       z     vdW  Elec       q    Type
                         _______ _______ _______ _____ _____    ______ ____

>  <TORSDO>
F 8

$$$$
=
 OpenBabel11042416113D

 26 28  0  0  1  0  0  0  0  0999 V2000
  188.1980  175.7250  141.2000 N   0  0  0  0  0  2  0  0  0  0  0  0
  189.3200  175.7840  142.0870 C   0  0  0  0  0  0  0  0  0  0  0  0
  186.6080  176.9290  140.0220 O   0  0  0  0  0  0  0  0  0  0  0  0
  187.1390  176.6880  141.1390 C   0  0  0  0  0  0  0  0  0  0  0  0
  189.5990  176.8490  142.7040 O   0  0  0  0  0  0  0  0  0  0  0  0
  185.7140  177.2790  144.5920 C   0  0  0  0  0  0  0  0  0  0  0  0
  185.5690  178.6800  144.5660 C   0  0  0  0  0  0  0  0  0  0  0  0
  186.6150  177.3610  142.3470 C   0  0  1  0  0  3  0  0  0  0  0  0
  184.6900  178.6530  146.7700 C   0  0  0  0  0  3  0  0  0  0  0  0
  185.0630  179.3280  145.6490 N   0  0  0  0  0  0  0  0  0  0  0  0
  184.8190  177.2620  146.8310 C   0  0  0  0  0  3  0  0  0  0  0  0
  186.4400  178.7530  142.3600 C   0  0  0  0  0  3  0  0  0  0  0  0
  185.9300  179.3770  143.4560 N   0  0  0  0  0  0  0  0  0  0  0  0
  185.3350  176.5720  145.7320 C   0  0  0  0  0  2  0  0  0  0  0  0
  186.2330  176.6250  143.4770 C   0  0  0  0  0  3  0  0  0  0  0  0
  190.1770  174.5780  142.2590 C   0  0  1  0  0  3  0  0  0  0  0  0
  191.5120  174.9470  142.2770 F   0  0  0  0  0  0  0  0  0  0  0  0
  189.8060  173.8590  143.5470 C   0  0  0  0  0  2  0  0  0  0  0  0
  191.0230  173.6690  144.4360 C   0  0  0  0  0  2  0  0  0  0  0  0
  190.8460  174.4260  145.7560 C   0  0  0  0  0  2  0  0  0  0  0  0
  190.9080  175.8870  145.6070 N   0  0  0  0  0  0  0  0  0  0  0  0
  190.1870  176.5310  146.7020 C   0  0  0  0  0  3  0  0  0  0  0  0
  188.7830  175.9600  146.7940 C   0  0  0  0  0  2  0  0  0  0  0  0
  189.0060  177.3080  146.1470 C   0  0  0  0  0  2  0  0  0  0  0  0
  192.6110  177.0960  144.4630 N   0  0  0  0  0  1  0  0  0  0  0  0
  192.3010  176.3230  145.6520 C   0  0  0  0  0  2  0  0  0  0  0  0
  1  2  1  0  0  0  0
  2 16  1  0  0  0  0
  2  5  2  0  0  0  0
  3  4  2  0  0  0  0
  4  1  1  0  0  0  0
  6 14  1  0  0  0  0
  7  6  1  0  0  0  0
  7 10  2  0  0  0  0
  8  4  1  6  0  0  0
  8 12  1  0  0  0  0
  8 15  1  0  0  0  0
  9 11  2  0  0  0  0
 10  9  1  0  0  0  0
 12 13  2  0  0  0  0
 13  7  1  0  0  0  0
 14 11  1  0  0  0  0
 15  6  2  0  0  0  0
 16 17  1  1  0  0  0
 16 18  1  0  0  0  0
 18 19  1  0  0  0  0
 19 20  1  0  0  0  0
 21 26  1  0  0  0  0
 21 20  1  0  0  0  0
 21 22  1  0  0  0  0
 22 23  1  0  0  0  0
 24 22  1  0  0  0  0
 24 23  1  0  0  0  0
 25 26  1  0  0  0  0
M  END
>  <MODEL>
2

>  <REMARK>
 VINA RESULT:      -6.3      1.484      1.947
  Name = 
  8 active torsions:
  status: ('A' for Active; 'I' for Inactive)
    1  A    between atoms: C_1  and  C_10
    2  A    between atoms: C_1  and  C_21
    3  A    between atoms: C_3  and  C_21
    4  A    between atoms: C_3  and  C_23
    5  A    between atoms: C_5  and  N_18
    6  A    between atoms: C_8  and  C_14
    7  A    between atoms: N_18  and  C_23
    8  A    between atoms: N_18  and  C_24
                            x       y       z     vdW  Elec       q    Type
                         _______ _______ _______ _____ _____    ______ ____

>  <TORSDO>
F 8

$$$$
=
 OpenBabel11042416113D

 26 28  0  0  1  0  0  0  0  0999 V2000
  189.1370  177.5630  145.1170 N   0  0  0  0  0  2  0  0  0  0  0  0
  189.5220  177.7310  143.7490 C   0  0  0  0  0  0  0  0  0  0  0  0
  189.8240  177.5800  147.3290 O   0  0  0  0  0  0  0  0  0  0  0  0
  189.9970  177.1130  146.1710 C   0  0  0  0  0  0  0  0  0  0  0  0
  190.7400  177.7520  143.4200 O   0  0  0  0  0  0  0  0  0  0  0  0
  193.3520  175.3830  145.9520 C   0  0  0  0  0  0  0  0  0  0  0  0
  192.9520  174.1230  145.4660 C   0  0  0  0  0  0  0  0  0  0  0  0
  191.0350  176.0830  145.9550 C   0  0  0  0  0  0  0  0  0  0  0  0
  195.2070  173.3850  145.4540 C   0  0  0  0  0  3  0  0  0  0  0  0
  193.8850  173.1610  145.2290 N   0  0  0  0  0  0  0  0  0  0  0  0
  195.6420  174.6250  145.9360 C   0  0  0  0  0  3  0  0  0  0  0  0
  190.6840  174.8190  145.4570 C   0  0  0  0  0  3  0  0  0  0  0  0
  191.6370  173.8760  145.2290 N   0  0  0  0  0  0  0  0  0  0  0  0
  194.7050  175.6300  146.1860 C   0  0  0  0  0  3  0  0  0  0  0  0
  192.3890  176.3610  146.1900 C   0  0  0  0  0  3  0  0  0  0  0  0
  188.4680  177.9090  142.7110 C   0  0  1  0  0  3  0  0  0  0  0  0
  189.0350  178.3810  141.5400 F   0  0  0  0  0  0  0  0  0  0  0  0
  187.7580  176.5860  142.4650 C   0  0  0  0  0  2  0  0  0  0  0  0
  186.2540  176.7380  142.6180 C   0  0  0  0  0  2  0  0  0  0  0  0
  185.8610  176.7120  144.0980 C   0  0  0  0  0  2  0  0  0  0  0  0
  184.9510  177.8010  144.4830 N   0  0  0  0  0  0  0  0  0  0  0  0
  185.4080  178.4180  145.7250 C   0  0  0  0  0  3  0  0  0  0  0  0
  185.6510  177.3420  146.7700 C   0  0  0  0  0  2  0  0  0  0  0  0
  184.3880  178.1710  146.8230 C   0  0  0  0  0  2  0  0  0  0  0  0
  185.5350  180.0460  143.9430 N   0  0  0  0  0  1  0  0  0  0  0  0
  184.9410  178.8200  143.4380 C   0  0  0  0  0  2  0  0  0  0  0  0
  1  4  1  0  0  0  0
  2  1  1  0  0  0  0
  4  3  2  0  0  0  0
  5  2  2  0  0  0  0
  6 14  2  0  0  0  0
  6 15  1  0  0  0  0
  7  6  1  0  0  0  0
  8  4  1  0  0  0  0
  8 15  2  0  0  0  0
  9 11  2  0  0  0  0
 10  9  1  0  0  0  0
 10  7  2  0  0  0  0
 11 14  1  0  0  0  0
 12  8  1  0  0  0  0
 13 12  2  0  0  0  0
 13  7  1  0  0  0  0
 16 17  1  6  0  0  0
 16  2  1  0  0  0  0
 18 19  1  0  0  0  0
 18 16  1  0  0  0  0
 19 20  1  0  0  0  0
 20 21  1  0  0  0  0
 21 22  1  0  0  0  0
 22 23  1  0  0  0  0
 22 24  1  0  0  0  0
 23 24  1  0  0  0  0
 26 25  1  0  0  0  0
 26 21  1  0  0  0  0
M  END
>  <MODEL>
3

>  <REMARK>
 VINA RESULT:      -6.2      2.279      7.090
  Name = 
  8 active torsions:
  status: ('A' for Active; 'I' for Inactive)
    1  A    between atoms: C_1  and  C_10
    2  A    between atoms: C_1  and  C_21
    3  A    between atoms: C_3  and  C_21
    4  A    between atoms: C_3  and  C_23
    5  A    between atoms: C_5  and  N_18
    6  A    between atoms: C_8  and  C_14
    7  A    between atoms: N_18  and  C_23
    8  A    between atoms: N_18  and  C_24
                            x       y       z     vdW  Elec       q    Type
                         _______ _______ _______ _____ _____    ______ ____

>  <TORSDO>
F 8

$$$$
=
 OpenBabel11042416113D

 26 28  0  0  1  0  0  0  0  0999 V2000
  190.3150  175.3020  145.1090 N   0  0  0  0  0  2  0  0  0  0  0  0
  190.8530  176.3690  145.8960 C   0  0  0  0  0  0  0  0  0  0  0  0
  189.3430  174.6920  143.0960 O   0  0  0  0  0  0  0  0  0  0  0  0
  189.2990  175.4420  144.1080 C   0  0  0  0  0  0  0  0  0  0  0  0
  190.6580  177.5720  145.5700 O   0  0  0  0  0  0  0  0  0  0  0  0
  186.2190  177.1910  145.4320 C   0  0  0  0  0  0  0  0  0  0  0  0
  186.0370  178.1670  144.4340 C   0  0  0  0  0  0  0  0  0  0  0  0
  188.1750  176.3910  144.2530 C   0  0  1  0  0  3  0  0  0  0  0  0
  184.1180  178.9940  145.5580 C   0  0  0  0  0  3  0  0  0  0  0  0
  184.9970  179.0390  144.5200 N   0  0  0  0  0  0  0  0  0  0  0  0
  184.2670  178.0370  146.5680 C   0  0  0  0  0  3  0  0  0  0  0  0
  187.9480  177.3710  143.2740 C   0  0  0  0  0  3  0  0  0  0  0  0
  186.8990  178.2300  143.3850 N   0  0  0  0  0  0  0  0  0  0  0  0
  185.3260  177.1300  146.5020 C   0  0  0  0  0  2  0  0  0  0  0  0
  187.2870  176.3020  145.3330 C   0  0  0  0  0  3  0  0  0  0  0  0
  191.6730  176.0460  147.0970 C   0  0  1  0  0  3  0  0  0  0  0  0
  191.0230  175.0980  147.8690 F   0  0  0  0  0  0  0  0  0  0  0  0
  193.0410  175.5370  146.6680 C   0  0  0  0  0  2  0  0  0  0  0  0
  194.0390  176.6770  146.5660 C   0  0  0  0  0  2  0  0  0  0  0  0
  194.5300  176.8330  145.1240 C   0  0  0  0  0  2  0  0  0  0  0  0
  194.7140  175.5530  144.4250 N   0  0  0  0  0  0  0  0  0  0  0  0
  194.3330  175.6900  143.0220 C   0  0  0  0  0  3  0  0  0  0  0  0
  192.9620  176.3350  142.9260 C   0  0  0  0  0  2  0  0  0  0  0  0
  193.1050  174.8420  142.7410 C   0  0  0  0  0  2  0  0  0  0  0  0
  196.8890  175.9500  143.5410 N   0  0  0  0  0  1  0  0  0  0  0  0
  196.1190  175.1610  144.4860 C   0  0  0  0  0  2  0  0  0  0  0  0
  1  2  1  0  0  0  0
  2 16  1  0  0  0  0
  3  4  2  0  0  0  0
  4  1  1  0  0  0  0
  5  2  2  0  0  0  0
  6 14  1  0  0  0  0
  7 10  2  0  0  0  0
  7  6  1  0  0  0  0
  8  4  1  6  0  0  0
  8 15  1  0  0  0  0
  9 11  2  0  0  0  0
 10  9  1  0  0  0  0
 12 13  2  0  0  0  0
 12  8  1  0  0  0  0
 13  7  1  0  0  0  0
 14 11  1  0  0  0  0
 15  6  2  0  0  0  0
 16 17  1  6  0  0  0
 18 16  1  0  0  0  0
 19 18  1  0  0  0  0
 20 19  1  0  0  0  0
 21 26  1  0  0  0  0
 21 20  1  0  0  0  0
 22 21  1  0  0  0  0
 23 22  1  0  0  0  0
 24 23  1  0  0  0  0
 24 22  1  0  0  0  0
 25 26  1  0  0  0  0
M  END
>  <MODEL>
4

>  <REMARK>
 VINA RESULT:      -6.1      2.590      3.674
  Name = 
  8 active torsions:
  status: ('A' for Active; 'I' for Inactive)
    1  A    between atoms: C_1  and  C_10
    2  A    between atoms: C_1  and  C_21
    3  A    between atoms: C_3  and  C_21
    4  A    between atoms: C_3  and  C_23
    5  A    between atoms: C_5  and  N_18
    6  A    between atoms: C_8  and  C_14
    7  A    between atoms: N_18  and  C_23
    8  A    between atoms: N_18  and  C_24
                            x       y       z     vdW  Elec       q    Type
                         _______ _______ _______ _____ _____    ______ ____

>  <TORSDO>
F 8

$$$$
=
 OpenBabel11042416113D

 26 28  0  0  1  0  0  0  0  0999 V2000
  189.8840  177.2740  145.1380 N   0  0  0  0  0  2  0  0  0  0  0  0
  189.3760  175.9430  145.2760 C   0  0  0  0  0  0  0  0  0  0  0  0
  190.9670  178.7910  143.7620 O   0  0  0  0  0  0  0  0  0  0  0  0
  190.9910  177.6570  144.3130 C   0  0  0  0  0  0  0  0  0  0  0  0
  189.7050  175.0400  144.4580 O   0  0  0  0  0  0  0  0  0  0  0  0
  194.1080  175.6410  145.0290 C   0  0  0  0  0  0  0  0  0  0  0  0
  194.4400  175.2220  143.7260 C   0  0  0  0  0  0  0  0  0  0  0  0
  192.1780  176.7940  144.1350 C   0  0  1  0  0  3  0  0  0  0  0  0
  196.3400  174.0670  144.5550 C   0  0  0  0  0  3  0  0  0  0  0  0
  195.5420  174.4510  143.5220 N   0  0  0  0  0  0  0  0  0  0  0  0
  196.0420  174.4650  145.8630 C   0  0  0  0  0  3  0  0  0  0  0  0
  192.5540  176.3650  142.8520 C   0  0  0  0  0  3  0  0  0  0  0  0
  193.6610  175.5950  142.6760 N   0  0  0  0  0  0  0  0  0  0  0  0
  194.9170  175.2580  146.0990 C   0  0  0  0  0  2  0  0  0  0  0  0
  192.9790  176.4310  145.2260 C   0  0  0  0  0  3  0  0  0  0  0  0
  188.4310  175.6350  146.3860 C   0  0  1  0  0  3  0  0  0  0  0  0
  189.0570  174.8400  147.3300 F   0  0  0  0  0  0  0  0  0  0  0  0
  187.9380  176.9280  147.0180 C   0  0  0  0  0  2  0  0  0  0  0  0
  186.4310  176.9050  147.2030 C   0  0  0  0  0  2  0  0  0  0  0  0
  185.7240  176.8910  145.8440 C   0  0  0  0  0  2  0  0  0  0  0  0
  186.1040  178.0130  144.9730 N   0  0  0  0  0  0  0  0  0  0  0  0
  185.7800  177.7000  143.5840 C   0  0  0  0  0  3  0  0  0  0  0  0
  186.2640  176.2990  143.2510 C   0  0  0  0  0  2  0  0  0  0  0  0
  187.0610  177.5000  142.7940 C   0  0  0  0  0  2  0  0  0  0  0  0
  183.9380  178.9070  145.4010 N   0  0  0  0  0  1  0  0  0  0  0  0
  185.3590  179.2060  145.3630 C   0  0  0  0  0  2  0  0  0  0  0  0
  1  2  1  0  0  0  0
  2 16  1  0  0  0  0
  3  4  2  0  0  0  0
  4  1  1  0  0  0  0
  5  2  2  0  0  0  0
  6 15  2  0  0  0  0
  6 14  1  0  0  0  0
  7  6  1  0  0  0  0
  8  4  1  6  0  0  0
  8 15  1  0  0  0  0
  9 11  2  0  0  0  0
 10  7  2  0  0  0  0
 10  9  1  0  0  0  0
 11 14  1  0  0  0  0
 12  8  1  0  0  0  0
 13 12  2  0  0  0  0
 13  7  1  0  0  0  0
 16 18  1  0  0  0  0
 16 17  1  1  0  0  0
 18 19  1  0  0  0  0
 20 19  1  0  0  0  0
 21 26  1  0  0  0  0
 21 20  1  0  0  0  0
 22 21  1  0  0  0  0
 23 22  1  0  0  0  0
 24 23  1  0  0  0  0
 24 22  1  0  0  0  0
 26 25  1  0  0  0  0
M  END
>  <MODEL>
5

>  <REMARK>
 VINA RESULT:      -6.0      2.600      7.238
  Name = 
  8 active torsions:
  status: ('A' for Active; 'I' for Inactive)
    1  A    between atoms: C_1  and  C_10
    2  A    between atoms: C_1  and  C_21
    3  A    between atoms: C_3  and  C_21
    4  A    between atoms: C_3  and  C_23
    5  A    between atoms: C_5  and  N_18
    6  A    between atoms: C_8  and  C_14
    7  A    between atoms: N_18  and  C_23
    8  A    between atoms: N_18  and  C_24
                            x       y       z     vdW  Elec       q    Type
                         _______ _______ _______ _____ _____    ______ ____

>  <TORSDO>
F 8

$$$$
=
 OpenBabel11042416113D

 26 28  0  0  1  0  0  0  0  0999 V2000
  189.6110  176.0180  142.2090 N   0  0  0  0  0  2  0  0  0  0  0  0
  190.4090  177.0220  142.8440 C   0  0  0  0  0  0  0  0  0  0  0  0
  187.8520  175.5830  140.7660 O   0  0  0  0  0  0  0  0  0  0  0  0
  188.2460  176.1800  141.8040 C   0  0  0  0  0  0  0  0  0  0  0  0
  190.0430  178.2290  142.8490 O   0  0  0  0  0  0  0  0  0  0  0  0
  185.9170  177.2910  144.5680 C   0  0  0  0  0  0  0  0  0  0  0  0
  185.4000  178.4710  144.0000 C   0  0  0  0  0  0  0  0  0  0  0  0
  187.2780  176.9710  142.5920 C   0  0  1  0  0  3  0  0  0  0  0  0
  184.0540  178.8340  145.9200 C   0  0  0  0  0  3  0  0  0  0  0  0
  184.4860  179.2090  144.6850 N   0  0  0  0  0  0  0  0  0  0  0  0
  184.5450  177.6670  146.5150 C   0  0  0  0  0  3  0  0  0  0  0  0
  186.7250  178.1460  142.0590 C   0  0  0  0  0  3  0  0  0  0  0  0
  185.8120  178.8650  142.7660 N   0  0  0  0  0  0  0  0  0  0  0  0
  185.4830  176.8910  145.8320 C   0  0  0  0  0  2  0  0  0  0  0  0
  186.8520  176.5420  143.8570 C   0  0  0  0  0  3  0  0  0  0  0  0
  191.6980  176.6320  143.4810 C   0  0  1  0  0  3  0  0  0  0  0  0
  191.6390  176.8660  144.8450 F   0  0  0  0  0  0  0  0  0  0  0  0
  191.9880  175.1640  143.2050 C   0  0  0  0  0  2  0  0  0  0  0  0
  192.5770  174.4850  144.4290 C   0  0  0  0  0  2  0  0  0  0  0  0
  191.7360  173.2660  144.8230 C   0  0  0  0  0  2  0  0  0  0  0  0
  190.2900  173.4760  144.6670 N   0  0  0  0  0  0  0  0  0  0  0  0
  189.6560  172.2510  144.1880 C   0  0  0  0  0  3  0  0  0  0  0  0
  190.3690  171.7610  142.9390 C   0  0  0  0  0  2  0  0  0  0  0  0
  189.0500  172.4910  142.8160 C   0  0  0  0  0  2  0  0  0  0  0  0
  189.2010  175.1860  145.9170 N   0  0  0  0  0  1  0  0  0  0  0  0
  189.7050  173.8250  145.9580 C   0  0  0  0  0  2  0  0  0  0  0  0
  1  2  1  0  0  0  0
  2  5  2  0  0  0  0
  2 16  1  0  0  0  0
  3  4  2  0  0  0  0
  4  1  1  0  0  0  0
  6 14  1  0  0  0  0
  7  6  1  0  0  0  0
  7 10  2  0  0  0  0
  8  4  1  6  0  0  0
  8 15  1  0  0  0  0
  9 11  2  0  0  0  0
 10  9  1  0  0  0  0
 12  8  1  0  0  0  0
 12 13  2  0  0  0  0
 13  7  1  0  0  0  0
 14 11  1  0  0  0  0
 15  6  2  0  0  0  0
 16 17  1  1  0  0  0
 18 16  1  0  0  0  0
 18 19  1  0  0  0  0
 19 20  1  0  0  0  0
 21 20  1  0  0  0  0
 21 26  1  0  0  0  0
 22 21  1  0  0  0  0
 23 22  1  0  0  0  0
 24 23  1  0  0  0  0
 24 22  1  0  0  0  0
 25 26  1  0  0  0  0
M  END
>  <MODEL>
6

>  <REMARK>
 VINA RESULT:      -6.0      1.765      2.272
  Name = 
  8 active torsions:
  status: ('A' for Active; 'I' for Inactive)
    1  A    between atoms: C_1  and  C_10
    2  A    between atoms: C_1  and  C_21
    3  A    between atoms: C_3  and  C_21
    4  A    between atoms: C_3  and  C_23
    5  A    between atoms: C_5  and  N_18
    6  A    between atoms: C_8  and  C_14
    7  A    between atoms: N_18  and  C_23
    8  A    between atoms: N_18  and  C_24
                            x       y       z     vdW  Elec       q    Type
                         _______ _______ _______ _____ _____    ______ ____

>  <TORSDO>
F 8

$$$$
=
 OpenBabel11042416113D

 26 28  0  0  1  0  0  0  0  0999 V2000
  189.5160  175.9740  142.5840 N   0  0  0  0  0  2  0  0  0  0  0  0
  190.0240  177.3120  142.5860 C   0  0  0  0  0  0  0  0  0  0  0  0
  187.7530  174.5820  142.0160 O   0  0  0  0  0  0  0  0  0  0  0  0
  188.1310  175.6130  142.6360 C   0  0  0  0  0  0  0  0  0  0  0  0
  189.2610  178.2910  142.3600 O   0  0  0  0  0  0  0  0  0  0  0  0
  186.3780  177.2720  145.5470 C   0  0  0  0  0  0  0  0  0  0  0  0
  185.2250  177.7590  144.9010 C   0  0  0  0  0  0  0  0  0  0  0  0
  187.1470  176.3750  143.4350 C   0  0  1  0  0  3  0  0  0  0  0  0
  184.4330  178.6660  146.9450 C   0  0  0  0  0  3  0  0  0  0  0  0
  184.2860  178.4390  145.6120 N   0  0  0  0  0  0  0  0  0  0  0  0
  185.5650  178.1970  147.6210 C   0  0  0  0  0  3  0  0  0  0  0  0
  185.9770  176.8650  142.8350 C   0  0  0  0  0  3  0  0  0  0  0  0
  185.0530  177.5410  143.5700 N   0  0  0  0  0  0  0  0  0  0  0  0
  186.5430  177.4940  146.9140 C   0  0  0  0  0  2  0  0  0  0  0  0
  187.3330  176.5760  144.8100 C   0  0  0  0  0  3  0  0  0  0  0  0
  191.4750  177.5400  142.8350 C   0  0  1  0  0  3  0  0  0  0  0  0
  191.6380  178.4270  143.8860 F   0  0  0  0  0  0  0  0  0  0  0  0
  192.1610  176.2170  143.1440 C   0  0  0  0  0  2  0  0  0  0  0  0
  192.4200  176.0720  144.6330 C   0  0  0  0  0  2  0  0  0  0  0  0
  192.4250  174.5940  145.0350 C   0  0  0  0  0  2  0  0  0  0  0  0
  191.1940  174.1650  145.7140 N   0  0  0  0  0  0  0  0  0  0  0  0
  190.4480  175.3320  146.1770 C   0  0  0  0  0  3  0  0  0  0  0  0
  190.7670  175.5960  147.6380 C   0  0  0  0  0  2  0  0  0  0  0  0
  189.4710  174.9150  147.2630 C   0  0  0  0  0  2  0  0  0  0  0  0
  191.1760  172.5080  144.0040 N   0  0  0  0  0  1  0  0  0  0  0  0
  190.3550  173.4210  144.7790 C   0  0  0  0  0  2  0  0  0  0  0  0
  1  2  1  0  0  0  0
  1  4  1  0  0  0  0
  2 16  1  0  0  0  0
  3  4  2  0  0  0  0
  5  2  2  0  0  0  0
  6 14  1  0  0  0  0
  7  6  1  0  0  0  0
  7 10  2  0  0  0  0
  8  4  1  1  0  0  0
  8 15  1  0  0  0  0
  9 11  2  0  0  0  0
 10  9  1  0  0  0  0
 12  8  1  0  0  0  0
 12 13  2  0  0  0  0
 13  7  1  0  0  0  0
 14 11  1  0  0  0  0
 15  6  2  0  0  0  0
 16 18  1  0  0  0  0
 16 17  1  1  0  0  0
 18 19  1  0  0  0  0
 19 20  1  0  0  0  0
 20 21  1  0  0  0  0
 21 22  1  0  0  0  0
 22 24  1  0  0  0  0
 22 23  1  0  0  0  0
 24 23  1  0  0  0  0
 25 26  1  0  0  0  0
 26 21  1  0  0  0  0
M  END
>  <MODEL>
7

>  <REMARK>
 VINA RESULT:      -5.9      1.634      2.266
  Name = 
  8 active torsions:
  status: ('A' for Active; 'I' for Inactive)
    1  A    between atoms: C_1  and  C_10
    2  A    between atoms: C_1  and  C_21
    3  A    between atoms: C_3  and  C_21
    4  A    between atoms: C_3  and  C_23
    5  A    between atoms: C_5  and  N_18
    6  A    between atoms: C_8  and  C_14
    7  A    between atoms: N_18  and  C_23
    8  A    between atoms: N_18  and  C_24
                            x       y       z     vdW  Elec       q    Type
                         _______ _______ _______ _____ _____    ______ ____

>  <TORSDO>
F 8

$$$$
=
 OpenBabel11042416113D

 26 28  0  0  1  0  0  0  0  0999 V2000
  187.8190  175.9340  146.7400 N   0  0  0  0  0  2  0  0  0  0  0  0
  187.7410  177.3600  146.6540 C   0  0  0  0  0  0  0  0  0  0  0  0
  188.8100  174.1180  147.7810 O   0  0  0  0  0  0  0  0  0  0  0  0
  188.9760  175.1900  147.1400 C   0  0  0  0  0  0  0  0  0  0  0  0
  188.6200  178.0880  147.1920 O   0  0  0  0  0  0  0  0  0  0  0  0
  192.1290  175.8430  145.1570 C   0  0  0  0  0  0  0  0  0  0  0  0
  192.9620  176.3540  146.1720 C   0  0  0  0  0  0  0  0  0  0  0  0
  190.3470  175.6100  146.7780 C   0  0  0  0  0  0  0  0  0  0  0  0
  194.7370  176.6120  144.6190 C   0  0  0  0  0  3  0  0  0  0  0  0
  194.2380  176.7220  145.8800 N   0  0  0  0  0  0  0  0  0  0  0  0
  193.9390  176.1080  143.5860 C   0  0  0  0  0  3  0  0  0  0  0  0
  191.2160  176.1100  147.7600 C   0  0  0  0  0  3  0  0  0  0  0  0
  192.4880  176.4700  147.4410 N   0  0  0  0  0  0  0  0  0  0  0  0
  192.6260  175.7220  143.8600 C   0  0  0  0  0  3  0  0  0  0  0  0
  190.8240  175.4680  145.4680 C   0  0  0  0  0  3  0  0  0  0  0  0
  186.5920  177.9850  145.9400 C   0  0  1  0  0  3  0  0  0  0  0  0
  187.0580  178.8670  144.9790 F   0  0  0  0  0  0  0  0  0  0  0  0
  185.7320  176.9050  145.3000 C   0  0  0  0  0  2  0  0  0  0  0  0
  185.1690  177.3740  143.9690 C   0  0  0  0  0  2  0  0  0  0  0  0
  185.9220  176.7180  142.8080 C   0  0  0  0  0  2  0  0  0  0  0  0
  186.6360  177.6790  141.9550 N   0  0  0  0  0  0  0  0  0  0  0  0
  187.9490  177.1480  141.5970 C   0  0  0  0  0  3  0  0  0  0  0  0
  188.5900  176.5060  142.8150 C   0  0  0  0  0  2  0  0  0  0  0  0
  189.0270  177.8840  142.3740 C   0  0  0  0  0  2  0  0  0  0  0  0
  186.6500  177.4470  139.5850 N   0  0  0  0  0  1  0  0  0  0  0  0
  185.8780  177.9000  140.7280 C   0  0  0  0  0  2  0  0  0  0  0  0
  1  4  1  0  0  0  0
  2  1  1  0  0  0  0
  2  5  2  0  0  0  0
  4  3  2  0  0  0  0
  6 15  1  0  0  0  0
  6  7  1  0  0  0  0
  7 13  1  0  0  0  0
  8  4  1  0  0  0  0
  8 12  1  0  0  0  0
  9 10  1  0  0  0  0
 10  7  2  0  0  0  0
 11 14  1  0  0  0  0
 11  9  2  0  0  0  0
 13 12  2  0  0  0  0
 14  6  2  0  0  0  0
 15  8  2  0  0  0  0
 16 17  1  6  0  0  0
 16  2  1  0  0  0  0
 18 16  1  0  0  0  0
 19 18  1  0  0  0  0
 20 19  1  0  0  0  0
 21 20  1  0  0  0  0
 22 21  1  0  0  0  0
 22 24  1  0  0  0  0
 22 23  1  0  0  0  0
 24 23  1  0  0  0  0
 25 26  1  0  0  0  0
 26 21  1  0  0  0  0
M  END
>  <MODEL>
8

>  <REMARK>
 VINA RESULT:      -5.9      2.659      7.257
  Name = 
  8 active torsions:
  status: ('A' for Active; 'I' for Inactive)
    1  A    between atoms: C_1  and  C_10
    2  A    between atoms: C_1  and  C_21
    3  A    between atoms: C_3  and  C_21
    4  A    between atoms: C_3  and  C_23
    5  A    between atoms: C_5  and  N_18
    6  A    between atoms: C_8  and  C_14
    7  A    between atoms: N_18  and  C_23
    8  A    between atoms: N_18  and  C_24
                            x       y       z     vdW  Elec       q    Type
                         _______ _______ _______ _____ _____    ______ ____

>  <TORSDO>
F 8

$$$$
=
 OpenBabel11042416113D

 26 28  0  0  1  0  0  0  0  0999 V2000
  189.3990  175.7320  142.6130 N   0  0  0  0  0  2  0  0  0  0  0  0
  190.0450  177.0020  142.7520 C   0  0  0  0  0  0  0  0  0  0  0  0
  187.5290  174.5940  141.8560 O   0  0  0  0  0  0  0  0  0  0  0  0
  187.9820  175.5230  142.5770 C   0  0  0  0  0  0  0  0  0  0  0  0
  189.4030  178.0740  142.5800 O   0  0  0  0  0  0  0  0  0  0  0  0
  186.3060  177.1690  145.5400 C   0  0  0  0  0  0  0  0  0  0  0  0
  185.2110  177.7810  144.9000 C   0  0  0  0  0  0  0  0  0  0  0  0
  187.0460  176.3210  143.3980 C   0  0  1  0  0  3  0  0  0  0  0  0
  184.4490  178.6440  146.9750 C   0  0  0  0  0  3  0  0  0  0  0  0
  184.3140  178.4980  145.6290 N   0  0  0  0  0  0  0  0  0  0  0  0
  185.5240  178.0500  147.6450 C   0  0  0  0  0  3  0  0  0  0  0  0
  185.9330  176.9350  142.8040 C   0  0  0  0  0  3  0  0  0  0  0  0
  185.0510  177.6470  143.5570 N   0  0  0  0  0  0  0  0  0  0  0  0
  186.4580  177.3070  146.9200 C   0  0  0  0  0  2  0  0  0  0  0  0
  187.2180  176.4360  144.7840 C   0  0  0  0  0  3  0  0  0  0  0  0
  191.4980  177.0480  143.0790 C   0  0  1  0  0  3  0  0  0  0  0  0
  191.6810  177.6120  144.3310 F   0  0  0  0  0  0  0  0  0  0  0  0
  192.0820  175.6440  143.0370 C   0  0  0  0  0  2  0  0  0  0  0  0
  193.4690  175.6490  142.4160 C   0  0  0  0  0  2  0  0  0  0  0  0
  194.5210  175.2440  143.4530 C   0  0  0  0  0  2  0  0  0  0  0  0
  195.0070  176.3680  144.2670 N   0  0  0  0  0  0  0  0  0  0  0  0
  195.1510  175.9510  145.6590 C   0  0  0  0  0  3  0  0  0  0  0  0
  193.8600  175.3070  146.1350 C   0  0  0  0  0  2  0  0  0  0  0  0
  194.1800  176.7310  146.5290 C   0  0  0  0  0  2  0  0  0  0  0  0
  197.1440  175.6350  143.5130 N   0  0  0  0  0  1  0  0  0  0  0  0
  196.3130  176.7970  143.7760 C   0  0  0  0  0  2  0  0  0  0  0  0
  1  2  1  0  0  0  0
  2 16  1  0  0  0  0
  3  4  2  0  0  0  0
  4  1  1  0  0  0  0
  5  2  2  0  0  0  0
  6 14  1  0  0  0  0
  7  6  1  0  0  0  0
  7 10  2  0  0  0  0
  8  4  1  1  0  0  0
  8 15  1  0  0  0  0
  9 11  2  0  0  0  0
 10  9  1  0  0  0  0
 12  8  1  0  0  0  0
 12 13  2  0  0  0  0
 13  7  1  0  0  0  0
 14 11  1  0  0  0  0
 15  6  2  0  0  0  0
 16 17  1  1  0  0  0
 18 16  1  0  0  0  0
 19 18  1  0  0  0  0
 19 20  1  0  0  0  0
 20 21  1  0  0  0  0
 21 22  1  0  0  0  0
 22 23  1  0  0  0  0
 22 24  1  0  0  0  0
 23 24  1  0  0  0  0
 25 26  1  0  0  0  0
 26 21  1  0  0  0  0
M  END
>  <MODEL>
9

>  <REMARK>
 VINA RESULT:      -5.9      2.348      3.299
  Name = 
  8 active torsions:
  status: ('A' for Active; 'I' for Inactive)
    1  A    between atoms: C_1  and  C_10
    2  A    between atoms: C_1  and  C_21
    3  A    between atoms: C_3  and  C_21
    4  A    between atoms: C_3  and  C_23
    5  A    between atoms: C_5  and  N_18
    6  A    between atoms: C_8  and  C_14
    7  A    between atoms: N_18  and  C_23
    8  A    between atoms: N_18  and  C_24
                            x       y       z     vdW  Elec       q    Type
                         _______ _______ _______ _____ _____    ______ ____

>  <TORSDO>
F 8

$$$$
