=
 OpenBabel11042416503D

 29 33  0  0  0  0  0  0  0  0999 V2000
  184.7550  178.4990  144.8480 C   0  0  0  0  0  3  0  0  0  0  0  0
  184.8730  178.2480  142.4750 N   0  0  0  0  0  0  0  0  0  0  0  0
  186.7760  177.5050  143.8300 C   0  0  0  0  0  0  0  0  0  0  0  0
  184.8470  178.6660  147.4340 C   0  0  0  0  0  3  0  0  0  0  0  0
  187.3590  177.3550  145.1180 C   0  0  0  0  0  0  0  0  0  0  0  0
  186.6040  177.8020  146.2140 C   0  0  0  0  0  0  0  0  0  0  0  0
  185.3690  178.3410  146.0850 C   0  0  0  0  0  0  0  0  0  0  0  0
  185.9060  178.2530  148.3800 N   0  0  0  0  0  2  0  0  0  0  0  0
  186.3170  177.3940  139.4690 C   0  0  0  0  0  3  0  0  0  0  0  0
  187.3370  177.0060  140.2940 N   0  0  0  0  0  0  0  0  0  0  0  0
  185.5780  177.8500  141.3940 C   0  0  0  0  0  0  0  0  0  0  0  0
  185.4510  178.0870  143.7050 C   0  0  0  0  0  0  0  0  0  0  0  0
  187.4610  177.1260  142.7040 N   0  0  0  0  0  2  0  0  0  0  0  0
  186.9430  177.7310  147.5800 N   0  0  0  0  0  0  0  0  0  0  0  0
  186.8610  177.2980  141.5080 C   0  0  0  0  0  0  0  0  0  0  0  0
  185.2250  177.9160  140.1070 N   0  0  0  0  0  0  0  0  0  0  0  0
  188.7020  176.7530  145.3140 C   0  0  0  0  0  0  0  0  0  0  0  0
  191.2480  175.6230  145.6990 C   0  0  0  0  0  0  0  0  0  0  0  0
  189.8580  177.5410  145.1940 C   0  0  0  0  0  3  0  0  0  0  0  0
  191.1240  176.9800  145.3870 C   0  0  0  0  0  3  0  0  0  0  0  0
  190.1040  174.8310  145.8290 C   0  0  0  0  0  3  0  0  0  0  0  0
  188.8390  175.3940  145.6380 C   0  0  0  0  0  3  0  0  0  0  0  0
  192.5960  175.0300  145.9220 C   0  0  0  0  0  2  0  0  0  0  0  0
  193.3820  175.0200  144.6240 C   0  0  0  0  0  2  0  0  0  0  0  0
  195.9490  174.9940  145.5420 O   0  0  0  0  0  0  0  0  0  0  0  0
  194.6980  177.2760  145.7980 O   0  0  0  0  0  1  0  0  0  0  0  0
  194.9540  175.9000  144.8500 P   0  0  2  0  0  0  0  0  0  0  0  0
  196.7870  176.9690  143.5130 O   0  0  0  0  0  1  0  0  0  0  0  0
  195.5870  176.3820  143.2900 N   0  0  0  0  0  2  0  0  0  0  0  0
  1  7  1  0  0  0  0
  2 12  1  0  0  0  0
  3  5  2  0  0  0  0
  4  8  1  0  0  0  0
  5 17  1  0  0  0  0
  5  6  1  0  0  0  0
  6 14  2  0  0  0  0
  7  6  1  0  0  0  0
  7  4  2  0  0  0  0
  9 16  2  0  0  0  0
  9 10  1  0  0  0  0
 10 15  2  0  0  0  0
 11 15  1  0  0  0  0
 11  2  2  0  0  0  0
 12  3  1  0  0  0  0
 12  1  2  0  0  0  0
 13  3  1  0  0  0  0
 14  8  1  0  0  0  0
 15 13  1  0  0  0  0
 16 11  1  0  0  0  0
 17 22  1  0  0  0  0
 18 21  1  0  0  0  0
 18 23  1  0  0  0  0
 19 17  2  0  0  0  0
 19 20  1  0  0  0  0
 20 18  2  0  0  0  0
 22 21  2  0  0  0  0
 24 27  1  0  0  0  0
 24 23  1  0  0  0  0
 27 25  2  1  0  0  0
 27 26  1  0  0  0  0
 29 28  1  0  0  0  0
 29 27  1  0  0  0  0
M  END
>  <MODEL>
1

>  <REMARK>
 VINA RESULT:      -7.9      0.000      0.000
  Name = 
  5 active torsions:
  status: ('A' for Active; 'I' for Inactive)
    1  A    between atoms: C_2  and  C_6
    2  A    between atoms: C_7  and  C_28
    3  A    between atoms: C_13  and  P_17
    4  A    between atoms: C_13  and  C_28
    5  A    between atoms: P_17  and  N_26
                            x       y       z     vdW  Elec       q    Type
                         _______ _______ _______ _____ _____    ______ ____

>  <TORSDO>
F 5

$$$$
=
 OpenBabel11042416503D

 29 33  0  0  0  0  0  0  0  0999 V2000
  184.4830  178.6080  145.3110 C   0  0  0  0  0  3  0  0  0  0  0  0
  183.9390  178.4880  142.9880 N   0  0  0  0  0  0  0  0  0  0  0  0
  186.1760  177.7900  143.7080 C   0  0  0  0  0  0  0  0  0  0  0  0
  185.2920  178.6460  147.7750 C   0  0  0  0  0  3  0  0  0  0  0  0
  187.1040  177.6080  144.7690 C   0  0  0  0  0  0  0  0  0  0  0  0
  186.6700  177.9520  146.0590 C   0  0  0  0  0  0  0  0  0  0  0  0
  185.4270  178.4230  146.3150 C   0  0  0  0  0  0  0  0  0  0  0  0
  186.5910  178.2490  148.3590 N   0  0  0  0  0  2  0  0  0  0  0  0
  184.5140  177.8780  139.6490 C   0  0  0  0  0  3  0  0  0  0  0  0
  185.7400  177.5090  140.1300 N   0  0  0  0  0  0  0  0  0  0  0  0
  184.3280  178.1900  141.7300 C   0  0  0  0  0  0  0  0  0  0  0  0
  184.8470  178.2990  143.9950 C   0  0  0  0  0  0  0  0  0  0  0  0
  186.5330  177.5110  142.4130 N   0  0  0  0  0  2  0  0  0  0  0  0
  187.3820  177.8310  147.2690 N   0  0  0  0  0  0  0  0  0  0  0  0
  185.6130  177.7090  141.4450 C   0  0  0  0  0  0  0  0  0  0  0  0
  183.6250  178.3010  140.5990 N   0  0  0  0  0  0  0  0  0  0  0  0
  188.4730  177.0760  144.5440 C   0  0  0  0  0  0  0  0  0  0  0  0
  191.0690  176.0790  144.1300 C   0  0  0  0  0  0  0  0  0  0  0  0
  189.5490  177.9530  144.3320 C   0  0  0  0  0  3  0  0  0  0  0  0
  190.8400  177.4580  144.1280 C   0  0  0  0  0  3  0  0  0  0  0  0
  190.0070  175.1980  144.3480 C   0  0  0  0  0  3  0  0  0  0  0  0
  188.7160  175.6940  144.5540 C   0  0  0  0  0  3  0  0  0  0  0  0
  192.4470  175.5520  143.9310 C   0  0  0  0  0  2  0  0  0  0  0  0
  193.4640  176.5280  144.4920 C   0  0  0  0  0  2  0  0  0  0  0  0
  194.1410  177.2480  147.0340 O   0  0  0  0  0  1  0  0  0  0  0  0
  195.3820  175.1410  146.1050 O   0  0  0  0  0  0  0  0  0  0  0  0
  193.9400  176.0220  146.1700 P   0  0  2  0  0  0  0  0  0  0  0  0
  191.8430  175.8420  147.5340 O   0  0  0  0  0  1  0  0  0  0  0  0
  192.6810  175.0200  146.8610 N   0  0  0  0  0  2  0  0  0  0  0  0
  1  7  1  0  0  0  0
  2 12  1  0  0  0  0
  3 12  1  0  0  0  0
  3  5  2  0  0  0  0
  4  8  1  0  0  0  0
  5  6  1  0  0  0  0
  6  7  1  0  0  0  0
  6 14  2  0  0  0  0
  7  4  2  0  0  0  0
  9 10  1  0  0  0  0
  9 16  2  0  0  0  0
 10 15  2  0  0  0  0
 11  2  2  0  0  0  0
 12  1  2  0  0  0  0
 13  3  1  0  0  0  0
 14  8  1  0  0  0  0
 15 11  1  0  0  0  0
 15 13  1  0  0  0  0
 16 11  1  0  0  0  0
 17 22  1  0  0  0  0
 17  5  1  0  0  0  0
 18 21  1  0  0  0  0
 19 17  2  0  0  0  0
 20 18  2  0  0  0  0
 20 19  1  0  0  0  0
 21 22  2  0  0  0  0
 23 18  1  0  0  0  0
 23 24  1  0  0  0  0
 24 27  1  0  0  0  0
 27 26  2  6  0  0  0
 27 29  1  0  0  0  0
 27 25  1  0  0  0  0
 29 28  1  0  0  0  0
M  END
>  <MODEL>
2

>  <REMARK>
 VINA RESULT:      -7.7      1.551      2.015
  Name = 
  5 active torsions:
  status: ('A' for Active; 'I' for Inactive)
    1  A    between atoms: C_2  and  C_6
    2  A    between atoms: C_7  and  C_28
    3  A    between atoms: C_13  and  P_17
    4  A    between atoms: C_13  and  C_28
    5  A    between atoms: P_17  and  N_26
                            x       y       z     vdW  Elec       q    Type
                         _______ _______ _______ _____ _____    ______ ____

>  <TORSDO>
F 5

$$$$
=
 OpenBabel11042416503D

 29 33  0  0  1  0  0  0  0  0999 V2000
  184.7920  178.2350  142.5830 C   0  0  0  0  0  3  0  0  0  0  0  0
  184.5430  178.5450  144.9390 N   0  0  0  0  0  0  0  0  0  0  0  0
  186.6780  177.6930  144.0850 C   0  0  0  0  0  0  0  0  0  0  0  0
  185.2900  177.8260  140.0710 C   0  0  0  0  0  3  0  0  0  0  0  0
  187.4640  177.3000  142.9680 C   0  0  0  0  0  0  0  0  0  0  0  0
  186.8590  177.3840  141.7040 C   0  0  0  0  0  0  0  0  0  0  0  0
  185.5940  177.8300  141.5230 C   0  0  0  0  0  0  0  0  0  0  0  0
  186.5180  177.3340  139.4090 N   0  0  0  0  0  0  0  0  0  0  0  0
  185.5070  178.4620  148.2420 C   0  0  0  0  0  3  0  0  0  0  0  0
  186.6650  177.9900  147.6880 N   0  0  0  0  0  0  0  0  0  0  0  0
  185.0830  178.4570  146.1740 C   0  0  0  0  0  0  0  0  0  0  0  0
  185.3210  178.1670  143.8780 C   0  0  1  0  0  3  0  0  0  0  0  0
  187.1810  177.6080  145.3590 N   0  0  0  0  0  2  0  0  0  0  0  0
  187.4350  177.0890  140.4520 N   0  0  0  0  0  0  0  0  0  0  0  0
  186.3870  177.9900  146.3810 C   0  0  0  0  0  0  0  0  0  0  0  0
  184.5170  178.7580  147.3460 N   0  0  0  0  0  0  0  0  0  0  0  0
  188.8630  176.8220  143.1120 C   0  0  0  0  0  0  0  0  0  0  0  0
  191.5120  175.9250  143.3980 C   0  0  0  0  0  0  0  0  0  0  0  0
  189.9290  177.7360  143.1190 C   0  0  0  0  0  3  0  0  0  0  0  0
  191.2460  177.2910  143.2620 C   0  0  0  0  0  3  0  0  0  0  0  0
  190.4590  175.0070  143.4010 C   0  0  0  0  0  3  0  0  0  0  0  0
  189.1410  175.4540  143.2590 C   0  0  0  0  0  3  0  0  0  0  0  0
  192.9140  175.4520  143.5690 C   0  0  0  0  0  2  0  0  0  0  0  0
  193.7310  176.5000  144.3020 C   0  0  0  0  0  2  0  0  0  0  0  0
  194.2410  177.1570  146.8990 O   0  0  0  0  0  1  0  0  0  0  0  0
  195.4440  175.0000  146.0380 O   0  0  0  0  0  0  0  0  0  0  0  0
  194.0480  175.9530  146.0040 P   0  0  2  0  0  0  0  0  0  0  0  0
  191.7280  175.8830  146.9560 O   0  0  0  0  0  1  0  0  0  0  0  0
  192.6900  175.0080  146.5800 N   0  0  0  0  0  2  0  0  0  0  0  0
  2 11  2  0  0  0  0
  3 13  1  0  0  0  0
  4  7  1  0  0  0  0
  5 17  1  0  0  0  0
  5  3  2  0  0  0  0
  6  5  1  0  0  0  0
  7  6  1  0  0  0  0
  7  1  2  0  0  0  0
  8  4  2  0  0  0  0
  8 14  1  0  0  0  0
 10  9  1  0  0  0  0
 11 15  1  0  0  0  0
 11 16  1  0  0  0  0
 12  1  1  1  0  0  0
 12  3  1  0  0  0  0
 12  2  1  0  0  0  0
 13 15  1  0  0  0  0
 14  6  2  0  0  0  0
 15 10  2  0  0  0  0
 16  9  2  0  0  0  0
 17 19  2  0  0  0  0
 17 22  1  0  0  0  0
 18 21  1  0  0  0  0
 18 23  1  0  0  0  0
 19 20  1  0  0  0  0
 20 18  2  0  0  0  0
 22 21  2  0  0  0  0
 23 24  1  0  0  0  0
 24 27  1  0  0  0  0
 27 26  2  1  0  0  0
 27 29  1  0  0  0  0
 27 25  1  0  0  0  0
 29 28  1  0  0  0  0
M  END
>  <MODEL>
3

>  <REMARK>
 VINA RESULT:      -7.4      1.829      4.573
  Name = 
  5 active torsions:
  status: ('A' for Active; 'I' for Inactive)
    1  A    between atoms: C_2  and  C_6
    2  A    between atoms: C_7  and  C_28
    3  A    between atoms: C_13  and  P_17
    4  A    between atoms: C_13  and  C_28
    5  A    between atoms: P_17  and  N_26
                            x       y       z     vdW  Elec       q    Type
                         _______ _______ _______ _____ _____    ______ ____

>  <TORSDO>
F 5

$$$$
=
 OpenBabel11042416503D

 29 33  0  0  0  0  0  0  0  0999 V2000
  184.7910  178.5450  144.8420 C   0  0  0  0  0  3  0  0  0  0  0  0
  184.7310  178.3000  142.4660 N   0  0  0  0  0  0  0  0  0  0  0  0
  186.7710  177.6530  143.6630 C   0  0  0  0  0  0  0  0  0  0  0  0
  185.0820  178.7170  147.4140 C   0  0  0  0  0  3  0  0  0  0  0  0
  187.4620  177.5310  144.8980 C   0  0  0  0  0  0  0  0  0  0  0  0
  186.7760  177.9410  146.0540 C   0  0  0  0  0  0  0  0  0  0  0  0
  185.5100  178.4180  146.0250 C   0  0  0  0  0  0  0  0  0  0  0  0
  186.2330  178.3570  148.2700 N   0  0  0  0  0  2  0  0  0  0  0  0
  185.9700  177.5190  139.3520 C   0  0  0  0  0  3  0  0  0  0  0  0
  187.0710  177.1820  140.0900 N   0  0  0  0  0  0  0  0  0  0  0  0
  185.3660  177.9380  141.3310 C   0  0  0  0  0  0  0  0  0  0  0  0
  185.4140  178.1690  143.6460 C   0  0  0  0  0  0  0  0  0  0  0  0
  187.3820  177.3080  142.4840 N   0  0  0  0  0  2  0  0  0  0  0  0
  187.2270  177.8870  147.3880 N   0  0  0  0  0  0  0  0  0  0  0  0
  186.6800  177.4500  141.3400 C   0  0  0  0  0  0  0  0  0  0  0  0
  184.9090  177.9860  140.0770 N   0  0  0  0  0  0  0  0  0  0  0  0
  188.8450  176.9970  144.9850 C   0  0  0  0  0  0  0  0  0  0  0  0
  191.4670  175.9950  145.1600 C   0  0  0  0  0  0  0  0  0  0  0  0
  189.9470  177.8350  144.7520 C   0  0  0  0  0  3  0  0  0  0  0  0
  191.2500  177.3390  144.8400 C   0  0  0  0  0  3  0  0  0  0  0  0
  190.3780  175.1530  145.4020 C   0  0  0  0  0  3  0  0  0  0  0  0
  189.0750  175.6520  145.3150 C   0  0  0  0  0  3  0  0  0  0  0  0
  192.8550  175.4700  145.2710 C   0  0  0  0  0  2  0  0  0  0  0  0
  192.8310  174.0320  145.7540 C   0  0  0  0  0  2  0  0  0  0  0  0
  194.7880  172.4200  144.7510 O   0  0  0  0  0  1  0  0  0  0  0  0
  193.4380  173.7760  142.9680 O   0  0  0  0  0  0  0  0  0  0  0  0
  193.4000  172.9280  144.4290 P   0  0  2  0  0  0  0  0  0  0  0  0
  191.1090  172.0700  143.8780 O   0  0  0  0  0  1  0  0  0  0  0  0
  192.3010  171.5720  144.2820 N   0  0  0  0  0  2  0  0  0  0  0  0
  1  7  1  0  0  0  0
  2 12  1  0  0  0  0
  3  5  2  0  0  0  0
  4  8  1  0  0  0  0
  5 17  1  0  0  0  0
  5  6  1  0  0  0  0
  6 14  2  0  0  0  0
  7  6  1  0  0  0  0
  7  4  2  0  0  0  0
  9 16  2  0  0  0  0
  9 10  1  0  0  0  0
 10 15  2  0  0  0  0
 11 15  1  0  0  0  0
 11  2  2  0  0  0  0
 12  3  1  0  0  0  0
 12  1  2  0  0  0  0
 13  3  1  0  0  0  0
 14  8  1  0  0  0  0
 15 13  1  0  0  0  0
 16 11  1  0  0  0  0
 17 22  1  0  0  0  0
 18 23  1  0  0  0  0
 18 21  1  0  0  0  0
 19 20  1  0  0  0  0
 19 17  2  0  0  0  0
 20 18  2  0  0  0  0
 22 21  2  0  0  0  0
 23 24  1  0  0  0  0
 27 26  2  6  0  0  0
 27 25  1  0  0  0  0
 27 24  1  0  0  0  0
 28 29  1  0  0  0  0
 29 27  1  0  0  0  0
M  END
>  <MODEL>
4

>  <REMARK>
 VINA RESULT:      -7.2      1.940      2.194
  Name = 
  5 active torsions:
  status: ('A' for Active; 'I' for Inactive)
    1  A    between atoms: C_2  and  C_6
    2  A    between atoms: C_7  and  C_28
    3  A    between atoms: C_13  and  P_17
    4  A    between atoms: C_13  and  C_28
    5  A    between atoms: P_17  and  N_26
                            x       y       z     vdW  Elec       q    Type
                         _______ _______ _______ _____ _____    ______ ____

>  <TORSDO>
F 5

$$$$
=
 OpenBabel11042416503D

 29 33  0  0  0  0  0  0  0  0999 V2000
  193.8270  176.3130  146.0870 C   0  0  0  0  0  3  0  0  0  0  0  0
  195.3610  176.1580  144.2620 N   0  0  0  0  0  0  0  0  0  0  0  0
  192.9670  176.3600  143.7700 C   0  0  0  0  0  0  0  0  0  0  0  0
  191.9840  176.5010  147.9020 C   0  0  0  0  0  3  0  0  0  0  0  0
  191.6370  176.4780  144.2580 C   0  0  0  0  0  0  0  0  0  0  0  0
  191.4710  176.4940  145.6530 C   0  0  0  0  0  0  0  0  0  0  0  0
  192.5100  176.4190  146.5180 C   0  0  0  0  0  0  0  0  0  0  0  0
  190.5180  176.6410  147.7630 N   0  0  0  0  0  2  0  0  0  0  0  0
  196.3140  175.9940  140.9580 C   0  0  0  0  0  3  0  0  0  0  0  0
  194.9640  176.1080  140.7670 N   0  0  0  0  0  0  0  0  0  0  0  0
  195.5590  176.1160  142.9270 C   0  0  0  0  0  0  0  0  0  0  0  0
  194.0720  176.2780  144.7090 C   0  0  0  0  0  0  0  0  0  0  0  0
  193.2140  176.3020  142.4220 N   0  0  0  0  0  2  0  0  0  0  0  0
  190.2690  176.6360  146.3750 N   0  0  0  0  0  0  0  0  0  0  0  0
  194.4960  176.1840  142.0160 C   0  0  0  0  0  0  0  0  0  0  0  0
  196.7140  175.9950  142.2660 N   0  0  0  0  0  0  0  0  0  0  0  0
  190.4660  176.5820  143.3510 C   0  0  0  0  0  0  0  0  0  0  0  0
  188.2390  176.7720  141.6450 C   0  0  0  0  0  0  0  0  0  0  0  0
  189.7690  175.4290  142.9560 C   0  0  0  0  0  3  0  0  0  0  0  0
  188.6610  175.5230  142.1100 C   0  0  0  0  0  3  0  0  0  0  0  0
  188.9200  177.9270  142.0390 C   0  0  0  0  0  3  0  0  0  0  0  0
  190.0270  177.8320  142.8870 C   0  0  0  0  0  3  0  0  0  0  0  0
  187.0480  176.8740  140.7580 C   0  0  0  0  0  2  0  0  0  0  0  0
  186.3430  178.1990  140.9830 C   0  0  0  0  0  2  0  0  0  0  0  0
  185.5160  176.7720  143.1550 O   0  0  0  0  0  1  0  0  0  0  0  0
  183.6550  178.1760  141.9700 O   0  0  0  0  0  0  0  0  0  0  0  0
  185.2740  178.0860  142.4470 P   0  0  2  0  0  0  0  0  0  0  0  0
  186.2440  178.8810  144.6190 O   0  0  0  0  0  1  0  0  0  0  0  0
  185.6290  179.4110  143.5360 N   0  0  0  0  0  2  0  0  0  0  0  0
  1  7  1  0  0  0  0
  2 12  1  0  0  0  0
  3  5  2  0  0  0  0
  3 12  1  0  0  0  0
  5  6  1  0  0  0  0
  6 14  2  0  0  0  0
  6  7  1  0  0  0  0
  7  4  2  0  0  0  0
  8  4  1  0  0  0  0
  9 16  2  0  0  0  0
 10  9  1  0  0  0  0
 10 15  2  0  0  0  0
 11  2  2  0  0  0  0
 12  1  2  0  0  0  0
 13  3  1  0  0  0  0
 14  8  1  0  0  0  0
 15 13  1  0  0  0  0
 15 11  1  0  0  0  0
 16 11  1  0  0  0  0
 17  5  1  0  0  0  0
 18 21  2  0  0  0  0
 18 20  1  0  0  0  0
 19 17  1  0  0  0  0
 20 19  2  0  0  0  0
 21 22  1  0  0  0  0
 22 17  2  0  0  0  0
 23 24  1  0  0  0  0
 23 18  1  0  0  0  0
 24 27  1  0  0  0  0
 27 26  2  6  0  0  0
 27 25  1  0  0  0  0
 27 29  1  0  0  0  0
 29 28  1  0  0  0  0
M  END
>  <MODEL>
5

>  <REMARK>
 VINA RESULT:      -7.1      4.782      7.968
  Name = 
  5 active torsions:
  status: ('A' for Active; 'I' for Inactive)
    1  A    between atoms: C_2  and  C_6
    2  A    between atoms: C_7  and  C_28
    3  A    between atoms: C_13  and  P_17
    4  A    between atoms: C_13  and  C_28
    5  A    between atoms: P_17  and  N_26
                            x       y       z     vdW  Elec       q    Type
                         _______ _______ _______ _____ _____    ______ ____

>  <TORSDO>
F 5

$$$$
=
 OpenBabel11042416503D

 29 33  0  0  0  0  0  0  0  0999 V2000
  194.1650  174.7790  142.8700 C   0  0  0  0  0  3  0  0  0  0  0  0
  192.9560  173.3760  141.3610 N   0  0  0  0  0  0  0  0  0  0  0  0
  191.7240  174.5140  143.1490 C   0  0  0  0  0  0  0  0  0  0  0  0
  195.2630  176.3520  144.6150 C   0  0  0  0  0  3  0  0  0  0  0  0
  191.7500  175.3830  144.2740 C   0  0  0  0  0  0  0  0  0  0  0  0
  193.0010  175.8990  144.6480 C   0  0  0  0  0  0  0  0  0  0  0  0
  194.1440  175.6150  143.9800 C   0  0  0  0  0  0  0  0  0  0  0  0
  194.6580  177.1110  145.7300 N   0  0  0  0  0  2  0  0  0  0  0  0
  190.1860  171.7850  140.0780 C   0  0  0  0  0  3  0  0  0  0  0  0
  189.5720  172.4530  141.1010 N   0  0  0  0  0  0  0  0  0  0  0  0
  191.7740  172.8410  140.9840 C   0  0  0  0  0  0  0  0  0  0  0  0
  192.9560  174.2150  142.4430 C   0  0  0  0  0  0  0  0  0  0  0  0
  190.5480  173.9380  142.7390 N   0  0  0  0  0  2  0  0  0  0  0  0
  193.2830  176.8000  145.6950 N   0  0  0  0  0  0  0  0  0  0  0  0
  190.5830  173.1170  141.6680 C   0  0  0  0  0  0  0  0  0  0  0  0
  191.5330  171.9980  139.9760 N   0  0  0  0  0  0  0  0  0  0  0  0
  190.5220  175.7410  145.0290 C   0  0  0  0  0  0  0  0  0  0  0  0
  188.2060  176.4180  146.4720 C   0  0  0  0  0  0  0  0  0  0  0  0
  190.0620  174.9160  146.0680 C   0  0  0  0  0  3  0  0  0  0  0  0
  188.9120  175.2530  146.7860 C   0  0  0  0  0  3  0  0  0  0  0  0
  188.6610  177.2510  145.4460 C   0  0  0  0  0  3  0  0  0  0  0  0
  189.8120  176.9130  144.7290 C   0  0  0  0  0  3  0  0  0  0  0  0
  186.9910  176.7870  147.2490 C   0  0  0  0  0  2  0  0  0  0  0  0
  185.7950  176.9010  146.3230 C   0  0  0  0  0  2  0  0  0  0  0  0
  185.6720  179.3570  147.5010 O   0  0  0  0  0  1  0  0  0  0  0  0
  183.5490  178.6680  146.1370 O   0  0  0  0  0  0  0  0  0  0  0  0
  185.2360  178.6270  146.2500 P   0  0  2  0  0  0  0  0  0  0  0  0
  184.8970  179.8810  144.1040 O   0  0  0  0  0  1  0  0  0  0  0  0
  185.9280  179.4100  144.8440 N   0  0  0  0  0  2  0  0  0  0  0  0
  1  7  1  0  0  0  0
  2 12  1  0  0  0  0
  3  5  2  0  0  0  0
  4  8  1  0  0  0  0
  5  6  1  0  0  0  0
  5 17  1  0  0  0  0
  6 14  2  0  0  0  0
  7  4  2  0  0  0  0
  7  6  1  0  0  0  0
  9 10  1  0  0  0  0
 10 15  2  0  0  0  0
 11  2  2  0  0  0  0
 11 15  1  0  0  0  0
 12  1  2  0  0  0  0
 12  3  1  0  0  0  0
 13  3  1  0  0  0  0
 14  8  1  0  0  0  0
 15 13  1  0  0  0  0
 16  9  2  0  0  0  0
 16 11  1  0  0  0  0
 17 19  1  0  0  0  0
 18 20  1  0  0  0  0
 18 23  1  0  0  0  0
 19 20  2  0  0  0  0
 21 18  2  0  0  0  0
 22 17  2  0  0  0  0
 22 21  1  0  0  0  0
 24 23  1  0  0  0  0
 27 26  2  6  0  0  0
 27 24  1  0  0  0  0
 27 25  1  0  0  0  0
 28 29  1  0  0  0  0
 29 27  1  0  0  0  0
M  END
>  <MODEL>
6

>  <REMARK>
 VINA RESULT:      -7.0      4.892      7.737
  Name = 
  5 active torsions:
  status: ('A' for Active; 'I' for Inactive)
    1  A    between atoms: C_2  and  C_6
    2  A    between atoms: C_7  and  C_28
    3  A    between atoms: C_13  and  P_17
    4  A    between atoms: C_13  and  C_28
    5  A    between atoms: P_17  and  N_26
                            x       y       z     vdW  Elec       q    Type
                         _______ _______ _______ _____ _____    ______ ____

>  <TORSDO>
F 5

$$$$
=
 OpenBabel11042416503D

 29 33  0  0  0  0  0  0  0  0999 V2000
  194.0700  173.8100  144.5770 C   0  0  0  0  0  3  0  0  0  0  0  0
  193.0460  172.1710  143.1720 N   0  0  0  0  0  0  0  0  0  0  0  0
  191.6130  173.8010  144.3120 C   0  0  0  0  0  0  0  0  0  0  0  0
  194.9580  175.6790  146.1400 C   0  0  0  0  0  3  0  0  0  0  0  0
  191.5070  174.9150  145.1880 C   0  0  0  0  0  0  0  0  0  0  0  0
  192.7030  175.4150  145.7280 C   0  0  0  0  0  0  0  0  0  0  0  0
  193.9170  174.8920  145.4350 C   0  0  0  0  0  0  0  0  0  0  0  0
  194.2280  176.7320  146.8800 N   0  0  0  0  0  2  0  0  0  0  0  0
  190.4390  170.5200  141.6470 C   0  0  0  0  0  3  0  0  0  0  0  0
  189.7090  171.4620  142.3180 N   0  0  0  0  0  0  0  0  0  0  0  0
  191.9160  171.6470  142.6510 C   0  0  0  0  0  0  0  0  0  0  0  0
  192.9210  173.2480  144.0080 C   0  0  0  0  0  0  0  0  0  0  0  0
  190.4900  173.2300  143.7690 N   0  0  0  0  0  2  0  0  0  0  0  0
  192.8650  176.5230  146.5850 N   0  0  0  0  0  0  0  0  0  0  0  0
  190.6510  172.1700  142.9490 C   0  0  0  0  0  0  0  0  0  0  0  0
  191.7920  170.6020  141.8270 N   0  0  0  0  0  0  0  0  0  0  0  0
  190.2010  175.5360  145.5270 C   0  0  0  0  0  0  0  0  0  0  0  0
  187.7350  176.7170  146.1820 C   0  0  0  0  0  0  0  0  0  0  0  0
  189.4610  175.0780  146.6280 C   0  0  0  0  0  3  0  0  0  0  0  0
  188.2360  175.6650  146.9560 C   0  0  0  0  0  3  0  0  0  0  0  0
  188.4670  177.1870  145.0890 C   0  0  0  0  0  3  0  0  0  0  0  0
  189.6940  176.5990  144.7630 C   0  0  0  0  0  3  0  0  0  0  0  0
  186.4390  177.3550  146.5410 C   0  0  0  0  0  2  0  0  0  0  0  0
  185.3980  177.0510  145.4800 C   0  0  0  0  0  2  0  0  0  0  0  0
  185.8460  179.6940  144.9750 O   0  0  0  0  0  0  0  0  0  0  0  0
  183.3410  179.0410  145.3530 O   0  0  0  0  0  1  0  0  0  0  0  0
  184.8390  178.5970  144.7060 P   0  0  2  0  0  0  0  0  0  0  0  0
  185.8730  178.6640  142.4220 O   0  0  0  0  0  1  0  0  0  0  0  0
  184.6760  178.3630  142.9780 N   0  0  0  0  0  2  0  0  0  0  0  0
  1  7  1  0  0  0  0
  2 12  1  0  0  0  0
  3  5  2  0  0  0  0
  4  8  1  0  0  0  0
  5 17  1  0  0  0  0
  5  6  1  0  0  0  0
  6 14  2  0  0  0  0
  7  6  1  0  0  0  0
  7  4  2  0  0  0  0
  9 16  2  0  0  0  0
  9 10  1  0  0  0  0
 10 15  2  0  0  0  0
 11 15  1  0  0  0  0
 11  2  2  0  0  0  0
 12  3  1  0  0  0  0
 12  1  2  0  0  0  0
 13  3  1  0  0  0  0
 14  8  1  0  0  0  0
 15 13  1  0  0  0  0
 16 11  1  0  0  0  0
 17 19  1  0  0  0  0
 18 23  1  0  0  0  0
 18 20  1  0  0  0  0
 19 20  2  0  0  0  0
 21 18  2  0  0  0  0
 22 21  1  0  0  0  0
 22 17  2  0  0  0  0
 24 23  1  0  0  0  0
 27 25  2  1  0  0  0
 27 26  1  0  0  0  0
 27 24  1  0  0  0  0
 28 29  1  0  0  0  0
 29 27  1  0  0  0  0
M  END
>  <MODEL>
7

>  <REMARK>
 VINA RESULT:      -6.9      4.858      7.961
  Name = 
  5 active torsions:
  status: ('A' for Active; 'I' for Inactive)
    1  A    between atoms: C_2  and  C_6
    2  A    between atoms: C_7  and  C_28
    3  A    between atoms: C_13  and  P_17
    4  A    between atoms: C_13  and  C_28
    5  A    between atoms: P_17  and  N_26
                            x       y       z     vdW  Elec       q    Type
                         _______ _______ _______ _____ _____    ______ ____

>  <TORSDO>
F 5

$$$$
=
 OpenBabel11042416503D

 29 33  0  0  1  0  0  0  0  0999 V2000
  184.7870  178.2680  142.5960 C   0  0  0  0  0  3  0  0  0  0  0  0
  184.5040  178.5200  144.9550 N   0  0  0  0  0  0  0  0  0  0  0  0
  186.6340  177.6430  144.1150 C   0  0  0  0  0  0  0  0  0  0  0  0
  185.3200  177.9160  140.0830 C   0  0  0  0  0  3  0  0  0  0  0  0
  187.4310  177.2630  143.0010 C   0  0  0  0  0  0  0  0  0  0  0  0
  186.8500  177.3950  141.7290 C   0  0  0  0  0  0  0  0  0  0  0  0
  185.5990  177.8740  141.5390 C   0  0  0  0  0  0  0  0  0  0  0  0
  186.5490  177.4150  139.4290 N   0  0  0  0  0  0  0  0  0  0  0  0
  185.4080  178.3250  148.2710 C   0  0  0  0  0  3  0  0  0  0  0  0
  186.5650  177.8410  147.7240 N   0  0  0  0  0  0  0  0  0  0  0  0
  185.0200  178.3850  146.1960 C   0  0  0  0  0  0  0  0  0  0  0  0
  185.2920  178.1530  143.8970 C   0  0  1  0  0  3  0  0  0  0  0  0
  187.1130  177.5120  145.3940 N   0  0  0  0  0  2  0  0  0  0  0  0
  187.4420  177.1210  140.4800 N   0  0  0  0  0  0  0  0  0  0  0  0
  186.3100  177.8840  146.4130 C   0  0  0  0  0  0  0  0  0  0  0  0
  184.4410  178.6670  147.3670 N   0  0  0  0  0  0  0  0  0  0  0  0
  188.8160  176.7490  143.1550 C   0  0  0  0  0  0  0  0  0  0  0  0
  191.4400  175.7860  143.4610 C   0  0  0  0  0  0  0  0  0  0  0  0
  189.9060  177.6340  143.1520 C   0  0  0  0  0  3  0  0  0  0  0  0
  191.2110  177.1570  143.3050 C   0  0  0  0  0  3  0  0  0  0  0  0
  190.3620  174.8970  143.4740 C   0  0  0  0  0  3  0  0  0  0  0  0
  189.0580  175.3770  143.3220 C   0  0  0  0  0  3  0  0  0  0  0  0
  192.8280  175.2790  143.6420 C   0  0  0  0  0  2  0  0  0  0  0  0
  193.7780  176.0210  142.7210 C   0  0  0  0  0  2  0  0  0  0  0  0
  195.8170  174.2360  142.4170 O   0  0  0  0  0  0  0  0  0  0  0  0
  195.6760  175.3770  144.7670 O   0  0  0  0  0  1  0  0  0  0  0  0
  195.4920  175.5490  143.0950 P   0  0  2  0  0  0  0  0  0  0  0  0
  196.1850  177.1190  141.2660 O   0  0  0  0  0  1  0  0  0  0  0  0
  196.5830  176.7910  142.5180 N   0  0  0  0  0  2  0  0  0  0  0  0
  2 11  2  0  0  0  0
  3 13  1  0  0  0  0
  4  7  1  0  0  0  0
  5 17  1  0  0  0  0
  5  3  2  0  0  0  0
  6  5  1  0  0  0  0
  7  6  1  0  0  0  0
  7  1  2  0  0  0  0
  8  4  2  0  0  0  0
  8 14  1  0  0  0  0
 10  9  1  0  0  0  0
 11 15  1  0  0  0  0
 11 16  1  0  0  0  0
 12  1  1  1  0  0  0
 12  3  1  0  0  0  0
 12  2  1  0  0  0  0
 13 15  1  0  0  0  0
 14  6  2  0  0  0  0
 15 10  2  0  0  0  0
 16  9  2  0  0  0  0
 17 22  1  0  0  0  0
 18 21  1  0  0  0  0
 18 23  1  0  0  0  0
 19 17  2  0  0  0  0
 19 20  1  0  0  0  0
 20 18  2  0  0  0  0
 22 21  2  0  0  0  0
 24 27  1  0  0  0  0
 24 23  1  0  0  0  0
 27 25  2  6  0  0  0
 27 26  1  0  0  0  0
 28 29  1  0  0  0  0
 29 27  1  0  0  0  0
M  END
>  <MODEL>
8

>  <REMARK>
 VINA RESULT:      -6.9      1.651      4.379
  Name = 
  5 active torsions:
  status: ('A' for Active; 'I' for Inactive)
    1  A    between atoms: C_2  and  C_6
    2  A    between atoms: C_7  and  C_28
    3  A    between atoms: C_13  and  P_17
    4  A    between atoms: C_13  and  C_28
    5  A    between atoms: P_17  and  N_26
                            x       y       z     vdW  Elec       q    Type
                         _______ _______ _______ _____ _____    ______ ____

>  <TORSDO>
F 5

$$$$
=
 OpenBabel11042416503D

 29 33  0  0  0  0  0  0  0  0999 V2000
  194.1130  173.3650  145.0660 C   0  0  0  0  0  3  0  0  0  0  0  0
  193.2270  171.5140  143.8430 N   0  0  0  0  0  0  0  0  0  0  0  0
  191.8850  173.5580  144.0150 C   0  0  0  0  0  0  0  0  0  0  0  0
  194.8720  175.4970  146.3340 C   0  0  0  0  0  3  0  0  0  0  0  0
  191.7580  174.8850  144.5090 C   0  0  0  0  0  0  0  0  0  0  0  0
  192.8240  175.3820  145.2760 C   0  0  0  0  0  0  0  0  0  0  0  0
  193.9410  174.6610  145.5360 C   0  0  0  0  0  0  0  0  0  0  0  0
  194.1870  176.7950  146.5120 N   0  0  0  0  0  2  0  0  0  0  0  0
  190.8910  169.7960  141.9890 C   0  0  0  0  0  3  0  0  0  0  0  0
  190.2030  170.9700  142.1320 N   0  0  0  0  0  0  0  0  0  0  0  0
  192.2130  170.9920  143.1200 C   0  0  0  0  0  0  0  0  0  0  0  0
  193.0860  172.7950  144.3030 C   0  0  0  0  0  0  0  0  0  0  0  0
  190.8740  172.9840  143.2860 N   0  0  0  0  0  2  0  0  0  0  0  0
  192.9530  176.6660  145.8420 N   0  0  0  0  0  0  0  0  0  0  0  0
  191.0460  171.7200  142.8480 C   0  0  0  0  0  0  0  0  0  0  0  0
  192.1230  169.7730  142.5810 N   0  0  0  0  0  0  0  0  0  0  0  0
  190.5630  175.7220  144.2350 C   0  0  0  0  0  0  0  0  0  0  0  0
  188.3020  177.3160  143.7310 C   0  0  0  0  0  0  0  0  0  0  0  0
  189.5060  175.7750  145.1590 C   0  0  0  0  0  3  0  0  0  0  0  0
  188.3830  176.5680  144.9100 C   0  0  0  0  0  3  0  0  0  0  0  0
  189.3510  177.2770  142.8090 C   0  0  0  0  0  3  0  0  0  0  0  0
  190.4750  176.4850  143.0600 C   0  0  0  0  0  3  0  0  0  0  0  0
  187.1140  178.1750  143.4740 C   0  0  0  0  0  2  0  0  0  0  0  0
  185.8740  177.5450  144.0820 C   0  0  0  0  0  2  0  0  0  0  0  0
  183.4820  178.7060  143.4780 O   0  0  0  0  0  0  0  0  0  0  0  0
  185.3540  180.3560  144.2630 O   0  0  0  0  0  1  0  0  0  0  0  0
  184.6430  178.8320  144.4390 P   0  0  2  0  0  0  0  0  0  0  0  0
  185.1050  178.9300  146.9030 O   0  0  0  0  0  1  0  0  0  0  0  0
  184.0650  178.6500  146.0830 N   0  0  0  0  0  2  0  0  0  0  0  0
  1  7  1  0  0  0  0
  2 12  1  0  0  0  0
  3 12  1  0  0  0  0
  3  5  2  0  0  0  0
  4  8  1  0  0  0  0
  5  6  1  0  0  0  0
  6  7  1  0  0  0  0
  6 14  2  0  0  0  0
  7  4  2  0  0  0  0
  9 10  1  0  0  0  0
  9 16  2  0  0  0  0
 10 15  2  0  0  0  0
 11  2  2  0  0  0  0
 12  1  2  0  0  0  0
 13  3  1  0  0  0  0
 14  8  1  0  0  0  0
 15 11  1  0  0  0  0
 15 13  1  0  0  0  0
 16 11  1  0  0  0  0
 17  5  1  0  0  0  0
 17 19  1  0  0  0  0
 18 20  1  0  0  0  0
 20 19  2  0  0  0  0
 21 22  1  0  0  0  0
 21 18  2  0  0  0  0
 22 17  2  0  0  0  0
 23 18  1  0  0  0  0
 23 24  1  0  0  0  0
 24 27  1  0  0  0  0
 26 27  1  0  0  0  0
 27 25  2  6  0  0  0
 27 29  1  0  0  0  0
 29 28  1  0  0  0  0
M  END
>  <MODEL>
9

>  <REMARK>
 VINA RESULT:      -6.6      5.123      8.353
  Name = 
  5 active torsions:
  status: ('A' for Active; 'I' for Inactive)
    1  A    between atoms: C_2  and  C_6
    2  A    between atoms: C_7  and  C_28
    3  A    between atoms: C_13  and  P_17
    4  A    between atoms: C_13  and  C_28
    5  A    between atoms: P_17  and  N_26
                            x       y       z     vdW  Elec       q    Type
                         _______ _______ _______ _____ _____    ______ ____

>  <TORSDO>
F 5

$$$$
