=
 OpenBabel11042415273D

 44 47  0  0  1  0  0  0  0  0999 V2000
  184.8660  178.4100  144.3810 C   0  0  0  0  0  3  0  0  0  0  0  0
  188.5860  176.9100  143.1700 N   0  0  0  0  0  0  0  0  0  0  0  0
  183.8020  178.4510  143.4770 C   0  0  0  0  0  3  0  0  0  0  0  0
  185.2880  177.7760  141.6870 C   0  0  0  0  0  3  0  0  0  0  0  0
  187.7360  177.4030  142.0870 C   0  0  0  0  0  2  0  0  0  0  0  0
  186.3540  177.7170  142.5900 C   0  0  0  0  0  0  0  0  0  0  0  0
  188.6270  177.9310  144.2140 C   0  0  0  0  0  2  0  0  0  0  0  0
  186.1470  178.0520  143.9450 C   0  0  0  0  0  0  0  0  0  0  0  0
  184.0050  178.1360  142.1290 C   0  0  0  0  0  0  0  0  0  0  0  0
  187.2780  177.9790  144.9390 C   0  0  1  0  0  3  0  0  0  0  0  0
  187.1180  176.7470  145.8200 C   0  0  0  0  0  2  0  0  0  0  0  0
  188.3760  176.5160  146.6330 C   0  0  0  0  0  2  0  0  0  0  0  0
  188.4090  175.1330  147.0940 N   0  0  0  0  0  2  0  0  0  0  0  0
  189.7020  174.5240  146.7750 C   0  0  2  0  0  3  0  0  0  0  0  0
  190.7480  175.3040  147.2750 O   0  0  0  0  0  1  0  0  0  0  0  0
  189.8830  174.2940  145.2700 C   0  0  0  0  0  2  0  0  0  0  0  0
  192.1370  173.4550  145.0340 O   0  0  0  0  0  1  0  0  0  0  0  0
  190.7880  173.1110  144.9250 C   0  0  2  0  0  3  0  0  0  0  0  0
  188.7700  172.2530  143.0750 O   0  0  0  0  0  1  0  0  0  0  0  0
  191.1110  171.0890  143.1300 O   0  0  0  0  0  1  0  0  0  0  0  0
  190.4400  172.4360  143.2710 P   0  0  0  0  0  0  0  0  0  0  0  0
  191.0350  173.4860  142.0840 O   0  0  0  0  0  0  0  0  0  0  0  0
  189.9330  176.7800  142.6500 C   0  0  0  0  0  2  0  0  0  0  0  0
  190.8550  177.7310  143.3910 C   0  0  0  0  0  2  0  0  0  0  0  0
  192.6800  177.0750  144.9730 C   0  0  0  0  0  3  0  0  0  0  0  0
  196.0690  174.7450  142.0610 N   0  0  0  0  0  0  0  0  0  0  0  0
  192.8520  176.4300  142.6450 C   0  0  0  0  0  3  0  0  0  0  0  0
  194.6050  175.8210  144.2090 C   0  0  0  0  0  0  0  0  0  0  0  0
  195.8790  175.0870  144.5070 C   0  0  0  0  0  2  0  0  0  0  0  0
  194.0770  175.8030  142.9050 C   0  0  0  0  0  0  0  0  0  0  0  0
  193.8990  176.4450  145.2410 C   0  0  0  0  0  3  0  0  0  0  0  0
  194.8400  175.1150  141.8430 C   0  0  0  0  0  0  0  0  0  0  0  0
  196.8030  175.0840  143.2830 C   0  0  2  0  0  3  0  0  0  0  0  0
  192.1580  177.0730  143.6740 C   0  0  0  0  0  0  0  0  0  0  0  0
  197.3930  176.3410  143.1410 O   0  0  0  0  0  1  0  0  0  0  0  0
  194.2020  174.7670  140.5430 C   0  0  0  0  0  1  0  0  0  0  0  0
  182.8990  178.1950  141.2270 N   0  0  0  0  0  2  0  0  0  0  0  0
  181.5550  178.5630  141.6440 C   0  0  0  0  0  2  0  0  0  0  0  0
  180.6140  178.4520  140.4620 C   0  0  0  0  0  2  0  0  0  0  0  0
  179.1820  178.4630  140.9520 C   0  0  0  0  0  2  0  0  0  0  0  0
  178.4380  178.7530  144.7360 C   0  0  0  0  0  1  0  0  0  0  0  0
  177.6920  177.2530  143.0510 O   0  0  0  0  0  0  0  0  0  0  0  0
  178.3960  178.2580  143.3360 C   0  0  0  0  0  0  0  0  0  0  0  0
  179.1450  178.9330  142.3260 N   0  0  0  0  0  2  0  0  0  0  0  0
  2  7  1  0  0  0  0
  3  1  2  0  0  0  0
  4  9  2  0  0  0  0
  4  6  1  0  0  0  0
  5  6  1  0  0  0  0
  5  2  1  0  0  0  0
  6  8  2  0  0  0  0
  7 10  1  0  0  0  0
  8  1  1  0  0  0  0
  8 10  1  0  0  0  0
  9  3  1  0  0  0  0
 10 11  1  6  0  0  0
 11 12  1  0  0  0  0
 12 13  1  0  0  0  0
 14 13  1  0  0  0  0
 14 15  1  6  0  0  0
 16 14  1  0  0  0  0
 18 17  1  6  0  0  0
 18 16  1  0  0  0  0
 19 21  1  0  0  0  0
 20 21  1  0  0  0  0
 21 18  1  0  0  0  0
 22 21  2  0  0  0  0
 23  2  1  0  0  0  0
 23 24  1  0  0  0  0
 24 34  1  0  0  0  0
 25 31  1  0  0  0  0
 26 33  1  0  0  0  0
 27 30  2  0  0  0  0
 27 34  1  0  0  0  0
 28 29  1  0  0  0  0
 28 31  2  0  0  0  0
 30 28  1  0  0  0  0
 32 26  2  0  0  0  0
 32 30  1  0  0  0  0
 33 35  1  6  0  0  0
 33 29  1  0  0  0  0
 34 25  2  0  0  0  0
 36 32  1  0  0  0  0
 37 38  1  0  0  0  0
 37  9  1  0  0  0  0
 39 40  1  0  0  0  0
 39 38  1  0  0  0  0
 40 44  1  0  0  0  0
 42 43  2  0  0  0  0
 43 41  1  0  0  0  0
 44 43  1  0  0  0  0
M  END
>  <MODEL>
1

>  <REMARK>
 VINA RESULT:      -7.3      0.000      0.000
  Name = 
  15 active torsions:
  status: ('A' for Active; 'I' for Inactive)
    1  A    between atoms: C_5  and  C_29
    2  A    between atoms: C_5  and  C_36
    3  A    between atoms: C_6  and  C_24
    4  A    between atoms: C_6  and  C_37
    5  A    between atoms: N_7  and  C_36
    6  A    between atoms: N_19  and  C_23
    7  A    between atoms: N_19  and  C_24
    8  A    between atoms: C_21  and  C_28
    9  A    between atoms: C_21  and  N_41
   10  A    between atoms: C_23  and  C_43
   11  A    between atoms: C_28  and  C_33
   12  A    between atoms: C_32  and  N_41
   13  A    between atoms: C_33  and  N_42
   14  A    between atoms: P_35  and  C_44
   15  A    between atoms: C_43  and  C_44
                            x       y       z     vdW  Elec       q    Type
                         _______ _______ _______ _____ _____    ______ ____

>  <TORSDO>
F 15

$$$$
=
 OpenBabel11042415273D

 44 47  0  0  1  0  0  0  0  0999 V2000
  188.2910  175.3770  142.1680 C   0  0  0  0  0  3  0  0  0  0  0  0
  190.1780  175.2060  145.9050 N   0  0  0  0  0  0  0  0  0  0  0  0
  187.5360  176.4990  141.8180 C   0  0  0  0  0  3  0  0  0  0  0  0
  187.7870  177.3760  144.0610 C   0  0  0  0  0  3  0  0  0  0  0  0
  189.0290  176.1080  145.8330 C   0  0  0  0  0  2  0  0  0  0  0  0
  188.5570  176.2640  144.4140 C   0  0  0  0  0  0  0  0  0  0  0  0
  189.7800  173.9190  145.3400 C   0  0  0  0  0  2  0  0  0  0  0  0
  188.7990  175.2470  143.4650 C   0  0  0  0  0  0  0  0  0  0  0  0
  187.2800  177.5020  142.7590 C   0  0  0  0  0  0  0  0  0  0  0  0
  189.6400  174.0460  143.8190 C   0  0  1  0  0  3  0  0  0  0  0  0
  191.0170  174.1690  143.1790 C   0  0  0  0  0  2  0  0  0  0  0  0
  191.2360  173.0460  142.1860 C   0  0  0  0  0  2  0  0  0  0  0  0
  190.1860  172.0470  142.3420 N   0  0  0  0  0  2  0  0  0  0  0  0
  190.4730  170.8760  141.5090 C   0  0  2  0  0  3  0  0  0  0  0  0
  191.2010  169.9280  142.2320 O   0  0  0  0  0  1  0  0  0  0  0  0
  191.2160  171.2460  140.2200 C   0  0  0  0  0  2  0  0  0  0  0  0
  191.2050  170.6730  137.8720 O   0  0  0  0  0  1  0  0  0  0  0  0
  190.3930  171.0400  138.9470 C   0  0  2  0  0  3  0  0  0  0  0  0
  189.0880  172.5120  136.8600 O   0  0  0  0  0  0  0  0  0  0  0  0
  190.1770  173.7530  138.8860 O   0  0  0  0  0  1  0  0  0  0  0  0
  189.4040  172.5070  138.5210 P   0  0  0  0  0  0  0  0  0  0  0  0
  187.9420  172.4830  139.3730 O   0  0  0  0  0  1  0  0  0  0  0  0
  190.4770  174.9810  147.3060 C   0  0  0  0  0  2  0  0  0  0  0  0
  191.6000  175.9050  147.7380 C   0  0  0  0  0  2  0  0  0  0  0  0
  193.5500  176.8770  146.5060 C   0  0  0  0  0  3  0  0  0  0  0  0
  195.4530  172.9880  143.9270 N   0  0  0  0  0  0  0  0  0  0  0  0
  193.0970  174.5060  146.3090 C   0  0  0  0  0  3  0  0  0  0  0  0
  194.9720  175.4890  145.1230 C   0  0  0  0  0  0  0  0  0  0  0  0
  196.1950  175.3260  144.2700 C   0  0  0  0  0  2  0  0  0  0  0  0
  194.1980  174.3630  145.4550 C   0  0  0  0  0  0  0  0  0  0  0  0
  194.6540  176.7390  145.6590 C   0  0  0  0  0  3  0  0  0  0  0  0
  194.5760  173.0520  144.8860 C   0  0  0  0  0  0  0  0  0  0  0  0
  196.0140  174.1750  143.2740 C   0  0  2  0  0  3  0  0  0  0  0  0
  192.7670  175.7620  146.8270 C   0  0  0  0  0  0  0  0  0  0  0  0
  195.1710  174.5810  142.2380 O   0  0  0  0  0  1  0  0  0  0  0  0
  194.0250  171.7860  145.4460 C   0  0  0  0  0  1  0  0  0  0  0  0
  186.4980  178.6340  142.3730 N   0  0  0  0  0  2  0  0  0  0  0  0
  185.0940  178.7840  142.7210 C   0  0  0  0  0  2  0  0  0  0  0  0
  184.9730  179.6610  143.9500 C   0  0  0  0  0  2  0  0  0  0  0  0
  184.1170  178.9640  144.9870 C   0  0  0  0  0  2  0  0  0  0  0  0
  186.1260  177.7080  148.0430 C   0  0  0  0  0  1  0  0  0  0  0  0
  185.1580  176.6000  146.1770 O   0  0  0  0  0  0  0  0  0  0  0  0
  185.3550  177.6920  146.7740 C   0  0  0  0  0  0  0  0  0  0  0  0
  184.8340  178.9130  146.2490 N   0  0  0  0  0  2  0  0  0  0  0  0
  1  8  1  0  0  0  0
  2 23  1  0  0  0  0
  3  1  2  0  0  0  0
  3  9  1  0  0  0  0
  4  6  1  0  0  0  0
  5  2  1  0  0  0  0
  6  5  1  0  0  0  0
  7  2  1  0  0  0  0
  8 10  1  0  0  0  0
  8  6  2  0  0  0  0
  9  4  2  0  0  0  0
 10 11  1  6  0  0  0
 10  7  1  0  0  0  0
 12 13  1  0  0  0  0
 12 11  1  0  0  0  0
 14 15  1  1  0  0  0
 14 13  1  0  0  0  0
 16 14  1  0  0  0  0
 18 17  1  6  0  0  0
 18 16  1  0  0  0  0
 19 21  2  0  0  0  0
 21 20  1  0  0  0  0
 21 18  1  0  0  0  0
 21 22  1  0  0  0  0
 23 24  1  0  0  0  0
 25 34  1  0  0  0  0
 26 32  2  0  0  0  0
 27 34  2  0  0  0  0
 28 30  2  0  0  0  0
 28 31  1  0  0  0  0
 29 28  1  0  0  0  0
 30 27  1  0  0  0  0
 31 25  2  0  0  0  0
 32 36  1  0  0  0  0
 32 30  1  0  0  0  0
 33 35  1  6  0  0  0
 33 26  1  0  0  0  0
 33 29  1  0  0  0  0
 34 24  1  0  0  0  0
 37 38  1  0  0  0  0
 37  9  1  0  0  0  0
 38 39  1  0  0  0  0
 39 40  1  0  0  0  0
 40 44  1  0  0  0  0
 42 43  2  0  0  0  0
 43 41  1  0  0  0  0
 44 43  1  0  0  0  0
M  END
>  <MODEL>
2

>  <REMARK>
 VINA RESULT:      -7.2      3.322      5.027
  Name = 
  15 active torsions:
  status: ('A' for Active; 'I' for Inactive)
    1  A    between atoms: C_5  and  C_29
    2  A    between atoms: C_5  and  C_36
    3  A    between atoms: C_6  and  C_24
    4  A    between atoms: C_6  and  C_37
    5  A    between atoms: N_7  and  C_36
    6  A    between atoms: N_19  and  C_23
    7  A    between atoms: N_19  and  C_24
    8  A    between atoms: C_21  and  C_28
    9  A    between atoms: C_21  and  N_41
   10  A    between atoms: C_23  and  C_43
   11  A    between atoms: C_28  and  C_33
   12  A    between atoms: C_32  and  N_41
   13  A    between atoms: C_33  and  N_42
   14  A    between atoms: P_35  and  C_44
   15  A    between atoms: C_43  and  C_44
                            x       y       z     vdW  Elec       q    Type
                         _______ _______ _______ _____ _____    ______ ____

>  <TORSDO>
F 15

$$$$
=
 OpenBabel11042415273D

 44 47  0  0  1  0  0  0  0  0999 V2000
  191.1800  176.1890  146.5760 C   0  0  0  0  0  3  0  0  0  0  0  0
  189.0690  176.3660  142.9620 N   0  0  0  0  0  0  0  0  0  0  0  0
  192.5680  176.3520  146.5830 C   0  0  0  0  0  3  0  0  0  0  0  0
  192.5890  176.3340  144.1610 C   0  0  0  0  0  3  0  0  0  0  0  0
  190.4840  176.0160  142.8350 C   0  0  0  0  0  2  0  0  0  0  0  0
  191.1980  176.1870  144.1470 C   0  0  0  0  0  0  0  0  0  0  0  0
  188.4830  175.5150  143.9930 C   0  0  0  0  0  2  0  0  0  0  0  0
  190.4880  176.0970  145.3640 C   0  0  0  0  0  0  0  0  0  0  0  0
  193.2780  176.4250  145.3810 C   0  0  0  0  0  0  0  0  0  0  0  0
  188.9870  175.9550  145.3720 C   0  0  1  0  0  3  0  0  0  0  0  0
  188.3410  177.2780  145.7620 C   0  0  0  0  0  2  0  0  0  0  0  0
  187.2780  177.0530  146.8170 C   0  0  0  0  0  2  0  0  0  0  0  0
  186.4880  178.2670  146.9800 N   0  0  0  0  0  2  0  0  0  0  0  0
  185.0660  177.9780  146.7790 C   0  0  2  0  0  3  0  0  0  0  0  0
  184.8740  176.6160  146.5310 O   0  0  0  0  0  1  0  0  0  0  0  0
  184.4550  178.8150  145.6490 C   0  0  0  0  0  2  0  0  0  0  0  0
  185.4120  180.4860  144.1890 O   0  0  0  0  0  1  0  0  0  0  0  0
  185.4270  179.1280  144.5110 C   0  0  2  0  0  3  0  0  0  0  0  0
  186.0600  178.6710  141.7500 O   0  0  0  0  0  0  0  0  0  0  0  0
  183.6410  178.2550  142.6500 O   0  0  0  0  0  1  0  0  0  0  0  0
  185.0980  178.1240  143.0280 P   0  0  0  0  0  0  0  0  0  0  0  0
  185.4510  176.4990  143.3440 O   0  0  0  0  0  1  0  0  0  0  0  0
  188.4170  176.0290  141.7110 C   0  0  0  0  0  2  0  0  0  0  0  0
  187.9600  174.5830  141.7530 C   0  0  0  0  0  2  0  0  0  0  0  0
  188.6490  174.1780  139.3810 C   0  0  0  0  0  3  0  0  0  0  0  0
  191.2820  169.8850  139.5680 N   0  0  0  0  0  0  0  0  0  0  0  0
  189.3990  172.6480  141.1030 C   0  0  0  0  0  3  0  0  0  0  0  0
  190.0380  172.2850  138.7890 C   0  0  0  0  0  0  0  0  0  0  0  0
  190.8270  171.5230  137.7670 C   0  0  0  0  0  2  0  0  0  0  0  0
  190.0810  171.8930  140.1390 C   0  0  0  0  0  0  0  0  0  0  0  0
  189.3330  173.4330  138.4160 C   0  0  0  0  0  3  0  0  0  0  0  0
  190.8540  170.6860  140.5010 C   0  0  0  0  0  0  0  0  0  0  0  0
  190.9320  170.0430  138.1540 C   0  0  2  0  0  3  0  0  0  0  0  0
  188.6760  173.7830  140.7240 C   0  0  0  0  0  0  0  0  0  0  0  0
  189.7170  169.4060  137.8980 O   0  0  0  0  0  1  0  0  0  0  0  0
  191.2200  170.4060  141.9170 C   0  0  0  0  0  1  0  0  0  0  0  0
  194.6970  176.5840  145.4210 N   0  0  0  0  0  2  0  0  0  0  0  0
  195.6250  175.4970  145.1510 C   0  0  0  0  0  2  0  0  0  0  0  0
  196.3110  175.7400  143.8230 C   0  0  0  0  0  2  0  0  0  0  0  0
  196.0900  174.5500  142.9130 C   0  0  0  0  0  2  0  0  0  0  0  0
  192.9070  174.2000  140.7450 C   0  0  0  0  0  1  0  0  0  0  0  0
  194.1530  172.6540  142.0490 O   0  0  0  0  0  0  0  0  0  0  0  0
  194.0390  173.8380  141.6360 C   0  0  0  0  0  0  0  0  0  0  0  0
  194.9930  174.8340  142.0040 N   0  0  0  0  0  2  0  0  0  0  0  0
  1  3  1  0  0  0  0
  2  7  1  0  0  0  0
  4  9  1  0  0  0  0
  5  2  1  0  0  0  0
  5  6  1  0  0  0  0
  6  4  2  0  0  0  0
  6  8  1  0  0  0  0
  7 10  1  0  0  0  0
  8 10  1  0  0  0  0
  8  1  2  0  0  0  0
  9 37  1  0  0  0  0
  9  3  2  0  0  0  0
 10 11  1  6  0  0  0
 11 12  1  0  0  0  0
 12 13  1  0  0  0  0
 14 15  1  6  0  0  0
 14 13  1  0  0  0  0
 16 14  1  0  0  0  0
 18 17  1  6  0  0  0
 18 16  1  0  0  0  0
 19 21  2  0  0  0  0
 20 21  1  0  0  0  0
 21 22  1  0  0  0  0
 21 18  1  0  0  0  0
 23 24  1  0  0  0  0
 23  2  1  0  0  0  0
 25 34  1  0  0  0  0
 26 32  2  0  0  0  0
 28 30  2  0  0  0  0
 29 33  1  0  0  0  0
 29 28  1  0  0  0  0
 30 32  1  0  0  0  0
 30 27  1  0  0  0  0
 31 28  1  0  0  0  0
 31 25  2  0  0  0  0
 32 36  1  0  0  0  0
 33 35  1  1  0  0  0
 33 26  1  0  0  0  0
 34 27  2  0  0  0  0
 34 24  1  0  0  0  0
 38 37  1  0  0  0  0
 39 38  1  0  0  0  0
 40 39  1  0  0  0  0
 41 43  1  0  0  0  0
 43 44  1  0  0  0  0
 43 42  2  0  0  0  0
 44 40  1  0  0  0  0
M  END
>  <MODEL>
3

>  <REMARK>
 VINA RESULT:      -7.1      3.984      9.174
  Name = 
  15 active torsions:
  status: ('A' for Active; 'I' for Inactive)
    1  A    between atoms: C_5  and  C_29
    2  A    between atoms: C_5  and  C_36
    3  A    between atoms: C_6  and  C_24
    4  A    between atoms: C_6  and  C_37
    5  A    between atoms: N_7  and  C_36
    6  A    between atoms: N_19  and  C_23
    7  A    between atoms: N_19  and  C_24
    8  A    between atoms: C_21  and  C_28
    9  A    between atoms: C_21  and  N_41
   10  A    between atoms: C_23  and  C_43
   11  A    between atoms: C_28  and  C_33
   12  A    between atoms: C_32  and  N_41
   13  A    between atoms: C_33  and  N_42
   14  A    between atoms: P_35  and  C_44
   15  A    between atoms: C_43  and  C_44
                            x       y       z     vdW  Elec       q    Type
                         _______ _______ _______ _____ _____    ______ ____

>  <TORSDO>
F 15

$$$$
=
 OpenBabel11042415273D

 44 47  0  0  1  0  0  0  0  0999 V2000
  186.7000  175.7220  142.7370 C   0  0  0  0  0  3  0  0  0  0  0  0
  190.8480  176.2410  143.0030 N   0  0  0  0  0  0  0  0  0  0  0  0
  185.8450  176.8080  142.9460 C   0  0  0  0  0  3  0  0  0  0  0  0
  187.7300  178.1690  143.6250 C   0  0  0  0  0  3  0  0  0  0  0  0
  190.0540  177.2300  143.7300 C   0  0  0  0  0  2  0  0  0  0  0  0
  188.5930  177.0910  143.4020 C   0  0  0  0  0  0  0  0  0  0  0  0
  190.3550  174.9140  143.3580 C   0  0  0  0  0  2  0  0  0  0  0  0
  188.0730  175.8520  142.9700 C   0  0  0  0  0  0  0  0  0  0  0  0
  186.3530  178.0330  143.3900 C   0  0  0  0  0  0  0  0  0  0  0  0
  188.9870  174.6820  142.7080 C   0  0  1  0  0  3  0  0  0  0  0  0
  189.1530  174.4780  141.2080 C   0  0  0  0  0  2  0  0  0  0  0  0
  189.7580  173.1170  140.9270 C   0  0  0  0  0  2  0  0  0  0  0  0
  190.8200  173.2520  139.9370 N   0  0  0  0  0  2  0  0  0  0  0  0
  192.0250  172.5540  140.3890 C   0  0  2  0  0  3  0  0  0  0  0  0
  191.6860  171.4350  141.1550 O   0  0  0  0  0  1  0  0  0  0  0  0
  192.9690  173.4710  141.1760 C   0  0  0  0  0  2  0  0  0  0  0  0
  195.3130  173.1990  141.6940 O   0  0  0  0  0  1  0  0  0  0  0  0
  194.4100  173.4670  140.6640 C   0  0  2  0  0  3  0  0  0  0  0  0
  196.4900  175.0060  139.4260 O   0  0  0  0  0  1  0  0  0  0  0  0
  194.5750  176.1830  140.7600 O   0  0  0  0  0  1  0  0  0  0  0  0
  194.8480  175.0240  139.8300 P   0  0  0  0  0  0  0  0  0  0  0  0
  193.9240  175.2040  138.4230 O   0  0  0  0  0  0  0  0  0  0  0  0
  192.2130  176.3300  143.4840 C   0  0  0  0  0  2  0  0  0  0  0  0
  192.2620  175.9190  144.9440 C   0  0  0  0  0  2  0  0  0  0  0  0
  194.5840  175.5850  145.8160 C   0  0  0  0  0  3  0  0  0  0  0  0
  195.6310  170.7720  144.7480 N   0  0  0  0  0  0  0  0  0  0  0  0
  193.4100  173.7030  144.8430 C   0  0  0  0  0  3  0  0  0  0  0  0
  195.6660  173.4220  145.6920 C   0  0  0  0  0  0  0  0  0  0  0  0
  196.8260  172.5290  146.0210 C   0  0  0  0  0  2  0  0  0  0  0  0
  194.5180  172.8810  145.0850 C   0  0  0  0  0  0  0  0  0  0  0  0
  195.6910  174.7680  146.0660 C   0  0  0  0  0  3  0  0  0  0  0  0
  194.5190  171.4490  144.7220 C   0  0  0  0  0  0  0  0  0  0  0  0
  196.9370  171.3870  145.0040 C   0  0  2  0  0  3  0  0  0  0  0  0
  193.4450  175.0550  145.1990 C   0  0  0  0  0  0  0  0  0  0  0  0
  197.4670  171.8740  143.8100 O   0  0  0  0  0  1  0  0  0  0  0  0
  193.2500  170.7400  144.3950 C   0  0  0  0  0  1  0  0  0  0  0  0
  185.4530  179.1220  143.6020 N   0  0  0  0  0  2  0  0  0  0  0  0
  185.1150  179.6250  144.9240 C   0  0  0  0  0  2  0  0  0  0  0  0
  184.1210  178.6890  145.5790 C   0  0  0  0  0  2  0  0  0  0  0  0
  184.6740  178.2090  146.9040 C   0  0  0  0  0  2  0  0  0  0  0  0
  187.8220  175.9640  146.8200 C   0  0  0  0  0  1  0  0  0  0  0  0
  187.4540  178.2100  147.5040 O   0  0  0  0  0  0  0  0  0  0  0  0
  186.9580  177.1540  147.0280 C   0  0  0  0  0  0  0  0  0  0  0  0
  185.5760  177.0940  146.6750 N   0  0  0  0  0  2  0  0  0  0  0  0
  1  3  2  0  0  0  0
  1  8  1  0  0  0  0
  2  7  1  0  0  0  0
  2 23  1  0  0  0  0
  2  5  1  0  0  0  0
  3  9  1  0  0  0  0
  6  4  1  0  0  0  0
  6  5  1  0  0  0  0
  8  6  2  0  0  0  0
  9 37  1  0  0  0  0
  9  4  2  0  0  0  0
 10 11  1  6  0  0  0
 10  8  1  0  0  0  0
 10  7  1  0  0  0  0
 12 11  1  0  0  0  0
 13 14  1  0  0  0  0
 13 12  1  0  0  0  0
 14 15  1  1  0  0  0
 14 16  1  0  0  0  0
 18 16  1  0  0  0  0
 18 17  1  1  0  0  0
 19 21  1  0  0  0  0
 21 18  1  0  0  0  0
 21 20  1  0  0  0  0
 22 21  2  0  0  0  0
 23 24  1  0  0  0  0
 24 34  1  0  0  0  0
 25 31  1  0  0  0  0
 26 33  1  0  0  0  0
 27 30  2  0  0  0  0
 27 34  1  0  0  0  0
 28 29  1  0  0  0  0
 28 31  2  0  0  0  0
 30 28  1  0  0  0  0
 32 26  2  0  0  0  0
 32 30  1  0  0  0  0
 33 35  1  6  0  0  0
 33 29  1  0  0  0  0
 34 25  2  0  0  0  0
 36 32  1  0  0  0  0
 37 38  1  0  0  0  0
 38 39  1  0  0  0  0
 39 40  1  0  0  0  0
 41 43  1  0  0  0  0
 43 42  2  0  0  0  0
 44 40  1  0  0  0  0
 44 43  1  0  0  0  0
M  END
>  <MODEL>
4

>  <REMARK>
 VINA RESULT:      -7.1      3.603      5.454
  Name = 
  15 active torsions:
  status: ('A' for Active; 'I' for Inactive)
    1  A    between atoms: C_5  and  C_29
    2  A    between atoms: C_5  and  C_36
    3  A    between atoms: C_6  and  C_24
    4  A    between atoms: C_6  and  C_37
    5  A    between atoms: N_7  and  C_36
    6  A    between atoms: N_19  and  C_23
    7  A    between atoms: N_19  and  C_24
    8  A    between atoms: C_21  and  C_28
    9  A    between atoms: C_21  and  N_41
   10  A    between atoms: C_23  and  C_43
   11  A    between atoms: C_28  and  C_33
   12  A    between atoms: C_32  and  N_41
   13  A    between atoms: C_33  and  N_42
   14  A    between atoms: P_35  and  C_44
   15  A    between atoms: C_43  and  C_44
                            x       y       z     vdW  Elec       q    Type
                         _______ _______ _______ _____ _____    ______ ____

>  <TORSDO>
F 15

$$$$
=
 OpenBabel11042415273D

 44 47  0  0  1  0  0  0  0  0999 V2000
  190.0800  171.5690  141.2630 C   0  0  0  0  0  3  0  0  0  0  0  0
  188.3840  175.3950  141.0750 N   0  0  0  0  0  0  0  0  0  0  0  0
  190.5500  170.9560  140.0990 C   0  0  0  0  0  3  0  0  0  0  0  0
  189.6220  172.7550  138.7690 C   0  0  0  0  0  3  0  0  0  0  0  0
  188.3490  174.6420  139.8230 C   0  0  0  0  0  2  0  0  0  0  0  0
  189.1640  173.3830  139.9310 C   0  0  0  0  0  0  0  0  0  0  0  0
  187.8760  174.5320  142.1380 C   0  0  0  0  0  2  0  0  0  0  0  0
  189.3790  172.7780  141.1880 C   0  0  0  0  0  0  0  0  0  0  0  0
  190.3240  171.5420  138.8490 C   0  0  0  0  0  0  0  0  0  0  0  0
  188.9080  173.4450  142.4560 C   0  0  1  0  0  3  0  0  0  0  0  0
  190.0930  174.0550  143.1940 C   0  0  0  0  0  2  0  0  0  0  0  0
  189.9950  173.7620  144.6770 C   0  0  0  0  0  2  0  0  0  0  0  0
  191.3340  173.7180  145.2540 N   0  0  0  0  0  2  0  0  0  0  0  0
  192.2810  173.1510  144.2920 C   0  0  2  0  0  3  0  0  0  0  0  0
  192.6420  171.8540  144.6660 O   0  0  0  0  0  1  0  0  0  0  0  0
  193.5320  174.0220  144.1230 C   0  0  0  0  0  2  0  0  0  0  0  0
  193.1340  176.2880  143.3820 O   0  0  0  0  0  1  0  0  0  0  0  0
  193.3260  175.4870  144.5100 C   0  0  2  0  0  3  0  0  0  0  0  0
  194.0750  176.9550  146.8580 O   0  0  0  0  0  1  0  0  0  0  0  0
  195.5220  177.0870  144.6840 O   0  0  0  0  0  0  0  0  0  0  0  0
  194.6970  176.1330  145.5170 P   0  0  0  0  0  0  0  0  0  0  0  0
  195.6760  174.8560  146.0420 O   0  0  0  0  0  1  0  0  0  0  0  0
  187.4580  176.5050  140.9500 C   0  0  0  0  0  2  0  0  0  0  0  0
  187.9910  177.6970  141.7220 C   0  0  0  0  0  2  0  0  0  0  0  0
  185.9840  178.7670  142.7670 C   0  0  0  0  0  3  0  0  0  0  0  0
  186.3280  177.5490  147.6460 N   0  0  0  0  0  0  0  0  0  0  0  0
  187.4560  177.4250  144.1460 C   0  0  0  0  0  3  0  0  0  0  0  0
  185.5050  178.4870  145.1240 C   0  0  0  0  0  0  0  0  0  0  0  0
  184.5960  178.6990  146.2990 C   0  0  0  0  0  2  0  0  0  0  0  0
  186.6470  177.6790  145.2620 C   0  0  0  0  0  0  0  0  0  0  0  0
  185.1700  179.0180  143.8760 C   0  0  0  0  0  3  0  0  0  0  0  0
  186.9590  177.1160  146.5920 C   0  0  0  0  0  0  0  0  0  0  0  0
  185.3900  178.6750  147.6110 C   0  0  2  0  0  3  0  0  0  0  0  0
  187.1310  177.9760  142.9030 C   0  0  0  0  0  0  0  0  0  0  0  0
  186.0900  179.8730  147.7550 O   0  0  0  0  0  1  0  0  0  0  0  0
  187.9360  176.0020  146.7440 C   0  0  0  0  0  1  0  0  0  0  0  0
  190.8100  170.8870  137.6760 N   0  0  0  0  0  2  0  0  0  0  0  0
  192.2180  170.5980  137.4550 C   0  0  0  0  0  2  0  0  0  0  0  0
  192.8340  171.7060  136.6260 C   0  0  0  0  0  2  0  0  0  0  0  0
  194.0430  172.2640  137.3460 C   0  0  0  0  0  2  0  0  0  0  0  0
  192.8180  174.2000  140.4610 C   0  0  0  0  0  1  0  0  0  0  0  0
  193.1920  174.8390  138.2040 O   0  0  0  0  0  0  0  0  0  0  0  0
  193.2300  173.9180  139.0630 C   0  0  0  0  0  0  0  0  0  0  0  0
  193.6770  172.6090  138.7090 N   0  0  0  0  0  2  0  0  0  0  0  0
  2  7  1  0  0  0  0
  3  1  2  0  0  0  0
  4  9  2  0  0  0  0
  4  6  1  0  0  0  0
  5  6  1  0  0  0  0
  5  2  1  0  0  0  0
  6  8  2  0  0  0  0
  7 10  1  0  0  0  0
  8  1  1  0  0  0  0
  8 10  1  0  0  0  0
  9  3  1  0  0  0  0
 10 11  1  6  0  0  0
 11 12  1  0  0  0  0
 12 13  1  0  0  0  0
 14 15  1  1  0  0  0
 14 13  1  0  0  0  0
 16 14  1  0  0  0  0
 16 18  1  0  0  0  0
 18 17  1  6  0  0  0
 18 21  1  0  0  0  0
 20 21  2  0  0  0  0
 21 22  1  0  0  0  0
 21 19  1  0  0  0  0
 23  2  1  0  0  0  0
 23 24  1  0  0  0  0
 24 34  1  0  0  0  0
 25 34  2  0  0  0  0
 25 31  1  0  0  0  0
 27 30  2  0  0  0  0
 28 30  1  0  0  0  0
 28 29  1  0  0  0  0
 29 33  1  0  0  0  0
 30 32  1  0  0  0  0
 31 28  2  0  0  0  0
 32 36  1  0  0  0  0
 32 26  2  0  0  0  0
 33 26  1  0  0  0  0
 33 35  1  6  0  0  0
 34 27  1  0  0  0  0
 37  9  1  0  0  0  0
 38 37  1  0  0  0  0
 39 40  1  0  0  0  0
 39 38  1  0  0  0  0
 40 44  1  0  0  0  0
 42 43  2  0  0  0  0
 43 41  1  0  0  0  0
 44 43  1  0  0  0  0
M  END
>  <MODEL>
5

>  <REMARK>
 VINA RESULT:      -7.1      3.764      9.288
  Name = 
  15 active torsions:
  status: ('A' for Active; 'I' for Inactive)
    1  A    between atoms: C_5  and  C_29
    2  A    between atoms: C_5  and  C_36
    3  A    between atoms: C_6  and  C_24
    4  A    between atoms: C_6  and  C_37
    5  A    between atoms: N_7  and  C_36
    6  A    between atoms: N_19  and  C_23
    7  A    between atoms: N_19  and  C_24
    8  A    between atoms: C_21  and  C_28
    9  A    between atoms: C_21  and  N_41
   10  A    between atoms: C_23  and  C_43
   11  A    between atoms: C_28  and  C_33
   12  A    between atoms: C_32  and  N_41
   13  A    between atoms: C_33  and  N_42
   14  A    between atoms: P_35  and  C_44
   15  A    between atoms: C_43  and  C_44
                            x       y       z     vdW  Elec       q    Type
                         _______ _______ _______ _____ _____    ______ ____

>  <TORSDO>
F 15

$$$$
=
 OpenBabel11042415273D

 44 47  0  0  1  0  0  0  0  0999 V2000
  190.6840  171.7210  140.7580 C   0  0  0  0  0  3  0  0  0  0  0  0
  188.5790  175.3430  140.8110 N   0  0  0  0  0  0  0  0  0  0  0  0
  190.6190  170.8920  139.6350 C   0  0  0  0  0  3  0  0  0  0  0  0
  188.9210  172.3230  138.6690 C   0  0  0  0  0  3  0  0  0  0  0  0
  188.0560  174.3370  139.8870 C   0  0  0  0  0  2  0  0  0  0  0  0
  188.9920  173.1660  139.7820 C   0  0  0  0  0  0  0  0  0  0  0  0
  188.7730  174.7080  142.1110 C   0  0  0  0  0  2  0  0  0  0  0  0
  189.8690  172.8550  140.8440 C   0  0  0  0  0  0  0  0  0  0  0  0
  189.7400  171.1860  138.5880 C   0  0  0  0  0  0  0  0  0  0  0  0
  189.9750  173.7590  142.0460 C   0  0  1  0  0  3  0  0  0  0  0  0
  191.2670  174.5620  141.9810 C   0  0  0  0  0  2  0  0  0  0  0  0
  192.0630  174.3800  143.2580 C   0  0  0  0  0  2  0  0  0  0  0  0
  191.5120  173.2660  144.0200 N   0  0  0  0  0  2  0  0  0  0  0  0
  191.0380  173.7320  145.3260 C   0  0  2  0  0  3  0  0  0  0  0  0
  189.6910  173.4050  145.5040 O   0  0  0  0  0  1  0  0  0  0  0  0
  191.2500  175.2380  145.5190 C   0  0  0  0  0  2  0  0  0  0  0  0
  191.4890  176.4340  147.6060 O   0  0  0  0  0  1  0  0  0  0  0  0
  192.1470  175.5930  146.7060 C   0  0  2  0  0  3  0  0  0  0  0  0
  194.8820  175.1250  145.9780 O   0  0  0  0  0  1  0  0  0  0  0  0
  194.1920  177.3080  147.2400 O   0  0  0  0  0  1  0  0  0  0  0  0
  193.7220  176.3380  146.1810 P   0  0  0  0  0  0  0  0  0  0  0  0
  193.5090  177.1640  144.7190 O   0  0  0  0  0  0  0  0  0  0  0  0
  187.5590  176.3600  140.9820 C   0  0  0  0  0  2  0  0  0  0  0  0
  188.1200  177.5040  141.8070 C   0  0  0  0  0  2  0  0  0  0  0  0
  186.0630  178.6000  142.7180 C   0  0  0  0  0  3  0  0  0  0  0  0
  186.1970  177.5840  147.6530 N   0  0  0  0  0  0  0  0  0  0  0  0
  187.4790  177.3260  144.2140 C   0  0  0  0  0  3  0  0  0  0  0  0
  185.4810  178.4120  145.0610 C   0  0  0  0  0  0  0  0  0  0  0  0
  184.5200  178.6650  146.1850 C   0  0  0  0  0  2  0  0  0  0  0  0
  186.6210  177.6190  145.2820 C   0  0  0  0  0  0  0  0  0  0  0  0
  185.1990  178.8900  143.7790 C   0  0  0  0  0  3  0  0  0  0  0  0
  186.8770  177.1130  146.6470 C   0  0  0  0  0  0  0  0  0  0  0  0
  185.2550  178.7000  147.5300 C   0  0  2  0  0  3  0  0  0  0  0  0
  187.2070  177.8240  142.9360 C   0  0  0  0  0  0  0  0  0  0  0  0
  185.9410  179.9080  147.6570 O   0  0  0  0  0  1  0  0  0  0  0  0
  187.8530  176.0130  146.8870 C   0  0  0  0  0  1  0  0  0  0  0  0
  189.6910  170.3150  137.4570 N   0  0  0  0  0  2  0  0  0  0  0  0
  190.7280  170.2800  136.4370 C   0  0  0  0  0  2  0  0  0  0  0  0
  190.3220  171.1660  135.2770 C   0  0  0  0  0  2  0  0  0  0  0  0
  191.3830  172.2220  135.0510 C   0  0  0  0  0  2  0  0  0  0  0  0
  192.6340  173.8420  138.3320 C   0  0  0  0  0  1  0  0  0  0  0  0
  191.1800  174.5930  136.6090 O   0  0  0  0  0  0  0  0  0  0  0  0
  191.9220  173.6700  137.0400 C   0  0  0  0  0  0  0  0  0  0  0  0
  192.0940  172.4650  136.2940 N   0  0  0  0  0  2  0  0  0  0  0  0
  1  8  1  0  0  0  0
  2 23  1  0  0  0  0
  2  7  1  0  0  0  0
  3  1  2  0  0  0  0
  4  6  1  0  0  0  0
  5  2  1  0  0  0  0
  6  5  1  0  0  0  0
  6  8  2  0  0  0  0
  8 10  1  0  0  0  0
  9  4  2  0  0  0  0
  9  3  1  0  0  0  0
 10 11  1  6  0  0  0
 10  7  1  0  0  0  0
 11 12  1  0  0  0  0
 12 13  1  0  0  0  0
 13 14  1  0  0  0  0
 14 15  1  6  0  0  0
 14 16  1  0  0  0  0
 16 18  1  0  0  0  0
 18 17  1  1  0  0  0
 19 21  1  0  0  0  0
 21 18  1  0  0  0  0
 21 20  1  0  0  0  0
 22 21  2  0  0  0  0
 23 24  1  0  0  0  0
 24 34  1  0  0  0  0
 25 34  2  0  0  0  0
 25 31  1  0  0  0  0
 27 30  2  0  0  0  0
 28 30  1  0  0  0  0
 28 29  1  0  0  0  0
 29 33  1  0  0  0  0
 30 32  1  0  0  0  0
 31 28  2  0  0  0  0
 32 36  1  0  0  0  0
 32 26  2  0  0  0  0
 33 26  1  0  0  0  0
 33 35  1  6  0  0  0
 34 27  1  0  0  0  0
 37  9  1  0  0  0  0
 38 37  1  0  0  0  0
 39 38  1  0  0  0  0
 40 39  1  0  0  0  0
 40 44  1  0  0  0  0
 42 43  2  0  0  0  0
 43 41  1  0  0  0  0
 44 43  1  0  0  0  0
M  END
>  <MODEL>
6

>  <REMARK>
 VINA RESULT:      -6.9      4.114      9.119
  Name = 
  15 active torsions:
  status: ('A' for Active; 'I' for Inactive)
    1  A    between atoms: C_5  and  C_29
    2  A    between atoms: C_5  and  C_36
    3  A    between atoms: C_6  and  C_24
    4  A    between atoms: C_6  and  C_37
    5  A    between atoms: N_7  and  C_36
    6  A    between atoms: N_19  and  C_23
    7  A    between atoms: N_19  and  C_24
    8  A    between atoms: C_21  and  C_28
    9  A    between atoms: C_21  and  N_41
   10  A    between atoms: C_23  and  C_43
   11  A    between atoms: C_28  and  C_33
   12  A    between atoms: C_32  and  N_41
   13  A    between atoms: C_33  and  N_42
   14  A    between atoms: P_35  and  C_44
   15  A    between atoms: C_43  and  C_44
                            x       y       z     vdW  Elec       q    Type
                         _______ _______ _______ _____ _____    ______ ____

>  <TORSDO>
F 15

$$$$
=
 OpenBabel11042415273D

 44 47  0  0  1  0  0  0  0  0999 V2000
  192.7690  175.9180  146.6450 C   0  0  0  0  0  3  0  0  0  0  0  0
  190.2470  173.4020  144.4400 N   0  0  0  0  0  0  0  0  0  0  0  0
  194.1480  175.8950  146.4210 C   0  0  0  0  0  3  0  0  0  0  0  0
  193.8830  173.9910  144.9480 C   0  0  0  0  0  3  0  0  0  0  0  0
  191.6370  172.9550  144.5360 C   0  0  0  0  0  2  0  0  0  0  0  0
  192.5010  174.0180  145.1540 C   0  0  0  0  0  0  0  0  0  0  0  0
  189.7850  173.7360  145.7840 C   0  0  0  0  0  2  0  0  0  0  0  0
  191.9390  174.9790  146.0230 C   0  0  0  0  0  0  0  0  0  0  0  0
  194.7120  174.9350  145.5750 C   0  0  0  0  0  0  0  0  0  0  0  0
  190.4490  175.0380  146.2470 C   0  0  1  0  0  3  0  0  0  0  0  0
  189.8550  176.2200  145.4930 C   0  0  0  0  0  2  0  0  0  0  0  0
  188.3420  176.1680  145.5430 C   0  0  0  0  0  2  0  0  0  0  0  0
  187.8850  176.5680  146.8690 N   0  0  0  0  0  2  0  0  0  0  0  0
  186.8790  177.6270  146.7600 C   0  0  2  0  0  3  0  0  0  0  0  0
  186.2990  177.8820  148.0050 O   0  0  0  0  0  1  0  0  0  0  0  0
  185.7950  177.2970  145.7260 C   0  0  0  0  0  2  0  0  0  0  0  0
  184.3680  179.0960  144.9730 O   0  0  0  0  0  1  0  0  0  0  0  0
  185.5530  178.4080  144.7030 C   0  0  2  0  0  3  0  0  0  0  0  0
  183.9900  177.9280  142.3460 O   0  0  0  0  0  1  0  0  0  0  0  0
  185.9510  176.3260  142.9950 O   0  0  0  0  0  1  0  0  0  0  0  0
  185.5450  177.7810  142.9950 P   0  0  0  0  0  0  0  0  0  0  0  0
  186.6350  178.6670  142.0510 O   0  0  0  0  0  0  0  0  0  0  0  0
  189.4520  172.2770  143.9850 C   0  0  0  0  0  2  0  0  0  0  0  0
  188.5640  172.7200  142.8370 C   0  0  0  0  0  2  0  0  0  0  0  0
  190.2800  171.5610  141.4310 C   0  0  0  0  0  3  0  0  0  0  0  0
  189.8730  173.7590  136.9130 N   0  0  0  0  0  0  0  0  0  0  0  0
  188.8610  173.2390  140.4120 C   0  0  0  0  0  3  0  0  0  0  0  0
  190.5440  172.1000  139.0850 C   0  0  0  0  0  0  0  0  0  0  0  0
  191.1830  171.8320  137.7540 C   0  0  0  0  0  2  0  0  0  0  0  0
  189.5030  173.0410  139.1830 C   0  0  0  0  0  0  0  0  0  0  0  0
  190.9200  171.3550  140.2050 C   0  0  0  0  0  3  0  0  0  0  0  0
  189.1170  173.7970  137.9730 C   0  0  0  0  0  0  0  0  0  0  0  0
  191.1800  173.0950  136.8850 C   0  0  2  0  0  3  0  0  0  0  0  0
  189.2550  172.5080  141.5360 C   0  0  0  0  0  0  0  0  0  0  0  0
  192.1620  173.9770  137.3390 O   0  0  0  0  0  1  0  0  0  0  0  0
  187.8310  174.5460  137.9150 C   0  0  0  0  0  1  0  0  0  0  0  0
  196.1260  174.9320  145.3720 N   0  0  0  0  0  2  0  0  0  0  0  0
  196.7420  175.1820  144.0780 C   0  0  0  0  0  2  0  0  0  0  0  0
  196.2410  176.5020  143.5290 C   0  0  0  0  0  2  0  0  0  0  0  0
  196.1180  176.4100  142.0230 C   0  0  0  0  0  2  0  0  0  0  0  0
  192.9860  174.2530  141.3220 C   0  0  0  0  0  1  0  0  0  0  0  0
  193.2770  176.4600  142.1540 O   0  0  0  0  0  0  0  0  0  0  0  0
  193.8260  175.4050  141.7390 C   0  0  0  0  0  0  0  0  0  0  0  0
  195.2480  175.2990  141.6770 N   0  0  0  0  0  2  0  0  0  0  0  0
  2  5  1  0  0  0  0
  2  7  1  0  0  0  0
  3  1  1  0  0  0  0
  4  6  2  0  0  0  0
  4  9  1  0  0  0  0
  5  6  1  0  0  0  0
  6  8  1  0  0  0  0
  7 10  1  0  0  0  0
  8 10  1  0  0  0  0
  8  1  2  0  0  0  0
  9  3  2  0  0  0  0
 10 11  1  6  0  0  0
 11 12  1  0  0  0  0
 12 13  1  0  0  0  0
 14 13  1  0  0  0  0
 14 15  1  1  0  0  0
 16 14  1  0  0  0  0
 18 17  1  1  0  0  0
 18 16  1  0  0  0  0
 19 21  1  0  0  0  0
 20 21  1  0  0  0  0
 21 18  1  0  0  0  0
 22 21  2  0  0  0  0
 23  2  1  0  0  0  0
 24 23  1  0  0  0  0
 25 34  1  0  0  0  0
 26 32  2  0  0  0  0
 27 34  2  0  0  0  0
 28 30  2  0  0  0  0
 28 31  1  0  0  0  0
 29 28  1  0  0  0  0
 30 27  1  0  0  0  0
 31 25  2  0  0  0  0
 32 30  1  0  0  0  0
 33 26  1  0  0  0  0
 33 35  1  1  0  0  0
 33 29  1  0  0  0  0
 34 24  1  0  0  0  0
 36 32  1  0  0  0  0
 37  9  1  0  0  0  0
 38 37  1  0  0  0  0
 39 38  1  0  0  0  0
 40 39  1  0  0  0  0
 41 43  1  0  0  0  0
 43 42  2  0  0  0  0
 44 43  1  0  0  0  0
 44 40  1  0  0  0  0
M  END
>  <MODEL>
7

>  <REMARK>
 VINA RESULT:      -6.9      4.089      9.287
  Name = 
  15 active torsions:
  status: ('A' for Active; 'I' for Inactive)
    1  A    between atoms: C_5  and  C_29
    2  A    between atoms: C_5  and  C_36
    3  A    between atoms: C_6  and  C_24
    4  A    between atoms: C_6  and  C_37
    5  A    between atoms: N_7  and  C_36
    6  A    between atoms: N_19  and  C_23
    7  A    between atoms: N_19  and  C_24
    8  A    between atoms: C_21  and  C_28
    9  A    between atoms: C_21  and  N_41
   10  A    between atoms: C_23  and  C_43
   11  A    between atoms: C_28  and  C_33
   12  A    between atoms: C_32  and  N_41
   13  A    between atoms: C_33  and  N_42
   14  A    between atoms: P_35  and  C_44
   15  A    between atoms: C_43  and  C_44
                            x       y       z     vdW  Elec       q    Type
                         _______ _______ _______ _____ _____    ______ ____

>  <TORSDO>
F 15

$$$$
=
 OpenBabel11042415273D

 44 47  0  0  1  0  0  0  0  0999 V2000
  189.0650  177.4660  144.3110 C   0  0  0  0  0  3  0  0  0  0  0  0
  189.1810  173.3440  143.5710 N   0  0  0  0  0  0  0  0  0  0  0  0
  187.9910  178.2290  143.8460 C   0  0  0  0  0  3  0  0  0  0  0  0
  187.1450  176.3110  142.6340 C   0  0  0  0  0  3  0  0  0  0  0  0
  188.3600  174.1170  142.6400 C   0  0  0  0  0  2  0  0  0  0  0  0
  188.2080  175.5370  143.1090 C   0  0  0  0  0  0  0  0  0  0  0  0
  190.4800  174.0010  143.6830 C   0  0  0  0  0  2  0  0  0  0  0  0
  189.1860  176.1220  143.9420 C   0  0  0  0  0  0  0  0  0  0  0  0
  187.0280  177.6590  143.0070 C   0  0  0  0  0  0  0  0  0  0  0  0
  190.3320  175.3020  144.4790 C   0  0  1  0  0  3  0  0  0  0  0  0
  190.1000  174.9860  145.9510 C   0  0  0  0  0  2  0  0  0  0  0  0
  191.3770  175.1950  146.7400 C   0  0  0  0  0  2  0  0  0  0  0  0
  192.2770  176.0620  145.9890 N   0  0  0  0  0  2  0  0  0  0  0  0
  193.6340  175.9760  146.5330 C   0  0  2  0  0  3  0  0  0  0  0  0
  194.2430  177.2340  146.5310 O   0  0  0  0  0  1  0  0  0  0  0  0
  194.5030  174.9640  145.7760 C   0  0  0  0  0  2  0  0  0  0  0  0
  193.9220  173.8390  143.7180 O   0  0  0  0  0  1  0  0  0  0  0  0
  194.3710  175.0470  144.2540 C   0  0  2  0  0  3  0  0  0  0  0  0
  196.2950  177.1440  143.8980 O   0  0  0  0  0  1  0  0  0  0  0  0
  195.7610  175.4790  141.9540 O   0  0  0  0  0  0  0  0  0  0  0  0
  195.9250  175.5550  143.4550 P   0  0  0  0  0  0  0  0  0  0  0  0
  197.1810  174.5280  143.9350 O   0  0  0  0  0  1  0  0  0  0  0  0
  189.4140  172.0400  142.9790 C   0  0  0  0  0  2  0  0  0  0  0  0
  190.7470  172.0450  142.2560 C   0  0  0  0  0  2  0  0  0  0  0  0
  190.9720  170.2270  140.5500 C   0  0  0  0  0  3  0  0  0  0  0  0
  189.3450  172.3320  136.2700 N   0  0  0  0  0  0  0  0  0  0  0  0
  190.0220  172.3540  139.8860 C   0  0  0  0  0  3  0  0  0  0  0  0
  190.2660  170.5690  138.2600 C   0  0  0  0  0  0  0  0  0  0  0  0
  190.0260  170.0300  136.8800 C   0  0  0  0  0  2  0  0  0  0  0  0
  189.8610  171.8770  138.5780 C   0  0  0  0  0  0  0  0  0  0  0  0
  190.8080  169.7440  139.2490 C   0  0  0  0  0  3  0  0  0  0  0  0
  189.2720  172.7150  137.5120 C   0  0  0  0  0  0  0  0  0  0  0  0
  190.1000  171.1520  135.8380 C   0  0  2  0  0  3  0  0  0  0  0  0
  190.5850  171.5340  140.8680 C   0  0  0  0  0  0  0  0  0  0  0  0
  191.4340  171.5030  135.6240 O   0  0  0  0  0  1  0  0  0  0  0  0
  188.5250  173.9610  137.8410 C   0  0  0  0  0  1  0  0  0  0  0  0
  185.9460  178.4670  142.5420 N   0  0  0  0  0  2  0  0  0  0  0  0
  184.6130  178.4180  143.1220 C   0  0  0  0  0  2  0  0  0  0  0  0
  184.5340  179.3890  144.2810 C   0  0  0  0  0  2  0  0  0  0  0  0
  184.0570  178.6620  145.5200 C   0  0  0  0  0  2  0  0  0  0  0  0
  186.9250  176.7200  147.2390 C   0  0  0  0  0  1  0  0  0  0  0  0
  186.1120  178.9410  147.4670 O   0  0  0  0  0  0  0  0  0  0  0  0
  186.0050  177.8300  146.8820 C   0  0  0  0  0  0  0  0  0  0  0  0
  185.0160  177.6300  145.8720 N   0  0  0  0  0  2  0  0  0  0  0  0
  2  7  1  0  0  0  0
  3  1  2  0  0  0  0
  4  9  2  0  0  0  0
  4  6  1  0  0  0  0
  5  6  1  0  0  0  0
  5  2  1  0  0  0  0
  6  8  2  0  0  0  0
  7 10  1  0  0  0  0
  8  1  1  0  0  0  0
  8 10  1  0  0  0  0
  9  3  1  0  0  0  0
 10 11  1  1  0  0  0
 11 12  1  0  0  0  0
 13 14  1  0  0  0  0
 13 12  1  0  0  0  0
 14 15  1  6  0  0  0
 16 14  1  0  0  0  0
 18 17  1  6  0  0  0
 18 16  1  0  0  0  0
 20 21  2  0  0  0  0
 21 19  1  0  0  0  0
 21 22  1  0  0  0  0
 21 18  1  0  0  0  0
 23  2  1  0  0  0  0
 24 23  1  0  0  0  0
 25 34  1  0  0  0  0
 26 32  2  0  0  0  0
 27 34  2  0  0  0  0
 28 30  2  0  0  0  0
 28 31  1  0  0  0  0
 29 28  1  0  0  0  0
 30 27  1  0  0  0  0
 31 25  2  0  0  0  0
 32 36  1  0  0  0  0
 32 30  1  0  0  0  0
 33 35  1  1  0  0  0
 33 26  1  0  0  0  0
 33 29  1  0  0  0  0
 34 24  1  0  0  0  0
 37  9  1  0  0  0  0
 37 38  1  0  0  0  0
 38 39  1  0  0  0  0
 39 40  1  0  0  0  0
 40 44  1  0  0  0  0
 43 41  1  0  0  0  0
 43 42  2  0  0  0  0
 44 43  1  0  0  0  0
M  END
>  <MODEL>
8

>  <REMARK>
 VINA RESULT:      -6.8      3.965      6.404
  Name = 
  15 active torsions:
  status: ('A' for Active; 'I' for Inactive)
    1  A    between atoms: C_5  and  C_29
    2  A    between atoms: C_5  and  C_36
    3  A    between atoms: C_6  and  C_24
    4  A    between atoms: C_6  and  C_37
    5  A    between atoms: N_7  and  C_36
    6  A    between atoms: N_19  and  C_23
    7  A    between atoms: N_19  and  C_24
    8  A    between atoms: C_21  and  C_28
    9  A    between atoms: C_21  and  N_41
   10  A    between atoms: C_23  and  C_43
   11  A    between atoms: C_28  and  C_33
   12  A    between atoms: C_32  and  N_41
   13  A    between atoms: C_33  and  N_42
   14  A    between atoms: P_35  and  C_44
   15  A    between atoms: C_43  and  C_44
                            x       y       z     vdW  Elec       q    Type
                         _______ _______ _______ _____ _____    ______ ____

>  <TORSDO>
F 15

$$$$
=
 OpenBabel11042415273D

 44 47  0  0  1  0  0  0  0  0999 V2000
  189.8970  171.7180  141.1200 C   0  0  0  0  0  3  0  0  0  0  0  0
  188.1010  175.5030  141.0390 N   0  0  0  0  0  0  0  0  0  0  0  0
  190.4780  171.1960  139.9620 C   0  0  0  0  0  3  0  0  0  0  0  0
  189.6040  173.0550  138.6780 C   0  0  0  0  0  3  0  0  0  0  0  0
  188.1920  174.8330  139.7420 C   0  0  0  0  0  2  0  0  0  0  0  0
  189.0340  173.5920  139.8360 C   0  0  0  0  0  0  0  0  0  0  0  0
  187.5370  174.5580  141.9980 C   0  0  0  0  0  2  0  0  0  0  0  0
  189.1670  172.9100  141.0660 C   0  0  0  0  0  0  0  0  0  0  0  0
  190.3360  171.8580  138.7380 C   0  0  0  0  0  0  0  0  0  0  0  0
  188.5740  173.4790  142.3300 C   0  0  1  0  0  3  0  0  0  0  0  0
  189.6760  174.0700  143.2010 C   0  0  0  0  0  2  0  0  0  0  0  0
  189.9640  173.1560  144.3740 C   0  0  0  0  0  2  0  0  0  0  0  0
  190.6890  173.8950  145.4000 N   0  0  0  0  0  2  0  0  0  0  0  0
  192.0640  174.1510  144.9650 C   0  0  2  0  0  3  0  0  0  0  0  0
  192.8870  173.0660  145.2780 O   0  0  0  0  0  1  0  0  0  0  0  0
  192.6350  175.4410  145.5650 C   0  0  0  0  0  2  0  0  0  0  0  0
  193.9920  177.3460  144.9560 O   0  0  0  0  0  1  0  0  0  0  0  0
  192.9470  176.5230  144.5300 C   0  0  2  0  0  3  0  0  0  0  0  0
  190.3590  177.4260  145.3740 O   0  0  0  0  0  1  0  0  0  0  0  0
  190.8620  176.9930  142.8450 O   0  0  0  0  0  0  0  0  0  0  0  0
  191.4840  177.5230  144.1160 P   0  0  0  0  0  0  0  0  0  0  0  0
  191.9370  179.1380  143.8870 O   0  0  0  0  0  1  0  0  0  0  0  0
  187.1540  176.5930  140.9090 C   0  0  0  0  0  2  0  0  0  0  0  0
  187.6710  177.8040  141.6640 C   0  0  0  0  0  2  0  0  0  0  0  0
  185.6820  178.8180  142.7940 C   0  0  0  0  0  3  0  0  0  0  0  0
  186.2150  177.5300  147.6370 N   0  0  0  0  0  0  0  0  0  0  0  0
  187.2240  177.4830  144.1000 C   0  0  0  0  0  3  0  0  0  0  0  0
  185.2880  178.4920  145.1610 C   0  0  0  0  0  0  0  0  0  0  0  0
  184.4170  178.6670  146.3690 C   0  0  0  0  0  2  0  0  0  0  0  0
  186.4500  177.7030  145.2460 C   0  0  0  0  0  0  0  0  0  0  0  0
  184.9010  179.0360  143.9340 C   0  0  0  0  0  3  0  0  0  0  0  0
  186.8180  177.1260  146.5560 C   0  0  0  0  0  0  0  0  0  0  0  0
  185.2550  178.6370  147.6530 C   0  0  2  0  0  3  0  0  0  0  0  0
  186.8470  178.0470  142.8780 C   0  0  0  0  0  0  0  0  0  0  0  0
  185.9380  179.8460  147.7930 O   0  0  0  0  0  1  0  0  0  0  0  0
  187.8200  176.0280  146.6560 C   0  0  0  0  0  1  0  0  0  0  0  0
  190.9340  171.2950  137.5700 N   0  0  0  0  0  2  0  0  0  0  0  0
  192.3710  171.1310  137.4160 C   0  0  0  0  0  2  0  0  0  0  0  0
  192.9700  172.4200  136.8910 C   0  0  0  0  0  2  0  0  0  0  0  0
  194.0040  172.9340  137.8700 C   0  0  0  0  0  2  0  0  0  0  0  0
  192.6900  174.5030  141.1510 C   0  0  0  0  0  1  0  0  0  0  0  0
  193.7660  172.4420  140.6610 O   0  0  0  0  0  0  0  0  0  0  0  0
  193.3080  173.5280  140.2160 C   0  0  0  0  0  0  0  0  0  0  0  0
  193.3660  173.8270  138.8210 N   0  0  0  0  0  2  0  0  0  0  0  0
  2  7  1  0  0  0  0
  3  1  2  0  0  0  0
  4  9  2  0  0  0  0
  4  6  1  0  0  0  0
  5  6  1  0  0  0  0
  5  2  1  0  0  0  0
  6  8  2  0  0  0  0
  7 10  1  0  0  0  0
  8  1  1  0  0  0  0
  8 10  1  0  0  0  0
  9  3  1  0  0  0  0
 10 11  1  1  0  0  0
 11 12  1  0  0  0  0
 12 13  1  0  0  0  0
 14 15  1  1  0  0  0
 14 13  1  0  0  0  0
 14 16  1  0  0  0  0
 18 17  1  1  0  0  0
 18 16  1  0  0  0  0
 20 21  2  0  0  0  0
 21 18  1  0  0  0  0
 21 19  1  0  0  0  0
 22 21  1  0  0  0  0
 23  2  1  0  0  0  0
 23 24  1  0  0  0  0
 24 34  1  0  0  0  0
 25 34  2  0  0  0  0
 25 31  1  0  0  0  0
 26 33  1  0  0  0  0
 27 30  2  0  0  0  0
 28 30  1  0  0  0  0
 28 29  1  0  0  0  0
 29 33  1  0  0  0  0
 30 32  1  0  0  0  0
 31 28  2  0  0  0  0
 32 36  1  0  0  0  0
 32 26  2  0  0  0  0
 33 35  1  6  0  0  0
 34 27  1  0  0  0  0
 37  9  1  0  0  0  0
 38 37  1  0  0  0  0
 39 38  1  0  0  0  0
 39 40  1  0  0  0  0
 40 44  1  0  0  0  0
 43 42  2  0  0  0  0
 43 41  1  0  0  0  0
 44 43  1  0  0  0  0
M  END
>  <MODEL>
9

>  <REMARK>
 VINA RESULT:      -6.8      3.710      9.165
  Name = 
  15 active torsions:
  status: ('A' for Active; 'I' for Inactive)
    1  A    between atoms: C_5  and  C_29
    2  A    between atoms: C_5  and  C_36
    3  A    between atoms: C_6  and  C_24
    4  A    between atoms: C_6  and  C_37
    5  A    between atoms: N_7  and  C_36
    6  A    between atoms: N_19  and  C_23
    7  A    between atoms: N_19  and  C_24
    8  A    between atoms: C_21  and  C_28
    9  A    between atoms: C_21  and  N_41
   10  A    between atoms: C_23  and  C_43
   11  A    between atoms: C_28  and  C_33
   12  A    between atoms: C_32  and  N_41
   13  A    between atoms: C_33  and  N_42
   14  A    between atoms: P_35  and  C_44
   15  A    between atoms: C_43  and  C_44
                            x       y       z     vdW  Elec       q    Type
                         _______ _______ _______ _____ _____    ______ ____

>  <TORSDO>
F 15

$$$$
