=
 OpenBabel11042414113D

 49 51  0  0  1  0  0  0  0  0999 V2000
  187.4820  177.7380  142.5590 C   0  0  2  0  0  3  0  0  0  0  0  0
  185.6760  178.4090  141.2030 O   0  0  0  0  0  0  0  0  0  0  0  0
  186.2260  178.5330  142.2890 C   0  0  0  0  0  0  0  0  0  0  0  0
  185.5940  179.4000  143.3410 C   0  0  0  0  0  2  0  0  0  0  0  0
  184.3670  178.7420  143.9620 C   0  0  0  0  0  2  0  0  0  0  0  0
  184.3030  179.0130  145.3900 N   0  0  0  0  0  2  0  0  0  0  0  0
  184.7080  178.0530  146.3740 C   0  0  0  0  0  0  0  0  0  0  0  0
  185.1880  176.9520  146.0310 O   0  0  0  0  0  0  0  0  0  0  0  0
  184.5460  178.3360  147.7270 O   0  0  0  0  0  1  0  0  0  0  0  0
  187.2900  176.2880  142.2000 C   0  0  0  0  0  0  0  0  0  0  0  0
  186.3970  175.6220  142.8050 O   0  0  0  0  0  0  0  0  0  0  0  0
  188.0420  175.6700  141.1880 O   0  0  0  0  0  0  0  0  0  0  0  0
  188.5830  174.3490  141.2620 C   0  0  2  0  0  3  0  0  0  0  0  0
  189.4630  174.2070  142.4980 C   0  0  0  0  0  1  0  0  0  0  0  0
  187.9440  172.4310  139.2060 O   0  0  0  0  0  0  0  0  0  0  0  0
  189.3750  174.0530  140.0750 N   0  0  0  0  0  2  0  0  0  0  0  0
  189.0920  172.9580  139.2160 C   0  0  0  0  0  0  0  0  0  0  0  0
  190.1730  172.4730  138.2890 C   0  0  0  0  0  2  0  0  0  0  0  0
  192.4850  173.0660  137.7990 N   0  0  0  0  0  0  0  0  0  0  0  0
  191.9990  173.8680  135.6940 N   0  0  0  0  0  2  0  0  0  0  0  0
  192.9240  173.2660  136.5910 C   0  0  0  0  0  0  0  0  0  0  0  0
  189.8270  174.6770  136.1710 O   0  0  0  0  0  0  0  0  0  0  0  0
  191.1300  173.5970  137.9220 C   0  0  1  0  0  3  0  0  0  0  0  0
  190.8700  174.0790  136.5430 C   0  0  0  0  0  0  0  0  0  0  0  0
  194.5350  172.7220  136.0680 S   0  0  0  0  0  0  0  0  0  0  0  0
  195.3140  175.1970  136.8610 C   0  0  0  0  0  1  0  0  0  0  0  0
  195.3910  173.7480  137.2920 C   0  0  0  0  0  2  0  0  0  0  0  0
  188.0370  177.8660  143.9840 C   0  0  0  0  0  2  0  0  0  0  0  0
  189.9420  176.6340  145.2030 C   0  0  0  0  0  0  0  0  0  0  0  0
  189.4780  177.4730  144.1650 C   0  0  0  0  0  0  0  0  0  0  0  0
  191.7740  177.8770  143.4720 C   0  0  0  0  0  3  0  0  0  0  0  0
  190.4080  178.1150  143.3370 C   0  0  0  0  0  3  0  0  0  0  0  0
  192.2350  176.9770  144.4340 C   0  0  0  0  0  0  0  0  0  0  0  0
  191.3190  176.3750  145.3040 C   0  0  0  0  0  3  0  0  0  0  0  0
  189.0150  176.1230  146.2760 C   0  0  2  0  0  3  0  0  0  0  0  0
  188.5570  177.2400  147.1960 C   0  0  0  0  0  1  0  0  0  0  0  0
  188.5490  174.4080  147.9090 O   0  0  0  0  0  1  0  0  0  0  0  0
  189.5430  174.9390  147.0810 C   0  0  0  0  0  2  0  0  0  0  0  0
  194.0020  176.6870  144.6570 S   0  0  0  0  0  0  0  0  0  0  0  0
  193.5230  173.3770  143.6140 C   0  0  0  0  0  0  0  0  0  0  0  0
  195.4400  174.6870  143.5330 N   0  0  0  0  0  2  0  0  0  0  0  0
  192.4550  172.2740  144.1610 S   0  0  0  0  0  0  0  0  0  0  0  0
  193.1130  174.6410  143.1530 N   0  0  0  0  0  2  0  0  0  0  0  0
  194.9090  173.4570  144.1080 C   0  0  2  0  0  3  0  0  0  0  0  0
  194.2640  175.5240  143.2530 C   0  0  1  0  0  0  0  0  0  0  0  0
  194.4320  176.2150  142.0500 O   0  0  0  0  0  1  0  0  0  0  0  0
  195.6520  171.9190  142.3950 O   0  0  0  0  0  1  0  0  0  0  0  0
  197.1120  172.5090  144.0550 O   0  0  0  0  0  1  0  0  0  0  0  0
  195.7690  172.2450  143.7500 C   0  0  0  0  0  3  0  0  0  0  0  0
  1 28  1  1  0  0  0
  2  3  2  0  0  0  0
  3  1  1  0  0  0  0
  3  4  1  0  0  0  0
  4  5  1  0  0  0  0
  5  6  1  0  0  0  0
  6  7  1  0  0  0  0
  7  9  1  0  0  0  0
  8  7  2  0  0  0  0
 10  1  1  0  0  0  0
 10 11  2  0  0  0  0
 12 13  1  0  0  0  0
 12 10  1  0  0  0  0
 13 14  1  1  0  0  0
 15 17  2  0  0  0  0
 16 13  1  0  0  0  0
 17 16  1  0  0  0  0
 18 17  1  0  0  0  0
 19 23  1  0  0  0  0
 20 24  1  0  0  0  0
 20 21  1  0  0  0  0
 21 19  2  0  0  0  0
 22 24  2  0  0  0  0
 23 18  1  6  0  0  0
 24 23  1  0  0  0  0
 25 21  1  0  0  0  0
 25 27  1  0  0  0  0
 26 27  1  0  0  0  0
 28 30  1  0  0  0  0
 29 34  1  0  0  0  0
 29 35  1  0  0  0  0
 30 29  2  0  0  0  0
 31 33  1  0  0  0  0
 32 31  2  0  0  0  0
 32 30  1  0  0  0  0
 33 39  1  0  0  0  0
 33 34  2  0  0  0  0
 35 38  1  0  0  0  0
 35 36  1  1  0  0  0
 38 37  1  0  0  0  0
 40 44  1  0  0  0  0
 40 42  2  0  0  0  0
 41 44  1  0  0  0  0
 43 45  1  0  0  0  0
 43 40  1  0  0  0  0
 44 49  1  6  0  0  0
 45 46  1  6  0  0  0
 45 41  1  0  0  0  0
 45 39  1  0  0  0  0
 47 49  1  0  0  0  0
 49 48  1  0  0  0  0
M  END
>  <MODEL>
1

>  <REMARK>
 VINA RESULT:      -6.4      0.000      0.000
  Name = 
  19 active torsions:
  status: ('A' for Active; 'I' for Inactive)
    1  A    between atoms: C_2  and  O_7
    2  A    between atoms: C_2  and  N_35
    3  A    between atoms: C_3  and  C_12
    4  A    between atoms: S_4  and  C_27
    5  A    between atoms: S_4  and  C_32
    6  A    between atoms: O_7  and  C_10
    7  A    between atoms: C_8  and  C_46
    8  A    between atoms: C_9  and  C_25
    9  A    between atoms: C_9  and  C_43
   10  A    between atoms: C_10  and  C_24
   11  A    between atoms: C_12  and  C_36
   12  A    between atoms: N_14  and  C_25
   13  A    between atoms: C_24  and  C_43
   14  A    between atoms: C_24  and  C_46
   15  A    between atoms: C_28  and  S_41
   16  A    between atoms: CA_30  and  C_45
   17  A    between atoms: C_31  and  S_41
   18  A    between atoms: C_39  and  C_42
   19  A    between atoms: C_42  and  C_49
                            x       y       z     vdW  Elec       q    Type
                         _______ _______ _______ _____ _____    ______ ____

>  <TORSDO>
F 19

$$$$
=
 OpenBabel11042414113D

 49 51  0  0  1  0  0  0  0  0999 V2000
  188.0260  177.2150  142.2040 C   0  0  2  0  0  3  0  0  0  0  0  0
  186.5440  177.6240  140.4190 O   0  0  0  0  0  0  0  0  0  0  0  0
  186.8140  177.8710  141.5870 C   0  0  0  0  0  0  0  0  0  0  0  0
  185.8910  178.7470  142.3870 C   0  0  0  0  0  2  0  0  0  0  0  0
  184.7430  177.9550  143.0020 C   0  0  0  0  0  2  0  0  0  0  0  0
  184.4180  178.4620  144.3260 N   0  0  0  0  0  2  0  0  0  0  0  0
  184.8560  177.8120  145.5270 C   0  0  0  0  0  0  0  0  0  0  0  0
  185.5880  176.8030  145.4750 O   0  0  0  0  0  0  0  0  0  0  0  0
  184.4440  178.2950  146.7660 O   0  0  0  0  0  1  0  0  0  0  0  0
  187.8360  175.7250  142.3150 C   0  0  0  0  0  0  0  0  0  0  0  0
  186.6920  175.2780  142.6310 O   0  0  0  0  0  0  0  0  0  0  0  0
  188.8740  174.8230  142.0370 O   0  0  0  0  0  0  0  0  0  0  0  0
  189.0480  174.1320  140.7990 C   0  0  2  0  0  3  0  0  0  0  0  0
  188.2230  172.8500  140.7890 C   0  0  0  0  0  1  0  0  0  0  0  0
  190.3680  173.7630  138.2620 O   0  0  0  0  0  0  0  0  0  0  0  0
  190.4510  173.7980  140.5910 N   0  0  0  0  0  2  0  0  0  0  0  0
  190.9750  173.4410  139.3210 C   0  0  0  0  0  0  0  0  0  0  0  0
  192.2910  172.7120  139.2640 C   0  0  0  0  0  2  0  0  0  0  0  0
  192.3600  170.8190  140.7970 N   0  0  0  0  0  0  0  0  0  0  0  0
  194.6560  170.8510  140.9820 N   0  0  0  0  0  2  0  0  0  0  0  0
  193.4360  170.1210  141.0120 C   0  0  0  0  0  0  0  0  0  0  0  0
  194.9500  173.1860  140.7380 O   0  0  0  0  0  0  0  0  0  0  0  0
  192.7130  172.2280  140.6440 C   0  0  1  0  0  3  0  0  0  0  0  0
  194.1910  172.1810  140.7550 C   0  0  0  0  0  0  0  0  0  0  0  0
  193.3920  168.3550  141.2200 S   0  0  0  0  0  0  0  0  0  0  0  0
  193.2050  169.0330  143.8410 C   0  0  0  0  0  1  0  0  0  0  0  0
  194.1770  168.4240  142.8520 C   0  0  0  0  0  2  0  0  0  0  0  0
  188.4630  177.7990  143.5540 C   0  0  0  0  0  2  0  0  0  0  0  0
  190.1950  176.9880  145.2800 C   0  0  0  0  0  0  0  0  0  0  0  0
  189.8640  177.4660  143.9920 C   0  0  0  0  0  0  0  0  0  0  0  0
  192.2280  177.6060  143.4410 C   0  0  0  0  0  3  0  0  0  0  0  0
  190.8920  177.8050  143.1030 C   0  0  0  0  0  3  0  0  0  0  0  0
  192.5610  177.0460  144.6760 C   0  0  0  0  0  0  0  0  0  0  0  0
  191.5450  176.7570  145.5930 C   0  0  0  0  0  3  0  0  0  0  0  0
  189.1520  176.8490  146.3600 C   0  0  2  0  0  3  0  0  0  0  0  0
  189.4660  177.7310  147.5550 C   0  0  0  0  0  1  0  0  0  0  0  0
  189.1970  174.5020  145.8020 O   0  0  0  0  0  1  0  0  0  0  0  0
  188.8630  175.4170  146.8030 C   0  0  0  0  0  2  0  0  0  0  0  0
  194.2860  176.8190  145.1540 S   0  0  0  0  0  0  0  0  0  0  0  0
  193.4960  173.5130  144.3100 C   0  0  0  0  0  0  0  0  0  0  0  0
  195.5720  174.4800  144.7000 N   0  0  0  0  0  2  0  0  0  0  0  0
  192.1250  172.6800  144.6000 S   0  0  0  0  0  0  0  0  0  0  0  0
  193.4840  174.7470  143.6370 N   0  0  0  0  0  2  0  0  0  0  0  0
  194.6740  173.4420  145.1920 C   0  0  2  0  0  3  0  0  0  0  0  0
  194.7060  175.4440  144.0030 C   0  0  1  0  0  0  0  0  0  0  0  0
  195.3370  175.9240  142.8530 O   0  0  0  0  0  1  0  0  0  0  0  0
  195.6860  171.6420  143.9320 O   0  0  0  0  0  1  0  0  0  0  0  0
  196.5060  172.1290  146.0110 O   0  0  0  0  0  1  0  0  0  0  0  0
  195.3500  172.0720  145.2200 C   0  0  0  0  0  3  0  0  0  0  0  0
  1 10  1  0  0  0  0
  1 28  1  1  0  0  0
  2  3  2  0  0  0  0
  3  1  1  0  0  0  0
  3  4  1  0  0  0  0
  4  5  1  0  0  0  0
  5  6  1  0  0  0  0
  6  7  1  0  0  0  0
  7  9  1  0  0  0  0
  8  7  2  0  0  0  0
 10 11  2  0  0  0  0
 12 10  1  0  0  0  0
 13 14  1  1  0  0  0
 13 12  1  0  0  0  0
 15 17  2  0  0  0  0
 16 13  1  0  0  0  0
 17 16  1  0  0  0  0
 18 17  1  0  0  0  0
 19 21  2  0  0  0  0
 20 21  1  0  0  0  0
 21 25  1  0  0  0  0
 22 24  2  0  0  0  0
 23 18  1  6  0  0  0
 23 24  1  0  0  0  0
 23 19  1  0  0  0  0
 24 20  1  0  0  0  0
 25 27  1  0  0  0  0
 27 26  1  0  0  0  0
 28 30  1  0  0  0  0
 29 34  1  0  0  0  0
 29 35  1  0  0  0  0
 30 29  2  0  0  0  0
 31 33  1  0  0  0  0
 32 31  2  0  0  0  0
 32 30  1  0  0  0  0
 33 39  1  0  0  0  0
 33 34  2  0  0  0  0
 35 38  1  0  0  0  0
 35 36  1  1  0  0  0
 37 38  1  0  0  0  0
 40 42  2  0  0  0  0
 40 44  1  0  0  0  0
 41 44  1  0  0  0  0
 43 45  1  0  0  0  0
 43 40  1  0  0  0  0
 44 49  1  6  0  0  0
 45 46  1  6  0  0  0
 45 41  1  0  0  0  0
 45 39  1  0  0  0  0
 47 49  1  0  0  0  0
 49 48  1  0  0  0  0
M  END
>  <MODEL>
2

>  <REMARK>
 VINA RESULT:      -5.9      2.023      3.014
  Name = 
  19 active torsions:
  status: ('A' for Active; 'I' for Inactive)
    1  A    between atoms: C_2  and  O_7
    2  A    between atoms: C_2  and  N_35
    3  A    between atoms: C_3  and  C_12
    4  A    between atoms: S_4  and  C_27
    5  A    between atoms: S_4  and  C_32
    6  A    between atoms: O_7  and  C_10
    7  A    between atoms: C_8  and  C_46
    8  A    between atoms: C_9  and  C_25
    9  A    between atoms: C_9  and  C_43
   10  A    between atoms: C_10  and  C_24
   11  A    between atoms: C_12  and  C_36
   12  A    between atoms: N_14  and  C_25
   13  A    between atoms: C_24  and  C_43
   14  A    between atoms: C_24  and  C_46
   15  A    between atoms: C_28  and  S_41
   16  A    between atoms: CA_30  and  C_45
   17  A    between atoms: C_31  and  S_41
   18  A    between atoms: C_39  and  C_42
   19  A    between atoms: C_42  and  C_49
                            x       y       z     vdW  Elec       q    Type
                         _______ _______ _______ _____ _____    ______ ____

>  <TORSDO>
F 19

$$$$
=
 OpenBabel11042414113D

 49 51  0  0  1  0  0  0  0  0999 V2000
  188.3730  176.5240  141.8100 C   0  0  2  0  0  3  0  0  0  0  0  0
  187.0620  177.5730  140.1560 O   0  0  0  0  0  0  0  0  0  0  0  0
  187.3060  177.4910  141.3530 C   0  0  0  0  0  0  0  0  0  0  0  0
  186.4860  178.2880  142.3290 C   0  0  0  0  0  2  0  0  0  0  0  0
  185.1550  177.6120  142.6400 C   0  0  0  0  0  2  0  0  0  0  0  0
  184.4190  178.3620  143.6460 N   0  0  0  0  0  2  0  0  0  0  0  0
  184.5950  178.1400  145.0520 C   0  0  0  0  0  0  0  0  0  0  0  0
  185.4380  177.3190  145.4670 O   0  0  0  0  0  0  0  0  0  0  0  0
  183.8020  178.8280  145.9660 O   0  0  0  0  0  1  0  0  0  0  0  0
  188.1580  175.1600  141.2090 C   0  0  0  0  0  0  0  0  0  0  0  0
  188.1040  175.0510  139.9470 O   0  0  0  0  0  0  0  0  0  0  0  0
  188.0600  174.0080  142.0040 O   0  0  0  0  0  0  0  0  0  0  0  0
  188.9750  172.9110  141.9730 C   0  0  2  0  0  3  0  0  0  0  0  0
  189.0400  172.2380  143.3380 C   0  0  0  0  0  1  0  0  0  0  0  0
  190.8220  171.5640  140.2160 O   0  0  0  0  0  0  0  0  0  0  0  0
  190.3090  173.3670  141.6010 N   0  0  0  0  0  2  0  0  0  0  0  0
  191.2280  172.5510  140.8900 C   0  0  0  0  0  0  0  0  0  0  0  0
  192.6880  172.9170  140.9220 C   0  0  0  0  0  2  0  0  0  0  0  0
  194.1240  174.5980  139.8980 N   0  0  0  0  0  0  0  0  0  0  0  0
  195.2240  173.0750  138.5650 N   0  0  0  0  0  2  0  0  0  0  0  0
  195.2300  174.3040  139.2800 C   0  0  0  0  0  0  0  0  0  0  0  0
  193.4120  171.5860  138.2440 O   0  0  0  0  0  0  0  0  0  0  0  0
  193.1190  173.5750  139.6200 C   0  0  1  0  0  3  0  0  0  0  0  0
  193.8860  172.6230  138.7800 C   0  0  0  0  0  0  0  0  0  0  0  0
  196.6850  175.3170  139.4130 S   0  0  0  0  0  0  0  0  0  0  0  0
  197.0860  175.6580  136.7510 C   0  0  0  0  0  1  0  0  0  0  0  0
  197.3920  174.6840  137.8690 C   0  0  0  0  0  2  0  0  0  0  0  0
  188.5430  176.4170  143.3310 C   0  0  0  0  0  2  0  0  0  0  0  0
  190.3060  176.4660  145.2090 C   0  0  0  0  0  0  0  0  0  0  0  0
  189.9590  176.4520  143.8390 C   0  0  0  0  0  0  0  0  0  0  0  0
  192.2990  176.7510  143.2480 C   0  0  0  0  0  3  0  0  0  0  0  0
  190.9610  176.6340  142.8780 C   0  0  0  0  0  3  0  0  0  0  0  0
  192.6610  176.6730  144.5940 C   0  0  0  0  0  0  0  0  0  0  0  0
  191.6620  176.5490  145.5660 C   0  0  0  0  0  3  0  0  0  0  0  0
  189.2540  176.5310  146.2860 C   0  0  2  0  0  3  0  0  0  0  0  0
  189.6180  177.5380  147.3620 C   0  0  0  0  0  1  0  0  0  0  0  0
  189.5580  174.1370  146.2880 O   0  0  0  0  0  1  0  0  0  0  0  0
  188.8750  175.1880  146.9050 C   0  0  0  0  0  2  0  0  0  0  0  0
  194.3810  176.8680  145.1020 S   0  0  0  0  0  0  0  0  0  0  0  0
  194.7550  173.4220  144.5940 C   0  0  0  0  0  0  0  0  0  0  0  0
  196.3670  175.0940  144.6080 N   0  0  0  0  0  2  0  0  0  0  0  0
  193.8260  172.1980  145.1390 S   0  0  0  0  0  0  0  0  0  0  0  0
  194.2160  174.4890  143.8550 N   0  0  0  0  0  2  0  0  0  0  0  0
  195.9730  173.8700  145.2930 C   0  0  2  0  0  3  0  0  0  0  0  0
  195.1350  175.6070  143.9900 C   0  0  1  0  0  0  0  0  0  0  0  0
  195.4080  176.1460  142.7300 O   0  0  0  0  0  1  0  0  0  0  0  0
  196.8920  171.8660  146.2890 O   0  0  0  0  0  1  0  0  0  0  0  0
  197.1900  172.2200  144.0490 O   0  0  0  0  0  1  0  0  0  0  0  0
  197.1000  172.8370  145.3040 C   0  0  0  0  0  3  0  0  0  0  0  0
  1 28  1  1  0  0  0
  2  3  2  0  0  0  0
  3  1  1  0  0  0  0
  3  4  1  0  0  0  0
  4  5  1  0  0  0  0
  5  6  1  0  0  0  0
  6  7  1  0  0  0  0
  7  8  2  0  0  0  0
  7  9  1  0  0  0  0
 10  1  1  0  0  0  0
 10 12  1  0  0  0  0
 11 10  2  0  0  0  0
 13 12  1  0  0  0  0
 13 14  1  1  0  0  0
 15 17  2  0  0  0  0
 16 13  1  0  0  0  0
 17 18  1  0  0  0  0
 17 16  1  0  0  0  0
 20 24  1  0  0  0  0
 20 21  1  0  0  0  0
 21 25  1  0  0  0  0
 21 19  2  0  0  0  0
 22 24  2  0  0  0  0
 23 19  1  0  0  0  0
 23 18  1  1  0  0  0
 24 23  1  0  0  0  0
 26 27  1  0  0  0  0
 27 25  1  0  0  0  0
 28 30  1  0  0  0  0
 29 34  1  0  0  0  0
 29 35  1  0  0  0  0
 30 29  2  0  0  0  0
 31 33  1  0  0  0  0
 32 31  2  0  0  0  0
 32 30  1  0  0  0  0
 33 39  1  0  0  0  0
 33 34  2  0  0  0  0
 35 38  1  0  0  0  0
 35 36  1  1  0  0  0
 37 38  1  0  0  0  0
 40 42  2  0  0  0  0
 40 44  1  0  0  0  0
 41 44  1  0  0  0  0
 43 45  1  0  0  0  0
 43 40  1  0  0  0  0
 44 49  1  6  0  0  0
 45 46  1  6  0  0  0
 45 41  1  0  0  0  0
 45 39  1  0  0  0  0
 48 49  1  0  0  0  0
 49 47  1  0  0  0  0
M  END
>  <MODEL>
3

>  <REMARK>
 VINA RESULT:      -5.8      2.002      2.306
  Name = 
  19 active torsions:
  status: ('A' for Active; 'I' for Inactive)
    1  A    between atoms: C_2  and  O_7
    2  A    between atoms: C_2  and  N_35
    3  A    between atoms: C_3  and  C_12
    4  A    between atoms: S_4  and  C_27
    5  A    between atoms: S_4  and  C_32
    6  A    between atoms: O_7  and  C_10
    7  A    between atoms: C_8  and  C_46
    8  A    between atoms: C_9  and  C_25
    9  A    between atoms: C_9  and  C_43
   10  A    between atoms: C_10  and  C_24
   11  A    between atoms: C_12  and  C_36
   12  A    between atoms: N_14  and  C_25
   13  A    between atoms: C_24  and  C_43
   14  A    between atoms: C_24  and  C_46
   15  A    between atoms: C_28  and  S_41
   16  A    between atoms: CA_30  and  C_45
   17  A    between atoms: C_31  and  S_41
   18  A    between atoms: C_39  and  C_42
   19  A    between atoms: C_42  and  C_49
                            x       y       z     vdW  Elec       q    Type
                         _______ _______ _______ _____ _____    ______ ____

>  <TORSDO>
F 19

$$$$
=
 OpenBabel11042414113D

 49 51  0  0  1  0  0  0  0  0999 V2000
  195.0160  173.7650  145.1760 C   0  0  2  0  0  3  0  0  0  0  0  0
  196.9950  173.4420  146.4140 O   0  0  0  0  0  0  0  0  0  0  0  0
  196.5090  173.5720  145.2980 C   0  0  0  0  0  0  0  0  0  0  0  0
  197.3950  173.4520  144.0900 C   0  0  0  0  0  2  0  0  0  0  0  0
  196.6090  173.5890  142.7900 C   0  0  0  0  0  2  0  0  0  0  0  0
  196.7830  174.9160  142.2200 N   0  0  0  0  0  2  0  0  0  0  0  0
  195.6740  175.7410  141.8400 C   0  0  0  0  0  0  0  0  0  0  0  0
  194.5010  175.3640  142.0390 O   0  0  0  0  0  1  0  0  0  0  0  0
  195.9020  176.9670  141.2210 O   0  0  0  0  0  0  0  0  0  0  0  0
  194.6050  175.1210  145.6860 C   0  0  0  0  0  0  0  0  0  0  0  0
  195.2280  176.1440  145.2710 O   0  0  0  0  0  0  0  0  0  0  0  0
  193.5270  175.2850  146.5700 O   0  0  0  0  0  0  0  0  0  0  0  0
  192.3280  176.0040  146.2750 C   0  0  2  0  0  3  0  0  0  0  0  0
  191.3200  175.8360  147.4060 C   0  0  0  0  0  1  0  0  0  0  0  0
  191.6010  177.6070  143.9920 O   0  0  0  0  0  0  0  0  0  0  0  0
  191.7360  175.5260  145.0330 N   0  0  0  0  0  2  0  0  0  0  0  0
  191.2270  176.4020  144.0380 C   0  0  0  0  0  0  0  0  0  0  0  0
  190.2700  175.8510  143.0160 C   0  0  0  0  0  2  0  0  0  0  0  0
  188.3470  176.6420  144.2840 N   0  0  0  0  0  0  0  0  0  0  0  0
  186.8290  176.0440  142.6580 N   0  0  0  0  0  2  0  0  0  0  0  0
  187.1930  176.8930  143.7390 C   0  0  0  0  0  0  0  0  0  0  0  0
  187.9920  174.1540  141.8360 O   0  0  0  0  0  0  0  0  0  0  0  0
  188.9430  175.4680  143.6520 C   0  0  1  0  0  3  0  0  0  0  0  0
  187.9360  175.1440  142.6130 C   0  0  0  0  0  0  0  0  0  0  0  0
  186.1900  178.2730  144.2410 S   0  0  0  0  0  0  0  0  0  0  0  0
  185.1700  176.9040  146.3500 C   0  0  0  0  0  1  0  0  0  0  0  0
  186.3010  177.8470  145.9990 C   0  0  0  0  0  2  0  0  0  0  0  0
  194.1650  172.6690  145.8300 C   0  0  0  0  0  2  0  0  0  0  0  0
  194.0030  170.5140  144.4280 C   0  0  0  0  0  0  0  0  0  0  0  0
  193.4580  171.7350  144.8850 C   0  0  0  0  0  0  0  0  0  0  0  0
  191.5650  171.4470  143.3860 C   0  0  0  0  0  3  0  0  0  0  0  0
  192.2620  172.2020  144.3260 C   0  0  0  0  0  3  0  0  0  0  0  0
  192.0480  170.1960  142.9970 C   0  0  0  0  0  0  0  0  0  0  0  0
  193.2710  169.7460  143.5060 C   0  0  0  0  0  3  0  0  0  0  0  0
  195.3990  170.0870  144.8000 C   0  0  2  0  0  3  0  0  0  0  0  0
  196.2690  169.8910  143.5710 C   0  0  0  0  0  1  0  0  0  0  0  0
  195.0600  169.1950  147.0160 O   0  0  0  0  0  1  0  0  0  0  0  0
  195.4840  168.8750  145.7230 C   0  0  0  0  0  2  0  0  0  0  0  0
  191.1870  169.2190  141.7480 S   0  0  0  0  0  0  0  0  0  0  0  0
  191.5920  171.9400  139.5800 C   0  0  0  0  0  0  0  0  0  0  0  0
  191.2370  169.6990  139.0840 N   0  0  0  0  0  2  0  0  0  0  0  0
  191.2560  173.5150  139.8370 S   0  0  0  0  0  0  0  0  0  0  0  0
  192.4330  171.2130  140.4400 N   0  0  0  0  0  2  0  0  0  0  0  0
  190.6490  171.0220  138.9170 C   0  0  2  0  0  3  0  0  0  0  0  0
  192.1070  169.8070  140.2650 C   0  0  1  0  0  0  0  0  0  0  0  0
  193.2810  169.0720  140.0750 O   0  0  0  0  0  1  0  0  0  0  0  0
  189.3590  172.2810  137.3030 O   0  0  0  0  0  1  0  0  0  0  0  0
  191.5620  171.8520  136.8600 O   0  0  0  0  0  1  0  0  0  0  0  0
  190.3920  171.3490  137.4460 C   0  0  0  0  0  3  0  0  0  0  0  0
  1  3  1  0  0  0  0
  1 10  1  0  0  0  0
  1 28  1  1  0  0  0
  3  2  2  0  0  0  0
  4  3  1  0  0  0  0
  5  4  1  0  0  0  0
  6  5  1  0  0  0  0
  7  8  1  0  0  0  0
  7  6  1  0  0  0  0
  9  7  2  0  0  0  0
 10 12  1  0  0  0  0
 11 10  2  0  0  0  0
 13 12  1  0  0  0  0
 13 14  1  1  0  0  0
 15 17  2  0  0  0  0
 16 13  1  0  0  0  0
 17 16  1  0  0  0  0
 18 17  1  0  0  0  0
 20 21  1  0  0  0  0
 21 25  1  0  0  0  0
 21 19  2  0  0  0  0
 22 24  2  0  0  0  0
 23 18  1  6  0  0  0
 23 19  1  0  0  0  0
 24 20  1  0  0  0  0
 24 23  1  0  0  0  0
 25 27  1  0  0  0  0
 27 26  1  0  0  0  0
 29 35  1  0  0  0  0
 29 30  1  0  0  0  0
 30 28  1  0  0  0  0
 31 32  1  0  0  0  0
 32 30  2  0  0  0  0
 33 31  2  0  0  0  0
 33 34  1  0  0  0  0
 34 29  2  0  0  0  0
 35 36  1  6  0  0  0
 35 38  1  0  0  0  0
 38 37  1  0  0  0  0
 39 33  1  0  0  0  0
 40 42  2  0  0  0  0
 40 43  1  0  0  0  0
 41 45  1  0  0  0  0
 44 49  1  6  0  0  0
 44 41  1  0  0  0  0
 44 40  1  0  0  0  0
 45 46  1  6  0  0  0
 45 43  1  0  0  0  0
 45 39  1  0  0  0  0
 47 49  1  0  0  0  0
 48 49  1  0  0  0  0
M  END
>  <MODEL>
4

>  <REMARK>
 VINA RESULT:      -5.6      3.284      9.027
  Name = 
  19 active torsions:
  status: ('A' for Active; 'I' for Inactive)
    1  A    between atoms: C_2  and  O_7
    2  A    between atoms: C_2  and  N_35
    3  A    between atoms: C_3  and  C_12
    4  A    between atoms: S_4  and  C_27
    5  A    between atoms: S_4  and  C_32
    6  A    between atoms: O_7  and  C_10
    7  A    between atoms: C_8  and  C_46
    8  A    between atoms: C_9  and  C_25
    9  A    between atoms: C_9  and  C_43
   10  A    between atoms: C_10  and  C_24
   11  A    between atoms: C_12  and  C_36
   12  A    between atoms: N_14  and  C_25
   13  A    between atoms: C_24  and  C_43
   14  A    between atoms: C_24  and  C_46
   15  A    between atoms: C_28  and  S_41
   16  A    between atoms: CA_30  and  C_45
   17  A    between atoms: C_31  and  S_41
   18  A    between atoms: C_39  and  C_42
   19  A    between atoms: C_42  and  C_49
                            x       y       z     vdW  Elec       q    Type
                         _______ _______ _______ _____ _____    ______ ____

>  <TORSDO>
F 19

$$$$
=
 OpenBabel11042414113D

 49 51  0  0  1  0  0  0  0  0999 V2000
  187.7350  177.5580  142.1770 C   0  0  2  0  0  3  0  0  0  0  0  0
  186.1640  178.1720  140.5310 O   0  0  0  0  0  0  0  0  0  0  0  0
  186.4660  178.2360  141.7150 C   0  0  0  0  0  0  0  0  0  0  0  0
  185.5310  178.9110  142.6790 C   0  0  0  0  0  2  0  0  0  0  0  0
  184.2410  178.1210  142.8700 C   0  0  0  0  0  2  0  0  0  0  0  0
  183.4220  178.1730  141.6690 N   0  0  0  0  0  2  0  0  0  0  0  0
  182.0720  178.6560  141.6790 C   0  0  0  0  0  0  0  0  0  0  0  0
  181.5630  179.1050  142.7260 O   0  0  0  0  0  1  0  0  0  0  0  0
  181.3090  178.6040  140.5160 O   0  0  0  0  0  0  0  0  0  0  0  0
  187.6250  176.0620  142.0470 C   0  0  0  0  0  0  0  0  0  0  0  0
  186.6830  175.4650  142.6500 O   0  0  0  0  0  0  0  0  0  0  0  0
  188.5070  175.3210  141.2450 O   0  0  0  0  0  0  0  0  0  0  0  0
  189.0180  174.0270  141.5700 C   0  0  2  0  0  3  0  0  0  0  0  0
  189.9830  174.1210  142.7460 C   0  0  0  0  0  1  0  0  0  0  0  0
  187.8160  172.5930  139.3770 O   0  0  0  0  0  0  0  0  0  0  0  0
  189.7130  173.4480  140.4270 N   0  0  0  0  0  2  0  0  0  0  0  0
  189.0730  172.5890  139.4950 C   0  0  0  0  0  0  0  0  0  0  0  0
  189.9280  171.7130  138.6210 C   0  0  0  0  0  2  0  0  0  0  0  0
  192.3450  171.9940  138.4870 N   0  0  0  0  0  0  0  0  0  0  0  0
  192.4230  171.6100  136.2170 N   0  0  0  0  0  2  0  0  0  0  0  0
  193.0550  171.5560  137.4890 C   0  0  0  0  0  0  0  0  0  0  0  0
  190.3100  172.5310  135.6800 O   0  0  0  0  0  0  0  0  0  0  0  0
  191.0680  172.5020  137.9940 C   0  0  1  0  0  3  0  0  0  0  0  0
  191.1710  172.2140  136.5430 C   0  0  0  0  0  0  0  0  0  0  0  0
  194.6650  170.8350  137.7190 S   0  0  0  0  0  0  0  0  0  0  0  0
  195.8210  173.1680  138.4850 C   0  0  0  0  0  1  0  0  0  0  0  0
  195.0950  171.9720  139.0630 C   0  0  0  0  0  2  0  0  0  0  0  0
  188.1960  177.9390  143.5890 C   0  0  0  0  0  2  0  0  0  0  0  0
  190.0110  177.1040  145.2160 C   0  0  0  0  0  0  0  0  0  0  0  0
  189.6110  177.5640  143.9410 C   0  0  0  0  0  0  0  0  0  0  0  0
  191.9360  177.6010  143.2310 C   0  0  0  0  0  3  0  0  0  0  0  0
  190.5880  177.8430  142.9780 C   0  0  0  0  0  3  0  0  0  0  0  0
  192.3320  177.0590  144.4550 C   0  0  0  0  0  0  0  0  0  0  0  0
  191.3700  176.8300  145.4450 C   0  0  0  0  0  3  0  0  0  0  0  0
  189.0390  177.0300  146.3660 C   0  0  2  0  0  3  0  0  0  0  0  0
  189.6540  177.5580  147.6500 C   0  0  0  0  0  1  0  0  0  0  0  0
  189.0420  174.9730  147.6280 O   0  0  0  0  0  1  0  0  0  0  0  0
  188.4030  175.6610  146.5930 C   0  0  0  0  0  2  0  0  0  0  0  0
  194.0750  176.7780  144.8230 S   0  0  0  0  0  0  0  0  0  0  0  0
  194.0590  173.3790  143.9780 C   0  0  0  0  0  0  0  0  0  0  0  0
  195.7500  174.9530  143.7300 N   0  0  0  0  0  2  0  0  0  0  0  0
  193.1950  172.1630  144.6350 S   0  0  0  0  0  0  0  0  0  0  0  0
  193.4420  174.5380  143.4750 N   0  0  0  0  0  2  0  0  0  0  0  0
  195.4370  173.6930  144.3940 C   0  0  2  0  0  3  0  0  0  0  0  0
  194.4490  175.5870  143.4690 C   0  0  1  0  0  0  0  0  0  0  0  0
  194.4570  176.2240  142.2250 O   0  0  0  0  0  1  0  0  0  0  0  0
  196.3680  172.2260  142.7110 O   0  0  0  0  0  1  0  0  0  0  0  0
  197.7500  173.0620  144.3300 O   0  0  0  0  0  1  0  0  0  0  0  0
  196.4540  172.6040  144.0540 C   0  0  0  0  0  3  0  0  0  0  0  0
  1 28  1  1  0  0  0
  2  3  2  0  0  0  0
  3  1  1  0  0  0  0
  3  4  1  0  0  0  0
  4  5  1  0  0  0  0
  6  7  1  0  0  0  0
  6  5  1  0  0  0  0
  7  8  1  0  0  0  0
  9  7  2  0  0  0  0
 10  1  1  0  0  0  0
 10 11  2  0  0  0  0
 12 13  1  0  0  0  0
 12 10  1  0  0  0  0
 13 14  1  1  0  0  0
 15 17  2  0  0  0  0
 16 13  1  0  0  0  0
 17 16  1  0  0  0  0
 18 17  1  0  0  0  0
 20 24  1  0  0  0  0
 20 21  1  0  0  0  0
 21 25  1  0  0  0  0
 21 19  2  0  0  0  0
 22 24  2  0  0  0  0
 23 19  1  0  0  0  0
 23 18  1  1  0  0  0
 24 23  1  0  0  0  0
 25 27  1  0  0  0  0
 26 27  1  0  0  0  0
 28 30  1  0  0  0  0
 29 34  1  0  0  0  0
 29 35  1  0  0  0  0
 30 29  2  0  0  0  0
 31 33  1  0  0  0  0
 32 31  2  0  0  0  0
 32 30  1  0  0  0  0
 33 39  1  0  0  0  0
 33 34  2  0  0  0  0
 35 38  1  0  0  0  0
 35 36  1  1  0  0  0
 38 37  1  0  0  0  0
 40 44  1  0  0  0  0
 40 42  2  0  0  0  0
 41 44  1  0  0  0  0
 43 40  1  0  0  0  0
 44 49  1  6  0  0  0
 45 46  1  6  0  0  0
 45 43  1  0  0  0  0
 45 41  1  0  0  0  0
 45 39  1  0  0  0  0
 47 49  1  0  0  0  0
 49 48  1  0  0  0  0
M  END
>  <MODEL>
5

>  <REMARK>
 VINA RESULT:      -5.6      1.616      1.989
  Name = 
  19 active torsions:
  status: ('A' for Active; 'I' for Inactive)
    1  A    between atoms: C_2  and  O_7
    2  A    between atoms: C_2  and  N_35
    3  A    between atoms: C_3  and  C_12
    4  A    between atoms: S_4  and  C_27
    5  A    between atoms: S_4  and  C_32
    6  A    between atoms: O_7  and  C_10
    7  A    between atoms: C_8  and  C_46
    8  A    between atoms: C_9  and  C_25
    9  A    between atoms: C_9  and  C_43
   10  A    between atoms: C_10  and  C_24
   11  A    between atoms: C_12  and  C_36
   12  A    between atoms: N_14  and  C_25
   13  A    between atoms: C_24  and  C_43
   14  A    between atoms: C_24  and  C_46
   15  A    between atoms: C_28  and  S_41
   16  A    between atoms: CA_30  and  C_45
   17  A    between atoms: C_31  and  S_41
   18  A    between atoms: C_39  and  C_42
   19  A    between atoms: C_42  and  C_49
                            x       y       z     vdW  Elec       q    Type
                         _______ _______ _______ _____ _____    ______ ____

>  <TORSDO>
F 19

$$$$
=
 OpenBabel11042414113D

 49 51  0  0  1  0  0  0  0  0999 V2000
  187.9020  177.2270  142.0490 C   0  0  2  0  0  3  0  0  0  0  0  0
  186.3730  177.7650  140.3390 O   0  0  0  0  0  0  0  0  0  0  0  0
  186.6760  177.9280  141.5130 C   0  0  0  0  0  0  0  0  0  0  0  0
  185.7790  178.7470  142.3990 C   0  0  0  0  0  2  0  0  0  0  0  0
  184.6020  177.9340  142.9270 C   0  0  0  0  0  2  0  0  0  0  0  0
  184.7720  177.6400  144.3420 N   0  0  0  0  0  2  0  0  0  0  0  0
  184.6550  178.6480  145.3550 C   0  0  0  0  0  0  0  0  0  0  0  0
  184.3460  179.8190  145.0570 O   0  0  0  0  0  0  0  0  0  0  0  0
  184.9110  178.3260  146.6850 O   0  0  0  0  0  1  0  0  0  0  0  0
  187.6950  175.7350  142.0920 C   0  0  0  0  0  0  0  0  0  0  0  0
  186.7520  175.2700  142.8010 O   0  0  0  0  0  0  0  0  0  0  0  0
  188.4870  174.8560  141.3380 O   0  0  0  0  0  0  0  0  0  0  0  0
  189.0540  173.6400  141.8290 C   0  0  2  0  0  3  0  0  0  0  0  0
  190.2880  173.9360  142.6740 C   0  0  0  0  0  1  0  0  0  0  0  0
  190.1120  170.9660  142.0380 O   0  0  0  0  0  0  0  0  0  0  0  0
  189.4300  172.7660  140.7250 N   0  0  0  0  0  2  0  0  0  0  0  0
  190.1270  171.5440  140.9160 C   0  0  0  0  0  0  0  0  0  0  0  0
  190.8400  170.9320  139.7410 C   0  0  0  0  0  2  0  0  0  0  0  0
  190.3110  172.0460  137.6400 N   0  0  0  0  0  0  0  0  0  0  0  0
  190.7580  170.1850  136.3570 N   0  0  0  0  0  2  0  0  0  0  0  0
  190.7040  171.6000  136.4820 C   0  0  0  0  0  0  0  0  0  0  0  0
  190.0830  168.5570  137.9370 O   0  0  0  0  0  0  0  0  0  0  0  0
  189.9560  170.9220  138.5020 C   0  0  1  0  0  3  0  0  0  0  0  0
  190.2790  169.7640  137.6350 C   0  0  0  0  0  0  0  0  0  0  0  0
  191.2430  172.6890  135.1830 S   0  0  0  0  0  0  0  0  0  0  0  0
  189.4950  174.7530  135.4040 C   0  0  0  0  0  1  0  0  0  0  0  0
  190.7240  174.1780  136.0770 C   0  0  0  0  0  2  0  0  0  0  0  0
  188.3980  177.7360  143.4080 C   0  0  0  0  0  2  0  0  0  0  0  0
  190.2360  177.0490  145.0780 C   0  0  0  0  0  0  0  0  0  0  0  0
  189.8140  177.3730  143.7690 C   0  0  0  0  0  0  0  0  0  0  0  0
  192.1210  177.2840  143.0080 C   0  0  0  0  0  3  0  0  0  0  0  0
  190.7720  177.5240  142.7590 C   0  0  0  0  0  3  0  0  0  0  0  0
  192.5360  176.8730  144.2760 C   0  0  0  0  0  0  0  0  0  0  0  0
  191.5950  176.7740  145.3060 C   0  0  0  0  0  3  0  0  0  0  0  0
  189.2910  177.1220  146.2500 C   0  0  2  0  0  3  0  0  0  0  0  0
  189.9900  177.6280  147.4990 C   0  0  0  0  0  1  0  0  0  0  0  0
  187.1630  176.1050  146.7600 O   0  0  0  0  0  1  0  0  0  0  0  0
  188.5180  175.8390  146.5430 C   0  0  0  0  0  2  0  0  0  0  0  0
  194.2830  176.5990  144.6340 S   0  0  0  0  0  0  0  0  0  0  0  0
  195.6790  173.4870  145.4320 C   0  0  0  0  0  0  0  0  0  0  0  0
  193.4670  174.0420  144.9900 N   0  0  0  0  0  2  0  0  0  0  0  0
  197.1950  172.9460  145.1710 S   0  0  0  0  0  0  0  0  0  0  0  0
  195.4290  174.6800  146.1320 N   0  0  0  0  0  2  0  0  0  0  0  0
  194.5650  173.2140  144.5070 C   0  0  2  0  0  3  0  0  0  0  0  0
  194.1060  175.1350  145.7380 C   0  0  1  0  0  0  0  0  0  0  0  0
  193.3580  175.4500  146.8760 O   0  0  0  0  0  1  0  0  0  0  0  0
  194.2250  171.1260  145.6800 O   0  0  0  0  0  1  0  0  0  0  0  0
  192.8760  171.6230  143.9000 O   0  0  0  0  0  1  0  0  0  0  0  0
  194.1710  171.7390  144.4240 C   0  0  0  0  0  3  0  0  0  0  0  0
  1 10  1  0  0  0  0
  1 28  1  1  0  0  0
  2  3  2  0  0  0  0
  3  1  1  0  0  0  0
  3  4  1  0  0  0  0
  4  5  1  0  0  0  0
  5  6  1  0  0  0  0
  6  7  1  0  0  0  0
  7  9  1  0  0  0  0
  8  7  2  0  0  0  0
 10 11  2  0  0  0  0
 12 13  1  0  0  0  0
 12 10  1  0  0  0  0
 13 14  1  6  0  0  0
 16 17  1  0  0  0  0
 16 13  1  0  0  0  0
 17 15  2  0  0  0  0
 18 17  1  0  0  0  0
 19 23  1  0  0  0  0
 20 21  1  0  0  0  0
 20 24  1  0  0  0  0
 21 19  2  0  0  0  0
 23 18  1  1  0  0  0
 24 22  2  0  0  0  0
 24 23  1  0  0  0  0
 25 27  1  0  0  0  0
 25 21  1  0  0  0  0
 26 27  1  0  0  0  0
 28 30  1  0  0  0  0
 29 34  1  0  0  0  0
 29 35  1  0  0  0  0
 30 29  2  0  0  0  0
 31 33  1  0  0  0  0
 32 31  2  0  0  0  0
 32 30  1  0  0  0  0
 33 39  1  0  0  0  0
 33 34  2  0  0  0  0
 35 38  1  0  0  0  0
 35 36  1  1  0  0  0
 38 37  1  0  0  0  0
 39 45  1  0  0  0  0
 40 43  1  0  0  0  0
 41 45  1  0  0  0  0
 42 40  2  0  0  0  0
 44 49  1  1  0  0  0
 44 41  1  0  0  0  0
 44 40  1  0  0  0  0
 45 43  1  0  0  0  0
 45 46  1  1  0  0  0
 48 49  1  0  0  0  0
 49 47  1  0  0  0  0
M  END
>  <MODEL>
6

>  <REMARK>
 VINA RESULT:      -5.5      2.281      2.703
  Name = 
  19 active torsions:
  status: ('A' for Active; 'I' for Inactive)
    1  A    between atoms: C_2  and  O_7
    2  A    between atoms: C_2  and  N_35
    3  A    between atoms: C_3  and  C_12
    4  A    between atoms: S_4  and  C_27
    5  A    between atoms: S_4  and  C_32
    6  A    between atoms: O_7  and  C_10
    7  A    between atoms: C_8  and  C_46
    8  A    between atoms: C_9  and  C_25
    9  A    between atoms: C_9  and  C_43
   10  A    between atoms: C_10  and  C_24
   11  A    between atoms: C_12  and  C_36
   12  A    between atoms: N_14  and  C_25
   13  A    between atoms: C_24  and  C_43
   14  A    between atoms: C_24  and  C_46
   15  A    between atoms: C_28  and  S_41
   16  A    between atoms: CA_30  and  C_45
   17  A    between atoms: C_31  and  S_41
   18  A    between atoms: C_39  and  C_42
   19  A    between atoms: C_42  and  C_49
                            x       y       z     vdW  Elec       q    Type
                         _______ _______ _______ _____ _____    ______ ____

>  <TORSDO>
F 19

$$$$
=
 OpenBabel11042414113D

 49 51  0  0  1  0  0  0  0  0999 V2000
  192.8370  175.0060  145.3360 C   0  0  2  0  0  3  0  0  0  0  0  0
  193.0110  176.6320  143.6400 O   0  0  0  0  0  0  0  0  0  0  0  0
  192.2640  175.8680  144.2360 C   0  0  0  0  0  0  0  0  0  0  0  0
  190.8300  175.7510  143.8020 C   0  0  0  0  0  2  0  0  0  0  0  0
  190.7010  175.1120  142.4240 C   0  0  0  0  0  2  0  0  0  0  0  0
  190.0890  173.7960  142.5210 N   0  0  0  0  0  2  0  0  0  0  0  0
  188.7160  173.5600  142.1820 C   0  0  0  0  0  0  0  0  0  0  0  0
  188.0020  174.4810  141.7340 O   0  0  0  0  0  0  0  0  0  0  0  0
  188.1620  172.2980  142.3750 O   0  0  0  0  0  1  0  0  0  0  0  0
  193.0550  175.8090  146.5920 C   0  0  0  0  0  0  0  0  0  0  0  0
  194.1940  176.3290  146.7930 O   0  0  0  0  0  0  0  0  0  0  0  0
  192.0250  176.0300  147.5180 O   0  0  0  0  0  0  0  0  0  0  0  0
  191.3780  177.2850  147.7390 C   0  0  2  0  0  3  0  0  0  0  0  0
  191.4300  177.6530  149.2170 C   0  0  0  0  0  1  0  0  0  0  0  0
  189.7060  174.9380  147.6390 O   0  0  0  0  0  0  0  0  0  0  0  0
  189.9870  177.2280  147.3090 N   0  0  0  0  0  2  0  0  0  0  0  0
  189.2970  176.0050  147.1020 C   0  0  0  0  0  0  0  0  0  0  0  0
  188.0440  176.0180  146.2690 C   0  0  0  0  0  2  0  0  0  0  0  0
  187.0760  177.4320  144.5370 N   0  0  0  0  0  0  0  0  0  0  0  0
  185.3750  178.1950  145.8900 N   0  0  0  0  0  2  0  0  0  0  0  0
  185.8560  177.8820  144.5890 C   0  0  0  0  0  0  0  0  0  0  0  0
  186.5630  178.1380  147.9350 O   0  0  0  0  0  0  0  0  0  0  0  0
  187.6580  177.4360  145.8760 C   0  0  1  0  0  3  0  0  0  0  0  0
  186.5190  177.9170  146.6960 C   0  0  0  0  0  0  0  0  0  0  0  0
  184.8260  177.9920  143.1430 S   0  0  0  0  0  0  0  0  0  0  0  0
  186.3670  177.7530  140.9220 C   0  0  0  0  0  1  0  0  0  0  0  0
  186.1620  178.6600  142.1170 C   0  0  0  0  0  2  0  0  0  0  0  0
  194.1140  174.2420  144.9630 C   0  0  0  0  0  2  0  0  0  0  0  0
  194.4530  173.1050  142.6760 C   0  0  0  0  0  0  0  0  0  0  0  0
  193.9390  173.1050  143.9920 C   0  0  0  0  0  0  0  0  0  0  0  0
  192.7980  171.0060  143.5420 C   0  0  0  0  0  3  0  0  0  0  0  0
  193.0850  172.0700  144.3930 C   0  0  0  0  0  3  0  0  0  0  0  0
  193.3760  170.9500  142.2720 C   0  0  0  0  0  0  0  0  0  0  0  0
  194.1850  172.0070  141.8410 C   0  0  0  0  0  3  0  0  0  0  0  0
  195.1630  174.3070  142.1090 C   0  0  2  0  0  3  0  0  0  0  0  0
  194.3340  174.9910  141.0370 C   0  0  0  0  0  1  0  0  0  0  0  0
  197.5280  174.6420  142.4570 O   0  0  0  0  0  1  0  0  0  0  0  0
  196.5840  174.0500  141.6130 C   0  0  0  0  0  2  0  0  0  0  0  0
  192.9850  169.6050  141.1350 S   0  0  0  0  0  0  0  0  0  0  0  0
  190.5670  170.1160  138.6530 C   0  0  0  0  0  0  0  0  0  0  0  0
  191.0740  171.4180  140.5090 N   0  0  0  0  0  2  0  0  0  0  0  0
  190.5640  169.6090  137.1040 S   0  0  0  0  0  0  0  0  0  0  0  0
  190.7260  169.2210  139.7250 N   0  0  0  0  0  2  0  0  0  0  0  0
  191.0360  171.4550  139.0530 C   0  0  2  0  0  3  0  0  0  0  0  0
  191.2060  169.9950  140.8580 C   0  0  1  0  0  0  0  0  0  0  0  0
  190.4430  169.6960  141.9900 O   0  0  0  0  0  1  0  0  0  0  0  0
  188.8110  172.3670  138.7890 O   0  0  0  0  0  1  0  0  0  0  0  0
  190.5570  173.8030  139.1400 O   0  0  0  0  0  1  0  0  0  0  0  0
  190.1660  172.6000  138.5350 C   0  0  0  0  0  3  0  0  0  0  0  0
  1 28  1  6  0  0  0
  1 10  1  0  0  0  0
  2  3  2  0  0  0  0
  3  1  1  0  0  0  0
  4  3  1  0  0  0  0
  5  6  1  0  0  0  0
  5  4  1  0  0  0  0
  7  9  1  0  0  0  0
  7  6  1  0  0  0  0
  8  7  2  0  0  0  0
 10 11  2  0  0  0  0
 10 12  1  0  0  0  0
 12 13  1  0  0  0  0
 13 14  1  1  0  0  0
 16 13  1  0  0  0  0
 17 16  1  0  0  0  0
 17 15  2  0  0  0  0
 18 17  1  0  0  0  0
 19 21  2  0  0  0  0
 19 23  1  0  0  0  0
 20 24  1  0  0  0  0
 21 20  1  0  0  0  0
 23 18  1  1  0  0  0
 23 24  1  0  0  0  0
 24 22  2  0  0  0  0
 25 21  1  0  0  0  0
 26 27  1  0  0  0  0
 27 25  1  0  0  0  0
 29 30  1  0  0  0  0
 30 32  2  0  0  0  0
 30 28  1  0  0  0  0
 31 32  1  0  0  0  0
 33 31  2  0  0  0  0
 34 33  1  0  0  0  0
 34 29  2  0  0  0  0
 35 36  1  6  0  0  0
 35 29  1  0  0  0  0
 38 35  1  0  0  0  0
 38 37  1  0  0  0  0
 39 33  1  0  0  0  0
 40 44  1  0  0  0  0
 40 43  1  0  0  0  0
 41 45  1  0  0  0  0
 42 40  2  0  0  0  0
 43 45  1  0  0  0  0
 44 49  1  1  0  0  0
 44 41  1  0  0  0  0
 45 39  1  0  0  0  0
 45 46  1  1  0  0  0
 49 47  1  0  0  0  0
 49 48  1  0  0  0  0
M  END
>  <MODEL>
7

>  <REMARK>
 VINA RESULT:      -5.5      2.960      8.446
  Name = 
  19 active torsions:
  status: ('A' for Active; 'I' for Inactive)
    1  A    between atoms: C_2  and  O_7
    2  A    between atoms: C_2  and  N_35
    3  A    between atoms: C_3  and  C_12
    4  A    between atoms: S_4  and  C_27
    5  A    between atoms: S_4  and  C_32
    6  A    between atoms: O_7  and  C_10
    7  A    between atoms: C_8  and  C_46
    8  A    between atoms: C_9  and  C_25
    9  A    between atoms: C_9  and  C_43
   10  A    between atoms: C_10  and  C_24
   11  A    between atoms: C_12  and  C_36
   12  A    between atoms: N_14  and  C_25
   13  A    between atoms: C_24  and  C_43
   14  A    between atoms: C_24  and  C_46
   15  A    between atoms: C_28  and  S_41
   16  A    between atoms: CA_30  and  C_45
   17  A    between atoms: C_31  and  S_41
   18  A    between atoms: C_39  and  C_42
   19  A    between atoms: C_42  and  C_49
                            x       y       z     vdW  Elec       q    Type
                         _______ _______ _______ _____ _____    ______ ____

>  <TORSDO>
F 19

$$$$
=
 OpenBabel11042414113D

 49 51  0  0  1  0  0  0  0  0999 V2000
  188.2420  175.8700  143.1040 C   0  0  2  0  0  3  0  0  0  0  0  0
  185.9460  176.3420  142.8580 O   0  0  0  0  0  0  0  0  0  0  0  0
  186.9670  176.5830  143.4890 C   0  0  0  0  0  0  0  0  0  0  0  0
  186.9010  177.5100  144.6710 C   0  0  0  0  0  2  0  0  0  0  0  0
  187.0630  176.7630  145.9910 C   0  0  0  0  0  2  0  0  0  0  0  0
  188.3270  177.1060  146.6250 N   0  0  0  0  0  2  0  0  0  0  0  0
  189.3420  176.1300  146.8920 C   0  0  0  0  0  0  0  0  0  0  0  0
  189.1950  174.9430  146.5360 O   0  0  0  0  0  0  0  0  0  0  0  0
  190.4960  176.5010  147.5780 O   0  0  0  0  0  1  0  0  0  0  0  0
  189.2320  176.8270  142.4950 C   0  0  0  0  0  0  0  0  0  0  0  0
  188.8060  177.7330  141.7160 O   0  0  0  0  0  0  0  0  0  0  0  0
  190.6010  176.7700  142.7990 O   0  0  0  0  0  0  0  0  0  0  0  0
  191.1880  177.2200  144.0220 C   0  0  2  0  0  3  0  0  0  0  0  0
  190.8470  178.6860  144.2630 C   0  0  0  0  0  1  0  0  0  0  0  0
  192.7560  175.3450  145.5510 O   0  0  0  0  0  0  0  0  0  0  0  0
  192.6360  177.0660  143.9830 N   0  0  0  0  0  2  0  0  0  0  0  0
  193.3470  176.2580  144.9090 C   0  0  0  0  0  0  0  0  0  0  0  0
  194.8260  176.4840  145.0730 C   0  0  0  0  0  2  0  0  0  0  0  0
  194.7150  174.7900  143.3260 N   0  0  0  0  0  0  0  0  0  0  0  0
  195.7800  176.1060  141.7630 N   0  0  0  0  0  2  0  0  0  0  0  0
  194.8590  175.0650  142.0630 C   0  0  0  0  0  0  0  0  0  0  0  0
  197.1800  177.2870  143.2620 O   0  0  0  0  0  0  0  0  0  0  0  0
  195.6260  175.6160  144.1140 C   0  0  1  0  0  3  0  0  0  0  0  0
  196.2640  176.4450  143.0630 C   0  0  0  0  0  0  0  0  0  0  0  0
  193.8870  174.2670  140.8050 S   0  0  0  0  0  0  0  0  0  0  0  0
  194.5610  174.4730  138.1840 C   0  0  0  0  0  1  0  0  0  0  0  0
  194.6050  175.2650  139.4730 C   0  0  0  0  0  2  0  0  0  0  0  0
  188.0520  174.6490  142.1960 C   0  0  0  0  0  2  0  0  0  0  0  0
  189.7900  173.0550  141.1590 C   0  0  0  0  0  0  0  0  0  0  0  0
  189.1220  173.5930  142.2820 C   0  0  0  0  0  0  0  0  0  0  0  0
  190.2520  171.9900  143.7180 C   0  0  0  0  0  3  0  0  0  0  0  0
  189.3360  173.0240  143.5430 C   0  0  0  0  0  3  0  0  0  0  0  0
  190.9860  171.5140  142.6300 C   0  0  0  0  0  0  0  0  0  0  0  0
  190.7380  172.0370  141.3560 C   0  0  0  0  0  3  0  0  0  0  0  0
  189.4140  173.4510  139.7540 C   0  0  2  0  0  3  0  0  0  0  0  0
  188.2120  172.6690  139.2570 C   0  0  0  0  0  1  0  0  0  0  0  0
  190.1780  173.9990  137.5320 O   0  0  0  0  0  1  0  0  0  0  0  0
  190.5520  173.4000  138.7380 C   0  0  0  0  0  2  0  0  0  0  0  0
  192.1460  170.1450  142.8240 S   0  0  0  0  0  0  0  0  0  0  0  0
  195.5820  170.2580  143.4950 C   0  0  0  0  0  0  0  0  0  0  0  0
  193.7910  170.2030  144.9740 N   0  0  0  0  0  2  0  0  0  0  0  0
  196.8230  169.7200  142.5860 S   0  0  0  0  0  0  0  0  0  0  0  0
  194.6310  171.1630  142.9900 N   0  0  0  0  0  2  0  0  0  0  0  0
  194.9770  169.4570  144.5740 C   0  0  2  0  0  3  0  0  0  0  0  0
  193.4360  171.0220  143.8040 C   0  0  1  0  0  0  0  0  0  0  0  0
  192.9900  172.2830  144.2090 O   0  0  0  0  0  1  0  0  0  0  0  0
  196.5710  170.3670  146.1500 O   0  0  0  0  0  1  0  0  0  0  0  0
  195.1790  168.6870  146.8360 O   0  0  0  0  0  1  0  0  0  0  0  0
  195.9110  169.1990  145.7560 C   0  0  0  0  0  3  0  0  0  0  0  0
  1 28  1  6  0  0  0
  1  3  1  0  0  0  0
  2  3  2  0  0  0  0
  3  4  1  0  0  0  0
  4  5  1  0  0  0  0
  5  6  1  0  0  0  0
  6  7  1  0  0  0  0
  7  9  1  0  0  0  0
  8  7  2  0  0  0  0
 10 12  1  0  0  0  0
 10  1  1  0  0  0  0
 11 10  2  0  0  0  0
 12 13  1  0  0  0  0
 13 14  1  6  0  0  0
 16 13  1  0  0  0  0
 16 17  1  0  0  0  0
 17 18  1  0  0  0  0
 17 15  2  0  0  0  0
 19 23  1  0  0  0  0
 20 21  1  0  0  0  0
 20 24  1  0  0  0  0
 21 19  2  0  0  0  0
 23 18  1  1  0  0  0
 24 22  2  0  0  0  0
 24 23  1  0  0  0  0
 25 21  1  0  0  0  0
 26 27  1  0  0  0  0
 27 25  1  0  0  0  0
 28 30  1  0  0  0  0
 29 34  2  0  0  0  0
 29 30  1  0  0  0  0
 30 32  2  0  0  0  0
 32 31  1  0  0  0  0
 33 39  1  0  0  0  0
 33 31  2  0  0  0  0
 34 33  1  0  0  0  0
 35 36  1  6  0  0  0
 35 29  1  0  0  0  0
 37 38  1  0  0  0  0
 38 35  1  0  0  0  0
 39 45  1  0  0  0  0
 40 44  1  0  0  0  0
 42 40  2  0  0  0  0
 43 40  1  0  0  0  0
 43 45  1  0  0  0  0
 44 41  1  0  0  0  0
 44 49  1  1  0  0  0
 45 46  1  1  0  0  0
 45 41  1  0  0  0  0
 49 47  1  0  0  0  0
 49 48  1  0  0  0  0
M  END
>  <MODEL>
8

>  <REMARK>
 VINA RESULT:      -5.4      2.827      5.802
  Name = 
  19 active torsions:
  status: ('A' for Active; 'I' for Inactive)
    1  A    between atoms: C_2  and  O_7
    2  A    between atoms: C_2  and  N_35
    3  A    between atoms: C_3  and  C_12
    4  A    between atoms: S_4  and  C_27
    5  A    between atoms: S_4  and  C_32
    6  A    between atoms: O_7  and  C_10
    7  A    between atoms: C_8  and  C_46
    8  A    between atoms: C_9  and  C_25
    9  A    between atoms: C_9  and  C_43
   10  A    between atoms: C_10  and  C_24
   11  A    between atoms: C_12  and  C_36
   12  A    between atoms: N_14  and  C_25
   13  A    between atoms: C_24  and  C_43
   14  A    between atoms: C_24  and  C_46
   15  A    between atoms: C_28  and  S_41
   16  A    between atoms: CA_30  and  C_45
   17  A    between atoms: C_31  and  S_41
   18  A    between atoms: C_39  and  C_42
   19  A    between atoms: C_42  and  C_49
                            x       y       z     vdW  Elec       q    Type
                         _______ _______ _______ _____ _____    ______ ____

>  <TORSDO>
F 19

$$$$
=
 OpenBabel11042414113D

 49 51  0  0  1  0  0  0  0  0999 V2000
  193.2290  175.4290  143.6920 C   0  0  2  0  0  3  0  0  0  0  0  0
  194.4380  176.7970  145.1810 O   0  0  0  0  0  0  0  0  0  0  0  0
  194.5090  176.0000  144.2560 C   0  0  0  0  0  0  0  0  0  0  0  0
  195.8590  175.5540  143.7690 C   0  0  0  0  0  2  0  0  0  0  0  0
  196.3790  176.4370  142.6400 C   0  0  0  0  0  2  0  0  0  0  0  0
  195.5240  176.3310  141.4670 N   0  0  0  0  0  2  0  0  0  0  0  0
  195.7180  175.3270  140.4630 C   0  0  0  0  0  0  0  0  0  0  0  0
  196.6090  174.4630  140.5890 O   0  0  0  0  0  1  0  0  0  0  0  0
  194.9210  175.3260  139.3210 O   0  0  0  0  0  0  0  0  0  0  0  0
  192.0390  176.2480  144.1180 C   0  0  0  0  0  0  0  0  0  0  0  0
  191.7330  177.2770  143.4440 O   0  0  0  0  0  0  0  0  0  0  0  0
  191.2400  175.8780  145.2110 O   0  0  0  0  0  0  0  0  0  0  0  0
  191.2140  176.5520  146.4710 C   0  0  2  0  0  3  0  0  0  0  0  0
  191.7680  175.6460  147.5650 C   0  0  0  0  0  1  0  0  0  0  0  0
  188.9940  174.7810  146.9670 O   0  0  0  0  0  0  0  0  0  0  0  0
  189.8540  176.9420  146.8170 N   0  0  0  0  0  2  0  0  0  0  0  0
  188.7750  176.0190  146.8500 C   0  0  0  0  0  0  0  0  0  0  0  0
  187.3700  176.5530  146.7910 C   0  0  0  0  0  2  0  0  0  0  0  0
  187.3840  177.3130  144.4760 N   0  0  0  0  0  0  0  0  0  0  0  0
  185.2850  178.2540  144.6070 N   0  0  0  0  0  2  0  0  0  0  0  0
  186.3020  177.6360  143.8290 C   0  0  0  0  0  0  0  0  0  0  0  0
  185.3810  178.8980  146.8820 O   0  0  0  0  0  0  0  0  0  0  0  0
  187.2750  177.7560  145.8640 C   0  0  1  0  0  3  0  0  0  0  0  0
  185.9090  178.3320  145.8890 C   0  0  0  0  0  0  0  0  0  0  0  0
  186.0700  177.2280  142.1140 S   0  0  0  0  0  0  0  0  0  0  0  0
  184.1420  178.2910  140.5270 C   0  0  0  0  0  1  0  0  0  0  0  0
  184.5480  178.2030  141.9830 C   0  0  0  0  0  2  0  0  0  0  0  0
  192.9920  173.9440  143.9960 C   0  0  0  0  0  2  0  0  0  0  0  0
  191.0240  172.8920  142.7100 C   0  0  0  0  0  0  0  0  0  0  0  0
  192.4070  173.1290  142.8740 C   0  0  0  0  0  0  0  0  0  0  0  0
  192.8810  171.6150  141.0310 C   0  0  0  0  0  3  0  0  0  0  0  0
  193.3190  172.4540  142.0530 C   0  0  0  0  0  3  0  0  0  0  0  0
  191.5140  171.4480  140.8010 C   0  0  0  0  0  0  0  0  0  0  0  0
  190.5950  172.0720  141.6520 C   0  0  0  0  0  3  0  0  0  0  0  0
  190.0160  173.3840  143.7170 C   0  0  2  0  0  3  0  0  0  0  0  0
  189.5540  172.2680  144.6360 C   0  0  0  0  0  1  0  0  0  0  0  0
  189.2390  175.1480  142.2650 O   0  0  0  0  0  1  0  0  0  0  0  0
  188.8220  174.1320  143.1290 C   0  0  0  0  0  2  0  0  0  0  0  0
  190.9220  170.3330  139.5120 S   0  0  0  0  0  0  0  0  0  0  0  0
  190.7770  171.5030  136.2140 C   0  0  0  0  0  0  0  0  0  0  0  0
  191.0690  172.6910  138.1890 N   0  0  0  0  0  2  0  0  0  0  0  0
  191.1620  170.7270  134.8330 S   0  0  0  0  0  0  0  0  0  0  0  0
  189.8510  170.9720  137.1280 N   0  0  0  0  0  2  0  0  0  0  0  0
  191.7220  172.3840  136.9220 C   0  0  2  0  0  3  0  0  0  0  0  0
  190.1280  171.5840  138.4180 C   0  0  1  0  0  0  0  0  0  0  0  0
  188.9400  172.0610  138.9770 O   0  0  0  0  0  1  0  0  0  0  0  0
  191.9220  174.7950  136.9390 O   0  0  0  0  0  1  0  0  0  0  0  0
  193.4200  173.5730  135.7160 O   0  0  0  0  0  1  0  0  0  0  0  0
  192.0900  173.6520  136.1510 C   0  0  0  0  0  3  0  0  0  0  0  0
  1 28  1  1  0  0  0
  1 10  1  0  0  0  0
  1  3  1  0  0  0  0
  3  2  2  0  0  0  0
  4  3  1  0  0  0  0
  5  4  1  0  0  0  0
  6  5  1  0  0  0  0
  7  8  1  0  0  0  0
  7  6  1  0  0  0  0
  9  7  2  0  0  0  0
 10 12  1  0  0  0  0
 11 10  2  0  0  0  0
 12 13  1  0  0  0  0
 13 16  1  0  0  0  0
 13 14  1  1  0  0  0
 16 17  1  0  0  0  0
 17 15  2  0  0  0  0
 18 17  1  0  0  0  0
 19 23  1  0  0  0  0
 20 24  1  0  0  0  0
 21 19  2  0  0  0  0
 21 20  1  0  0  0  0
 23 24  1  0  0  0  0
 23 18  1  1  0  0  0
 24 22  2  0  0  0  0
 25 21  1  0  0  0  0
 26 27  1  0  0  0  0
 27 25  1  0  0  0  0
 29 30  1  0  0  0  0
 29 35  1  0  0  0  0
 30 28  1  0  0  0  0
 31 32  1  0  0  0  0
 32 30  2  0  0  0  0
 33 31  2  0  0  0  0
 33 34  1  0  0  0  0
 34 29  2  0  0  0  0
 35 36  1  6  0  0  0
 37 38  1  0  0  0  0
 38 35  1  0  0  0  0
 39 33  1  0  0  0  0
 40 44  1  0  0  0  0
 40 43  1  0  0  0  0
 41 45  1  0  0  0  0
 42 40  2  0  0  0  0
 43 45  1  0  0  0  0
 44 49  1  6  0  0  0
 44 41  1  0  0  0  0
 45 46  1  1  0  0  0
 45 39  1  0  0  0  0
 48 49  1  0  0  0  0
 49 47  1  0  0  0  0
M  END
>  <MODEL>
9

>  <REMARK>
 VINA RESULT:      -5.4      2.746      8.849
  Name = 
  19 active torsions:
  status: ('A' for Active; 'I' for Inactive)
    1  A    between atoms: C_2  and  O_7
    2  A    between atoms: C_2  and  N_35
    3  A    between atoms: C_3  and  C_12
    4  A    between atoms: S_4  and  C_27
    5  A    between atoms: S_4  and  C_32
    6  A    between atoms: O_7  and  C_10
    7  A    between atoms: C_8  and  C_46
    8  A    between atoms: C_9  and  C_25
    9  A    between atoms: C_9  and  C_43
   10  A    between atoms: C_10  and  C_24
   11  A    between atoms: C_12  and  C_36
   12  A    between atoms: N_14  and  C_25
   13  A    between atoms: C_24  and  C_43
   14  A    between atoms: C_24  and  C_46
   15  A    between atoms: C_28  and  S_41
   16  A    between atoms: CA_30  and  C_45
   17  A    between atoms: C_31  and  S_41
   18  A    between atoms: C_39  and  C_42
   19  A    between atoms: C_42  and  C_49
                            x       y       z     vdW  Elec       q    Type
                         _______ _______ _______ _____ _____    ______ ____

>  <TORSDO>
F 19

$$$$
