=
 OpenBabel11042417413D

 54 62  0  0  1  0  0  0  0  0999 V2000
  190.5230  174.8020  144.3290 C   0  0  2  0  0  3  0  0  0  0  0  0
  188.2340  175.8810  141.4960 C   0  0  0  0  0  3  0  0  0  0  0  0
  189.7480  171.1580  137.9350 C   0  0  0  0  0  3  0  0  0  0  0  0
  188.7780  173.7820  137.7010 N   0  0  0  0  0  0  0  0  0  0  0  0
  189.3030  173.1550  136.6820 C   0  0  0  0  0  3  0  0  0  0  0  0
  189.3290  171.9040  139.1170 C   0  0  2  0  0  3  0  0  0  0  0  0
  188.4350  173.0780  138.9410 C   0  0  1  0  0  3  0  0  0  0  0  0
  188.1300  175.1050  140.4620 N   0  0  0  0  0  0  0  0  0  0  0  0
  188.7550  173.8580  140.1690 C   0  0  1  0  0  3  0  0  0  0  0  0
  189.8290  174.6870  143.0100 C   0  0  0  0  0  0  0  0  0  0  0  0
  189.6980  171.7690  136.7850 N   0  0  0  0  0  0  0  0  0  0  0  0
  189.5810  173.1610  140.9360 C   0  0  0  0  0  0  0  0  0  0  0  0
  189.9990  171.9400  140.2570 C   0  0  0  0  0  3  0  0  0  0  0  0
  189.0390  175.6540  142.6600 N   0  0  0  0  0  0  0  0  0  0  0  0
  190.0910  173.5310  142.2110 N   0  0  0  0  0  2  0  0  0  0  0  0
  192.7560  174.2100  145.1990 O   0  0  0  0  0  0  0  0  0  0  0  0
  192.6930  176.1630  143.8710 C   0  0  2  0  0  3  0  0  0  0  0  0
  192.0460  174.7990  144.1250 C   0  0  2  0  0  3  0  0  0  0  0  0
  194.1040  175.7230  144.0450 C   0  0  0  0  0  2  0  0  0  0  0  0
  193.3380  176.2990  146.1830 C   0  0  0  0  0  2  0  0  0  0  0  0
  192.5170  177.0320  145.1230 C   0  0  0  0  0  2  0  0  0  0  0  0
  193.8350  175.1030  145.3880 C   0  0  1  0  0  0  0  0  0  0  0  0
  195.0440  174.4360  146.0320 C   0  0  0  0  0  2  0  0  0  0  0  0
  196.1780  174.2520  145.0310 C   0  0  0  0  0  2  0  0  0  0  0  0
  196.1390  171.5440  142.1240 C   0  0  1  0  0  0  0  0  0  0  0  0
  196.0030  172.7370  142.9870 N   0  0  0  0  0  0  0  0  0  0  0  0
  193.6870  172.0020  142.3600 C   0  0  0  0  0  1  0  0  0  0  0  0
  195.0660  172.4320  141.8560 C   0  0  2  0  0  0  0  0  0  0  0  0
  195.7550  170.4500  144.3740 C   0  0  0  0  0  0  0  0  0  0  0  0
  196.1000  172.9160  144.3790 C   0  0  0  0  0  0  0  0  0  0  0  0
  195.5270  171.5600  140.8810 O   0  0  0  0  0  0  0  0  0  0  0  0
  195.8160  170.3500  143.0080 C   0  0  0  0  0  3  0  0  0  0  0  0
  195.9620  171.7810  145.0770 C   0  0  0  0  0  3  0  0  0  0  0  0
  196.8070  168.3410  145.2850 C   0  0  0  0  0  2  0  0  0  0  0  0
  195.5250  169.1980  145.2060 C   0  0  0  0  0  0  0  0  0  0  0  0
  197.6970  168.7620  146.4540 C   0  0  0  0  0  2  0  0  0  0  0  0
  196.9890  168.5550  147.7990 C   0  0  0  0  0  2  0  0  0  0  0  0
  195.0030  169.5670  146.6170 C   0  0  0  0  0  2  0  0  0  0  0  0
  194.4640  168.3600  144.5150 C   0  0  0  0  0  1  0  0  0  0  0  0
  195.4590  168.5840  147.6940 C   0  0  0  0  0  2  0  0  0  0  0  0
  190.0350  173.7110  145.2750 C   0  0  0  0  0  2  0  0  0  0  0  0
  189.6020  174.3230  146.5910 C   0  0  0  0  0  2  0  0  0  0  0  0
  189.2960  175.7920  146.3790 C   0  0  0  0  0  2  0  0  0  0  0  0
  187.8250  176.0710  146.6430 C   0  0  0  0  0  2  0  0  0  0  0  0
  187.4660  177.5290  146.3510 C   0  0  1  0  0  3  0  0  0  0  0  0
  187.7330  177.8590  144.8890 C   0  0  0  0  0  1  0  0  0  0  0  0
  186.0320  177.9060  146.7780 C   0  0  1  0  0  0  0  0  0  0  0  0
  185.0930  176.7300  146.5660 C   0  0  0  0  0  1  0  0  0  0  0  0
  186.0400  178.1990  148.1410 O   0  0  0  0  0  1  0  0  0  0  0  0
  185.4970  179.1360  146.0350 C   0  0  0  0  0  2  0  0  0  0  0  0
  184.2040  178.9280  145.5490 O   0  0  0  0  0  0  0  0  0  0  0  0
  184.4370  178.1960  143.4040 O   0  0  0  0  0  1  0  0  0  0  0  0
  184.2600  179.3190  144.2100 C   0  0  0  0  0  3  0  0  0  0  0  0
  185.3220  180.2030  144.0220 O   0  0  0  0  0  1  0  0  0  0  0  0
  1 41  1  1  0  0  0
  2 14  1  0  0  0  0
  5 11  1  0  0  0  0
  5  4  2  0  0  0  0
  6  3  1  6  0  0  0
  6 13  1  0  0  0  0
  7  4  1  6  0  0  0
  7  6  1  0  0  0  0
  7  9  1  0  0  0  0
  8  2  2  0  0  0  0
  9  8  1  1  0  0  0
  9 12  1  0  0  0  0
 10  1  1  0  0  0  0
 11  3  2  0  0  0  0
 12 15  1  0  0  0  0
 13 12  2  0  0  0  0
 14 10  2  0  0  0  0
 15 10  1  0  0  0  0
 16 22  1  0  0  0  0
 17 19  1  1  0  0  0
 17 18  1  0  0  0  0
 17 21  1  0  0  0  0
 18  1  1  1  0  0  0
 18 16  1  0  0  0  0
 19 22  1  0  0  0  0
 21 20  1  0  0  0  0
 22 23  1  1  0  0  0
 22 20  1  0  0  0  0
 24 23  1  0  0  0  0
 25 26  1  0  0  0  0
 25 32  1  1  0  0  0
 26 30  1  0  0  0  0
 28 25  1  0  0  0  0
 28 27  1  1  0  0  0
 28 26  1  0  0  0  0
 29 33  1  0  0  0  0
 29 35  1  0  0  0  0
 30 24  1  0  0  0  0
 30 33  2  0  0  0  0
 31 28  1  0  0  0  0
 31 25  1  0  0  0  0
 32 29  2  0  0  0  0
 34 36  1  0  0  0  0
 35 34  1  0  0  0  0
 35 38  1  0  0  0  0
 36 37  1  0  0  0  0
 38 40  1  0  0  0  0
 39 35  1  0  0  0  0
 40 37  1  0  0  0  0
 41 42  1  0  0  0  0
 43 42  1  0  0  0  0
 43 44  1  0  0  0  0
 45 46  1  6  0  0  0
 45 44  1  0  0  0  0
 45 47  1  0  0  0  0
 47 48  1  6  0  0  0
 47 49  1  0  0  0  0
 50 47  1  0  0  0  0
 51 50  1  0  0  0  0
 52 53  1  0  0  0  0
 53 51  1  0  0  0  0
 54 53  1  0  0  0  0
M  END
>  <MODEL>
1

>  <REMARK>
 VINA RESULT:      -8.2      0.000      0.000
  Name = 
  15 active torsions:
  status: ('A' for Active; 'I' for Inactive)
    1  A    between atoms: C_7  and  C_20
    2  A    between atoms: C_7  and  O_46
    3  A    between atoms: C_15  and  C_17
    4  A    between atoms: C_15  and  C_28
    5  A    between atoms: C_15  and  C_37
    6  A    between atoms: C_18  and  C_36
    7  A    between atoms: C_18  and  C_41
    8  A    between atoms: C_19  and  C_26
    9  A    between atoms: C_20  and  C_24
   10  A    between atoms: C_21  and  O_46
   11  A    between atoms: C_24  and  C_36
   12  A    between atoms: C_28  and  C_41
   13  A    between atoms: C_31  and  C_50
   14  A    between atoms: C_35  and  C_48
   15  A    between atoms: C_48  and  C_50
                            x       y       z     vdW  Elec       q    Type
                         _______ _______ _______ _____ _____    ______ ____

>  <TORSDO>
F 15

$$$$
=
 OpenBabel11042417413D

 54 62  0  0  1  0  0  0  0  0999 V2000
  189.9940  175.1080  142.2160 C   0  0  2  0  0  3  0  0  0  0  0  0
  189.8490  173.2170  138.9240 C   0  0  0  0  0  3  0  0  0  0  0  0
  195.6090  171.2360  139.3430 C   0  0  0  0  0  3  0  0  0  0  0  0
  193.6770  171.7800  137.3800 N   0  0  0  0  0  0  0  0  0  0  0  0
  194.9440  171.6720  137.0800 C   0  0  0  0  0  3  0  0  0  0  0  0
  194.2290  171.5280  139.7190 C   0  0  2  0  0  3  0  0  0  0  0  0
  193.1640  171.3770  138.6940 C   0  0  1  0  0  3  0  0  0  0  0  0
  190.8790  172.5100  138.5770 N   0  0  0  0  0  0  0  0  0  0  0  0
  192.1290  172.3040  139.2310 C   0  0  1  0  0  3  0  0  0  0  0  0
  190.4910  174.2060  141.1320 C   0  0  0  0  0  0  0  0  0  0  0  0
  195.9140  171.2840  138.0780 N   0  0  0  0  0  0  0  0  0  0  0  0
  192.5180  172.7710  140.4080 C   0  0  0  0  0  0  0  0  0  0  0  0
  193.8750  172.3300  140.7080 C   0  0  0  0  0  3  0  0  0  0  0  0
  189.7080  173.9970  140.1190 N   0  0  0  0  0  0  0  0  0  0  0  0
  191.7990  173.6460  141.2690 N   0  0  0  0  0  2  0  0  0  0  0  0
  191.3940  175.2470  144.2450 O   0  0  0  0  0  0  0  0  0  0  0  0
  191.1300  177.2850  143.0780 C   0  0  2  0  0  3  0  0  0  0  0  0
  191.1810  175.7600  142.9430 C   0  0  2  0  0  3  0  0  0  0  0  0
  192.2420  177.4110  144.0580 C   0  0  0  0  0  2  0  0  0  0  0  0
  190.3020  177.0670  145.3250 C   0  0  0  0  0  2  0  0  0  0  0  0
  189.9360  177.6600  143.9660 C   0  0  0  0  0  2  0  0  0  0  0  0
  191.6360  176.4140  145.0060 C   0  0  1  0  0  0  0  0  0  0  0  0
  192.4660  176.1390  146.2540 C   0  0  0  0  0  2  0  0  0  0  0  0
  193.8440  176.7820  146.1600 C   0  0  0  0  0  2  0  0  0  0  0  0
  196.8150  175.6850  143.7610 C   0  0  1  0  0  0  0  0  0  0  0  0
  195.6570  176.3180  144.4270 N   0  0  0  0  0  0  0  0  0  0  0  0
  194.8610  175.4540  142.2100 C   0  0  0  0  0  1  0  0  0  0  0  0
  195.8650  176.3460  142.9410 C   0  0  2  0  0  0  0  0  0  0  0  0
  195.7200  173.6620  144.8160 C   0  0  0  0  0  0  0  0  0  0  0  0
  194.8020  175.8860  145.4570 C   0  0  0  0  0  0  0  0  0  0  0  0
  197.1540  176.1120  142.4870 O   0  0  0  0  0  0  0  0  0  0  0  0
  196.6270  174.1860  143.9310 C   0  0  0  0  0  3  0  0  0  0  0  0
  194.8180  174.5600  145.6460 C   0  0  0  0  0  3  0  0  0  0  0  0
  194.3090  171.7380  145.6490 C   0  0  0  0  0  2  0  0  0  0  0  0
  195.6510  172.1550  145.0090 C   0  0  0  0  0  0  0  0  0  0  0  0
  193.2320  171.4930  144.5920 C   0  0  0  0  0  2  0  0  0  0  0  0
  193.6130  170.3340  143.6620 C   0  0  0  0  0  2  0  0  0  0  0  0
  195.8900  171.4200  143.6660 C   0  0  0  0  0  2  0  0  0  0  0  0
  196.7530  171.7500  145.9710 C   0  0  0  0  0  1  0  0  0  0  0  0
  195.1260  170.1010  143.5670 C   0  0  0  0  0  2  0  0  0  0  0  0
  189.0600  174.3430  143.1460 C   0  0  0  0  0  2  0  0  0  0  0  0
  187.6480  174.3740  142.5990 C   0  0  0  0  0  2  0  0  0  0  0  0
  187.2720  175.8060  142.2760 C   0  0  0  0  0  2  0  0  0  0  0  0
  186.2530  176.3260  143.2780 C   0  0  0  0  0  2  0  0  0  0  0  0
  186.3810  177.8370  143.4800 C   0  0  1  0  0  3  0  0  0  0  0  0
  186.8310  178.5090  142.1900 C   0  0  0  0  0  1  0  0  0  0  0  0
  185.1080  178.4900  144.0590 C   0  0  1  0  0  0  0  0  0  0  0  0
  185.3060  179.9890  144.2060 C   0  0  0  0  0  1  0  0  0  0  0  0
  184.0620  178.2900  143.1590 O   0  0  0  0  0  1  0  0  0  0  0  0
  184.6930  177.8860  145.4060 C   0  0  0  0  0  2  0  0  0  0  0  0
  184.6060  178.8580  146.4060 O   0  0  0  0  0  0  0  0  0  0  0  0
  186.4020  179.0670  147.7930 O   0  0  0  0  0  1  0  0  0  0  0  0
  185.2730  178.3040  147.4990 C   0  0  0  0  0  3  0  0  0  0  0  0
  185.6570  176.9960  147.2020 O   0  0  0  0  0  1  0  0  0  0  0  0
  1 41  1  1  0  0  0
  2 14  1  0  0  0  0
  5  4  2  0  0  0  0
  5 11  1  0  0  0  0
  6  3  1  6  0  0  0
  6 13  1  0  0  0  0
  7  4  1  6  0  0  0
  7  9  1  0  0  0  0
  7  6  1  0  0  0  0
  8  2  2  0  0  0  0
  9  8  1  1  0  0  0
  9 12  1  0  0  0  0
 10 15  1  0  0  0  0
 10  1  1  0  0  0  0
 11  3  2  0  0  0  0
 12 13  2  0  0  0  0
 12 15  1  0  0  0  0
 14 10  2  0  0  0  0
 16 22  1  0  0  0  0
 17 21  1  1  0  0  0
 17 19  1  0  0  0  0
 18  1  1  1  0  0  0
 18 17  1  0  0  0  0
 18 16  1  0  0  0  0
 19 22  1  0  0  0  0
 21 20  1  0  0  0  0
 22 20  1  0  0  0  0
 22 23  1  1  0  0  0
 24 23  1  0  0  0  0
 25 32  1  6  0  0  0
 25 26  1  0  0  0  0
 26 30  1  0  0  0  0
 28 27  1  6  0  0  0
 28 25  1  0  0  0  0
 28 26  1  0  0  0  0
 29 35  1  0  0  0  0
 29 33  1  0  0  0  0
 30 33  2  0  0  0  0
 30 24  1  0  0  0  0
 31 28  1  0  0  0  0
 31 25  1  0  0  0  0
 32 29  2  0  0  0  0
 35 34  1  0  0  0  0
 35 39  1  0  0  0  0
 36 34  1  0  0  0  0
 37 36  1  0  0  0  0
 38 35  1  0  0  0  0
 40 37  1  0  0  0  0
 40 38  1  0  0  0  0
 42 41  1  0  0  0  0
 43 42  1  0  0  0  0
 43 44  1  0  0  0  0
 44 45  1  0  0  0  0
 45 46  1  6  0  0  0
 45 47  1  0  0  0  0
 47 48  1  1  0  0  0
 47 50  1  0  0  0  0
 49 47  1  0  0  0  0
 50 51  1  0  0  0  0
 51 53  1  0  0  0  0
 53 52  1  0  0  0  0
 54 53  1  0  0  0  0
M  END
>  <MODEL>
2

>  <REMARK>
 VINA RESULT:      -8.1      2.194      3.905
  Name = 
  15 active torsions:
  status: ('A' for Active; 'I' for Inactive)
    1  A    between atoms: C_7  and  C_20
    2  A    between atoms: C_7  and  O_46
    3  A    between atoms: C_15  and  C_17
    4  A    between atoms: C_15  and  C_28
    5  A    between atoms: C_15  and  C_37
    6  A    between atoms: C_18  and  C_36
    7  A    between atoms: C_18  and  C_41
    8  A    between atoms: C_19  and  C_26
    9  A    between atoms: C_20  and  C_24
   10  A    between atoms: C_21  and  O_46
   11  A    between atoms: C_24  and  C_36
   12  A    between atoms: C_28  and  C_41
   13  A    between atoms: C_31  and  C_50
   14  A    between atoms: C_35  and  C_48
   15  A    between atoms: C_48  and  C_50
                            x       y       z     vdW  Elec       q    Type
                         _______ _______ _______ _____ _____    ______ ____

>  <TORSDO>
F 15

$$$$
=
 OpenBabel11042417413D

 54 62  0  0  1  0  0  0  0  0999 V2000
  188.6440  174.1690  141.2330 C   0  0  2  0  0  3  0  0  0  0  0  0
  186.8290  177.4990  141.0090 C   0  0  0  0  0  3  0  0  0  0  0  0
  186.0860  177.9580  147.0520 C   0  0  0  0  0  3  0  0  0  0  0  0
  184.8870  178.8620  144.6800 N   0  0  0  0  0  0  0  0  0  0  0  0
  184.2520  178.8950  145.8220 C   0  0  0  0  0  3  0  0  0  0  0  0
  186.7390  177.7510  145.7640 C   0  0  2  0  0  3  0  0  0  0  0  0
  186.3280  178.5950  144.6120 C   0  0  1  0  0  3  0  0  0  0  0  0
  186.5070  178.0970  142.1140 N   0  0  0  0  0  0  0  0  0  0  0  0
  186.7090  177.7140  143.4720 C   0  0  1  0  0  3  0  0  0  0  0  0
  187.9840  175.4070  141.7510 C   0  0  0  0  0  0  0  0  0  0  0  0
  184.9160  178.5310  147.0520 N   0  0  0  0  0  0  0  0  0  0  0  0
  187.3360  176.6410  143.9310 C   0  0  0  0  0  0  0  0  0  0  0  0
  187.3150  176.6220  145.3880 C   0  0  0  0  0  3  0  0  0  0  0  0
  187.5120  176.2450  140.8820 N   0  0  0  0  0  0  0  0  0  0  0  0
  187.8990  175.5800  143.1680 N   0  0  0  0  0  2  0  0  0  0  0  0
  191.0900  173.9060  141.0290 O   0  0  0  0  0  0  0  0  0  0  0  0
  190.1110  172.7290  142.8290 C   0  0  2  0  0  3  0  0  0  0  0  0
  189.9990  173.9630  141.9290 C   0  0  2  0  0  3  0  0  0  0  0  0
  191.5870  172.7760  143.0080 C   0  0  0  0  0  2  0  0  0  0  0  0
  191.2120  171.5280  141.0610 C   0  0  0  0  0  2  0  0  0  0  0  0
  189.9780  171.4720  141.9590 C   0  0  0  0  0  2  0  0  0  0  0  0
  191.8520  172.8250  141.5280 C   0  0  1  0  0  0  0  0  0  0  0  0
  193.3240  172.9200  141.1500 C   0  0  0  0  0  2  0  0  0  0  0  0
  193.6940  174.3280  140.6970 C   0  0  0  0  0  2  0  0  0  0  0  0
  196.4960  176.3010  142.7060 C   0  0  1  0  0  0  0  0  0  0  0  0
  195.7040  175.3900  141.8540 N   0  0  0  0  0  0  0  0  0  0  0  0
  196.8440  173.9820  143.5890 C   0  0  0  0  0  1  0  0  0  0  0  0
  197.0180  175.0040  142.4650 C   0  0  2  0  0  0  0  0  0  0  0  0
  194.3840  176.0900  144.0860 C   0  0  0  0  0  0  0  0  0  0  0  0
  194.3300  175.0920  141.8060 C   0  0  0  0  0  0  0  0  0  0  0  0
  197.8480  176.0400  142.8670 O   0  0  0  0  0  0  0  0  0  0  0  0
  195.6980  176.4740  143.9890 C   0  0  0  0  0  3  0  0  0  0  0  0
  193.6690  175.4250  142.9220 C   0  0  0  0  0  3  0  0  0  0  0  0
  192.3100  177.1510  145.0630 C   0  0  0  0  0  2  0  0  0  0  0  0
  193.6140  176.3810  145.3640 C   0  0  0  0  0  0  0  0  0  0  0  0
  191.1490  176.2020  144.7680 C   0  0  0  0  0  2  0  0  0  0  0  0
  190.8260  175.3180  145.9800 C   0  0  0  0  0  2  0  0  0  0  0  0
  193.3320  175.0720  146.1420 C   0  0  0  0  0  2  0  0  0  0  0  0
  194.4730  177.2750  146.2410 C   0  0  0  0  0  1  0  0  0  0  0  0
  192.0190  175.1160  146.9220 C   0  0  0  0  0  2  0  0  0  0  0  0
  188.7450  174.2280  139.7140 C   0  0  0  0  0  2  0  0  0  0  0  0
  188.3990  172.8780  139.1190 C   0  0  0  0  0  2  0  0  0  0  0  0
  189.3780  172.5600  138.0060 C   0  0  0  0  0  2  0  0  0  0  0  0
  190.1960  173.7920  137.6510 C   0  0  0  0  0  2  0  0  0  0  0  0
  191.6830  173.4600  137.5140 C   0  0  1  0  0  3  0  0  0  0  0  0
  191.8910  171.9520  137.4920 C   0  0  0  0  0  1  0  0  0  0  0  0
  192.3600  174.1560  136.3150 C   0  0  1  0  0  0  0  0  0  0  0  0
  191.9160  173.5100  135.0120 C   0  0  0  0  0  1  0  0  0  0  0  0
  191.9460  175.4880  136.2870 O   0  0  0  0  0  1  0  0  0  0  0  0
  193.8900  174.1400  136.4060 C   0  0  0  0  0  2  0  0  0  0  0  0
  194.3600  174.9850  137.4150 O   0  0  0  0  0  0  0  0  0  0  0  0
  196.3430  175.3490  138.4760 O   0  0  0  0  0  1  0  0  0  0  0  0
  195.7480  174.9710  137.2740 C   0  0  0  0  0  3  0  0  0  0  0  0
  196.1270  175.8570  136.2650 O   0  0  0  0  0  1  0  0  0  0  0  0
  1 41  1  6  0  0  0
  1 10  1  0  0  0  0
  2  8  2  0  0  0  0
  4  5  2  0  0  0  0
  5 11  1  0  0  0  0
  6 13  1  6  0  0  0
  6  3  1  0  0  0  0
  7  4  1  1  0  0  0
  7  6  1  0  0  0  0
  9  8  1  6  0  0  0
  9 12  1  0  0  0  0
  9  7  1  0  0  0  0
 10 15  1  0  0  0  0
 11  3  2  0  0  0  0
 12 13  2  0  0  0  0
 14  2  1  0  0  0  0
 14 10  2  0  0  0  0
 15 12  1  0  0  0  0
 16 22  1  0  0  0  0
 16 18  1  0  0  0  0
 17 21  1  6  0  0  0
 17 19  1  0  0  0  0
 18  1  1  6  0  0  0
 18 17  1  0  0  0  0
 20 22  1  0  0  0  0
 20 21  1  0  0  0  0
 22 23  1  6  0  0  0
 22 19  1  0  0  0  0
 24 23  1  0  0  0  0
 24 30  1  0  0  0  0
 25 31  1  0  0  0  0
 25 32  1  1  0  0  0
 26 28  1  0  0  0  0
 26 25  1  0  0  0  0
 28 25  1  0  0  0  0
 28 31  1  0  0  0  0
 28 27  1  1  0  0  0
 29 35  1  0  0  0  0
 30 26  1  0  0  0  0
 30 33  2  0  0  0  0
 32 29  2  0  0  0  0
 33 29  1  0  0  0  0
 34 35  1  0  0  0  0
 35 38  1  0  0  0  0
 35 39  1  0  0  0  0
 36 34  1  0  0  0  0
 36 37  1  0  0  0  0
 37 40  1  0  0  0  0
 38 40  1  0  0  0  0
 42 41  1  0  0  0  0
 43 42  1  0  0  0  0
 44 43  1  0  0  0  0
 45 46  1  6  0  0  0
 45 44  1  0  0  0  0
 47 48  1  6  0  0  0
 47 50  1  0  0  0  0
 47 45  1  0  0  0  0
 49 47  1  0  0  0  0
 50 51  1  0  0  0  0
 53 51  1  0  0  0  0
 53 52  1  0  0  0  0
 54 53  1  0  0  0  0
M  END
>  <MODEL>
3

>  <REMARK>
 VINA RESULT:      -8.0      3.894      8.369
  Name = 
  15 active torsions:
  status: ('A' for Active; 'I' for Inactive)
    1  A    between atoms: C_7  and  C_20
    2  A    between atoms: C_7  and  O_46
    3  A    between atoms: C_15  and  C_17
    4  A    between atoms: C_15  and  C_28
    5  A    between atoms: C_15  and  C_37
    6  A    between atoms: C_18  and  C_36
    7  A    between atoms: C_18  and  C_41
    8  A    between atoms: C_19  and  C_26
    9  A    between atoms: C_20  and  C_24
   10  A    between atoms: C_21  and  O_46
   11  A    between atoms: C_24  and  C_36
   12  A    between atoms: C_28  and  C_41
   13  A    between atoms: C_31  and  C_50
   14  A    between atoms: C_35  and  C_48
   15  A    between atoms: C_48  and  C_50
                            x       y       z     vdW  Elec       q    Type
                         _______ _______ _______ _____ _____    ______ ____

>  <TORSDO>
F 15

$$$$
=
 OpenBabel11042417413D

 54 62  0  0  1  0  0  0  0  0999 V2000
  191.1280  172.7110  141.1250 C   0  0  2  0  0  3  0  0  0  0  0  0
  193.2420  171.1120  138.4030 C   0  0  0  0  0  3  0  0  0  0  0  0
  197.6250  175.3480  138.7580 C   0  0  0  0  0  3  0  0  0  0  0  0
  196.5650  173.5250  136.9050 N   0  0  0  0  0  0  0  0  0  0  0  0
  197.3110  174.5280  136.5260 C   0  0  0  0  0  3  0  0  0  0  0  0
  196.6530  174.3430  139.1770 C   0  0  2  0  0  3  0  0  0  0  0  0
  196.4480  173.1480  138.3180 C   0  0  1  0  0  3  0  0  0  0  0  0
  194.4010  171.6320  138.1420 N   0  0  0  0  0  0  0  0  0  0  0  0
  195.0650  172.7590  138.7110 C   0  0  1  0  0  3  0  0  0  0  0  0
  192.3240  172.5370  140.2450 C   0  0  0  0  0  0  0  0  0  0  0  0
  197.9410  175.3950  137.4950 N   0  0  0  0  0  0  0  0  0  0  0  0
  194.6500  173.5320  139.7030 C   0  0  0  0  0  0  0  0  0  0  0  0
  195.6270  174.5800  139.9750 C   0  0  0  0  0  3  0  0  0  0  0  0
  192.3020  171.5650  139.3860 N   0  0  0  0  0  0  0  0  0  0  0  0
  193.4080  173.4580  140.3920 N   0  0  0  0  0  2  0  0  0  0  0  0
  189.8600  174.8080  141.4220 O   0  0  0  0  0  0  0  0  0  0  0  0
  188.8530  173.2350  139.9750 C   0  0  2  0  0  3  0  0  0  0  0  0
  190.1810  173.7630  140.5240 C   0  0  2  0  0  3  0  0  0  0  0  0
  188.1930  174.5590  139.8100 C   0  0  0  0  0  2  0  0  0  0  0  0
  187.7450  173.8840  142.0080 C   0  0  0  0  0  2  0  0  0  0  0  0
  188.0330  172.6610  141.1380 C   0  0  0  0  0  2  0  0  0  0  0  0
  188.4690  174.9700  141.2300 C   0  0  1  0  0  0  0  0  0  0  0  0
  187.9850  176.3690  141.5910 C   0  0  0  0  0  2  0  0  0  0  0  0
  186.6090  176.3320  142.2450 C   0  0  0  0  0  2  0  0  0  0  0  0
  185.4560  176.8190  146.0150 C   0  0  1  0  0  0  0  0  0  0  0  0
  185.6320  176.8300  144.5480 N   0  0  0  0  0  0  0  0  0  0  0  0
  185.8420  179.2010  145.3410 C   0  0  0  0  0  1  0  0  0  0  0  0
  184.9700  177.9450  145.3020 C   0  0  2  0  0  0  0  0  0  0  0  0
  187.9810  176.7710  145.8490 C   0  0  0  0  0  0  0  0  0  0  0  0
  186.7190  176.4910  143.7210 C   0  0  0  0  0  0  0  0  0  0  0  0
  184.4870  177.6430  146.5660 O   0  0  0  0  0  0  0  0  0  0  0  0
  186.8510  176.9500  146.6050 C   0  0  0  0  0  3  0  0  0  0  0  0
  187.8950  176.4750  144.3610 C   0  0  0  0  0  3  0  0  0  0  0  0
  189.6510  175.4920  147.2500 C   0  0  0  0  0  2  0  0  0  0  0  0
  189.3440  176.8180  146.5210 C   0  0  0  0  0  0  0  0  0  0  0  0
  190.3200  174.4790  146.3210 C   0  0  0  0  0  2  0  0  0  0  0  0
  191.6780  174.9880  145.8220 C   0  0  0  0  0  2  0  0  0  0  0  0
  190.4490  177.1670  145.4920 C   0  0  0  0  0  2  0  0  0  0  0  0
  189.3160  177.9130  147.5720 C   0  0  0  0  0  1  0  0  0  0  0  0
  191.7920  176.5170  145.8200 C   0  0  0  0  0  2  0  0  0  0  0  0
  191.5670  173.0330  142.5480 C   0  0  0  0  0  2  0  0  0  0  0  0
  191.1760  171.9040  143.4780 C   0  0  0  0  0  2  0  0  0  0  0  0
  192.3930  171.4710  144.2720 C   0  0  0  0  0  2  0  0  0  0  0  0
  193.5390  172.4480  144.0620 C   0  0  0  0  0  2  0  0  0  0  0  0
  194.6110  172.3010  145.1430 C   0  0  1  0  0  3  0  0  0  0  0  0
  194.9140  170.8300  145.3940 C   0  0  0  0  0  1  0  0  0  0  0  0
  195.8890  173.1150  144.8560 C   0  0  1  0  0  0  0  0  0  0  0  0
  196.7290  173.2400  146.1170 C   0  0  0  0  0  1  0  0  0  0  0  0
  196.6490  172.4250  143.9110 O   0  0  0  0  0  1  0  0  0  0  0  0
  195.5910  174.5090  144.2920 C   0  0  0  0  0  2  0  0  0  0  0  0
  196.6890  175.3650  144.4120 O   0  0  0  0  0  0  0  0  0  0  0  0
  195.1510  176.2510  142.9840 O   0  0  0  0  0  1  0  0  0  0  0  0
  196.4280  176.4060  143.5210 C   0  0  0  0  0  3  0  0  0  0  0  0
  197.3720  176.3950  142.4940 O   0  0  0  0  0  1  0  0  0  0  0  0
  1 41  1  1  0  0  0
  2 14  1  0  0  0  0
  5  4  2  0  0  0  0
  5 11  1  0  0  0  0
  6  3  1  6  0  0  0
  6 13  1  0  0  0  0
  7  4  1  6  0  0  0
  7  9  1  0  0  0  0
  7  6  1  0  0  0  0
  8  2  2  0  0  0  0
  9  8  1  1  0  0  0
  9 12  1  0  0  0  0
 10 15  1  0  0  0  0
 10  1  1  0  0  0  0
 11  3  2  0  0  0  0
 12 13  2  0  0  0  0
 12 15  1  0  0  0  0
 14 10  2  0  0  0  0
 17 19  1  1  0  0  0
 17 18  1  0  0  0  0
 17 21  1  0  0  0  0
 18  1  1  1  0  0  0
 18 16  1  0  0  0  0
 19 22  1  0  0  0  0
 21 20  1  0  0  0  0
 22 16  1  0  0  0  0
 22 23  1  1  0  0  0
 22 20  1  0  0  0  0
 23 24  1  0  0  0  0
 24 30  1  0  0  0  0
 25 31  1  0  0  0  0
 25 32  1  1  0  0  0
 26 28  1  0  0  0  0
 26 25  1  0  0  0  0
 28 27  1  1  0  0  0
 28 25  1  0  0  0  0
 28 31  1  0  0  0  0
 29 35  1  0  0  0  0
 29 32  2  0  0  0  0
 30 33  2  0  0  0  0
 30 26  1  0  0  0  0
 33 29  1  0  0  0  0
 35 34  1  0  0  0  0
 35 39  1  0  0  0  0
 36 34  1  0  0  0  0
 37 36  1  0  0  0  0
 38 40  1  0  0  0  0
 38 35  1  0  0  0  0
 40 37  1  0  0  0  0
 41 42  1  0  0  0  0
 42 43  1  0  0  0  0
 44 43  1  0  0  0  0
 44 45  1  0  0  0  0
 45 46  1  6  0  0  0
 47 45  1  0  0  0  0
 47 48  1  1  0  0  0
 49 47  1  0  0  0  0
 50 51  1  0  0  0  0
 50 47  1  0  0  0  0
 52 53  1  0  0  0  0
 53 51  1  0  0  0  0
 54 53  1  0  0  0  0
M  END
>  <MODEL>
4

>  <REMARK>
 VINA RESULT:      -7.5      2.916      9.102
  Name = 
  15 active torsions:
  status: ('A' for Active; 'I' for Inactive)
    1  A    between atoms: C_7  and  C_20
    2  A    between atoms: C_7  and  O_46
    3  A    between atoms: C_15  and  C_17
    4  A    between atoms: C_15  and  C_28
    5  A    between atoms: C_15  and  C_37
    6  A    between atoms: C_18  and  C_36
    7  A    between atoms: C_18  and  C_41
    8  A    between atoms: C_19  and  C_26
    9  A    between atoms: C_20  and  C_24
   10  A    between atoms: C_21  and  O_46
   11  A    between atoms: C_24  and  C_36
   12  A    between atoms: C_28  and  C_41
   13  A    between atoms: C_31  and  C_50
   14  A    between atoms: C_35  and  C_48
   15  A    between atoms: C_48  and  C_50
                            x       y       z     vdW  Elec       q    Type
                         _______ _______ _______ _____ _____    ______ ____

>  <TORSDO>
F 15

$$$$
=
 OpenBabel11042417413D

 54 62  0  0  1  0  0  0  0  0999 V2000
  190.3700  174.8160  142.2390 C   0  0  2  0  0  3  0  0  0  0  0  0
  193.0190  172.5290  140.7610 C   0  0  0  0  0  3  0  0  0  0  0  0
  190.1460  171.9960  135.4010 C   0  0  0  0  0  3  0  0  0  0  0  0
  191.9660  170.5740  136.9960 N   0  0  0  0  0  0  0  0  0  0  0  0
  191.3060  169.9930  136.0300 C   0  0  0  0  0  3  0  0  0  0  0  0
  190.7390  172.6140  136.5820 C   0  0  2  0  0  3  0  0  0  0  0  0
  191.9890  172.0350  137.1390 C   0  0  1  0  0  3  0  0  0  0  0  0
  192.8990  172.1730  139.5200 N   0  0  0  0  0  0  0  0  0  0  0  0
  191.8990  172.4890  138.5540 C   0  0  1  0  0  3  0  0  0  0  0  0
  191.0430  174.0080  141.1770 C   0  0  0  0  0  0  0  0  0  0  0  0
  190.4550  170.7560  135.1460 N   0  0  0  0  0  0  0  0  0  0  0  0
  190.8490  173.2850  138.7000 C   0  0  0  0  0  0  0  0  0  0  0  0
  190.0700  173.3310  137.4680 C   0  0  0  0  0  3  0  0  0  0  0  0
  192.1320  173.3810  141.4980 N   0  0  0  0  0  0  0  0  0  0  0  0
  190.4380  173.9610  139.8820 N   0  0  0  0  0  2  0  0  0  0  0  0
  191.6420  175.1180  144.3320 O   0  0  0  0  0  0  0  0  0  0  0  0
  191.1320  177.1180  143.1830 C   0  0  2  0  0  3  0  0  0  0  0  0
  191.4140  175.6210  143.0290 C   0  0  2  0  0  3  0  0  0  0  0  0
  192.1700  177.3870  144.2150 C   0  0  0  0  0  2  0  0  0  0  0  0
  190.2470  176.7360  145.3850 C   0  0  0  0  0  2  0  0  0  0  0  0
  189.8580  177.2960  144.0180 C   0  0  0  0  0  2  0  0  0  0  0  0
  191.6760  176.2920  145.1200 C   0  0  1  0  0  0  0  0  0  0  0  0
  192.4810  176.1160  146.4010 C   0  0  0  0  0  2  0  0  0  0  0  0
  193.8450  176.7870  146.2980 C   0  0  0  0  0  2  0  0  0  0  0  0
  196.8250  175.7540  143.8820 C   0  0  1  0  0  0  0  0  0  0  0  0
  195.6590  176.3630  144.5550 N   0  0  0  0  0  0  0  0  0  0  0  0
  194.8700  175.4970  142.3370 C   0  0  0  0  0  1  0  0  0  0  0  0
  195.8610  176.4030  143.0690 C   0  0  2  0  0  0  0  0  0  0  0  0
  195.7690  173.7060  144.9300 C   0  0  0  0  0  0  0  0  0  0  0  0
  194.8160  175.9110  145.5870 C   0  0  0  0  0  0  0  0  0  0  0  0
  197.1520  176.1930  142.6090 O   0  0  0  0  0  0  0  0  0  0  0  0
  196.6630  174.2510  144.0440 C   0  0  0  0  0  3  0  0  0  0  0  0
  194.8550  174.5840  145.7680 C   0  0  0  0  0  3  0  0  0  0  0  0
  194.3670  171.7470  145.6940 C   0  0  0  0  0  2  0  0  0  0  0  0
  195.7260  172.1970  145.1150 C   0  0  0  0  0  0  0  0  0  0  0  0
  193.3430  171.4820  144.5900 C   0  0  0  0  0  2  0  0  0  0  0  0
  193.7920  170.3360  143.6740 C   0  0  0  0  0  2  0  0  0  0  0  0
  196.0410  171.4740  143.7820 C   0  0  0  0  0  2  0  0  0  0  0  0
  196.7940  171.8140  146.1230 C   0  0  0  0  0  1  0  0  0  0  0  0
  195.3120  170.1380  143.6450 C   0  0  0  0  0  2  0  0  0  0  0  0
  189.5080  173.9150  143.1150 C   0  0  0  0  0  2  0  0  0  0  0  0
  188.0780  173.9210  142.6150 C   0  0  0  0  0  2  0  0  0  0  0  0
  187.7680  175.2790  142.0160 C   0  0  0  0  0  2  0  0  0  0  0  0
  186.5780  175.9110  142.7210 C   0  0  0  0  0  2  0  0  0  0  0  0
  186.5890  177.4350  142.5890 C   0  0  1  0  0  3  0  0  0  0  0  0
  186.1350  177.8500  141.1960 C   0  0  0  0  0  1  0  0  0  0  0  0
  185.7900  178.1530  143.6970 C   0  0  1  0  0  0  0  0  0  0  0  0
  185.9490  179.6590  143.5690 C   0  0  0  0  0  1  0  0  0  0  0  0
  184.4370  177.8560  143.5270 O   0  0  0  0  0  1  0  0  0  0  0  0
  186.1970  177.7070  145.1060 C   0  0  0  0  0  2  0  0  0  0  0  0
  185.0880  177.3670  145.8850 O   0  0  0  0  0  0  0  0  0  0  0  0
  184.4540  178.4070  147.8100 O   0  0  0  0  0  1  0  0  0  0  0  0
  185.4640  177.6710  147.1930 C   0  0  0  0  0  3  0  0  0  0  0  0
  186.6450  178.4150  147.1820 O   0  0  0  0  0  1  0  0  0  0  0  0
  1 41  1  1  0  0  0
  2 14  1  0  0  0  0
  5  4  2  0  0  0  0
  6  3  1  1  0  0  0
  6  7  1  0  0  0  0
  6 13  1  0  0  0  0
  7  4  1  1  0  0  0
  7  9  1  0  0  0  0
  8  2  2  0  0  0  0
  9 12  1  6  0  0  0
  9  8  1  0  0  0  0
 10 14  2  0  0  0  0
 10  1  1  0  0  0  0
 11  3  2  0  0  0  0
 11  5  1  0  0  0  0
 12 15  1  0  0  0  0
 13 12  2  0  0  0  0
 15 10  1  0  0  0  0
 16 22  1  0  0  0  0
 17 21  1  1  0  0  0
 17 19  1  0  0  0  0
 18  1  1  1  0  0  0
 18 17  1  0  0  0  0
 18 16  1  0  0  0  0
 19 22  1  0  0  0  0
 21 20  1  0  0  0  0
 22 20  1  0  0  0  0
 22 23  1  1  0  0  0
 24 23  1  0  0  0  0
 25 32  1  6  0  0  0
 25 26  1  0  0  0  0
 26 30  1  0  0  0  0
 28 27  1  6  0  0  0
 28 25  1  0  0  0  0
 28 26  1  0  0  0  0
 29 35  1  0  0  0  0
 29 33  1  0  0  0  0
 30 33  2  0  0  0  0
 30 24  1  0  0  0  0
 31 28  1  0  0  0  0
 31 25  1  0  0  0  0
 32 29  2  0  0  0  0
 35 34  1  0  0  0  0
 35 39  1  0  0  0  0
 36 34  1  0  0  0  0
 37 36  1  0  0  0  0
 38 35  1  0  0  0  0
 40 37  1  0  0  0  0
 40 38  1  0  0  0  0
 42 41  1  0  0  0  0
 43 42  1  0  0  0  0
 43 44  1  0  0  0  0
 45 46  1  6  0  0  0
 45 44  1  0  0  0  0
 45 47  1  0  0  0  0
 47 48  1  6  0  0  0
 47 50  1  0  0  0  0
 49 47  1  0  0  0  0
 50 51  1  0  0  0  0
 51 53  1  0  0  0  0
 53 52  1  0  0  0  0
 54 53  1  0  0  0  0
M  END
>  <MODEL>
5

>  <REMARK>
 VINA RESULT:      -7.4      2.153      3.722
  Name = 
  15 active torsions:
  status: ('A' for Active; 'I' for Inactive)
    1  A    between atoms: C_7  and  C_20
    2  A    between atoms: C_7  and  O_46
    3  A    between atoms: C_15  and  C_17
    4  A    between atoms: C_15  and  C_28
    5  A    between atoms: C_15  and  C_37
    6  A    between atoms: C_18  and  C_36
    7  A    between atoms: C_18  and  C_41
    8  A    between atoms: C_19  and  C_26
    9  A    between atoms: C_20  and  C_24
   10  A    between atoms: C_21  and  O_46
   11  A    between atoms: C_24  and  C_36
   12  A    between atoms: C_28  and  C_41
   13  A    between atoms: C_31  and  C_50
   14  A    between atoms: C_35  and  C_48
   15  A    between atoms: C_48  and  C_50
                            x       y       z     vdW  Elec       q    Type
                         _______ _______ _______ _____ _____    ______ ____

>  <TORSDO>
F 15

$$$$
=
 OpenBabel11042417413D

 54 62  0  0  1  0  0  0  0  0999 V2000
  192.3850  172.5060  140.0550 C   0  0  2  0  0  3  0  0  0  0  0  0
  190.3940  173.9910  137.1790 C   0  0  0  0  0  3  0  0  0  0  0  0
  195.0960  177.2800  135.0920 C   0  0  0  0  0  3  0  0  0  0  0  0
  192.2890  177.3150  135.0650 N   0  0  0  0  0  0  0  0  0  0  0  0
  192.9880  178.3820  134.7820 C   0  0  0  0  0  3  0  0  0  0  0  0
  194.3340  176.1360  135.5800 C   0  0  2  0  0  3  0  0  0  0  0  0
  192.9150  175.9920  135.1620 C   0  0  1  0  0  3  0  0  0  0  0  0
  191.0150  174.7530  136.3320 N   0  0  0  0  0  0  0  0  0  0  0  0
  192.3780  175.1670  136.2790 C   0  0  1  0  0  3  0  0  0  0  0  0
  192.1640  173.3060  138.8110 C   0  0  0  0  0  0  0  0  0  0  0  0
  194.4290  178.3250  134.6920 N   0  0  0  0  0  0  0  0  0  0  0  0
  193.3670  174.8180  137.0900 C   0  0  0  0  0  0  0  0  0  0  0  0
  194.6080  175.4710  136.6900 C   0  0  0  0  0  3  0  0  0  0  0  0
  190.9630  173.3410  138.3230 N   0  0  0  0  0  0  0  0  0  0  0  0
  193.2830  173.9960  138.2470 N   0  0  0  0  0  2  0  0  0  0  0  0
  191.4850  173.2040  142.2450 O   0  0  0  0  0  0  0  0  0  0  0  0
  190.3990  171.3450  141.2720 C   0  0  2  0  0  3  0  0  0  0  0  0
  191.1700  172.6370  140.9870 C   0  0  2  0  0  3  0  0  0  0  0  0
  189.5740  171.8760  142.3900 C   0  0  0  0  0  2  0  0  0  0  0  0
  191.5600  171.1030  143.3630 C   0  0  0  0  0  2  0  0  0  0  0  0
  191.3170  170.3830  142.0380 C   0  0  0  0  0  2  0  0  0  0  0  0
  190.7700  172.3830  143.1470 C   0  0  1  0  0  0  0  0  0  0  0  0
  190.4400  173.0940  144.4520 C   0  0  0  0  0  2  0  0  0  0  0  0
  190.5840  174.6050  144.3160 C   0  0  0  0  0  2  0  0  0  0  0  0
  187.3140  175.7510  142.3720 C   0  0  1  0  0  0  0  0  0  0  0  0
  188.6740  175.3720  142.8090 N   0  0  0  0  0  0  0  0  0  0  0  0
  188.7790  177.7550  142.0300 C   0  0  0  0  0  1  0  0  0  0  0  0
  188.4120  176.3150  141.6710 C   0  0  2  0  0  0  0  0  0  0  0  0
  187.3080  176.6430  144.7400 C   0  0  0  0  0  0  0  0  0  0  0  0
  189.2600  175.2460  144.0810 C   0  0  0  0  0  0  0  0  0  0  0  0
  187.1530  176.2570  141.0920 O   0  0  0  0  0  0  0  0  0  0  0  0
  186.7330  176.5930  143.4960 C   0  0  0  0  0  3  0  0  0  0  0  0
  188.5920  175.8900  145.0460 C   0  0  0  0  0  3  0  0  0  0  0  0
  186.5000  178.9200  145.4810 C   0  0  0  0  0  2  0  0  0  0  0  0
  186.6220  177.4260  145.8490 C   0  0  0  0  0  0  0  0  0  0  0  0
  185.2170  179.2070  144.7020 C   0  0  0  0  0  2  0  0  0  0  0  0
  183.9710  178.8950  145.5400 C   0  0  0  0  0  2  0  0  0  0  0  0
  185.2400  176.8090  146.1790 C   0  0  0  0  0  2  0  0  0  0  0  0
  187.4870  177.3380  147.0940 C   0  0  0  0  0  1  0  0  0  0  0  0
  184.2190  177.8510  146.6360 C   0  0  0  0  0  2  0  0  0  0  0  0
  193.6990  172.9100  140.7100 C   0  0  0  0  0  2  0  0  0  0  0  0
  194.6460  171.7300  140.7420 C   0  0  0  0  0  2  0  0  0  0  0  0
  195.0740  171.4740  142.1730 C   0  0  0  0  0  2  0  0  0  0  0  0
  194.7840  172.6900  143.0390 C   0  0  0  0  0  2  0  0  0  0  0  0
  196.0280  173.1480  143.8030 C   0  0  1  0  0  3  0  0  0  0  0  0
  197.2420  173.1580  142.8840 C   0  0  0  0  0  1  0  0  0  0  0  0
  195.8410  174.4950  144.5300 C   0  0  1  0  0  0  0  0  0  0  0  0
  196.1220  174.3360  146.0150 C   0  0  0  0  0  1  0  0  0  0  0  0
  196.7690  175.4040  144.0210 O   0  0  0  0  0  1  0  0  0  0  0  0
  194.4410  175.0890  144.3280 C   0  0  0  0  0  2  0  0  0  0  0  0
  194.4870  176.3090  143.6500 O   0  0  0  0  0  0  0  0  0  0  0  0
  194.4390  176.4790  141.3780 O   0  0  0  0  0  1  0  0  0  0  0  0
  193.7100  176.1110  142.5080 C   0  0  0  0  0  3  0  0  0  0  0  0
  192.5500  176.8820  142.5880 O   0  0  0  0  0  1  0  0  0  0  0  0
  1 41  1  1  0  0  0
  2 14  1  0  0  0  0
  5  4  2  0  0  0  0
  6  3  1  1  0  0  0
  6 13  1  0  0  0  0
  7  4  1  1  0  0  0
  7  6  1  0  0  0  0
  7  9  1  0  0  0  0
  8  2  2  0  0  0  0
  9  8  1  6  0  0  0
  9 12  1  0  0  0  0
 10  1  1  0  0  0  0
 11  5  1  0  0  0  0
 11  3  2  0  0  0  0
 12 15  1  0  0  0  0
 13 12  2  0  0  0  0
 14 10  2  0  0  0  0
 15 10  1  0  0  0  0
 16 22  1  0  0  0  0
 17 21  1  1  0  0  0
 17 19  1  0  0  0  0
 18  1  1  1  0  0  0
 18 17  1  0  0  0  0
 18 16  1  0  0  0  0
 19 22  1  0  0  0  0
 21 20  1  0  0  0  0
 22 20  1  0  0  0  0
 22 23  1  1  0  0  0
 24 23  1  0  0  0  0
 25 26  1  0  0  0  0
 25 32  1  1  0  0  0
 26 30  1  0  0  0  0
 28 27  1  1  0  0  0
 28 25  1  0  0  0  0
 28 26  1  0  0  0  0
 29 33  1  0  0  0  0
 29 35  1  0  0  0  0
 30 24  1  0  0  0  0
 30 33  2  0  0  0  0
 31 28  1  0  0  0  0
 31 25  1  0  0  0  0
 32 29  2  0  0  0  0
 34 35  1  0  0  0  0
 35 38  1  0  0  0  0
 35 39  1  0  0  0  0
 36 34  1  0  0  0  0
 36 37  1  0  0  0  0
 37 40  1  0  0  0  0
 38 40  1  0  0  0  0
 41 42  1  0  0  0  0
 42 43  1  0  0  0  0
 43 44  1  0  0  0  0
 44 45  1  0  0  0  0
 45 46  1  6  0  0  0
 45 47  1  0  0  0  0
 47 48  1  1  0  0  0
 49 47  1  0  0  0  0
 50 47  1  0  0  0  0
 51 50  1  0  0  0  0
 52 53  1  0  0  0  0
 53 54  1  0  0  0  0
 53 51  1  0  0  0  0
M  END
>  <MODEL>
6

>  <REMARK>
 VINA RESULT:      -7.4      3.132      8.945
  Name = 
  15 active torsions:
  status: ('A' for Active; 'I' for Inactive)
    1  A    between atoms: C_7  and  C_20
    2  A    between atoms: C_7  and  O_46
    3  A    between atoms: C_15  and  C_17
    4  A    between atoms: C_15  and  C_28
    5  A    between atoms: C_15  and  C_37
    6  A    between atoms: C_18  and  C_36
    7  A    between atoms: C_18  and  C_41
    8  A    between atoms: C_19  and  C_26
    9  A    between atoms: C_20  and  C_24
   10  A    between atoms: C_21  and  O_46
   11  A    between atoms: C_24  and  C_36
   12  A    between atoms: C_28  and  C_41
   13  A    between atoms: C_31  and  C_50
   14  A    between atoms: C_35  and  C_48
   15  A    between atoms: C_48  and  C_50
                            x       y       z     vdW  Elec       q    Type
                         _______ _______ _______ _____ _____    ______ ____

>  <TORSDO>
F 15

$$$$
=
 OpenBabel11042417413D

 54 62  0  0  1  0  0  0  0  0999 V2000
  189.8300  175.2590  142.4750 C   0  0  2  0  0  3  0  0  0  0  0  0
  190.2050  171.4800  142.5880 C   0  0  0  0  0  3  0  0  0  0  0  0
  191.4150  171.0170  136.6210 C   0  0  0  0  0  3  0  0  0  0  0  0
  190.3700  169.4640  138.7130 N   0  0  0  0  0  0  0  0  0  0  0  0
  190.1790  169.1410  137.4610 C   0  0  0  0  0  3  0  0  0  0  0  0
  191.4860  171.4850  138.0010 C   0  0  2  0  0  3  0  0  0  0  0  0
  191.3400  170.4950  139.0990 C   0  0  1  0  0  3  0  0  0  0  0  0
  190.5660  170.8660  141.5030 N   0  0  0  0  0  0  0  0  0  0  0  0
  190.8580  171.3720  140.2020 C   0  0  1  0  0  3  0  0  0  0  0  0
  190.1340  173.8960  141.9390 C   0  0  0  0  0  0  0  0  0  0  0  0
  190.8130  169.8840  136.3960 N   0  0  0  0  0  0  0  0  0  0  0  0
  190.8690  172.6350  139.8030 C   0  0  0  0  0  0  0  0  0  0  0  0
  191.2130  172.7200  138.3890 C   0  0  0  0  0  3  0  0  0  0  0  0
  190.0090  172.8900  142.7490 N   0  0  0  0  0  0  0  0  0  0  0  0
  190.5250  173.7830  140.5690 N   0  0  0  0  0  2  0  0  0  0  0  0
  191.3420  175.4350  144.4180 O   0  0  0  0  0  0  0  0  0  0  0  0
  191.1500  177.4040  143.1270 C   0  0  2  0  0  3  0  0  0  0  0  0
  191.0940  175.8750  143.0950 C   0  0  2  0  0  3  0  0  0  0  0  0
  192.3190  177.5180  144.0400 C   0  0  0  0  0  2  0  0  0  0  0  0
  190.4310  177.3930  145.4210 C   0  0  0  0  0  2  0  0  0  0  0  0
  190.0320  177.9190  144.0430 C   0  0  0  0  0  2  0  0  0  0  0  0
  191.7010  176.6300  145.0830 C   0  0  1  0  0  0  0  0  0  0  0  0
  192.5760  176.3810  146.3050 C   0  0  0  0  0  2  0  0  0  0  0  0
  192.7370  174.8920  146.5820 C   0  0  0  0  0  2  0  0  0  0  0  0
  196.3120  174.9110  144.8480 C   0  0  1  0  0  0  0  0  0  0  0  0
  194.9410  175.1800  145.3300 N   0  0  0  0  0  0  0  0  0  0  0  0
  194.8240  174.9570  142.8340 C   0  0  0  0  0  1  0  0  0  0  0  0
  195.4620  175.6850  144.0170 C   0  0  2  0  0  0  0  0  0  0  0  0
  195.3960  172.5550  144.9890 C   0  0  0  0  0  0  0  0  0  0  0  0
  193.9730  174.3630  145.9410 C   0  0  0  0  0  0  0  0  0  0  0  0
  196.8400  175.7420  143.8740 O   0  0  0  0  0  0  0  0  0  0  0  0
  196.3650  173.4210  144.5500 C   0  0  0  0  0  3  0  0  0  0  0  0
  194.1860  173.0530  145.7620 C   0  0  0  0  0  3  0  0  0  0  0  0
  196.7130  170.4840  145.5880 C   0  0  0  0  0  2  0  0  0  0  0  0
  195.5590  171.0640  144.7420 C   0  0  0  0  0  0  0  0  0  0  0  0
  196.2340  170.0410  146.9700 C   0  0  0  0  0  2  0  0  0  0  0  0
  195.2000  168.9120  146.8690 C   0  0  0  0  0  2  0  0  0  0  0  0
  194.2290  170.3170  145.0110 C   0  0  0  0  0  2  0  0  0  0  0  0
  195.9250  170.8640  143.2830 C   0  0  0  0  0  1  0  0  0  0  0  0
  194.4420  168.8970  145.5360 C   0  0  0  0  0  2  0  0  0  0  0  0
  188.6520  175.1910  143.4380 C   0  0  0  0  0  2  0  0  0  0  0  0
  187.3520  175.1340  142.6630 C   0  0  0  0  0  2  0  0  0  0  0  0
  186.5180  176.3530  143.0030 C   0  0  0  0  0  2  0  0  0  0  0  0
  186.8110  176.8180  144.4210 C   0  0  0  0  0  2  0  0  0  0  0  0
  185.5310  177.2150  145.1590 C   0  0  1  0  0  3  0  0  0  0  0  0
  185.7360  177.1180  146.6650 C   0  0  0  0  0  1  0  0  0  0  0  0
  184.9800  178.5930  144.7380 C   0  0  1  0  0  0  0  0  0  0  0  0
  183.7170  178.9160  145.5200 C   0  0  0  0  0  1  0  0  0  0  0  0
  185.9310  179.5630  145.0530 O   0  0  0  0  0  1  0  0  0  0  0  0
  184.6950  178.6830  143.2340 C   0  0  0  0  0  2  0  0  0  0  0  0
  183.3530  178.9730  142.9750 O   0  0  0  0  0  0  0  0  0  0  0  0
  183.7010  178.6670  140.7440 O   0  0  0  0  0  1  0  0  0  0  0  0
  183.0270  178.1900  141.8670 C   0  0  0  0  0  3  0  0  0  0  0  0
  181.6510  178.2420  141.6440 O   0  0  0  0  0  1  0  0  0  0  0  0
  1 41  1  1  0  0  0
  2 14  1  0  0  0  0
  5  4  2  0  0  0  0
  6  3  1  6  0  0  0
  6 13  1  0  0  0  0
  6  7  1  0  0  0  0
  7  4  1  6  0  0  0
  7  9  1  0  0  0  0
  8  2  2  0  0  0  0
  9 12  1  1  0  0  0
  9  8  1  0  0  0  0
 10  1  1  0  0  0  0
 10 14  2  0  0  0  0
 11  3  2  0  0  0  0
 11  5  1  0  0  0  0
 12 15  1  0  0  0  0
 13 12  2  0  0  0  0
 15 10  1  0  0  0  0
 16 22  1  0  0  0  0
 17 19  1  1  0  0  0
 17 21  1  0  0  0  0
 18  1  1  1  0  0  0
 18 17  1  0  0  0  0
 18 16  1  0  0  0  0
 19 22  1  0  0  0  0
 21 20  1  0  0  0  0
 22 20  1  0  0  0  0
 22 23  1  1  0  0  0
 23 24  1  0  0  0  0
 25 32  1  6  0  0  0
 25 26  1  0  0  0  0
 26 30  1  0  0  0  0
 28 27  1  6  0  0  0
 28 25  1  0  0  0  0
 28 26  1  0  0  0  0
 29 33  1  0  0  0  0
 30 24  1  0  0  0  0
 31 28  1  0  0  0  0
 31 25  1  0  0  0  0
 32 29  2  0  0  0  0
 33 30  2  0  0  0  0
 34 36  1  0  0  0  0
 35 29  1  0  0  0  0
 35 38  1  0  0  0  0
 35 34  1  0  0  0  0
 37 36  1  0  0  0  0
 38 40  1  0  0  0  0
 39 35  1  0  0  0  0
 40 37  1  0  0  0  0
 42 43  1  0  0  0  0
 42 41  1  0  0  0  0
 43 44  1  0  0  0  0
 44 45  1  0  0  0  0
 45 46  1  1  0  0  0
 47 49  1  0  0  0  0
 47 45  1  0  0  0  0
 47 48  1  1  0  0  0
 50 47  1  0  0  0  0
 51 50  1  0  0  0  0
 52 53  1  0  0  0  0
 53 51  1  0  0  0  0
 54 53  1  0  0  0  0
M  END
>  <MODEL>
7

>  <REMARK>
 VINA RESULT:      -7.2      1.985      3.118
  Name = 
  15 active torsions:
  status: ('A' for Active; 'I' for Inactive)
    1  A    between atoms: C_7  and  C_20
    2  A    between atoms: C_7  and  O_46
    3  A    between atoms: C_15  and  C_17
    4  A    between atoms: C_15  and  C_28
    5  A    between atoms: C_15  and  C_37
    6  A    between atoms: C_18  and  C_36
    7  A    between atoms: C_18  and  C_41
    8  A    between atoms: C_19  and  C_26
    9  A    between atoms: C_20  and  C_24
   10  A    between atoms: C_21  and  O_46
   11  A    between atoms: C_24  and  C_36
   12  A    between atoms: C_28  and  C_41
   13  A    between atoms: C_31  and  C_50
   14  A    between atoms: C_35  and  C_48
   15  A    between atoms: C_48  and  C_50
                            x       y       z     vdW  Elec       q    Type
                         _______ _______ _______ _____ _____    ______ ____

>  <TORSDO>
F 15

$$$$
=
 OpenBabel11042417413D

 54 62  0  0  1  0  0  0  0  0999 V2000
  193.0940  172.8950  141.3780 C   0  0  2  0  0  3  0  0  0  0  0  0
  196.1910  171.3080  139.8530 C   0  0  0  0  0  3  0  0  0  0  0  0
  197.0350  175.8390  135.8480 C   0  0  0  0  0  3  0  0  0  0  0  0
  197.6240  173.1090  136.1370 N   0  0  0  0  0  0  0  0  0  0  0  0
  197.6790  173.7000  134.9730 C   0  0  0  0  0  3  0  0  0  0  0  0
  196.7980  175.1580  137.1170 C   0  0  2  0  0  3  0  0  0  0  0  0
  197.5030  173.8770  137.3820 C   0  0  1  0  0  3  0  0  0  0  0  0
  196.8350  171.9710  138.9440 N   0  0  0  0  0  0  0  0  0  0  0  0
  196.5820  173.2520  138.3710 C   0  0  1  0  0  3  0  0  0  0  0  0
  194.2930  172.8110  140.4880 C   0  0  0  0  0  0  0  0  0  0  0  0
  197.4810  175.1270  134.8530 N   0  0  0  0  0  0  0  0  0  0  0  0
  195.6180  174.1060  138.6820 C   0  0  0  0  0  0  0  0  0  0  0  0
  195.7090  175.3020  137.8530 C   0  0  0  0  0  3  0  0  0  0  0  0
  195.0080  171.7310  140.5450 N   0  0  0  0  0  0  0  0  0  0  0  0
  194.5660  173.9140  139.6200 N   0  0  0  0  0  2  0  0  0  0  0  0
  190.8350  173.8730  141.1900 O   0  0  0  0  0  0  0  0  0  0  0  0
  191.1330  171.8330  140.0380 C   0  0  2  0  0  3  0  0  0  0  0  0
  191.8260  173.1040  140.5340 C   0  0  2  0  0  3  0  0  0  0  0  0
  189.8760  172.4850  139.5810 C   0  0  0  0  0  2  0  0  0  0  0  0
  189.5530  171.9760  141.8450 C   0  0  0  0  0  2  0  0  0  0  0  0
  190.6130  171.0500  141.2500 C   0  0  0  0  0  2  0  0  0  0  0  0
  189.6460  173.1640  140.9020 C   0  0  1  0  0  0  0  0  0  0  0  0
  188.4080  174.0500  140.9540 C   0  0  0  0  0  2  0  0  0  0  0  0
  187.9930  174.3450  142.3900 C   0  0  0  0  0  2  0  0  0  0  0  0
  185.8610  177.4610  141.1530 C   0  0  1  0  0  0  0  0  0  0  0  0
  186.8150  176.3470  141.3350 N   0  0  0  0  0  0  0  0  0  0  0  0
  188.1590  178.4600  141.1880 C   0  0  0  0  0  1  0  0  0  0  0  0
  187.1230  177.5620  140.5110 C   0  0  2  0  0  0  0  0  0  0  0  0
  186.2080  177.5500  143.6590 C   0  0  0  0  0  0  0  0  0  0  0  0
  187.1960  175.6010  142.4650 C   0  0  0  0  0  0  0  0  0  0  0  0
  186.0400  178.3070  140.0700 O   0  0  0  0  0  0  0  0  0  0  0  0
  185.7440  178.1370  142.5100 C   0  0  0  0  0  3  0  0  0  0  0  0
  186.9100  176.2020  143.6270 C   0  0  0  0  0  3  0  0  0  0  0  0
  184.7640  177.6130  145.7310 C   0  0  0  0  0  2  0  0  0  0  0  0
  185.9710  178.2340  144.9960 C   0  0  0  0  0  0  0  0  0  0  0  0
  185.1800  176.4220  146.5940 C   0  0  0  0  0  2  0  0  0  0  0  0
  186.1530  176.8460  147.7020 C   0  0  0  0  0  2  0  0  0  0  0  0
  187.2510  178.1870  145.8680 C   0  0  0  0  0  2  0  0  0  0  0  0
  185.6350  179.6900  144.7290 C   0  0  0  0  0  1  0  0  0  0  0  0
  186.9470  178.1140  147.3640 C   0  0  0  0  0  2  0  0  0  0  0  0
  193.3030  173.9710  142.4360 C   0  0  0  0  0  2  0  0  0  0  0  0
  193.8100  173.3450  143.7180 C   0  0  0  0  0  2  0  0  0  0  0  0
  193.7450  174.3710  144.8310 C   0  0  0  0  0  2  0  0  0  0  0  0
  192.6890  173.9800  145.8530 C   0  0  0  0  0  2  0  0  0  0  0  0
  191.3140  174.5430  145.4870 C   0  0  1  0  0  3  0  0  0  0  0  0
  190.3920  173.4270  145.0140 C   0  0  0  0  0  1  0  0  0  0  0  0
  190.6750  175.3850  146.6110 C   0  0  1  0  0  0  0  0  0  0  0  0
  189.3420  174.7830  147.0260 C   0  0  0  0  0  1  0  0  0  0  0  0
  191.5180  175.3480  147.7220 O   0  0  0  0  0  1  0  0  0  0  0  0
  190.4810  176.8530  146.2150 C   0  0  0  0  0  2  0  0  0  0  0  0
  191.4210  177.2650  145.2660 O   0  0  0  0  0  0  0  0  0  0  0  0
  190.1230  176.9800  143.4150 O   0  0  0  0  0  1  0  0  0  0  0  0
  190.6740  177.9190  144.2860 C   0  0  0  0  0  3  0  0  0  0  0  0
  191.4960  178.7930  143.5740 O   0  0  0  0  0  1  0  0  0  0  0  0
  1 41  1  1  0  0  0
  2 14  1  0  0  0  0
  5  4  2  0  0  0  0
  6  3  1  6  0  0  0
  6  7  1  0  0  0  0
  6 13  1  0  0  0  0
  7  4  1  6  0  0  0
  7  9  1  0  0  0  0
  8  2  2  0  0  0  0
  9 12  1  1  0  0  0
  9  8  1  0  0  0  0
 10 14  2  0  0  0  0
 10  1  1  0  0  0  0
 11  5  1  0  0  0  0
 11  3  2  0  0  0  0
 12 15  1  0  0  0  0
 13 12  2  0  0  0  0
 15 10  1  0  0  0  0
 17 19  1  6  0  0  0
 17 18  1  0  0  0  0
 17 21  1  0  0  0  0
 18 16  1  0  0  0  0
 18  1  1  1  0  0  0
 19 22  1  0  0  0  0
 21 20  1  0  0  0  0
 22 23  1  1  0  0  0
 22 16  1  0  0  0  0
 22 20  1  0  0  0  0
 23 24  1  0  0  0  0
 24 30  1  0  0  0  0
 25 26  1  0  0  0  0
 25 32  1  1  0  0  0
 26 30  1  0  0  0  0
 28 25  1  0  0  0  0
 28 27  1  1  0  0  0
 28 26  1  0  0  0  0
 29 35  1  0  0  0  0
 30 33  2  0  0  0  0
 31 28  1  0  0  0  0
 31 25  1  0  0  0  0
 32 29  2  0  0  0  0
 33 29  1  0  0  0  0
 34 36  1  0  0  0  0
 35 34  1  0  0  0  0
 35 38  1  0  0  0  0
 36 37  1  0  0  0  0
 38 40  1  0  0  0  0
 39 35  1  0  0  0  0
 40 37  1  0  0  0  0
 41 42  1  0  0  0  0
 42 43  1  0  0  0  0
 43 44  1  0  0  0  0
 45 46  1  1  0  0  0
 45 44  1  0  0  0  0
 45 47  1  0  0  0  0
 47 48  1  1  0  0  0
 47 49  1  0  0  0  0
 50 47  1  0  0  0  0
 51 50  1  0  0  0  0
 52 53  1  0  0  0  0
 53 51  1  0  0  0  0
 54 53  1  0  0  0  0
M  END
>  <MODEL>
8

>  <REMARK>
 VINA RESULT:      -7.1      3.341      8.747
  Name = 
  15 active torsions:
  status: ('A' for Active; 'I' for Inactive)
    1  A    between atoms: C_7  and  C_20
    2  A    between atoms: C_7  and  O_46
    3  A    between atoms: C_15  and  C_17
    4  A    between atoms: C_15  and  C_28
    5  A    between atoms: C_15  and  C_37
    6  A    between atoms: C_18  and  C_36
    7  A    between atoms: C_18  and  C_41
    8  A    between atoms: C_19  and  C_26
    9  A    between atoms: C_20  and  C_24
   10  A    between atoms: C_21  and  O_46
   11  A    between atoms: C_24  and  C_36
   12  A    between atoms: C_28  and  C_41
   13  A    between atoms: C_31  and  C_50
   14  A    between atoms: C_35  and  C_48
   15  A    between atoms: C_48  and  C_50
                            x       y       z     vdW  Elec       q    Type
                         _______ _______ _______ _____ _____    ______ ____

>  <TORSDO>
F 15

$$$$
=
 OpenBabel11042417413D

 54 62  0  0  1  0  0  0  0  0999 V2000
  191.9440  174.7750  144.9760 C   0  0  2  0  0  3  0  0  0  0  0  0
  188.9380  175.1810  147.2620 C   0  0  0  0  0  3  0  0  0  0  0  0
  185.9770  178.8530  143.3850 C   0  0  0  0  0  3  0  0  0  0  0  0
  186.0940  178.3040  146.1360 N   0  0  0  0  0  0  0  0  0  0  0  0
  185.5630  179.4080  145.6820 C   0  0  0  0  0  3  0  0  0  0  0  0
  186.7280  177.7050  143.8820 C   0  0  2  0  0  3  0  0  0  0  0  0
  186.4240  177.1880  145.2420 C   0  0  1  0  0  3  0  0  0  0  0  0
  187.9220  175.8590  146.8250 N   0  0  0  0  0  0  0  0  0  0  0  0
  187.7130  176.5230  145.5810 C   0  0  1  0  0  3  0  0  0  0  0  0
  190.5780  175.2330  145.3720 C   0  0  0  0  0  0  0  0  0  0  0  0
  185.4090  179.6300  144.2620 N   0  0  0  0  0  0  0  0  0  0  0  0
  188.5230  176.5640  144.5340 C   0  0  0  0  0  0  0  0  0  0  0  0
  187.9330  177.3590  143.4630 C   0  0  0  0  0  3  0  0  0  0  0  0
  190.1580  174.9160  146.5580 N   0  0  0  0  0  0  0  0  0  0  0  0
  189.8270  176.0040  144.4310 N   0  0  0  0  0  2  0  0  0  0  0  0
  193.8640  175.8020  143.8130 O   0  0  0  0  0  0  0  0  0  0  0  0
  193.6160  176.4380  146.0750 C   0  0  2  0  0  3  0  0  0  0  0  0
  192.8790  175.9840  144.8130 C   0  0  2  0  0  3  0  0  0  0  0  0
  194.5700  177.3590  145.4000 C   0  0  0  0  0  2  0  0  0  0  0  0
  195.5810  175.2460  145.3680 C   0  0  0  0  0  2  0  0  0  0  0  0
  194.5730  175.3230  146.5140 C   0  0  0  0  0  2  0  0  0  0  0  0
  195.0320  176.3080  144.4290 C   0  0  1  0  0  0  0  0  0  0  0  0
  196.0670  176.7880  143.4200 C   0  0  0  0  0  2  0  0  0  0  0  0
  197.1840  175.7660  143.2380 C   0  0  0  0  0  2  0  0  0  0  0  0
  196.4080  174.7430  139.4780 C   0  0  1  0  0  0  0  0  0  0  0  0
  196.5080  175.3780  140.8090 N   0  0  0  0  0  0  0  0  0  0  0  0
  194.0870  174.8560  140.4120 C   0  0  0  0  0  1  0  0  0  0  0  0
  195.3350  175.5710  139.8940 C   0  0  2  0  0  0  0  0  0  0  0  0
  196.4890  172.6970  140.9660 C   0  0  0  0  0  0  0  0  0  0  0  0
  196.9160  174.8900  142.0640 C   0  0  0  0  0  0  0  0  0  0  0  0
  195.5390  175.2940  138.5510 O   0  0  0  0  0  0  0  0  0  0  0  0
  196.2450  173.2530  139.7370 C   0  0  0  0  0  3  0  0  0  0  0  0
  196.8940  173.5540  142.1530 C   0  0  0  0  0  3  0  0  0  0  0  0
  196.4950  170.7880  142.6210 C   0  0  0  0  0  2  0  0  0  0  0  0
  196.4030  171.1880  141.1330 C   0  0  0  0  0  0  0  0  0  0  0  0
  195.1220  170.7810  143.2910 C   0  0  0  0  0  2  0  0  0  0  0  0
  194.1910  169.7430  142.6510 C   0  0  0  0  0  2  0  0  0  0  0  0
  195.1100  170.6380  140.4790 C   0  0  0  0  0  2  0  0  0  0  0  0
  197.5920  170.5650  140.4240 C   0  0  0  0  0  1  0  0  0  0  0  0
  194.5560  169.4100  141.1990 C   0  0  0  0  0  2  0  0  0  0  0  0
  191.8620  173.9000  143.7310 C   0  0  0  0  0  2  0  0  0  0  0  0
  191.1470  172.6050  144.0560 C   0  0  0  0  0  2  0  0  0  0  0  0
  191.1670  171.7070  142.8340 C   0  0  0  0  0  2  0  0  0  0  0  0
  191.9810  172.3450  141.7200 C   0  0  0  0  0  2  0  0  0  0  0  0
  191.5240  171.8660  140.3420 C   0  0  1  0  0  3  0  0  0  0  0  0
  190.9230  170.4700  140.4370 C   0  0  0  0  0  1  0  0  0  0  0  0
  190.5780  172.8550  139.6300 C   0  0  1  0  0  0  0  0  0  0  0  0
  189.1690  172.2870  139.5690 C   0  0  0  0  0  1  0  0  0  0  0  0
  190.5250  174.0310  140.3780 O   0  0  0  0  0  1  0  0  0  0  0  0
  191.0520  173.2170  138.2170 C   0  0  0  0  0  2  0  0  0  0  0  0
  192.2580  172.5880  137.8970 O   0  0  0  0  0  0  0  0  0  0  0  0
  192.3880  174.7650  137.2390 O   0  0  0  0  0  1  0  0  0  0  0  0
  192.9180  173.4880  137.0600 C   0  0  0  0  0  3  0  0  0  0  0  0
  192.7580  173.0980  135.7300 O   0  0  0  0  0  1  0  0  0  0  0  0
  1 41  1  6  0  0  0
  1 10  1  0  0  0  0
  3 11  2  0  0  0  0
  5  4  2  0  0  0  0
  6  3  1  1  0  0  0
  6  7  1  0  0  0  0
  7  9  1  0  0  0  0
  7  4  1  1  0  0  0
  8  2  2  0  0  0  0
  9 12  1  6  0  0  0
  9  8  1  0  0  0  0
 10 14  2  0  0  0  0
 11  5  1  0  0  0  0
 13  6  1  0  0  0  0
 13 12  2  0  0  0  0
 14  2  1  0  0  0  0
 15 12  1  0  0  0  0
 15 10  1  0  0  0  0
 16 22  1  0  0  0  0
 16 18  1  0  0  0  0
 17 19  1  6  0  0  0
 17 21  1  0  0  0  0
 18  1  1  1  0  0  0
 18 17  1  0  0  0  0
 20 21  1  0  0  0  0
 22 23  1  6  0  0  0
 22 20  1  0  0  0  0
 22 19  1  0  0  0  0
 24 23  1  0  0  0  0
 25 32  1  1  0  0  0
 25 28  1  0  0  0  0
 25 26  1  0  0  0  0
 26 30  1  0  0  0  0
 28 27  1  1  0  0  0
 28 26  1  0  0  0  0
 29 35  1  0  0  0  0
 29 33  1  0  0  0  0
 30 33  2  0  0  0  0
 30 24  1  0  0  0  0
 31 25  1  0  0  0  0
 31 28  1  0  0  0  0
 32 29  2  0  0  0  0
 34 36  1  0  0  0  0
 35 34  1  0  0  0  0
 37 36  1  0  0  0  0
 38 35  1  0  0  0  0
 38 40  1  0  0  0  0
 39 35  1  0  0  0  0
 40 37  1  0  0  0  0
 41 42  1  0  0  0  0
 43 42  1  0  0  0  0
 44 43  1  0  0  0  0
 45 46  1  1  0  0  0
 45 44  1  0  0  0  0
 47 48  1  6  0  0  0
 47 45  1  0  0  0  0
 47 49  1  0  0  0  0
 50 47  1  0  0  0  0
 51 50  1  0  0  0  0
 53 52  1  0  0  0  0
 53 51  1  0  0  0  0
 54 53  1  0  0  0  0
M  END
>  <MODEL>
9

>  <REMARK>
 VINA RESULT:      -7.0      3.625      6.812
  Name = 
  15 active torsions:
  status: ('A' for Active; 'I' for Inactive)
    1  A    between atoms: C_7  and  C_20
    2  A    between atoms: C_7  and  O_46
    3  A    between atoms: C_15  and  C_17
    4  A    between atoms: C_15  and  C_28
    5  A    between atoms: C_15  and  C_37
    6  A    between atoms: C_18  and  C_36
    7  A    between atoms: C_18  and  C_41
    8  A    between atoms: C_19  and  C_26
    9  A    between atoms: C_20  and  C_24
   10  A    between atoms: C_21  and  O_46
   11  A    between atoms: C_24  and  C_36
   12  A    between atoms: C_28  and  C_41
   13  A    between atoms: C_31  and  C_50
   14  A    between atoms: C_35  and  C_48
   15  A    between atoms: C_48  and  C_50
                            x       y       z     vdW  Elec       q    Type
                         _______ _______ _______ _____ _____    ______ ____

>  <TORSDO>
F 15

$$$$
