=
 OpenBabel11042414033D

 31 33  0  0  1  0  0  0  0  0999 V2000
  189.8590  176.7450  144.3340 C   0  0  2  0  0  3  0  0  0  0  0  0
  194.5160  174.1980  142.4990 N   0  0  0  0  0  1  0  0  0  0  0  0
  192.0800  175.6680  143.4110 N   0  0  0  0  0  0  0  0  0  0  0  0
  191.3640  176.3750  144.3480 C   0  0  0  0  0  0  0  0  0  0  0  0
  193.2420  175.5330  144.1140 C   0  0  0  0  0  0  0  0  0  0  0  0
  193.9710  176.0180  146.3570 C   0  0  0  0  0  3  0  0  0  0  0  0
  194.3490  174.8330  143.8080 C   0  0  0  0  0  0  0  0  0  0  0  0
  195.2850  174.7330  144.7780 N   0  0  0  0  0  0  0  0  0  0  0  0
  193.1050  176.0910  145.3400 C   0  0  0  0  0  0  0  0  0  0  0  0
  191.8770  176.6310  145.5040 N   0  0  0  0  0  2  0  0  0  0  0  0
  195.1280  175.3200  146.0420 C   0  0  0  0  0  3  0  0  0  0  0  0
  189.5180  177.3930  145.7080 C   0  0  0  0  0  2  0  0  0  0  0  0
  188.6960  175.4570  146.9620 O   0  0  0  0  0  1  0  0  0  0  0  0
  188.5280  176.7340  146.7140 C   0  0  2  0  0  3  0  0  0  0  0  0
  184.9060  178.1760  146.6320 C   0  0  0  0  0  0  0  0  0  0  0  0
  187.1520  177.2500  146.9930 C   0  0  0  0  0  0  0  0  0  0  0  0
  185.8180  176.9600  145.8940 S   0  0  0  0  0  0  0  0  0  0  0  0
  185.6740  178.8680  147.5960 N   0  0  0  0  0  0  0  0  0  0  0  0
  186.8850  178.3390  147.7760 N   0  0  0  0  0  0  0  0  0  0  0  0
  183.7800  178.7930  145.7870 C   0  0  0  0  0  2  0  0  0  0  0  0
  184.4420  179.0990  144.3440 C   0  0  0  0  0  0  0  0  0  0  0  0
  183.7760  178.7230  143.3260 O   0  0  0  0  0  0  0  0  0  0  0  0
  185.4560  179.9780  143.9980 O   0  0  0  0  0  1  0  0  0  0  0  0
  189.0210  175.5690  143.9580 N   0  0  0  0  0  2  0  0  0  0  0  0
  188.0630  175.8450  142.7670 C   0  0  2  0  0  3  0  0  0  0  0  0
  188.7630  175.6860  141.5980 O   0  0  0  0  0  0  0  0  0  0  0  0
  188.4690  174.4280  141.1680 C   0  0  0  0  0  1  0  0  0  0  0  0
  187.4160  177.2660  142.4370 C   0  0  0  0  0  2  0  0  0  0  0  0
  186.1000  177.0710  141.7430 N   0  0  0  0  0  2  0  0  0  0  0  0
  186.5150  177.3500  139.4040 C   0  0  0  0  0  1  0  0  0  0  0  0
  185.9170  178.0170  140.6460 C   0  0  0  0  0  2  0  0  0  0  0  0
  1  4  1  0  0  0  0
  1 12  1  1  0  0  0
  2  7  1  0  0  0  0
  3  5  1  0  0  0  0
  3  4  2  0  0  0  0
  4 10  1  0  0  0  0
  5  9  1  0  0  0  0
  7  5  2  0  0  0  0
  7  8  1  0  0  0  0
  8 11  2  0  0  0  0
  9 10  1  0  0  0  0
  9  6  2  0  0  0  0
 11  6  1  0  0  0  0
 12 14  1  0  0  0  0
 14 13  1  6  0  0  0
 14 16  1  0  0  0  0
 15 18  2  0  0  0  0
 16 19  2  0  0  0  0
 17 15  1  0  0  0  0
 17 16  1  0  0  0  0
 18 19  1  0  0  0  0
 20 15  1  0  0  0  0
 21 20  1  0  0  0  0
 22 21  2  0  0  0  0
 23 21  1  0  0  0  0
 24  1  1  0  0  0  0
 25 28  1  1  0  0  0
 25 24  1  0  0  0  0
 26 25  1  0  0  0  0
 27 26  1  0  0  0  0
 29 28  1  0  0  0  0
 30 31  1  0  0  0  0
 31 29  1  0  0  0  0
M  END
>  <MODEL>
1

>  <REMARK>
 VINA RESULT:      -6.3      0.000      0.000
  Name = 
  12 active torsions:
  status: ('A' for Active; 'I' for Inactive)
    1  A    between atoms: C_4  and  C_5
    2  A    between atoms: C_5  and  C_8
    3  A    between atoms: C_6  and  C_7
    4  A    between atoms: C_6  and  C_21
    5  A    between atoms: C_10  and  N_24
    6  A    between atoms: O_11  and  C_27
    7  A    between atoms: C_15  and  C_29
    8  A    between atoms: C_16  and  N_24
    9  A    between atoms: C_16  and  C_27
   10  A    between atoms: C_21  and  C_29
   11  A    between atoms: C_27  and  N_30
   12  A    between atoms: C_29  and  N_30
                            x       y       z     vdW  Elec       q    Type
                         _______ _______ _______ _____ _____    ______ ____

>  <TORSDO>
F 12

$$$$
=
 OpenBabel11042414033D

 31 33  0  0  1  0  0  0  0  0999 V2000
  187.5730  177.0680  143.3340 C   0  0  2  0  0  3  0  0  0  0  0  0
  192.1990  174.5930  141.3310 N   0  0  0  0  0  1  0  0  0  0  0  0
  189.7670  175.8550  142.5210 N   0  0  0  0  0  0  0  0  0  0  0  0
  188.4160  175.8930  142.7790 C   0  0  0  0  0  0  0  0  0  0  0  0
  189.8100  174.6500  141.8820 C   0  0  0  0  0  0  0  0  0  0  0  0
  188.1900  173.0540  141.0900 C   0  0  0  0  0  3  0  0  0  0  0  0
  190.8410  174.0490  141.2610 C   0  0  0  0  0  0  0  0  0  0  0  0
  190.5510  172.9320  140.5580 N   0  0  0  0  0  0  0  0  0  0  0  0
  188.5620  174.1370  141.7830 C   0  0  0  0  0  0  0  0  0  0  0  0
  187.6450  174.9500  142.3550 N   0  0  0  0  0  2  0  0  0  0  0  0
  189.2510  172.4130  140.4680 C   0  0  0  0  0  3  0  0  0  0  0  0
  188.2060  177.5080  144.6870 C   0  0  0  0  0  2  0  0  0  0  0  0
  187.4940  176.1390  146.5880 O   0  0  0  0  0  1  0  0  0  0  0  0
  188.5050  176.4960  145.8310 C   0  0  2  0  0  3  0  0  0  0  0  0
  192.2240  175.7480  146.7340 C   0  0  0  0  0  0  0  0  0  0  0  0
  189.8510  176.3170  146.4600 C   0  0  0  0  0  0  0  0  0  0  0  0
  191.3310  176.5680  145.5560 S   0  0  0  0  0  0  0  0  0  0  0  0
  191.3730  175.1830  147.7110 N   0  0  0  0  0  0  0  0  0  0  0  0
  190.0920  175.5140  147.5410 N   0  0  0  0  0  0  0  0  0  0  0  0
  193.5700  175.1580  146.2830 C   0  0  0  0  0  2  0  0  0  0  0  0
  194.5250  176.4310  145.9980 C   0  0  0  0  0  0  0  0  0  0  0  0
  195.0230  176.5120  144.8290 O   0  0  0  0  0  0  0  0  0  0  0  0
  194.6530  177.6210  146.6950 O   0  0  0  0  0  1  0  0  0  0  0  0
  186.1250  176.7070  143.3950 N   0  0  0  0  0  2  0  0  0  0  0  0
  185.1750  177.9020  143.1060 C   0  0  2  0  0  3  0  0  0  0  0  0
  185.6500  178.5840  142.0150 O   0  0  0  0  0  0  0  0  0  0  0  0
  184.8680  178.1890  140.9730 C   0  0  0  0  0  1  0  0  0  0  0  0
  184.9800  179.1570  144.0730 C   0  0  0  0  0  2  0  0  0  0  0  0
  183.9190  178.8500  145.0880 N   0  0  0  0  0  2  0  0  0  0  0  0
  185.5480  179.0490  146.8280 C   0  0  0  0  0  1  0  0  0  0  0  0
  184.4590  178.1430  146.2450 C   0  0  0  0  0  2  0  0  0  0  0  0
  1 24  1  0  0  0  0
  1 12  1  1  0  0  0
  3  4  2  0  0  0  0
  4  1  1  0  0  0  0
  5  3  1  0  0  0  0
  6  9  2  0  0  0  0
  7  2  1  0  0  0  0
  7  5  2  0  0  0  0
  8  7  1  0  0  0  0
  9  5  1  0  0  0  0
  9 10  1  0  0  0  0
 10  4  1  0  0  0  0
 11  8  2  0  0  0  0
 11  6  1  0  0  0  0
 12 14  1  0  0  0  0
 14 16  1  0  0  0  0
 14 13  1  1  0  0  0
 15 18  2  0  0  0  0
 16 19  2  0  0  0  0
 17 16  1  0  0  0  0
 17 15  1  0  0  0  0
 19 18  1  0  0  0  0
 20 15  1  0  0  0  0
 21 20  1  0  0  0  0
 21 23  1  0  0  0  0
 22 21  2  0  0  0  0
 25 24  1  0  0  0  0
 25 28  1  1  0  0  0
 26 25  1  0  0  0  0
 27 26  1  0  0  0  0
 28 29  1  0  0  0  0
 29 31  1  0  0  0  0
 31 30  1  0  0  0  0
M  END
>  <MODEL>
2

>  <REMARK>
 VINA RESULT:      -6.2      2.641      6.052
  Name = 
  12 active torsions:
  status: ('A' for Active; 'I' for Inactive)
    1  A    between atoms: C_4  and  C_5
    2  A    between atoms: C_5  and  C_8
    3  A    between atoms: C_6  and  C_7
    4  A    between atoms: C_6  and  C_21
    5  A    between atoms: C_10  and  N_24
    6  A    between atoms: O_11  and  C_27
    7  A    between atoms: C_15  and  C_29
    8  A    between atoms: C_16  and  N_24
    9  A    between atoms: C_16  and  C_27
   10  A    between atoms: C_21  and  C_29
   11  A    between atoms: C_27  and  N_30
   12  A    between atoms: C_29  and  N_30
                            x       y       z     vdW  Elec       q    Type
                         _______ _______ _______ _____ _____    ______ ____

>  <TORSDO>
F 12

$$$$
=
 OpenBabel11042414033D

 31 33  0  0  1  0  0  0  0  0999 V2000
  189.7150  176.3140  144.4690 C   0  0  2  0  0  3  0  0  0  0  0  0
  185.5230  180.0270  144.0330 N   0  0  0  0  0  1  0  0  0  0  0  0
  187.6830  177.9680  144.1790 N   0  0  0  0  0  0  0  0  0  0  0  0
  188.3240  176.9160  144.7910 C   0  0  0  0  0  0  0  0  0  0  0  0
  186.6420  178.0960  145.0520 C   0  0  0  0  0  0  0  0  0  0  0  0
  186.0350  177.1340  147.1730 C   0  0  0  0  0  3  0  0  0  0  0  0
  185.6760  179.0320  145.0970 C   0  0  0  0  0  0  0  0  0  0  0  0
  184.8710  179.0130  146.1820 N   0  0  0  0  0  0  0  0  0  0  0  0
  186.7730  177.2030  146.0590 C   0  0  0  0  0  0  0  0  0  0  0  0
  187.8760  176.4370  145.9020 N   0  0  0  0  0  2  0  0  0  0  0  0
  185.0200  178.0780  147.2160 C   0  0  0  0  0  3  0  0  0  0  0  0
  190.7540  176.9930  145.4080 C   0  0  0  0  0  2  0  0  0  0  0  0
  191.2100  176.6190  147.7840 O   0  0  0  0  0  1  0  0  0  0  0  0
  191.4620  176.2200  146.5600 C   0  0  2  0  0  3  0  0  0  0  0  0
  195.0200  174.8940  145.6750 C   0  0  0  0  0  0  0  0  0  0  0  0
  192.7440  175.4680  146.3990 C   0  0  0  0  0  0  0  0  0  0  0  0
  194.2880  176.2900  146.2820 S   0  0  0  0  0  0  0  0  0  0  0  0
  194.0610  173.8820  145.4410 N   0  0  0  0  0  0  0  0  0  0  0  0
  192.8370  174.2190  145.8500 N   0  0  0  0  0  0  0  0  0  0  0  0
  196.3100  175.0970  144.8640 C   0  0  0  0  0  2  0  0  0  0  0  0
  195.9210  176.1360  143.6880 C   0  0  0  0  0  0  0  0  0  0  0  0
  196.7980  177.0100  143.3940 O   0  0  0  0  0  1  0  0  0  0  0  0
  194.9300  176.0580  142.7220 O   0  0  0  0  0  0  0  0  0  0  0  0
  190.0150  176.4090  143.0100 N   0  0  0  0  0  2  0  0  0  0  0  0
  189.6600  175.1220  142.2170 C   0  0  2  0  0  3  0  0  0  0  0  0
  188.4470  175.3070  141.6040 O   0  0  0  0  0  0  0  0  0  0  0  0
  188.5260  174.6200  140.4310 C   0  0  0  0  0  1  0  0  0  0  0  0
  189.3480  173.7060  142.8840 C   0  0  0  0  0  2  0  0  0  0  0  0
  190.5930  172.8680  142.8940 N   0  0  0  0  0  2  0  0  0  0  0  0
  189.7670  172.5330  145.1140 C   0  0  0  0  0  1  0  0  0  0  0  0
  190.5900  171.9000  143.9870 C   0  0  0  0  0  2  0  0  0  0  0  0
  1  4  1  0  0  0  0
  1 12  1  1  0  0  0
  2  7  1  0  0  0  0
  3  4  2  0  0  0  0
  3  5  1  0  0  0  0
  4 10  1  0  0  0  0
  5  7  2  0  0  0  0
  5  9  1  0  0  0  0
  6 11  1  0  0  0  0
  7  8  1  0  0  0  0
  8 11  2  0  0  0  0
  9  6  2  0  0  0  0
 10  9  1  0  0  0  0
 12 14  1  0  0  0  0
 14 13  1  1  0  0  0
 15 17  1  0  0  0  0
 16 14  1  0  0  0  0
 17 16  1  0  0  0  0
 18 15  2  0  0  0  0
 18 19  1  0  0  0  0
 19 16  2  0  0  0  0
 20 15  1  0  0  0  0
 21 20  1  0  0  0  0
 22 21  1  0  0  0  0
 23 21  2  0  0  0  0
 24  1  1  0  0  0  0
 25 28  1  1  0  0  0
 25 24  1  0  0  0  0
 26 25  1  0  0  0  0
 27 26  1  0  0  0  0
 28 29  1  0  0  0  0
 29 31  1  0  0  0  0
 31 30  1  0  0  0  0
M  END
>  <MODEL>
3

>  <REMARK>
 VINA RESULT:      -6.0      3.184      7.721
  Name = 
  12 active torsions:
  status: ('A' for Active; 'I' for Inactive)
    1  A    between atoms: C_4  and  C_5
    2  A    between atoms: C_5  and  C_8
    3  A    between atoms: C_6  and  C_7
    4  A    between atoms: C_6  and  C_21
    5  A    between atoms: C_10  and  N_24
    6  A    between atoms: O_11  and  C_27
    7  A    between atoms: C_15  and  C_29
    8  A    between atoms: C_16  and  N_24
    9  A    between atoms: C_16  and  C_27
   10  A    between atoms: C_21  and  C_29
   11  A    between atoms: C_27  and  N_30
   12  A    between atoms: C_29  and  N_30
                            x       y       z     vdW  Elec       q    Type
                         _______ _______ _______ _____ _____    ______ ____

>  <TORSDO>
F 12

$$$$
=
 OpenBabel11042414033D

 31 33  0  0  1  0  0  0  0  0999 V2000
  187.4730  177.1860  143.8160 C   0  0  2  0  0  3  0  0  0  0  0  0
  189.2190  172.3510  141.5530 N   0  0  0  0  0  1  0  0  0  0  0  0
  188.2530  174.9650  142.6310 N   0  0  0  0  0  0  0  0  0  0  0  0
  188.4580  176.2520  143.0680 C   0  0  0  0  0  0  0  0  0  0  0  0
  189.5350  174.6780  142.2610 C   0  0  0  0  0  0  0  0  0  0  0  0
  191.6750  175.7620  142.4580 C   0  0  0  0  0  3  0  0  0  0  0  0
  190.0620  173.5140  141.8380 C   0  0  0  0  0  0  0  0  0  0  0  0
  191.4060  173.4740  141.7090 N   0  0  0  0  0  0  0  0  0  0  0  0
  190.3400  175.7290  142.5370 C   0  0  0  0  0  0  0  0  0  0  0  0
  189.6460  176.7560  143.0760 N   0  0  0  0  0  2  0  0  0  0  0  0
  192.2250  174.5750  141.9970 C   0  0  0  0  0  3  0  0  0  0  0  0
  188.0290  177.4050  145.2540 C   0  0  0  0  0  2  0  0  0  0  0  0
  187.4260  176.0280  147.1870 O   0  0  0  0  0  1  0  0  0  0  0  0
  188.3010  176.2220  146.2290 C   0  0  2  0  0  3  0  0  0  0  0  0
  192.0980  175.4960  146.7380 C   0  0  0  0  0  0  0  0  0  0  0  0
  189.6590  175.6560  146.4990 C   0  0  0  0  0  0  0  0  0  0  0  0
  190.9320  176.6200  147.2220 S   0  0  0  0  0  0  0  0  0  0  0  0
  191.5250  174.4930  145.9240 N   0  0  0  0  0  0  0  0  0  0  0  0
  190.2000  174.6010  145.8180 N   0  0  0  0  0  0  0  0  0  0  0  0
  193.5400  176.0160  146.6210 C   0  0  0  0  0  2  0  0  0  0  0  0
  194.2490  175.0730  145.5140 C   0  0  0  0  0  0  0  0  0  0  0  0
  194.5890  175.6390  144.4260 O   0  0  0  0  0  0  0  0  0  0  0  0
  194.8400  173.8280  145.6530 O   0  0  0  0  0  1  0  0  0  0  0  0
  186.0780  176.6600  143.7450 N   0  0  0  0  0  2  0  0  0  0  0  0
  185.1180  177.5590  142.9180 C   0  0  2  0  0  3  0  0  0  0  0  0
  185.8710  178.3890  142.1260 O   0  0  0  0  0  0  0  0  0  0  0  0
  185.4630  178.1410  140.8520 C   0  0  0  0  0  1  0  0  0  0  0  0
  184.1570  178.6710  143.5410 C   0  0  0  0  0  2  0  0  0  0  0  0
  184.7280  179.1600  144.8390 N   0  0  0  0  0  2  0  0  0  0  0  0
  185.0500  178.6240  147.1480 C   0  0  0  0  0  1  0  0  0  0  0  0
  184.0480  178.5720  145.9890 C   0  0  0  0  0  2  0  0  0  0  0  0
  1 12  1  1  0  0  0
  2  7  1  0  0  0  0
  3  4  2  0  0  0  0
  4 10  1  0  0  0  0
  4  1  1  0  0  0  0
  5  9  1  0  0  0  0
  5  3  1  0  0  0  0
  6  9  2  0  0  0  0
  7  5  2  0  0  0  0
  8  7  1  0  0  0  0
  8 11  2  0  0  0  0
  9 10  1  0  0  0  0
 11  6  1  0  0  0  0
 12 14  1  0  0  0  0
 14 16  1  0  0  0  0
 14 13  1  1  0  0  0
 15 17  1  0  0  0  0
 16 17  1  0  0  0  0
 18 15  2  0  0  0  0
 19 18  1  0  0  0  0
 19 16  2  0  0  0  0
 20 15  1  0  0  0  0
 21 23  1  0  0  0  0
 21 20  1  0  0  0  0
 22 21  2  0  0  0  0
 24  1  1  0  0  0  0
 25 28  1  1  0  0  0
 25 24  1  0  0  0  0
 26 25  1  0  0  0  0
 27 26  1  0  0  0  0
 28 29  1  0  0  0  0
 29 31  1  0  0  0  0
 31 30  1  0  0  0  0
M  END
>  <MODEL>
4

>  <REMARK>
 VINA RESULT:      -6.0      2.619      5.821
  Name = 
  12 active torsions:
  status: ('A' for Active; 'I' for Inactive)
    1  A    between atoms: C_4  and  C_5
    2  A    between atoms: C_5  and  C_8
    3  A    between atoms: C_6  and  C_7
    4  A    between atoms: C_6  and  C_21
    5  A    between atoms: C_10  and  N_24
    6  A    between atoms: O_11  and  C_27
    7  A    between atoms: C_15  and  C_29
    8  A    between atoms: C_16  and  N_24
    9  A    between atoms: C_16  and  C_27
   10  A    between atoms: C_21  and  C_29
   11  A    between atoms: C_27  and  N_30
   12  A    between atoms: C_29  and  N_30
                            x       y       z     vdW  Elec       q    Type
                         _______ _______ _______ _____ _____    ______ ____

>  <TORSDO>
F 12

$$$$
=
 OpenBabel11042414033D

 31 33  0  0  1  0  0  0  0  0999 V2000
  187.0550  176.7060  144.4440 C   0  0  2  0  0  3  0  0  0  0  0  0
  190.2490  178.6530  148.6340 N   0  0  0  0  0  1  0  0  0  0  0  0
  188.4590  177.5730  146.4990 N   0  0  0  0  0  0  0  0  0  0  0  0
  188.0890  176.6060  145.5940 C   0  0  0  0  0  0  0  0  0  0  0  0
  189.5110  176.9160  147.0680 C   0  0  0  0  0  0  0  0  0  0  0  0
  190.7090  174.8720  146.6380 C   0  0  0  0  0  3  0  0  0  0  0  0
  190.4030  177.3540  147.9750 C   0  0  0  0  0  0  0  0  0  0  0  0
  191.4510  176.5410  148.2300 N   0  0  0  0  0  0  0  0  0  0  0  0
  189.6900  175.7200  146.4600 C   0  0  0  0  0  0  0  0  0  0  0  0
  188.7730  175.5170  145.4870 N   0  0  0  0  0  2  0  0  0  0  0  0
  191.6200  175.3040  147.5910 C   0  0  0  0  0  3  0  0  0  0  0  0
  187.6580  177.6270  143.3440 C   0  0  0  0  0  2  0  0  0  0  0  0
  188.4820  176.3090  141.4520 O   0  0  0  0  0  1  0  0  0  0  0  0
  188.8050  177.1550  142.4020 C   0  0  2  0  0  3  0  0  0  0  0  0
  192.4230  176.3580  143.6160 C   0  0  0  0  0  0  0  0  0  0  0  0
  190.2510  177.1450  142.7830 C   0  0  0  0  0  0  0  0  0  0  0  0
  191.2450  175.7140  142.5890 S   0  0  0  0  0  0  0  0  0  0  0  0
  191.9820  177.5700  144.1930 N   0  0  0  0  0  0  0  0  0  0  0  0
  190.8040  177.9760  143.7160 N   0  0  0  0  0  0  0  0  0  0  0  0
  193.3670  175.3480  144.2890 C   0  0  0  0  0  2  0  0  0  0  0  0
  194.5720  176.2320  144.9070 C   0  0  0  0  0  0  0  0  0  0  0  0
  194.7380  176.1570  146.1660 O   0  0  0  0  0  1  0  0  0  0  0  0
  195.6610  176.8150  144.2790 O   0  0  0  0  0  0  0  0  0  0  0  0
  185.7170  177.1210  144.9610 N   0  0  0  0  0  2  0  0  0  0  0  0
  185.4290  178.6380  144.7880 C   0  0  2  0  0  3  0  0  0  0  0  0
  184.9080  179.1200  145.9620 O   0  0  0  0  0  0  0  0  0  0  0  0
  184.3350  178.0460  146.5720 C   0  0  0  0  0  1  0  0  0  0  0  0
  184.3300  179.2430  143.8020 C   0  0  0  0  0  2  0  0  0  0  0  0
  183.8530  178.1760  142.8620 N   0  0  0  0  0  2  0  0  0  0  0  0
  183.3650  178.2770  140.5230 C   0  0  0  0  0  1  0  0  0  0  0  0
  184.4970  178.2720  141.5560 C   0  0  0  0  0  2  0  0  0  0  0  0
  1 12  1  6  0  0  0
  1 24  1  0  0  0  0
  1  4  1  0  0  0  0
  3  5  1  0  0  0  0
  4  3  2  0  0  0  0
  5  7  1  0  0  0  0
  6 11  2  0  0  0  0
  7  8  2  0  0  0  0
  7  2  1  0  0  0  0
  9  6  1  0  0  0  0
  9  5  2  0  0  0  0
 10  4  1  0  0  0  0
 10  9  1  0  0  0  0
 11  8  1  0  0  0  0
 14 13  1  1  0  0  0
 14 16  1  0  0  0  0
 14 12  1  0  0  0  0
 15 18  2  0  0  0  0
 15 20  1  0  0  0  0
 16 19  2  0  0  0  0
 17 16  1  0  0  0  0
 17 15  1  0  0  0  0
 19 18  1  0  0  0  0
 20 21  1  0  0  0  0
 21 22  1  0  0  0  0
 23 21  2  0  0  0  0
 25 28  1  6  0  0  0
 25 24  1  0  0  0  0
 25 26  1  0  0  0  0
 26 27  1  0  0  0  0
 29 28  1  0  0  0  0
 30 31  1  0  0  0  0
 31 29  1  0  0  0  0
M  END
>  <MODEL>
5

>  <REMARK>
 VINA RESULT:      -6.0      2.816      6.199
  Name = 
  12 active torsions:
  status: ('A' for Active; 'I' for Inactive)
    1  A    between atoms: C_4  and  C_5
    2  A    between atoms: C_5  and  C_8
    3  A    between atoms: C_6  and  C_7
    4  A    between atoms: C_6  and  C_21
    5  A    between atoms: C_10  and  N_24
    6  A    between atoms: O_11  and  C_27
    7  A    between atoms: C_15  and  C_29
    8  A    between atoms: C_16  and  N_24
    9  A    between atoms: C_16  and  C_27
   10  A    between atoms: C_21  and  C_29
   11  A    between atoms: C_27  and  N_30
   12  A    between atoms: C_29  and  N_30
                            x       y       z     vdW  Elec       q    Type
                         _______ _______ _______ _____ _____    ______ ____

>  <TORSDO>
F 12

$$$$
=
 OpenBabel11042414033D

 31 33  0  0  1  0  0  0  0  0999 V2000
  189.4560  176.1560  144.3450 C   0  0  2  0  0  3  0  0  0  0  0  0
  185.5660  180.1880  143.9530 N   0  0  0  0  0  1  0  0  0  0  0  0
  187.5690  177.9730  144.0620 N   0  0  0  0  0  0  0  0  0  0  0  0
  188.0830  176.8220  144.6110 C   0  0  0  0  0  0  0  0  0  0  0  0
  186.4620  178.0890  144.8530 C   0  0  0  0  0  0  0  0  0  0  0  0
  185.6060  176.9670  146.8030 C   0  0  0  0  0  3  0  0  0  0  0  0
  185.5580  179.0840  144.9160 C   0  0  0  0  0  0  0  0  0  0  0  0
  184.6590  179.0160  145.9210 N   0  0  0  0  0  0  0  0  0  0  0  0
  186.4440  177.0930  145.7680 C   0  0  0  0  0  0  0  0  0  0  0  0
  187.5060  176.2690  145.6240 N   0  0  0  0  0  2  0  0  0  0  0  0
  184.6530  177.9740  146.8600 C   0  0  0  0  0  3  0  0  0  0  0  0
  190.5300  176.9450  145.1490 C   0  0  0  0  0  2  0  0  0  0  0  0
  191.3340  176.8340  147.4590 O   0  0  0  0  0  1  0  0  0  0  0  0
  191.3820  176.2810  146.2700 C   0  0  2  0  0  3  0  0  0  0  0  0
  194.8640  174.8180  145.3030 C   0  0  0  0  0  0  0  0  0  0  0  0
  192.6020  175.4530  146.0160 C   0  0  0  0  0  0  0  0  0  0  0  0
  194.2160  176.1210  146.1620 S   0  0  0  0  0  0  0  0  0  0  0  0
  193.8400  173.9810  144.8040 N   0  0  0  0  0  0  0  0  0  0  0  0
  192.6240  174.3460  145.2130 N   0  0  0  0  0  0  0  0  0  0  0  0
  196.2230  175.0560  144.6240 C   0  0  0  0  0  2  0  0  0  0  0  0
  195.9590  176.2140  143.5270 C   0  0  0  0  0  0  0  0  0  0  0  0
  196.8110  177.1580  143.4870 O   0  0  0  0  0  1  0  0  0  0  0  0
  195.1440  176.2100  142.4060 O   0  0  0  0  0  0  0  0  0  0  0  0
  189.7180  176.0340  142.8800 N   0  0  0  0  0  2  0  0  0  0  0  0
  188.5620  175.3540  142.0970 C   0  0  2  0  0  3  0  0  0  0  0  0
  189.0570  174.2400  141.4680 O   0  0  0  0  0  0  0  0  0  0  0  0
  188.5330  173.1800  142.1420 C   0  0  0  0  0  1  0  0  0  0  0  0
  187.8190  175.9970  140.8400 C   0  0  0  0  0  2  0  0  0  0  0  0
  186.6690  176.8370  141.3100 N   0  0  0  0  0  2  0  0  0  0  0  0
  184.8510  178.2920  140.7620 C   0  0  0  0  0  1  0  0  0  0  0  0
  186.1950  177.7450  140.2700 C   0  0  0  0  0  2  0  0  0  0  0  0
  1  4  1  0  0  0  0
  1 12  1  1  0  0  0
  2  7  1  0  0  0  0
  3  4  2  0  0  0  0
  3  5  1  0  0  0  0
  4 10  1  0  0  0  0
  5  7  2  0  0  0  0
  5  9  1  0  0  0  0
  6 11  1  0  0  0  0
  7  8  1  0  0  0  0
  8 11  2  0  0  0  0
  9  6  2  0  0  0  0
 10  9  1  0  0  0  0
 12 14  1  0  0  0  0
 14 13  1  1  0  0  0
 15 17  1  0  0  0  0
 16 17  1  0  0  0  0
 16 14  1  0  0  0  0
 18 19  1  0  0  0  0
 18 15  2  0  0  0  0
 19 16  2  0  0  0  0
 20 15  1  0  0  0  0
 21 20  1  0  0  0  0
 22 21  1  0  0  0  0
 23 21  2  0  0  0  0
 24  1  1  0  0  0  0
 25 28  1  6  0  0  0
 25 24  1  0  0  0  0
 26 25  1  0  0  0  0
 26 27  1  0  0  0  0
 28 29  1  0  0  0  0
 31 30  1  0  0  0  0
 31 29  1  0  0  0  0
M  END
>  <MODEL>
6

>  <REMARK>
 VINA RESULT:      -5.9      2.978      7.394
  Name = 
  12 active torsions:
  status: ('A' for Active; 'I' for Inactive)
    1  A    between atoms: C_4  and  C_5
    2  A    between atoms: C_5  and  C_8
    3  A    between atoms: C_6  and  C_7
    4  A    between atoms: C_6  and  C_21
    5  A    between atoms: C_10  and  N_24
    6  A    between atoms: O_11  and  C_27
    7  A    between atoms: C_15  and  C_29
    8  A    between atoms: C_16  and  N_24
    9  A    between atoms: C_16  and  C_27
   10  A    between atoms: C_21  and  C_29
   11  A    between atoms: C_27  and  N_30
   12  A    between atoms: C_29  and  N_30
                            x       y       z     vdW  Elec       q    Type
                         _______ _______ _______ _____ _____    ______ ____

>  <TORSDO>
F 12

$$$$
=
 OpenBabel11042414033D

 31 33  0  0  1  0  0  0  0  0999 V2000
  189.4590  176.3340  145.0900 C   0  0  2  0  0  3  0  0  0  0  0  0
  184.4280  177.9540  143.1920 N   0  0  0  0  0  1  0  0  0  0  0  0
  187.0570  176.9620  144.2060 N   0  0  0  0  0  0  0  0  0  0  0  0
  187.9670  176.7350  145.2120 C   0  0  0  0  0  0  0  0  0  0  0  0
  186.0410  177.4560  144.9710 C   0  0  0  0  0  0  0  0  0  0  0  0
  185.7630  178.0890  147.2770 C   0  0  0  0  0  3  0  0  0  0  0  0
  184.8640  177.9860  144.5890 C   0  0  0  0  0  0  0  0  0  0  0  0
  184.1200  178.5600  145.5600 N   0  0  0  0  0  0  0  0  0  0  0  0
  186.4280  177.5190  146.2660 C   0  0  0  0  0  0  0  0  0  0  0  0
  187.6890  177.0610  146.4280 N   0  0  0  0  0  2  0  0  0  0  0  0
  184.5360  178.6140  146.8980 C   0  0  0  0  0  3  0  0  0  0  0  0
  190.2570  177.1540  146.1460 C   0  0  0  0  0  2  0  0  0  0  0  0
  191.2490  176.9960  148.3780 O   0  0  0  0  0  1  0  0  0  0  0  0
  191.2120  176.4780  147.1740 C   0  0  2  0  0  3  0  0  0  0  0  0
  194.5500  175.0670  145.7350 C   0  0  0  0  0  0  0  0  0  0  0  0
  192.4230  175.6850  146.7960 C   0  0  0  0  0  0  0  0  0  0  0  0
  193.9750  176.4510  146.5150 S   0  0  0  0  0  0  0  0  0  0  0  0
  193.5210  174.1110  145.5780 N   0  0  0  0  0  0  0  0  0  0  0  0
  192.3810  174.4710  146.1700 N   0  0  0  0  0  0  0  0  0  0  0  0
  195.7280  175.2680  144.7680 C   0  0  0  0  0  2  0  0  0  0  0  0
  196.8220  174.1530  145.1840 C   0  0  0  0  0  0  0  0  0  0  0  0
  196.8390  173.8080  146.4090 O   0  0  0  0  0  1  0  0  0  0  0  0
  197.5400  173.2710  144.3920 O   0  0  0  0  0  0  0  0  0  0  0  0
  189.9380  176.4690  143.6830 N   0  0  0  0  0  2  0  0  0  0  0  0
  190.7030  175.2200  143.1650 C   0  0  2  0  0  3  0  0  0  0  0  0
  191.6400  175.6300  142.2510 O   0  0  0  0  0  0  0  0  0  0  0  0
  192.4950  176.4310  142.9430 C   0  0  0  0  0  1  0  0  0  0  0  0
  190.0480  174.0550  142.2930 C   0  0  0  0  0  2  0  0  0  0  0  0
  190.5470  172.7250  142.7730 N   0  0  0  0  0  2  0  0  0  0  0  0
  189.7020  172.2850  144.9670 C   0  0  0  0  0  1  0  0  0  0  0  0
  189.5110  171.9760  143.4780 C   0  0  0  0  0  2  0  0  0  0  0  0
  1  4  1  0  0  0  0
  1 12  1  1  0  0  0
  2  7  1  0  0  0  0
  3  5  1  0  0  0  0
  3  4  2  0  0  0  0
  4 10  1  0  0  0  0
  5  9  1  0  0  0  0
  7  5  2  0  0  0  0
  7  8  1  0  0  0  0
  8 11  2  0  0  0  0
  9 10  1  0  0  0  0
  9  6  2  0  0  0  0
 11  6  1  0  0  0  0
 12 14  1  0  0  0  0
 14 13  1  1  0  0  0
 15 17  1  0  0  0  0
 16 14  1  0  0  0  0
 17 16  1  0  0  0  0
 18 15  2  0  0  0  0
 18 19  1  0  0  0  0
 19 16  2  0  0  0  0
 20 21  1  0  0  0  0
 20 15  1  0  0  0  0
 21 22  1  0  0  0  0
 23 21  2  0  0  0  0
 24  1  1  0  0  0  0
 25 28  1  6  0  0  0
 25 24  1  0  0  0  0
 26 27  1  0  0  0  0
 26 25  1  0  0  0  0
 28 29  1  0  0  0  0
 29 31  1  0  0  0  0
 31 30  1  0  0  0  0
M  END
>  <MODEL>
7

>  <REMARK>
 VINA RESULT:      -5.9      3.416      8.082
  Name = 
  12 active torsions:
  status: ('A' for Active; 'I' for Inactive)
    1  A    between atoms: C_4  and  C_5
    2  A    between atoms: C_5  and  C_8
    3  A    between atoms: C_6  and  C_7
    4  A    between atoms: C_6  and  C_21
    5  A    between atoms: C_10  and  N_24
    6  A    between atoms: O_11  and  C_27
    7  A    between atoms: C_15  and  C_29
    8  A    between atoms: C_16  and  N_24
    9  A    between atoms: C_16  and  C_27
   10  A    between atoms: C_21  and  C_29
   11  A    between atoms: C_27  and  N_30
   12  A    between atoms: C_29  and  N_30
                            x       y       z     vdW  Elec       q    Type
                         _______ _______ _______ _____ _____    ______ ____

>  <TORSDO>
F 12

$$$$
=
 OpenBabel11042414033D

 31 33  0  0  1  0  0  0  0  0999 V2000
  190.1020  177.3130  144.9840 C   0  0  2  0  0  3  0  0  0  0  0  0
  184.9870  179.1480  143.5660 N   0  0  0  0  0  1  0  0  0  0  0  0
  187.6730  178.0470  144.2720 N   0  0  0  0  0  0  0  0  0  0  0  0
  188.5780  177.5220  145.1650 C   0  0  0  0  0  0  0  0  0  0  0  0
  186.5980  178.1310  145.1100 C   0  0  0  0  0  0  0  0  0  0  0  0
  186.2120  177.8090  147.4640 C   0  0  0  0  0  3  0  0  0  0  0  0
  185.3870  178.6750  144.8930 C   0  0  0  0  0  0  0  0  0  0  0  0
  184.5720  178.7750  145.9650 N   0  0  0  0  0  0  0  0  0  0  0  0
  186.9490  177.7220  146.3510 C   0  0  0  0  0  0  0  0  0  0  0  0
  188.2430  177.3350  146.3980 N   0  0  0  0  0  2  0  0  0  0  0  0
  184.9510  178.3440  147.2450 C   0  0  0  0  0  3  0  0  0  0  0  0
  190.3050  176.2590  143.8570 C   0  0  0  0  0  2  0  0  0  0  0  0
  189.5830  174.0420  144.6020 O   0  0  0  0  0  1  0  0  0  0  0  0
  189.3990  175.0000  143.7240 C   0  0  2  0  0  3  0  0  0  0  0  0
  188.3810  173.3910  140.3210 C   0  0  0  0  0  0  0  0  0  0  0  0
  188.7540  174.5630  142.4480 C   0  0  0  0  0  0  0  0  0  0  0  0
  188.8940  172.9170  141.8600 S   0  0  0  0  0  0  0  0  0  0  0  0
  188.2490  174.7970  140.2430 N   0  0  0  0  0  0  0  0  0  0  0  0
  188.4500  175.4050  141.4140 N   0  0  0  0  0  0  0  0  0  0  0  0
  188.7810  172.4730  139.1550 C   0  0  0  0  0  2  0  0  0  0  0  0
  190.0340  173.2040  138.4410 C   0  0  0  0  0  0  0  0  0  0  0  0
  189.7950  173.7760  137.3300 O   0  0  0  0  0  0  0  0  0  0  0  0
  191.2560  173.5920  138.9670 O   0  0  0  0  0  1  0  0  0  0  0  0
  190.7570  176.9890  146.2860 N   0  0  0  0  0  2  0  0  0  0  0  0
  192.0290  176.1100  146.1380 C   0  0  2  0  0  3  0  0  0  0  0  0
  191.8820  174.9930  146.9210 O   0  0  0  0  0  0  0  0  0  0  0  0
  191.1320  175.3920  147.9840 C   0  0  0  0  0  1  0  0  0  0  0  0
  193.4840  176.5320  146.6400 C   0  0  0  0  0  2  0  0  0  0  0  0
  194.2820  177.0620  145.4850 N   0  0  0  0  0  2  0  0  0  0  0  0
  195.4140  175.0000  145.9150 C   0  0  0  0  0  1  0  0  0  0  0  0
  195.0490  176.0110  144.8230 C   0  0  0  0  0  2  0  0  0  0  0  0
  1 12  1  6  0  0  0
  1  4  1  0  0  0  0
  1 24  1  0  0  0  0
  2  7  1  0  0  0  0
  3  5  1  0  0  0  0
  3  4  2  0  0  0  0
  4 10  1  0  0  0  0
  5  9  1  0  0  0  0
  7  5  2  0  0  0  0
  7  8  1  0  0  0  0
  8 11  2  0  0  0  0
  9 10  1  0  0  0  0
  9  6  2  0  0  0  0
 11  6  1  0  0  0  0
 14 12  1  0  0  0  0
 14 13  1  6  0  0  0
 15 17  1  0  0  0  0
 16 14  1  0  0  0  0
 17 16  1  0  0  0  0
 18 15  2  0  0  0  0
 18 19  1  0  0  0  0
 19 16  2  0  0  0  0
 20 15  1  0  0  0  0
 21 23  1  0  0  0  0
 21 20  1  0  0  0  0
 22 21  2  0  0  0  0
 25 24  1  0  0  0  0
 25 28  1  1  0  0  0
 25 26  1  0  0  0  0
 26 27  1  0  0  0  0
 29 28  1  0  0  0  0
 31 29  1  0  0  0  0
 31 30  1  0  0  0  0
M  END
>  <MODEL>
8

>  <REMARK>
 VINA RESULT:      -5.8      3.143      7.778
  Name = 
  12 active torsions:
  status: ('A' for Active; 'I' for Inactive)
    1  A    between atoms: C_4  and  C_5
    2  A    between atoms: C_5  and  C_8
    3  A    between atoms: C_6  and  C_7
    4  A    between atoms: C_6  and  C_21
    5  A    between atoms: C_10  and  N_24
    6  A    between atoms: O_11  and  C_27
    7  A    between atoms: C_15  and  C_29
    8  A    between atoms: C_16  and  N_24
    9  A    between atoms: C_16  and  C_27
   10  A    between atoms: C_21  and  C_29
   11  A    between atoms: C_27  and  N_30
   12  A    between atoms: C_29  and  N_30
                            x       y       z     vdW  Elec       q    Type
                         _______ _______ _______ _____ _____    ______ ____

>  <TORSDO>
F 12

$$$$
=
 OpenBabel11042414033D

 31 33  0  0  1  0  0  0  0  0999 V2000
  189.3110  175.8310  142.3000 C   0  0  2  0  0  3  0  0  0  0  0  0
  193.5550  176.7600  145.8590 N   0  0  0  0  0  1  0  0  0  0  0  0
  191.2630  176.3990  143.9770 N   0  0  0  0  0  0  0  0  0  0  0  0
  189.9720  176.0250  143.6880 C   0  0  0  0  0  0  0  0  0  0  0  0
  191.2320  176.1820  145.3240 C   0  0  0  0  0  0  0  0  0  0  0  0
  189.6770  175.2100  146.8840 C   0  0  0  0  0  3  0  0  0  0  0  0
  192.2310  176.2500  146.2240 C   0  0  0  0  0  0  0  0  0  0  0  0
  191.9500  175.8090  147.4690 N   0  0  0  0  0  0  0  0  0  0  0  0
  190.0250  175.6870  145.6830 C   0  0  0  0  0  0  0  0  0  0  0  0
  189.2010  175.5700  144.6180 N   0  0  0  0  0  2  0  0  0  0  0  0
  190.6920  175.3020  147.8250 C   0  0  0  0  0  3  0  0  0  0  0  0
  187.7730  175.7350  142.5180 C   0  0  0  0  0  2  0  0  0  0  0  0
  187.0270  177.2090  140.7110 O   0  0  0  0  0  1  0  0  0  0  0  0
  186.7830  176.7820  141.9270 C   0  0  2  0  0  3  0  0  0  0  0  0
  184.7350  178.6340  144.6800 C   0  0  0  0  0  0  0  0  0  0  0  0
  185.9430  177.7020  142.7560 C   0  0  0  0  0  0  0  0  0  0  0  0
  186.2720  177.9670  144.4570 S   0  0  0  0  0  0  0  0  0  0  0  0
  183.9580  178.5170  143.5050 N   0  0  0  0  0  0  0  0  0  0  0  0
  184.6420  178.0140  142.4760 N   0  0  0  0  0  0  0  0  0  0  0  0
  184.1830  178.6120  146.1140 C   0  0  0  0  0  2  0  0  0  0  0  0
  185.4670  178.3740  147.0670 C   0  0  0  0  0  0  0  0  0  0  0  0
  185.9500  179.4070  147.6310 O   0  0  0  0  0  0  0  0  0  0  0  0
  185.9500  177.2060  147.6350 O   0  0  0  0  0  1  0  0  0  0  0  0
  189.9250  174.6840  141.5690 N   0  0  0  0  0  2  0  0  0  0  0  0
  188.9740  173.4660  141.4150 C   0  0  2  0  0  3  0  0  0  0  0  0
  189.6470  172.3340  141.7990 O   0  0  0  0  0  0  0  0  0  0  0  0
  189.1190  171.9900  143.0050 C   0  0  0  0  0  1  0  0  0  0  0  0
  188.4190  172.9220  140.0210 C   0  0  0  0  0  2  0  0  0  0  0  0
  188.5010  174.0060  138.9880 N   0  0  0  0  0  2  0  0  0  0  0  0
  189.3200  172.4560  137.3600 C   0  0  0  0  0  1  0  0  0  0  0  0
  189.6060  173.7900  138.0580 C   0  0  0  0  0  2  0  0  0  0  0  0
  1 12  1  1  0  0  0
  1  4  1  0  0  0  0
  2  7  1  0  0  0  0
  3  5  1  0  0  0  0
  4  3  2  0  0  0  0
  4 10  1  0  0  0  0
  5  9  2  0  0  0  0
  5  7  1  0  0  0  0
  6 11  2  0  0  0  0
  7  8  2  0  0  0  0
  8 11  1  0  0  0  0
  9  6  1  0  0  0  0
 10  9  1  0  0  0  0
 14 13  1  6  0  0  0
 14 12  1  0  0  0  0
 14 16  1  0  0  0  0
 15 20  1  0  0  0  0
 16 17  1  0  0  0  0
 17 15  1  0  0  0  0
 18 15  2  0  0  0  0
 19 16  2  0  0  0  0
 19 18  1  0  0  0  0
 20 21  1  0  0  0  0
 21 22  2  0  0  0  0
 21 23  1  0  0  0  0
 24  1  1  0  0  0  0
 25 28  1  6  0  0  0
 25 24  1  0  0  0  0
 25 26  1  0  0  0  0
 26 27  1  0  0  0  0
 29 28  1  0  0  0  0
 30 31  1  0  0  0  0
 31 29  1  0  0  0  0
M  END
>  <MODEL>
9

>  <REMARK>
 VINA RESULT:      -5.8      2.477      4.048
  Name = 
  12 active torsions:
  status: ('A' for Active; 'I' for Inactive)
    1  A    between atoms: C_4  and  C_5
    2  A    between atoms: C_5  and  C_8
    3  A    between atoms: C_6  and  C_7
    4  A    between atoms: C_6  and  C_21
    5  A    between atoms: C_10  and  N_24
    6  A    between atoms: O_11  and  C_27
    7  A    between atoms: C_15  and  C_29
    8  A    between atoms: C_16  and  N_24
    9  A    between atoms: C_16  and  C_27
   10  A    between atoms: C_21  and  C_29
   11  A    between atoms: C_27  and  N_30
   12  A    between atoms: C_29  and  N_30
                            x       y       z     vdW  Elec       q    Type
                         _______ _______ _______ _____ _____    ______ ____

>  <TORSDO>
F 12

$$$$
