=
 OpenBabel11042415523D

 50 58  0  0  1  0  0  0  0  0999 V2000
  191.2690  173.4990  142.9420 C   0  0  1  0  0  3  0  0  0  0  0  0
  188.4300  177.9240  143.3300 C   0  0  0  0  0  3  0  0  0  0  0  0
  187.7320  173.3520  142.0330 C   0  0  0  0  0  3  0  0  0  0  0  0
  184.6830  177.7270  143.6070 N   0  0  0  0  0  2  0  0  0  0  0  0
  189.8170  176.0860  142.4830 N   0  0  0  0  0  0  0  0  0  0  0  0
  188.6400  176.7240  142.6610 C   0  0  0  0  0  0  0  0  0  0  0  0
  189.0170  172.6410  142.2270 N   0  0  0  0  0  0  0  0  0  0  0  0
  186.2970  176.2250  142.6330 N   0  0  0  0  0  0  0  0  0  0  0  0
  186.0340  177.4090  143.2640 C   0  0  0  0  0  0  0  0  0  0  0  0
  187.5800  175.9310  142.2990 C   0  0  0  0  0  0  0  0  0  0  0  0
  189.4390  174.9040  141.9340 C   0  0  0  0  0  0  0  0  0  0  0  0
  188.1050  174.7710  141.7990 C   0  0  0  0  0  0  0  0  0  0  0  0
  190.0120  173.6460  142.2130 N   0  0  0  0  0  0  0  0  0  0  0  0
  187.0980  178.2800  143.6160 C   0  0  0  0  0  2  0  0  0  0  0  0
  184.3120  178.9490  144.3070 C   0  0  0  0  0  2  0  0  0  0  0  0
  184.0570  178.6290  145.7700 C   0  0  0  0  0  2  0  0  0  0  0  0
  184.4380  177.3310  146.0490 F   0  0  0  0  0  0  0  0  0  0  0  0
  190.6970  174.5260  145.0540 C   0  0  2  0  0  3  0  0  0  0  0  0
  191.0220  173.3270  144.4420 C   0  0  2  0  0  3  0  0  0  0  0  0
  193.4400  174.1880  145.6640 C   0  0  0  0  0  0  0  0  0  0  0  0
  192.1050  174.0420  145.1910 N   0  0  0  0  0  0  0  0  0  0  0  0
  194.2830  173.2770  145.4560 O   0  0  0  0  0  0  0  0  0  0  0  0
  189.9550  174.2760  146.3540 C   0  0  1  0  0  3  0  0  0  0  0  0
  190.2280  175.4020  147.3360 C   0  0  2  0  0  3  0  0  0  0  0  0
  188.9160  175.3620  146.5890 C   0  0  1  0  0  3  0  0  0  0  0  0
  189.6020  176.6880  146.8360 C   0  0  0  0  0  2  0  0  0  0  0  0
  193.8170  175.4010  146.4440 C   0  0  0  0  0  2  0  0  0  0  0  0
  194.4550  176.4300  145.5310 C   0  0  0  0  0  2  0  0  0  0  0  0
  195.6130  175.8700  144.9200 O   0  0  0  0  0  0  0  0  0  0  0  0
  196.0060  176.2300  143.6300 C   0  0  0  0  0  0  0  0  0  0  0  0
  196.8080  177.1870  143.4390 O   0  0  0  0  0  0  0  0  0  0  0  0
  195.4950  175.4430  142.4670 C   0  0  2  0  0  0  0  0  0  0  0  0
  194.7710  176.1510  141.3910 C   0  0  0  0  0  2  0  0  0  0  0  0
  194.0900  175.4630  142.4200 O   0  0  0  0  0  0  0  0  0  0  0  0
  196.0300  174.0460  142.1900 C   0  0  0  0  0  2  0  0  0  0  0  0
  197.5400  174.0640  141.9950 C   0  0  0  0  0  2  0  0  0  0  0  0
  196.9880  172.1760  141.0010 C   0  0  0  0  0  1  0  0  0  0  0  0
  197.8920  173.2340  140.9300 O   0  0  0  0  0  0  0  0  0  0  0  0
  192.0310  172.3340  142.4020 C   0  0  0  0  0  3  0  0  0  0  0  0
  192.6340  172.3890  141.2170 C   0  0  0  0  0  3  0  0  0  0  0  0
  193.3650  171.2760  140.6970 N   0  0  0  0  0  0  0  0  0  0  0  0
  193.7670  170.2090  141.4150 C   0  0  0  0  0  3  0  0  0  0  0  0
  193.7670  171.0830  139.4280 C   0  0  0  0  0  3  0  0  0  0  0  0
  194.4230  169.8740  139.4170 C   0  0  0  0  0  0  0  0  0  0  0  0
  194.4240  169.3160  140.6460 N   0  0  0  0  0  0  0  0  0  0  0  0
  196.4550  169.5640  138.0590 C   0  0  0  0  0  2  0  0  0  0  0  0
  194.9950  169.2290  138.1990 C   0  0  2  0  0  3  0  0  0  0  0  0
  196.5600  169.8620  136.6000 C   0  0  0  0  0  2  0  0  0  0  0  0
  194.3460  169.6930  137.0460 O   0  0  0  0  0  0  0  0  0  0  0  0
  195.2550  169.5450  136.0410 N   0  0  0  0  0  2  0  0  0  0  0  0
  1 39  1  6  0  0  0
  2 14  1  0  0  0  0
  3  7  2  0  0  0  0
  4 15  1  0  0  0  0
  5  6  1  0  0  0  0
  6  2  2  0  0  0  0
  8  9  2  0  0  0  0
  9  4  1  0  0  0  0
  9 14  1  0  0  0  0
 10  8  1  0  0  0  0
 10  6  1  0  0  0  0
 11 13  1  0  0  0  0
 11  5  2  0  0  0  0
 12 11  1  0  0  0  0
 12  3  1  0  0  0  0
 12 10  2  0  0  0  0
 13  7  1  0  0  0  0
 13  1  1  0  0  0  0
 15 16  1  0  0  0  0
 16 17  1  0  0  0  0
 18 21  1  1  0  0  0
 19  1  1  6  0  0  0
 19 18  1  0  0  0  0
 19 21  1  0  0  0  0
 20 27  1  0  0  0  0
 21 20  1  0  0  0  0
 22 20  2  0  0  0  0
 23 18  1  6  0  0  0
 23 25  1  0  0  0  0
 23 24  1  0  0  0  0
 24 26  1  6  0  0  0
 25 26  1  6  0  0  0
 25 24  1  0  0  0  0
 28 27  1  0  0  0  0
 29 28  1  0  0  0  0
 30 29  1  0  0  0  0
 31 30  2  0  0  0  0
 32 35  1  6  0  0  0
 32 30  1  0  0  0  0
 33 34  1  0  0  0  0
 33 32  1  0  0  0  0
 34 32  1  0  0  0  0
 36 35  1  0  0  0  0
 38 37  1  0  0  0  0
 38 36  1  0  0  0  0
 40 39  2  0  0  0  0
 41 40  1  0  0  0  0
 41 42  1  0  0  0  0
 43 41  1  0  0  0  0
 44 43  2  0  0  0  0
 44 45  1  0  0  0  0
 45 42  2  0  0  0  0
 46 47  1  0  0  0  0
 47 44  1  1  0  0  0
 48 46  1  0  0  0  0
 49 47  1  0  0  0  0
 50 48  1  0  0  0  0
 50 49  1  0  0  0  0
M  END
>  <MODEL>
1

>  <REMARK>
 VINA RESULT:      -6.2      0.000      0.000
  Name = 
  16 active torsions:
  status: ('A' for Active; 'I' for Inactive)
    1  A    between atoms: C_3  and  C_18
    2  A    between atoms: C_3  and  O_21
    3  A    between atoms: N_4  and  C_41
    4  A    between atoms: N_5  and  C_9
    5  A    between atoms: C_7  and  C_18
    6  A    between atoms: C_7  and  C_29
    7  A    between atoms: C_8  and  C_11
    8  A    between atoms: C_9  and  C_32
    9  A    between atoms: C_13  and  C_19
   10  A    between atoms: C_13  and  C_43
   11  A    between atoms: C_15  and  C_44
   12  A    between atoms: C_17  and  C_22
   13  A    between atoms: O_21  and  C_43
   14  A    between atoms: C_29  and  O_35
   15  A    between atoms: C_40  and  C_44
   16  A    between atoms: C_44  and  N_49
                            x       y       z     vdW  Elec       q    Type
                         _______ _______ _______ _____ _____    ______ ____

>  <TORSDO>
F 16

$$$$
=
 OpenBabel11042415523D

 50 58  0  0  1  0  0  0  0  0999 V2000
  187.9580  175.8840  142.6040 C   0  0  1  0  0  3  0  0  0  0  0  0
  193.2240  176.0940  142.7310 C   0  0  0  0  0  3  0  0  0  0  0  0
  189.5930  175.9800  145.8720 C   0  0  0  0  0  3  0  0  0  0  0  0
  195.0690  175.0150  145.8270 N   0  0  0  0  0  2  0  0  0  0  0  0
  190.8460  176.6960  142.7190 N   0  0  0  0  0  0  0  0  0  0  0  0
  192.0240  176.4550  143.3330 C   0  0  0  0  0  0  0  0  0  0  0  0
  188.3390  175.8740  145.0890 N   0  0  0  0  0  0  0  0  0  0  0  0
  192.8380  175.8710  145.5090 N   0  0  0  0  0  0  0  0  0  0  0  0
  194.0480  175.5320  144.9700 C   0  0  0  0  0  0  0  0  0  0  0  0
  191.8740  176.3710  144.6940 C   0  0  0  0  0  0  0  0  0  0  0  0
  189.9860  176.8280  143.7610 C   0  0  2  0  0  3  0  0  0  0  0  0
  190.5620  176.6470  144.9650 C   0  0  0  0  0  0  0  0  0  0  0  0
  188.6580  176.3530  143.7970 N   0  0  0  0  0  0  0  0  0  0  0  0
  194.2610  175.6450  143.5710 C   0  0  0  0  0  3  0  0  0  0  0  0
  196.3750  174.5980  145.3380 C   0  0  0  0  0  2  0  0  0  0  0  0
  196.4840  173.0860  145.4300 C   0  0  0  0  0  2  0  0  0  0  0  0
  197.0960  172.7220  146.6140 F   0  0  0  0  0  0  0  0  0  0  0  0
  189.2960  173.8740  142.7250 C   0  0  2  0  0  3  0  0  0  0  0  0
  188.0210  174.3590  142.4900 C   0  0  2  0  0  3  0  0  0  0  0  0
  189.0980  173.8840  139.9030 C   0  0  0  0  0  0  0  0  0  0  0  0
  188.8600  174.0020  141.3010 N   0  0  0  0  0  0  0  0  0  0  0  0
  188.1780  174.1470  139.0850 O   0  0  0  0  0  0  0  0  0  0  0  0
  189.2430  172.4130  143.1340 C   0  0  1  0  0  3  0  0  0  0  0  0
  190.6490  171.8730  143.3250 C   0  0  2  0  0  3  0  0  0  0  0  0
  189.8150  172.2310  144.5310 C   0  0  1  0  0  3  0  0  0  0  0  0
  191.2980  172.5320  144.5260 C   0  0  0  0  0  2  0  0  0  0  0  0
  190.4250  173.4060  139.4180 C   0  0  0  0  0  2  0  0  0  0  0  0
  191.5160  173.8310  140.3810 C   0  0  0  0  0  2  0  0  0  0  0  0
  192.6940  174.1580  139.6500 O   0  0  0  0  0  0  0  0  0  0  0  0
  193.7690  173.2730  139.5600 C   0  0  0  0  0  0  0  0  0  0  0  0
  193.6970  172.2350  138.8440 O   0  0  0  0  0  0  0  0  0  0  0  0
  195.0320  173.5850  140.2960 C   0  0  2  0  0  0  0  0  0  0  0  0
  195.6390  174.9220  140.1340 C   0  0  0  0  0  2  0  0  0  0  0  0
  196.0970  173.8030  139.4050 O   0  0  0  0  0  0  0  0  0  0  0  0
  195.4700  172.7220  141.4700 C   0  0  0  0  0  2  0  0  0  0  0  0
  194.2770  172.2960  142.3150 C   0  0  0  0  0  2  0  0  0  0  0  0
  195.0230  170.3470  143.0240 C   0  0  0  0  0  1  0  0  0  0  0  0
  194.0700  170.9220  142.1860 O   0  0  0  0  0  0  0  0  0  0  0  0
  186.5390  176.3460  142.6380 C   0  0  0  0  0  3  0  0  0  0  0  0
  186.1740  177.5030  142.0910 C   0  0  0  0  0  3  0  0  0  0  0  0
  184.8160  177.9490  142.1210 N   0  0  0  0  0  0  0  0  0  0  0  0
  184.1530  178.3420  143.2260 C   0  0  0  0  0  3  0  0  0  0  0  0
  183.9720  178.0690  141.0800 C   0  0  0  0  0  3  0  0  0  0  0  0
  182.7890  178.5390  141.6030 C   0  0  0  0  0  0  0  0  0  0  0  0
  182.8900  178.7200  142.9360 N   0  0  0  0  0  0  0  0  0  0  0  0
  180.4540  179.3170  141.6930 C   0  0  0  0  0  2  0  0  0  0  0  0
  181.5780  178.8730  140.7970 C   0  0  2  0  0  3  0  0  0  0  0  0
  179.2900  178.5940  141.0990 C   0  0  0  0  0  2  0  0  0  0  0  0
  181.1320  177.7480  140.0890 O   0  0  0  0  0  0  0  0  0  0  0  0
  179.7990  177.9540  139.8960 N   0  0  0  0  0  2  0  0  0  0  0  0
  1 39  1  1  0  0  0
  1 13  1  0  0  0  0
  2  6  1  0  0  0  0
  2 14  2  0  0  0  0
  5  6  2  0  0  0  0
  6 10  1  0  0  0  0
  7  3  2  0  0  0  0
  9  8  2  0  0  0  0
  9  4  1  0  0  0  0
 10 12  2  0  0  0  0
 10  8  1  0  0  0  0
 11  5  1  6  0  0  0
 11 13  1  0  0  0  0
 11 12  1  0  0  0  0
 12  3  1  0  0  0  0
 13  7  1  0  0  0  0
 14  9  1  0  0  0  0
 15 16  1  0  0  0  0
 15  4  1  0  0  0  0
 16 17  1  0  0  0  0
 18 21  1  6  0  0  0
 19  1  1  6  0  0  0
 19 18  1  0  0  0  0
 20 21  1  0  0  0  0
 21 19  1  0  0  0  0
 22 20  2  0  0  0  0
 23 18  1  6  0  0  0
 23 24  1  0  0  0  0
 23 25  1  0  0  0  0
 24 26  1  6  0  0  0
 24 25  1  0  0  0  0
 25 26  1  6  0  0  0
 27 20  1  0  0  0  0
 27 28  1  0  0  0  0
 29 28  1  0  0  0  0
 30 29  1  0  0  0  0
 30 32  1  0  0  0  0
 31 30  2  0  0  0  0
 32 35  1  1  0  0  0
 33 32  1  0  0  0  0
 34 33  1  0  0  0  0
 34 32  1  0  0  0  0
 35 36  1  0  0  0  0
 38 36  1  0  0  0  0
 38 37  1  0  0  0  0
 40 41  1  0  0  0  0
 40 39  2  0  0  0  0
 41 42  1  0  0  0  0
 43 44  2  0  0  0  0
 43 41  1  0  0  0  0
 44 45  1  0  0  0  0
 45 42  2  0  0  0  0
 47 44  1  1  0  0  0
 47 46  1  0  0  0  0
 48 46  1  0  0  0  0
 49 47  1  0  0  0  0
 50 49  1  0  0  0  0
 50 48  1  0  0  0  0
M  END
>  <MODEL>
2

>  <REMARK>
 VINA RESULT:      -6.2      3.821      9.127
  Name = 
  16 active torsions:
  status: ('A' for Active; 'I' for Inactive)
    1  A    between atoms: C_3  and  C_18
    2  A    between atoms: C_3  and  O_21
    3  A    between atoms: N_4  and  C_41
    4  A    between atoms: N_5  and  C_9
    5  A    between atoms: C_7  and  C_18
    6  A    between atoms: C_7  and  C_29
    7  A    between atoms: C_8  and  C_11
    8  A    between atoms: C_9  and  C_32
    9  A    between atoms: C_13  and  C_19
   10  A    between atoms: C_13  and  C_43
   11  A    between atoms: C_15  and  C_44
   12  A    between atoms: C_17  and  C_22
   13  A    between atoms: O_21  and  C_43
   14  A    between atoms: C_29  and  O_35
   15  A    between atoms: C_40  and  C_44
   16  A    between atoms: C_44  and  N_49
                            x       y       z     vdW  Elec       q    Type
                         _______ _______ _______ _____ _____    ______ ____

>  <TORSDO>
F 16

$$$$
=
 OpenBabel11042415523D

 50 58  0  0  1  0  0  0  0  0999 V2000
  192.4760  173.5310  141.6490 C   0  0  1  0  0  3  0  0  0  0  0  0
  189.4440  177.3610  143.6290 C   0  0  0  0  0  3  0  0  0  0  0  0
  189.7660  172.5780  143.9090 C   0  0  0  0  0  3  0  0  0  0  0  0
  187.4730  176.7530  146.7760 N   0  0  0  0  0  2  0  0  0  0  0  0
  190.3380  175.5570  142.2280 N   0  0  0  0  0  0  0  0  0  0  0  0
  189.5290  176.0440  143.1930 C   0  0  0  0  0  0  0  0  0  0  0  0
  190.9320  172.1680  143.0910 N   0  0  0  0  0  0  0  0  0  0  0  0
  188.2900  175.2450  145.0820 N   0  0  0  0  0  0  0  0  0  0  0  0
  188.1520  176.5270  145.5380 C   0  0  0  0  0  0  0  0  0  0  0  0
  188.9260  175.0350  143.9010 C   0  0  0  0  0  0  0  0  0  0  0  0
  190.1500  174.2160  142.3280 C   0  0  0  0  0  0  0  0  0  0  0  0
  189.3060  173.8590  143.3140 C   0  0  0  0  0  0  0  0  0  0  0  0
  191.1510  173.2320  142.1850 N   0  0  0  0  0  0  0  0  0  0  0  0
  188.7220  177.6060  144.8130 C   0  0  0  0  0  2  0  0  0  0  0  0
  187.3060  178.0790  147.3550 C   0  0  0  0  0  2  0  0  0  0  0  0
  185.8930  178.5680  147.0870 C   0  0  0  0  0  2  0  0  0  0  0  0
  185.8690  179.3620  145.9570 F   0  0  0  0  0  0  0  0  0  0  0  0
  193.6440  172.1140  143.2210 C   0  0  2  0  0  3  0  0  0  0  0  0
  193.4410  172.3640  141.8750 C   0  0  2  0  0  3  0  0  0  0  0  0
  195.9300  173.6020  142.4660 C   0  0  0  0  0  0  0  0  0  0  0  0
  194.6950  172.8930  142.4990 N   0  0  0  0  0  0  0  0  0  0  0  0
  196.3620  174.0610  141.3770 O   0  0  0  0  0  0  0  0  0  0  0  0
  194.1320  170.6920  143.4310 C   0  0  1  0  0  3  0  0  0  0  0  0
  195.2220  170.6650  144.4890 C   0  0  2  0  0  3  0  0  0  0  0  0
  193.8210  170.2270  144.8450 C   0  0  1  0  0  3  0  0  0  0  0  0
  194.6370  171.0200  145.8420 C   0  0  0  0  0  2  0  0  0  0  0  0
  196.7240  173.7570  143.7190 C   0  0  0  0  0  2  0  0  0  0  0  0
  196.6440  175.1880  144.2130 C   0  0  0  0  0  2  0  0  0  0  0  0
  195.8110  175.2470  145.3660 O   0  0  0  0  0  0  0  0  0  0  0  0
  194.7640  176.1650  145.4670 C   0  0  0  0  0  0  0  0  0  0  0  0
  194.8990  177.2330  146.1280 O   0  0  0  0  0  0  0  0  0  0  0  0
  193.4830  175.8890  144.7490 C   0  0  2  0  0  0  0  0  0  0  0  0
  193.3290  176.3660  143.3590 C   0  0  0  0  0  2  0  0  0  0  0  0
  192.8000  177.0830  144.4550 O   0  0  0  0  0  0  0  0  0  0  0  0
  192.5260  174.8260  145.2670 C   0  0  0  0  0  2  0  0  0  0  0  0
  192.3170  174.9580  146.7690 C   0  0  0  0  0  2  0  0  0  0  0  0
  191.1890  176.5300  147.8260 C   0  0  0  0  0  1  0  0  0  0  0  0
  191.0190  175.3980  147.0310 O   0  0  0  0  0  0  0  0  0  0  0  0
  192.3720  173.8460  140.1930 C   0  0  0  0  0  3  0  0  0  0  0  0
  193.3890  174.3870  139.5260 C   0  0  0  0  0  3  0  0  0  0  0  0
  193.2930  174.6890  138.1320 N   0  0  0  0  0  0  0  0  0  0  0  0
  192.4950  174.0530  137.2540 C   0  0  0  0  0  3  0  0  0  0  0  0
  193.9530  175.6480  137.4580 C   0  0  0  0  0  3  0  0  0  0  0  0
  193.5260  175.5560  136.1530 C   0  0  0  0  0  0  0  0  0  0  0  0
  192.6130  174.5720  136.0140 N   0  0  0  0  0  0  0  0  0  0  0  0
  195.4550  176.4620  134.9190 C   0  0  0  0  0  2  0  0  0  0  0  0
  193.9560  176.4670  135.0520 C   0  0  2  0  0  3  0  0  0  0  0  0
  195.7480  177.9160  134.7410 C   0  0  0  0  0  2  0  0  0  0  0  0
  193.5630  177.7860  135.3220 O   0  0  0  0  0  0  0  0  0  0  0  0
  194.4510  178.5680  134.6470 N   0  0  0  0  0  2  0  0  0  0  0  0
  1 39  1  6  0  0  0
  1 13  1  0  0  0  0
  2 14  1  0  0  0  0
  4 15  1  0  0  0  0
  5 11  2  0  0  0  0
  5  6  1  0  0  0  0
  6  2  2  0  0  0  0
  6 10  1  0  0  0  0
  7  3  2  0  0  0  0
  8  9  2  0  0  0  0
  9  4  1  0  0  0  0
 10  8  1  0  0  0  0
 11 12  1  0  0  0  0
 12 10  2  0  0  0  0
 12  3  1  0  0  0  0
 13 11  1  0  0  0  0
 13  7  1  0  0  0  0
 14  9  1  0  0  0  0
 16 15  1  0  0  0  0
 17 16  1  0  0  0  0
 18 21  1  6  0  0  0
 19  1  1  1  0  0  0
 19 21  1  0  0  0  0
 19 18  1  0  0  0  0
 20 21  1  0  0  0  0
 20 27  1  0  0  0  0
 22 20  2  0  0  0  0
 23 18  1  1  0  0  0
 23 24  1  0  0  0  0
 23 25  1  0  0  0  0
 24 25  1  0  0  0  0
 24 26  1  1  0  0  0
 25 26  1  1  0  0  0
 27 28  1  0  0  0  0
 28 29  1  0  0  0  0
 29 30  1  0  0  0  0
 30 31  2  0  0  0  0
 32 35  1  1  0  0  0
 32 30  1  0  0  0  0
 33 34  1  0  0  0  0
 33 32  1  0  0  0  0
 34 32  1  0  0  0  0
 35 36  1  0  0  0  0
 36 38  1  0  0  0  0
 38 37  1  0  0  0  0
 40 39  2  0  0  0  0
 41 40  1  0  0  0  0
 42 41  1  0  0  0  0
 43 41  1  0  0  0  0
 44 43  2  0  0  0  0
 45 44  1  0  0  0  0
 45 42  2  0  0  0  0
 46 47  1  0  0  0  0
 47 49  1  0  0  0  0
 47 44  1  1  0  0  0
 48 46  1  0  0  0  0
 50 48  1  0  0  0  0
 50 49  1  0  0  0  0
M  END
>  <MODEL>
3

>  <REMARK>
 VINA RESULT:      -5.9      3.383      5.016
  Name = 
  16 active torsions:
  status: ('A' for Active; 'I' for Inactive)
    1  A    between atoms: C_3  and  C_18
    2  A    between atoms: C_3  and  O_21
    3  A    between atoms: N_4  and  C_41
    4  A    between atoms: N_5  and  C_9
    5  A    between atoms: C_7  and  C_18
    6  A    between atoms: C_7  and  C_29
    7  A    between atoms: C_8  and  C_11
    8  A    between atoms: C_9  and  C_32
    9  A    between atoms: C_13  and  C_19
   10  A    between atoms: C_13  and  C_43
   11  A    between atoms: C_15  and  C_44
   12  A    between atoms: C_17  and  C_22
   13  A    between atoms: O_21  and  C_43
   14  A    between atoms: C_29  and  O_35
   15  A    between atoms: C_40  and  C_44
   16  A    between atoms: C_44  and  N_49
                            x       y       z     vdW  Elec       q    Type
                         _______ _______ _______ _____ _____    ______ ____

>  <TORSDO>
F 16

$$$$
=
 OpenBabel11042415523D

 50 58  0  0  1  0  0  0  0  0999 V2000
  191.1770  173.5900  143.0190 C   0  0  1  0  0  3  0  0  0  0  0  0
  188.3120  178.0100  143.2400 C   0  0  0  0  0  3  0  0  0  0  0  0
  187.6350  173.3850  142.1380 C   0  0  0  0  0  3  0  0  0  0  0  0
  184.5680  177.8030  143.5480 N   0  0  0  0  0  2  0  0  0  0  0  0
  189.7060  176.1480  142.4620 N   0  0  0  0  0  0  0  0  0  0  0  0
  188.5260  176.7850  142.6200 C   0  0  0  0  0  0  0  0  0  0  0  0
  188.9260  172.6900  142.3540 N   0  0  0  0  0  0  0  0  0  0  0  0
  186.1860  176.2720  142.6270 N   0  0  0  0  0  0  0  0  0  0  0  0
  185.9190  177.4790  143.2100 C   0  0  0  0  0  0  0  0  0  0  0  0
  187.4690  175.9720  142.2980 C   0  0  0  0  0  0  0  0  0  0  0  0
  189.3320  174.9410  141.9640 C   0  0  0  0  0  0  0  0  0  0  0  0
  187.9990  174.7950  141.8440 C   0  0  0  0  0  0  0  0  0  0  0  0
  189.9150  173.6990  142.2920 N   0  0  0  0  0  0  0  0  0  0  0  0
  186.9800  178.3710  143.5190 C   0  0  0  0  0  2  0  0  0  0  0  0
  184.1940  179.0500  144.1990 C   0  0  0  0  0  2  0  0  0  0  0  0
  184.3260  178.8890  145.7040 C   0  0  0  0  0  2  0  0  0  0  0  0
  184.1710  177.5630  146.0570 F   0  0  0  0  0  0  0  0  0  0  0  0
  190.7450  174.7080  145.1180 C   0  0  2  0  0  3  0  0  0  0  0  0
  190.9400  173.4720  144.5260 C   0  0  2  0  0  3  0  0  0  0  0  0
  193.4510  174.1120  145.6940 C   0  0  0  0  0  0  0  0  0  0  0  0
  192.1000  174.0900  145.2440 N   0  0  0  0  0  0  0  0  0  0  0  0
  194.1960  173.1190  145.4910 O   0  0  0  0  0  0  0  0  0  0  0  0
  190.0040  174.5580  146.4340 C   0  0  1  0  0  3  0  0  0  0  0  0
  190.3320  175.7200  147.3550 C   0  0  2  0  0  3  0  0  0  0  0  0
  189.0140  175.6970  146.6190 C   0  0  1  0  0  3  0  0  0  0  0  0
  189.7570  177.0040  146.7920 C   0  0  0  0  0  2  0  0  0  0  0  0
  193.9590  175.2970  146.4430 C   0  0  0  0  0  2  0  0  0  0  0  0
  194.4740  176.3450  145.4750 C   0  0  0  0  0  2  0  0  0  0  0  0
  194.6120  175.7690  144.1800 O   0  0  0  0  0  0  0  0  0  0  0  0
  195.8640  175.4490  143.6520 C   0  0  0  0  0  0  0  0  0  0  0  0
  196.8110  175.0820  144.4030 O   0  0  0  0  0  0  0  0  0  0  0  0
  196.0670  175.5110  142.1730 C   0  0  2  0  0  0  0  0  0  0  0  0
  197.3080  176.1160  141.6490 C   0  0  0  0  0  2  0  0  0  0  0  0
  196.0990  176.8420  141.7200 O   0  0  0  0  0  0  0  0  0  0  0  0
  195.2320  174.6400  141.2460 C   0  0  0  0  0  2  0  0  0  0  0  0
  194.6280  175.4600  140.1150 C   0  0  0  0  0  2  0  0  0  0  0  0
  192.9860  174.1040  139.5440 C   0  0  0  0  0  1  0  0  0  0  0  0
  194.2010  174.6150  139.0900 O   0  0  0  0  0  0  0  0  0  0  0  0
  191.9470  172.4130  142.5180 C   0  0  0  0  0  3  0  0  0  0  0  0
  192.0790  171.3090  143.2490 C   0  0  0  0  0  3  0  0  0  0  0  0
  192.8150  170.1800  142.7730 N   0  0  0  0  0  0  0  0  0  0  0  0
  192.2700  169.0490  142.2860 C   0  0  0  0  0  3  0  0  0  0  0  0
  194.1520  170.0440  142.7100 C   0  0  0  0  0  3  0  0  0  0  0  0
  194.3820  168.7960  142.1780 C   0  0  0  0  0  0  0  0  0  0  0  0
  193.2190  168.1690  141.9020 N   0  0  0  0  0  0  0  0  0  0  0  0
  196.8010  169.0310  142.5770 C   0  0  0  0  0  2  0  0  0  0  0  0
  195.7320  168.2370  141.8760 C   0  0  2  0  0  3  0  0  0  0  0  0
  197.8340  169.1600  141.5070 C   0  0  0  0  0  2  0  0  0  0  0  0
  195.9960  168.3030  140.5000 O   0  0  0  0  0  0  0  0  0  0  0  0
  197.3540  168.3490  140.3990 N   0  0  0  0  0  2  0  0  0  0  0  0
  1 39  1  6  0  0  0
  2 14  1  0  0  0  0
  3  7  2  0  0  0  0
  4 15  1  0  0  0  0
  5  6  1  0  0  0  0
  6  2  2  0  0  0  0
  8  9  2  0  0  0  0
  9 14  1  0  0  0  0
  9  4  1  0  0  0  0
 10  6  1  0  0  0  0
 10  8  1  0  0  0  0
 11 13  1  0  0  0  0
 11  5  2  0  0  0  0
 12 11  1  0  0  0  0
 12  3  1  0  0  0  0
 12 10  2  0  0  0  0
 13  7  1  0  0  0  0
 13  1  1  0  0  0  0
 15 16  1  0  0  0  0
 16 17  1  0  0  0  0
 18 21  1  1  0  0  0
 19  1  1  6  0  0  0
 19 18  1  0  0  0  0
 19 21  1  0  0  0  0
 20 27  1  0  0  0  0
 21 20  1  0  0  0  0
 22 20  2  0  0  0  0
 23 18  1  6  0  0  0
 23 25  1  0  0  0  0
 23 24  1  0  0  0  0
 24 26  1  6  0  0  0
 25 26  1  6  0  0  0
 25 24  1  0  0  0  0
 28 27  1  0  0  0  0
 29 28  1  0  0  0  0
 30 29  1  0  0  0  0
 30 31  2  0  0  0  0
 32 35  1  6  0  0  0
 32 30  1  0  0  0  0
 33 34  1  0  0  0  0
 33 32  1  0  0  0  0
 34 32  1  0  0  0  0
 36 35  1  0  0  0  0
 38 37  1  0  0  0  0
 38 36  1  0  0  0  0
 39 40  2  0  0  0  0
 41 40  1  0  0  0  0
 42 41  1  0  0  0  0
 43 41  1  0  0  0  0
 44 43  2  0  0  0  0
 45 44  1  0  0  0  0
 45 42  2  0  0  0  0
 47 44  1  6  0  0  0
 47 46  1  0  0  0  0
 48 46  1  0  0  0  0
 49 47  1  0  0  0  0
 50 49  1  0  0  0  0
 50 48  1  0  0  0  0
M  END
>  <MODEL>
4

>  <REMARK>
 VINA RESULT:      -5.7      1.867      2.112
  Name = 
  16 active torsions:
  status: ('A' for Active; 'I' for Inactive)
    1  A    between atoms: C_3  and  C_18
    2  A    between atoms: C_3  and  O_21
    3  A    between atoms: N_4  and  C_41
    4  A    between atoms: N_5  and  C_9
    5  A    between atoms: C_7  and  C_18
    6  A    between atoms: C_7  and  C_29
    7  A    between atoms: C_8  and  C_11
    8  A    between atoms: C_9  and  C_32
    9  A    between atoms: C_13  and  C_19
   10  A    between atoms: C_13  and  C_43
   11  A    between atoms: C_15  and  C_44
   12  A    between atoms: C_17  and  C_22
   13  A    between atoms: O_21  and  C_43
   14  A    between atoms: C_29  and  O_35
   15  A    between atoms: C_40  and  C_44
   16  A    between atoms: C_44  and  N_49
                            x       y       z     vdW  Elec       q    Type
                         _______ _______ _______ _____ _____    ______ ____

>  <TORSDO>
F 16

$$$$
=
 OpenBabel11042415523D

 50 58  0  0  1  0  0  0  0  0999 V2000
  190.8720  174.2000  141.2230 C   0  0  1  0  0  3  0  0  0  0  0  0
  188.1900  178.0140  143.6840 C   0  0  0  0  0  3  0  0  0  0  0  0
  187.3900  173.5440  142.1220 C   0  0  0  0  0  3  0  0  0  0  0  0
  185.1280  177.1550  145.6940 N   0  0  0  0  0  2  0  0  0  0  0  0
  189.1390  176.5340  141.9730 N   0  0  0  0  0  0  0  0  0  0  0  0
  188.1540  176.9410  142.8020 C   0  0  0  0  0  0  0  0  0  0  0  0
  188.6620  173.0460  141.5470 N   0  0  0  0  0  0  0  0  0  0  0  0
  186.1750  176.0550  143.8210 N   0  0  0  0  0  0  0  0  0  0  0  0
  186.1480  177.1080  144.6940 C   0  0  0  0  0  0  0  0  0  0  0  0
  187.1390  176.0190  142.8660 C   0  0  0  0  0  0  0  0  0  0  0  0
  188.6540  175.3660  141.4800 C   0  0  0  0  0  0  0  0  0  0  0  0
  187.4540  175.0220  141.9840 C   0  0  0  0  0  0  0  0  0  0  0  0
  189.4110  174.2020  141.2280 N   0  0  0  0  0  0  0  0  0  0  0  0
  187.1550  178.1080  144.6330 C   0  0  0  0  0  2  0  0  0  0  0  0
  185.0400  178.2190  146.6840 C   0  0  0  0  0  2  0  0  0  0  0  0
  185.8780  177.8460  147.8950 C   0  0  0  0  0  2  0  0  0  0  0  0
  186.2520  176.5180  147.8270 F   0  0  0  0  0  0  0  0  0  0  0  0
  191.0750  174.5060  143.6120 C   0  0  2  0  0  3  0  0  0  0  0  0
  191.4280  173.6870  142.5540 C   0  0  2  0  0  3  0  0  0  0  0  0
  193.7310  175.2850  143.0240 C   0  0  0  0  0  0  0  0  0  0  0  0
  192.4520  174.6610  143.0520 N   0  0  0  0  0  0  0  0  0  0  0  0
  194.6130  174.8760  142.2240 O   0  0  0  0  0  0  0  0  0  0  0  0
  191.1530  173.7450  144.9230 C   0  0  1  0  0  3  0  0  0  0  0  0
  190.8310  174.6690  146.0850 C   0  0  2  0  0  3  0  0  0  0  0  0
  189.7880  173.6970  145.5910 C   0  0  1  0  0  3  0  0  0  0  0  0
  189.3760  175.0860  146.0260 C   0  0  0  0  0  2  0  0  0  0  0  0
  194.0320  176.3920  143.9770 C   0  0  0  0  0  2  0  0  0  0  0  0
  195.4150  176.2070  144.5720 C   0  0  0  0  0  2  0  0  0  0  0  0
  195.4490  175.0020  145.3300 O   0  0  0  0  0  0  0  0  0  0  0  0
  196.3980  174.0090  145.0850 C   0  0  0  0  0  0  0  0  0  0  0  0
  197.5790  174.3090  144.7500 O   0  0  0  0  0  0  0  0  0  0  0  0
  196.0140  172.5760  145.2580 C   0  0  2  0  0  0  0  0  0  0  0  0
  196.7910  171.7390  146.1950 C   0  0  0  0  0  2  0  0  0  0  0  0
  197.0320  171.7190  144.8040 O   0  0  0  0  0  0  0  0  0  0  0  0
  194.6470  172.0870  144.8040 C   0  0  0  0  0  2  0  0  0  0  0  0
  194.6930  171.5760  143.3710 C   0  0  0  0  0  2  0  0  0  0  0  0
  192.9540  170.4810  144.1690 C   0  0  0  0  0  1  0  0  0  0  0  0
  193.4440  171.0710  143.0060 O   0  0  0  0  0  0  0  0  0  0  0  0
  191.3710  173.3640  140.0920 C   0  0  0  0  0  3  0  0  0  0  0  0
  192.4070  173.7470  139.3510 C   0  0  0  0  0  3  0  0  0  0  0  0
  192.8880  172.9480  138.2670 N   0  0  0  0  0  0  0  0  0  0  0  0
  192.1120  172.2640  137.4040 C   0  0  0  0  0  3  0  0  0  0  0  0
  194.1690  172.7460  137.9070 C   0  0  0  0  0  3  0  0  0  0  0  0
  194.1280  171.9160  136.8100 C   0  0  0  0  0  0  0  0  0  0  0  0
  192.8540  171.6150  136.4820 N   0  0  0  0  0  0  0  0  0  0  0  0
  196.1420  170.4990  136.8500 C   0  0  0  0  0  2  0  0  0  0  0  0
  195.3240  171.4680  136.0390 C   0  0  2  0  0  3  0  0  0  0  0  0
  197.5300  170.9820  136.5900 C   0  0  0  0  0  2  0  0  0  0  0  0
  196.1500  172.5590  135.7330 O   0  0  0  0  0  0  0  0  0  0  0  0
  197.3990  172.0330  135.5940 N   0  0  0  0  0  2  0  0  0  0  0  0
  1 39  1  6  0  0  0
  1 13  1  0  0  0  0
  2 14  1  0  0  0  0
  4 15  1  0  0  0  0
  5  6  1  0  0  0  0
  6 10  1  0  0  0  0
  6  2  2  0  0  0  0
  7  3  2  0  0  0  0
  8  9  2  0  0  0  0
  9  4  1  0  0  0  0
 10  8  1  0  0  0  0
 11  5  2  0  0  0  0
 11 12  1  0  0  0  0
 12  3  1  0  0  0  0
 12 10  2  0  0  0  0
 13 11  1  0  0  0  0
 13  7  1  0  0  0  0
 14  9  1  0  0  0  0
 15 16  1  0  0  0  0
 17 16  1  0  0  0  0
 18 21  1  1  0  0  0
 19  1  1  6  0  0  0
 19 21  1  0  0  0  0
 19 18  1  0  0  0  0
 20 21  1  0  0  0  0
 20 27  1  0  0  0  0
 22 20  2  0  0  0  0
 23 18  1  6  0  0  0
 23 25  1  0  0  0  0
 23 24  1  0  0  0  0
 24 26  1  6  0  0  0
 25 26  1  6  0  0  0
 25 24  1  0  0  0  0
 27 28  1  0  0  0  0
 28 29  1  0  0  0  0
 30 32  1  0  0  0  0
 30 29  1  0  0  0  0
 31 30  2  0  0  0  0
 32 35  1  6  0  0  0
 32 33  1  0  0  0  0
 34 32  1  0  0  0  0
 34 33  1  0  0  0  0
 36 35  1  0  0  0  0
 38 36  1  0  0  0  0
 38 37  1  0  0  0  0
 40 39  2  0  0  0  0
 41 40  1  0  0  0  0
 42 41  1  0  0  0  0
 43 41  1  0  0  0  0
 44 43  2  0  0  0  0
 45 44  1  0  0  0  0
 45 42  2  0  0  0  0
 47 44  1  1  0  0  0
 47 46  1  0  0  0  0
 48 46  1  0  0  0  0
 49 47  1  0  0  0  0
 50 49  1  0  0  0  0
 50 48  1  0  0  0  0
M  END
>  <MODEL>
5

>  <REMARK>
 VINA RESULT:      -5.6      2.093      2.891
  Name = 
  16 active torsions:
  status: ('A' for Active; 'I' for Inactive)
    1  A    between atoms: C_3  and  C_18
    2  A    between atoms: C_3  and  O_21
    3  A    between atoms: N_4  and  C_41
    4  A    between atoms: N_5  and  C_9
    5  A    between atoms: C_7  and  C_18
    6  A    between atoms: C_7  and  C_29
    7  A    between atoms: C_8  and  C_11
    8  A    between atoms: C_9  and  C_32
    9  A    between atoms: C_13  and  C_19
   10  A    between atoms: C_13  and  C_43
   11  A    between atoms: C_15  and  C_44
   12  A    between atoms: C_17  and  C_22
   13  A    between atoms: O_21  and  C_43
   14  A    between atoms: C_29  and  O_35
   15  A    between atoms: C_40  and  C_44
   16  A    between atoms: C_44  and  N_49
                            x       y       z     vdW  Elec       q    Type
                         _______ _______ _______ _____ _____    ______ ____

>  <TORSDO>
F 16

$$$$
=
 OpenBabel11042415523D

 50 58  0  0  1  0  0  0  0  0999 V2000
  189.5050  176.9640  143.0830 C   0  0  1  0  0  3  0  0  0  0  0  0
  191.2530  172.0970  144.1070 C   0  0  0  0  0  3  0  0  0  0  0  0
  188.1410  174.2020  141.1150 C   0  0  0  0  0  3  0  0  0  0  0  0
  190.9140  169.3990  141.5080 N   0  0  0  0  0  2  0  0  0  0  0  0
  189.9350  174.1660  144.0820 N   0  0  0  0  0  0  0  0  0  0  0  0
  190.1920  172.8970  143.6990 C   0  0  0  0  0  0  0  0  0  0  0  0
  188.2050  175.6600  141.3710 N   0  0  0  0  0  0  0  0  0  0  0  0
  189.6470  171.4110  141.9010 N   0  0  0  0  0  0  0  0  0  0  0  0
  190.6590  170.5740  142.2800 C   0  0  0  0  0  0  0  0  0  0  0  0
  189.4010  172.5220  142.6430 C   0  0  0  0  0  0  0  0  0  0  0  0
  188.9090  174.5240  143.2680 C   0  0  0  0  0  0  0  0  0  0  0  0
  188.5530  173.5650  142.3930 C   0  0  0  0  0  0  0  0  0  0  0  0
  188.7330  175.7930  142.6760 N   0  0  0  0  0  0  0  0  0  0  0  0
  191.4740  170.9030  143.3960 C   0  0  0  0  0  2  0  0  0  0  0  0
  191.9890  168.4670  141.8170 C   0  0  0  0  0  2  0  0  0  0  0  0
  193.1680  168.7410  140.8990 C   0  0  0  0  0  2  0  0  0  0  0  0
  193.2310  170.0860  140.5900 F   0  0  0  0  0  0  0  0  0  0  0  0
  187.8620  176.9390  144.8550 C   0  0  2  0  0  3  0  0  0  0  0  0
  188.8050  177.7230  144.2130 C   0  0  2  0  0  3  0  0  0  0  0  0
  186.3200  178.5300  143.0950 C   0  0  0  0  0  0  0  0  0  0  0  0
  187.3670  177.9190  143.8400 N   0  0  0  0  0  0  0  0  0  0  0  0
  186.5800  179.4720  142.3020 O   0  0  0  0  0  0  0  0  0  0  0  0
  187.5800  177.4780  146.2460 C   0  0  1  0  0  3  0  0  0  0  0  0
  186.0930  177.7310  146.4180 C   0  0  2  0  0  3  0  0  0  0  0  0
  186.7180  176.5000  147.0300 C   0  0  1  0  0  3  0  0  0  0  0  0
  185.3400  176.4150  146.4100 C   0  0  0  0  0  2  0  0  0  0  0  0
  184.9130  178.0790  143.2940 C   0  0  0  0  0  2  0  0  0  0  0  0
  184.2340  177.8770  141.9540 C   0  0  0  0  0  2  0  0  0  0  0  0
  182.9050  178.3850  142.0120 O   0  0  0  0  0  0  0  0  0  0  0  0
  182.0020  178.1910  140.9660 C   0  0  0  0  0  0  0  0  0  0  0  0
  182.3340  177.5470  139.9320 O   0  0  0  0  0  0  0  0  0  0  0  0
  180.6130  178.7260  141.0960 C   0  0  2  0  0  0  0  0  0  0  0  0
  179.5890  177.8950  141.7620 C   0  0  0  0  0  2  0  0  0  0  0  0
  179.7000  177.9540  140.3550 O   0  0  0  0  0  0  0  0  0  0  0  0
  180.3420  180.2120  140.9150 C   0  0  0  0  0  2  0  0  0  0  0  0
  179.2990  180.4540  139.8330 C   0  0  0  0  0  2  0  0  0  0  0  0
  178.9180  182.4900  139.0770 C   0  0  0  0  0  1  0  0  0  0  0  0
  178.5840  181.6200  140.1130 O   0  0  0  0  0  0  0  0  0  0  0  0
  190.8740  176.5450  143.5050 C   0  0  0  0  0  3  0  0  0  0  0  0
  191.5240  177.1790  144.4780 C   0  0  0  0  0  3  0  0  0  0  0  0
  192.8350  176.7800  144.8850 N   0  0  0  0  0  0  0  0  0  0  0  0
  193.3020  176.8270  146.1480 C   0  0  0  0  0  3  0  0  0  0  0  0
  193.8150  176.2830  144.1100 C   0  0  0  0  0  3  0  0  0  0  0  0
  194.8790  176.0440  144.9490 C   0  0  0  0  0  0  0  0  0  0  0  0
  194.5700  176.3710  146.2220 N   0  0  0  0  0  0  0  0  0  0  0  0
  196.8640  176.3120  143.5160 C   0  0  0  0  0  2  0  0  0  0  0  0
  196.1740  175.4360  144.5270 C   0  0  2  0  0  3  0  0  0  0  0  0
  197.3370  175.3090  142.5170 C   0  0  0  0  0  2  0  0  0  0  0  0
  195.9590  174.1890  143.9230 O   0  0  0  0  0  0  0  0  0  0  0  0
  197.0210  174.0090  143.0880 N   0  0  0  0  0  2  0  0  0  0  0  0
  1 39  1  1  0  0  0
  3  7  2  0  0  0  0
  3 12  1  0  0  0  0
  4 15  1  0  0  0  0
  4  9  1  0  0  0  0
  6  5  1  0  0  0  0
  6  2  2  0  0  0  0
  7 13  1  0  0  0  0
  8  9  2  0  0  0  0
  8 10  1  0  0  0  0
  9 14  1  0  0  0  0
 10  6  1  0  0  0  0
 11  5  2  0  0  0  0
 12 10  2  0  0  0  0
 12 11  1  0  0  0  0
 13  1  1  0  0  0  0
 13 11  1  0  0  0  0
 14  2  1  0  0  0  0
 16 15  1  0  0  0  0
 17 16  1  0  0  0  0
 18 21  1  6  0  0  0
 19  1  1  6  0  0  0
 19 18  1  0  0  0  0
 20 27  1  0  0  0  0
 20 21  1  0  0  0  0
 21 19  1  0  0  0  0
 22 20  2  0  0  0  0
 23 18  1  6  0  0  0
 23 24  1  0  0  0  0
 23 25  1  0  0  0  0
 24 26  1  6  0  0  0
 24 25  1  0  0  0  0
 25 26  1  6  0  0  0
 28 29  1  0  0  0  0
 28 27  1  0  0  0  0
 30 32  1  0  0  0  0
 30 29  1  0  0  0  0
 31 30  2  0  0  0  0
 32 35  1  1  0  0  0
 32 33  1  0  0  0  0
 34 32  1  0  0  0  0
 34 33  1  0  0  0  0
 36 38  1  0  0  0  0
 36 35  1  0  0  0  0
 37 38  1  0  0  0  0
 39 40  2  0  0  0  0
 40 41  1  0  0  0  0
 41 42  1  0  0  0  0
 42 45  2  0  0  0  0
 43 41  1  0  0  0  0
 43 44  2  0  0  0  0
 44 45  1  0  0  0  0
 46 47  1  0  0  0  0
 47 44  1  6  0  0  0
 48 50  1  0  0  0  0
 48 46  1  0  0  0  0
 49 47  1  0  0  0  0
 50 49  1  0  0  0  0
M  END
>  <MODEL>
6

>  <REMARK>
 VINA RESULT:      -5.6      5.288     10.057
  Name = 
  16 active torsions:
  status: ('A' for Active; 'I' for Inactive)
    1  A    between atoms: C_3  and  C_18
    2  A    between atoms: C_3  and  O_21
    3  A    between atoms: N_4  and  C_41
    4  A    between atoms: N_5  and  C_9
    5  A    between atoms: C_7  and  C_18
    6  A    between atoms: C_7  and  C_29
    7  A    between atoms: C_8  and  C_11
    8  A    between atoms: C_9  and  C_32
    9  A    between atoms: C_13  and  C_19
   10  A    between atoms: C_13  and  C_43
   11  A    between atoms: C_15  and  C_44
   12  A    between atoms: C_17  and  C_22
   13  A    between atoms: O_21  and  C_43
   14  A    between atoms: C_29  and  O_35
   15  A    between atoms: C_40  and  C_44
   16  A    between atoms: C_44  and  N_49
                            x       y       z     vdW  Elec       q    Type
                         _______ _______ _______ _____ _____    ______ ____

>  <TORSDO>
F 16

$$$$
=
 OpenBabel11042415523D

 50 58  0  0  1  0  0  0  0  0999 V2000
  193.5450  174.0040  142.7460 C   0  0  1  0  0  3  0  0  0  0  0  0
  189.5760  174.2840  146.2050 C   0  0  0  0  0  3  0  0  0  0  0  0
  192.9550  177.1970  144.4260 C   0  0  0  0  0  3  0  0  0  0  0  0
  188.0930  177.6260  147.0900 N   0  0  0  0  0  2  0  0  0  0  0  0
  191.7900  174.0190  145.1820 N   0  0  0  0  0  0  0  0  0  0  0  0
  190.8440  174.7220  145.8420 C   0  0  0  0  0  0  0  0  0  0  0  0
  193.7210  176.4190  143.4240 N   0  0  0  0  0  0  0  0  0  0  0  0
  190.2830  177.0060  146.2970 N   0  0  0  0  0  0  0  0  0  0  0  0
  189.0320  176.6240  146.6930 C   0  0  0  0  0  0  0  0  0  0  0  0
  191.1760  176.0500  145.9310 C   0  0  0  0  0  0  0  0  0  0  0  0
  192.7420  174.9550  144.9360 C   0  0  0  0  0  0  0  0  0  0  0  0
  192.4180  176.1860  145.3740 C   0  0  0  0  0  0  0  0  0  0  0  0
  193.5060  175.0610  143.7540 N   0  0  0  0  0  0  0  0  0  0  0  0
  188.6620  175.2530  146.6600 C   0  0  0  0  0  2  0  0  0  0  0  0
  186.7300  177.3160  147.4960 C   0  0  0  0  0  2  0  0  0  0  0  0
  185.7840  177.6130  146.3450 C   0  0  0  0  0  2  0  0  0  0  0  0
  184.9400  176.5410  146.1330 F   0  0  0  0  0  0  0  0  0  0  0  0
  194.9440  172.4000  143.8920 C   0  0  2  0  0  3  0  0  0  0  0  0
  193.6710  172.6240  143.3960 C   0  0  2  0  0  3  0  0  0  0  0  0
  194.9410  171.0220  141.4210 C   0  0  0  0  0  0  0  0  0  0  0  0
  194.6030  171.7900  142.5710 N   0  0  0  0  0  0  0  0  0  0  0  0
  194.0700  170.7930  140.5410 O   0  0  0  0  0  0  0  0  0  0  0  0
  194.9160  171.3230  144.9610 C   0  0  1  0  0  3  0  0  0  0  0  0
  196.1490  170.4430  144.8480 C   0  0  2  0  0  3  0  0  0  0  0  0
  196.0800  171.5000  145.9230 C   0  0  1  0  0  3  0  0  0  0  0  0
  197.3870  171.2390  145.2080 C   0  0  0  0  0  2  0  0  0  0  0  0
  196.3140  170.4570  141.2880 C   0  0  0  0  0  2  0  0  0  0  0  0
  196.9310  170.8860  139.9720 C   0  0  0  0  0  2  0  0  0  0  0  0
  197.4850  172.1910  140.1090 O   0  0  0  0  0  0  0  0  0  0  0  0
  197.3560  173.1500  139.1040 C   0  0  0  0  0  0  0  0  0  0  0  0
  197.9360  173.0060  137.9910 O   0  0  0  0  0  0  0  0  0  0  0  0
  196.4900  174.3440  139.3440 C   0  0  2  0  0  0  0  0  0  0  0  0
  195.0220  174.1740  139.3210 C   0  0  0  0  0  2  0  0  0  0  0  0
  195.7330  174.6590  138.2010 O   0  0  0  0  0  0  0  0  0  0  0  0
  197.0700  175.5990  139.9770 C   0  0  0  0  0  2  0  0  0  0  0  0
  197.9340  175.2580  141.1840 C   0  0  0  0  0  2  0  0  0  0  0  0
  197.2430  176.0240  143.1320 C   0  0  0  0  0  1  0  0  0  0  0  0
  197.1230  174.9340  142.2720 O   0  0  0  0  0  0  0  0  0  0  0  0
  192.3180  174.0710  141.8980 C   0  0  0  0  0  3  0  0  0  0  0  0
  191.4770  173.0430  141.8120 C   0  0  0  0  0  3  0  0  0  0  0  0
  190.3010  173.1040  141.0020 N   0  0  0  0  0  0  0  0  0  0  0  0
  189.0450  172.9050  141.4430 C   0  0  0  0  0  3  0  0  0  0  0  0
  190.2300  173.3770  139.6860 C   0  0  0  0  0  3  0  0  0  0  0  0
  188.8940  173.3280  139.3600 C   0  0  0  0  0  0  0  0  0  0  0  0
  188.1440  173.0430  140.4460 N   0  0  0  0  0  0  0  0  0  0  0  0
  189.4410  173.6760  136.9840 C   0  0  0  0  0  2  0  0  0  0  0  0
  188.3380  173.6210  138.0070 C   0  0  2  0  0  3  0  0  0  0  0  0
  189.0560  174.8790  136.1870 C   0  0  0  0  0  2  0  0  0  0  0  0
  187.6960  174.8680  137.9980 O   0  0  0  0  0  0  0  0  0  0  0  0
  187.7620  175.2940  136.7060 N   0  0  0  0  0  2  0  0  0  0  0  0
  1 39  1  1  0  0  0
  1 13  1  0  0  0  0
  2 14  1  0  0  0  0
  3 12  1  0  0  0  0
  4 15  1  0  0  0  0
  5  6  1  0  0  0  0
  6 10  1  0  0  0  0
  6  2  2  0  0  0  0
  7 13  1  0  0  0  0
  7  3  2  0  0  0  0
  8  9  2  0  0  0  0
  9  4  1  0  0  0  0
 10  8  1  0  0  0  0
 11  5  2  0  0  0  0
 11 12  1  0  0  0  0
 12 10  2  0  0  0  0
 13 11  1  0  0  0  0
 14  9  1  0  0  0  0
 16 15  1  0  0  0  0
 17 16  1  0  0  0  0
 18 21  1  6  0  0  0
 19  1  1  6  0  0  0
 19 18  1  0  0  0  0
 20 21  1  0  0  0  0
 21 19  1  0  0  0  0
 22 20  2  0  0  0  0
 23 18  1  6  0  0  0
 23 25  1  0  0  0  0
 24 23  1  0  0  0  0
 24 26  1  6  0  0  0
 24 25  1  0  0  0  0
 25 26  1  6  0  0  0
 27 20  1  0  0  0  0
 28 29  1  0  0  0  0
 28 27  1  0  0  0  0
 30 32  1  0  0  0  0
 30 29  1  0  0  0  0
 31 30  2  0  0  0  0
 32 35  1  1  0  0  0
 33 32  1  0  0  0  0
 34 33  1  0  0  0  0
 34 32  1  0  0  0  0
 35 36  1  0  0  0  0
 36 38  1  0  0  0  0
 38 37  1  0  0  0  0
 40 39  2  0  0  0  0
 41 42  1  0  0  0  0
 41 40  1  0  0  0  0
 43 41  1  0  0  0  0
 44 43  2  0  0  0  0
 44 45  1  0  0  0  0
 45 42  2  0  0  0  0
 46 47  1  0  0  0  0
 47 44  1  1  0  0  0
 48 50  1  0  0  0  0
 48 46  1  0  0  0  0
 49 47  1  0  0  0  0
 50 49  1  0  0  0  0
M  END
>  <MODEL>
7

>  <REMARK>
 VINA RESULT:      -5.5      2.995      5.646
  Name = 
  16 active torsions:
  status: ('A' for Active; 'I' for Inactive)
    1  A    between atoms: C_3  and  C_18
    2  A    between atoms: C_3  and  O_21
    3  A    between atoms: N_4  and  C_41
    4  A    between atoms: N_5  and  C_9
    5  A    between atoms: C_7  and  C_18
    6  A    between atoms: C_7  and  C_29
    7  A    between atoms: C_8  and  C_11
    8  A    between atoms: C_9  and  C_32
    9  A    between atoms: C_13  and  C_19
   10  A    between atoms: C_13  and  C_43
   11  A    between atoms: C_15  and  C_44
   12  A    between atoms: C_17  and  C_22
   13  A    between atoms: O_21  and  C_43
   14  A    between atoms: C_29  and  O_35
   15  A    between atoms: C_40  and  C_44
   16  A    between atoms: C_44  and  N_49
                            x       y       z     vdW  Elec       q    Type
                         _______ _______ _______ _____ _____    ______ ____

>  <TORSDO>
F 16

$$$$
=
 OpenBabel11042415523D

 50 58  0  0  1  0  0  0  0  0999 V2000
  190.7830  173.1440  143.6710 C   0  0  1  0  0  3  0  0  0  0  0  0
  191.0420  173.4300  138.4130 C   0  0  0  0  0  3  0  0  0  0  0  0
  187.6590  173.5590  141.8190 C   0  0  0  0  0  3  0  0  0  0  0  0
  188.2260  175.0070  136.4810 N   0  0  0  0  0  2  0  0  0  0  0  0
  190.8080  172.6160  140.7150 N   0  0  0  0  0  0  0  0  0  0  0  0
  190.3150  173.0300  139.5280 C   0  0  0  0  0  0  0  0  0  0  0  0
  188.3490  173.4630  143.1270 N   0  0  0  0  0  0  0  0  0  0  0  0
  188.2800  173.9220  138.6330 N   0  0  0  0  0  0  0  0  0  0  0  0
  188.9430  174.3080  137.5010 C   0  0  0  0  0  0  0  0  0  0  0  0
  188.9630  173.2490  139.5950 C   0  0  0  0  0  0  0  0  0  0  0  0
  189.6950  172.5220  141.4870 C   0  0  2  0  0  3  0  0  0  0  0  0
  188.5640  172.8860  140.8520 C   0  0  0  0  0  0  0  0  0  0  0  0
  189.6060  172.8760  142.8500 N   0  0  0  0  0  0  0  0  0  0  0  0
  190.3350  174.0610  137.3720 C   0  0  0  0  0  3  0  0  0  0  0  0
  188.8550  175.4850  135.2580 C   0  0  0  0  0  2  0  0  0  0  0  0
  187.8830  176.3840  134.5140 C   0  0  0  0  0  2  0  0  0  0  0  0
  188.2220  177.7110  134.6990 F   0  0  0  0  0  0  0  0  0  0  0  0
  190.5170  175.4050  144.4850 C   0  0  2  0  0  3  0  0  0  0  0  0
  190.4420  174.0690  144.8420 C   0  0  2  0  0  3  0  0  0  0  0  0
  192.9650  174.9340  145.8240 C   0  0  0  0  0  0  0  0  0  0  0  0
  191.6750  174.8250  145.2310 N   0  0  0  0  0  0  0  0  0  0  0  0
  193.4610  173.9500  146.4340 O   0  0  0  0  0  0  0  0  0  0  0  0
  189.6900  176.2560  145.4310 C   0  0  1  0  0  3  0  0  0  0  0  0
  189.7490  177.7140  145.0090 C   0  0  2  0  0  3  0  0  0  0  0  0
  188.5230  176.8910  144.6910 C   0  0  1  0  0  3  0  0  0  0  0  0
  189.0350  177.8980  143.6850 C   0  0  0  0  0  2  0  0  0  0  0  0
  193.7010  176.2280  145.7570 C   0  0  0  0  0  2  0  0  0  0  0  0
  193.9730  176.6000  144.3120 C   0  0  0  0  0  2  0  0  0  0  0  0
  195.2870  176.1840  143.9540 O   0  0  0  0  0  0  0  0  0  0  0  0
  195.5070  175.0680  143.1450 C   0  0  0  0  0  0  0  0  0  0  0  0
  194.5390  174.3910  142.6970 O   0  0  0  0  0  0  0  0  0  0  0  0
  196.9070  174.6980  142.7790 C   0  0  2  0  0  0  0  0  0  0  0  0
  197.6280  173.7200  143.6190 C   0  0  0  0  0  2  0  0  0  0  0  0
  197.8160  175.1120  143.7690 O   0  0  0  0  0  0  0  0  0  0  0  0
  197.4420  175.0000  141.3870 C   0  0  0  0  0  2  0  0  0  0  0  0
  196.7020  176.1710  140.7550 C   0  0  0  0  0  2  0  0  0  0  0  0
  197.0650  174.7780  139.0850 C   0  0  0  0  0  1  0  0  0  0  0  0
  196.2170  175.8040  139.4990 O   0  0  0  0  0  0  0  0  0  0  0  0
  191.3520  171.8580  144.1710 C   0  0  0  0  0  3  0  0  0  0  0  0
  192.6510  171.5850  144.0620 C   0  0  0  0  0  3  0  0  0  0  0  0
  193.1990  170.3550  144.5410 N   0  0  0  0  0  0  0  0  0  0  0  0
  192.6700  169.1350  144.3280 C   0  0  0  0  0  3  0  0  0  0  0  0
  194.3220  170.1880  145.2630 C   0  0  0  0  0  3  0  0  0  0  0  0
  194.4380  168.8330  145.4760 C   0  0  0  0  0  0  0  0  0  0  0  0
  193.4200  168.1660  144.8920 N   0  0  0  0  0  0  0  0  0  0  0  0
  195.4870  168.4440  147.6700 C   0  0  0  0  0  2  0  0  0  0  0  0
  195.5730  168.1800  146.1910 C   0  0  2  0  0  3  0  0  0  0  0  0
  196.9070  168.7600  148.0050 C   0  0  0  0  0  2  0  0  0  0  0  0
  196.7980  168.6950  145.7440 O   0  0  0  0  0  0  0  0  0  0  0  0
  197.6600  168.5180  146.7840 N   0  0  0  0  0  2  0  0  0  0  0  0
  1 39  1  1  0  0  0
  2  6  1  0  0  0  0
  3  7  2  0  0  0  0
  4  9  1  0  0  0  0
  6 10  1  0  0  0  0
  6  5  2  0  0  0  0
  8 10  1  0  0  0  0
  9  8  2  0  0  0  0
 10 12  2  0  0  0  0
 11  5  1  6  0  0  0
 11 13  1  0  0  0  0
 12 11  1  0  0  0  0
 12  3  1  0  0  0  0
 13  7  1  0  0  0  0
 13  1  1  0  0  0  0
 14  9  1  0  0  0  0
 14  2  2  0  0  0  0
 15  4  1  0  0  0  0
 16 17  1  0  0  0  0
 16 15  1  0  0  0  0
 18 19  1  0  0  0  0
 18 21  1  1  0  0  0
 19  1  1  6  0  0  0
 19 21  1  0  0  0  0
 20 22  2  0  0  0  0
 21 20  1  0  0  0  0
 23 18  1  6  0  0  0
 24 26  1  6  0  0  0
 24 23  1  0  0  0  0
 25 26  1  6  0  0  0
 25 24  1  0  0  0  0
 25 23  1  0  0  0  0
 27 20  1  0  0  0  0
 28 27  1  0  0  0  0
 29 28  1  0  0  0  0
 30 29  1  0  0  0  0
 31 30  2  0  0  0  0
 32 35  1  6  0  0  0
 32 30  1  0  0  0  0
 32 33  1  0  0  0  0
 32 34  1  0  0  0  0
 33 34  1  0  0  0  0
 36 35  1  0  0  0  0
 37 38  1  0  0  0  0
 38 36  1  0  0  0  0
 40 39  2  0  0  0  0
 40 41  1  0  0  0  0
 41 43  1  0  0  0  0
 42 41  1  0  0  0  0
 42 45  2  0  0  0  0
 43 44  2  0  0  0  0
 45 44  1  0  0  0  0
 46 48  1  0  0  0  0
 47 44  1  6  0  0  0
 47 46  1  0  0  0  0
 49 47  1  0  0  0  0
 49 50  1  0  0  0  0
 50 48  1  0  0  0  0
M  END
>  <MODEL>
8

>  <REMARK>
 VINA RESULT:      -5.5      3.787      5.478
  Name = 
  16 active torsions:
  status: ('A' for Active; 'I' for Inactive)
    1  A    between atoms: C_3  and  C_18
    2  A    between atoms: C_3  and  O_21
    3  A    between atoms: N_4  and  C_41
    4  A    between atoms: N_5  and  C_9
    5  A    between atoms: C_7  and  C_18
    6  A    between atoms: C_7  and  C_29
    7  A    between atoms: C_8  and  C_11
    8  A    between atoms: C_9  and  C_32
    9  A    between atoms: C_13  and  C_19
   10  A    between atoms: C_13  and  C_43
   11  A    between atoms: C_15  and  C_44
   12  A    between atoms: C_17  and  C_22
   13  A    between atoms: O_21  and  C_43
   14  A    between atoms: C_29  and  O_35
   15  A    between atoms: C_40  and  C_44
   16  A    between atoms: C_44  and  N_49
                            x       y       z     vdW  Elec       q    Type
                         _______ _______ _______ _____ _____    ______ ____

>  <TORSDO>
F 16

$$$$
=
 OpenBabel11042415523D

 50 58  0  0  1  0  0  0  0  0999 V2000
  190.1710  174.0100  142.5860 C   0  0  1  0  0  3  0  0  0  0  0  0
  193.8060  172.1210  139.2690 C   0  0  0  0  0  3  0  0  0  0  0  0
  190.4690  170.3830  142.2530 C   0  0  0  0  0  3  0  0  0  0  0  0
  193.4740  168.6250  137.9180 N   0  0  0  0  0  2  0  0  0  0  0  0
  192.6370  172.9070  141.2770 N   0  0  0  0  0  0  0  0  0  0  0  0
  193.0960  171.9430  140.4500 C   0  0  0  0  0  0  0  0  0  0  0  0
  189.7630  171.5430  142.8450 N   0  0  0  0  0  0  0  0  0  0  0  0
  192.6610  169.6420  139.9460 N   0  0  0  0  0  0  0  0  0  0  0  0
  193.3760  169.7560  138.7870 C   0  0  0  0  0  0  0  0  0  0  0  0
  192.5790  170.7140  140.7750 C   0  0  0  0  0  0  0  0  0  0  0  0
  191.8780  172.2090  142.1600 C   0  0  2  0  0  3  0  0  0  0  0  0
  191.8210  170.8890  141.9000 C   0  0  0  0  0  0  0  0  0  0  0  0
  190.6500  172.6360  142.7070 N   0  0  0  0  0  0  0  0  0  0  0  0
  193.9660  170.9980  138.4340 C   0  0  0  0  0  3  0  0  0  0  0  0
  194.1870  168.6630  136.6490 C   0  0  0  0  0  2  0  0  0  0  0  0
  193.2790  169.2480  135.5820 C   0  0  0  0  0  2  0  0  0  0  0  0
  191.9550  169.1070  135.9510 F   0  0  0  0  0  0  0  0  0  0  0  0
  191.0180  174.9660  144.6380 C   0  0  2  0  0  3  0  0  0  0  0  0
  191.1320  174.9930  143.2590 C   0  0  2  0  0  3  0  0  0  0  0  0
  189.5170  177.2460  143.8910 C   0  0  0  0  0  0  0  0  0  0  0  0
  190.3290  176.0760  143.9130 N   0  0  0  0  0  0  0  0  0  0  0  0
  189.2960  177.8370  142.8020 O   0  0  0  0  0  0  0  0  0  0  0  0
  192.2810  175.5020  145.2880 C   0  0  1  0  0  3  0  0  0  0  0  0
  191.9280  176.3310  146.5100 C   0  0  2  0  0  3  0  0  0  0  0  0
  192.4460  174.9240  146.6850 C   0  0  1  0  0  3  0  0  0  0  0  0
  191.3500  175.4400  147.5910 C   0  0  0  0  0  2  0  0  0  0  0  0
  188.9710  177.7880  145.1680 C   0  0  0  0  0  2  0  0  0  0  0  0
  188.0320  176.7810  145.8030 C   0  0  0  0  0  2  0  0  0  0  0  0
  186.8840  176.6150  144.9770 O   0  0  0  0  0  0  0  0  0  0  0  0
  185.6290  177.0880  145.3640 C   0  0  0  0  0  0  0  0  0  0  0  0
  184.9530  176.4880  146.2470 O   0  0  0  0  0  0  0  0  0  0  0  0
  185.1030  178.3430  144.7470 C   0  0  2  0  0  0  0  0  0  0  0  0
  185.4870  179.6420  145.3360 C   0  0  0  0  0  2  0  0  0  0  0  0
  184.2510  179.0260  145.6340 O   0  0  0  0  0  0  0  0  0  0  0  0
  184.5230  178.3220  143.3410 C   0  0  0  0  0  2  0  0  0  0  0  0
  185.6230  178.3900  142.2910 C   0  0  0  0  0  2  0  0  0  0  0  0
  186.6320  177.3280  140.6430 C   0  0  0  0  0  1  0  0  0  0  0  0
  185.8990  177.1100  141.8080 O   0  0  0  0  0  0  0  0  0  0  0  0
  189.9950  174.3570  141.1450 C   0  0  0  0  0  3  0  0  0  0  0  0
  189.0740  173.7570  140.3940 C   0  0  0  0  0  3  0  0  0  0  0  0
  188.9030  174.0870  139.0140 N   0  0  0  0  0  0  0  0  0  0  0  0
  187.8130  174.6780  138.4880 C   0  0  0  0  0  3  0  0  0  0  0  0
  189.7780  173.8880  138.0120 C   0  0  0  0  0  3  0  0  0  0  0  0
  189.1710  174.3730  136.8760 C   0  0  0  0  0  0  0  0  0  0  0  0
  187.9510  174.8740  137.1590 N   0  0  0  0  0  0  0  0  0  0  0  0
  190.3890  173.0650  135.1800 C   0  0  0  0  0  2  0  0  0  0  0  0
  189.8030  174.4080  135.5250 C   0  0  2  0  0  3  0  0  0  0  0  0
  191.7040  173.4500  134.5870 C   0  0  0  0  0  2  0  0  0  0  0  0
  190.8500  175.3410  135.4950 O   0  0  0  0  0  0  0  0  0  0  0  0
  191.6900  174.9030  134.5160 N   0  0  0  0  0  2  0  0  0  0  0  0
  1 39  1  6  0  0  0
  1 13  1  0  0  0  0
  2  6  1  0  0  0  0
  3  7  2  0  0  0  0
  4  9  1  0  0  0  0
  6 10  1  0  0  0  0
  6  5  2  0  0  0  0
  8 10  1  0  0  0  0
  9  8  2  0  0  0  0
 10 12  2  0  0  0  0
 11  5  1  6  0  0  0
 11 13  1  0  0  0  0
 12 11  1  0  0  0  0
 12  3  1  0  0  0  0
 13  7  1  0  0  0  0
 14  9  1  0  0  0  0
 14  2  2  0  0  0  0
 15  4  1  0  0  0  0
 16 17  1  0  0  0  0
 16 15  1  0  0  0  0
 18 21  1  6  0  0  0
 19  1  1  6  0  0  0
 19 21  1  0  0  0  0
 19 18  1  0  0  0  0
 20 21  1  0  0  0  0
 20 27  1  0  0  0  0
 22 20  2  0  0  0  0
 23 18  1  6  0  0  0
 23 24  1  0  0  0  0
 23 25  1  0  0  0  0
 24 25  1  0  0  0  0
 24 26  1  6  0  0  0
 25 26  1  6  0  0  0
 27 28  1  0  0  0  0
 29 30  1  0  0  0  0
 29 28  1  0  0  0  0
 30 31  2  0  0  0  0
 32 35  1  6  0  0  0
 32 33  1  0  0  0  0
 32 30  1  0  0  0  0
 32 34  1  0  0  0  0
 33 34  1  0  0  0  0
 36 35  1  0  0  0  0
 37 38  1  0  0  0  0
 38 36  1  0  0  0  0
 40 39  2  0  0  0  0
 41 40  1  0  0  0  0
 42 41  1  0  0  0  0
 43 41  1  0  0  0  0
 44 45  1  0  0  0  0
 44 43  2  0  0  0  0
 45 42  2  0  0  0  0
 46 47  1  0  0  0  0
 47 44  1  1  0  0  0
 48 46  1  0  0  0  0
 49 47  1  0  0  0  0
 50 48  1  0  0  0  0
 50 49  1  0  0  0  0
M  END
>  <MODEL>
9

>  <REMARK>
 VINA RESULT:      -5.5      4.459      8.488
  Name = 
  16 active torsions:
  status: ('A' for Active; 'I' for Inactive)
    1  A    between atoms: C_3  and  C_18
    2  A    between atoms: C_3  and  O_21
    3  A    between atoms: N_4  and  C_41
    4  A    between atoms: N_5  and  C_9
    5  A    between atoms: C_7  and  C_18
    6  A    between atoms: C_7  and  C_29
    7  A    between atoms: C_8  and  C_11
    8  A    between atoms: C_9  and  C_32
    9  A    between atoms: C_13  and  C_19
   10  A    between atoms: C_13  and  C_43
   11  A    between atoms: C_15  and  C_44
   12  A    between atoms: C_17  and  C_22
   13  A    between atoms: O_21  and  C_43
   14  A    between atoms: C_29  and  O_35
   15  A    between atoms: C_40  and  C_44
   16  A    between atoms: C_44  and  N_49
                            x       y       z     vdW  Elec       q    Type
                         _______ _______ _______ _____ _____    ______ ____

>  <TORSDO>
F 16

$$$$
