=
 OpenBabel11042416133D

 33 38  0  0  1  0  0  0  0  0999 V2000
  184.5580  177.9230  142.1690 C   0  0  0  0  0  3  0  0  0  0  0  0
  189.2680  174.5960  142.5350 C   0  0  0  0  0  0  0  0  0  0  0  0
  190.0250  174.3910  144.0350 S   0  0  0  0  0  0  0  0  0  0  0  0
  184.9540  178.1260  144.9000 C   0  0  0  0  0  0  0  0  0  0  0  0
  187.9130  175.8530  143.9340 C   0  0  0  0  0  0  0  0  0  0  0  0
  186.9910  176.6460  144.6430 C   0  0  0  0  0  0  0  0  0  0  0  0
  189.5620  174.0880  141.2720 C   0  0  0  0  0  3  0  0  0  0  0  0
  188.8620  175.3720  144.7860 C   0  0  0  0  0  0  0  0  0  0  0  0
  183.7230  178.6430  142.9450 N   0  0  0  0  0  0  0  0  0  0  0  0
  187.4950  176.5770  146.0420 C   0  0  0  0  0  0  0  0  0  0  0  0
  185.6310  177.2730  142.7580 C   0  0  0  0  0  3  0  0  0  0  0  0
  185.8400  177.9450  147.2740 C   0  0  0  0  0  3  0  0  0  0  0  0
  188.6120  174.5380  140.3500 C   0  0  0  0  0  0  0  0  0  0  0  0
  188.1540  175.3970  142.6310 C   0  0  0  0  0  0  0  0  0  0  0  0
  185.8700  177.3440  144.1340 C   0  0  0  0  0  0  0  0  0  0  0  0
  184.9800  178.3560  146.2720 C   0  0  0  0  0  3  0  0  0  0  0  0
  183.9190  178.7370  144.2580 N   0  0  0  0  0  0  0  0  0  0  0  0
  187.4480  175.5200  141.1140 S   0  0  0  0  0  0  0  0  0  0  0  0
  186.9630  177.1550  147.1780 C   0  0  0  0  0  3  0  0  0  0  0  0
  188.6510  175.7830  146.0700 C   0  0  0  0  0  0  0  0  0  0  0  0
  190.7960  175.6530  147.2450 C   0  0  0  0  0  0  0  0  0  0  0  0
  189.5150  175.4080  147.2070 C   0  0  0  0  0  3  0  0  0  0  0  0
  192.0740  175.9010  147.2710 C   0  0  0  0  0  3  0  0  0  0  0  0
  193.0330  174.9230  146.6870 C   0  0  0  0  0  2  0  0  0  0  0  0
  194.1920  174.6840  144.5860 O   0  0  0  0  0  0  0  0  0  0  0  0
  193.8810  175.5870  145.6160 C   0  0  2  0  0  0  0  0  0  0  0  0
  195.2610  175.1050  145.4090 C   0  0  0  0  0  2  0  0  0  0  0  0
  193.4990  176.9460  145.0550 C   0  0  0  0  0  2  0  0  0  0  0  0
  192.7170  176.7870  143.8390 N   0  0  0  0  0  2  0  0  0  0  0  0
  191.6570  177.7770  143.8910 C   0  0  0  0  0  1  0  0  0  0  0  0
  188.6030  174.1580  138.9080 C   0  0  2  0  0  3  0  0  0  0  0  0
  187.6780  174.9380  138.2120 O   0  0  0  0  0  1  0  0  0  0  0  0
  188.2540  172.6910  138.7530 C   0  0  0  0  0  1  0  0  0  0  0  0
  1 11  2  0  0  0  0
  1  9  1  0  0  0  0
  2 14  2  0  0  0  0
  2  3  1  0  0  0  0
  3  8  1  0  0  0  0
  4 16  1  0  0  0  0
  5  6  2  0  0  0  0
  5  8  1  0  0  0  0
  6 10  1  0  0  0  0
  7  2  1  0  0  0  0
  8 20  2  0  0  0  0
  9 17  2  0  0  0  0
 10 20  1  0  0  0  0
 10 19  2  0  0  0  0
 11 15  1  0  0  0  0
 13 18  1  0  0  0  0
 13  7  2  0  0  0  0
 14  5  1  0  0  0  0
 15  6  1  0  0  0  0
 15  4  2  0  0  0  0
 16 12  2  0  0  0  0
 17  4  1  0  0  0  0
 18 14  1  0  0  0  0
 19 12  1  0  0  0  0
 20 22  1  0  0  0  0
 21 23  2  0  0  0  0
 22 21  2  0  0  0  0
 24 23  1  0  0  0  0
 25 27  1  0  0  0  0
 25 26  1  0  0  0  0
 26 28  1  6  0  0  0
 26 24  1  0  0  0  0
 27 26  1  0  0  0  0
 29 30  1  0  0  0  0
 29 28  1  0  0  0  0
 31 33  1  1  0  0  0
 31 13  1  0  0  0  0
 32 31  1  0  0  0  0
M  END
>  <MODEL>
1

>  <REMARK>
 VINA RESULT:      -8.3      0.000      0.000
  Name = 
  6 active torsions:
  status: ('A' for Active; 'I' for Inactive)
    1  A    between atoms: N_3  and  C_30
    2  A    between atoms: C_5  and  C_23
    3  A    between atoms: C_9  and  C_17
    4  A    between atoms: C_9  and  C_33
    5  A    between atoms: C_13  and  C_32
    6  A    between atoms: C_17  and  C_30
                            x       y       z     vdW  Elec       q    Type
                         _______ _______ _______ _____ _____    ______ ____

>  <TORSDO>
F 6

$$$$
=
 OpenBabel11042416133D

 33 38  0  0  1  0  0  0  0  0999 V2000
  192.4870  171.2360  141.8600 C   0  0  0  0  0  3  0  0  0  0  0  0
  193.5920  175.4930  145.6060 C   0  0  0  0  0  0  0  0  0  0  0  0
  192.4120  176.6710  145.8950 S   0  0  0  0  0  0  0  0  0  0  0  0
  190.0340  172.5070  141.7220 C   0  0  0  0  0  0  0  0  0  0  0  0
  191.8560  174.7800  144.2450 C   0  0  0  0  0  0  0  0  0  0  0  0
  190.9040  174.2100  143.3790 C   0  0  0  0  0  0  0  0  0  0  0  0
  194.8720  175.3180  146.1250 C   0  0  0  0  0  3  0  0  0  0  0  0
  191.3450  175.9060  144.8200 C   0  0  0  0  0  0  0  0  0  0  0  0
  191.4970  170.7630  141.0740 N   0  0  0  0  0  0  0  0  0  0  0  0
  189.7400  175.1310  143.5090 C   0  0  0  0  0  0  0  0  0  0  0  0
  192.2620  172.3790  142.6110 C   0  0  0  0  0  3  0  0  0  0  0  0
  188.0680  174.0900  142.0090 C   0  0  0  0  0  3  0  0  0  0  0  0
  195.4480  174.1660  145.5800 C   0  0  0  0  0  0  0  0  0  0  0  0
  193.1580  174.5470  144.7080 C   0  0  0  0  0  0  0  0  0  0  0  0
  191.0390  173.0530  142.5760 C   0  0  0  0  0  0  0  0  0  0  0  0
  188.7470  172.9940  141.5110 C   0  0  0  0  0  3  0  0  0  0  0  0
  190.3190  171.3790  141.0130 N   0  0  0  0  0  0  0  0  0  0  0  0
  194.3700  173.4030  144.5040 S   0  0  0  0  0  0  0  0  0  0  0  0
  188.5040  175.0470  142.8970 C   0  0  0  0  0  3  0  0  0  0  0  0
  190.0700  176.1570  144.4050 C   0  0  0  0  0  0  0  0  0  0  0  0
  188.2250  177.1800  145.6500 C   0  0  0  0  0  0  0  0  0  0  0  0
  189.2640  177.3040  144.8700 C   0  0  0  0  0  3  0  0  0  0  0  0
  187.1890  177.0450  146.4280 C   0  0  0  0  0  3  0  0  0  0  0  0
  185.8430  176.8020  145.8360 C   0  0  0  0  0  2  0  0  0  0  0  0
  185.3790  179.0620  146.5370 O   0  0  0  0  0  0  0  0  0  0  0  0
  185.1590  178.1210  145.5180 C   0  0  2  0  0  0  0  0  0  0  0  0
  184.0600  178.5740  146.3940 C   0  0  0  0  0  2  0  0  0  0  0  0
  185.2990  178.7570  144.1450 C   0  0  0  0  0  2  0  0  0  0  0  0
  185.6420  177.7490  143.1560 N   0  0  0  0  0  2  0  0  0  0  0  0
  186.6860  178.3180  142.3230 C   0  0  0  0  0  1  0  0  0  0  0  0
  196.8030  173.6590  145.9420 C   0  0  2  0  0  3  0  0  0  0  0  0
  197.7510  174.1360  145.0360 O   0  0  0  0  0  1  0  0  0  0  0  0
  196.8150  172.1440  145.9430 C   0  0  0  0  0  1  0  0  0  0  0  0
  1 11  1  0  0  0  0
  2  3  1  0  0  0  0
  2  7  1  0  0  0  0
  4 15  1  0  0  0  0
  5 14  1  0  0  0  0
  5  8  1  0  0  0  0
  6 10  1  0  0  0  0
  6  5  2  0  0  0  0
  8  3  1  0  0  0  0
  9  1  2  0  0  0  0
 10 20  1  0  0  0  0
 12 19  1  0  0  0  0
 13 31  1  0  0  0  0
 13  7  2  0  0  0  0
 14  2  2  0  0  0  0
 15 11  2  0  0  0  0
 15  6  1  0  0  0  0
 16  4  1  0  0  0  0
 16 12  2  0  0  0  0
 17  9  1  0  0  0  0
 17  4  2  0  0  0  0
 18 14  1  0  0  0  0
 18 13  1  0  0  0  0
 19 10  2  0  0  0  0
 20  8  2  0  0  0  0
 20 22  1  0  0  0  0
 21 23  2  0  0  0  0
 22 21  2  0  0  0  0
 24 23  1  0  0  0  0
 26 28  1  6  0  0  0
 26 24  1  0  0  0  0
 26 27  1  0  0  0  0
 26 25  1  0  0  0  0
 27 25  1  0  0  0  0
 29 28  1  0  0  0  0
 30 29  1  0  0  0  0
 31 33  1  6  0  0  0
 32 31  1  0  0  0  0
M  END
>  <MODEL>
2

>  <REMARK>
 VINA RESULT:      -7.5      3.138      7.697
  Name = 
  6 active torsions:
  status: ('A' for Active; 'I' for Inactive)
    1  A    between atoms: N_3  and  C_30
    2  A    between atoms: C_5  and  C_23
    3  A    between atoms: C_9  and  C_17
    4  A    between atoms: C_9  and  C_33
    5  A    between atoms: C_13  and  C_32
    6  A    between atoms: C_17  and  C_30
                            x       y       z     vdW  Elec       q    Type
                         _______ _______ _______ _____ _____    ______ ____

>  <TORSDO>
F 6

$$$$
=
 OpenBabel11042416133D

 33 38  0  0  1  0  0  0  0  0999 V2000
  187.9380  174.8820  140.4690 C   0  0  0  0  0  3  0  0  0  0  0  0
  188.0250  177.1230  145.7940 C   0  0  0  0  0  0  0  0  0  0  0  0
  189.3540  176.8260  146.7980 S   0  0  0  0  0  0  0  0  0  0  0  0
  190.4370  173.9680  141.2240 C   0  0  0  0  0  0  0  0  0  0  0  0
  189.3820  175.8340  144.4260 C   0  0  0  0  0  0  0  0  0  0  0  0
  190.0850  175.0750  143.4720 C   0  0  0  0  0  0  0  0  0  0  0  0
  186.8570  177.8550  145.9960 C   0  0  0  0  0  3  0  0  0  0  0  0
  190.1080  175.9200  145.5770 C   0  0  0  0  0  0  0  0  0  0  0  0
  188.7030  174.1600  139.6250 N   0  0  0  0  0  0  0  0  0  0  0  0
  191.3420  174.7180  144.1880 C   0  0  0  0  0  0  0  0  0  0  0  0
  188.4210  175.1690  141.7360 C   0  0  0  0  0  3  0  0  0  0  0  0
  192.5760  173.4170  142.4810 C   0  0  0  0  0  3  0  0  0  0  0  0
  186.0710  177.8150  144.8400 C   0  0  0  0  0  0  0  0  0  0  0  0
  188.1770  176.5360  144.5600 C   0  0  0  0  0  0  0  0  0  0  0  0
  189.6780  174.7310  142.1610 C   0  0  0  0  0  0  0  0  0  0  0  0
  191.7030  173.4180  141.4080 C   0  0  0  0  0  3  0  0  0  0  0  0
  189.9050  173.7230  139.9940 N   0  0  0  0  0  0  0  0  0  0  0  0
  186.8360  176.9050  143.6200 S   0  0  0  0  0  0  0  0  0  0  0  0
  192.4200  173.9920  143.7220 C   0  0  0  0  0  3  0  0  0  0  0  0
  191.2990  175.2610  145.4800 C   0  0  0  0  0  0  0  0  0  0  0  0
  193.5640  175.4410  146.3950 C   0  0  0  0  0  0  0  0  0  0  0  0
  192.2940  175.1940  146.5690 C   0  0  0  0  0  3  0  0  0  0  0  0
  194.8290  175.6880  146.2100 C   0  0  0  0  0  3  0  0  0  0  0  0
  195.7460  174.5910  145.7920 C   0  0  0  0  0  2  0  0  0  0  0  0
  196.6670  173.8840  143.6790 O   0  0  0  0  0  0  0  0  0  0  0  0
  196.5040  174.9850  144.5350 C   0  0  2  0  0  0  0  0  0  0  0  0
  197.8330  174.3880  144.2970 C   0  0  0  0  0  2  0  0  0  0  0  0
  196.1220  176.2330  143.7570 C   0  0  0  0  0  2  0  0  0  0  0  0
  195.2070  175.8930  142.6800 N   0  0  0  0  0  2  0  0  0  0  0  0
  195.7190  176.5290  141.4800 C   0  0  0  0  0  1  0  0  0  0  0  0
  184.7650  178.5220  144.6950 C   0  0  2  0  0  3  0  0  0  0  0  0
  184.9680  179.8040  144.1830 O   0  0  0  0  0  1  0  0  0  0  0  0
  184.0640  178.6120  146.0350 C   0  0  0  0  0  1  0  0  0  0  0  0
  1 11  1  0  0  0  0
  2  7  1  0  0  0  0
  2  3  1  0  0  0  0
  4 16  1  0  0  0  0
  4 15  1  0  0  0  0
  5 14  1  0  0  0  0
  5  8  1  0  0  0  0
  6 10  1  0  0  0  0
  6  5  2  0  0  0  0
  8  3  1  0  0  0  0
  9 17  1  0  0  0  0
  9  1  2  0  0  0  0
 10 20  1  0  0  0  0
 11 15  2  0  0  0  0
 12 19  1  0  0  0  0
 13  7  2  0  0  0  0
 14  2  2  0  0  0  0
 15  6  1  0  0  0  0
 16 12  2  0  0  0  0
 17  4  2  0  0  0  0
 18 14  1  0  0  0  0
 18 13  1  0  0  0  0
 19 10  2  0  0  0  0
 20  8  2  0  0  0  0
 20 22  1  0  0  0  0
 21 22  2  0  0  0  0
 23 21  2  0  0  0  0
 24 23  1  0  0  0  0
 25 27  1  0  0  0  0
 25 26  1  0  0  0  0
 26 28  1  6  0  0  0
 26 24  1  0  0  0  0
 27 26  1  0  0  0  0
 29 28  1  0  0  0  0
 30 29  1  0  0  0  0
 31 13  1  0  0  0  0
 31 33  1  1  0  0  0
 32 31  1  0  0  0  0
M  END
>  <MODEL>
3

>  <REMARK>
 VINA RESULT:      -7.4      2.945      5.520
  Name = 
  6 active torsions:
  status: ('A' for Active; 'I' for Inactive)
    1  A    between atoms: N_3  and  C_30
    2  A    between atoms: C_5  and  C_23
    3  A    between atoms: C_9  and  C_17
    4  A    between atoms: C_9  and  C_33
    5  A    between atoms: C_13  and  C_32
    6  A    between atoms: C_17  and  C_30
                            x       y       z     vdW  Elec       q    Type
                         _______ _______ _______ _____ _____    ______ ____

>  <TORSDO>
F 6

$$$$
=
 OpenBabel11042416133D

 33 38  0  0  1  0  0  0  0  0999 V2000
  194.8250  173.0680  142.8750 C   0  0  0  0  0  3  0  0  0  0  0  0
  189.4000  174.7700  141.8470 C   0  0  0  0  0  0  0  0  0  0  0  0
  188.6530  175.8510  142.9140 S   0  0  0  0  0  0  0  0  0  0  0  0
  194.5670  174.8160  145.0040 C   0  0  0  0  0  0  0  0  0  0  0  0
  191.0790  175.1530  143.3980 C   0  0  0  0  0  0  0  0  0  0  0  0
  192.1990  175.2830  144.2410 C   0  0  0  0  0  0  0  0  0  0  0  0
  188.9470  174.1580  140.6810 C   0  0  0  0  0  3  0  0  0  0  0  0
  190.0570  175.9250  143.8640 C   0  0  0  0  0  0  0  0  0  0  0  0
  195.8430  173.2800  143.7340 N   0  0  0  0  0  0  0  0  0  0  0  0
  191.7300  176.2440  145.2770 C   0  0  0  0  0  0  0  0  0  0  0  0
  193.6300  173.7440  143.0680 C   0  0  0  0  0  3  0  0  0  0  0  0
  193.7240  176.4860  146.7240 C   0  0  0  0  0  3  0  0  0  0  0  0
  189.9610  173.3580  140.1450 C   0  0  0  0  0  0  0  0  0  0  0  0
  190.6910  174.4880  142.2280 C   0  0  0  0  0  0  0  0  0  0  0  0
  193.4540  174.6390  144.1270 C   0  0  0  0  0  0  0  0  0  0  0  0
  194.6390  175.6390  146.1240 C   0  0  0  0  0  3  0  0  0  0  0  0
  195.7130  174.1220  144.7560 N   0  0  0  0  0  0  0  0  0  0  0  0
  191.3660  173.4400  141.1040 S   0  0  0  0  0  0  0  0  0  0  0  0
  192.4270  176.7580  146.3530 C   0  0  0  0  0  3  0  0  0  0  0  0
  190.4030  176.6030  144.9970 C   0  0  0  0  0  0  0  0  0  0  0  0
  188.3600  177.1470  146.2320 C   0  0  0  0  0  0  0  0  0  0  0  0
  189.4990  177.5220  145.7160 C   0  0  0  0  0  3  0  0  0  0  0  0
  187.2240  176.7640  146.7420 C   0  0  0  0  0  3  0  0  0  0  0  0
  185.9910  176.7820  145.9060 C   0  0  0  0  0  2  0  0  0  0  0  0
  185.2700  178.7000  147.1760 O   0  0  0  0  0  0  0  0  0  0  0  0
  185.3900  178.1760  145.8790 C   0  0  2  0  0  0  0  0  0  0  0  0
  184.0680  178.3870  146.5030 C   0  0  0  0  0  2  0  0  0  0  0  0
  185.9070  179.2270  144.9100 C   0  0  0  0  0  2  0  0  0  0  0  0
  186.2940  178.6050  143.6540 N   0  0  0  0  0  2  0  0  0  0  0  0
  185.1310  178.6590  142.7860 C   0  0  0  0  0  1  0  0  0  0  0  0
  189.8300  172.5840  138.8770 C   0  0  2  0  0  3  0  0  0  0  0  0
  188.4850  172.4540  138.5310 O   0  0  0  0  0  1  0  0  0  0  0  0
  190.4520  171.2110  139.0330 C   0  0  0  0  0  1  0  0  0  0  0  0
  1 11  2  0  0  0  0
  1  9  1  0  0  0  0
  2 14  2  0  0  0  0
  2  3  1  0  0  0  0
  3  8  1  0  0  0  0
  4 16  1  0  0  0  0
  5  8  1  0  0  0  0
  5  6  2  0  0  0  0
  6 10  1  0  0  0  0
  7  2  1  0  0  0  0
  8 20  2  0  0  0  0
  9 17  2  0  0  0  0
 10 19  2  0  0  0  0
 11 15  1  0  0  0  0
 13  7  2  0  0  0  0
 13 18  1  0  0  0  0
 14  5  1  0  0  0  0
 15  6  1  0  0  0  0
 15  4  2  0  0  0  0
 16 12  2  0  0  0  0
 17  4  1  0  0  0  0
 18 14  1  0  0  0  0
 19 12  1  0  0  0  0
 20 10  1  0  0  0  0
 20 22  1  0  0  0  0
 21 23  2  0  0  0  0
 22 21  2  0  0  0  0
 24 23  1  0  0  0  0
 26 28  1  6  0  0  0
 26 24  1  0  0  0  0
 26 27  1  0  0  0  0
 26 25  1  0  0  0  0
 27 25  1  0  0  0  0
 29 28  1  0  0  0  0
 30 29  1  0  0  0  0
 31 33  1  1  0  0  0
 31 13  1  0  0  0  0
 32 31  1  0  0  0  0
M  END
>  <MODEL>
4

>  <REMARK>
 VINA RESULT:      -7.3      2.719      6.947
  Name = 
  6 active torsions:
  status: ('A' for Active; 'I' for Inactive)
    1  A    between atoms: N_3  and  C_30
    2  A    between atoms: C_5  and  C_23
    3  A    between atoms: C_9  and  C_17
    4  A    between atoms: C_9  and  C_33
    5  A    between atoms: C_13  and  C_32
    6  A    between atoms: C_17  and  C_30
                            x       y       z     vdW  Elec       q    Type
                         _______ _______ _______ _____ _____    ______ ____

>  <TORSDO>
F 6

$$$$
=
 OpenBabel11042416133D

 33 38  0  0  1  0  0  0  0  0999 V2000
  186.2890  177.3460  139.9470 C   0  0  0  0  0  3  0  0  0  0  0  0
  189.8680  173.0980  141.5390 C   0  0  0  0  0  0  0  0  0  0  0  0
  190.3290  172.9670  143.1620 S   0  0  0  0  0  0  0  0  0  0  0  0
  186.3420  177.8920  142.6590 C   0  0  0  0  0  0  0  0  0  0  0  0
  188.7080  174.8530  142.5130 C   0  0  0  0  0  0  0  0  0  0  0  0
  187.9360  175.9480  142.9470 C   0  0  0  0  0  0  0  0  0  0  0  0
  190.1920  172.3370  140.4190 C   0  0  0  0  0  3  0  0  0  0  0  0
  189.3700  174.3050  143.5710 C   0  0  0  0  0  0  0  0  0  0  0  0
  185.5710  178.3610  140.4700 N   0  0  0  0  0  0  0  0  0  0  0  0
  188.2060  175.9890  144.4110 C   0  0  0  0  0  0  0  0  0  0  0  0
  187.0630  176.5640  140.7910 C   0  0  0  0  0  3  0  0  0  0  0  0
  186.8110  177.8940  145.1560 C   0  0  0  0  0  3  0  0  0  0  0  0
  189.5290  172.8430  139.2970 C   0  0  0  0  0  0  0  0  0  0  0  0
  189.0000  174.1460  141.3390 C   0  0  0  0  0  0  0  0  0  0  0  0
  187.1190  176.8000  142.1670 C   0  0  0  0  0  0  0  0  0  0  0  0
  186.2350  178.3290  143.9760 C   0  0  0  0  0  3  0  0  0  0  0  0
  185.6010  178.6190  141.7760 N   0  0  0  0  0  0  0  0  0  0  0  0
  188.5680  174.1860  139.7180 S   0  0  0  0  0  0  0  0  0  0  0  0
  187.6910  176.8550  145.3560 C   0  0  0  0  0  3  0  0  0  0  0  0
  189.0980  174.9590  144.7380 C   0  0  0  0  0  0  0  0  0  0  0  0
  190.6640  175.2100  146.6040 C   0  0  0  0  0  0  0  0  0  0  0  0
  189.6670  174.5790  146.0470 C   0  0  0  0  0  3  0  0  0  0  0  0
  191.6610  175.8450  147.1510 C   0  0  0  0  0  3  0  0  0  0  0  0
  193.0600  175.4460  146.8320 C   0  0  0  0  0  2  0  0  0  0  0  0
  195.0950  176.2770  145.8390 O   0  0  0  0  0  0  0  0  0  0  0  0
  193.7050  176.4670  145.9100 C   0  0  2  0  0  0  0  0  0  0  0  0
  194.6450  177.4480  146.4900 C   0  0  0  0  0  2  0  0  0  0  0  0
  193.1210  176.7510  144.5360 C   0  0  0  0  0  2  0  0  0  0  0  0
  192.9910  175.5160  143.7800 N   0  0  0  0  0  2  0  0  0  0  0  0
  192.5520  175.8860  142.4460 C   0  0  0  0  0  1  0  0  0  0  0  0
  189.6220  172.2470  137.9330 C   0  0  2  0  0  3  0  0  0  0  0  0
  190.9550  171.9890  137.6120 O   0  0  0  0  0  1  0  0  0  0  0  0
  189.0230  173.1870  136.9060 C   0  0  0  0  0  1  0  0  0  0  0  0
  1  9  2  0  0  0  0
  1 11  1  0  0  0  0
  2  3  1  0  0  0  0
  3  8  1  0  0  0  0
  4 16  1  0  0  0  0
  5  6  2  0  0  0  0
  5  8  1  0  0  0  0
  6 10  1  0  0  0  0
  7  2  1  0  0  0  0
  8 20  2  0  0  0  0
  9 17  1  0  0  0  0
 10 20  1  0  0  0  0
 10 19  2  0  0  0  0
 11 15  2  0  0  0  0
 12 19  1  0  0  0  0
 13 18  1  0  0  0  0
 13  7  2  0  0  0  0
 14  2  2  0  0  0  0
 14  5  1  0  0  0  0
 15  4  1  0  0  0  0
 15  6  1  0  0  0  0
 16 12  2  0  0  0  0
 17  4  2  0  0  0  0
 18 14  1  0  0  0  0
 20 22  1  0  0  0  0
 21 23  2  0  0  0  0
 22 21  2  0  0  0  0
 24 23  1  0  0  0  0
 25 26  1  0  0  0  0
 25 27  1  0  0  0  0
 26 28  1  6  0  0  0
 26 27  1  0  0  0  0
 26 24  1  0  0  0  0
 29 28  1  0  0  0  0
 30 29  1  0  0  0  0
 31 33  1  6  0  0  0
 31 13  1  0  0  0  0
 32 31  1  0  0  0  0
M  END
>  <MODEL>
5

>  <REMARK>
 VINA RESULT:      -7.3      1.758      2.188
  Name = 
  6 active torsions:
  status: ('A' for Active; 'I' for Inactive)
    1  A    between atoms: N_3  and  C_30
    2  A    between atoms: C_5  and  C_23
    3  A    between atoms: C_9  and  C_17
    4  A    between atoms: C_9  and  C_33
    5  A    between atoms: C_13  and  C_32
    6  A    between atoms: C_17  and  C_30
                            x       y       z     vdW  Elec       q    Type
                         _______ _______ _______ _____ _____    ______ ____

>  <TORSDO>
F 6

$$$$
=
 OpenBabel11042416133D

 33 38  0  0  1  0  0  0  0  0999 V2000
  185.9760  178.4720  147.3650 C   0  0  0  0  0  3  0  0  0  0  0  0
  190.2070  176.1980  144.1530 C   0  0  0  0  0  0  0  0  0  0  0  0
  189.9420  175.9270  142.5040 S   0  0  0  0  0  0  0  0  0  0  0  0
  184.6710  178.5250  144.9260 C   0  0  0  0  0  0  0  0  0  0  0  0
  188.0390  176.9730  143.8800 C   0  0  0  0  0  0  0  0  0  0  0  0
  186.7290  177.4880  143.8820 C   0  0  0  0  0  0  0  0  0  0  0  0
  191.3170  175.9730  144.9620 C   0  0  0  0  0  3  0  0  0  0  0  0
  188.3730  176.5600  142.6240 C   0  0  0  0  0  0  0  0  0  0  0  0
  184.7240  178.9620  147.2520 N   0  0  0  0  0  0  0  0  0  0  0  0
  186.3100  177.3460  142.4600 C   0  0  0  0  0  0  0  0  0  0  0  0
  186.6140  177.9900  146.2330 C   0  0  0  0  0  3  0  0  0  0  0  0
  184.0220  178.2910  142.4810 C   0  0  0  0  0  3  0  0  0  0  0  0
  191.0420  176.3900  146.2680 C   0  0  0  0  0  0  0  0  0  0  0  0
  189.1090  176.7610  144.7600 C   0  0  0  0  0  0  0  0  0  0  0  0
  185.9960  177.9990  144.9790 C   0  0  0  0  0  0  0  0  0  0  0  0
  183.8480  178.6360  143.8090 C   0  0  0  0  0  3  0  0  0  0  0  0
  184.1020  178.9850  146.0760 N   0  0  0  0  0  0  0  0  0  0  0  0
  189.4650  177.0260  146.3790 S   0  0  0  0  0  0  0  0  0  0  0  0
  185.1140  177.7140  141.8740 C   0  0  0  0  0  3  0  0  0  0  0  0
  187.3590  176.7660  141.7330 C   0  0  0  0  0  0  0  0  0  0  0  0
  187.8140  175.2520  139.8620 C   0  0  0  0  0  0  0  0  0  0  0  0
  187.4420  176.4240  140.2990 C   0  0  0  0  0  3  0  0  0  0  0  0
  188.1880  174.0780  139.4370 C   0  0  0  0  0  3  0  0  0  0  0  0
  189.6330  173.7940  139.2190 C   0  0  0  0  0  2  0  0  0  0  0  0
  189.3230  172.2360  141.0320 O   0  0  0  0  0  0  0  0  0  0  0  0
  190.0070  172.4530  139.8250 C   0  0  2  0  0  0  0  0  0  0  0  0
  190.7190  172.4370  141.1180 C   0  0  0  0  0  2  0  0  0  0  0  0
  190.0280  171.1940  138.9730 C   0  0  0  0  0  2  0  0  0  0  0  0
  189.7010  171.5160  137.5930 N   0  0  0  0  0  2  0  0  0  0  0  0
  190.0740  170.3620  136.7950 C   0  0  0  0  0  1  0  0  0  0  0  0
  192.0230  176.3270  147.3890 C   0  0  2  0  0  3  0  0  0  0  0  0
  191.6220  177.1700  148.4260 O   0  0  0  0  0  1  0  0  0  0  0  0
  193.4010  176.7330  146.9050 C   0  0  0  0  0  1  0  0  0  0  0  0
  2 14  2  0  0  0  0
  2  7  1  0  0  0  0
  3  8  1  0  0  0  0
  3  2  1  0  0  0  0
  4 15  1  0  0  0  0
  4 17  1  0  0  0  0
  5  6  1  0  0  0  0
  5 14  1  0  0  0  0
  6 15  2  0  0  0  0
  7 13  2  0  0  0  0
  8  5  2  0  0  0  0
  9  1  1  0  0  0  0
 10  6  1  0  0  0  0
 11  1  2  0  0  0  0
 12 16  1  0  0  0  0
 13 18  1  0  0  0  0
 13 31  1  0  0  0  0
 14 18  1  0  0  0  0
 15 11  1  0  0  0  0
 16  4  2  0  0  0  0
 17  9  2  0  0  0  0
 19 10  1  0  0  0  0
 19 12  2  0  0  0  0
 20 10  2  0  0  0  0
 20  8  1  0  0  0  0
 21 22  2  0  0  0  0
 22 20  1  0  0  0  0
 23 21  2  0  0  0  0
 24 23  1  0  0  0  0
 24 26  1  0  0  0  0
 25 27  1  0  0  0  0
 26 28  1  6  0  0  0
 26 25  1  0  0  0  0
 26 27  1  0  0  0  0
 29 28  1  0  0  0  0
 30 29  1  0  0  0  0
 31 33  1  6  0  0  0
 31 32  1  0  0  0  0
M  END
>  <MODEL>
6

>  <REMARK>
 VINA RESULT:      -6.9      2.549      6.265
  Name = 
  6 active torsions:
  status: ('A' for Active; 'I' for Inactive)
    1  A    between atoms: N_3  and  C_30
    2  A    between atoms: C_5  and  C_23
    3  A    between atoms: C_9  and  C_17
    4  A    between atoms: C_9  and  C_33
    5  A    between atoms: C_13  and  C_32
    6  A    between atoms: C_17  and  C_30
                            x       y       z     vdW  Elec       q    Type
                         _______ _______ _______ _____ _____    ______ ____

>  <TORSDO>
F 6

$$$$
=
 OpenBabel11042416133D

 33 38  0  0  1  0  0  0  0  0999 V2000
  187.7610  176.1210  146.9410 C   0  0  0  0  0  3  0  0  0  0  0  0
  188.2230  175.6400  141.2020 C   0  0  0  0  0  0  0  0  0  0  0  0
  187.0870  176.4090  140.2110 S   0  0  0  0  0  0  0  0  0  0  0  0
  185.6210  177.7330  146.2530 C   0  0  0  0  0  0  0  0  0  0  0  0
  186.8560  176.6840  142.7560 C   0  0  0  0  0  0  0  0  0  0  0  0
  186.1340  177.2550  143.8210 C   0  0  0  0  0  0  0  0  0  0  0  0
  189.3350  174.8570  140.9020 C   0  0  0  0  0  3  0  0  0  0  0  0
  186.2880  177.0390  141.5690 C   0  0  0  0  0  0  0  0  0  0  0  0
  187.0140  176.7310  147.8840 N   0  0  0  0  0  0  0  0  0  0  0  0
  185.0570  178.0140  143.1280 C   0  0  0  0  0  0  0  0  0  0  0  0
  187.4460  176.3120  145.6050 C   0  0  0  0  0  3  0  0  0  0  0  0
  183.8260  179.0390  145.0160 C   0  0  0  0  0  3  0  0  0  0  0  0
  189.9710  174.4700  142.0850 C   0  0  0  0  0  0  0  0  0  0  0  0
  187.9780  175.8750  142.5340 C   0  0  0  0  0  0  0  0  0  0  0  0
  186.3760  177.1200  145.2090 C   0  0  0  0  0  0  0  0  0  0  0  0
  184.5160  178.5690  146.1190 C   0  0  0  0  0  3  0  0  0  0  0  0
  185.9850  177.5060  147.5460 N   0  0  0  0  0  0  0  0  0  0  0  0
  189.1630  175.1080  143.4420 S   0  0  0  0  0  0  0  0  0  0  0  0
  184.0600  178.7940  143.6820 C   0  0  0  0  0  3  0  0  0  0  0  0
  185.1980  177.8420  141.7430 C   0  0  0  0  0  0  0  0  0  0  0  0
  183.1150  178.6400  140.7340 C   0  0  0  0  0  0  0  0  0  0  0  0
  184.3910  178.3870  140.6340 C   0  0  0  0  0  3  0  0  0  0  0  0
  181.8410  178.8880  140.8440 C   0  0  0  0  0  3  0  0  0  0  0  0
  180.8490  177.8140  140.5590 C   0  0  0  0  0  2  0  0  0  0  0  0
  178.9110  177.6630  141.9860 O   0  0  0  0  0  0  0  0  0  0  0  0
  179.4410  178.3020  140.8530 C   0  0  2  0  0  0  0  0  0  0  0  0
  178.3240  177.3430  140.7410 C   0  0  0  0  0  2  0  0  0  0  0  0
  179.1200  179.7870  140.8630 C   0  0  0  0  0  2  0  0  0  0  0  0
  178.8260  180.2470  139.5160 N   0  0  0  0  0  2  0  0  0  0  0  0
  179.1690  181.6570  139.4710 C   0  0  0  0  0  1  0  0  0  0  0  0
  191.2180  173.6510  142.1320 C   0  0  2  0  0  3  0  0  0  0  0  0
  192.1160  174.2000  143.0480 O   0  0  0  0  0  1  0  0  0  0  0  0
  191.8590  173.5910  140.7610 C   0  0  0  0  0  1  0  0  0  0  0  0
  1  9  1  0  0  0  0
  2 14  2  0  0  0  0
  3  2  1  0  0  0  0
  3  8  1  0  0  0  0
  4 17  1  0  0  0  0
  5  6  2  0  0  0  0
  6 15  1  0  0  0  0
  7  2  1  0  0  0  0
  7 13  2  0  0  0  0
  8 20  2  0  0  0  0
  8  5  1  0  0  0  0
 10 19  2  0  0  0  0
 10  6  1  0  0  0  0
 11  1  2  0  0  0  0
 12 16  2  0  0  0  0
 13 31  1  0  0  0  0
 13 18  1  0  0  0  0
 14  5  1  0  0  0  0
 14 18  1  0  0  0  0
 15 11  1  0  0  0  0
 15  4  2  0  0  0  0
 16  4  1  0  0  0  0
 17  9  2  0  0  0  0
 19 12  1  0  0  0  0
 20 10  1  0  0  0  0
 21 23  2  0  0  0  0
 22 21  2  0  0  0  0
 22 20  1  0  0  0  0
 24 23  1  0  0  0  0
 26 24  1  6  0  0  0
 26 28  1  0  0  0  0
 26 25  1  0  0  0  0
 27 26  1  0  0  0  0
 27 25  1  0  0  0  0
 29 28  1  0  0  0  0
 30 29  1  0  0  0  0
 31 33  1  6  0  0  0
 31 32  1  0  0  0  0
M  END
>  <MODEL>
7

>  <REMARK>
 VINA RESULT:      -6.8      3.505      8.400
  Name = 
  6 active torsions:
  status: ('A' for Active; 'I' for Inactive)
    1  A    between atoms: N_3  and  C_30
    2  A    between atoms: C_5  and  C_23
    3  A    between atoms: C_9  and  C_17
    4  A    between atoms: C_9  and  C_33
    5  A    between atoms: C_13  and  C_32
    6  A    between atoms: C_17  and  C_30
                            x       y       z     vdW  Elec       q    Type
                         _______ _______ _______ _____ _____    ______ ____

>  <TORSDO>
F 6

$$$$
=
 OpenBabel11042416133D

 33 38  0  0  1  0  0  0  0  0999 V2000
  186.1620  177.5440  141.0850 C   0  0  0  0  0  3  0  0  0  0  0  0
  188.3300  176.1710  146.2620 C   0  0  0  0  0  0  0  0  0  0  0  0
  189.4230  174.8850  146.3890 S   0  0  0  0  0  0  0  0  0  0  0  0
  187.8370  175.5010  140.2640 C   0  0  0  0  0  0  0  0  0  0  0  0
  188.5150  175.4760  144.0580 C   0  0  0  0  0  0  0  0  0  0  0  0
  188.5210  175.1870  142.6800 C   0  0  0  0  0  0  0  0  0  0  0  0
  187.8040  177.0380  147.2170 C   0  0  0  0  0  3  0  0  0  0  0  0
  189.3470  174.6190  144.7160 C   0  0  0  0  0  0  0  0  0  0  0  0
  186.2580  177.1980  139.7850 N   0  0  0  0  0  0  0  0  0  0  0  0
  189.4740  174.0470  142.5810 C   0  0  0  0  0  0  0  0  0  0  0  0
  186.9230  176.8610  142.0210 C   0  0  0  0  0  3  0  0  0  0  0  0
  189.4970  173.5810  140.1500 C   0  0  0  0  0  3  0  0  0  0  0  0
  186.9480  177.9550  146.6000 C   0  0  0  0  0  0  0  0  0  0  0  0
  187.9320  176.3740  144.9620 C   0  0  0  0  0  0  0  0  0  0  0  0
  187.7850  175.8240  141.6540 C   0  0  0  0  0  0  0  0  0  0  0  0
  188.6060  174.5140  139.6540 C   0  0  0  0  0  3  0  0  0  0  0  0
  187.0650  176.2140  139.3970 N   0  0  0  0  0  0  0  0  0  0  0  0
  186.8800  177.6810  144.9200 S   0  0  0  0  0  0  0  0  0  0  0  0
  189.8860  173.3660  141.4530 C   0  0  0  0  0  3  0  0  0  0  0  0
  189.9480  173.7370  143.8640 C   0  0  0  0  0  0  0  0  0  0  0  0
  192.0610  172.9730  144.8370 C   0  0  0  0  0  0  0  0  0  0  0  0
  190.9060  172.7000  144.2960 C   0  0  0  0  0  3  0  0  0  0  0  0
  193.2130  173.2560  145.3750 C   0  0  0  0  0  3  0  0  0  0  0  0
  194.4020  173.4820  144.5070 C   0  0  0  0  0  2  0  0  0  0  0  0
  195.5700  175.4410  143.7240 O   0  0  0  0  0  0  0  0  0  0  0  0
  195.0820  174.7910  144.8690 C   0  0  2  0  0  0  0  0  0  0  0  0
  196.5310  174.9260  144.6230 C   0  0  0  0  0  2  0  0  0  0  0  0
  194.4150  175.7760  145.8150 C   0  0  0  0  0  2  0  0  0  0  0  0
  193.9250  176.9290  145.0770 N   0  0  0  0  0  2  0  0  0  0  0  0
  192.4890  176.7610  144.9420 C   0  0  0  0  0  1  0  0  0  0  0  0
  186.2390  179.0510  147.3220 C   0  0  2  0  0  3  0  0  0  0  0  0
  186.8840  179.3260  148.5280 O   0  0  0  0  0  1  0  0  0  0  0  0
  184.8000  178.6590  147.5900 C   0  0  0  0  0  1  0  0  0  0  0  0
  1 11  1  0  0  0  0
  2  3  1  0  0  0  0
  2  7  1  0  0  0  0
  4 15  1  0  0  0  0
  5  8  1  0  0  0  0
  5 14  1  0  0  0  0
  6  5  2  0  0  0  0
  8  3  1  0  0  0  0
  9  1  2  0  0  0  0
 10  6  1  0  0  0  0
 10 20  1  0  0  0  0
 12 19  1  0  0  0  0
 13  7  2  0  0  0  0
 13 31  1  0  0  0  0
 14  2  2  0  0  0  0
 15 11  2  0  0  0  0
 15  6  1  0  0  0  0
 16 12  2  0  0  0  0
 16  4  1  0  0  0  0
 17  9  1  0  0  0  0
 17  4  2  0  0  0  0
 18 14  1  0  0  0  0
 18 13  1  0  0  0  0
 19 10  2  0  0  0  0
 20 22  1  0  0  0  0
 20  8  2  0  0  0  0
 21 23  2  0  0  0  0
 22 21  2  0  0  0  0
 24 23  1  0  0  0  0
 25 27  1  0  0  0  0
 25 26  1  0  0  0  0
 26 24  1  6  0  0  0
 26 28  1  0  0  0  0
 27 26  1  0  0  0  0
 29 28  1  0  0  0  0
 30 29  1  0  0  0  0
 31 33  1  1  0  0  0
 31 32  1  0  0  0  0
M  END
>  <MODEL>
8

>  <REMARK>
 VINA RESULT:      -6.5      2.633      5.333
  Name = 
  6 active torsions:
  status: ('A' for Active; 'I' for Inactive)
    1  A    between atoms: N_3  and  C_30
    2  A    between atoms: C_5  and  C_23
    3  A    between atoms: C_9  and  C_17
    4  A    between atoms: C_9  and  C_33
    5  A    between atoms: C_13  and  C_32
    6  A    between atoms: C_17  and  C_30
                            x       y       z     vdW  Elec       q    Type
                         _______ _______ _______ _____ _____    ______ ____

>  <TORSDO>
F 6

$$$$
=
 OpenBabel11042416133D

 33 38  0  0  1  0  0  0  0  0999 V2000
  191.9540  176.4000  146.8230 C   0  0  0  0  0  3  0  0  0  0  0  0
  186.6660  176.8380  144.5360 C   0  0  0  0  0  0  0  0  0  0  0  0
  186.4010  176.3040  142.9520 S   0  0  0  0  0  0  0  0  0  0  0  0
  192.5000  175.2220  144.3800 C   0  0  0  0  0  0  0  0  0  0  0  0
  188.7630  176.0540  143.9330 C   0  0  0  0  0  0  0  0  0  0  0  0
  190.0860  175.6180  143.7300 C   0  0  0  0  0  0  0  0  0  0  0  0
  185.8110  177.4020  145.4790 C   0  0  0  0  0  3  0  0  0  0  0  0
  188.0210  175.8220  142.8130 C   0  0  0  0  0  0  0  0  0  0  0  0
  193.1850  175.9320  146.5310 N   0  0  0  0  0  0  0  0  0  0  0  0
  190.0520  175.0800  142.3420 C   0  0  0  0  0  0  0  0  0  0  0  0
  190.9490  176.2830  145.8760 C   0  0  0  0  0  3  0  0  0  0  0  0
  192.3750  174.2860  142.0210 C   0  0  0  0  0  3  0  0  0  0  0  0
  186.5140  177.6530  146.6620 C   0  0  0  0  0  0  0  0  0  0  0  0
  187.9700  176.6410  144.9280 C   0  0  0  0  0  0  0  0  0  0  0  0
  191.1760  175.6930  144.6300 C   0  0  0  0  0  0  0  0  0  0  0  0
  192.9750  174.6090  143.2240 C   0  0  0  0  0  3  0  0  0  0  0  0
  193.4410  175.3660  145.3540 N   0  0  0  0  0  0  0  0  0  0  0  0
  188.1390  177.1650  146.5140 S   0  0  0  0  0  0  0  0  0  0  0  0
  191.0750  174.4950  141.6210 C   0  0  0  0  0  3  0  0  0  0  0  0
  188.7580  175.2350  141.8260 C   0  0  0  0  0  0  0  0  0  0  0  0
  188.5450  173.7640  139.8790 C   0  0  0  0  0  0  0  0  0  0  0  0
  188.2140  174.8600  140.5050 C   0  0  0  0  0  3  0  0  0  0  0  0
  188.8850  172.6690  139.2620 C   0  0  0  0  0  3  0  0  0  0  0  0
  190.0780  172.6580  138.3710 C   0  0  0  0  0  2  0  0  0  0  0  0
  192.3340  172.0420  138.9580 O   0  0  0  0  0  0  0  0  0  0  0  0
  191.0330  171.5480  138.7770 C   0  0  2  0  0  0  0  0  0  0  0  0
  192.1260  171.1850  137.8540 C   0  0  0  0  0  2  0  0  0  0  0  0
  190.6610  170.5690  139.8780 C   0  0  0  0  0  2  0  0  0  0  0  0
  191.4020  170.8720  141.0920 N   0  0  0  0  0  2  0  0  0  0  0  0
  190.4410  170.8720  142.1800 C   0  0  0  0  0  1  0  0  0  0  0  0
  185.8970  178.2240  147.8940 C   0  0  2  0  0  3  0  0  0  0  0  0
  184.5870  178.6270  147.6310 O   0  0  0  0  0  1  0  0  0  0  0  0
  186.7060  179.4060  148.3880 C   0  0  0  0  0  1  0  0  0  0  0  0
  2 14  2  0  0  0  0
  2  7  1  0  0  0  0
  3  2  1  0  0  0  0
  4 15  1  0  0  0  0
  4 17  1  0  0  0  0
  5 14  1  0  0  0  0
  6  5  1  0  0  0  0
  6 15  2  0  0  0  0
  7 13  2  0  0  0  0
  8  3  1  0  0  0  0
  8  5  2  0  0  0  0
  9  1  1  0  0  0  0
 10  6  1  0  0  0  0
 11  1  2  0  0  0  0
 12 16  1  0  0  0  0
 13 31  1  0  0  0  0
 14 18  1  0  0  0  0
 15 11  1  0  0  0  0
 16  4  2  0  0  0  0
 17  9  2  0  0  0  0
 18 13  1  0  0  0  0
 19 12  2  0  0  0  0
 19 10  1  0  0  0  0
 20 10  2  0  0  0  0
 20  8  1  0  0  0  0
 21 22  2  0  0  0  0
 22 20  1  0  0  0  0
 23 21  2  0  0  0  0
 24 23  1  0  0  0  0
 26 24  1  6  0  0  0
 26 25  1  0  0  0  0
 26 28  1  0  0  0  0
 27 26  1  0  0  0  0
 27 25  1  0  0  0  0
 28 29  1  0  0  0  0
 29 30  1  0  0  0  0
 31 33  1  6  0  0  0
 32 31  1  0  0  0  0
M  END
>  <MODEL>
9

>  <REMARK>
 VINA RESULT:      -6.5      3.368      7.553
  Name = 
  6 active torsions:
  status: ('A' for Active; 'I' for Inactive)
    1  A    between atoms: N_3  and  C_30
    2  A    between atoms: C_5  and  C_23
    3  A    between atoms: C_9  and  C_17
    4  A    between atoms: C_9  and  C_33
    5  A    between atoms: C_13  and  C_32
    6  A    between atoms: C_17  and  C_30
                            x       y       z     vdW  Elec       q    Type
                         _______ _______ _______ _____ _____    ______ ____

>  <TORSDO>
F 6

$$$$
