=
 OpenBabel11042413583D

 30 33  0  0  1  0  0  0  0  0999 V2000
  188.5680  175.0350  146.9540 O   0  0  0  0  0  0  0  0  0  0  0  0
  185.5260  178.6490  147.5370 C   0  0  0  0  0  3  0  0  0  0  0  0
  183.8330  179.2010  145.9530 F   0  0  0  0  0  0  0  0  0  0  0  0
  186.8160  178.1850  147.8100 C   0  0  0  0  0  3  0  0  0  0  0  0
  190.7090  175.5230  144.6070 N   0  0  0  0  0  2  0  0  0  0  0  0
  185.0850  178.7550  146.2160 C   0  0  0  0  0  0  0  0  0  0  0  0
  189.9720  175.7920  142.4230 O   0  0  0  0  0  0  0  0  0  0  0  0
  188.2830  176.1670  144.0710 C   0  0  1  0  0  3  0  0  0  0  0  0
  187.2340  177.9540  145.4270 C   0  0  0  0  0  0  0  0  0  0  0  0
  189.3640  175.9910  146.7500 C   0  0  0  0  0  0  0  0  0  0  0  0
  189.6810  175.8160  143.6490 C   0  0  0  0  0  0  0  0  0  0  0  0
  185.9400  178.4160  145.1640 C   0  0  0  0  0  3  0  0  0  0  0  0
  191.8020  176.5000  146.6330 N   0  0  0  0  0  0  0  0  0  0  0  0
  188.1470  177.6650  144.2760 C   0  0  0  0  0  2  0  0  0  0  0  0
  187.6670  177.8180  146.7640 C   0  0  0  0  0  0  0  0  0  0  0  0
  191.6850  175.0380  146.8210 C   0  0  0  0  0  2  0  0  0  0  0  0
  190.6640  175.7410  146.0620 C   0  0  2  0  0  0  0  0  0  0  0  0
  188.9770  177.3290  147.0670 N   0  0  0  0  0  2  0  0  0  0  0  0
  192.8790  176.6990  145.6690 C   0  0  0  0  0  2  0  0  0  0  0  0
  194.2270  176.5670  146.3580 C   0  0  0  0  0  2  0  0  0  0  0  0
  195.6280  174.7070  145.8490 O   0  0  0  0  0  1  0  0  0  0  0  0
  195.1900  175.8310  145.4910 C   0  0  0  0  0  0  0  0  0  0  0  0
  195.6320  176.3990  144.3040 O   0  0  0  0  0  0  0  0  0  0  0  0
  187.2970  175.6970  143.1050 N   0  0  0  0  0  2  0  0  0  0  0  0
  186.6430  177.6620  140.0510 N   0  0  0  0  0  0  0  0  0  0  0  0
  184.7960  177.9910  141.5320 C   0  0  0  0  0  3  0  0  0  0  0  0
  185.4050  177.1490  142.4640 C   0  0  0  0  0  3  0  0  0  0  0  0
  187.2500  176.8370  140.9450 C   0  0  0  0  0  3  0  0  0  0  0  0
  186.6430  176.5610  142.1730 C   0  0  0  0  0  0  0  0  0  0  0  0
  185.4380  178.2380  140.3160 C   0  0  0  0  0  3  0  0  0  0  0  0
  2  4  1  0  0  0  0
  3  6  1  0  0  0  0
  5 17  1  0  0  0  0
  6  2  2  0  0  0  0
  7 11  2  0  0  0  0
  8 24  1  6  0  0  0
  8 14  1  0  0  0  0
  9 15  1  0  0  0  0
 10  1  2  0  0  0  0
 10 18  1  0  0  0  0
 11  8  1  0  0  0  0
 11  5  1  0  0  0  0
 12  9  2  0  0  0  0
 12  6  1  0  0  0  0
 13 16  1  0  0  0  0
 14  9  1  0  0  0  0
 15 18  1  0  0  0  0
 15  4  2  0  0  0  0
 17 13  1  0  0  0  0
 17 10  1  0  0  0  0
 17 16  1  1  0  0  0
 19 20  1  0  0  0  0
 19 13  1  0  0  0  0
 22 21  1  0  0  0  0
 22 20  1  0  0  0  0
 23 22  2  0  0  0  0
 25 30  2  0  0  0  0
 25 28  1  0  0  0  0
 26 27  2  0  0  0  0
 28 29  2  0  0  0  0
 29 27  1  0  0  0  0
 29 24  1  0  0  0  0
 30 26  1  0  0  0  0
M  END
>  <MODEL>
1

>  <REMARK>
 VINA RESULT:      -8.3      0.000      0.000
  Name = 
  5 active torsions:
  status: ('A' for Active; 'I' for Inactive)
    1  A    between atoms: C_4  and  C_5
    2  A    between atoms: C_4  and  N_21
    3  A    between atoms: C_5  and  C_15
    4  A    between atoms: C_11  and  N_30
    5  A    between atoms: C_27  and  N_30
                            x       y       z     vdW  Elec       q    Type
                         _______ _______ _______ _____ _____    ______ ____

>  <TORSDO>
F 5

$$$$
=
 OpenBabel11042413583D

 30 33  0  0  1  0  0  0  0  0999 V2000
  190.3760  178.4290  144.5500 O   0  0  0  0  0  0  0  0  0  0  0  0
  186.9770  177.9920  141.2470 C   0  0  0  0  0  3  0  0  0  0  0  0
  184.7130  177.4510  141.7650 F   0  0  0  0  0  0  0  0  0  0  0  0
  188.3410  177.8430  141.5100 C   0  0  0  0  0  3  0  0  0  0  0  0
  191.1960  175.6420  145.9260 N   0  0  0  0  0  2  0  0  0  0  0  0
  186.0360  177.3030  142.0180 C   0  0  0  0  0  0  0  0  0  0  0  0
  189.6100  174.4490  147.1290 O   0  0  0  0  0  0  0  0  0  0  0  0
  188.6810  176.0490  145.6180 C   0  0  1  0  0  3  0  0  0  0  0  0
  187.8240  176.2910  143.3060 C   0  0  0  0  0  0  0  0  0  0  0  0
  190.7400  177.3340  144.0420 C   0  0  0  0  0  0  0  0  0  0  0  0
  189.8340  175.3420  146.2690 C   0  0  0  0  0  0  0  0  0  0  0  0
  186.4590  176.4480  143.0390 C   0  0  0  0  0  3  0  0  0  0  0  0
  192.7020  175.7980  143.9360 N   0  0  0  0  0  0  0  0  0  0  0  0
  188.2450  175.3150  144.3610 C   0  0  0  0  0  2  0  0  0  0  0  0
  188.7710  177.0120  142.5480 C   0  0  0  0  0  0  0  0  0  0  0  0
  193.0610  176.8750  144.8830 C   0  0  0  0  0  2  0  0  0  0  0  0
  191.6770  176.4440  144.7890 C   0  0  2  0  0  0  0  0  0  0  0  0
  190.1710  176.8880  142.8100 N   0  0  0  0  0  2  0  0  0  0  0  0
  193.2130  174.5610  144.5180 C   0  0  0  0  0  2  0  0  0  0  0  0
  192.9620  173.3970  143.5730 C   0  0  0  0  0  2  0  0  0  0  0  0
  190.9410  172.4820  144.4450 O   0  0  0  0  0  1  0  0  0  0  0  0
  191.5070  173.0870  143.4970 C   0  0  0  0  0  0  0  0  0  0  0  0
  190.7800  173.4330  142.3670 O   0  0  0  0  0  0  0  0  0  0  0  0
  187.5550  176.1960  146.5320 N   0  0  0  0  0  2  0  0  0  0  0  0
  184.1630  177.6420  146.3730 N   0  0  0  0  0  0  0  0  0  0  0  0
  185.7050  179.3350  145.6910 C   0  0  0  0  0  3  0  0  0  0  0  0
  186.7590  178.4410  145.8830 C   0  0  0  0  0  3  0  0  0  0  0  0
  185.1780  176.7570  146.5690 C   0  0  0  0  0  3  0  0  0  0  0  0
  186.5000  177.1390  146.3280 C   0  0  0  0  0  0  0  0  0  0  0  0
  184.3980  178.9120  145.9450 C   0  0  0  0  0  3  0  0  0  0  0  0
  2  4  2  0  0  0  0
  2  6  1  0  0  0  0
  3  6  1  0  0  0  0
  4 15  1  0  0  0  0
  5 11  1  0  0  0  0
  6 12  2  0  0  0  0
  8 11  1  0  0  0  0
  8 24  1  1  0  0  0
  9 14  1  0  0  0  0
 10  1  2  0  0  0  0
 10 17  1  0  0  0  0
 11  7  2  0  0  0  0
 12  9  1  0  0  0  0
 13 19  1  0  0  0  0
 13 17  1  0  0  0  0
 13 16  1  0  0  0  0
 14  8  1  0  0  0  0
 15 18  1  0  0  0  0
 15  9  2  0  0  0  0
 17 16  1  1  0  0  0
 17  5  1  0  0  0  0
 18 10  1  0  0  0  0
 20 19  1  0  0  0  0
 22 20  1  0  0  0  0
 22 21  1  0  0  0  0
 23 22  2  0  0  0  0
 25 28  1  0  0  0  0
 26 27  2  0  0  0  0
 26 30  1  0  0  0  0
 27 29  1  0  0  0  0
 29 24  1  0  0  0  0
 29 28  2  0  0  0  0
 30 25  2  0  0  0  0
M  END
>  <MODEL>
2

>  <REMARK>
 VINA RESULT:      -7.9      2.380      4.363
  Name = 
  5 active torsions:
  status: ('A' for Active; 'I' for Inactive)
    1  A    between atoms: C_4  and  C_5
    2  A    between atoms: C_4  and  N_21
    3  A    between atoms: C_5  and  C_15
    4  A    between atoms: C_11  and  N_30
    5  A    between atoms: C_27  and  N_30
                            x       y       z     vdW  Elec       q    Type
                         _______ _______ _______ _____ _____    ______ ____

>  <TORSDO>
F 5

$$$$
=
 OpenBabel11042413583D

 30 33  0  0  1  0  0  0  0  0999 V2000
  190.1150  173.3880  144.3250 O   0  0  0  0  0  0  0  0  0  0  0  0
  187.6610  176.1570  147.3180 C   0  0  0  0  0  3  0  0  0  0  0  0
  186.6540  178.2170  146.6650 F   0  0  0  0  0  0  0  0  0  0  0  0
  188.7100  175.2410  147.2080 C   0  0  0  0  0  3  0  0  0  0  0  0
  192.9280  174.6510  143.4180 N   0  0  0  0  0  2  0  0  0  0  0  0
  187.6740  177.3320  146.5610 C   0  0  0  0  0  0  0  0  0  0  0  0
  192.9580  176.6510  142.2410 O   0  0  0  0  0  0  0  0  0  0  0  0
  190.9240  176.2550  143.4290 C   0  0  1  0  0  3  0  0  0  0  0  0
  189.8050  176.6920  145.5950 C   0  0  0  0  0  0  0  0  0  0  0  0
  191.0760  173.8330  145.0070 C   0  0  0  0  0  0  0  0  0  0  0  0
  192.3090  175.8740  142.9910 C   0  0  0  0  0  0  0  0  0  0  0  0
  188.7480  177.6020  145.7080 C   0  0  0  0  0  3  0  0  0  0  0  0
  193.4790  173.3860  145.5040 N   0  0  0  0  0  0  0  0  0  0  0  0
  190.9720  177.0450  144.7260 C   0  0  0  0  0  2  0  0  0  0  0  0
  189.7740  175.4910  146.3370 C   0  0  0  0  0  0  0  0  0  0  0  0
  193.0770  172.4190  144.4600 C   0  0  0  0  0  2  0  0  0  0  0  0
  192.4680  173.7380  144.4780 C   0  0  2  0  0  0  0  0  0  0  0  0
  190.8290  174.5320  146.2280 N   0  0  0  0  0  2  0  0  0  0  0  0
  194.8190  173.8360  145.1440 C   0  0  0  0  0  2  0  0  0  0  0  0
  195.3380  174.8150  146.1850 C   0  0  0  0  0  2  0  0  0  0  0  0
  193.7580  176.4780  146.8310 O   0  0  0  0  0  1  0  0  0  0  0  0
  194.6730  176.1400  146.0370 C   0  0  0  0  0  0  0  0  0  0  0  0
  195.0390  176.9900  145.0020 O   0  0  0  0  0  0  0  0  0  0  0  0
  190.2250  177.0150  142.4000 N   0  0  0  0  0  2  0  0  0  0  0  0
  186.8170  178.2610  141.7280 N   0  0  0  0  0  0  0  0  0  0  0  0
  186.6240  176.0090  142.5010 C   0  0  0  0  0  3  0  0  0  0  0  0
  188.0130  175.9400  142.6220 C   0  0  0  0  0  3  0  0  0  0  0  0
  188.1720  178.2130  141.8360 C   0  0  0  0  0  3  0  0  0  0  0  0
  188.8000  177.0490  142.2860 C   0  0  0  0  0  0  0  0  0  0  0  0
  186.0380  177.1920  142.0470 C   0  0  0  0  0  3  0  0  0  0  0  0
  1 10  2  0  0  0  0
  4  2  1  0  0  0  0
  5 17  1  0  0  0  0
  6  3  1  0  0  0  0
  6  2  2  0  0  0  0
  7 11  2  0  0  0  0
  8 24  1  6  0  0  0
  8 14  1  0  0  0  0
  9 12  2  0  0  0  0
  9 15  1  0  0  0  0
 10 18  1  0  0  0  0
 11  5  1  0  0  0  0
 11  8  1  0  0  0  0
 12  6  1  0  0  0  0
 14  9  1  0  0  0  0
 15  4  2  0  0  0  0
 16 13  1  0  0  0  0
 17 16  1  6  0  0  0
 17 10  1  0  0  0  0
 17 13  1  0  0  0  0
 18 15  1  0  0  0  0
 19 13  1  0  0  0  0
 19 20  1  0  0  0  0
 22 20  1  0  0  0  0
 22 21  1  0  0  0  0
 23 22  2  0  0  0  0
 25 28  2  0  0  0  0
 25 30  1  0  0  0  0
 26 27  1  0  0  0  0
 28 29  1  0  0  0  0
 29 24  1  0  0  0  0
 29 27  2  0  0  0  0
 30 26  2  0  0  0  0
M  END
>  <MODEL>
3

>  <REMARK>
 VINA RESULT:      -7.9      2.144      2.892
  Name = 
  5 active torsions:
  status: ('A' for Active; 'I' for Inactive)
    1  A    between atoms: C_4  and  C_5
    2  A    between atoms: C_4  and  N_21
    3  A    between atoms: C_5  and  C_15
    4  A    between atoms: C_11  and  N_30
    5  A    between atoms: C_27  and  N_30
                            x       y       z     vdW  Elec       q    Type
                         _______ _______ _______ _____ _____    ______ ____

>  <TORSDO>
F 5

$$$$
=
 OpenBabel11042413583D

 30 33  0  0  1  0  0  0  0  0999 V2000
  190.3190  178.5820  144.5900 O   0  0  0  0  0  0  0  0  0  0  0  0
  186.9350  177.9420  141.3040 C   0  0  0  0  0  3  0  0  0  0  0  0
  184.6950  177.3240  141.8380 F   0  0  0  0  0  0  0  0  0  0  0  0
  188.3040  177.8520  141.5670 C   0  0  0  0  0  3  0  0  0  0  0  0
  191.2500  175.8610  146.0230 N   0  0  0  0  0  2  0  0  0  0  0  0
  186.0230  177.2330  142.0920 C   0  0  0  0  0  0  0  0  0  0  0  0
  189.7130  174.6320  147.2550 O   0  0  0  0  0  0  0  0  0  0  0  0
  188.7200  176.1610  145.7120 C   0  0  1  0  0  3  0  0  0  0  0  0
  187.8510  176.3200  143.3980 C   0  0  0  0  0  0  0  0  0  0  0  0
  190.7250  177.4920  144.1040 C   0  0  0  0  0  0  0  0  0  0  0  0
  189.9010  175.5150  146.3750 C   0  0  0  0  0  0  0  0  0  0  0  0
  186.4810  176.4180  143.1300 C   0  0  0  0  0  3  0  0  0  0  0  0
  192.7460  176.0320  144.0270 N   0  0  0  0  0  0  0  0  0  0  0  0
  188.3120  175.3840  144.4720 C   0  0  0  0  0  2  0  0  0  0  0  0
  188.7680  177.0610  142.6220 C   0  0  0  0  0  0  0  0  0  0  0  0
  193.0630  177.1430  144.9500 C   0  0  0  0  0  2  0  0  0  0  0  0
  191.6970  176.6560  144.8680 C   0  0  2  0  0  0  0  0  0  0  0  0
  190.1730  176.9980  142.8830 N   0  0  0  0  0  2  0  0  0  0  0  0
  193.3050  174.8300  144.6340 C   0  0  0  0  0  2  0  0  0  0  0  0
  194.5960  174.4420  143.9310 C   0  0  0  0  0  2  0  0  0  0  0  0
  196.8960  174.9970  144.2150 O   0  0  0  0  0  0  0  0  0  0  0  0
  195.7770  174.8110  144.7600 C   0  0  0  0  0  0  0  0  0  0  0  0
  195.6530  174.9170  146.1380 O   0  0  0  0  0  1  0  0  0  0  0  0
  187.5900  176.2840  146.6260 N   0  0  0  0  0  2  0  0  0  0  0  0
  184.1640  177.6470  146.4950 N   0  0  0  0  0  0  0  0  0  0  0  0
  185.6510  179.3520  145.7270 C   0  0  0  0  0  3  0  0  0  0  0  0
  186.7300  178.4880  145.9250 C   0  0  0  0  0  3  0  0  0  0  0  0
  185.2020  176.7920  146.6960 C   0  0  0  0  0  3  0  0  0  0  0  0
  186.5100  177.1950  146.4150 C   0  0  0  0  0  0  0  0  0  0  0  0
  184.3600  178.9080  146.0220 C   0  0  0  0  0  3  0  0  0  0  0  0
  2  4  2  0  0  0  0
  2  6  1  0  0  0  0
  3  6  1  0  0  0  0
  4 15  1  0  0  0  0
  5 11  1  0  0  0  0
  6 12  2  0  0  0  0
  8 11  1  0  0  0  0
  8 24  1  1  0  0  0
  9 14  1  0  0  0  0
 10  1  2  0  0  0  0
 10 17  1  0  0  0  0
 11  7  2  0  0  0  0
 12  9  1  0  0  0  0
 13 19  1  0  0  0  0
 13 17  1  0  0  0  0
 13 16  1  0  0  0  0
 14  8  1  0  0  0  0
 15 18  1  0  0  0  0
 15  9  2  0  0  0  0
 17 16  1  1  0  0  0
 17  5  1  0  0  0  0
 18 10  1  0  0  0  0
 20 19  1  0  0  0  0
 20 22  1  0  0  0  0
 21 22  2  0  0  0  0
 22 23  1  0  0  0  0
 25 28  1  0  0  0  0
 26 27  2  0  0  0  0
 26 30  1  0  0  0  0
 27 29  1  0  0  0  0
 29 24  1  0  0  0  0
 29 28  2  0  0  0  0
 30 25  2  0  0  0  0
M  END
>  <MODEL>
4

>  <REMARK>
 VINA RESULT:      -7.8      1.965      4.030
  Name = 
  5 active torsions:
  status: ('A' for Active; 'I' for Inactive)
    1  A    between atoms: C_4  and  C_5
    2  A    between atoms: C_4  and  N_21
    3  A    between atoms: C_5  and  C_15
    4  A    between atoms: C_11  and  N_30
    5  A    between atoms: C_27  and  N_30
                            x       y       z     vdW  Elec       q    Type
                         _______ _______ _______ _____ _____    ______ ____

>  <TORSDO>
F 5

$$$$
=
 OpenBabel11042413583D

 30 33  0  0  1  0  0  0  0  0999 V2000
  189.2510  174.4100  145.8510 O   0  0  0  0  0  0  0  0  0  0  0  0
  185.5630  177.2470  146.8520 C   0  0  0  0  0  3  0  0  0  0  0  0
  184.1590  178.2050  145.1800 F   0  0  0  0  0  0  0  0  0  0  0  0
  186.8310  176.8310  147.2670 C   0  0  0  0  0  3  0  0  0  0  0  0
  191.7060  175.9400  144.4500 N   0  0  0  0  0  2  0  0  0  0  0  0
  185.3900  177.8060  145.5830 C   0  0  0  0  0  0  0  0  0  0  0  0
  191.3960  176.9500  142.3830 O   0  0  0  0  0  0  0  0  0  0  0  0
  189.3670  176.5200  143.5680 C   0  0  1  0  0  3  0  0  0  0  0  0
  187.7620  177.5580  145.1440 C   0  0  0  0  0  0  0  0  0  0  0  0
  189.8890  175.4390  146.2010 C   0  0  0  0  0  0  0  0  0  0  0  0
  190.8600  176.4820  143.4230 C   0  0  0  0  0  0  0  0  0  0  0  0
  186.4880  177.9690  144.7350 C   0  0  0  0  0  3  0  0  0  0  0  0
  192.1710  176.1690  146.8960 N   0  0  0  0  0  0  0  0  0  0  0  0
  188.9270  177.8110  144.2380 C   0  0  0  0  0  2  0  0  0  0  0  0
  187.9300  176.9650  146.4140 C   0  0  0  0  0  0  0  0  0  0  0  0
  192.2790  174.7410  146.5280 C   0  0  0  0  0  2  0  0  0  0  0  0
  191.3260  175.5850  145.8270 C   0  0  2  0  0  0  0  0  0  0  0  0
  189.2150  176.5170  146.8520 N   0  0  0  0  0  2  0  0  0  0  0  0
  193.3690  176.8140  146.3700 C   0  0  0  0  0  2  0  0  0  0  0  0
  194.5580  175.8740  146.4790 C   0  0  0  0  0  2  0  0  0  0  0  0
  195.3770  176.7970  144.4400 O   0  0  0  0  0  0  0  0  0  0  0  0
  195.2750  175.7820  145.1760 C   0  0  0  0  0  0  0  0  0  0  0  0
  195.8030  174.5680  144.7570 O   0  0  0  0  0  1  0  0  0  0  0  0
  188.6980  176.3660  142.2810 N   0  0  0  0  0  2  0  0  0  0  0  0
  188.2530  173.8740  139.5960 N   0  0  0  0  0  0  0  0  0  0  0  0
  188.3850  172.6900  141.6680 C   0  0  0  0  0  3  0  0  0  0  0  0
  188.5370  173.9040  142.3420 C   0  0  0  0  0  3  0  0  0  0  0  0
  188.4020  175.0660  140.2350 C   0  0  0  0  0  3  0  0  0  0  0  0
  188.5480  175.1060  141.6240 C   0  0  0  0  0  0  0  0  0  0  0  0
  188.2430  172.6970  140.2780 C   0  0  0  0  0  3  0  0  0  0  0  0
  1 10  2  0  0  0  0
  2  4  1  0  0  0  0
  3  6  1  0  0  0  0
  5 17  1  0  0  0  0
  6  2  2  0  0  0  0
  7 11  2  0  0  0  0
  8 24  1  6  0  0  0
  8 14  1  0  0  0  0
  9 15  1  0  0  0  0
 10 18  1  0  0  0  0
 11  8  1  0  0  0  0
 11  5  1  0  0  0  0
 12  9  2  0  0  0  0
 12  6  1  0  0  0  0
 14  9  1  0  0  0  0
 15 18  1  0  0  0  0
 15  4  2  0  0  0  0
 16 13  1  0  0  0  0
 17 10  1  0  0  0  0
 17 16  1  1  0  0  0
 17 13  1  0  0  0  0
 19 20  1  0  0  0  0
 19 13  1  0  0  0  0
 21 22  2  0  0  0  0
 22 20  1  0  0  0  0
 23 22  1  0  0  0  0
 25 28  2  0  0  0  0
 25 30  1  0  0  0  0
 26 27  1  0  0  0  0
 28 29  1  0  0  0  0
 29 24  1  0  0  0  0
 29 27  2  0  0  0  0
 30 26  2  0  0  0  0
M  END
>  <MODEL>
5

>  <REMARK>
 VINA RESULT:      -7.5      1.779      2.353
  Name = 
  5 active torsions:
  status: ('A' for Active; 'I' for Inactive)
    1  A    between atoms: C_4  and  C_5
    2  A    between atoms: C_4  and  N_21
    3  A    between atoms: C_5  and  C_15
    4  A    between atoms: C_11  and  N_30
    5  A    between atoms: C_27  and  N_30
                            x       y       z     vdW  Elec       q    Type
                         _______ _______ _______ _____ _____    ______ ____

>  <TORSDO>
F 5

$$$$
=
 OpenBabel11042413583D

 30 33  0  0  1  0  0  0  0  0999 V2000
  191.6320  177.1090  143.6140 O   0  0  0  0  0  0  0  0  0  0  0  0
  189.5380  173.6940  141.0420 C   0  0  0  0  0  3  0  0  0  0  0  0
  187.4450  172.7150  141.6280 F   0  0  0  0  0  0  0  0  0  0  0  0
  190.7620  174.2430  141.4330 C   0  0  0  0  0  3  0  0  0  0  0  0
  192.7330  176.0850  146.4550 N   0  0  0  0  0  2  0  0  0  0  0  0
  188.6330  173.2430  142.0080 C   0  0  0  0  0  0  0  0  0  0  0  0
  191.2430  175.2470  148.0250 O   0  0  0  0  0  0  0  0  0  0  0  0
  190.3910  175.2680  145.7940 C   0  0  1  0  0  3  0  0  0  0  0  0
  190.1870  173.8650  143.7630 C   0  0  0  0  0  0  0  0  0  0  0  0
  192.3980  176.1510  143.9050 C   0  0  0  0  0  0  0  0  0  0  0  0
  191.4580  175.5320  146.8170 C   0  0  0  0  0  0  0  0  0  0  0  0
  188.9610  173.3200  143.3640 C   0  0  0  0  0  3  0  0  0  0  0  0
  194.6420  175.6870  144.8900 N   0  0  0  0  0  0  0  0  0  0  0  0
  190.5350  173.8690  145.2200 C   0  0  0  0  0  2  0  0  0  0  0  0
  191.0860  174.3500  142.7880 C   0  0  0  0  0  0  0  0  0  0  0  0
  194.4240  177.1450  145.0050 C   0  0  0  0  0  2  0  0  0  0  0  0
  193.2860  176.2470  145.1000 C   0  0  2  0  0  0  0  0  0  0  0  0
  192.3370  174.9300  143.1650 N   0  0  0  0  0  2  0  0  0  0  0  0
  195.2740  175.2720  146.1380 C   0  0  0  0  0  2  0  0  0  0  0  0
  196.1080  174.0220  145.9100 C   0  0  0  0  0  2  0  0  0  0  0  0
  195.7360  172.2960  144.3100 O   0  0  0  0  0  0  0  0  0  0  0  0
  195.2850  172.9480  145.2880 C   0  0  0  0  0  0  0  0  0  0  0  0
  194.0080  172.6870  145.7630 O   0  0  0  0  0  1  0  0  0  0  0  0
  189.0560  175.4510  146.3510 N   0  0  0  0  0  2  0  0  0  0  0  0
  186.1500  177.7190  146.1850 N   0  0  0  0  0  0  0  0  0  0  0  0
  187.3400  177.9160  144.1230 C   0  0  0  0  0  3  0  0  0  0  0  0
  188.2690  176.9780  144.5790 C   0  0  0  0  0  3  0  0  0  0  0  0
  187.0460  176.8060  146.6480 C   0  0  0  0  0  3  0  0  0  0  0  0
  188.1270  176.4160  145.8530 C   0  0  0  0  0  0  0  0  0  0  0  0
  186.2750  178.2780  144.9510 C   0  0  0  0  0  3  0  0  0  0  0  0
  1 10  2  0  0  0  0
  2  4  2  0  0  0  0
  2  6  1  0  0  0  0
  3  6  1  0  0  0  0
  4 15  1  0  0  0  0
  5 11  1  0  0  0  0
  6 12  2  0  0  0  0
  8 24  1  1  0  0  0
  8 11  1  0  0  0  0
  9 14  1  0  0  0  0
 10 17  1  0  0  0  0
 11  7  2  0  0  0  0
 12  9  1  0  0  0  0
 13 16  1  0  0  0  0
 13 17  1  0  0  0  0
 13 19  1  0  0  0  0
 14  8  1  0  0  0  0
 15 18  1  0  0  0  0
 15  9  2  0  0  0  0
 17 16  1  1  0  0  0
 17  5  1  0  0  0  0
 18 10  1  0  0  0  0
 20 19  1  0  0  0  0
 21 22  2  0  0  0  0
 22 23  1  0  0  0  0
 22 20  1  0  0  0  0
 25 28  1  0  0  0  0
 26 27  2  0  0  0  0
 26 30  1  0  0  0  0
 27 29  1  0  0  0  0
 29 24  1  0  0  0  0
 29 28  2  0  0  0  0
 30 25  2  0  0  0  0
M  END
>  <MODEL>
6

>  <REMARK>
 VINA RESULT:      -7.4      2.930      5.130
  Name = 
  5 active torsions:
  status: ('A' for Active; 'I' for Inactive)
    1  A    between atoms: C_4  and  C_5
    2  A    between atoms: C_4  and  N_21
    3  A    between atoms: C_5  and  C_15
    4  A    between atoms: C_11  and  N_30
    5  A    between atoms: C_27  and  N_30
                            x       y       z     vdW  Elec       q    Type
                         _______ _______ _______ _____ _____    ______ ____

>  <TORSDO>
F 5

$$$$
=
 OpenBabel11042413583D

 30 33  0  0  1  0  0  0  0  0999 V2000
  190.4330  177.7330  143.5820 O   0  0  0  0  0  0  0  0  0  0  0  0
  193.5640  175.6670  146.5130 C   0  0  0  0  0  3  0  0  0  0  0  0
  194.7860  173.7010  145.9440 F   0  0  0  0  0  0  0  0  0  0  0  0
  192.3860  176.4160  146.4420 C   0  0  0  0  0  3  0  0  0  0  0  0
  187.7550  176.0110  143.1420 N   0  0  0  0  0  2  0  0  0  0  0  0
  193.6420  174.4250  145.8780 C   0  0  0  0  0  0  0  0  0  0  0  0
  187.8940  173.9070  142.1730 O   0  0  0  0  0  0  0  0  0  0  0  0
  189.9610  174.7020  143.0670 C   0  0  1  0  0  3  0  0  0  0  0  0
  191.3520  174.6620  145.1160 C   0  0  0  0  0  0  0  0  0  0  0  0
  189.6230  177.2410  144.4140 C   0  0  0  0  0  0  0  0  0  0  0  0
  188.4980  174.8420  142.7630 C   0  0  0  0  0  0  0  0  0  0  0  0
  192.5360  173.9200  145.1890 C   0  0  0  0  0  3  0  0  0  0  0  0
  187.2460  177.4150  145.1480 N   0  0  0  0  0  0  0  0  0  0  0  0
  190.1650  174.0610  144.4290 C   0  0  0  0  0  2  0  0  0  0  0  0
  191.2850  175.9310  145.7310 C   0  0  0  0  0  0  0  0  0  0  0  0
  187.3910  178.3040  143.9760 C   0  0  0  0  0  2  0  0  0  0  0  0
  188.1850  177.0890  144.0480 C   0  0  2  0  0  0  0  0  0  0  0  0
  190.0960  176.7220  145.6580 N   0  0  0  0  0  2  0  0  0  0  0  0
  185.9560  176.7510  144.9950 C   0  0  0  0  0  2  0  0  0  0  0  0
  185.1900  176.7910  146.3070 C   0  0  0  0  0  2  0  0  0  0  0  0
  183.8170  178.6900  145.8720 O   0  0  0  0  0  0  0  0  0  0  0  0
  184.7090  178.1720  146.5930 C   0  0  0  0  0  0  0  0  0  0  0  0
  185.2670  178.9020  147.6330 O   0  0  0  0  0  1  0  0  0  0  0  0
  190.6530  173.9320  142.0390 N   0  0  0  0  0  2  0  0  0  0  0  0
  193.7490  173.8340  140.0350 N   0  0  0  0  0  0  0  0  0  0  0  0
  193.8900  175.7230  141.4930 C   0  0  0  0  0  3  0  0  0  0  0  0
  192.6340  175.4040  142.0120 C   0  0  0  0  0  3  0  0  0  0  0  0
  192.5240  173.5100  140.5270 C   0  0  0  0  0  3  0  0  0  0  0  0
  191.9380  174.2900  141.5280 C   0  0  0  0  0  0  0  0  0  0  0  0
  194.4370  174.9160  140.4920 C   0  0  0  0  0  3  0  0  0  0  0  0
  1 10  2  0  0  0  0
  4  2  1  0  0  0  0
  5 17  1  0  0  0  0
  6  3  1  0  0  0  0
  6  2  2  0  0  0  0
  7 11  2  0  0  0  0
  8 24  1  6  0  0  0
  8 14  1  0  0  0  0
  9 12  2  0  0  0  0
  9 15  1  0  0  0  0
 10 18  1  0  0  0  0
 11  8  1  0  0  0  0
 11  5  1  0  0  0  0
 12  6  1  0  0  0  0
 14  9  1  0  0  0  0
 15  4  2  0  0  0  0
 16 13  1  0  0  0  0
 17 16  1  6  0  0  0
 17 10  1  0  0  0  0
 17 13  1  0  0  0  0
 18 15  1  0  0  0  0
 19 13  1  0  0  0  0
 19 20  1  0  0  0  0
 20 22  1  0  0  0  0
 21 22  2  0  0  0  0
 22 23  1  0  0  0  0
 25 30  2  0  0  0  0
 25 28  1  0  0  0  0
 26 27  2  0  0  0  0
 28 29  2  0  0  0  0
 29 27  1  0  0  0  0
 29 24  1  0  0  0  0
 30 26  1  0  0  0  0
M  END
>  <MODEL>
7

>  <REMARK>
 VINA RESULT:      -7.4      3.669      7.139
  Name = 
  5 active torsions:
  status: ('A' for Active; 'I' for Inactive)
    1  A    between atoms: C_4  and  C_5
    2  A    between atoms: C_4  and  N_21
    3  A    between atoms: C_5  and  C_15
    4  A    between atoms: C_11  and  N_30
    5  A    between atoms: C_27  and  N_30
                            x       y       z     vdW  Elec       q    Type
                         _______ _______ _______ _____ _____    ______ ____

>  <TORSDO>
F 5

$$$$
=
 OpenBabel11042413583D

 30 33  0  0  1  0  0  0  0  0999 V2000
  190.5280  177.9130  143.1390 O   0  0  0  0  0  0  0  0  0  0  0  0
  190.6520  176.9330  147.7960 C   0  0  0  0  0  3  0  0  0  0  0  0
  191.5680  174.9190  148.6830 F   0  0  0  0  0  0  0  0  0  0  0  0
  189.9480  177.5930  146.7850 C   0  0  0  0  0  3  0  0  0  0  0  0
  188.4710  176.0710  141.4930 N   0  0  0  0  0  2  0  0  0  0  0  0
  190.8820  175.5570  147.7050 C   0  0  0  0  0  0  0  0  0  0  0  0
  188.7990  173.7750  141.4180 O   0  0  0  0  0  0  0  0  0  0  0  0
  189.9370  174.8590  143.2160 C   0  0  1  0  0  3  0  0  0  0  0  0
  189.6830  175.4900  145.5980 C   0  0  0  0  0  0  0  0  0  0  0  0
  189.3020  177.6810  143.3200 C   0  0  0  0  0  0  0  0  0  0  0  0
  189.0540  174.8620  142.0020 C   0  0  0  0  0  0  0  0  0  0  0  0
  190.3910  174.8370  146.6130 C   0  0  0  0  0  3  0  0  0  0  0  0
  187.0810  178.0120  142.2360 N   0  0  0  0  0  0  0  0  0  0  0  0
  189.1120  174.6760  144.4780 C   0  0  0  0  0  2  0  0  0  0  0  0
  189.4780  176.8840  145.6750 C   0  0  0  0  0  0  0  0  0  0  0  0
  188.0950  178.5000  141.2770 C   0  0  0  0  0  2  0  0  0  0  0  0
  188.4220  177.3870  142.1520 C   0  0  2  0  0  0  0  0  0  0  0  0
  188.7760  177.5830  144.6450 N   0  0  0  0  0  2  0  0  0  0  0  0
  186.0830  177.3020  141.4440 C   0  0  0  0  0  2  0  0  0  0  0  0
  185.1280  178.2910  140.7970 C   0  0  0  0  0  2  0  0  0  0  0  0
  183.6570  178.2910  142.6720 O   0  0  0  0  0  1  0  0  0  0  0  0
  183.7790  178.2040  141.4220 C   0  0  0  0  0  0  0  0  0  0  0  0
  182.6580  177.9940  140.6310 O   0  0  0  0  0  0  0  0  0  0  0  0
  190.9650  173.8280  143.1310 N   0  0  0  0  0  2  0  0  0  0  0  0
  194.6120  173.3050  143.3250 N   0  0  0  0  0  0  0  0  0  0  0  0
  194.1720  175.5700  143.9470 C   0  0  0  0  0  3  0  0  0  0  0  0
  192.8070  175.3490  143.7520 C   0  0  0  0  0  3  0  0  0  0  0  0
  193.2870  173.0720  143.1270 C   0  0  0  0  0  3  0  0  0  0  0  0
  192.3550  174.0910  143.3360 C   0  0  0  0  0  0  0  0  0  0  0  0
  195.0700  174.5230  143.7250 C   0  0  0  0  0  3  0  0  0  0  0  0
  1 10  2  0  0  0  0
  4  2  2  0  0  0  0
  5 11  1  0  0  0  0
  5 17  1  0  0  0  0
  6  2  1  0  0  0  0
  6  3  1  0  0  0  0
  7 11  2  0  0  0  0
  8 24  1  6  0  0  0
  8 14  1  0  0  0  0
  9 15  2  0  0  0  0
  9 12  1  0  0  0  0
 10 18  1  0  0  0  0
 11  8  1  0  0  0  0
 12  6  2  0  0  0  0
 14  9  1  0  0  0  0
 15  4  1  0  0  0  0
 16 13  1  0  0  0  0
 17 16  1  6  0  0  0
 17 13  1  0  0  0  0
 17 10  1  0  0  0  0
 18 15  1  0  0  0  0
 19 13  1  0  0  0  0
 20 22  1  0  0  0  0
 20 19  1  0  0  0  0
 22 21  1  0  0  0  0
 23 22  2  0  0  0  0
 24 29  1  0  0  0  0
 25 30  1  0  0  0  0
 27 26  1  0  0  0  0
 28 25  2  0  0  0  0
 28 29  1  0  0  0  0
 29 27  2  0  0  0  0
 30 26  2  0  0  0  0
M  END
>  <MODEL>
8

>  <REMARK>
 VINA RESULT:      -7.4      3.368      7.307
  Name = 
  5 active torsions:
  status: ('A' for Active; 'I' for Inactive)
    1  A    between atoms: C_4  and  C_5
    2  A    between atoms: C_4  and  N_21
    3  A    between atoms: C_5  and  C_15
    4  A    between atoms: C_11  and  N_30
    5  A    between atoms: C_27  and  N_30
                            x       y       z     vdW  Elec       q    Type
                         _______ _______ _______ _____ _____    ______ ____

>  <TORSDO>
F 5

$$$$
=
 OpenBabel11042413583D

 30 33  0  0  1  0  0  0  0  0999 V2000
  189.3170  173.6370  144.3680 O   0  0  0  0  0  0  0  0  0  0  0  0
  193.5240  174.9950  146.1340 C   0  0  0  0  0  3  0  0  0  0  0  0
  193.9080  177.1470  147.0870 F   0  0  0  0  0  0  0  0  0  0  0  0
  192.8890  174.1970  145.1790 C   0  0  0  0  0  3  0  0  0  0  0  0
  188.5150  175.1520  141.6500 N   0  0  0  0  0  2  0  0  0  0  0  0
  193.2950  176.3740  146.1580 C   0  0  0  0  0  0  0  0  0  0  0  0
  188.2260  177.4550  141.6650 O   0  0  0  0  0  0  0  0  0  0  0  0
  189.4910  176.6220  143.5130 C   0  0  1  0  0  3  0  0  0  0  0  0
  191.8110  176.1670  144.2510 C   0  0  0  0  0  0  0  0  0  0  0  0
  189.9470  173.7740  143.2840 C   0  0  0  0  0  0  0  0  0  0  0  0
  188.7110  176.4450  142.2420 C   0  0  0  0  0  0  0  0  0  0  0  0
  192.4470  176.9590  145.2130 C   0  0  0  0  0  3  0  0  0  0  0  0
  189.8150  173.1630  140.8700 N   0  0  0  0  0  0  0  0  0  0  0  0
  190.9640  176.8340  143.2110 C   0  0  0  0  0  2  0  0  0  0  0  0
  192.0180  174.7700  144.2490 C   0  0  0  0  0  0  0  0  0  0  0  0
  188.5600  172.6900  141.4940 C   0  0  0  0  0  2  0  0  0  0  0  0
  189.1950  173.8940  142.0010 C   0  0  2  0  0  0  0  0  0  0  0  0
  191.3660  173.9310  143.2910 N   0  0  0  0  0  2  0  0  0  0  0  0
  189.4390  173.7170  139.5740 C   0  0  0  0  0  2  0  0  0  0  0  0
  190.4640  173.3270  138.5220 C   0  0  0  0  0  2  0  0  0  0  0  0
  191.8020  171.3580  138.6430 O   0  0  0  0  0  1  0  0  0  0  0  0
  190.6530  171.8490  138.4960 C   0  0  0  0  0  0  0  0  0  0  0  0
  189.5670  171.0130  138.2750 O   0  0  0  0  0  0  0  0  0  0  0  0
  188.9750  177.7300  144.3100 N   0  0  0  0  0  2  0  0  0  0  0  0
  185.5300  178.2080  145.5410 N   0  0  0  0  0  0  0  0  0  0  0  0
  186.6630  176.7910  147.0960 C   0  0  0  0  0  3  0  0  0  0  0  0
  187.8160  176.8690  146.3130 C   0  0  0  0  0  3  0  0  0  0  0  0
  186.6420  178.2940  144.7640 C   0  0  0  0  0  3  0  0  0  0  0  0
  187.8120  177.6240  145.1340 C   0  0  0  0  0  0  0  0  0  0  0  0
  185.5160  177.4750  146.6880 C   0  0  0  0  0  3  0  0  0  0  0  0
  2  6  1  0  0  0  0
  4  2  2  0  0  0  0
  5 17  1  0  0  0  0
  5 11  1  0  0  0  0
  6  3  1  0  0  0  0
  7 11  2  0  0  0  0
  8 24  1  6  0  0  0
  9 12  1  0  0  0  0
 10 18  1  0  0  0  0
 10  1  2  0  0  0  0
 11  8  1  0  0  0  0
 12  6  2  0  0  0  0
 13 16  1  0  0  0  0
 13 17  1  0  0  0  0
 14  8  1  0  0  0  0
 14  9  1  0  0  0  0
 15  9  2  0  0  0  0
 15  4  1  0  0  0  0
 17 16  1  1  0  0  0
 17 10  1  0  0  0  0
 18 15  1  0  0  0  0
 19 13  1  0  0  0  0
 20 19  1  0  0  0  0
 22 20  1  0  0  0  0
 22 21  1  0  0  0  0
 23 22  2  0  0  0  0
 24 29  1  0  0  0  0
 25 30  1  0  0  0  0
 27 26  1  0  0  0  0
 28 29  1  0  0  0  0
 28 25  2  0  0  0  0
 29 27  2  0  0  0  0
 30 26  2  0  0  0  0
M  END
>  <MODEL>
9

>  <REMARK>
 VINA RESULT:      -7.3      3.627      6.341
  Name = 
  5 active torsions:
  status: ('A' for Active; 'I' for Inactive)
    1  A    between atoms: C_4  and  C_5
    2  A    between atoms: C_4  and  N_21
    3  A    between atoms: C_5  and  C_15
    4  A    between atoms: C_11  and  N_30
    5  A    between atoms: C_27  and  N_30
                            x       y       z     vdW  Elec       q    Type
                         _______ _______ _______ _____ _____    ______ ____

>  <TORSDO>
F 5

$$$$
