=
 OpenBabel11042419043D

 43 46  0  0  1  0  0  0  0  0999 V2000
  188.8120  177.9120  146.6940 C   0  0  0  0  0  3  0  0  0  0  0  0
  192.2640  175.7200  144.1560 C   0  0  0  0  0  0  0  0  0  0  0  0
  190.1190  172.1260  143.8610 C   0  0  0  0  0  2  0  0  0  0  0  0
  190.0940  177.5280  146.3070 C   0  0  0  0  0  3  0  0  0  0  0  0
  188.9730  172.0200  142.8520 C   0  0  0  0  0  2  0  0  0  0  0  0
  187.9730  175.7580  146.0220 C   0  0  0  0  0  3  0  0  0  0  0  0
  193.6430  175.6590  143.9410 C   0  0  0  0  0  3  0  0  0  0  0  0
  190.3440  176.2600  145.7570 C   0  0  0  0  0  0  0  0  0  0  0  0
  189.2920  172.8040  141.5770 C   0  0  1  0  0  3  0  0  0  0  0  0
  187.7400  177.0300  146.5560 C   0  0  0  0  0  0  0  0  0  0  0  0
  192.6940  176.0870  146.5060 C   0  0  0  0  0  3  0  0  0  0  0  0
  191.7670  175.9450  145.4640 C   0  0  0  0  0  0  0  0  0  0  0  0
  194.0300  175.9980  146.2690 N   0  0  0  0  0  0  0  0  0  0  0  0
  189.2490  175.3560  145.6100 C   0  0  0  0  0  0  0  0  0  0  0  0
  190.3810  173.5810  144.2490 C   0  0  2  0  0  3  0  0  0  0  0  0
  194.5200  175.7940  145.0190 C   0  0  0  0  0  0  0  0  0  0  0  0
  189.3380  174.0600  145.0810 O   0  0  0  0  0  0  0  0  0  0  0  0
  189.5560  174.2810  141.8850 C   0  0  0  0  0  2  0  0  0  0  0  0
  190.5120  174.4480  143.0270 C   0  0  0  0  0  0  0  0  0  0  0  0
  191.3860  175.4510  143.0090 C   0  0  0  0  0  3  0  0  0  0  0  0
  189.3020  174.6700  136.7450 N   0  0  0  0  0  2  0  0  0  0  0  0
  191.6080  171.7550  138.9360 O   0  0  0  0  0  0  0  0  0  0  0  0
  189.9550  173.5380  137.3350 C   0  0  0  0  0  0  0  0  0  0  0  0
  190.4210  172.2000  140.8800 N   0  0  0  0  0  2  0  0  0  0  0  0
  189.9460  173.3990  138.7590 N   0  0  0  0  0  2  0  0  0  0  0  0
  190.6930  172.4200  139.4950 C   0  0  0  0  0  0  0  0  0  0  0  0
  190.4930  172.6600  136.6070 O   0  0  0  0  0  0  0  0  0  0  0  0
  188.9420  173.6660  134.6780 O   0  0  0  0  0  1  0  0  0  0  0  0
  189.1520  174.8940  135.3080 C   0  0  0  0  0  0  0  0  0  0  0  0
  190.4080  175.5290  134.7410 C   0  0  0  0  0  1  0  0  0  0  0  0
  187.9590  175.7940  135.0330 C   0  0  0  0  0  1  0  0  0  0  0  0
  185.1860  177.0500  146.1720 C   0  0  0  0  0  1  0  0  0  0  0  0
  186.2190  178.1240  148.0150 O   0  0  0  0  0  0  0  0  0  0  0  0
  186.3830  177.4380  146.9710 C   0  0  0  0  0  0  0  0  0  0  0  0
  195.9910  175.7720  144.7930 C   0  0  0  0  0  2  0  0  0  0  0  0
  196.7370  173.7060  145.6550 C   0  0  0  0  0  3  0  0  0  0  0  0
  196.4270  174.4120  144.6340 N   0  0  0  0  0  0  0  0  0  0  0  0
  197.1920  172.2900  145.4930 C   0  0  0  0  0  2  0  0  0  0  0  0
  196.0600  171.3080  145.7700 C   0  0  0  0  0  2  0  0  0  0  0  0
  195.2630  171.0940  144.5690 N   0  0  0  0  0  2  0  0  0  0  0  0
  193.4180  172.4780  145.3880 O   0  0  0  0  0  1  0  0  0  0  0  0
  193.9900  171.7110  144.3790 C   0  0  0  0  0  0  0  0  0  0  0  0
  193.3780  171.5580  143.2890 O   0  0  0  0  0  0  0  0  0  0  0  0
  2 12  1  0  0  0  0
  4  1  2  0  0  0  0
  5  3  1  0  0  0  0
  6 10  2  0  0  0  0
  7  2  2  0  0  0  0
  7 16  1  0  0  0  0
  8  4  1  0  0  0  0
  9 24  1  1  0  0  0
  9 18  1  0  0  0  0
  9  5  1  0  0  0  0
 10  1  1  0  0  0  0
 10 34  1  0  0  0  0
 12  8  1  0  0  0  0
 12 11  2  0  0  0  0
 13 11  1  0  0  0  0
 14  8  2  0  0  0  0
 14  6  1  0  0  0  0
 15  3  1  6  0  0  0
 15 17  1  0  0  0  0
 16 13  2  0  0  0  0
 17 14  1  0  0  0  0
 18 19  1  0  0  0  0
 19 15  1  0  0  0  0
 20 19  2  0  0  0  0
 20  2  1  0  0  0  0
 21 23  1  0  0  0  0
 22 26  2  0  0  0  0
 23 25  1  0  0  0  0
 25 26  1  0  0  0  0
 26 24  1  0  0  0  0
 27 23  2  0  0  0  0
 28 29  1  0  0  0  0
 29 21  1  0  0  0  0
 30 29  1  0  0  0  0
 31 29  1  0  0  0  0
 32 34  1  0  0  0  0
 34 33  2  0  0  0  0
 35 16  1  0  0  0  0
 37 35  1  0  0  0  0
 37 36  2  0  0  0  0
 38 36  1  0  0  0  0
 38 39  1  0  0  0  0
 40 39  1  0  0  0  0
 42 40  1  0  0  0  0
 42 41  1  0  0  0  0
 43 42  2  0  0  0  0
M  END
>  <MODEL>
1

>  <REMARK>
 VINA RESULT:      -7.2      0.000      0.000
  Name = 
  8 active torsions:
  status: ('A' for Active; 'I' for Inactive)
    1  A    between atoms: N_1  and  C_13
    2  A    between atoms: N_5  and  C_31
    3  A    between atoms: C_6  and  C_29
    4  A    between atoms: C_6  and  C_31
    5  A    between atoms: C_17  and  N_23
    6  A    between atoms: C_18  and  C_35
    7  A    between atoms: C_33  and  C_40
    8  A    between atoms: C_40  and  N_43
                            x       y       z     vdW  Elec       q    Type
                         _______ _______ _______ _____ _____    ______ ____

>  <TORSDO>
F 8

$$$$
=
 OpenBabel11042419043D

 43 46  0  0  1  0  0  0  0  0999 V2000
  197.2040  170.1440  146.0310 C   0  0  0  0  0  3  0  0  0  0  0  0
  196.2630  174.1240  143.4940 C   0  0  0  0  0  0  0  0  0  0  0  0
  192.1070  173.6100  143.7470 C   0  0  0  0  0  2  0  0  0  0  0  0
  197.3260  171.1050  145.0300 C   0  0  0  0  0  3  0  0  0  0  0  0
  191.3860  173.9750  145.0460 C   0  0  0  0  0  2  0  0  0  0  0  0
  194.8210  170.4810  146.0520 C   0  0  0  0  0  3  0  0  0  0  0  0
  196.7420  174.9580  142.4800 C   0  0  0  0  0  3  0  0  0  0  0  0
  196.2050  171.7850  144.5270 C   0  0  0  0  0  0  0  0  0  0  0  0
  192.0260  175.2020  145.7010 C   0  0  1  0  0  3  0  0  0  0  0  0
  195.9500  169.8230  146.5500 C   0  0  0  0  0  0  0  0  0  0  0  0
  197.1290  172.2250  142.2760 C   0  0  0  0  0  3  0  0  0  0  0  0
  196.4610  172.7240  143.4030 C   0  0  0  0  0  0  0  0  0  0  0  0
  197.5630  173.0600  141.2940 N   0  0  0  0  0  0  0  0  0  0  0  0
  194.9200  171.4620  145.0580 C   0  0  0  0  0  0  0  0  0  0  0  0
  193.5810  173.2990  144.0010 C   0  0  2  0  0  3  0  0  0  0  0  0
  197.3890  174.4040  141.3740 C   0  0  0  0  0  0  0  0  0  0  0  0
  193.7110  172.0510  144.6600 O   0  0  0  0  0  0  0  0  0  0  0  0
  193.5090  174.9620  145.9990 C   0  0  0  0  0  2  0  0  0  0  0  0
  194.2270  174.3870  144.8150 C   0  0  0  0  0  0  0  0  0  0  0  0
  195.4840  174.7460  144.5730 C   0  0  0  0  0  3  0  0  0  0  0  0
  187.4280  177.2560  146.9130 N   0  0  0  0  0  2  0  0  0  0  0  0
  190.5110  178.0810  144.0090 O   0  0  0  0  0  0  0  0  0  0  0  0
  188.2940  177.4460  145.7860 C   0  0  0  0  0  0  0  0  0  0  0  0
  191.8400  176.3790  144.8610 N   0  0  0  0  0  2  0  0  0  0  0  0
  189.6180  176.9090  145.8330 N   0  0  0  0  0  2  0  0  0  0  0  0
  190.6440  177.1600  144.8610 C   0  0  0  0  0  0  0  0  0  0  0  0
  187.8790  178.0430  144.7540 O   0  0  0  0  0  0  0  0  0  0  0  0
  185.5720  177.5540  148.2840 O   0  0  0  0  0  1  0  0  0  0  0  0
  186.0260  177.6690  146.9690 C   0  0  0  0  0  0  0  0  0  0  0  0
  185.1790  176.7800  146.0770 C   0  0  0  0  0  1  0  0  0  0  0  0
  185.8810  179.1170  146.5280 C   0  0  0  0  0  1  0  0  0  0  0  0
  197.0290  168.1890  148.2350 C   0  0  0  0  0  1  0  0  0  0  0  0
  194.6830  168.4340  148.0020 O   0  0  0  0  0  0  0  0  0  0  0  0
  195.8230  168.8020  147.6090 C   0  0  0  0  0  0  0  0  0  0  0  0
  197.9390  175.2880  140.3100 C   0  0  0  0  0  2  0  0  0  0  0  0
  196.4640  174.8560  138.5190 C   0  0  0  0  0  3  0  0  0  0  0  0
  196.8800  175.6690  139.4150 N   0  0  0  0  0  0  0  0  0  0  0  0
  195.3630  175.2500  137.5850 C   0  0  0  0  0  2  0  0  0  0  0  0
  194.2740  174.1850  137.5310 C   0  0  0  0  0  2  0  0  0  0  0  0
  193.2220  174.4800  138.4950 N   0  0  0  0  0  2  0  0  0  0  0  0
  193.2030  172.1930  139.3690 O   0  0  0  0  0  0  0  0  0  0  0  0
  192.7400  173.5040  139.4190 C   0  0  0  0  0  0  0  0  0  0  0  0
  191.8870  173.8310  140.2850 O   0  0  0  0  0  1  0  0  0  0  0  0
  1 10  1  0  0  0  0
  2 20  1  0  0  0  0
  3  5  1  0  0  0  0
  4  1  2  0  0  0  0
  5  9  1  0  0  0  0
  6 10  2  0  0  0  0
  7  2  2  0  0  0  0
  8  4  1  0  0  0  0
  8 14  2  0  0  0  0
  9 24  1  6  0  0  0
  9 18  1  0  0  0  0
 10 34  1  0  0  0  0
 11 12  2  0  0  0  0
 12  2  1  0  0  0  0
 12  8  1  0  0  0  0
 13 16  2  0  0  0  0
 13 11  1  0  0  0  0
 14  6  1  0  0  0  0
 15  3  1  1  0  0  0
 15 17  1  0  0  0  0
 15 19  1  0  0  0  0
 16  7  1  0  0  0  0
 17 14  1  0  0  0  0
 19 18  1  0  0  0  0
 20 19  2  0  0  0  0
 21 29  1  0  0  0  0
 22 26  2  0  0  0  0
 23 25  1  0  0  0  0
 23 21  1  0  0  0  0
 24 26  1  0  0  0  0
 26 25  1  0  0  0  0
 27 23  2  0  0  0  0
 29 28  1  0  0  0  0
 30 29  1  0  0  0  0
 31 29  1  0  0  0  0
 34 33  2  0  0  0  0
 34 32  1  0  0  0  0
 35 16  1  0  0  0  0
 36 37  2  0  0  0  0
 37 35  1  0  0  0  0
 38 36  1  0  0  0  0
 39 38  1  0  0  0  0
 39 40  1  0  0  0  0
 40 42  1  0  0  0  0
 41 42  2  0  0  0  0
 42 43  1  0  0  0  0
M  END
>  <MODEL>
2

>  <REMARK>
 VINA RESULT:      -7.1      3.112      8.361
  Name = 
  8 active torsions:
  status: ('A' for Active; 'I' for Inactive)
    1  A    between atoms: N_1  and  C_13
    2  A    between atoms: N_5  and  C_31
    3  A    between atoms: C_6  and  C_29
    4  A    between atoms: C_6  and  C_31
    5  A    between atoms: C_17  and  N_23
    6  A    between atoms: C_18  and  C_35
    7  A    between atoms: C_33  and  C_40
    8  A    between atoms: C_40  and  N_43
                            x       y       z     vdW  Elec       q    Type
                         _______ _______ _______ _____ _____    ______ ____

>  <TORSDO>
F 8

$$$$
=
 OpenBabel11042419043D

 43 46  0  0  1  0  0  0  0  0999 V2000
  189.1000  177.7810  146.7400 C   0  0  0  0  0  3  0  0  0  0  0  0
  192.5030  175.3990  144.3080 C   0  0  0  0  0  0  0  0  0  0  0  0
  190.1250  171.9760  143.8310 C   0  0  0  0  0  2  0  0  0  0  0  0
  190.3690  177.3140  146.4010 C   0  0  0  0  0  3  0  0  0  0  0  0
  189.0230  171.9730  142.7700 C   0  0  0  0  0  2  0  0  0  0  0  0
  188.1440  175.7070  145.9790 C   0  0  0  0  0  3  0  0  0  0  0  0
  193.8830  175.2440  144.1540 C   0  0  0  0  0  3  0  0  0  0  0  0
  190.5530  176.0420  145.8330 C   0  0  0  0  0  0  0  0  0  0  0  0
  189.4550  172.7580  141.5290 C   0  0  1  0  0  3  0  0  0  0  0  0
  187.9770  176.9810  146.5330 C   0  0  0  0  0  0  0  0  0  0  0  0
  192.8480  175.6860  146.6830 C   0  0  0  0  0  3  0  0  0  0  0  0
  191.9620  175.6320  145.5970 C   0  0  0  0  0  0  0  0  0  0  0  0
  194.1840  175.5070  146.5040 N   0  0  0  0  0  0  0  0  0  0  0  0
  189.4050  175.2230  145.6160 C   0  0  0  0  0  0  0  0  0  0  0  0
  190.4720  173.3990  144.2650 C   0  0  2  0  0  3  0  0  0  0  0  0
  194.7160  175.2940  145.2730 C   0  0  0  0  0  0  0  0  0  0  0  0
  189.4270  173.9350  145.0600 O   0  0  0  0  0  0  0  0  0  0  0  0
  189.8080  174.2050  141.8840 C   0  0  0  0  0  2  0  0  0  0  0  0
  190.7200  174.2790  143.0710 C   0  0  0  0  0  0  0  0  0  0  0  0
  191.6620  175.2180  143.1170 C   0  0  0  0  0  3  0  0  0  0  0  0
  189.6450  174.5100  136.6580 N   0  0  0  0  0  2  0  0  0  0  0  0
  191.7750  171.5470  138.9600 O   0  0  0  0  0  0  0  0  0  0  0  0
  190.2350  173.3650  137.2870 C   0  0  0  0  0  0  0  0  0  0  0  0
  190.5700  172.0890  140.8690 N   0  0  0  0  0  2  0  0  0  0  0  0
  190.1920  173.2580  138.7130 N   0  0  0  0  0  2  0  0  0  0  0  0
  190.8800  172.2650  139.4860 C   0  0  0  0  0  0  0  0  0  0  0  0
  190.7480  172.4460  136.5900 O   0  0  0  0  0  0  0  0  0  0  0  0
  189.1480  173.5030  134.6200 O   0  0  0  0  0  1  0  0  0  0  0  0
  189.5340  174.7070  135.2130 C   0  0  0  0  0  0  0  0  0  0  0  0
  190.8710  175.1330  134.6370 C   0  0  0  0  0  1  0  0  0  0  0  0
  188.4860  175.7630  134.9010 C   0  0  0  0  0  1  0  0  0  0  0  0
  185.4030  176.8300  146.3560 C   0  0  0  0  0  1  0  0  0  0  0  0
  186.5100  178.4600  147.6740 O   0  0  0  0  0  0  0  0  0  0  0  0
  186.6340  177.4770  146.8950 C   0  0  0  0  0  0  0  0  0  0  0  0
  196.1900  175.1710  145.1140 C   0  0  0  0  0  2  0  0  0  0  0  0
  197.5100  174.9620  143.1680 C   0  0  0  0  0  3  0  0  0  0  0  0
  196.4830  174.5870  143.8330 N   0  0  0  0  0  0  0  0  0  0  0  0
  197.8170  174.3570  141.8340 C   0  0  0  0  0  2  0  0  0  0  0  0
  197.2190  175.1820  140.7010 C   0  0  0  0  0  2  0  0  0  0  0  0
  195.9230  174.6460  140.3060 N   0  0  0  0  0  2  0  0  0  0  0  0
  194.7110  176.5910  141.1650 O   0  0  0  0  0  1  0  0  0  0  0  0
  194.7080  175.3700  140.5000 C   0  0  0  0  0  0  0  0  0  0  0  0
  193.6230  174.8970  140.0690 O   0  0  0  0  0  0  0  0  0  0  0  0
  2 12  1  0  0  0  0
  4  1  2  0  0  0  0
  5  3  1  0  0  0  0
  6 10  2  0  0  0  0
  7  2  2  0  0  0  0
  7 16  1  0  0  0  0
  8  4  1  0  0  0  0
  9 24  1  1  0  0  0
  9 18  1  0  0  0  0
  9  5  1  0  0  0  0
 10  1  1  0  0  0  0
 10 34  1  0  0  0  0
 12  8  1  0  0  0  0
 12 11  2  0  0  0  0
 13 11  1  0  0  0  0
 14  8  2  0  0  0  0
 14  6  1  0  0  0  0
 15  3  1  6  0  0  0
 15 17  1  0  0  0  0
 16 13  2  0  0  0  0
 17 14  1  0  0  0  0
 18 19  1  0  0  0  0
 19 20  2  0  0  0  0
 19 15  1  0  0  0  0
 20  2  1  0  0  0  0
 21 23  1  0  0  0  0
 22 26  2  0  0  0  0
 23 25  1  0  0  0  0
 25 26  1  0  0  0  0
 26 24  1  0  0  0  0
 27 23  2  0  0  0  0
 28 29  1  0  0  0  0
 29 21  1  0  0  0  0
 30 29  1  0  0  0  0
 31 29  1  0  0  0  0
 32 34  1  0  0  0  0
 34 33  2  0  0  0  0
 35 16  1  0  0  0  0
 36 37  2  0  0  0  0
 37 35  1  0  0  0  0
 38 36  1  0  0  0  0
 39 38  1  0  0  0  0
 40 42  1  0  0  0  0
 40 39  1  0  0  0  0
 42 41  1  0  0  0  0
 43 42  2  0  0  0  0
M  END
>  <MODEL>
3

>  <REMARK>
 VINA RESULT:      -7.0      1.690      2.114
  Name = 
  8 active torsions:
  status: ('A' for Active; 'I' for Inactive)
    1  A    between atoms: N_1  and  C_13
    2  A    between atoms: N_5  and  C_31
    3  A    between atoms: C_6  and  C_29
    4  A    between atoms: C_6  and  C_31
    5  A    between atoms: C_17  and  N_23
    6  A    between atoms: C_18  and  C_35
    7  A    between atoms: C_33  and  C_40
    8  A    between atoms: C_40  and  N_43
                            x       y       z     vdW  Elec       q    Type
                         _______ _______ _______ _____ _____    ______ ____

>  <TORSDO>
F 8

$$$$
=
 OpenBabel11042419043D

 43 46  0  0  1  0  0  0  0  0999 V2000
  191.3200  176.2610  147.1380 C   0  0  0  0  0  3  0  0  0  0  0  0
  189.9050  174.6750  142.8200 C   0  0  0  0  0  0  0  0  0  0  0  0
  186.0810  176.3650  143.1690 C   0  0  0  0  0  2  0  0  0  0  0  0
  191.1660  175.3910  146.0610 C   0  0  0  0  0  3  0  0  0  0  0  0
  185.9050  177.8680  142.9440 C   0  0  0  0  0  2  0  0  0  0  0  0
  189.1400  177.1810  146.6960 C   0  0  0  0  0  3  0  0  0  0  0  0
  190.0680  173.6510  141.8830 C   0  0  0  0  0  3  0  0  0  0  0  0
  190.0050  175.4050  145.2690 C   0  0  0  0  0  0  0  0  0  0  0  0
  186.8440  178.3720  141.8450 C   0  0  1  0  0  3  0  0  0  0  0  0
  190.3080  177.1630  147.4670 C   0  0  0  0  0  0  0  0  0  0  0  0
  190.1070  173.0320  144.5810 C   0  0  0  0  0  3  0  0  0  0  0  0
  189.9300  174.3710  144.2040 C   0  0  0  0  0  0  0  0  0  0  0  0
  190.2380  172.0540  143.6450 N   0  0  0  0  0  0  0  0  0  0  0  0
  188.9690  176.3290  145.6000 C   0  0  0  0  0  0  0  0  0  0  0  0
  187.5150  176.0320  143.5780 C   0  0  2  0  0  3  0  0  0  0  0  0
  190.2270  172.3340  142.3160 C   0  0  0  0  0  0  0  0  0  0  0  0
  187.7560  176.4620  144.9080 O   0  0  0  0  0  0  0  0  0  0  0  0
  188.3080  178.0830  142.1920 C   0  0  0  0  0  2  0  0  0  0  0  0
  188.5040  176.6660  142.6390 C   0  0  0  0  0  0  0  0  0  0  0  0
  189.6210  176.0230  142.3100 C   0  0  0  0  0  3  0  0  0  0  0  0
  181.7760  179.1890  141.1520 N   0  0  0  0  0  2  0  0  0  0  0  0
  184.8900  177.1050  139.0120 O   0  0  0  0  0  0  0  0  0  0  0  0
  182.6980  178.2960  140.5130 C   0  0  0  0  0  0  0  0  0  0  0  0
  186.4810  177.7870  140.5610 N   0  0  0  0  0  2  0  0  0  0  0  0
  184.0980  178.4520  140.7600 N   0  0  0  0  0  2  0  0  0  0  0  0
  185.1400  177.7490  140.0690 C   0  0  0  0  0  0  0  0  0  0  0  0
  182.2760  177.3620  139.7770 O   0  0  0  0  0  0  0  0  0  0  0  0
  179.9840  177.9190  140.3840 O   0  0  0  0  0  1  0  0  0  0  0  0
  180.3200  179.0910  141.0640 C   0  0  0  0  0  0  0  0  0  0  0  0
  179.7570  180.2790  140.3060 C   0  0  0  0  0  1  0  0  0  0  0  0
  179.7070  179.0400  142.4550 C   0  0  0  0  0  1  0  0  0  0  0  0
  191.5660  177.8840  149.6040 C   0  0  0  0  0  1  0  0  0  0  0  0
  189.6850  179.0530  148.7630 O   0  0  0  0  0  0  0  0  0  0  0  0
  190.4720  178.0810  148.6110 C   0  0  0  0  0  0  0  0  0  0  0  0
  190.4420  171.2430  141.3270 C   0  0  0  0  0  2  0  0  0  0  0  0
  190.0940  170.9230  139.0150 C   0  0  0  0  0  3  0  0  0  0  0  0
  190.1270  171.7270  140.0100 N   0  0  0  0  0  0  0  0  0  0  0  0
  189.7680  171.4230  137.6420 C   0  0  0  0  0  2  0  0  0  0  0  0
  190.3920  172.7900  137.3880 C   0  0  0  0  0  2  0  0  0  0  0  0
  189.3580  173.8090  137.2620 N   0  0  0  0  0  2  0  0  0  0  0  0
  189.9980  174.3600  134.9640 O   0  0  0  0  0  0  0  0  0  0  0  0
  189.1500  174.5380  136.0520 C   0  0  0  0  0  0  0  0  0  0  0  0
  188.1920  175.3510  135.9690 O   0  0  0  0  0  1  0  0  0  0  0  0
  1 10  1  0  0  0  0
  2 12  1  0  0  0  0
  4  1  2  0  0  0  0
  5  3  1  0  0  0  0
  6 10  2  0  0  0  0
  7 16  1  0  0  0  0
  7  2  2  0  0  0  0
  8 14  2  0  0  0  0
  8  4  1  0  0  0  0
  9 24  1  6  0  0  0
  9 18  1  0  0  0  0
  9  5  1  0  0  0  0
 10 34  1  0  0  0  0
 12 11  2  0  0  0  0
 12  8  1  0  0  0  0
 13 11  1  0  0  0  0
 14  6  1  0  0  0  0
 15  3  1  6  0  0  0
 15 17  1  0  0  0  0
 16 13  2  0  0  0  0
 17 14  1  0  0  0  0
 18 19  1  0  0  0  0
 19 15  1  0  0  0  0
 20 19  2  0  0  0  0
 20  2  1  0  0  0  0
 22 26  2  0  0  0  0
 23 25  1  0  0  0  0
 23 21  1  0  0  0  0
 26 24  1  0  0  0  0
 26 25  1  0  0  0  0
 27 23  2  0  0  0  0
 28 29  1  0  0  0  0
 29 21  1  0  0  0  0
 29 31  1  0  0  0  0
 30 29  1  0  0  0  0
 34 33  2  0  0  0  0
 34 32  1  0  0  0  0
 35 16  1  0  0  0  0
 36 37  2  0  0  0  0
 37 35  1  0  0  0  0
 38 36  1  0  0  0  0
 39 38  1  0  0  0  0
 40 39  1  0  0  0  0
 41 42  2  0  0  0  0
 42 40  1  0  0  0  0
 43 42  1  0  0  0  0
M  END
>  <MODEL>
4

>  <REMARK>
 VINA RESULT:      -6.7      4.378      7.415
  Name = 
  8 active torsions:
  status: ('A' for Active; 'I' for Inactive)
    1  A    between atoms: N_1  and  C_13
    2  A    between atoms: N_5  and  C_31
    3  A    between atoms: C_6  and  C_29
    4  A    between atoms: C_6  and  C_31
    5  A    between atoms: C_17  and  N_23
    6  A    between atoms: C_18  and  C_35
    7  A    between atoms: C_33  and  C_40
    8  A    between atoms: C_40  and  N_43
                            x       y       z     vdW  Elec       q    Type
                         _______ _______ _______ _____ _____    ______ ____

>  <TORSDO>
F 8

$$$$
=
 OpenBabel11042419043D

 43 46  0  0  1  0  0  0  0  0999 V2000
  192.3080  169.2250  138.6860 C   0  0  0  0  0  3  0  0  0  0  0  0
  192.8770  170.8390  143.1840 C   0  0  0  0  0  0  0  0  0  0  0  0
  191.5720  174.7110  142.2320 C   0  0  0  0  0  2  0  0  0  0  0  0
  192.8960  169.4060  139.9360 C   0  0  0  0  0  3  0  0  0  0  0  0
  190.0740  174.9760  142.0680 C   0  0  0  0  0  2  0  0  0  0  0  0
  191.4490  171.4720  138.7740 C   0  0  0  0  0  3  0  0  0  0  0  0
  193.6290  170.6890  144.3530 C   0  0  0  0  0  3  0  0  0  0  0  0
  192.7640  170.6150  140.6390 C   0  0  0  0  0  0  0  0  0  0  0  0
  189.2580  174.1370  143.0540 C   0  0  1  0  0  3  0  0  0  0  0  0
  191.5800  170.2570  138.0930 C   0  0  0  0  0  0  0  0  0  0  0  0
  194.8850  170.4420  141.8980 C   0  0  0  0  0  3  0  0  0  0  0  0
  193.5090  170.7090  141.9220 C   0  0  0  0  0  0  0  0  0  0  0  0
  195.5940  170.3250  143.0530 N   0  0  0  0  0  0  0  0  0  0  0  0
  192.0160  171.6720  140.0370 C   0  0  0  0  0  0  0  0  0  0  0  0
  191.9030  173.2390  141.9920 C   0  0  2  0  0  3  0  0  0  0  0  0
  194.9990  170.4370  144.2680 C   0  0  0  0  0  0  0  0  0  0  0  0
  191.7960  172.9330  140.6110 O   0  0  0  0  0  0  0  0  0  0  0  0
  189.5290  172.6410  142.8660 C   0  0  0  0  0  2  0  0  0  0  0  0
  190.9960  172.3470  142.7950 C   0  0  0  0  0  0  0  0  0  0  0  0
  191.4660  171.2230  143.3290 C   0  0  0  0  0  3  0  0  0  0  0  0
  185.5980  177.5470  144.3960 N   0  0  0  0  0  2  0  0  0  0  0  0
  189.1610  175.9550  146.2370 O   0  0  0  0  0  0  0  0  0  0  0  0
  186.8750  177.2380  144.9710 C   0  0  0  0  0  0  0  0  0  0  0  0
  189.5340  174.5540  144.4230 N   0  0  0  0  0  2  0  0  0  0  0  0
  187.5780  176.0800  144.5120 N   0  0  0  0  0  2  0  0  0  0  0  0
  188.7750  175.5540  145.1040 C   0  0  0  0  0  0  0  0  0  0  0  0
  187.3870  177.9980  145.8370 O   0  0  0  0  0  0  0  0  0  0  0  0
  185.6420  179.8610  144.6310 O   0  0  0  0  0  1  0  0  0  0  0  0
  184.8110  178.7420  144.7000 C   0  0  0  0  0  0  0  0  0  0  0  0
  184.2290  178.6470  146.0990 C   0  0  0  0  0  1  0  0  0  0  0  0
  183.6860  178.9070  143.6920 C   0  0  0  0  0  1  0  0  0  0  0  0
  191.5450  169.1130  135.7770 C   0  0  0  0  0  1  0  0  0  0  0  0
  189.9210  170.7010  136.4530 O   0  0  0  0  0  0  0  0  0  0  0  0
  190.9610  170.0630  136.7670 C   0  0  0  0  0  0  0  0  0  0  0  0
  195.7990  170.2340  145.5070 C   0  0  0  0  0  2  0  0  0  0  0  0
  196.2580  172.5350  145.7580 C   0  0  0  0  0  3  0  0  0  0  0  0
  196.7040  171.3380  145.6740 N   0  0  0  0  0  0  0  0  0  0  0  0
  197.1970  173.6880  145.9310 C   0  0  0  0  0  2  0  0  0  0  0  0
  197.6410  174.2480  144.5850 C   0  0  0  0  0  2  0  0  0  0  0  0
  196.6660  173.9280  143.5510 N   0  0  0  0  0  2  0  0  0  0  0  0
  195.9730  176.2630  143.3000 O   0  0  0  0  0  1  0  0  0  0  0  0
  195.8890  174.9330  142.9000 C   0  0  0  0  0  0  0  0  0  0  0  0
  195.1180  174.6140  141.9560 O   0  0  0  0  0  0  0  0  0  0  0  0
  1  4  1  0  0  0  0
  2 20  1  0  0  0  0
  2  7  1  0  0  0  0
  4  8  2  0  0  0  0
  5  3  1  0  0  0  0
  5  9  1  0  0  0  0
  6 14  2  0  0  0  0
  8 12  1  0  0  0  0
  9 24  1  1  0  0  0
 10  1  2  0  0  0  0
 10  6  1  0  0  0  0
 11 12  1  0  0  0  0
 11 13  2  0  0  0  0
 12  2  2  0  0  0  0
 13 16  1  0  0  0  0
 14 17  1  0  0  0  0
 14  8  1  0  0  0  0
 15  3  1  6  0  0  0
 15 19  1  0  0  0  0
 16  7  2  0  0  0  0
 16 35  1  0  0  0  0
 17 15  1  0  0  0  0
 18  9  1  0  0  0  0
 19 18  1  0  0  0  0
 19 20  2  0  0  0  0
 21 29  1  0  0  0  0
 21 23  1  0  0  0  0
 23 27  2  0  0  0  0
 24 26  1  0  0  0  0
 25 23  1  0  0  0  0
 25 26  1  0  0  0  0
 26 22  2  0  0  0  0
 28 29  1  0  0  0  0
 29 30  1  0  0  0  0
 31 29  1  0  0  0  0
 32 34  1  0  0  0  0
 33 34  2  0  0  0  0
 34 10  1  0  0  0  0
 35 37  1  0  0  0  0
 36 38  1  0  0  0  0
 37 36  2  0  0  0  0
 39 38  1  0  0  0  0
 40 39  1  0  0  0  0
 42 41  1  0  0  0  0
 42 40  1  0  0  0  0
 43 42  2  0  0  0  0
M  END
>  <MODEL>
5

>  <REMARK>
 VINA RESULT:      -6.3      3.091      7.851
  Name = 
  8 active torsions:
  status: ('A' for Active; 'I' for Inactive)
    1  A    between atoms: N_1  and  C_13
    2  A    between atoms: N_5  and  C_31
    3  A    between atoms: C_6  and  C_29
    4  A    between atoms: C_6  and  C_31
    5  A    between atoms: C_17  and  N_23
    6  A    between atoms: C_18  and  C_35
    7  A    between atoms: C_33  and  C_40
    8  A    between atoms: C_40  and  N_43
                            x       y       z     vdW  Elec       q    Type
                         _______ _______ _______ _____ _____    ______ ____

>  <TORSDO>
F 8

$$$$
=
 OpenBabel11042419043D

 43 46  0  0  1  0  0  0  0  0999 V2000
  195.1350  169.3230  143.5150 C   0  0  0  0  0  3  0  0  0  0  0  0
  191.9010  171.0750  140.4110 C   0  0  0  0  0  0  0  0  0  0  0  0
  189.3380  172.4220  143.4470 C   0  0  0  0  0  2  0  0  0  0  0  0
  194.3220  169.3890  142.3860 C   0  0  0  0  0  3  0  0  0  0  0  0
  189.6780  173.7120  144.1960 C   0  0  0  0  0  2  0  0  0  0  0  0
  193.4480  170.4790  144.7860 C   0  0  0  0  0  3  0  0  0  0  0  0
  191.3500  170.9070  139.1380 C   0  0  0  0  0  3  0  0  0  0  0  0
  193.0630  170.0100  142.4260 C   0  0  0  0  0  0  0  0  0  0  0  0
  190.3230  174.7350  143.2580 C   0  0  1  0  0  3  0  0  0  0  0  0
  194.7050  169.8670  144.7260 C   0  0  0  0  0  0  0  0  0  0  0  0
  192.0310  168.6710  140.6210 C   0  0  0  0  0  3  0  0  0  0  0  0
  192.2600  169.9380  141.1770 C   0  0  0  0  0  0  0  0  0  0  0  0
  191.4700  168.5400  139.3890 N   0  0  0  0  0  0  0  0  0  0  0  0
  192.6210  170.5710  143.6620 C   0  0  0  0  0  0  0  0  0  0  0  0
  190.5890  171.7880  142.8400 C   0  0  2  0  0  3  0  0  0  0  0  0
  191.1320  169.6210  138.6410 C   0  0  0  0  0  0  0  0  0  0  0  0
  191.3940  171.2210  143.8600 O   0  0  0  0  0  0  0  0  0  0  0  0
  191.5960  174.1750  142.6170 C   0  0  0  0  0  2  0  0  0  0  0  0
  191.3780  172.8020  142.0570 C   0  0  0  0  0  0  0  0  0  0  0  0
  191.9960  172.4450  140.9340 C   0  0  0  0  0  3  0  0  0  0  0  0
  186.8940  177.8390  145.5880 N   0  0  0  0  0  2  0  0  0  0  0  0
  187.3770  176.1890  141.6310 O   0  0  0  0  0  0  0  0  0  0  0  0
  186.8630  177.1540  144.3290 C   0  0  0  0  0  0  0  0  0  0  0  0
  189.3680  175.1670  142.2450 N   0  0  0  0  0  2  0  0  0  0  0  0
  188.0620  176.5430  143.8450 N   0  0  0  0  0  2  0  0  0  0  0  0
  188.2270  175.9730  142.5380 C   0  0  0  0  0  0  0  0  0  0  0  0
  185.7860  177.0570  143.6800 O   0  0  0  0  0  0  0  0  0  0  0  0
  185.1820  179.4050  145.4130 O   0  0  0  0  0  1  0  0  0  0  0  0
  185.7290  178.4290  146.2480 C   0  0  0  0  0  0  0  0  0  0  0  0
  186.1380  179.0760  147.5580 C   0  0  0  0  0  1  0  0  0  0  0  0
  184.6750  177.3670  146.5130 C   0  0  0  0  0  1  0  0  0  0  0  0
  196.8180  170.5980  146.0190 C   0  0  0  0  0  1  0  0  0  0  0  0
  195.2530  169.0440  146.8850 O   0  0  0  0  0  0  0  0  0  0  0  0
  195.5680  169.7930  145.9220 C   0  0  0  0  0  0  0  0  0  0  0  0
  190.5840  169.4330  137.2700 C   0  0  0  0  0  2  0  0  0  0  0  0
  189.6530  171.1700  135.9730 C   0  0  0  0  0  3  0  0  0  0  0  0
  190.6820  170.6700  136.5450 N   0  0  0  0  0  0  0  0  0  0  0  0
  189.7510  172.4580  135.2170 C   0  0  0  0  0  2  0  0  0  0  0  0
  189.9480  173.6400  136.1580 C   0  0  0  0  0  2  0  0  0  0  0  0
  189.0450  174.7290  135.8080 N   0  0  0  0  0  2  0  0  0  0  0  0
  187.8130  174.5560  137.9160 O   0  0  0  0  0  1  0  0  0  0  0  0
  188.0330  175.1950  136.7010 C   0  0  0  0  0  0  0  0  0  0  0  0
  187.3310  176.1910  136.3840 O   0  0  0  0  0  0  0  0  0  0  0  0
  1 10  1  0  0  0  0
  2 20  1  0  0  0  0
  2 12  1  0  0  0  0
  3  5  1  0  0  0  0
  4  8  1  0  0  0  0
  4  1  2  0  0  0  0
  7  2  2  0  0  0  0
  8 14  2  0  0  0  0
  9 24  1  6  0  0  0
  9  5  1  0  0  0  0
 10  6  2  0  0  0  0
 10 34  1  0  0  0  0
 11 12  2  0  0  0  0
 12  8  1  0  0  0  0
 13 11  1  0  0  0  0
 14 17  1  0  0  0  0
 14  6  1  0  0  0  0
 15  3  1  1  0  0  0
 15 17  1  0  0  0  0
 16  7  1  0  0  0  0
 16 13  2  0  0  0  0
 18  9  1  0  0  0  0
 19 18  1  0  0  0  0
 19 15  1  0  0  0  0
 20 19  2  0  0  0  0
 21 29  1  0  0  0  0
 22 26  2  0  0  0  0
 23 21  1  0  0  0  0
 24 26  1  0  0  0  0
 25 23  1  0  0  0  0
 26 25  1  0  0  0  0
 27 23  2  0  0  0  0
 28 29  1  0  0  0  0
 29 31  1  0  0  0  0
 29 30  1  0  0  0  0
 34 32  1  0  0  0  0
 34 33  2  0  0  0  0
 35 16  1  0  0  0  0
 36 37  2  0  0  0  0
 37 35  1  0  0  0  0
 38 36  1  0  0  0  0
 38 39  1  0  0  0  0
 40 39  1  0  0  0  0
 40 42  1  0  0  0  0
 42 41  1  0  0  0  0
 43 42  2  0  0  0  0
M  END
>  <MODEL>
6

>  <REMARK>
 VINA RESULT:      -6.2      3.151      9.149
  Name = 
  8 active torsions:
  status: ('A' for Active; 'I' for Inactive)
    1  A    between atoms: N_1  and  C_13
    2  A    between atoms: N_5  and  C_31
    3  A    between atoms: C_6  and  C_29
    4  A    between atoms: C_6  and  C_31
    5  A    between atoms: C_17  and  N_23
    6  A    between atoms: C_18  and  C_35
    7  A    between atoms: C_33  and  C_40
    8  A    between atoms: C_40  and  N_43
                            x       y       z     vdW  Elec       q    Type
                         _______ _______ _______ _____ _____    ______ ____

>  <TORSDO>
F 8

$$$$
=
 OpenBabel11042419043D

 43 46  0  0  1  0  0  0  0  0999 V2000
  192.1150  177.0000  145.4940 C   0  0  0  0  0  3  0  0  0  0  0  0
  188.7960  175.6340  142.2870 C   0  0  0  0  0  0  0  0  0  0  0  0
  191.6080  173.7840  139.7830 C   0  0  0  0  0  2  0  0  0  0  0  0
  190.9910  177.0790  144.6740 C   0  0  0  0  0  3  0  0  0  0  0  0
  192.1580  172.4080  140.1630 C   0  0  0  0  0  2  0  0  0  0  0  0
  193.2070  175.6240  143.8480 C   0  0  0  0  0  3  0  0  0  0  0  0
  187.5630  175.9720  141.7220 C   0  0  0  0  0  3  0  0  0  0  0  0
  190.9420  176.4230  143.4330 C   0  0  0  0  0  0  0  0  0  0  0  0
  191.0780  171.5530  140.8300 C   0  0  1  0  0  3  0  0  0  0  0  0
  193.2330  176.2730  145.0870 C   0  0  0  0  0  0  0  0  0  0  0  0
  189.3570  177.9840  142.3530 C   0  0  0  0  0  3  0  0  0  0  0  0
  189.7190  176.6560  142.6200 C   0  0  0  0  0  0  0  0  0  0  0  0
  188.1590  178.2790  141.7800 N   0  0  0  0  0  0  0  0  0  0  0  0
  192.0830  175.6750  143.0160 C   0  0  0  0  0  0  0  0  0  0  0  0
  191.0970  174.5350  141.0110 C   0  0  2  0  0  3  0  0  0  0  0  0
  187.2610  177.3100  141.4660 C   0  0  0  0  0  0  0  0  0  0  0  0
  192.1870  174.9680  141.8080 O   0  0  0  0  0  0  0  0  0  0  0  0
  190.5220  172.2370  142.0820 C   0  0  0  0  0  2  0  0  0  0  0  0
  190.1710  173.6700  141.8230 C   0  0  0  0  0  0  0  0  0  0  0  0
  189.1120  174.2050  142.4230 C   0  0  0  0  0  3  0  0  0  0  0  0
  193.2740  169.2740  136.7290 N   0  0  0  0  0  2  0  0  0  0  0  0
  189.2960  170.5790  137.7760 O   0  0  0  0  0  0  0  0  0  0  0  0
  191.9880  169.8810  136.9120 C   0  0  0  0  0  0  0  0  0  0  0  0
  190.0150  171.2480  139.8800 N   0  0  0  0  0  2  0  0  0  0  0  0
  191.5690  170.2310  138.2340 N   0  0  0  0  0  2  0  0  0  0  0  0
  190.2560  170.6850  138.5890 C   0  0  0  0  0  0  0  0  0  0  0  0
  191.2550  170.1380  135.9180 O   0  0  0  0  0  0  0  0  0  0  0  0
  192.9680  168.1680  134.7050 O   0  0  0  0  0  1  0  0  0  0  0  0
  193.8680  168.9480  135.4330 C   0  0  0  0  0  0  0  0  0  0  0  0
  195.1540  168.1660  135.6260 C   0  0  0  0  0  1  0  0  0  0  0  0
  194.1590  170.2170  134.6480 C   0  0  0  0  0  1  0  0  0  0  0  0
  195.1590  174.9100  146.1400 C   0  0  0  0  0  1  0  0  0  0  0  0
  194.8410  177.2220  146.5560 O   0  0  0  0  0  0  0  0  0  0  0  0
  194.4250  176.1940  145.9560 C   0  0  0  0  0  0  0  0  0  0  0  0
  185.9350  177.6830  140.9040 C   0  0  0  0  0  2  0  0  0  0  0  0
  185.4290  178.5060  143.0570 C   0  0  0  0  0  3  0  0  0  0  0  0
  185.0200  177.9480  141.9800 N   0  0  0  0  0  0  0  0  0  0  0  0
  184.4800  178.7830  144.1800 C   0  0  0  0  0  2  0  0  0  0  0  0
  184.8530  177.9920  145.4290 C   0  0  0  0  0  2  0  0  0  0  0  0
  186.2990  177.8420  145.5260 N   0  0  0  0  0  2  0  0  0  0  0  0
  186.2740  177.9320  147.9720 O   0  0  0  0  0  1  0  0  0  0  0  0
  186.9750  177.7680  146.7820 C   0  0  0  0  0  0  0  0  0  0  0  0
  188.2160  177.5570  146.8120 O   0  0  0  0  0  0  0  0  0  0  0  0
  2 20  1  0  0  0  0
  2 12  1  0  0  0  0
  3  5  1  0  0  0  0
  4  1  2  0  0  0  0
  5  9  1  0  0  0  0
  6 10  2  0  0  0  0
  7  2  2  0  0  0  0
  8  4  1  0  0  0  0
  9 24  1  6  0  0  0
  9 18  1  0  0  0  0
 10  1  1  0  0  0  0
 10 34  1  0  0  0  0
 11 12  2  0  0  0  0
 12  8  1  0  0  0  0
 13 11  1  0  0  0  0
 14  8  2  0  0  0  0
 14  6  1  0  0  0  0
 15  3  1  6  0  0  0
 15 17  1  0  0  0  0
 15 19  1  0  0  0  0
 16  7  1  0  0  0  0
 16 13  2  0  0  0  0
 17 14  1  0  0  0  0
 19 18  1  0  0  0  0
 19 20  2  0  0  0  0
 21 23  1  0  0  0  0
 22 26  2  0  0  0  0
 23 25  1  0  0  0  0
 25 26  1  0  0  0  0
 26 24  1  0  0  0  0
 27 23  2  0  0  0  0
 28 29  1  0  0  0  0
 29 30  1  0  0  0  0
 29 21  1  0  0  0  0
 31 29  1  0  0  0  0
 34 32  1  0  0  0  0
 34 33  2  0  0  0  0
 35 16  1  0  0  0  0
 35 37  1  0  0  0  0
 36 38  1  0  0  0  0
 37 36  2  0  0  0  0
 38 39  1  0  0  0  0
 39 40  1  0  0  0  0
 40 42  1  0  0  0  0
 42 43  2  0  0  0  0
 42 41  1  0  0  0  0
M  END
>  <MODEL>
7

>  <REMARK>
 VINA RESULT:      -6.2      3.581      7.159
  Name = 
  8 active torsions:
  status: ('A' for Active; 'I' for Inactive)
    1  A    between atoms: N_1  and  C_13
    2  A    between atoms: N_5  and  C_31
    3  A    between atoms: C_6  and  C_29
    4  A    between atoms: C_6  and  C_31
    5  A    between atoms: C_17  and  N_23
    6  A    between atoms: C_18  and  C_35
    7  A    between atoms: C_33  and  C_40
    8  A    between atoms: C_40  and  N_43
                            x       y       z     vdW  Elec       q    Type
                         _______ _______ _______ _____ _____    ______ ____

>  <TORSDO>
F 8

$$$$
=
 OpenBabel11042419043D

 43 46  0  0  1  0  0  0  0  0999 V2000
  191.4670  176.4160  147.0440 C   0  0  0  0  0  3  0  0  0  0  0  0
  190.1110  174.9070  142.6800 C   0  0  0  0  0  0  0  0  0  0  0  0
  186.1670  176.2560  143.1580 C   0  0  0  0  0  2  0  0  0  0  0  0
  191.3650  175.5840  145.9310 C   0  0  0  0  0  3  0  0  0  0  0  0
  185.8630  177.7470  143.0030 C   0  0  0  0  0  2  0  0  0  0  0  0
  189.2100  177.1700  146.6750 C   0  0  0  0  0  3  0  0  0  0  0  0
  190.3400  173.9420  141.6960 C   0  0  0  0  0  3  0  0  0  0  0  0
  190.1940  175.5350  145.1580 C   0  0  0  0  0  0  0  0  0  0  0  0
  186.7370  178.3740  141.9150 C   0  0  1  0  0  3  0  0  0  0  0  0
  190.3890  177.2150  147.4270 C   0  0  0  0  0  0  0  0  0  0  0  0
  190.4790  173.2120  144.3630 C   0  0  0  0  0  3  0  0  0  0  0  0
  190.1860  174.5460  144.0480 C   0  0  0  0  0  0  0  0  0  0  0  0
  190.6740  172.2900  143.3820 N   0  0  0  0  0  0  0  0  0  0  0  0
  189.0910  176.3550  145.5440 C   0  0  0  0  0  0  0  0  0  0  0  0
  187.6310  176.0250  143.5320 C   0  0  2  0  0  3  0  0  0  0  0  0
  190.6150  172.6240  142.0670 C   0  0  0  0  0  0  0  0  0  0  0  0
  187.8590  176.4160  144.8760 O   0  0  0  0  0  0  0  0  0  0  0  0
  188.2260  178.1940  142.2270 C   0  0  0  0  0  2  0  0  0  0  0  0
  188.5460  176.7800  142.6080 C   0  0  0  0  0  0  0  0  0  0  0  0
  189.7070  176.2480  142.2350 C   0  0  0  0  0  3  0  0  0  0  0  0
  181.6740  179.1590  141.1590 N   0  0  0  0  0  2  0  0  0  0  0  0
  184.8430  177.1580  139.0210 O   0  0  0  0  0  0  0  0  0  0  0  0
  182.6140  178.2910  140.5130 C   0  0  0  0  0  0  0  0  0  0  0  0
  186.4010  177.8170  140.6110 N   0  0  0  0  0  2  0  0  0  0  0  0
  184.0080  178.4550  140.7870 N   0  0  0  0  0  2  0  0  0  0  0  0
  185.0690  177.7790  140.0960 C   0  0  0  0  0  0  0  0  0  0  0  0
  182.2140  177.3710  139.7480 O   0  0  0  0  0  0  0  0  0  0  0  0
  179.9110  178.0140  140.1610 O   0  0  0  0  0  1  0  0  0  0  0  0
  180.2200  179.0500  141.0450 C   0  0  0  0  0  0  0  0  0  0  0  0
  179.6340  180.3440  140.5110 C   0  0  0  0  0  1  0  0  0  0  0  0
  179.6040  178.7340  142.3990 C   0  0  0  0  0  1  0  0  0  0  0  0
  191.5670  177.8850  149.6260 C   0  0  0  0  0  1  0  0  0  0  0  0
  189.6820  179.0400  148.7730 O   0  0  0  0  0  0  0  0  0  0  0  0
  190.4980  178.0940  148.6090 C   0  0  0  0  0  0  0  0  0  0  0  0
  190.9020  171.5990  141.0270 C   0  0  0  0  0  2  0  0  0  0  0  0
  193.2090  172.0640  140.8500 C   0  0  0  0  0  3  0  0  0  0  0  0
  192.2850  171.2160  141.1070 N   0  0  0  0  0  0  0  0  0  0  0  0
  194.6500  171.6690  140.9300 C   0  0  0  0  0  2  0  0  0  0  0  0
  195.5170  172.8280  141.4070 C   0  0  0  0  0  2  0  0  0  0  0  0
  194.6870  173.9590  141.8030 N   0  0  0  0  0  2  0  0  0  0  0  0
  196.0350  175.5590  140.5330 O   0  0  0  0  0  0  0  0  0  0  0  0
  194.9280  175.2830  141.3290 C   0  0  0  0  0  0  0  0  0  0  0  0
  194.1340  176.2110  141.6370 O   0  0  0  0  0  1  0  0  0  0  0  0
  1 10  1  0  0  0  0
  2 12  1  0  0  0  0
  4  1  2  0  0  0  0
  5  3  1  0  0  0  0
  6 10  2  0  0  0  0
  7 16  1  0  0  0  0
  7  2  2  0  0  0  0
  8 14  2  0  0  0  0
  8  4  1  0  0  0  0
  9 24  1  6  0  0  0
  9 18  1  0  0  0  0
  9  5  1  0  0  0  0
 10 34  1  0  0  0  0
 12 11  2  0  0  0  0
 12  8  1  0  0  0  0
 13 11  1  0  0  0  0
 14  6  1  0  0  0  0
 15  3  1  6  0  0  0
 15 17  1  0  0  0  0
 16 13  2  0  0  0  0
 17 14  1  0  0  0  0
 18 19  1  0  0  0  0
 19 15  1  0  0  0  0
 20 19  2  0  0  0  0
 20  2  1  0  0  0  0
 22 26  2  0  0  0  0
 23 25  1  0  0  0  0
 23 21  1  0  0  0  0
 26 24  1  0  0  0  0
 26 25  1  0  0  0  0
 27 23  2  0  0  0  0
 28 29  1  0  0  0  0
 29 21  1  0  0  0  0
 29 31  1  0  0  0  0
 30 29  1  0  0  0  0
 34 33  2  0  0  0  0
 34 32  1  0  0  0  0
 35 37  1  0  0  0  0
 35 16  1  0  0  0  0
 36 38  1  0  0  0  0
 36 37  2  0  0  0  0
 38 39  1  0  0  0  0
 39 40  1  0  0  0  0
 41 42  2  0  0  0  0
 42 43  1  0  0  0  0
 42 40  1  0  0  0  0
M  END
>  <MODEL>
8

>  <REMARK>
 VINA RESULT:      -6.2      4.649      6.447
  Name = 
  8 active torsions:
  status: ('A' for Active; 'I' for Inactive)
    1  A    between atoms: N_1  and  C_13
    2  A    between atoms: N_5  and  C_31
    3  A    between atoms: C_6  and  C_29
    4  A    between atoms: C_6  and  C_31
    5  A    between atoms: C_17  and  N_23
    6  A    between atoms: C_18  and  C_35
    7  A    between atoms: C_33  and  C_40
    8  A    between atoms: C_40  and  N_43
                            x       y       z     vdW  Elec       q    Type
                         _______ _______ _______ _____ _____    ______ ____

>  <TORSDO>
F 8

$$$$
=
 OpenBabel11042419043D

 43 46  0  0  1  0  0  0  0  0999 V2000
  194.8610  171.8310  145.8230 C   0  0  0  0  0  3  0  0  0  0  0  0
  193.0460  175.2150  142.9230 C   0  0  0  0  0  0  0  0  0  0  0  0
  196.6710  175.7790  140.8890 C   0  0  0  0  0  2  0  0  0  0  0  0
  194.1220  172.9440  145.4310 C   0  0  0  0  0  3  0  0  0  0  0  0
  197.1020  174.7610  139.8320 C   0  0  0  0  0  2  0  0  0  0  0  0
  196.5510  172.3930  144.2030 C   0  0  0  0  0  3  0  0  0  0  0  0
  192.0990  176.2390  142.8350 C   0  0  0  0  0  3  0  0  0  0  0  0
  194.5700  173.7980  144.4090 C   0  0  0  0  0  0  0  0  0  0  0  0
  195.8920  174.2260  139.0630 C   0  0  1  0  0  3  0  0  0  0  0  0
  196.0830  171.5460  145.2140 C   0  0  0  0  0  0  0  0  0  0  0  0
  193.4320  175.8350  145.2270 C   0  0  0  0  0  3  0  0  0  0  0  0
  193.7300  174.9960  144.1450 C   0  0  0  0  0  0  0  0  0  0  0  0
  192.5230  176.8390  145.1030 N   0  0  0  0  0  0  0  0  0  0  0  0
  195.8180  173.5070  143.7810 C   0  0  0  0  0  0  0  0  0  0  0  0
  195.7040  175.1570  141.8960 C   0  0  2  0  0  3  0  0  0  0  0  0
  191.8520  177.0540  143.9420 C   0  0  0  0  0  0  0  0  0  0  0  0
  196.3970  174.2630  142.7500 O   0  0  0  0  0  0  0  0  0  0  0  0
  194.8790  173.5730  140.0070 C   0  0  0  0  0  2  0  0  0  0  0  0
  194.5840  174.4420  141.1920 C   0  0  0  0  0  0  0  0  0  0  0  0
  193.3530  174.4680  141.6960 C   0  0  0  0  0  3  0  0  0  0  0  0
  191.6040  172.2810  136.9050 N   0  0  0  0  0  2  0  0  0  0  0  0
  193.7200  176.0370  136.7280 O   0  0  0  0  0  0  0  0  0  0  0  0
  192.3660  173.4620  136.6220 C   0  0  0  0  0  0  0  0  0  0  0  0
  195.2760  175.2920  138.2820 N   0  0  0  0  0  2  0  0  0  0  0  0
  193.3870  173.8630  137.5400 N   0  0  0  0  0  2  0  0  0  0  0  0
  194.1110  175.1000  137.4780 C   0  0  0  0  0  0  0  0  0  0  0  0
  192.1670  174.1120  135.5590 O   0  0  0  0  0  0  0  0  0  0  0  0
  191.1800  171.4520  134.7730 O   0  0  0  0  0  1  0  0  0  0  0  0
  190.5960  171.7030  136.0160 C   0  0  0  0  0  0  0  0  0  0  0  0
  189.4410  172.6700  135.8310 C   0  0  0  0  0  1  0  0  0  0  0  0
  190.0760  170.3930  136.5840 C   0  0  0  0  0  1  0  0  0  0  0  0
  196.4590  169.5540  146.8150 C   0  0  0  0  0  1  0  0  0  0  0  0
  197.8970  170.0290  144.9920 O   0  0  0  0  0  0  0  0  0  0  0  0
  196.8670  170.3670  145.6340 C   0  0  0  0  0  0  0  0  0  0  0  0
  190.8160  178.1190  143.8700 C   0  0  0  0  0  2  0  0  0  0  0  0
  188.9760  176.9750  144.8040 C   0  0  0  0  0  3  0  0  0  0  0  0
  189.8450  177.9080  144.9080 N   0  0  0  0  0  0  0  0  0  0  0  0
  187.9630  176.7520  145.8830 C   0  0  0  0  0  2  0  0  0  0  0  0
  186.5430  176.8660  145.3410 C   0  0  0  0  0  2  0  0  0  0  0  0
  186.3990  178.0680  144.5290 N   0  0  0  0  0  2  0  0  0  0  0  0
  184.6930  179.0170  146.0050 O   0  0  0  0  0  1  0  0  0  0  0  0
  185.5210  179.1320  144.8930 C   0  0  0  0  0  0  0  0  0  0  0  0
  185.4930  180.1840  144.2010 O   0  0  0  0  0  0  0  0  0  0  0  0
  2 12  1  0  0  0  0
  4  1  1  0  0  0  0
  5  3  1  0  0  0  0
  6 10  1  0  0  0  0
  7  2  2  0  0  0  0
  7 16  1  0  0  0  0
  8  4  2  0  0  0  0
  9 24  1  1  0  0  0
  9  5  1  0  0  0  0
  9 18  1  0  0  0  0
 10 34  1  0  0  0  0
 10  1  2  0  0  0  0
 12  8  1  0  0  0  0
 12 11  2  0  0  0  0
 13 11  1  0  0  0  0
 14  6  2  0  0  0  0
 14  8  1  0  0  0  0
 15  3  1  6  0  0  0
 15 17  1  0  0  0  0
 16 13  2  0  0  0  0
 17 14  1  0  0  0  0
 18 19  1  0  0  0  0
 19 20  2  0  0  0  0
 19 15  1  0  0  0  0
 20  2  1  0  0  0  0
 22 26  2  0  0  0  0
 23 21  1  0  0  0  0
 23 25  1  0  0  0  0
 26 25  1  0  0  0  0
 26 24  1  0  0  0  0
 27 23  2  0  0  0  0
 28 29  1  0  0  0  0
 29 31  1  0  0  0  0
 29 21  1  0  0  0  0
 30 29  1  0  0  0  0
 33 34  2  0  0  0  0
 34 32  1  0  0  0  0
 35 16  1  0  0  0  0
 35 37  1  0  0  0  0
 36 37  2  0  0  0  0
 36 38  1  0  0  0  0
 39 38  1  0  0  0  0
 40 42  1  0  0  0  0
 40 39  1  0  0  0  0
 42 41  1  0  0  0  0
 43 42  2  0  0  0  0
M  END
>  <MODEL>
9

>  <REMARK>
 VINA RESULT:      -6.2      3.258      7.484
  Name = 
  8 active torsions:
  status: ('A' for Active; 'I' for Inactive)
    1  A    between atoms: N_1  and  C_13
    2  A    between atoms: N_5  and  C_31
    3  A    between atoms: C_6  and  C_29
    4  A    between atoms: C_6  and  C_31
    5  A    between atoms: C_17  and  N_23
    6  A    between atoms: C_18  and  C_35
    7  A    between atoms: C_33  and  C_40
    8  A    between atoms: C_40  and  N_43
                            x       y       z     vdW  Elec       q    Type
                         _______ _______ _______ _____ _____    ______ ____

>  <TORSDO>
F 8

$$$$
