=
 OpenBabel11042417153D

 31 34  0  0  1  0  0  0  0  0999 V2000
  192.1210  174.8170  143.9740 C   0  0  0  0  0  2  0  0  0  0  0  0
  190.9120  177.3230  143.3520 C   0  0  0  0  0  2  0  0  0  0  0  0
  189.9580  175.6580  145.0400 C   0  0  0  0  0  0  0  0  0  0  0  0
  189.8000  176.5350  143.8980 N   0  0  0  0  0  0  0  0  0  0  0  0
  187.0210  176.7310  147.2530 C   0  0  2  0  0  3  0  0  0  0  0  0
  187.7600  176.3810  146.0030 C   0  0  0  0  0  0  0  0  0  0  0  0
  185.7210  177.2530  145.3780 C   0  0  0  0  0  3  0  0  0  0  0  0
  188.6250  176.4310  143.0850 C   0  0  0  0  0  0  0  0  0  0  0  0
  187.2390  176.2810  141.1930 N   0  0  0  0  0  0  0  0  0  0  0  0
  185.6800  177.1450  146.8350 N   0  0  0  0  0  0  0  0  0  0  0  0
  188.6410  176.3600  141.6070 C   0  0  0  0  0  3  0  0  0  0  0  0
  189.2120  174.6600  147.1720 C   0  0  0  0  0  1  0  0  0  0  0  0
  192.8010  176.1710  143.7120 C   0  0  1  0  0  3  0  0  0  0  0  0
  189.0110  175.5780  146.0020 C   0  0  0  0  0  0  0  0  0  0  0  0
  187.3990  176.5180  143.5370 C   0  0  0  0  0  0  0  0  0  0  0  0
  191.2340  174.8530  145.2150 C   0  0  0  0  0  2  0  0  0  0  0  0
  192.0380  177.2570  144.1820 O   0  0  0  0  0  0  0  0  0  0  0  0
  187.0320  176.7110  144.9520 C   0  0  0  0  0  0  0  0  0  0  0  0
  186.4400  176.5240  142.3990 C   0  0  1  0  0  3  0  0  0  0  0  0
  187.6910  177.8980  147.9670 C   0  0  0  0  0  2  0  0  0  0  0  0
  186.0920  179.9710  148.1030 N   0  0  0  0  0  0  0  0  0  0  0  0
  186.7980  179.0570  148.0410 C   0  0  0  0  0  0  0  0  0  0  0  0
  185.7500  177.8790  142.2870 C   0  0  0  0  0  2  0  0  0  0  0  0
  184.4730  177.7780  141.4650 C   0  0  2  0  0  3  0  0  0  0  0  0
  184.6290  178.5020  140.1390 C   0  0  0  0  0  1  0  0  0  0  0  0
  181.9630  178.3550  141.6110 C   0  0  0  0  0  1  0  0  0  0  0  0
  183.4710  178.7870  143.3580 O   0  0  0  0  0  0  0  0  0  0  0  0
  183.3170  178.3410  142.2310 C   0  0  0  0  0  0  0  0  0  0  0  0
  194.2090  176.2140  144.2970 C   0  0  0  0  0  2  0  0  0  0  0  0
  194.1580  176.4570  146.7620 C   0  0  0  0  0  1  0  0  0  0  0  0
  194.3210  177.1980  145.4510 C   0  0  0  0  0  2  0  0  0  0  0  0
  1 16  1  0  0  0  0
  2  4  1  0  0  0  0
  2 17  1  0  0  0  0
  3 16  1  0  0  0  0
  3 14  2  0  0  0  0
  4  3  1  0  0  0  0
  5 20  1  6  0  0  0
  6  5  1  0  0  0  0
  7 10  2  0  0  0  0
  8 15  2  0  0  0  0
  8  4  1  0  0  0  0
  9 11  2  0  0  0  0
  9 19  1  0  0  0  0
 10  5  1  0  0  0  0
 11  8  1  0  0  0  0
 13  1  1  0  0  0  0
 13 17  1  0  0  0  0
 13 29  1  1  0  0  0
 14  6  1  0  0  0  0
 14 12  1  0  0  0  0
 15 18  1  0  0  0  0
 18  7  1  0  0  0  0
 18  6  2  0  0  0  0
 19 23  1  6  0  0  0
 19 15  1  0  0  0  0
 20 22  1  0  0  0  0
 22 21  3  0  0  0  0
 24 25  1  6  0  0  0
 24 28  1  0  0  0  0
 24 23  1  0  0  0  0
 26 28  1  0  0  0  0
 28 27  2  0  0  0  0
 29 31  1  0  0  0  0
 31 30  1  0  0  0  0
M  END
>  <MODEL>
1

>  <REMARK>
 VINA RESULT:      -6.8      0.000      0.000
  Name = 
  7 active torsions:
  status: ('A' for Active; 'I' for Inactive)
    1  A    between atoms: C_2  and  C_13
    2  A    between atoms: C_7  and  C_21
    3  A    between atoms: C_7  and  C_22
    4  A    between atoms: C_9  and  C_13
    5  A    between atoms: C_16  and  C_30
    6  A    between atoms: C_21  and  C_31
    7  A    between atoms: C_24  and  C_30
                            x       y       z     vdW  Elec       q    Type
                         _______ _______ _______ _____ _____    ______ ____

>  <TORSDO>
F 7

$$$$
=
 OpenBabel11042417153D

 31 34  0  0  1  0  0  0  0  0999 V2000
  195.1300  175.8330  144.9290 C   0  0  0  0  0  2  0  0  0  0  0  0
  192.9190  174.5240  146.1650 C   0  0  0  0  0  2  0  0  0  0  0  0
  192.9720  175.2250  143.7080 C   0  0  0  0  0  0  0  0  0  0  0  0
  192.3170  175.1820  144.9990 N   0  0  0  0  0  0  0  0  0  0  0  0
  190.1670  174.0460  141.3790 C   0  0  2  0  0  3  0  0  0  0  0  0
  190.8160  174.7750  142.5090 C   0  0  0  0  0  0  0  0  0  0  0  0
  188.5380  175.0070  142.7560 C   0  0  0  0  0  3  0  0  0  0  0  0
  191.1970  176.0390  145.2520 C   0  0  0  0  0  0  0  0  0  0  0  0
  189.7660  177.5680  146.3190 N   0  0  0  0  0  0  0  0  0  0  0  0
  188.7340  174.3280  141.4770 N   0  0  0  0  0  0  0  0  0  0  0  0
  191.0490  176.8780  146.4620 C   0  0  0  0  0  3  0  0  0  0  0  0
  192.9900  175.0990  141.2420 C   0  0  0  0  0  1  0  0  0  0  0  0
  195.1450  174.6990  145.9670 C   0  0  1  0  0  3  0  0  0  0  0  0
  192.2760  175.0510  142.5610 C   0  0  0  0  0  0  0  0  0  0  0  0
  190.1150  176.0850  144.5150 C   0  0  0  0  0  0  0  0  0  0  0  0
  194.4770  175.4010  143.6200 C   0  0  0  0  0  2  0  0  0  0  0  0
  194.0680  173.8070  145.8070 O   0  0  0  0  0  0  0  0  0  0  0  0
  189.8880  175.2840  143.2980 C   0  0  0  0  0  0  0  0  0  0  0  0
  189.1020  176.9650  145.1580 C   0  0  1  0  0  3  0  0  0  0  0  0
  190.3780  172.5430  141.5150 C   0  0  0  0  0  2  0  0  0  0  0  0
  189.9890  171.3180  139.2300 N   0  0  0  0  0  0  0  0  0  0  0  0
  190.1620  171.8590  140.2370 C   0  0  0  0  0  0  0  0  0  0  0  0
  187.9030  176.1470  145.6270 C   0  0  0  0  0  2  0  0  0  0  0  0
  186.5950  176.8440  145.2790 C   0  0  2  0  0  3  0  0  0  0  0  0
  186.8560  178.1030  144.4710 C   0  0  0  0  0  1  0  0  0  0  0  0
  184.5340  177.8910  146.4250 C   0  0  0  0  0  1  0  0  0  0  0  0
  186.2720  176.8650  147.6250 O   0  0  0  0  0  0  0  0  0  0  0  0
  185.8370  177.1760  146.5260 C   0  0  0  0  0  0  0  0  0  0  0  0
  196.4710  173.9440  145.9540 C   0  0  0  0  0  2  0  0  0  0  0  0
  196.7960  171.4890  145.9820 C   0  0  0  0  0  1  0  0  0  0  0  0
  196.3980  172.6720  145.1250 C   0  0  0  0  0  2  0  0  0  0  0  0
  1 13  1  0  0  0  0
  3  4  1  0  0  0  0
  4  8  1  0  0  0  0
  4  2  1  0  0  0  0
  5 10  1  0  0  0  0
  5 20  1  1  0  0  0
  5  6  1  0  0  0  0
  6 14  1  0  0  0  0
  6 18  2  0  0  0  0
  7 18  1  0  0  0  0
  8 11  1  0  0  0  0
  9 11  2  0  0  0  0
 10  7  2  0  0  0  0
 12 14  1  0  0  0  0
 13 29  1  6  0  0  0
 14  3  2  0  0  0  0
 15 19  1  0  0  0  0
 15  8  2  0  0  0  0
 16  3  1  0  0  0  0
 16  1  1  0  0  0  0
 17 13  1  0  0  0  0
 17  2  1  0  0  0  0
 18 15  1  0  0  0  0
 19 23  1  1  0  0  0
 19  9  1  0  0  0  0
 21 22  3  0  0  0  0
 22 20  1  0  0  0  0
 24 25  1  1  0  0  0
 24 23  1  0  0  0  0
 24 28  1  0  0  0  0
 26 28  1  0  0  0  0
 28 27  2  0  0  0  0
 31 29  1  0  0  0  0
 31 30  1  0  0  0  0
M  END
>  <MODEL>
2

>  <REMARK>
 VINA RESULT:      -6.7      2.907      5.710
  Name = 
  7 active torsions:
  status: ('A' for Active; 'I' for Inactive)
    1  A    between atoms: C_2  and  C_13
    2  A    between atoms: C_7  and  C_21
    3  A    between atoms: C_7  and  C_22
    4  A    between atoms: C_9  and  C_13
    5  A    between atoms: C_16  and  C_30
    6  A    between atoms: C_21  and  C_31
    7  A    between atoms: C_24  and  C_30
                            x       y       z     vdW  Elec       q    Type
                         _______ _______ _______ _____ _____    ______ ____

>  <TORSDO>
F 7

$$$$
=
 OpenBabel11042417153D

 31 34  0  0  1  0  0  0  0  0999 V2000
  187.5810  177.8290  141.2560 C   0  0  0  0  0  2  0  0  0  0  0  0
  186.9960  175.2950  142.4240 C   0  0  0  0  0  2  0  0  0  0  0  0
  189.1480  176.6040  142.8570 C   0  0  0  0  0  0  0  0  0  0  0  0
  188.4600  175.3780  142.5070 N   0  0  0  0  0  0  0  0  0  0  0  0
  191.5420  175.3930  145.5920 C   0  0  2  0  0  3  0  0  0  0  0  0
  190.7760  175.3700  144.3100 C   0  0  0  0  0  0  0  0  0  0  0  0
  191.7250  173.2890  144.5830 C   0  0  0  0  0  3  0  0  0  0  0  0
  189.1990  174.2890  141.9410 C   0  0  0  0  0  0  0  0  0  0  0  0
  189.8080  172.5180  140.5230 N   0  0  0  0  0  0  0  0  0  0  0  0
  192.2490  174.1140  145.6710 N   0  0  0  0  0  0  0  0  0  0  0  0
  188.7840  173.5430  140.7330 C   0  0  0  0  0  3  0  0  0  0  0  0
  190.9090  177.8870  144.0190 C   0  0  0  0  0  1  0  0  0  0  0  0
  186.2370  177.3060  141.7910 C   0  0  1  0  0  3  0  0  0  0  0  0
  190.2240  176.5970  143.6770 C   0  0  0  0  0  0  0  0  0  0  0  0
  190.2520  173.7410  142.4930 C   0  0  0  0  0  0  0  0  0  0  0  0
  188.6290  177.9410  142.3590 C   0  0  0  0  0  2  0  0  0  0  0  0
  186.3910  176.4630  142.9060 O   0  0  0  0  0  0  0  0  0  0  0  0
  190.8580  174.1690  143.7670 C   0  0  0  0  0  0  0  0  0  0  0  0
  190.6660  172.5430  141.7130 C   0  0  1  0  0  3  0  0  0  0  0  0
  190.5960  175.5000  146.7830 C   0  0  0  0  0  2  0  0  0  0  0  0
  191.4880  177.2180  148.5510 N   0  0  0  0  0  0  0  0  0  0  0  0
  191.0960  176.4590  147.7710 C   0  0  0  0  0  0  0  0  0  0  0  0
  190.4450  171.2720  142.5250 C   0  0  0  0  0  2  0  0  0  0  0  0
  191.5880  170.2880  142.3250 C   0  0  2  0  0  3  0  0  0  0  0  0
  192.8200  170.9990  141.7900 C   0  0  0  0  0  1  0  0  0  0  0  0
  191.4870  169.3100  139.9400 C   0  0  0  0  0  1  0  0  0  0  0  0
  190.5880  168.2060  141.8070 O   0  0  0  0  0  0  0  0  0  0  0  0
  191.1750  169.1940  141.3910 C   0  0  0  0  0  0  0  0  0  0  0  0
  185.2780  178.4490  142.1130 C   0  0  0  0  0  2  0  0  0  0  0  0
  185.3900  179.8180  144.1740 C   0  0  0  0  0  1  0  0  0  0  0  0
  184.9240  178.5010  143.5900 C   0  0  0  0  0  2  0  0  0  0  0  0
  1 13  1  0  0  0  0
  1 16  1  0  0  0  0
  2  4  1  0  0  0  0
  2 17  1  0  0  0  0
  3 14  2  0  0  0  0
  4  3  1  0  0  0  0
  5 10  1  0  0  0  0
  5 20  1  1  0  0  0
  6  5  1  0  0  0  0
  7 10  2  0  0  0  0
  8 15  2  0  0  0  0
  8  4  1  0  0  0  0
  9 11  2  0  0  0  0
  9 19  1  0  0  0  0
 11  8  1  0  0  0  0
 13 29  1  1  0  0  0
 13 17  1  0  0  0  0
 14 12  1  0  0  0  0
 14  6  1  0  0  0  0
 15 18  1  0  0  0  0
 16  3  1  0  0  0  0
 18  6  2  0  0  0  0
 18  7  1  0  0  0  0
 19 15  1  0  0  0  0
 19 23  1  1  0  0  0
 20 22  1  0  0  0  0
 22 21  3  0  0  0  0
 24 25  1  6  0  0  0
 24 23  1  0  0  0  0
 26 28  1  0  0  0  0
 28 27  2  0  0  0  0
 28 24  1  0  0  0  0
 29 31  1  0  0  0  0
 31 30  1  0  0  0  0
M  END
>  <MODEL>
3

>  <REMARK>
 VINA RESULT:      -6.6      3.534      7.189
  Name = 
  7 active torsions:
  status: ('A' for Active; 'I' for Inactive)
    1  A    between atoms: C_2  and  C_13
    2  A    between atoms: C_7  and  C_21
    3  A    between atoms: C_7  and  C_22
    4  A    between atoms: C_9  and  C_13
    5  A    between atoms: C_16  and  C_30
    6  A    between atoms: C_21  and  C_31
    7  A    between atoms: C_24  and  C_30
                            x       y       z     vdW  Elec       q    Type
                         _______ _______ _______ _____ _____    ______ ____

>  <TORSDO>
F 7

$$$$
=
 OpenBabel11042417153D

 31 34  0  0  1  0  0  0  0  0999 V2000
  189.7050  171.6520  141.0590 C   0  0  0  0  0  2  0  0  0  0  0  0
  189.5840  174.4650  140.6040 C   0  0  0  0  0  2  0  0  0  0  0  0
  190.3960  173.4040  142.7840 C   0  0  0  0  0  0  0  0  0  0  0  0
  189.5700  174.3550  142.0690 N   0  0  0  0  0  0  0  0  0  0  0  0
  192.0190  175.6330  145.4440 C   0  0  2  0  0  3  0  0  0  0  0  0
  190.9490  175.0900  144.5540 C   0  0  0  0  0  0  0  0  0  0  0  0
  190.1250  177.0050  145.5350 C   0  0  0  0  0  3  0  0  0  0  0  0
  188.4960  175.0120  142.7520 C   0  0  0  0  0  0  0  0  0  0  0  0
  186.3630  175.8780  143.2240 N   0  0  0  0  0  0  0  0  0  0  0  0
  191.4230  176.7610  146.1610 N   0  0  0  0  0  0  0  0  0  0  0  0
  187.1200  175.1240  142.2220 C   0  0  0  0  0  3  0  0  0  0  0  0
  191.8690  172.7280  144.6460 C   0  0  0  0  0  1  0  0  0  0  0  0
  190.0420  172.4330  139.7770 C   0  0  1  0  0  3  0  0  0  0  0  0
  191.0190  173.7400  143.9360 C   0  0  0  0  0  0  0  0  0  0  0  0
  188.6310  175.7010  143.8580 C   0  0  0  0  0  0  0  0  0  0  0  0
  190.6350  172.0170  142.2120 C   0  0  0  0  0  2  0  0  0  0  0  0
  190.6100  173.6920  140.0460 O   0  0  0  0  0  0  0  0  0  0  0  0
  189.8980  175.8900  144.5870 C   0  0  0  0  0  0  0  0  0  0  0  0
  187.3450  176.3700  144.1970 C   0  0  1  0  0  3  0  0  0  0  0  0
  193.1950  176.1450  144.6220 C   0  0  0  0  0  2  0  0  0  0  0  0
  194.7830  177.6480  146.0690 N   0  0  0  0  0  0  0  0  0  0  0  0
  194.0810  176.9850  145.4320 C   0  0  0  0  0  0  0  0  0  0  0  0
  187.4770  177.8840  144.0630 C   0  0  0  0  0  2  0  0  0  0  0  0
  186.6860  178.6000  145.1470 C   0  0  2  0  0  3  0  0  0  0  0  0
  186.5340  177.7170  146.3740 C   0  0  0  0  0  1  0  0  0  0  0  0
  184.1450  178.8690  145.5070 C   0  0  0  0  0  1  0  0  0  0  0  0
  185.2120  179.4380  143.4940 O   0  0  0  0  0  0  0  0  0  0  0  0
  185.3400  179.0010  144.6280 C   0  0  0  0  0  0  0  0  0  0  0  0
  190.9470  171.6250  138.8510 C   0  0  0  0  0  2  0  0  0  0  0  0
  189.7510  169.7700  137.7270 C   0  0  0  0  0  1  0  0  0  0  0  0
  190.6350  170.1380  138.8990 C   0  0  0  0  0  2  0  0  0  0  0  0
  1 16  1  0  0  0  0
  2  4  1  0  0  0  0
  3 14  2  0  0  0  0
  4  8  1  0  0  0  0
  4  3  1  0  0  0  0
  5 20  1  6  0  0  0
  5 10  1  0  0  0  0
  6 18  2  0  0  0  0
  6  5  1  0  0  0  0
  7 10  2  0  0  0  0
  8 15  2  0  0  0  0
  9 19  1  0  0  0  0
 11  8  1  0  0  0  0
 11  9  2  0  0  0  0
 13 29  1  6  0  0  0
 13 17  1  0  0  0  0
 13  1  1  0  0  0  0
 14  6  1  0  0  0  0
 14 12  1  0  0  0  0
 15 19  1  0  0  0  0
 15 18  1  0  0  0  0
 16  3  1  0  0  0  0
 17  2  1  0  0  0  0
 18  7  1  0  0  0  0
 19 23  1  6  0  0  0
 20 22  1  0  0  0  0
 22 21  3  0  0  0  0
 23 24  1  0  0  0  0
 24 25  1  1  0  0  0
 27 28  2  0  0  0  0
 28 24  1  0  0  0  0
 28 26  1  0  0  0  0
 29 31  1  0  0  0  0
 30 31  1  0  0  0  0
M  END
>  <MODEL>
4

>  <REMARK>
 VINA RESULT:      -6.4      3.291      5.413
  Name = 
  7 active torsions:
  status: ('A' for Active; 'I' for Inactive)
    1  A    between atoms: C_2  and  C_13
    2  A    between atoms: C_7  and  C_21
    3  A    between atoms: C_7  and  C_22
    4  A    between atoms: C_9  and  C_13
    5  A    between atoms: C_16  and  C_30
    6  A    between atoms: C_21  and  C_31
    7  A    between atoms: C_24  and  C_30
                            x       y       z     vdW  Elec       q    Type
                         _______ _______ _______ _____ _____    ______ ____

>  <TORSDO>
F 7

$$$$
=
 OpenBabel11042417153D

 31 34  0  0  1  0  0  0  0  0999 V2000
  187.1290  176.8920  143.6940 C   0  0  0  0  0  2  0  0  0  0  0  0
  189.4380  177.9470  142.3950 C   0  0  0  0  0  2  0  0  0  0  0  0
  188.8840  175.4550  142.5230 C   0  0  0  0  0  0  0  0  0  0  0  0
  189.8120  176.5560  142.6790 N   0  0  0  0  0  0  0  0  0  0  0  0
  190.9590  172.9820  140.4580 C   0  0  2  0  0  3  0  0  0  0  0  0
  190.6560  173.9990  141.5100 C   0  0  0  0  0  0  0  0  0  0  0  0
  192.9420  173.7150  141.4620 C   0  0  0  0  0  3  0  0  0  0  0  0
  191.0330  176.3540  143.4010 C   0  0  0  0  0  0  0  0  0  0  0  0
  192.8030  176.6900  144.9110 N   0  0  0  0  0  0  0  0  0  0  0  0
  192.3950  172.7150  140.5470 N   0  0  0  0  0  0  0  0  0  0  0  0
  191.5300  177.2580  144.4620 C   0  0  0  0  0  3  0  0  0  0  0  0
  188.2870  173.1560  141.8470 C   0  0  0  0  0  1  0  0  0  0  0  0
  187.2520  178.1640  142.8380 C   0  0  1  0  0  3  0  0  0  0  0  0
  189.2780  174.2730  141.9970 C   0  0  0  0  0  0  0  0  0  0  0  0
  191.9160  175.4270  143.1240 C   0  0  0  0  0  0  0  0  0  0  0  0
  187.4210  175.6310  142.8880 C   0  0  0  0  0  2  0  0  0  0  0  0
  188.1770  178.0200  141.7880 O   0  0  0  0  0  0  0  0  0  0  0  0
  191.7830  174.4300  142.0450 C   0  0  0  0  0  0  0  0  0  0  0  0
  193.1250  175.6090  143.9720 C   0  0  1  0  0  3  0  0  0  0  0  0
  190.6510  173.5320  139.0710 C   0  0  0  0  0  2  0  0  0  0  0  0
  191.4440  171.8810  137.1960 N   0  0  0  0  0  0  0  0  0  0  0  0
  191.0940  172.6080  138.0240 C   0  0  0  0  0  0  0  0  0  0  0  0
  194.3210  176.0180  143.1190 C   0  0  0  0  0  2  0  0  0  0  0  0
  195.5930  176.0770  143.9520 C   0  0  2  0  0  3  0  0  0  0  0  0
  196.7110  176.7530  143.1760 C   0  0  0  0  0  1  0  0  0  0  0  0
  196.0750  174.3570  145.8130 C   0  0  0  0  0  1  0  0  0  0  0  0
  196.2870  173.8540  143.5290 O   0  0  0  0  0  0  0  0  0  0  0  0
  196.0080  174.7000  144.3650 C   0  0  0  0  0  0  0  0  0  0  0  0
  185.8950  178.6080  142.2980 C   0  0  0  0  0  2  0  0  0  0  0  0
  185.0930  179.8390  144.2920 C   0  0  0  0  0  1  0  0  0  0  0  0
  184.8330  178.6550  143.3840 C   0  0  0  0  0  2  0  0  0  0  0  0
  2  4  1  0  0  0  0
  3  4  1  0  0  0  0
  3 16  1  0  0  0  0
  4  8  1  0  0  0  0
  5 20  1  6  0  0  0
  5 10  1  0  0  0  0
  5  6  1  0  0  0  0
  6 14  1  0  0  0  0
  6 18  2  0  0  0  0
  7 18  1  0  0  0  0
  8 11  1  0  0  0  0
 10  7  2  0  0  0  0
 11  9  2  0  0  0  0
 12 14  1  0  0  0  0
 13 29  1  6  0  0  0
 13  1  1  0  0  0  0
 14  3  2  0  0  0  0
 15  8  2  0  0  0  0
 15 19  1  0  0  0  0
 16  1  1  0  0  0  0
 17  2  1  0  0  0  0
 17 13  1  0  0  0  0
 18 15  1  0  0  0  0
 19 23  1  6  0  0  0
 19  9  1  0  0  0  0
 21 22  3  0  0  0  0
 22 20  1  0  0  0  0
 23 24  1  0  0  0  0
 24 25  1  6  0  0  0
 24 28  1  0  0  0  0
 27 28  2  0  0  0  0
 28 26  1  0  0  0  0
 29 31  1  0  0  0  0
 31 30  1  0  0  0  0
M  END
>  <MODEL>
5

>  <REMARK>
 VINA RESULT:      -6.4      3.130      8.727
  Name = 
  7 active torsions:
  status: ('A' for Active; 'I' for Inactive)
    1  A    between atoms: C_2  and  C_13
    2  A    between atoms: C_7  and  C_21
    3  A    between atoms: C_7  and  C_22
    4  A    between atoms: C_9  and  C_13
    5  A    between atoms: C_16  and  C_30
    6  A    between atoms: C_21  and  C_31
    7  A    between atoms: C_24  and  C_30
                            x       y       z     vdW  Elec       q    Type
                         _______ _______ _______ _____ _____    ______ ____

>  <TORSDO>
F 7

$$$$
=
 OpenBabel11042417153D

 31 34  0  0  1  0  0  0  0  0999 V2000
  193.1170  174.0240  144.1670 C   0  0  0  0  0  2  0  0  0  0  0  0
  192.1520  176.5100  143.1600 C   0  0  0  0  0  2  0  0  0  0  0  0
  191.3190  175.4240  145.3180 C   0  0  0  0  0  0  0  0  0  0  0  0
  191.0670  176.0550  144.0390 N   0  0  0  0  0  0  0  0  0  0  0  0
  189.0090  177.4220  147.6320 C   0  0  2  0  0  3  0  0  0  0  0  0
  189.4510  176.6960  146.4040 C   0  0  0  0  0  0  0  0  0  0  0  0
  187.4640  177.7500  145.9050 C   0  0  0  0  0  3  0  0  0  0  0  0
  189.7590  175.9830  143.4600 C   0  0  0  0  0  0  0  0  0  0  0  0
  188.0380  175.6750  141.8900 N   0  0  0  0  0  0  0  0  0  0  0  0
  187.6800  177.9600  147.3360 N   0  0  0  0  0  0  0  0  0  0  0  0
  189.4910  175.6010  142.0560 C   0  0  0  0  0  3  0  0  0  0  0  0
  190.8570  175.0390  147.7130 C   0  0  0  0  0  1  0  0  0  0  0  0
  193.9070  175.1570  143.4930 C   0  0  1  0  0  3  0  0  0  0  0  0
  190.5640  175.7100  146.4030 C   0  0  0  0  0  0  0  0  0  0  0  0
  188.6600  176.3700  144.0590 C   0  0  0  0  0  0  0  0  0  0  0  0
  192.4880  174.4700  145.4840 C   0  0  0  0  0  2  0  0  0  0  0  0
  193.3940  176.4310  143.8020 O   0  0  0  0  0  0  0  0  0  0  0  0
  188.5900  176.9160  145.4270 C   0  0  0  0  0  0  0  0  0  0  0  0
  187.5150  176.2980  143.1110 C   0  0  1  0  0  3  0  0  0  0  0  0
  189.9470  178.5830  147.9400 C   0  0  0  0  0  2  0  0  0  0  0  0
  191.5630  177.9990  149.9200 N   0  0  0  0  0  0  0  0  0  0  0  0
  190.8490  178.2550  149.0470 C   0  0  0  0  0  0  0  0  0  0  0  0
  187.0000  177.6970  142.7860 C   0  0  0  0  0  2  0  0  0  0  0  0
  185.5340  177.6590  142.3780 C   0  0  2  0  0  3  0  0  0  0  0  0
  185.3850  177.9150  140.8880 C   0  0  0  0  0  1  0  0  0  0  0  0
  185.4710  179.7510  143.8870 C   0  0  0  0  0  1  0  0  0  0  0  0
  183.5320  178.6180  143.2010 O   0  0  0  0  0  0  0  0  0  0  0  0
  184.7520  178.6690  143.1580 C   0  0  0  0  0  0  0  0  0  0  0  0
  195.3930  175.0830  143.8310 C   0  0  0  0  0  2  0  0  0  0  0  0
  197.2830  176.4680  143.0260 C   0  0  0  0  0  1  0  0  0  0  0  0
  196.0380  176.4590  143.8890 C   0  0  0  0  0  2  0  0  0  0  0  0
  1 16  1  0  0  0  0
  2 17  1  0  0  0  0
  2  4  1  0  0  0  0
  3 16  1  0  0  0  0
  3 14  2  0  0  0  0
  4  3  1  0  0  0  0
  5 20  1  6  0  0  0
  6  5  1  0  0  0  0
  7 10  2  0  0  0  0
  8  4  1  0  0  0  0
  8 15  2  0  0  0  0
  9 11  2  0  0  0  0
  9 19  1  0  0  0  0
 10  5  1  0  0  0  0
 11  8  1  0  0  0  0
 13 17  1  0  0  0  0
 13 29  1  1  0  0  0
 13  1  1  0  0  0  0
 14  6  1  0  0  0  0
 14 12  1  0  0  0  0
 15 18  1  0  0  0  0
 18  7  1  0  0  0  0
 18  6  2  0  0  0  0
 19 23  1  6  0  0  0
 19 15  1  0  0  0  0
 20 22  1  0  0  0  0
 22 21  3  0  0  0  0
 24 25  1  6  0  0  0
 24 23  1  0  0  0  0
 24 28  1  0  0  0  0
 28 27  2  0  0  0  0
 28 26  1  0  0  0  0
 29 31  1  0  0  0  0
 30 31  1  0  0  0  0
M  END
>  <MODEL>
6

>  <REMARK>
 VINA RESULT:      -6.2      1.945      2.331
  Name = 
  7 active torsions:
  status: ('A' for Active; 'I' for Inactive)
    1  A    between atoms: C_2  and  C_13
    2  A    between atoms: C_7  and  C_21
    3  A    between atoms: C_7  and  C_22
    4  A    between atoms: C_9  and  C_13
    5  A    between atoms: C_16  and  C_30
    6  A    between atoms: C_21  and  C_31
    7  A    between atoms: C_24  and  C_30
                            x       y       z     vdW  Elec       q    Type
                         _______ _______ _______ _____ _____    ______ ____

>  <TORSDO>
F 7

$$$$
=
 OpenBabel11042417153D

 31 34  0  0  1  0  0  0  0  0999 V2000
  192.0700  170.6570  143.7290 C   0  0  0  0  0  2  0  0  0  0  0  0
  190.9350  173.2110  143.1640 C   0  0  0  0  0  2  0  0  0  0  0  0
  193.0110  172.8600  144.6140 C   0  0  0  0  0  0  0  0  0  0  0  0
  191.7040  173.4440  144.3930 N   0  0  0  0  0  0  0  0  0  0  0  0
  195.0470  175.9140  145.7140 C   0  0  2  0  0  3  0  0  0  0  0  0
  193.8800  174.9860  145.6190 C   0  0  0  0  0  0  0  0  0  0  0  0
  193.1650  176.8830  146.7130 C   0  0  0  0  0  3  0  0  0  0  0  0
  190.9940  174.0250  145.4940 C   0  0  0  0  0  0  0  0  0  0  0  0
  189.2590  174.5540  146.9870 N   0  0  0  0  0  0  0  0  0  0  0  0
  194.6070  177.0430  146.5350 N   0  0  0  0  0  0  0  0  0  0  0  0
  189.5760  173.7470  145.8080 C   0  0  0  0  0  3  0  0  0  0  0  0
  195.3500  172.9290  145.4000 C   0  0  0  0  0  1  0  0  0  0  0  0
  191.4660  171.1680  142.4100 C   0  0  1  0  0  3  0  0  0  0  0  0
  194.0080  173.5670  145.1910 C   0  0  0  0  0  0  0  0  0  0  0  0
  191.4710  174.9650  146.2720 C   0  0  0  0  0  0  0  0  0  0  0  0
  193.3090  171.4510  144.1340 C   0  0  0  0  0  2  0  0  0  0  0  0
  191.7030  172.5400  142.2040 O   0  0  0  0  0  0  0  0  0  0  0  0
  192.8170  175.5560  146.1550 C   0  0  0  0  0  0  0  0  0  0  0  0
  190.4110  175.4370  147.2030 C   0  0  1  0  0  3  0  0  0  0  0  0
  195.4340  176.4350  144.3350 C   0  0  0  0  0  2  0  0  0  0  0  0
  197.6670  175.3440  143.5000 N   0  0  0  0  0  0  0  0  0  0  0  0
  196.6810  175.8240  143.8680 C   0  0  0  0  0  0  0  0  0  0  0  0
  190.0160  176.8750  146.8820 C   0  0  0  0  0  2  0  0  0  0  0  0
  189.2700  176.9550  145.5580 C   0  0  2  0  0  3  0  0  0  0  0  0
  190.0170  177.8380  144.5730 C   0  0  0  0  0  1  0  0  0  0  0  0
  187.0710  177.9100  144.6040 C   0  0  0  0  0  1  0  0  0  0  0  0
  187.4110  177.5490  146.8990 O   0  0  0  0  0  0  0  0  0  0  0  0
  187.8840  177.4770  145.7740 C   0  0  0  0  0  0  0  0  0  0  0  0
  191.9570  170.3550  141.2160 C   0  0  0  0  0  2  0  0  0  0  0  0
  190.7750  168.1840  141.3800 C   0  0  0  0  0  1  0  0  0  0  0  0
  190.8570  169.4910  140.6200 C   0  0  0  0  0  2  0  0  0  0  0  0
  1 16  1  0  0  0  0
  2  4  1  0  0  0  0
  3 14  2  0  0  0  0
  4  3  1  0  0  0  0
  4  8  1  0  0  0  0
  5 20  1  6  0  0  0
  5 10  1  0  0  0  0
  6  5  1  0  0  0  0
  6 18  2  0  0  0  0
  8 11  1  0  0  0  0
  8 15  2  0  0  0  0
  9 19  1  0  0  0  0
 10  7  2  0  0  0  0
 11  9  2  0  0  0  0
 13 29  1  6  0  0  0
 13  1  1  0  0  0  0
 14 12  1  0  0  0  0
 14  6  1  0  0  0  0
 15 19  1  0  0  0  0
 16  3  1  0  0  0  0
 17 13  1  0  0  0  0
 17  2  1  0  0  0  0
 18 15  1  0  0  0  0
 18  7  1  0  0  0  0
 19 23  1  6  0  0  0
 21 22  3  0  0  0  0
 22 20  1  0  0  0  0
 24 25  1  6  0  0  0
 24 28  1  0  0  0  0
 24 23  1  0  0  0  0
 26 28  1  0  0  0  0
 28 27  2  0  0  0  0
 31 29  1  0  0  0  0
 31 30  1  0  0  0  0
M  END
>  <MODEL>
7

>  <REMARK>
 VINA RESULT:      -6.1      3.632      6.954
  Name = 
  7 active torsions:
  status: ('A' for Active; 'I' for Inactive)
    1  A    between atoms: C_2  and  C_13
    2  A    between atoms: C_7  and  C_21
    3  A    between atoms: C_7  and  C_22
    4  A    between atoms: C_9  and  C_13
    5  A    between atoms: C_16  and  C_30
    6  A    between atoms: C_21  and  C_31
    7  A    between atoms: C_24  and  C_30
                            x       y       z     vdW  Elec       q    Type
                         _______ _______ _______ _____ _____    ______ ____

>  <TORSDO>
F 7

$$$$
=
 OpenBabel11042417153D

 31 34  0  0  1  0  0  0  0  0999 V2000
  187.7470  177.7800  141.2180 C   0  0  0  0  0  2  0  0  0  0  0  0
  187.5540  175.3120  142.6320 C   0  0  0  0  0  2  0  0  0  0  0  0
  189.4760  176.9730  142.9140 C   0  0  0  0  0  0  0  0  0  0  0  0
  188.9870  175.6280  142.6920 N   0  0  0  0  0  0  0  0  0  0  0  0
  192.0150  176.4180  145.7300 C   0  0  2  0  0  3  0  0  0  0  0  0
  191.2690  176.1520  144.4640 C   0  0  0  0  0  0  0  0  0  0  0  0
  192.5260  174.2790  144.9280 C   0  0  0  0  0  3  0  0  0  0  0  0
  189.8880  174.6160  142.2270 C   0  0  0  0  0  0  0  0  0  0  0  0
  190.7710  172.8300  140.9810 N   0  0  0  0  0  0  0  0  0  0  0  0
  192.9110  175.2770  145.9250 N   0  0  0  0  0  0  0  0  0  0  0  0
  189.6000  173.7010  141.1010 C   0  0  0  0  0  3  0  0  0  0  0  0
  191.0120  178.6190  143.9280 C   0  0  0  0  0  1  0  0  0  0  0  0
  186.4970  177.1110  141.8140 C   0  0  1  0  0  3  0  0  0  0  0  0
  190.5360  177.2120  143.7200 C   0  0  0  0  0  0  0  0  0  0  0  0
  191.0110  174.2920  142.8190 C   0  0  0  0  0  0  0  0  0  0  0  0
  188.7600  178.1590  142.2940 C   0  0  0  0  0  2  0  0  0  0  0  0
  186.7740  176.4140  143.0050 O   0  0  0  0  0  0  0  0  0  0  0  0
  191.5380  174.9320  144.0390 C   0  0  0  0  0  0  0  0  0  0  0  0
  191.6090  173.1030  142.1540 C   0  0  1  0  0  3  0  0  0  0  0  0
  191.0590  176.4940  146.9140 C   0  0  0  0  0  2  0  0  0  0  0  0
  189.3170  174.5350  146.8480 N   0  0  0  0  0  0  0  0  0  0  0  0
  190.0850  175.3990  146.8790 C   0  0  0  0  0  0  0  0  0  0  0  0
  191.5820  171.8980  143.0890 C   0  0  0  0  0  2  0  0  0  0  0  0
  192.7270  170.9430  142.7830 C   0  0  2  0  0  3  0  0  0  0  0  0
  192.3200  169.5080  143.0680 C   0  0  0  0  0  1  0  0  0  0  0  0
  194.0330  170.8730  145.0070 C   0  0  0  0  0  1  0  0  0  0  0  0
  194.8450  171.9550  143.0890 O   0  0  0  0  0  0  0  0  0  0  0  0
  193.9360  171.3080  143.5870 C   0  0  0  0  0  0  0  0  0  0  0  0
  185.3720  178.1180  142.0340 C   0  0  0  0  0  2  0  0  0  0  0  0
  185.5660  179.6030  144.0060 C   0  0  0  0  0  1  0  0  0  0  0  0
  185.0270  178.2800  143.5050 C   0  0  0  0  0  2  0  0  0  0  0  0
  1 13  1  0  0  0  0
  1 16  1  0  0  0  0
  2  4  1  0  0  0  0
  2 17  1  0  0  0  0
  3 14  2  0  0  0  0
  4  3  1  0  0  0  0
  5 10  1  0  0  0  0
  5 20  1  1  0  0  0
  6  5  1  0  0  0  0
  7 10  2  0  0  0  0
  8  4  1  0  0  0  0
  8 15  2  0  0  0  0
  9 11  2  0  0  0  0
  9 19  1  0  0  0  0
 11  8  1  0  0  0  0
 13 29  1  1  0  0  0
 13 17  1  0  0  0  0
 14 12  1  0  0  0  0
 14  6  1  0  0  0  0
 15 18  1  0  0  0  0
 16  3  1  0  0  0  0
 18  6  2  0  0  0  0
 18  7  1  0  0  0  0
 19 15  1  0  0  0  0
 19 23  1  1  0  0  0
 21 22  3  0  0  0  0
 22 20  1  0  0  0  0
 24 25  1  1  0  0  0
 24 23  1  0  0  0  0
 24 28  1  0  0  0  0
 27 28  2  0  0  0  0
 28 26  1  0  0  0  0
 29 31  1  0  0  0  0
 31 30  1  0  0  0  0
M  END
>  <MODEL>
8

>  <REMARK>
 VINA RESULT:      -6.1      2.884      7.435
  Name = 
  7 active torsions:
  status: ('A' for Active; 'I' for Inactive)
    1  A    between atoms: C_2  and  C_13
    2  A    between atoms: C_7  and  C_21
    3  A    between atoms: C_7  and  C_22
    4  A    between atoms: C_9  and  C_13
    5  A    between atoms: C_16  and  C_30
    6  A    between atoms: C_21  and  C_31
    7  A    between atoms: C_24  and  C_30
                            x       y       z     vdW  Elec       q    Type
                         _______ _______ _______ _____ _____    ______ ____

>  <TORSDO>
F 7

$$$$
=
 OpenBabel11042417153D

 31 34  0  0  1  0  0  0  0  0999 V2000
  195.6350  174.9060  143.8690 C   0  0  0  0  0  2  0  0  0  0  0  0
  193.4220  174.5520  145.6310 C   0  0  0  0  0  2  0  0  0  0  0  0
  193.3350  174.0910  143.1190 C   0  0  0  0  0  0  0  0  0  0  0  0
  192.7890  174.6990  144.3140 N   0  0  0  0  0  0  0  0  0  0  0  0
  190.2470  172.3590  141.6530 C   0  0  2  0  0  3  0  0  0  0  0  0
  191.0540  173.4260  142.3180 C   0  0  0  0  0  0  0  0  0  0  0  0
  188.8360  174.0180  142.5110 C   0  0  0  0  0  3  0  0  0  0  0  0
  191.7800  175.7090  144.1960 C   0  0  0  0  0  0  0  0  0  0  0  0
  190.5940  177.7120  144.5150 N   0  0  0  0  0  0  0  0  0  0  0  0
  188.8610  172.8280  141.6620 N   0  0  0  0  0  0  0  0  0  0  0  0
  191.8140  177.0050  144.9090 C   0  0  0  0  0  3  0  0  0  0  0  0
  193.1360  172.8940  140.9680 C   0  0  0  0  0  1  0  0  0  0  0  0
  195.6300  174.3500  145.3030 C   0  0  1  0  0  3  0  0  0  0  0  0
  192.5330  173.5170  142.1930 C   0  0  0  0  0  0  0  0  0  0  0  0
  190.6500  175.5580  143.5520 C   0  0  0  0  0  0  0  0  0  0  0  0
  194.8380  174.0260  142.9120 C   0  0  0  0  0  2  0  0  0  0  0  0
  194.4640  173.6170  145.5930 O   0  0  0  0  0  0  0  0  0  0  0  0
  190.2470  174.3380  142.8270 C   0  0  0  0  0  0  0  0  0  0  0  0
  189.7810  176.7470  143.7680 C   0  0  1  0  0  3  0  0  0  0  0  0
  190.3260  171.0550  142.4380 C   0  0  0  0  0  2  0  0  0  0  0  0
  191.2340  169.1030  140.9420 N   0  0  0  0  0  0  0  0  0  0  0  0
  190.8350  169.9640  141.6030 C   0  0  0  0  0  0  0  0  0  0  0  0
  188.5540  176.3710  144.5910 C   0  0  0  0  0  2  0  0  0  0  0  0
  187.8640  177.6100  145.1430 C   0  0  2  0  0  3  0  0  0  0  0  0
  187.5020  177.4170  146.6050 C   0  0  0  0  0  1  0  0  0  0  0  0
  185.8550  179.1510  144.6460 C   0  0  0  0  0  1  0  0  0  0  0  0
  186.2750  177.1810  143.4400 O   0  0  0  0  0  0  0  0  0  0  0  0
  186.6380  177.9210  144.3420 C   0  0  0  0  0  0  0  0  0  0  0  0
  196.8730  173.5110  145.5840 C   0  0  0  0  0  2  0  0  0  0  0  0
  197.5440  171.1650  145.1590 C   0  0  0  0  0  1  0  0  0  0  0  0
  196.5330  172.0540  145.8520 C   0  0  0  0  0  2  0  0  0  0  0  0
  1 13  1  0  0  0  0
  3  4  1  0  0  0  0
  4  2  1  0  0  0  0
  5 10  1  0  0  0  0
  5  6  1  0  0  0  0
  5 20  1  1  0  0  0
  6 18  2  0  0  0  0
  7 18  1  0  0  0  0
  8  4  1  0  0  0  0
  8 11  1  0  0  0  0
  9 11  2  0  0  0  0
 10  7  2  0  0  0  0
 12 14  1  0  0  0  0
 13 29  1  6  0  0  0
 13 17  1  0  0  0  0
 14  6  1  0  0  0  0
 14  3  2  0  0  0  0
 15 19  1  0  0  0  0
 15  8  2  0  0  0  0
 16  3  1  0  0  0  0
 16  1  1  0  0  0  0
 17  2  1  0  0  0  0
 18 15  1  0  0  0  0
 19  9  1  0  0  0  0
 19 23  1  1  0  0  0
 21 22  3  0  0  0  0
 22 20  1  0  0  0  0
 23 24  1  0  0  0  0
 24 25  1  1  0  0  0
 27 28  2  0  0  0  0
 28 26  1  0  0  0  0
 28 24  1  0  0  0  0
 29 31  1  0  0  0  0
 30 31  1  0  0  0  0
M  END
>  <MODEL>
9

>  <REMARK>
 VINA RESULT:      -6.1      3.368      6.057
  Name = 
  7 active torsions:
  status: ('A' for Active; 'I' for Inactive)
    1  A    between atoms: C_2  and  C_13
    2  A    between atoms: C_7  and  C_21
    3  A    between atoms: C_7  and  C_22
    4  A    between atoms: C_9  and  C_13
    5  A    between atoms: C_16  and  C_30
    6  A    between atoms: C_21  and  C_31
    7  A    between atoms: C_24  and  C_30
                            x       y       z     vdW  Elec       q    Type
                         _______ _______ _______ _____ _____    ______ ____

>  <TORSDO>
F 7

$$$$
