=
 OpenBabel11042416043D

 64 70  0  0  1  0  0  0  0  0999 V2000
  195.2050  172.7640  145.3570 C   0  0  2  0  0  3  0  0  0  0  0  0
  194.5020  170.6250  143.7150 C   0  0  0  0  0  3  0  0  0  0  0  0
  194.5720  174.2590  143.5950 C   0  0  1  0  0  3  0  0  0  0  0  0
  195.5450  173.1760  144.0390 C   0  0  2  0  0  0  0  0  0  0  0  0
  194.9410  171.7880  144.2030 C   0  0  0  0  0  0  0  0  0  0  0  0
  193.7110  174.5750  144.7330 N   0  0  2  0  0  0  0  0  0  0  0  0
  193.9240  173.4980  145.7030 C   0  0  0  0  0  2  0  0  0  0  0  0
  190.5370  177.2740  145.7390 C   0  0  0  0  0  3  0  0  0  0  0  0
  188.3430  176.7550  146.8500 C   0  0  0  0  0  0  0  0  0  0  0  0
  190.4160  174.8400  145.5970 C   0  0  0  0  0  0  0  0  0  0  0  0
  191.7850  175.9580  144.0440 C   0  0  0  0  0  2  0  0  0  0  0  0
  190.4830  176.0940  144.8250 C   0  0  2  0  0  3  0  0  0  0  0  0
  192.3190  174.5310  144.2680 C   0  0  2  0  0  3  0  0  0  0  0  0
  188.3100  175.4140  146.7720 C   0  0  0  0  0  3  0  0  0  0  0  0
  189.5650  177.5640  146.6080 C   0  0  0  0  0  3  0  0  0  0  0  0
  189.4170  174.5080  146.4090 C   0  0  0  0  0  3  0  0  0  0  0  0
  191.4540  173.9370  145.2770 N   0  0  0  0  0  2  0  0  0  0  0  0
  187.1430  177.3860  147.2050 O   0  0  0  0  0  0  0  0  0  0  0  0
  186.6010  178.1200  144.9480 N   0  0  0  0  0  2  0  0  0  0  0  0
  185.0330  178.1840  146.6620 O   0  0  0  0  0  0  0  0  0  0  0  0
  186.2130  177.9190  146.3050 C   0  0  0  0  0  0  0  0  0  0  0  0
  186.2710  177.1640  143.9050 C   0  0  2  0  0  3  0  0  0  0  0  0
  187.4780  176.9200  143.0440 C   0  0  2  0  0  3  0  0  0  0  0  0
  185.3340  177.8220  142.9250 C   0  0  0  0  0  2  0  0  0  0  0  0
  186.1030  178.6190  142.0690 O   0  0  0  0  0  0  0  0  0  0  0  0
  187.3700  178.0040  141.9860 C   0  0  0  0  0  2  0  0  0  0  0  0
  187.3600  175.6740  142.4220 O   0  0  0  0  0  0  0  0  0  0  0  0
  188.2830  175.6920  141.3700 C   0  0  0  0  0  2  0  0  0  0  0  0
  188.3580  173.3900  142.2790 C   0  0  0  0  0  1  0  0  0  0  0  0
  188.9020  174.3140  141.2080 C   0  0  2  0  0  3  0  0  0  0  0  0
  190.2900  174.3930  141.3240 O   0  0  0  0  0  1  0  0  0  0  0  0
  197.0210  173.2380  143.7570 C   0  0  0  0  0  0  0  0  0  0  0  0
  197.8570  174.3170  144.3540 C   0  0  0  0  0  1  0  0  0  0  0  0
  197.5360  172.4220  143.0070 O   0  0  0  0  0  0  0  0  0  0  0  0
  193.9340  169.5560  144.6000 C   0  0  2  0  0  3  0  0  0  0  0  0
  194.8660  168.5310  144.7880 O   0  0  0  0  0  0  0  0  0  0  0  0
  195.0880  168.5170  146.0860 O   0  0  0  0  0  1  0  0  0  0  0  0
  192.6440  169.0010  144.0090 C   0  0  0  0  0  2  0  0  0  0  0  0
  192.5540  169.2760  142.5140 C   0  0  0  0  0  2  0  0  0  0  0  0
  191.5170  170.3490  142.2170 C   0  0  0  0  0  2  0  0  0  0  0  0
  190.8780  170.1140  140.8610 C   0  0  0  0  0  1  0  0  0  0  0  0
  195.2670  175.4630  143.1580 N   0  0  0  0  0  2  0  0  0  0  0  0
  195.6360  176.5570  140.9960 C   0  0  0  0  0  2  0  0  0  0  0  0
  194.5400  174.1950  140.0310 C   0  0  0  0  0  2  0  0  0  0  0  0
  193.8560  174.7490  141.2830 C   0  0  0  0  0  2  0  0  0  0  0  0
  194.6110  175.9170  141.9400 C   0  0  1  0  0  3  0  0  0  0  0  0
  196.0530  174.1400  140.2220 C   0  0  2  0  0  3  0  0  0  0  0  0
  196.6480  175.5390  140.4500 C   0  0  0  0  0  2  0  0  0  0  0  0
  197.0370  172.1400  139.0260 C   0  0  0  0  0  0  0  0  0  0  0  0
  196.8690  171.4060  140.0370 O   0  0  0  0  0  0  0  0  0  0  0  0
  196.6690  173.5200  139.0590 N   0  0  0  0  0  2  0  0  0  0  0  0
  197.6240  171.5720  137.7810 C   0  0  0  0  0  2  0  0  0  0  0  0
  195.9870  169.7390  137.6360 C   0  0  0  0  0  2  0  0  0  0  0  0
  196.5420  170.9500  136.9000 C   0  0  1  0  0  3  0  0  0  0  0  0
  195.4560  171.9180  136.6540 N   0  0  0  0  0  0  0  0  0  0  0  0
  194.0880  169.8840  136.0980 C   0  0  0  0  0  0  0  0  0  0  0  0
  194.9690  169.1240  136.8650 O   0  0  0  0  0  0  0  0  0  0  0  0
  194.3300  171.3590  135.8730 C   0  0  1  0  0  3  0  0  0  0  0  0
  193.1210  169.3120  135.5270 O   0  0  0  0  0  0  0  0  0  0  0  0
  192.6300  172.9330  135.2840 O   0  0  0  0  0  0  0  0  0  0  0  0
  193.0790  172.1390  136.1510 C   0  0  0  0  0  0  0  0  0  0  0  0
  192.4110  171.9880  137.3630 O   0  0  0  0  0  1  0  0  0  0  0  0
  195.9840  173.0680  135.9060 C   0  0  0  0  0  2  0  0  0  0  0  0
  196.7580  172.6510  134.8140 O   0  0  0  0  0  1  0  0  0  0  0  0
  1  7  1  6  0  0  0
  2  5  2  0  0  0  0
  3 42  1  1  0  0  0
  3  4  1  0  0  0  0
  3  6  1  0  0  0  0
  4 32  1  6  0  0  0
  4  5  1  0  0  0  0
  4  1  1  0  0  0  0
  5  1  1  0  0  0  0
  6  7  1  1  0  0  0
  8 15  2  0  0  0  0
  9 18  1  0  0  0  0
 10 16  2  0  0  0  0
 12 11  1  1  0  0  0
 12 10  1  0  0  0  0
 12  8  1  0  0  0  0
 13 11  1  1  0  0  0
 13  6  1  0  0  0  0
 13 17  1  0  0  0  0
 14  9  2  0  0  0  0
 15  9  1  0  0  0  0
 16 14  1  0  0  0  0
 17 10  1  0  0  0  0
 19 21  1  0  0  0  0
 21 20  2  0  0  0  0
 21 18  1  0  0  0  0
 22 19  1  1  0  0  0
 23 27  1  6  0  0  0
 23 22  1  0  0  0  0
 24 22  1  0  0  0  0
 25 24  1  0  0  0  0
 26 25  1  0  0  0  0
 26 23  1  0  0  0  0
 28 27  1  0  0  0  0
 30 31  1  0  0  0  0
 30 28  1  0  0  0  0
 30 29  1  1  0  0  0
 32 33  1  0  0  0  0
 34 32  2  0  0  0  0
 35  2  1  6  0  0  0
 35 36  1  0  0  0  0
 36 37  1  0  0  0  0
 38 35  1  0  0  0  0
 39 38  1  0  0  0  0
 40 39  1  0  0  0  0
 41 40  1  0  0  0  0
 43 46  1  0  0  0  0
 44 47  1  0  0  0  0
 44 45  1  0  0  0  0
 45 46  1  0  0  0  0
 46 42  1  1  0  0  0
 47 51  1  6  0  0  0
 47 48  1  0  0  0  0
 48 43  1  0  0  0  0
 49 51  1  0  0  0  0
 49 50  2  0  0  0  0
 52 49  1  0  0  0  0
 54 53  1  0  0  0  0
 54 52  1  1  0  0  0
 55 54  1  0  0  0  0
 56 57  1  0  0  0  0
 57 53  1  0  0  0  0
 58 56  1  0  0  0  0
 58 61  1  1  0  0  0
 58 55  1  0  0  0  0
 59 56  2  0  0  0  0
 60 61  2  0  0  0  0
 61 62  1  0  0  0  0
 63 55  1  0  0  0  0
 64 63  1  0  0  0  0
M  END
>  <MODEL>
1

>  <REMARK>
 VINA RESULT:      -6.0      0.000      0.000
  Name = 
  20 active torsions:
  status: ('A' for Active; 'I' for Inactive)
    1  A    between atoms: C_1  and  C_38
    2  A    between atoms: N_5  and  C_6
    3  A    between atoms: C_7  and  C_47
    4  A    between atoms: C_13  and  C_51
    5  A    between atoms: C_14  and  C_38
    6  A    between atoms: C_14  and  C_47
    7  A    between atoms: C_15  and  N_50
    8  A    between atoms: C_16  and  O_55
    9  A    between atoms: C_17  and  C_51
   10  A    between atoms: C_18  and  C_30
   11  A    between atoms: N_19  and  C_28
   12  A    between atoms: C_21  and  O_35
   13  A    between atoms: C_25  and  N_50
   14  A    between atoms: N_27  and  C_33
   15  A    between atoms: C_29  and  C_36
   16  A    between atoms: O_32  and  C_47
   17  A    between atoms: O_35  and  C_43
   18  A    between atoms: C_41  and  N_57
   19  A    between atoms: O_55  and  C_56
   20  A    between atoms: C_56  and  C_63
                            x       y       z     vdW  Elec       q    Type
                         _______ _______ _______ _____ _____    ______ ____

>  <TORSDO>
F 20

$$$$
=
 OpenBabel11042416043D

 64 70  0  0  1  0  0  0  0  0999 V2000
  194.6260  171.7660  142.4120 C   0  0  2  0  0  3  0  0  0  0  0  0
  195.2010  169.7050  144.1970 C   0  0  0  0  0  3  0  0  0  0  0  0
  192.2990  171.4730  142.9030 C   0  0  1  0  0  3  0  0  0  0  0  0
  193.5440  170.8510  142.2890 C   0  0  2  0  0  0  0  0  0  0  0  0
  194.6490  170.4980  143.2760 C   0  0  0  0  0  0  0  0  0  0  0  0
  192.6320  172.8410  143.2920 N   0  0  2  0  0  0  0  0  0  0  0  0
  194.0940  172.9260  143.2320 C   0  0  0  0  0  2  0  0  0  0  0  0
  189.1300  174.8880  144.6760 C   0  0  0  0  0  3  0  0  0  0  0  0
  188.9900  176.8820  146.2000 C   0  0  0  0  0  0  0  0  0  0  0  0
  191.3840  175.0240  145.6040 C   0  0  0  0  0  0  0  0  0  0  0  0
  190.6650  172.9400  144.7810 C   0  0  0  0  0  2  0  0  0  0  0  0
  190.1700  174.1940  145.4920 C   0  0  2  0  0  3  0  0  0  0  0  0
  192.1990  173.0330  144.6810 C   0  0  2  0  0  3  0  0  0  0  0  0
  190.2420  176.9430  146.6820 C   0  0  0  0  0  3  0  0  0  0  0  0
  188.6000  176.0630  145.0220 C   0  0  0  0  0  3  0  0  0  0  0  0
  191.4290  176.2140  146.1940 C   0  0  0  0  0  3  0  0  0  0  0  0
  192.5490  174.3650  145.1540 N   0  0  0  0  0  2  0  0  0  0  0  0
  188.0320  177.6660  146.8570 O   0  0  0  0  0  0  0  0  0  0  0  0
  185.7210  178.2180  146.3280 N   0  0  0  0  0  2  0  0  0  0  0  0
  186.2730  176.3270  147.5610 O   0  0  0  0  0  0  0  0  0  0  0  0
  186.6690  177.3620  146.9590 C   0  0  0  0  0  0  0  0  0  0  0  0
  185.1520  177.9080  145.0270 C   0  0  2  0  0  3  0  0  0  0  0  0
  186.1490  178.2320  143.9500 C   0  0  2  0  0  3  0  0  0  0  0  0
  184.0590  178.9000  144.7290 C   0  0  0  0  0  2  0  0  0  0  0  0
  184.6630  180.0790  144.2770 O   0  0  0  0  0  0  0  0  0  0  0  0
  185.8650  179.6930  143.6470 C   0  0  0  0  0  2  0  0  0  0  0  0
  185.8640  177.4740  142.8100 O   0  0  0  0  0  0  0  0  0  0  0  0
  186.2570  178.2670  141.7260 C   0  0  0  0  0  2  0  0  0  0  0  0
  187.5730  176.2720  141.0760 C   0  0  0  0  0  1  0  0  0  0  0  0
  187.5970  177.7820  141.1970 C   0  0  2  0  0  3  0  0  0  0  0  0
  188.6220  178.1630  142.0630 O   0  0  0  0  0  1  0  0  0  0  0  0
  193.5190  170.0720  141.0020 C   0  0  0  0  0  0  0  0  0  0  0  0
  194.2330  170.5850  139.7980 C   0  0  0  0  0  1  0  0  0  0  0  0
  192.8840  169.0310  140.9280 O   0  0  0  0  0  0  0  0  0  0  0  0
  196.5020  170.0460  144.8620 C   0  0  2  0  0  3  0  0  0  0  0  0
  196.4310  169.7940  146.2340 O   0  0  0  0  0  0  0  0  0  0  0  0
  196.2220  168.4960  146.3240 O   0  0  0  0  0  1  0  0  0  0  0  0
  196.8680  171.5030  144.6050 C   0  0  0  0  0  2  0  0  0  0  0  0
  197.1310  172.2470  145.9080 C   0  0  0  0  0  2  0  0  0  0  0  0
  196.5100  173.6360  145.8780 C   0  0  0  0  0  2  0  0  0  0  0  0
  197.0670  174.4450  144.7220 C   0  0  0  0  0  1  0  0  0  0  0  0
  191.1830  171.4870  141.9660 N   0  0  0  0  0  2  0  0  0  0  0  0
  191.7490  173.4730  140.6450 C   0  0  0  0  0  2  0  0  0  0  0  0
  189.0810  173.2810  139.8970 C   0  0  0  0  0  2  0  0  0  0  0  0
  189.3480  173.0060  141.3790 C   0  0  0  0  0  2  0  0  0  0  0  0
  190.8410  172.8830  141.7300 C   0  0  1  0  0  3  0  0  0  0  0  0
  190.0280  172.4690  139.0180 C   0  0  2  0  0  3  0  0  0  0  0  0
  191.4980  172.8480  139.2650 C   0  0  0  0  0  2  0  0  0  0  0  0
  190.0130  171.7230  136.6010 C   0  0  0  0  0  0  0  0  0  0  0  0
  190.6460  170.6710  136.8840 O   0  0  0  0  0  0  0  0  0  0  0  0
  189.6900  172.6730  137.6180 N   0  0  0  0  0  2  0  0  0  0  0  0
  189.5930  171.9880  135.1970 C   0  0  0  0  0  2  0  0  0  0  0  0
  189.0950  174.3910  135.3950 C   0  0  0  0  0  2  0  0  0  0  0  0
  190.0300  173.3800  134.7470 C   0  0  1  0  0  3  0  0  0  0  0  0
  191.4180  173.6490  135.1740 N   0  0  0  0  0  0  0  0  0  0  0  0
  190.7980  176.0640  134.8550 C   0  0  0  0  0  0  0  0  0  0  0  0
  189.4610  175.7070  135.0170 O   0  0  0  0  0  0  0  0  0  0  0  0
  191.8850  175.0140  134.8430 C   0  0  1  0  0  3  0  0  0  0  0  0
  191.0890  177.2710  134.6420 O   0  0  0  0  0  0  0  0  0  0  0  0
  192.8220  175.3720  137.0130 O   0  0  0  0  0  1  0  0  0  0  0  0
  192.9990  175.4090  135.7670 C   0  0  0  0  0  0  0  0  0  0  0  0
  194.2270  175.8160  135.2540 O   0  0  0  0  0  0  0  0  0  0  0  0
  192.3260  172.7000  134.5150 C   0  0  0  0  0  2  0  0  0  0  0  0
  193.2300  172.1430  135.4310 O   0  0  0  0  0  1  0  0  0  0  0  0
  1  7  1  1  0  0  0
  1  5  1  0  0  0  0
  3 42  1  6  0  0  0
  3  6  1  0  0  0  0
  4 32  1  6  0  0  0
  4  1  1  0  0  0  0
  4  3  1  0  0  0  0
  4  5  1  0  0  0  0
  5  2  2  0  0  0  0
  6  7  1  1  0  0  0
  6 13  1  0  0  0  0
  8 15  2  0  0  0  0
  9 14  2  0  0  0  0
  9 18  1  0  0  0  0
 10 16  2  0  0  0  0
 11 12  1  0  0  0  0
 12  8  1  6  0  0  0
 12 10  1  0  0  0  0
 13 11  1  6  0  0  0
 13 17  1  0  0  0  0
 15  9  1  0  0  0  0
 16 14  1  0  0  0  0
 17 10  1  0  0  0  0
 18 21  1  0  0  0  0
 19 21  1  0  0  0  0
 21 20  2  0  0  0  0
 22 19  1  1  0  0  0
 23 27  1  6  0  0  0
 23 22  1  0  0  0  0
 24 22  1  0  0  0  0
 25 24  1  0  0  0  0
 26 23  1  0  0  0  0
 26 25  1  0  0  0  0
 28 27  1  0  0  0  0
 30 29  1  1  0  0  0
 30 28  1  0  0  0  0
 30 31  1  0  0  0  0
 33 32  1  0  0  0  0
 34 32  2  0  0  0  0
 35  2  1  6  0  0  0
 35 36  1  0  0  0  0
 36 37  1  0  0  0  0
 38 35  1  0  0  0  0
 38 39  1  0  0  0  0
 40 39  1  0  0  0  0
 41 40  1  0  0  0  0
 43 46  1  0  0  0  0
 44 45  1  0  0  0  0
 45 46  1  0  0  0  0
 46 42  1  6  0  0  0
 47 51  1  6  0  0  0
 47 48  1  0  0  0  0
 47 44  1  0  0  0  0
 48 43  1  0  0  0  0
 49 50  2  0  0  0  0
 49 51  1  0  0  0  0
 52 49  1  0  0  0  0
 54 55  1  0  0  0  0
 54 52  1  1  0  0  0
 54 53  1  0  0  0  0
 56 57  1  0  0  0  0
 57 53  1  0  0  0  0
 58 56  1  0  0  0  0
 58 55  1  0  0  0  0
 58 61  1  1  0  0  0
 59 56  2  0  0  0  0
 61 60  1  0  0  0  0
 62 61  2  0  0  0  0
 63 55  1  0  0  0  0
 63 64  1  0  0  0  0
M  END
>  <MODEL>
2

>  <REMARK>
 VINA RESULT:      -5.7      2.592      4.663
  Name = 
  20 active torsions:
  status: ('A' for Active; 'I' for Inactive)
    1  A    between atoms: C_1  and  C_38
    2  A    between atoms: N_5  and  C_6
    3  A    between atoms: C_7  and  C_47
    4  A    between atoms: C_13  and  C_51
    5  A    between atoms: C_14  and  C_38
    6  A    between atoms: C_14  and  C_47
    7  A    between atoms: C_15  and  N_50
    8  A    between atoms: C_16  and  O_55
    9  A    between atoms: C_17  and  C_51
   10  A    between atoms: C_18  and  C_30
   11  A    between atoms: N_19  and  C_28
   12  A    between atoms: C_21  and  O_35
   13  A    between atoms: C_25  and  N_50
   14  A    between atoms: N_27  and  C_33
   15  A    between atoms: C_29  and  C_36
   16  A    between atoms: O_32  and  C_47
   17  A    between atoms: O_35  and  C_43
   18  A    between atoms: C_41  and  N_57
   19  A    between atoms: O_55  and  C_56
   20  A    between atoms: C_56  and  C_63
                            x       y       z     vdW  Elec       q    Type
                         _______ _______ _______ _____ _____    ______ ____

>  <TORSDO>
F 20

$$$$
=
 OpenBabel11042416043D

 64 70  0  0  1  0  0  0  0  0999 V2000
  196.1790  173.1430  143.9060 C   0  0  2  0  0  3  0  0  0  0  0  0
  196.1360  173.7050  141.1780 C   0  0  0  0  0  3  0  0  0  0  0  0
  194.1190  171.9490  143.6420 C   0  0  1  0  0  3  0  0  0  0  0  0
  194.8050  173.3060  143.5800 C   0  0  2  0  0  0  0  0  0  0  0  0
  195.8160  173.4720  142.4530 C   0  0  0  0  0  0  0  0  0  0  0  0
  195.0960  170.9810  144.1360 N   0  0  2  0  0  0  0  0  0  0  0  0
  196.3960  171.6490  144.0480 C   0  0  0  0  0  2  0  0  0  0  0  0
  194.6340  171.0200  139.8750 C   0  0  0  0  0  3  0  0  0  0  0  0
  192.8570  169.9040  138.4900 C   0  0  0  0  0  0  0  0  0  0  0  0
  193.5910  169.4830  141.4600 C   0  0  0  0  0  0  0  0  0  0  0  0
  195.7920  170.1850  141.9050 C   0  0  0  0  0  2  0  0  0  0  0  0
  194.8420  169.8390  140.7650 C   0  0  2  0  0  3  0  0  0  0  0  0
  195.0870  169.8280  143.2270 C   0  0  2  0  0  3  0  0  0  0  0  0
  192.2920  169.0800  139.3870 C   0  0  0  0  0  3  0  0  0  0  0  0
  193.7710  171.0180  138.8560 C   0  0  0  0  0  3  0  0  0  0  0  0
  192.4800  169.0800  140.8510 C   0  0  0  0  0  3  0  0  0  0  0  0
  193.7250  169.4630  142.8650 N   0  0  0  0  0  2  0  0  0  0  0  0
  192.5240  169.6840  137.1470 O   0  0  0  0  0  0  0  0  0  0  0  0
  190.3680  170.8090  137.2440 N   0  0  0  0  0  2  0  0  0  0  0  0
  190.9510  169.4400  135.4590 O   0  0  0  0  0  0  0  0  0  0  0  0
  191.2720  169.9360  136.5720 C   0  0  0  0  0  0  0  0  0  0  0  0
  190.2310  172.2070  136.8730 C   0  0  2  0  0  3  0  0  0  0  0  0
  191.3650  172.9980  137.4610 C   0  0  2  0  0  3  0  0  0  0  0  0
  189.0500  172.7880  137.6060 C   0  0  0  0  0  2  0  0  0  0  0  0
  189.4620  173.0880  138.9100 O   0  0  0  0  0  0  0  0  0  0  0  0
  190.8390  173.3840  138.8320 C   0  0  0  0  0  2  0  0  0  0  0  0
  191.5570  174.1620  136.7110 O   0  0  0  0  0  0  0  0  0  0  0  0
  192.8680  174.0830  136.2270 C   0  0  0  0  0  2  0  0  0  0  0  0
  194.5380  175.8790  135.8810 C   0  0  0  0  0  1  0  0  0  0  0  0
  193.1960  175.3370  135.4330 C   0  0  2  0  0  3  0  0  0  0  0  0
  192.2120  176.3060  135.6360 O   0  0  0  0  0  1  0  0  0  0  0  0
  194.1750  174.5650  144.1080 C   0  0  0  0  0  0  0  0  0  0  0  0
  194.1970  174.8630  145.5690 C   0  0  0  0  0  1  0  0  0  0  0  0
  193.6110  175.3350  143.3460 O   0  0  0  0  0  0  0  0  0  0  0  0
  197.5580  173.7000  140.7020 C   0  0  2  0  0  3  0  0  0  0  0  0
  197.9380  174.9780  140.2840 O   0  0  0  0  0  0  0  0  0  0  0  0
  197.9380  175.7020  141.3840 O   0  0  0  0  0  1  0  0  0  0  0  0
  197.7410  172.6930  139.5720 C   0  0  0  0  0  2  0  0  0  0  0  0
  196.8590  173.0330  138.3780 C   0  0  0  0  0  2  0  0  0  0  0  0
  197.2980  172.2640  137.1400 C   0  0  0  0  0  2  0  0  0  0  0  0
  196.4130  172.6080  135.9560 C   0  0  0  0  0  1  0  0  0  0  0  0
  192.9600  171.9700  144.5250 N   0  0  0  0  0  2  0  0  0  0  0  0
  190.5150  171.7950  144.5380 C   0  0  0  0  0  2  0  0  0  0  0  0
  190.7420  173.6230  142.4590 C   0  0  0  0  0  2  0  0  0  0  0  0
  191.7840  172.5020  142.4380 C   0  0  0  0  0  2  0  0  0  0  0  0
  191.7970  171.6400  143.7120 C   0  0  1  0  0  3  0  0  0  0  0  0
  190.6700  174.2670  143.8410 C   0  0  2  0  0  3  0  0  0  0  0  0
  190.2320  173.2570  144.9160 C   0  0  0  0  0  2  0  0  0  0  0  0
  190.1820  176.7480  143.8430 C   0  0  0  0  0  0  0  0  0  0  0  0
  191.4080  177.0260  143.9410 O   0  0  0  0  0  0  0  0  0  0  0  0
  189.7450  175.3890  143.8080 N   0  0  0  0  0  2  0  0  0  0  0  0
  189.1740  177.8410  143.7610 C   0  0  0  0  0  2  0  0  0  0  0  0
  187.9460  177.5660  145.8780 C   0  0  0  0  0  2  0  0  0  0  0  0
  187.8420  177.4040  144.3680 C   0  0  1  0  0  3  0  0  0  0  0  0
  186.7410  178.2450  143.8570 N   0  0  0  0  0  0  0  0  0  0  0  0
  185.5010  177.4450  145.8920 C   0  0  0  0  0  0  0  0  0  0  0  0
  186.7300  177.1810  146.4940 O   0  0  0  0  0  0  0  0  0  0  0  0
  185.4280  177.9330  144.4640 C   0  0  1  0  0  3  0  0  0  0  0  0
  184.4410  177.2000  146.5280 O   0  0  0  0  0  0  0  0  0  0  0  0
  184.8040  180.1760  145.0080 O   0  0  0  0  0  1  0  0  0  0  0  0
  184.5250  179.1280  144.3690 C   0  0  0  0  0  0  0  0  0  0  0  0
  183.3810  179.0840  143.5780 O   0  0  0  0  0  0  0  0  0  0  0  0
  186.6130  178.0570  142.4050 C   0  0  0  0  0  2  0  0  0  0  0  0
  186.4070  176.7080  142.0840 O   0  0  0  0  0  1  0  0  0  0  0  0
  1  7  1  6  0  0  0
  2  5  2  0  0  0  0
  3  6  1  0  0  0  0
  3 42  1  1  0  0  0
  4  3  1  0  0  0  0
  4  1  1  0  0  0  0
  4 32  1  1  0  0  0
  5  4  1  0  0  0  0
  5  1  1  0  0  0  0
  6  7  1  6  0  0  0
  9 15  1  0  0  0  0
  9 14  2  0  0  0  0
 10 17  1  0  0  0  0
 12  8  1  6  0  0  0
 12 10  1  0  0  0  0
 12 11  1  0  0  0  0
 13 11  1  6  0  0  0
 13  6  1  0  0  0  0
 14 16  1  0  0  0  0
 15  8  2  0  0  0  0
 16 10  2  0  0  0  0
 17 13  1  0  0  0  0
 18  9  1  0  0  0  0
 20 21  2  0  0  0  0
 21 18  1  0  0  0  0
 21 19  1  0  0  0  0
 22 19  1  1  0  0  0
 22 23  1  0  0  0  0
 22 24  1  0  0  0  0
 23 27  1  6  0  0  0
 23 26  1  0  0  0  0
 24 25  1  0  0  0  0
 26 25  1  0  0  0  0
 28 27  1  0  0  0  0
 30 31  1  0  0  0  0
 30 29  1  1  0  0  0
 30 28  1  0  0  0  0
 32 33  1  0  0  0  0
 34 32  2  0  0  0  0
 35 38  1  6  0  0  0
 35  2  1  0  0  0  0
 36 35  1  0  0  0  0
 36 37  1  0  0  0  0
 39 38  1  0  0  0  0
 40 39  1  0  0  0  0
 41 40  1  0  0  0  0
 43 48  1  0  0  0  0
 44 47  1  0  0  0  0
 45 44  1  0  0  0  0
 45 46  1  0  0  0  0
 46 42  1  1  0  0  0
 46 43  1  0  0  0  0
 47 51  1  6  0  0  0
 47 48  1  0  0  0  0
 49 50  2  0  0  0  0
 51 49  1  0  0  0  0
 52 49  1  0  0  0  0
 53 57  1  0  0  0  0
 54 52  1  6  0  0  0
 54 53  1  0  0  0  0
 55 54  1  0  0  0  0
 55 58  1  0  0  0  0
 56 57  1  0  0  0  0
 56 59  2  0  0  0  0
 58 61  1  1  0  0  0
 58 56  1  0  0  0  0
 61 60  1  0  0  0  0
 62 61  2  0  0  0  0
 63 55  1  0  0  0  0
 64 63  1  0  0  0  0
M  END
>  <MODEL>
3

>  <REMARK>
 VINA RESULT:      -5.6      2.653      9.379
  Name = 
  20 active torsions:
  status: ('A' for Active; 'I' for Inactive)
    1  A    between atoms: C_1  and  C_38
    2  A    between atoms: N_5  and  C_6
    3  A    between atoms: C_7  and  C_47
    4  A    between atoms: C_13  and  C_51
    5  A    between atoms: C_14  and  C_38
    6  A    between atoms: C_14  and  C_47
    7  A    between atoms: C_15  and  N_50
    8  A    between atoms: C_16  and  O_55
    9  A    between atoms: C_17  and  C_51
   10  A    between atoms: C_18  and  C_30
   11  A    between atoms: N_19  and  C_28
   12  A    between atoms: C_21  and  O_35
   13  A    between atoms: C_25  and  N_50
   14  A    between atoms: N_27  and  C_33
   15  A    between atoms: C_29  and  C_36
   16  A    between atoms: O_32  and  C_47
   17  A    between atoms: O_35  and  C_43
   18  A    between atoms: C_41  and  N_57
   19  A    between atoms: O_55  and  C_56
   20  A    between atoms: C_56  and  C_63
                            x       y       z     vdW  Elec       q    Type
                         _______ _______ _______ _____ _____    ______ ____

>  <TORSDO>
F 20

$$$$
=
 OpenBabel11042416043D

 64 70  0  0  1  0  0  0  0  0999 V2000
  195.6740  174.4460  144.6030 C   0  0  2  0  0  3  0  0  0  0  0  0
  196.1820  174.7670  141.8830 C   0  0  0  0  0  3  0  0  0  0  0  0
  194.1500  172.6780  144.0580 C   0  0  1  0  0  3  0  0  0  0  0  0
  194.4380  174.1690  143.9560 C   0  0  2  0  0  0  0  0  0  0  0  0
  195.6210  174.5440  143.0730 C   0  0  0  0  0  0  0  0  0  0  0  0
  195.1910  172.0830  144.8940 N   0  0  2  0  0  0  0  0  0  0  0  0
  196.2410  173.0980  145.0040 C   0  0  0  0  0  2  0  0  0  0  0  0
  195.4340  171.4940  140.6550 C   0  0  0  0  0  3  0  0  0  0  0  0
  194.3990  169.6670  139.2730 C   0  0  0  0  0  0  0  0  0  0  0  0
  194.7460  169.8620  142.3350 C   0  0  0  0  0  0  0  0  0  0  0  0
  196.4680  171.3610  142.9080 C   0  0  0  0  0  2  0  0  0  0  0  0
  195.8910  170.5730  141.7370 C   0  0  2  0  0  3  0  0  0  0  0  0
  195.7260  170.9160  144.1820 C   0  0  2  0  0  3  0  0  0  0  0  0
  194.0160  168.7950  140.2200 C   0  0  0  0  0  3  0  0  0  0  0  0
  194.8010  171.0690  139.5590 C   0  0  0  0  0  3  0  0  0  0  0  0
  193.9560  169.0200  141.6780 C   0  0  0  0  0  3  0  0  0  0  0  0
  194.6510  170.0430  143.7330 N   0  0  0  0  0  2  0  0  0  0  0  0
  194.3820  169.1980  137.9520 O   0  0  0  0  0  0  0  0  0  0  0  0
  193.3620  170.2150  135.9910 N   0  0  0  0  0  2  0  0  0  0  0  0
  195.5990  170.5550  136.5170 O   0  0  0  0  0  0  0  0  0  0  0  0
  194.5070  169.9970  136.8090 C   0  0  0  0  0  0  0  0  0  0  0  0
  192.5580  171.4210  136.1000 C   0  0  2  0  0  3  0  0  0  0  0  0
  191.7950  171.4030  137.3950 C   0  0  2  0  0  3  0  0  0  0  0  0
  191.4380  171.3480  135.0940 C   0  0  0  0  0  2  0  0  0  0  0  0
  190.4360  170.5300  135.6290 O   0  0  0  0  0  0  0  0  0  0  0  0
  190.5170  170.6690  137.0300 C   0  0  0  0  0  2  0  0  0  0  0  0
  191.4710  172.7130  137.7610 O   0  0  0  0  0  0  0  0  0  0  0  0
  190.4400  172.5940  138.6990 C   0  0  0  0  0  2  0  0  0  0  0  0
  188.1880  173.4610  139.2580 C   0  0  0  0  0  1  0  0  0  0  0  0
  189.5060  173.7880  138.5860 C   0  0  2  0  0  3  0  0  0  0  0  0
  189.2790  174.0950  137.2430 O   0  0  0  0  0  1  0  0  0  0  0  0
  193.3780  175.2200  144.1420 C   0  0  0  0  0  0  0  0  0  0  0  0
  192.6590  175.7800  142.9620 C   0  0  0  0  0  1  0  0  0  0  0  0
  193.1260  175.6460  145.2590 O   0  0  0  0  0  0  0  0  0  0  0  0
  197.6260  175.1500  141.7440 C   0  0  2  0  0  3  0  0  0  0  0  0
  197.9400  176.1970  142.6150 O   0  0  0  0  0  0  0  0  0  0  0  0
  197.0230  177.1130  142.3780 O   0  0  0  0  0  1  0  0  0  0  0  0
  197.9400  175.5420  140.3050 C   0  0  0  0  0  2  0  0  0  0  0  0
  197.4360  174.4940  139.3210 C   0  0  0  0  0  2  0  0  0  0  0  0
  196.6870  175.1430  138.1670 C   0  0  0  0  0  2  0  0  0  0  0  0
  195.3560  174.4520  137.9380 C   0  0  0  0  0  1  0  0  0  0  0  0
  192.8420  172.4190  144.6450 N   0  0  0  0  0  2  0  0  0  0  0  0
  190.7840  171.1300  144.3110 C   0  0  0  0  0  2  0  0  0  0  0  0
  190.4100  172.9600  142.2560 C   0  0  0  0  0  2  0  0  0  0  0  0
  191.8470  172.4530  142.4030 C   0  0  0  0  0  2  0  0  0  0  0  0
  192.0890  171.6300  143.6810 C   0  0  1  0  0  3  0  0  0  0  0  0
  189.8610  173.4240  143.6020 C   0  0  2  0  0  3  0  0  0  0  0  0
  189.8050  172.2730  144.6200 C   0  0  0  0  0  2  0  0  0  0  0  0
  188.3220  175.3180  142.9380 C   0  0  0  0  0  0  0  0  0  0  0  0
  189.3000  176.0730  142.6860 O   0  0  0  0  0  0  0  0  0  0  0  0
  188.5330  173.9890  143.4180 N   0  0  0  0  0  2  0  0  0  0  0  0
  186.9300  175.8080  142.7350 C   0  0  0  0  0  2  0  0  0  0  0  0
  185.8960  177.9750  142.1920 C   0  0  0  0  0  2  0  0  0  0  0  0
  186.7870  177.2570  143.1960 C   0  0  1  0  0  3  0  0  0  0  0  0
  186.1660  177.3140  144.5350 N   0  0  0  0  0  0  0  0  0  0  0  0
  185.6160  179.6880  143.9180 C   0  0  0  0  0  0  0  0  0  0  0  0
  185.7200  179.3280  142.5760 O   0  0  0  0  0  0  0  0  0  0  0  0
  185.9200  178.6930  145.0140 C   0  0  1  0  0  3  0  0  0  0  0  0
  185.3360  180.8810  144.2140 O   0  0  0  0  0  0  0  0  0  0  0  0
  185.0980  178.5800  147.2560 O   0  0  0  0  0  1  0  0  0  0  0  0
  184.8190  178.6890  146.0330 C   0  0  0  0  0  0  0  0  0  0  0  0
  183.4910  178.8060  145.6340 O   0  0  0  0  0  0  0  0  0  0  0  0
  187.0470  176.6580  145.5120 C   0  0  0  0  0  2  0  0  0  0  0  0
  188.2000  177.4190  145.7470 O   0  0  0  0  0  1  0  0  0  0  0  0
  1  7  1  6  0  0  0
  2  5  2  0  0  0  0
  3 42  1  1  0  0  0
  3  6  1  0  0  0  0
  4  3  1  0  0  0  0
  4 32  1  1  0  0  0
  4  1  1  0  0  0  0
  5  4  1  0  0  0  0
  5  1  1  0  0  0  0
  6  7  1  6  0  0  0
  9 15  1  0  0  0  0
  9 14  2  0  0  0  0
 10 17  1  0  0  0  0
 12  8  1  6  0  0  0
 12 10  1  0  0  0  0
 12 11  1  0  0  0  0
 13 11  1  6  0  0  0
 13  6  1  0  0  0  0
 14 16  1  0  0  0  0
 15  8  2  0  0  0  0
 16 10  2  0  0  0  0
 17 13  1  0  0  0  0
 18  9  1  0  0  0  0
 19 21  1  0  0  0  0
 20 21  2  0  0  0  0
 21 18  1  0  0  0  0
 22 19  1  1  0  0  0
 22 23  1  0  0  0  0
 23 27  1  6  0  0  0
 24 25  1  0  0  0  0
 24 22  1  0  0  0  0
 25 26  1  0  0  0  0
 26 23  1  0  0  0  0
 27 28  1  0  0  0  0
 30 28  1  0  0  0  0
 30 29  1  6  0  0  0
 31 30  1  0  0  0  0
 32 34  2  0  0  0  0
 33 32  1  0  0  0  0
 35 38  1  6  0  0  0
 35  2  1  0  0  0  0
 35 36  1  0  0  0  0
 37 36  1  0  0  0  0
 39 38  1  0  0  0  0
 40 39  1  0  0  0  0
 41 40  1  0  0  0  0
 43 48  1  0  0  0  0
 44 45  1  0  0  0  0
 44 47  1  0  0  0  0
 45 46  1  0  0  0  0
 46 43  1  0  0  0  0
 46 42  1  1  0  0  0
 47 51  1  6  0  0  0
 47 48  1  0  0  0  0
 49 51  1  0  0  0  0
 50 49  2  0  0  0  0
 52 49  1  0  0  0  0
 53 57  1  0  0  0  0
 53 54  1  0  0  0  0
 54 52  1  6  0  0  0
 54 55  1  0  0  0  0
 55 58  1  0  0  0  0
 55 63  1  0  0  0  0
 56 59  2  0  0  0  0
 56 58  1  0  0  0  0
 57 56  1  0  0  0  0
 58 61  1  1  0  0  0
 61 60  1  0  0  0  0
 62 61  2  0  0  0  0
 63 64  1  0  0  0  0
M  END
>  <MODEL>
4

>  <REMARK>
 VINA RESULT:      -5.6      2.542      9.796
  Name = 
  20 active torsions:
  status: ('A' for Active; 'I' for Inactive)
    1  A    between atoms: C_1  and  C_38
    2  A    between atoms: N_5  and  C_6
    3  A    between atoms: C_7  and  C_47
    4  A    between atoms: C_13  and  C_51
    5  A    between atoms: C_14  and  C_38
    6  A    between atoms: C_14  and  C_47
    7  A    between atoms: C_15  and  N_50
    8  A    between atoms: C_16  and  O_55
    9  A    between atoms: C_17  and  C_51
   10  A    between atoms: C_18  and  C_30
   11  A    between atoms: N_19  and  C_28
   12  A    between atoms: C_21  and  O_35
   13  A    between atoms: C_25  and  N_50
   14  A    between atoms: N_27  and  C_33
   15  A    between atoms: C_29  and  C_36
   16  A    between atoms: O_32  and  C_47
   17  A    between atoms: O_35  and  C_43
   18  A    between atoms: C_41  and  N_57
   19  A    between atoms: O_55  and  C_56
   20  A    between atoms: C_56  and  C_63
                            x       y       z     vdW  Elec       q    Type
                         _______ _______ _______ _____ _____    ______ ____

>  <TORSDO>
F 20

$$$$
=
 OpenBabel11042416043D

 64 70  0  0  1  0  0  0  0  0999 V2000
  196.3390  173.1730  143.8480 C   0  0  2  0  0  3  0  0  0  0  0  0
  196.2580  174.2400  141.2760 C   0  0  0  0  0  3  0  0  0  0  0  0
  194.2580  172.0720  143.4010 C   0  0  1  0  0  3  0  0  0  0  0  0
  194.9620  173.4090  143.5840 C   0  0  2  0  0  0  0  0  0  0  0  0
  195.9560  173.7740  142.4900 C   0  0  0  0  0  0  0  0  0  0  0  0
  195.2290  171.0180  143.6860 N   0  0  2  0  0  0  0  0  0  0  0  0
  196.5370  171.6760  143.7010 C   0  0  0  0  0  2  0  0  0  0  0  0
  194.1850  171.7900  139.6020 C   0  0  0  0  0  3  0  0  0  0  0  0
  192.3320  170.7660  138.2460 C   0  0  0  0  0  0  0  0  0  0  0  0
  193.4980  169.8860  140.9660 C   0  0  0  0  0  0  0  0  0  0  0  0
  195.6760  170.7240  141.2750 C   0  0  0  0  0  2  0  0  0  0  0  0
  194.6090  170.4950  140.2100 C   0  0  2  0  0  3  0  0  0  0  0  0
  195.1890  170.0580  142.5760 C   0  0  2  0  0  3  0  0  0  0  0  0
  191.9640  169.7360  139.0250 C   0  0  0  0  0  3  0  0  0  0  0  0
  193.1940  171.8850  138.7110 C   0  0  0  0  0  3  0  0  0  0  0  0
  192.3510  169.4870  140.4270 C   0  0  0  0  0  3  0  0  0  0  0  0
  193.8250  169.6230  142.3150 N   0  0  0  0  0  2  0  0  0  0  0  0
  191.8360  170.7630  136.9350 O   0  0  0  0  0  0  0  0  0  0  0  0
  189.6270  171.6220  137.4860 N   0  0  0  0  0  2  0  0  0  0  0  0
  190.0600  170.5840  135.4530 O   0  0  0  0  0  0  0  0  0  0  0  0
  190.4970  170.9540  136.5760 C   0  0  0  0  0  0  0  0  0  0  0  0
  189.3140  173.0350  137.3540 C   0  0  2  0  0  3  0  0  0  0  0  0
  190.4000  173.7210  136.5740 C   0  0  2  0  0  3  0  0  0  0  0  0
  189.4560  173.6900  138.7030 C   0  0  0  0  0  2  0  0  0  0  0  0
  190.8180  173.9260  138.9220 O   0  0  0  0  0  0  0  0  0  0  0  0
  191.3970  174.1160  137.6490 C   0  0  0  0  0  2  0  0  0  0  0  0
  189.8890  174.8830  135.9890 O   0  0  0  0  0  0  0  0  0  0  0  0
  188.5170  174.6510  135.8350 C   0  0  0  0  0  2  0  0  0  0  0  0
  186.6130  175.9280  136.7710 C   0  0  0  0  0  1  0  0  0  0  0  0
  187.7750  175.9770  135.8010 C   0  0  2  0  0  3  0  0  0  0  0  0
  187.2970  176.2280  134.5140 O   0  0  0  0  0  1  0  0  0  0  0  0
  194.3580  174.5520  144.3520 C   0  0  0  0  0  0  0  0  0  0  0  0
  194.4780  175.9480  143.8420 C   0  0  0  0  0  1  0  0  0  0  0  0
  193.7950  174.3460  145.4160 O   0  0  0  0  0  0  0  0  0  0  0  0
  197.6730  174.3110  140.7810 C   0  0  2  0  0  3  0  0  0  0  0  0
  197.9410  175.5720  140.2430 O   0  0  0  0  0  0  0  0  0  0  0  0
  197.1100  176.3830  140.8670 O   0  0  0  0  0  1  0  0  0  0  0  0
  197.9320  173.2240  139.7450 C   0  0  0  0  0  2  0  0  0  0  0  0
  197.5840  173.7010  138.3410 C   0  0  0  0  0  2  0  0  0  0  0  0
  196.1000  174.0180  138.2240 C   0  0  0  0  0  2  0  0  0  0  0  0
  195.6630  174.0020  136.7710 C   0  0  0  0  0  1  0  0  0  0  0  0
  193.1140  171.9380  144.2940 N   0  0  0  0  0  2  0  0  0  0  0  0
  190.6740  171.7020  144.3080 C   0  0  0  0  0  2  0  0  0  0  0  0
  190.8340  173.7520  142.4420 C   0  0  0  0  0  2  0  0  0  0  0  0
  191.9020  172.6670  142.2890 C   0  0  0  0  0  2  0  0  0  0  0  0
  191.9500  171.6700  143.4600 C   0  0  1  0  0  3  0  0  0  0  0  0
  190.7620  174.2380  143.8870 C   0  0  2  0  0  3  0  0  0  0  0  0
  190.3610  173.1060  144.8480 C   0  0  0  0  0  2  0  0  0  0  0  0
  190.2070  176.7050  143.9330 C   0  0  0  0  0  0  0  0  0  0  0  0
  191.4230  177.0180  143.8320 O   0  0  0  0  0  0  0  0  0  0  0  0
  189.8100  175.3340  143.9860 N   0  0  0  0  0  2  0  0  0  0  0  0
  189.1660  177.7680  143.9980 C   0  0  0  0  0  2  0  0  0  0  0  0
  187.9100  177.4960  146.0990 C   0  0  0  0  0  2  0  0  0  0  0  0
  187.8690  177.2300  144.6010 C   0  0  1  0  0  3  0  0  0  0  0  0
  186.7020  177.9140  144.0110 N   0  0  0  0  0  0  0  0  0  0  0  0
  185.4930  177.1150  146.0640 C   0  0  0  0  0  0  0  0  0  0  0  0
  186.7230  177.0230  146.7110 O   0  0  0  0  0  0  0  0  0  0  0  0
  185.4110  177.5010  144.6060 C   0  0  1  0  0  3  0  0  0  0  0  0
  184.4450  176.7990  146.6900 O   0  0  0  0  0  0  0  0  0  0  0  0
  183.7590  178.6620  143.3250 O   0  0  0  0  0  0  0  0  0  0  0  0
  184.3910  178.5840  144.4110 C   0  0  0  0  0  0  0  0  0  0  0  0
  184.1390  179.5030  145.4260 O   0  0  0  0  0  1  0  0  0  0  0  0
  186.6380  177.6220  142.5710 C   0  0  0  0  0  2  0  0  0  0  0  0
  186.7680  178.7920  141.8100 O   0  0  0  0  0  1  0  0  0  0  0  0
  1  7  1  6  0  0  0
  2  5  2  0  0  0  0
  3  4  1  0  0  0  0
  3  6  1  0  0  0  0
  3 42  1  1  0  0  0
  4  1  1  0  0  0  0
  4 32  1  1  0  0  0
  5  4  1  0  0  0  0
  5  1  1  0  0  0  0
  6  7  1  6  0  0  0
  9 15  1  0  0  0  0
  9 14  2  0  0  0  0
 10 17  1  0  0  0  0
 12  8  1  1  0  0  0
 12 10  1  0  0  0  0
 12 11  1  0  0  0  0
 13 11  1  6  0  0  0
 13  6  1  0  0  0  0
 14 16  1  0  0  0  0
 15  8  2  0  0  0  0
 16 10  2  0  0  0  0
 17 13  1  0  0  0  0
 18  9  1  0  0  0  0
 20 21  2  0  0  0  0
 21 18  1  0  0  0  0
 21 19  1  0  0  0  0
 22 19  1  1  0  0  0
 22 24  1  0  0  0  0
 23 27  1  1  0  0  0
 23 22  1  0  0  0  0
 23 26  1  0  0  0  0
 24 25  1  0  0  0  0
 26 25  1  0  0  0  0
 28 27  1  0  0  0  0
 30 28  1  0  0  0  0
 30 29  1  1  0  0  0
 31 30  1  0  0  0  0
 32 34  2  0  0  0  0
 33 32  1  0  0  0  0
 35 38  1  6  0  0  0
 35  2  1  0  0  0  0
 36 35  1  0  0  0  0
 36 37  1  0  0  0  0
 39 38  1  0  0  0  0
 40 39  1  0  0  0  0
 41 40  1  0  0  0  0
 43 48  1  0  0  0  0
 44 47  1  0  0  0  0
 45 44  1  0  0  0  0
 45 46  1  0  0  0  0
 46 42  1  1  0  0  0
 46 43  1  0  0  0  0
 47 51  1  6  0  0  0
 47 48  1  0  0  0  0
 49 51  1  0  0  0  0
 49 52  1  0  0  0  0
 50 49  2  0  0  0  0
 53 57  1  0  0  0  0
 54 52  1  6  0  0  0
 54 53  1  0  0  0  0
 55 54  1  0  0  0  0
 55 58  1  0  0  0  0
 56 59  2  0  0  0  0
 56 57  1  0  0  0  0
 58 61  1  1  0  0  0
 58 56  1  0  0  0  0
 60 61  2  0  0  0  0
 61 62  1  0  0  0  0
 63 55  1  0  0  0  0
 64 63  1  0  0  0  0
M  END
>  <MODEL>
5

>  <REMARK>
 VINA RESULT:      -5.0      2.826      9.193
  Name = 
  20 active torsions:
  status: ('A' for Active; 'I' for Inactive)
    1  A    between atoms: C_1  and  C_38
    2  A    between atoms: N_5  and  C_6
    3  A    between atoms: C_7  and  C_47
    4  A    between atoms: C_13  and  C_51
    5  A    between atoms: C_14  and  C_38
    6  A    between atoms: C_14  and  C_47
    7  A    between atoms: C_15  and  N_50
    8  A    between atoms: C_16  and  O_55
    9  A    between atoms: C_17  and  C_51
   10  A    between atoms: C_18  and  C_30
   11  A    between atoms: N_19  and  C_28
   12  A    between atoms: C_21  and  O_35
   13  A    between atoms: C_25  and  N_50
   14  A    between atoms: N_27  and  C_33
   15  A    between atoms: C_29  and  C_36
   16  A    between atoms: O_32  and  C_47
   17  A    between atoms: O_35  and  C_43
   18  A    between atoms: C_41  and  N_57
   19  A    between atoms: O_55  and  C_56
   20  A    between atoms: C_56  and  C_63
                            x       y       z     vdW  Elec       q    Type
                         _______ _______ _______ _____ _____    ______ ____

>  <TORSDO>
F 20

$$$$
=
 OpenBabel11042416043D

 64 70  0  0  1  0  0  0  0  0999 V2000
  195.9540  175.1440  143.5510 C   0  0  2  0  0  3  0  0  0  0  0  0
  195.7110  172.3780  143.7800 C   0  0  0  0  0  3  0  0  0  0  0  0
  194.6820  175.0370  141.5230 C   0  0  1  0  0  3  0  0  0  0  0  0
  195.9810  174.6540  142.2160 C   0  0  2  0  0  0  0  0  0  0  0  0
  195.8440  173.6290  143.3350 C   0  0  0  0  0  0  0  0  0  0  0  0
  193.9210  175.8800  142.4430 N   0  0  2  0  0  0  0  0  0  0  0  0
  194.5680  175.7290  143.7480 C   0  0  0  0  0  2  0  0  0  0  0  0
  190.6240  177.4400  144.6950 C   0  0  0  0  0  3  0  0  0  0  0  0
  189.2960  176.3070  146.5030 C   0  0  0  0  0  0  0  0  0  0  0  0
  191.2840  175.1000  144.4710 C   0  0  0  0  0  0  0  0  0  0  0  0
  191.5330  176.4920  142.5890 C   0  0  0  0  0  2  0  0  0  0  0  0
  190.6400  176.2450  143.8000 C   0  0  2  0  0  3  0  0  0  0  0  0
  192.5570  175.3430  142.5210 C   0  0  2  0  0  3  0  0  0  0  0  0
  189.6900  175.0290  146.3680 C   0  0  0  0  0  3  0  0  0  0  0  0
  189.9990  177.4560  145.8750 C   0  0  0  0  0  3  0  0  0  0  0  0
  190.8230  174.5180  145.5730 C   0  0  0  0  0  3  0  0  0  0  0  0
  192.3710  174.5720  143.7420 N   0  0  0  0  0  2  0  0  0  0  0  0
  188.1710  176.5290  147.3090 O   0  0  0  0  0  0  0  0  0  0  0  0
  187.1150  178.1280  145.8090 N   0  0  0  0  0  2  0  0  0  0  0  0
  186.3920  177.8490  147.9990 O   0  0  0  0  0  0  0  0  0  0  0  0
  187.2050  177.5190  147.0940 C   0  0  0  0  0  0  0  0  0  0  0  0
  186.1350  177.7010  144.8240 C   0  0  2  0  0  3  0  0  0  0  0  0
  185.7760  178.8590  143.9350 C   0  0  2  0  0  3  0  0  0  0  0  0
  184.8260  177.4450  145.5240 C   0  0  0  0  0  2  0  0  0  0  0  0
  184.2030  178.6820  145.7310 O   0  0  0  0  0  0  0  0  0  0  0  0
  184.6320  179.5220  144.6820 C   0  0  0  0  0  2  0  0  0  0  0  0
  185.2950  178.3760  142.7150 O   0  0  0  0  0  0  0  0  0  0  0  0
  186.3530  178.5230  141.8110 C   0  0  0  0  0  2  0  0  0  0  0  0
  187.5330  176.3460  141.8630 C   0  0  0  0  0  1  0  0  0  0  0  0
  186.5770  177.2150  141.0700 C   0  0  2  0  0  3  0  0  0  0  0  0
  187.1140  177.4640  139.8070 O   0  0  0  0  0  1  0  0  0  0  0  0
  197.3230  174.7360  141.5410 C   0  0  0  0  0  0  0  0  0  0  0  0
  197.9400  173.5180  140.9420 C   0  0  0  0  0  1  0  0  0  0  0  0
  197.9300  175.7950  141.5100 O   0  0  0  0  0  0  0  0  0  0  0  0
  195.6070  172.0620  145.2430 C   0  0  2  0  0  3  0  0  0  0  0  0
  196.8720  171.8060  145.7790 O   0  0  0  0  0  0  0  0  0  0  0  0
  197.0550  172.7580  146.6700 O   0  0  0  0  0  1  0  0  0  0  0  0
  194.6810  170.8720  145.4690 C   0  0  0  0  0  2  0  0  0  0  0  0
  194.3810  170.1460  144.1640 C   0  0  0  0  0  2  0  0  0  0  0  0
  192.8810  170.0180  143.9430 C   0  0  0  0  0  2  0  0  0  0  0  0
  192.5900  169.1040  142.7670 C   0  0  0  0  0  1  0  0  0  0  0  0
  194.9240  175.7610  140.2830 N   0  0  0  0  0  2  0  0  0  0  0  0
  194.4940  173.5110  139.4110 C   0  0  0  0  0  2  0  0  0  0  0  0
  194.0990  174.9050  137.0420 C   0  0  0  0  0  2  0  0  0  0  0  0
  195.2790  175.3990  137.8820 C   0  0  0  0  0  2  0  0  0  0  0  0
  195.3430  174.7820  139.2900 C   0  0  1  0  0  3  0  0  0  0  0  0
  192.8430  174.7760  137.8990 C   0  0  2  0  0  3  0  0  0  0  0  0
  193.0260  173.7460  139.0250 C   0  0  0  0  0  2  0  0  0  0  0  0
  191.3450  175.1350  135.8920 C   0  0  0  0  0  0  0  0  0  0  0  0
  191.9730  176.1780  135.5640 O   0  0  0  0  0  0  0  0  0  0  0  0
  191.7160  174.3990  137.0590 N   0  0  0  0  0  2  0  0  0  0  0  0
  190.2050  174.6580  135.0610 C   0  0  0  0  0  2  0  0  0  0  0  0
  190.9190  172.3150  135.3170 C   0  0  0  0  0  2  0  0  0  0  0  0
  189.7470  173.2700  135.5040 C   0  0  1  0  0  3  0  0  0  0  0  0
  189.3480  173.2860  136.9250 N   0  0  0  0  0  0  0  0  0  0  0  0
  189.7080  170.8010  136.8110 C   0  0  0  0  0  0  0  0  0  0  0  0
  190.5520  171.0080  135.7210 O   0  0  0  0  0  0  0  0  0  0  0  0
  188.9680  171.9550  137.4480 C   0  0  1  0  0  3  0  0  0  0  0  0
  189.5050  169.6250  137.2160 O   0  0  0  0  0  0  0  0  0  0  0  0
  190.2910  171.7650  139.4310 O   0  0  0  0  0  0  0  0  0  0  0  0
  189.1430  171.9240  138.9380 C   0  0  0  0  0  0  0  0  0  0  0  0
  188.0440  172.0710  139.7780 O   0  0  0  0  0  1  0  0  0  0  0  0
  188.1900  174.1750  137.0980 C   0  0  0  0  0  2  0  0  0  0  0  0
  188.2310  174.8260  138.3400 O   0  0  0  0  0  1  0  0  0  0  0  0
  1  7  1  6  0  0  0
  3 42  1  6  0  0  0
  3  4  1  0  0  0  0
  3  6  1  0  0  0  0
  4 32  1  6  0  0  0
  4  5  1  0  0  0  0
  4  1  1  0  0  0  0
  5  1  1  0  0  0  0
  5  2  2  0  0  0  0
  6 13  1  0  0  0  0
  6  7  1  1  0  0  0
  8 15  2  0  0  0  0
  9 18  1  0  0  0  0
 10 16  2  0  0  0  0
 12 11  1  6  0  0  0
 12 10  1  0  0  0  0
 12  8  1  0  0  0  0
 13 11  1  1  0  0  0
 13 17  1  0  0  0  0
 14  9  2  0  0  0  0
 15  9  1  0  0  0  0
 16 14  1  0  0  0  0
 17 10  1  0  0  0  0
 19 21  1  0  0  0  0
 21 18  1  0  0  0  0
 21 20  2  0  0  0  0
 22 24  1  0  0  0  0
 22 19  1  1  0  0  0
 23 27  1  6  0  0  0
 23 26  1  0  0  0  0
 23 22  1  0  0  0  0
 24 25  1  0  0  0  0
 26 25  1  0  0  0  0
 28 27  1  0  0  0  0
 30 28  1  0  0  0  0
 30 29  1  1  0  0  0
 31 30  1  0  0  0  0
 33 32  1  0  0  0  0
 34 32  2  0  0  0  0
 35  2  1  6  0  0  0
 35 38  1  0  0  0  0
 35 36  1  0  0  0  0
 36 37  1  0  0  0  0
 39 38  1  0  0  0  0
 40 39  1  0  0  0  0
 41 40  1  0  0  0  0
 44 45  1  0  0  0  0
 44 47  1  0  0  0  0
 45 46  1  0  0  0  0
 46 43  1  0  0  0  0
 46 42  1  1  0  0  0
 47 51  1  6  0  0  0
 47 48  1  0  0  0  0
 48 43  1  0  0  0  0
 49 51  1  0  0  0  0
 50 49  2  0  0  0  0
 52 49  1  0  0  0  0
 53 54  1  0  0  0  0
 53 57  1  0  0  0  0
 54 52  1  1  0  0  0
 54 55  1  0  0  0  0
 55 63  1  0  0  0  0
 55 58  1  0  0  0  0
 56 59  2  0  0  0  0
 56 58  1  0  0  0  0
 57 56  1  0  0  0  0
 58 61  1  1  0  0  0
 61 60  2  0  0  0  0
 61 62  1  0  0  0  0
 63 64  1  0  0  0  0
M  END
>  <MODEL>
6

>  <REMARK>
 VINA RESULT:      -4.9      2.450      4.069
  Name = 
  20 active torsions:
  status: ('A' for Active; 'I' for Inactive)
    1  A    between atoms: C_1  and  C_38
    2  A    between atoms: N_5  and  C_6
    3  A    between atoms: C_7  and  C_47
    4  A    between atoms: C_13  and  C_51
    5  A    between atoms: C_14  and  C_38
    6  A    between atoms: C_14  and  C_47
    7  A    between atoms: C_15  and  N_50
    8  A    between atoms: C_16  and  O_55
    9  A    between atoms: C_17  and  C_51
   10  A    between atoms: C_18  and  C_30
   11  A    between atoms: N_19  and  C_28
   12  A    between atoms: C_21  and  O_35
   13  A    between atoms: C_25  and  N_50
   14  A    between atoms: N_27  and  C_33
   15  A    between atoms: C_29  and  C_36
   16  A    between atoms: O_32  and  C_47
   17  A    between atoms: O_35  and  C_43
   18  A    between atoms: C_41  and  N_57
   19  A    between atoms: O_55  and  C_56
   20  A    between atoms: C_56  and  C_63
                            x       y       z     vdW  Elec       q    Type
                         _______ _______ _______ _____ _____    ______ ____

>  <TORSDO>
F 20

$$$$
=
 OpenBabel11042416043D

 64 70  0  0  1  0  0  0  0  0999 V2000
  188.6370  177.6330  143.8190 C   0  0  2  0  0  3  0  0  0  0  0  0
  186.5850  176.4710  145.3020 C   0  0  0  0  0  3  0  0  0  0  0  0
  189.7100  175.4930  143.7210 C   0  0  1  0  0  3  0  0  0  0  0  0
  189.2680  176.6400  144.6170 C   0  0  2  0  0  0  0  0  0  0  0  0
  187.7620  176.8050  144.7680 C   0  0  0  0  0  0  0  0  0  0  0  0
  189.4350  175.8800  142.3380 N   0  0  2  0  0  0  0  0  0  0  0  0
  188.5590  177.0510  142.4210 C   0  0  0  0  0  2  0  0  0  0  0  0
  190.8150  173.2940  139.2110 C   0  0  0  0  0  3  0  0  0  0  0  0
  189.8290  172.9490  136.9250 C   0  0  0  0  0  0  0  0  0  0  0  0
  188.6160  174.3360  139.4030 C   0  0  0  0  0  0  0  0  0  0  0  0
  189.6590  173.6130  141.3840 C   0  0  0  0  0  2  0  0  0  0  0  0
  189.4950  173.2660  139.9090 C   0  0  2  0  0  3  0  0  0  0  0  0
  188.7030  174.7790  141.7000 C   0  0  2  0  0  3  0  0  0  0  0  0
  188.6310  173.5440  137.0540 C   0  0  0  0  0  3  0  0  0  0  0  0
  190.9430  173.1220  137.8930 C   0  0  0  0  0  3  0  0  0  0  0  0
  188.1770  174.4200  138.1510 C   0  0  0  0  0  3  0  0  0  0  0  0
  188.1490  175.1970  140.4200 N   0  0  0  0  0  2  0  0  0  0  0  0
  190.0060  172.1480  135.7880 O   0  0  0  0  0  0  0  0  0  0  0  0
  191.7620  170.6450  135.0260 N   0  0  0  0  0  2  0  0  0  0  0  0
  190.0810  169.9290  136.4610 O   0  0  0  0  0  0  0  0  0  0  0  0
  190.5750  170.8690  135.7810 C   0  0  0  0  0  0  0  0  0  0  0  0
  193.0780  170.6520  135.6420 C   0  0  2  0  0  3  0  0  0  0  0  0
  194.0740  170.0230  134.7100 C   0  0  2  0  0  3  0  0  0  0  0  0
  193.0800  169.6710  136.7860 C   0  0  0  0  0  2  0  0  0  0  0  0
  193.2450  168.3890  136.2490 O   0  0  0  0  0  0  0  0  0  0  0  0
  193.9930  168.5480  135.0640 C   0  0  0  0  0  2  0  0  0  0  0  0
  195.3560  170.4880  135.0180 O   0  0  0  0  0  0  0  0  0  0  0  0
  195.4110  171.7940  134.5160 C   0  0  0  0  0  2  0  0  0  0  0  0
  196.7390  171.8350  136.6060 C   0  0  0  0  0  1  0  0  0  0  0  0
  196.1670  172.6830  135.4890 C   0  0  2  0  0  3  0  0  0  0  0  0
  195.3100  173.6440  136.0270 O   0  0  0  0  0  1  0  0  0  0  0  0
  190.1180  177.1760  145.7370 C   0  0  0  0  0  0  0  0  0  0  0  0
  191.4470  177.7870  145.4470 C   0  0  0  0  0  1  0  0  0  0  0  0
  189.7380  177.0810  146.8940 O   0  0  0  0  0  0  0  0  0  0  0  0
  185.3110  177.1590  144.9090 C   0  0  2  0  0  3  0  0  0  0  0  0
  185.5650  178.1580  143.9650 O   0  0  0  0  0  0  0  0  0  0  0  0
  184.6790  177.9490  143.0130 O   0  0  0  0  0  1  0  0  0  0  0  0
  184.6210  177.7480  146.1350 C   0  0  0  0  0  2  0  0  0  0  0  0
  185.5600  177.7930  147.3330 C   0  0  0  0  0  2  0  0  0  0  0  0
  186.3670  179.0830  147.3460 C   0  0  0  0  0  2  0  0  0  0  0  0
  186.6790  179.5030  148.7700 C   0  0  0  0  0  1  0  0  0  0  0  0
  191.1290  175.2010  143.8750 N   0  0  0  0  0  2  0  0  0  0  0  0
  191.4330  172.7800  144.1040 C   0  0  0  0  0  2  0  0  0  0  0  0
  193.6360  173.5700  145.5980 C   0  0  0  0  0  2  0  0  0  0  0  0
  192.3750  174.4060  145.8320 C   0  0  0  0  0  2  0  0  0  0  0  0
  191.2400  174.1130  144.8360 C   0  0  1  0  0  3  0  0  0  0  0  0
  193.9210  173.4300  144.1060 C   0  0  2  0  0  3  0  0  0  0  0  0
  192.7820  172.6980  143.3760 C   0  0  0  0  0  2  0  0  0  0  0  0
  195.9530  172.8350  142.7220 C   0  0  0  0  0  0  0  0  0  0  0  0
  195.5550  173.5500  141.7630 O   0  0  0  0  0  0  0  0  0  0  0  0
  195.1740  172.7170  143.9130 N   0  0  0  0  0  2  0  0  0  0  0  0
  197.2470  172.1050  142.6210 C   0  0  0  0  0  2  0  0  0  0  0  0
  197.4560  171.4660  144.9900 C   0  0  0  0  0  2  0  0  0  0  0  0
  197.2820  170.9170  143.5810 C   0  0  1  0  0  3  0  0  0  0  0  0
  196.0220  170.1520  143.5020 N   0  0  0  0  0  0  0  0  0  0  0  0
  196.6910  169.2720  145.7590 C   0  0  0  0  0  0  0  0  0  0  0  0
  197.4870  170.4040  145.9270 O   0  0  0  0  0  0  0  0  0  0  0  0
  195.9500  169.0300  144.4650 C   0  0  1  0  0  3  0  0  0  0  0  0
  196.6530  168.4070  146.6750 O   0  0  0  0  0  0  0  0  0  0  0  0
  194.0450  168.8560  145.8990 O   0  0  0  0  0  1  0  0  0  0  0  0
  194.5160  168.6890  144.7430 C   0  0  0  0  0  0  0  0  0  0  0  0
  193.7030  168.1890  143.7300 O   0  0  0  0  0  0  0  0  0  0  0  0
  195.8750  169.5860  142.1530 C   0  0  0  0  0  2  0  0  0  0  0  0
  194.6520  169.9570  141.5780 O   0  0  0  0  0  1  0  0  0  0  0  0
  1  7  1  6  0  0  0
  1  4  1  0  0  0  0
  1  5  1  0  0  0  0
  3 42  1  6  0  0  0
  3  4  1  0  0  0  0
  4  5  1  0  0  0  0
  4 32  1  1  0  0  0
  5  2  2  0  0  0  0
  6  7  1  1  0  0  0
  6  3  1  0  0  0  0
  9 14  2  0  0  0  0
  9 15  1  0  0  0  0
 10 12  1  0  0  0  0
 10 17  1  0  0  0  0
 12  8  1  6  0  0  0
 12 11  1  0  0  0  0
 13 11  1  6  0  0  0
 13  6  1  0  0  0  0
 14 16  1  0  0  0  0
 15  8  2  0  0  0  0
 16 10  2  0  0  0  0
 17 13  1  0  0  0  0
 18  9  1  0  0  0  0
 19 21  1  0  0  0  0
 21 18  1  0  0  0  0
 21 20  2  0  0  0  0
 22 19  1  6  0  0  0
 22 24  1  0  0  0  0
 23 27  1  1  0  0  0
 23 26  1  0  0  0  0
 23 22  1  0  0  0  0
 25 24  1  0  0  0  0
 26 25  1  0  0  0  0
 28 27  1  0  0  0  0
 28 30  1  0  0  0  0
 30 31  1  0  0  0  0
 30 29  1  1  0  0  0
 32 34  2  0  0  0  0
 33 32  1  0  0  0  0
 35  2  1  1  0  0  0
 35 38  1  0  0  0  0
 36 35  1  0  0  0  0
 37 36  1  0  0  0  0
 38 39  1  0  0  0  0
 39 40  1  0  0  0  0
 40 41  1  0  0  0  0
 43 46  1  0  0  0  0
 44 45  1  0  0  0  0
 46 42  1  6  0  0  0
 46 45  1  0  0  0  0
 47 51  1  1  0  0  0
 47 44  1  0  0  0  0
 48 43  1  0  0  0  0
 48 47  1  0  0  0  0
 49 51  1  0  0  0  0
 50 49  2  0  0  0  0
 52 49  1  0  0  0  0
 53 57  1  0  0  0  0
 54 52  1  6  0  0  0
 54 53  1  0  0  0  0
 55 54  1  0  0  0  0
 55 58  1  0  0  0  0
 56 57  1  0  0  0  0
 56 59  2  0  0  0  0
 58 61  1  1  0  0  0
 58 56  1  0  0  0  0
 61 60  1  0  0  0  0
 62 61  2  0  0  0  0
 63 55  1  0  0  0  0
 64 63  1  0  0  0  0
M  END
>  <MODEL>
7

>  <REMARK>
 VINA RESULT:      -4.1      2.445      9.361
  Name = 
  20 active torsions:
  status: ('A' for Active; 'I' for Inactive)
    1  A    between atoms: C_1  and  C_38
    2  A    between atoms: N_5  and  C_6
    3  A    between atoms: C_7  and  C_47
    4  A    between atoms: C_13  and  C_51
    5  A    between atoms: C_14  and  C_38
    6  A    between atoms: C_14  and  C_47
    7  A    between atoms: C_15  and  N_50
    8  A    between atoms: C_16  and  O_55
    9  A    between atoms: C_17  and  C_51
   10  A    between atoms: C_18  and  C_30
   11  A    between atoms: N_19  and  C_28
   12  A    between atoms: C_21  and  O_35
   13  A    between atoms: C_25  and  N_50
   14  A    between atoms: N_27  and  C_33
   15  A    between atoms: C_29  and  C_36
   16  A    between atoms: O_32  and  C_47
   17  A    between atoms: O_35  and  C_43
   18  A    between atoms: C_41  and  N_57
   19  A    between atoms: O_55  and  C_56
   20  A    between atoms: C_56  and  C_63
                            x       y       z     vdW  Elec       q    Type
                         _______ _______ _______ _____ _____    ______ ____

>  <TORSDO>
F 20

$$$$
=
 OpenBabel11042416043D

 64 70  0  0  1  0  0  0  0  0999 V2000
  187.2830  176.5520  145.1340 C   0  0  2  0  0  3  0  0  0  0  0  0
  189.4300  178.2890  144.7700 C   0  0  0  0  0  3  0  0  0  0  0  0
  186.8450  176.6820  142.7810 C   0  0  1  0  0  3  0  0  0  0  0  0
  186.8750  177.4400  144.1010 C   0  0  2  0  0  0  0  0  0  0  0  0
  188.2600  177.6510  144.6980 C   0  0  0  0  0  0  0  0  0  0  0  0
  187.1280  175.2780  143.0710 N   0  0  2  0  0  0  0  0  0  0  0  0
  187.6420  175.2510  144.4420 C   0  0  0  0  0  2  0  0  0  0  0  0
  190.0820  172.2490  143.7620 C   0  0  0  0  0  3  0  0  0  0  0  0
  192.5850  172.4800  143.7440 C   0  0  0  0  0  0  0  0  0  0  0  0
  190.4200  174.4340  142.7250 C   0  0  0  0  0  0  0  0  0  0  0  0
  188.3990  173.3140  142.2800 C   0  0  0  0  0  2  0  0  0  0  0  0
  189.8830  173.0740  142.5330 C   0  0  2  0  0  3  0  0  0  0  0  0
  188.1860  174.8340  142.1550 C   0  0  2  0  0  3  0  0  0  0  0  0
  192.7410  173.6930  143.1860 C   0  0  0  0  0  3  0  0  0  0  0  0
  191.2880  171.9740  144.2650 C   0  0  0  0  0  3  0  0  0  0  0  0
  191.7010  174.7120  142.9470 C   0  0  0  0  0  3  0  0  0  0  0  0
  189.4610  175.4450  142.5000 N   0  0  0  0  0  2  0  0  0  0  0  0
  193.7370  171.6890  143.8440 O   0  0  0  0  0  0  0  0  0  0  0  0
  194.6960  171.9270  141.6200 N   0  0  0  0  0  2  0  0  0  0  0  0
  194.8420  169.9330  142.8050 O   0  0  0  0  0  0  0  0  0  0  0  0
  194.4250  171.1230  142.7650 C   0  0  0  0  0  0  0  0  0  0  0  0
  195.9840  172.5710  141.4210 C   0  0  2  0  0  3  0  0  0  0  0  0
  195.7750  173.9720  140.9200 C   0  0  2  0  0  3  0  0  0  0  0  0
  196.6670  171.9300  140.2410 C   0  0  0  0  0  2  0  0  0  0  0  0
  196.1180  172.4820  139.0780 O   0  0  0  0  0  0  0  0  0  0  0  0
  195.7130  173.7910  139.4130 C   0  0  0  0  0  2  0  0  0  0  0  0
  196.8950  174.7480  141.2320 O   0  0  0  0  0  0  0  0  0  0  0  0
  196.9140  174.8330  142.6290 C   0  0  0  0  0  2  0  0  0  0  0  0
  195.4530  176.3270  143.9570 C   0  0  0  0  0  1  0  0  0  0  0  0
  196.6700  176.2700  143.0570 C   0  0  2  0  0  3  0  0  0  0  0  0
  196.4590  177.0760  141.9380 O   0  0  0  0  0  1  0  0  0  0  0  0
  185.8140  178.4290  144.4990 C   0  0  0  0  0  0  0  0  0  0  0  0
  185.9050  179.8500  144.0570 C   0  0  0  0  0  1  0  0  0  0  0  0
  184.8890  178.0790  145.2170 O   0  0  0  0  0  0  0  0  0  0  0  0
  190.5000  177.8790  145.7390 C   0  0  2  0  0  3  0  0  0  0  0  0
  191.6780  177.5580  145.0600 O   0  0  0  0  0  0  0  0  0  0  0  0
  191.5910  178.2090  143.9180 O   0  0  0  0  0  1  0  0  0  0  0  0
  190.0330  176.6990  146.5830 C   0  0  0  0  0  2  0  0  0  0  0  0
  190.7900  175.4260  146.2250 C   0  0  0  0  0  2  0  0  0  0  0  0
  190.2110  174.2230  146.9560 C   0  0  0  0  0  2  0  0  0  0  0  0
  188.8920  174.5820  147.6150 C   0  0  0  0  0  1  0  0  0  0  0  0
  185.5500  176.7950  142.1230 N   0  0  0  0  0  2  0  0  0  0  0  0
  187.1250  178.1200  140.7930 C   0  0  0  0  0  2  0  0  0  0  0  0
  185.6010  177.1400  138.6880 C   0  0  0  0  0  2  0  0  0  0  0  0
  184.7920  177.5600  139.9190 C   0  0  0  0  0  2  0  0  0  0  0  0
  185.6550  177.8750  141.1530 C   0  0  1  0  0  3  0  0  0  0  0  0
  186.7580  176.2290  139.0890 C   0  0  2  0  0  3  0  0  0  0  0  0
  187.7460  176.9430  140.0250 C   0  0  0  0  0  2  0  0  0  0  0  0
  188.1670  174.5320  137.8510 C   0  0  0  0  0  0  0  0  0  0  0  0
  188.2570  173.8040  138.8760 O   0  0  0  0  0  0  0  0  0  0  0  0
  187.4490  175.7660  137.8950 N   0  0  0  0  0  2  0  0  0  0  0  0
  188.8120  174.1100  136.5760 C   0  0  0  0  0  2  0  0  0  0  0  0
  189.2510  171.8050  135.8290 C   0  0  0  0  0  2  0  0  0  0  0  0
  189.7070  172.8910  136.7930 C   0  0  1  0  0  3  0  0  0  0  0  0
  191.1180  173.2310  136.5200 N   0  0  0  0  0  0  0  0  0  0  0  0
  191.4180  170.7490  136.2540 C   0  0  0  0  0  0  0  0  0  0  0  0
  190.0550  170.6480  135.9810 O   0  0  0  0  0  0  0  0  0  0  0  0
  192.0360  172.0760  136.6310 C   0  0  1  0  0  3  0  0  0  0  0  0
  192.1220  169.7040  136.2590 O   0  0  0  0  0  0  0  0  0  0  0  0
  193.3940  171.7790  134.6850 O   0  0  0  0  0  0  0  0  0  0  0  0
  193.2690  172.3250  135.8130 C   0  0  0  0  0  0  0  0  0  0  0  0
  194.2750  173.1570  136.2930 O   0  0  0  0  0  1  0  0  0  0  0  0
  191.5710  174.2490  137.4790 C   0  0  0  0  0  2  0  0  0  0  0  0
  191.6450  173.7260  138.7770 O   0  0  0  0  0  1  0  0  0  0  0  0
  1  7  1  6  0  0  0
  3 42  1  1  0  0  0
  3  6  1  0  0  0  0
  3  4  1  0  0  0  0
  4 32  1  1  0  0  0
  4  5  1  0  0  0  0
  4  1  1  0  0  0  0
  5  2  2  0  0  0  0
  5  1  1  0  0  0  0
  6  7  1  1  0  0  0
  8 15  2  0  0  0  0
  9 18  1  0  0  0  0
  9 15  1  0  0  0  0
 10 16  2  0  0  0  0
 12 11  1  1  0  0  0
 12 10  1  0  0  0  0
 12  8  1  0  0  0  0
 13 11  1  1  0  0  0
 13 17  1  0  0  0  0
 13  6  1  0  0  0  0
 14  9  2  0  0  0  0
 16 14  1  0  0  0  0
 17 10  1  0  0  0  0
 19 21  1  0  0  0  0
 21 20  2  0  0  0  0
 21 18  1  0  0  0  0
 22 19  1  6  0  0  0
 23 27  1  6  0  0  0
 23 22  1  0  0  0  0
 24 22  1  0  0  0  0
 25 26  1  0  0  0  0
 25 24  1  0  0  0  0
 26 23  1  0  0  0  0
 27 28  1  0  0  0  0
 28 30  1  0  0  0  0
 30 29  1  1  0  0  0
 31 30  1  0  0  0  0
 32 34  2  0  0  0  0
 33 32  1  0  0  0  0
 35  2  1  6  0  0  0
 35 38  1  0  0  0  0
 36 35  1  0  0  0  0
 37 36  1  0  0  0  0
 39 38  1  0  0  0  0
 39 40  1  0  0  0  0
 40 41  1  0  0  0  0
 43 46  1  0  0  0  0
 44 47  1  0  0  0  0
 44 45  1  0  0  0  0
 45 46  1  0  0  0  0
 46 42  1  1  0  0  0
 47 51  1  6  0  0  0
 47 48  1  0  0  0  0
 48 43  1  0  0  0  0
 49 51  1  0  0  0  0
 49 50  2  0  0  0  0
 52 49  1  0  0  0  0
 53 57  1  0  0  0  0
 53 54  1  0  0  0  0
 54 52  1  6  0  0  0
 55 58  1  0  0  0  0
 55 54  1  0  0  0  0
 55 63  1  0  0  0  0
 56 59  2  0  0  0  0
 56 58  1  0  0  0  0
 57 56  1  0  0  0  0
 58 61  1  6  0  0  0
 60 61  2  0  0  0  0
 61 62  1  0  0  0  0
 63 64  1  0  0  0  0
M  END
>  <MODEL>
8

>  <REMARK>
 VINA RESULT:      -4.0      2.682      8.339
  Name = 
  20 active torsions:
  status: ('A' for Active; 'I' for Inactive)
    1  A    between atoms: C_1  and  C_38
    2  A    between atoms: N_5  and  C_6
    3  A    between atoms: C_7  and  C_47
    4  A    between atoms: C_13  and  C_51
    5  A    between atoms: C_14  and  C_38
    6  A    between atoms: C_14  and  C_47
    7  A    between atoms: C_15  and  N_50
    8  A    between atoms: C_16  and  O_55
    9  A    between atoms: C_17  and  C_51
   10  A    between atoms: C_18  and  C_30
   11  A    between atoms: N_19  and  C_28
   12  A    between atoms: C_21  and  O_35
   13  A    between atoms: C_25  and  N_50
   14  A    between atoms: N_27  and  C_33
   15  A    between atoms: C_29  and  C_36
   16  A    between atoms: O_32  and  C_47
   17  A    between atoms: O_35  and  C_43
   18  A    between atoms: C_41  and  N_57
   19  A    between atoms: O_55  and  C_56
   20  A    between atoms: C_56  and  C_63
                            x       y       z     vdW  Elec       q    Type
                         _______ _______ _______ _____ _____    ______ ____

>  <TORSDO>
F 20

$$$$
=
 OpenBabel11042416043D

 64 70  0  0  1  0  0  0  0  0999 V2000
  191.0230  168.9820  142.3570 C   0  0  2  0  0  3  0  0  0  0  0  0
  193.6420  169.7850  142.8610 C   0  0  0  0  0  3  0  0  0  0  0  0
  190.9370  170.5660  140.5600 C   0  0  1  0  0  3  0  0  0  0  0  0
  191.0500  170.3740  142.0650 C   0  0  2  0  0  0  0  0  0  0  0  0
  192.3470  169.7340  142.5440 C   0  0  0  0  0  0  0  0  0  0  0  0
  190.7160  169.2510  139.9620 N   0  0  2  0  0  0  0  0  0  0  0  0
  191.0250  168.2790  141.0130 C   0  0  0  0  0  2  0  0  0  0  0  0
  193.6790  172.0570  138.6490 C   0  0  0  0  0  3  0  0  0  0  0  0
  193.9310  173.1110  136.3820 C   0  0  0  0  0  0  0  0  0  0  0  0
  192.2060  170.7020  137.2510 C   0  0  0  0  0  0  0  0  0  0  0  0
  193.0260  169.7340  139.2340 C   0  0  0  0  0  2  0  0  0  0  0  0
  193.4050  170.6920  138.1100 C   0  0  2  0  0  3  0  0  0  0  0  0
  191.6770  169.0890  138.8630 C   0  0  2  0  0  3  0  0  0  0  0  0
  193.1000  172.3600  135.6400 C   0  0  0  0  0  3  0  0  0  0  0  0
  193.9380  173.1080  137.8680 C   0  0  0  0  0  3  0  0  0  0  0  0
  192.0980  171.3890  136.1190 C   0  0  0  0  0  3  0  0  0  0  0  0
  191.2200  169.7810  137.6670 N   0  0  0  0  0  2  0  0  0  0  0  0
  194.8060  173.9500  135.6790 O   0  0  0  0  0  0  0  0  0  0  0  0
  196.1290  175.0900  137.3730 N   0  0  0  0  0  2  0  0  0  0  0  0
  197.1130  174.1230  135.5040 O   0  0  0  0  0  0  0  0  0  0  0  0
  196.0560  174.3830  136.1390 C   0  0  0  0  0  0  0  0  0  0  0  0
  196.4900  174.4300  138.6170 C   0  0  2  0  0  3  0  0  0  0  0  0
  195.7630  175.0780  139.7610 C   0  0  2  0  0  3  0  0  0  0  0  0
  197.9220  174.7650  138.9440 C   0  0  0  0  0  2  0  0  0  0  0  0
  197.9410  176.0410  139.5190 O   0  0  0  0  0  0  0  0  0  0  0  0
  196.7000  176.2020  140.1690 C   0  0  0  0  0  2  0  0  0  0  0  0
  195.6630  174.1720  140.8210 O   0  0  0  0  0  0  0  0  0  0  0  0
  196.9200  174.1750  141.4360 C   0  0  0  0  0  2  0  0  0  0  0  0
  196.7680  172.7630  143.4650 C   0  0  0  0  0  1  0  0  0  0  0  0
  196.7500  174.1860  142.9460 C   0  0  2  0  0  3  0  0  0  0  0  0
  195.5400  174.7910  143.2890 O   0  0  0  0  0  1  0  0  0  0  0  0
  190.3240  171.2420  143.0570 C   0  0  0  0  0  0  0  0  0  0  0  0
  191.0630  171.8740  144.1870 C   0  0  0  0  0  1  0  0  0  0  0  0
  189.1170  171.4050  142.9600 O   0  0  0  0  0  0  0  0  0  0  0  0
  194.3980  168.5710  143.3140 C   0  0  2  0  0  3  0  0  0  0  0  0
  194.8330  168.7280  144.6320 O   0  0  0  0  0  0  0  0  0  0  0  0
  194.7630  170.0260  144.8530 O   0  0  0  0  0  1  0  0  0  0  0  0
  195.5810  168.3020  142.3910 C   0  0  0  0  0  2  0  0  0  0  0  0
  195.9350  169.5340  141.5690 C   0  0  0  0  0  2  0  0  0  0  0  0
  196.4170  169.1430  140.1790 C   0  0  0  0  0  2  0  0  0  0  0  0
  197.2260  170.2670  139.5580 C   0  0  0  0  0  1  0  0  0  0  0  0
  189.8370  171.4540  140.2100 N   0  0  0  0  0  2  0  0  0  0  0  0
  189.3210  173.6400  139.2270 C   0  0  0  0  0  2  0  0  0  0  0  0
  190.9280  174.5410  141.3050 C   0  0  0  0  0  2  0  0  0  0  0  0
  191.4340  173.2730  140.6130 C   0  0  0  0  0  2  0  0  0  0  0  0
  190.4240  172.6550  139.6310 C   0  0  1  0  0  3  0  0  0  0  0  0
  189.4560  174.4000  141.6800 C   0  0  2  0  0  3  0  0  0  0  0  0
  188.5680  174.2090  140.4390 C   0  0  0  0  0  2  0  0  0  0  0  0
  189.7920  176.1360  143.4890 C   0  0  0  0  0  0  0  0  0  0  0  0
  190.8700  175.5960  143.8570 O   0  0  0  0  0  0  0  0  0  0  0  0
  189.0270  175.5770  142.4210 N   0  0  0  0  0  2  0  0  0  0  0  0
  189.3050  177.3680  144.1690 C   0  0  0  0  0  2  0  0  0  0  0  0
  187.9600  177.3410  146.2320 C   0  0  0  0  0  2  0  0  0  0  0  0
  187.8940  177.1680  144.7210 C   0  0  1  0  0  3  0  0  0  0  0  0
  186.9700  178.1680  144.1500 N   0  0  0  0  0  0  0  0  0  0  0  0
  185.5310  177.6240  146.1380 C   0  0  0  0  0  0  0  0  0  0  0  0
  186.6720  177.1740  146.7980 O   0  0  0  0  0  0  0  0  0  0  0  0
  185.5990  178.0880  144.7010 C   0  0  1  0  0  3  0  0  0  0  0  0
  184.4190  177.5700  146.7280 O   0  0  0  0  0  0  0  0  0  0  0  0
  183.6570  179.4580  144.4370 O   0  0  0  0  0  0  0  0  0  0  0  0
  184.9100  179.4120  144.5500 C   0  0  0  0  0  0  0  0  0  0  0  0
  185.6500  180.5910  144.5350 O   0  0  0  0  0  1  0  0  0  0  0  0
  186.8740  177.9730  142.6960 C   0  0  0  0  0  2  0  0  0  0  0  0
  186.2270  176.7690  142.3870 O   0  0  0  0  0  1  0  0  0  0  0  0
  1  7  1  6  0  0  0
  1  5  1  0  0  0  0
  2 35  1  0  0  0  0
  3 42  1  1  0  0  0
  3  4  1  0  0  0  0
  4  1  1  0  0  0  0
  4  5  1  0  0  0  0
  4 32  1  1  0  0  0
  5  2  2  0  0  0  0
  6  3  1  0  0  0  0
  6  7  1  1  0  0  0
  9 15  1  0  0  0  0
 10 17  1  0  0  0  0
 10 12  1  0  0  0  0
 12  8  1  1  0  0  0
 12 11  1  0  0  0  0
 13 11  1  1  0  0  0
 13  6  1  0  0  0  0
 14 16  1  0  0  0  0
 14  9  2  0  0  0  0
 15  8  2  0  0  0  0
 16 10  2  0  0  0  0
 17 13  1  0  0  0  0
 18 21  1  0  0  0  0
 18  9  1  0  0  0  0
 20 21  2  0  0  0  0
 21 19  1  0  0  0  0
 22 19  1  6  0  0  0
 22 24  1  0  0  0  0
 22 23  1  0  0  0  0
 23 26  1  0  0  0  0
 23 27  1  1  0  0  0
 24 25  1  0  0  0  0
 25 26  1  0  0  0  0
 27 28  1  0  0  0  0
 28 30  1  0  0  0  0
 30 31  1  0  0  0  0
 30 29  1  6  0  0  0
 32 33  1  0  0  0  0
 34 32  2  0  0  0  0
 35 38  1  6  0  0  0
 35 36  1  0  0  0  0
 36 37  1  0  0  0  0
 39 38  1  0  0  0  0
 40 39  1  0  0  0  0
 41 40  1  0  0  0  0
 43 46  1  0  0  0  0
 43 48  1  0  0  0  0
 44 47  1  0  0  0  0
 45 44  1  0  0  0  0
 46 42  1  1  0  0  0
 46 45  1  0  0  0  0
 47 51  1  6  0  0  0
 48 47  1  0  0  0  0
 49 50  2  0  0  0  0
 49 52  1  0  0  0  0
 51 49  1  0  0  0  0
 53 57  1  0  0  0  0
 54 52  1  6  0  0  0
 54 53  1  0  0  0  0
 55 58  1  0  0  0  0
 55 54  1  0  0  0  0
 56 59  2  0  0  0  0
 56 57  1  0  0  0  0
 58 61  1  1  0  0  0
 58 56  1  0  0  0  0
 60 61  2  0  0  0  0
 62 61  1  0  0  0  0
 63 55  1  0  0  0  0
 64 63  1  0  0  0  0
M  END
>  <MODEL>
9

>  <REMARK>
 VINA RESULT:      -3.9      2.376      9.990
  Name = 
  20 active torsions:
  status: ('A' for Active; 'I' for Inactive)
    1  A    between atoms: C_1  and  C_38
    2  A    between atoms: N_5  and  C_6
    3  A    between atoms: C_7  and  C_47
    4  A    between atoms: C_13  and  C_51
    5  A    between atoms: C_14  and  C_38
    6  A    between atoms: C_14  and  C_47
    7  A    between atoms: C_15  and  N_50
    8  A    between atoms: C_16  and  O_55
    9  A    between atoms: C_17  and  C_51
   10  A    between atoms: C_18  and  C_30
   11  A    between atoms: N_19  and  C_28
   12  A    between atoms: C_21  and  O_35
   13  A    between atoms: C_25  and  N_50
   14  A    between atoms: N_27  and  C_33
   15  A    between atoms: C_29  and  C_36
   16  A    between atoms: O_32  and  C_47
   17  A    between atoms: O_35  and  C_43
   18  A    between atoms: C_41  and  N_57
   19  A    between atoms: O_55  and  C_56
   20  A    between atoms: C_56  and  C_63
                            x       y       z     vdW  Elec       q    Type
                         _______ _______ _______ _____ _____    ______ ____

>  <TORSDO>
F 20

$$$$
