=
 OpenBabel11042416363D

 32 36  0  0  1  0  0  0  0  0999 V2000
  190.9330  176.0420  145.1580 C   0  0  1  0  0  3  0  0  0  0  0  0
  193.5580  174.6450  146.1880 C   0  0  0  0  0  2  0  0  0  0  0  0
  192.7550  175.6930  146.7910 N   0  0  0  0  0  0  0  0  0  0  0  0
  193.2420  176.4830  144.6890 C   0  0  0  0  0  2  0  0  0  0  0  0
  194.0660  175.2250  144.8790 C   0  0  1  0  0  3  0  0  0  0  0  0
  191.7330  175.1140  147.5650 N   0  0  0  0  0  1  0  0  0  0  0  0
  192.2290  176.4970  145.7390 N   0  0  0  0  0  0  0  0  0  0  0  0
  196.4310  174.4400  145.2480 C   0  0  0  0  0  2  0  0  0  0  0  0
  195.5760  175.5410  144.8110 C   0  0  1  0  0  3  0  0  0  0  0  0
  196.2400  174.6910  143.8060 N   0  0  0  0  0  0  0  0  0  0  0  0
  197.4080  175.4220  143.3300 C   0  0  2  0  0  3  0  0  0  0  0  0
  197.0360  176.8780  143.0880 C   0  0  0  0  0  1  0  0  0  0  0  0
  197.6510  175.5900  140.9550 F   0  0  0  0  0  0  0  0  0  0  0  0
  197.4090  173.5240  141.8550 F   0  0  0  0  0  0  0  0  0  0  0  0
  197.9410  174.7890  142.0450 C   0  0  0  0  0  3  0  0  0  0  0  0
  189.7150  176.9730  145.3930 C   0  0  2  0  0  3  0  0  0  0  0  0
  189.6880  177.4170  146.7290 O   0  0  0  0  0  0  0  0  0  0  0  0
  188.7290  176.4440  146.3740 C   0  0  1  0  0  3  0  0  0  0  0  0
  183.6510  179.0030  144.0580 C   0  0  0  0  0  3  0  0  0  0  0  0
  187.3980  177.0950  146.1920 C   0  0  0  0  0  0  0  0  0  0  0  0
  184.9620  178.3820  145.8660 C   0  0  0  0  0  0  0  0  0  0  0  0
  185.6560  177.9600  144.7700 C   0  0  2  0  0  3  0  0  0  0  0  0
  186.8890  177.3190  144.8960 C   0  0  0  0  0  3  0  0  0  0  0  0
  184.9220  178.3020  143.5270 C   0  0  0  0  0  3  0  0  0  0  0  0
  185.4450  178.1960  147.1620 C   0  0  0  0  0  3  0  0  0  0  0  0
  183.7530  179.0240  145.5190 N   0  0  0  0  0  0  0  0  0  0  0  0
  186.6780  177.5480  147.3200 C   0  0  0  0  0  3  0  0  0  0  0  0
  191.0890  175.4280  143.7630 C   0  0  0  0  0  2  0  0  0  0  0  0
  189.8340  175.5850  142.9610 C   0  0  0  0  0  3  0  0  0  0  0  0
  189.0460  174.5920  142.7750 N   0  0  0  0  0  0  0  0  0  0  0  0
  187.8480  174.7740  142.0050 C   0  0  0  0  0  2  0  0  0  0  0  0
  187.7960  176.1900  141.4650 C   0  0  0  0  0  1  0  0  0  0  0  0
  1 28  1  6  0  0  0
  1  7  1  0  0  0  0
  2  3  1  0  0  0  0
  3  6  1  0  0  0  0
  4  7  1  0  0  0  0
  5  4  1  1  0  0  0
  5  2  1  0  0  0  0
  7  3  1  0  0  0  0
  9  5  1  0  0  0  0
  9  8  1  1  0  0  0
 10  9  1  0  0  0  0
 10  8  1  0  0  0  0
 11 12  1  6  0  0  0
 11 10  1  0  0  0  0
 13 15  1  0  0  0  0
 14 15  1  0  0  0  0
 15 11  1  0  0  0  0
 16  1  1  1  0  0  0
 16 18  1  0  0  0  0
 16 17  1  0  0  0  0
 18 20  1  6  0  0  0
 18 17  1  0  0  0  0
 19 26  1  0  0  0  0
 20 27  1  0  0  0  0
 21 25  1  0  0  0  0
 22 24  1  6  0  0  0
 22 23  1  0  0  0  0
 22 21  1  0  0  0  0
 23 20  2  0  0  0  0
 24 19  2  0  0  0  0
 25 27  2  0  0  0  0
 26 21  2  0  0  0  0
 29 28  1  0  0  0  0
 30 29  2  0  0  0  0
 31 30  1  0  0  0  0
 32 31  1  0  0  0  0
M  END
>  <MODEL>
1

>  <REMARK>
 VINA RESULT:      -6.8      0.000      0.000
  Name = 
  9 active torsions:
  status: ('A' for Active; 'I' for Inactive)
    1  A    between atoms: C_2  and  C_22
    2  A    between atoms: C_3  and  C_11
    3  A    between atoms: C_6  and  C_15
    4  A    between atoms: N_8  and  C_24
    5  A    between atoms: C_13  and  C_20
    6  A    between atoms: C_15  and  C_22
    7  A    between atoms: C_15  and  N_32
    8  A    between atoms: C_19  and  C_28
    9  A    between atoms: C_19  and  N_29
                            x       y       z     vdW  Elec       q    Type
                         _______ _______ _______ _____ _____    ______ ____

>  <TORSDO>
F 9

$$$$
=
 OpenBabel11042416363D

 32 36  0  0  1  0  0  0  0  0999 V2000
  189.5380  176.5370  144.7740 C   0  0  1  0  0  3  0  0  0  0  0  0
  192.6680  176.4950  145.1040 C   0  0  0  0  0  2  0  0  0  0  0  0
  191.8510  176.5450  143.9050 N   0  0  0  0  0  0  0  0  0  0  0  0
  191.0700  174.7140  145.0540 C   0  0  0  0  0  2  0  0  0  0  0  0
  192.3150  175.1820  145.7820 C   0  0  1  0  0  3  0  0  0  0  0  0
  191.5590  177.8840  143.5920 N   0  0  0  0  0  1  0  0  0  0  0  0
  190.6690  175.7900  144.1520 N   0  0  0  0  0  0  0  0  0  0  0  0
  193.1300  172.9950  144.8350 C   0  0  0  0  0  2  0  0  0  0  0  0
  193.4050  174.0890  145.7640 C   0  0  1  0  0  3  0  0  0  0  0  0
  194.0830  174.0550  144.4540 N   0  0  0  0  0  0  0  0  0  0  0  0
  195.4270  173.5380  144.6810 C   0  0  2  0  0  3  0  0  0  0  0  0
  196.0580  174.2550  145.8670 C   0  0  0  0  0  1  0  0  0  0  0  0
  197.4860  174.3270  143.7520 F   0  0  0  0  0  0  0  0  0  0  0  0
  195.6190  174.4800  142.4780 F   0  0  0  0  0  0  0  0  0  0  0  0
  196.2840  173.7240  143.4290 C   0  0  0  0  0  3  0  0  0  0  0  0
  188.2270  176.6030  143.9480 C   0  0  2  0  0  3  0  0  0  0  0  0
  188.5020  176.9960  142.6230 O   0  0  0  0  0  0  0  0  0  0  0  0
  187.8940  177.9650  143.4490 C   0  0  1  0  0  3  0  0  0  0  0  0
  182.4750  178.2080  140.5710 C   0  0  0  0  0  3  0  0  0  0  0  0
  186.4420  178.0680  143.1170 C   0  0  0  0  0  0  0  0  0  0  0  0
  183.7510  178.3460  142.5010 C   0  0  0  0  0  0  0  0  0  0  0  0
  184.6440  178.0540  141.5120 C   0  0  2  0  0  3  0  0  0  0  0  0
  186.0060  177.9190  141.7840 C   0  0  0  0  0  3  0  0  0  0  0  0
  183.9530  177.9410  140.2050 C   0  0  0  0  0  3  0  0  0  0  0  0
  184.1500  178.5230  143.8280 C   0  0  0  0  0  3  0  0  0  0  0  0
  182.4310  178.4620  142.0130 N   0  0  0  0  0  0  0  0  0  0  0  0
  185.5110  178.3840  144.1310 C   0  0  0  0  0  3  0  0  0  0  0  0
  189.4070  176.2770  146.2780 C   0  0  0  0  0  2  0  0  0  0  0  0
  187.9730  176.2980  146.7070 C   0  0  0  0  0  3  0  0  0  0  0  0
  187.4500  177.3610  147.1940 N   0  0  0  0  0  0  0  0  0  0  0  0
  186.0710  177.3520  147.5930 C   0  0  0  0  0  2  0  0  0  0  0  0
  185.5420  178.7720  147.6450 C   0  0  0  0  0  1  0  0  0  0  0  0
  1 28  1  1  0  0  0
  2  5  1  0  0  0  0
  3  7  1  0  0  0  0
  3  2  1  0  0  0  0
  5  4  1  6  0  0  0
  6  3  1  0  0  0  0
  7  1  1  0  0  0  0
  7  4  1  0  0  0  0
  9  8  1  6  0  0  0
  9  5  1  0  0  0  0
 10 11  1  0  0  0  0
 10  8  1  0  0  0  0
 10  9  1  0  0  0  0
 11 12  1  1  0  0  0
 14 15  1  0  0  0  0
 15 13  1  0  0  0  0
 15 11  1  0  0  0  0
 16  1  1  1  0  0  0
 17 18  1  0  0  0  0
 17 16  1  0  0  0  0
 18 20  1  6  0  0  0
 18 16  1  0  0  0  0
 19 26  1  0  0  0  0
 20 27  1  0  0  0  0
 21 25  1  0  0  0  0
 22 24  1  6  0  0  0
 22 23  1  0  0  0  0
 22 21  1  0  0  0  0
 23 20  2  0  0  0  0
 24 19  2  0  0  0  0
 25 27  2  0  0  0  0
 26 21  2  0  0  0  0
 28 29  1  0  0  0  0
 29 30  2  0  0  0  0
 30 31  1  0  0  0  0
 31 32  1  0  0  0  0
M  END
>  <MODEL>
2

>  <REMARK>
 VINA RESULT:      -6.7      2.156      3.643
  Name = 
  9 active torsions:
  status: ('A' for Active; 'I' for Inactive)
    1  A    between atoms: C_2  and  C_22
    2  A    between atoms: C_3  and  C_11
    3  A    between atoms: C_6  and  C_15
    4  A    between atoms: N_8  and  C_24
    5  A    between atoms: C_13  and  C_20
    6  A    between atoms: C_15  and  C_22
    7  A    between atoms: C_15  and  N_32
    8  A    between atoms: C_19  and  C_28
    9  A    between atoms: C_19  and  N_29
                            x       y       z     vdW  Elec       q    Type
                         _______ _______ _______ _____ _____    ______ ____

>  <TORSDO>
F 9

$$$$
=
 OpenBabel11042416363D

 32 36  0  0  1  0  0  0  0  0999 V2000
  193.0310  176.2280  144.2340 C   0  0  1  0  0  3  0  0  0  0  0  0
  196.0250  175.5950  143.5020 C   0  0  0  0  0  2  0  0  0  0  0  0
  194.7990  175.2680  142.7990 N   0  0  0  0  0  0  0  0  0  0  0  0
  194.4780  174.4440  144.9190 C   0  0  0  0  0  2  0  0  0  0  0  0
  195.9270  174.8840  144.8420 C   0  0  1  0  0  3  0  0  0  0  0  0
  194.4540  176.3280  141.9410 N   0  0  0  0  0  1  0  0  0  0  0  0
  193.7880  175.0290  143.7730 N   0  0  0  0  0  0  0  0  0  0  0  0
  197.1570  173.3910  146.4550 C   0  0  0  0  0  2  0  0  0  0  0  0
  196.8770  173.6850  145.0510 C   0  0  1  0  0  3  0  0  0  0  0  0
  196.1710  172.5750  145.7190 N   0  0  0  0  0  0  0  0  0  0  0  0
  196.8360  171.3410  145.3170 C   0  0  2  0  0  3  0  0  0  0  0  0
  196.7750  171.1970  143.8030 C   0  0  0  0  0  1  0  0  0  0  0  0
  194.8560  170.4220  146.2950 F   0  0  0  0  0  0  0  0  0  0  0  0
  196.8560  169.7810  147.1460 F   0  0  0  0  0  0  0  0  0  0  0  0
  196.1760  170.1400  145.9930 C   0  0  0  0  0  3  0  0  0  0  0  0
  191.5320  176.2830  143.8360 C   0  0  2  0  0  3  0  0  0  0  0  0
  191.4000  176.4000  142.4390 O   0  0  0  0  0  0  0  0  0  0  0  0
  191.1230  177.5610  143.1920 C   0  0  1  0  0  3  0  0  0  0  0  0
  185.3170  177.9710  145.1460 C   0  0  0  0  0  3  0  0  0  0  0  0
  189.6460  177.7550  143.2910 C   0  0  0  0  0  0  0  0  0  0  0  0
  186.8910  178.0340  143.4450 C   0  0  1  0  0  3  0  0  0  0  0  0
  187.6120  177.8020  144.5800 C   0  0  0  0  0  0  0  0  0  0  0  0
  188.9980  177.6450  144.5370 C   0  0  0  0  0  3  0  0  0  0  0  0
  186.7150  177.7320  145.7600 C   0  0  0  0  0  3  0  0  0  0  0  0
  187.4970  178.1280  142.1910 C   0  0  0  0  0  3  0  0  0  0  0  0
  185.5060  178.1390  143.7030 N   0  0  0  0  0  0  0  0  0  0  0  0
  188.8900  177.9820  142.1200 C   0  0  0  0  0  3  0  0  0  0  0  0
  193.3950  176.6510  145.6610 C   0  0  0  0  0  2  0  0  0  0  0  0
  192.2160  176.5300  146.5760 C   0  0  0  0  0  3  0  0  0  0  0  0
  191.8990  175.4010  147.0930 N   0  0  0  0  0  0  0  0  0  0  0  0
  190.7660  175.3180  147.9700 C   0  0  0  0  0  2  0  0  0  0  0  0
  189.5370  174.9060  147.1820 C   0  0  0  0  0  1  0  0  0  0  0  0
  1 28  1  1  0  0  0
  3  2  1  0  0  0  0
  3  7  1  0  0  0  0
  5  2  1  6  0  0  0
  5  4  1  0  0  0  0
  5  9  1  0  0  0  0
  6  3  1  0  0  0  0
  7  1  1  0  0  0  0
  7  4  1  0  0  0  0
  9 10  1  0  0  0  0
  9  8  1  1  0  0  0
 10  8  1  0  0  0  0
 11 12  1  6  0  0  0
 11 10  1  0  0  0  0
 11 15  1  0  0  0  0
 15 13  1  0  0  0  0
 15 14  1  0  0  0  0
 16  1  1  6  0  0  0
 17 18  1  0  0  0  0
 17 16  1  0  0  0  0
 18 20  1  1  0  0  0
 18 16  1  0  0  0  0
 19 24  1  0  0  0  0
 20 23  2  0  0  0  0
 21 25  1  6  0  0  0
 21 26  1  0  0  0  0
 21 22  1  0  0  0  0
 22 24  2  0  0  0  0
 23 22  1  0  0  0  0
 26 19  2  0  0  0  0
 27 25  2  0  0  0  0
 27 20  1  0  0  0  0
 28 29  1  0  0  0  0
 29 30  2  0  0  0  0
 30 31  1  0  0  0  0
 32 31  1  0  0  0  0
M  END
>  <MODEL>
3

>  <REMARK>
 VINA RESULT:      -6.7      2.663      4.376
  Name = 
  9 active torsions:
  status: ('A' for Active; 'I' for Inactive)
    1  A    between atoms: C_2  and  C_22
    2  A    between atoms: C_3  and  C_11
    3  A    between atoms: C_6  and  C_15
    4  A    between atoms: N_8  and  C_24
    5  A    between atoms: C_13  and  C_20
    6  A    between atoms: C_15  and  C_22
    7  A    between atoms: C_15  and  N_32
    8  A    between atoms: C_19  and  C_28
    9  A    between atoms: C_19  and  N_29
                            x       y       z     vdW  Elec       q    Type
                         _______ _______ _______ _____ _____    ______ ____

>  <TORSDO>
F 9

$$$$
=
 OpenBabel11042416363D

 32 36  0  0  1  0  0  0  0  0999 V2000
  191.4280  175.1990  145.1610 C   0  0  1  0  0  3  0  0  0  0  0  0
  194.4670  175.0410  145.9660 C   0  0  0  0  0  2  0  0  0  0  0  0
  193.6140  176.1940  145.7440 N   0  0  0  0  0  0  0  0  0  0  0  0
  193.4020  174.9490  143.8240 C   0  0  0  0  0  2  0  0  0  0  0  0
  194.5090  174.3050  144.6370 C   0  0  1  0  0  3  0  0  0  0  0  0
  192.9600  176.5320  146.9420 N   0  0  0  0  0  1  0  0  0  0  0  0
  192.6880  175.8590  144.7140 N   0  0  0  0  0  0  0  0  0  0  0  0
  195.9230  173.4140  142.7530 C   0  0  0  0  0  2  0  0  0  0  0  0
  195.8490  174.3500  143.8730 C   0  0  1  0  0  3  0  0  0  0  0  0
  195.6450  174.8410  142.4970 N   0  0  0  0  0  0  0  0  0  0  0  0
  196.8950  175.4620  142.0740 C   0  0  2  0  0  3  0  0  0  0  0  0
  197.2490  176.5970  143.0230 C   0  0  0  0  0  1  0  0  0  0  0  0
  195.5790  175.5600  140.0770 F   0  0  0  0  0  0  0  0  0  0  0  0
  197.8350  175.5700  139.8640 F   0  0  0  0  0  0  0  0  0  0  0  0
  196.7670  175.9850  140.6430 C   0  0  0  0  0  3  0  0  0  0  0  0
  190.1140  175.9700  144.8730 C   0  0  2  0  0  3  0  0  0  0  0  0
  190.3530  177.3580  144.8590 O   0  0  0  0  0  0  0  0  0  0  0  0
  189.6720  176.8530  145.9870 C   0  0  1  0  0  3  0  0  0  0  0  0
  184.2030  179.1210  144.3640 C   0  0  0  0  0  3  0  0  0  0  0  0
  188.2160  177.1610  145.8750 C   0  0  0  0  0  0  0  0  0  0  0  0
  185.5180  177.7910  145.7320 C   0  0  0  0  0  0  0  0  0  0  0  0
  186.3880  178.3310  144.8300 C   0  0  2  0  0  3  0  0  0  0  0  0
  187.7520  178.0450  144.8800 C   0  0  0  0  0  3  0  0  0  0  0  0
  185.6690  179.2200  143.8850 C   0  0  0  0  0  3  0  0  0  0  0  0
  185.9450  176.9290  146.7440 C   0  0  0  0  0  3  0  0  0  0  0  0
  184.1910  178.2240  145.5220 N   0  0  0  0  0  0  0  0  0  0  0  0
  187.3100  176.6170  146.8130 C   0  0  0  0  0  3  0  0  0  0  0  0
  191.4250  173.6880  144.9080 C   0  0  0  0  0  2  0  0  0  0  0  0
  190.1040  173.2330  144.3730 C   0  0  0  0  0  3  0  0  0  0  0  0
  190.0090  172.7340  143.1960 N   0  0  0  0  0  0  0  0  0  0  0  0
  188.7280  172.3030  142.7120 C   0  0  0  0  0  2  0  0  0  0  0  0
  188.3930  173.0350  141.4260 C   0  0  0  0  0  1  0  0  0  0  0  0
  1 28  1  6  0  0  0
  3  2  1  0  0  0  0
  3  6  1  0  0  0  0
  4  7  1  0  0  0  0
  5  4  1  6  0  0  0
  5  2  1  0  0  0  0
  7  1  1  0  0  0  0
  7  3  1  0  0  0  0
  9  8  1  6  0  0  0
  9  5  1  0  0  0  0
 10  8  1  0  0  0  0
 10  9  1  0  0  0  0
 11 10  1  0  0  0  0
 11 12  1  1  0  0  0
 13 15  1  0  0  0  0
 14 15  1  0  0  0  0
 15 11  1  0  0  0  0
 16  1  1  1  0  0  0
 16 18  1  0  0  0  0
 17 16  1  0  0  0  0
 17 18  1  0  0  0  0
 18 20  1  6  0  0  0
 19 26  1  0  0  0  0
 20 27  1  0  0  0  0
 21 25  1  0  0  0  0
 22 24  1  1  0  0  0
 22 23  1  0  0  0  0
 22 21  1  0  0  0  0
 23 20  2  0  0  0  0
 24 19  2  0  0  0  0
 25 27  2  0  0  0  0
 26 21  2  0  0  0  0
 29 28  1  0  0  0  0
 30 29  2  0  0  0  0
 31 30  1  0  0  0  0
 32 31  1  0  0  0  0
M  END
>  <MODEL>
4

>  <REMARK>
 VINA RESULT:      -6.6      1.500      1.738
  Name = 
  9 active torsions:
  status: ('A' for Active; 'I' for Inactive)
    1  A    between atoms: C_2  and  C_22
    2  A    between atoms: C_3  and  C_11
    3  A    between atoms: C_6  and  C_15
    4  A    between atoms: N_8  and  C_24
    5  A    between atoms: C_13  and  C_20
    6  A    between atoms: C_15  and  C_22
    7  A    between atoms: C_15  and  N_32
    8  A    between atoms: C_19  and  C_28
    9  A    between atoms: C_19  and  N_29
                            x       y       z     vdW  Elec       q    Type
                         _______ _______ _______ _____ _____    ______ ____

>  <TORSDO>
F 9

$$$$
=
 OpenBabel11042416363D

 32 36  0  0  1  0  0  0  0  0999 V2000
  191.6240  175.9010  144.5600 C   0  0  1  0  0  3  0  0  0  0  0  0
  189.3290  177.9020  145.3610 C   0  0  0  0  0  2  0  0  0  0  0  0
  189.7150  176.6320  145.9490 N   0  0  0  0  0  0  0  0  0  0  0  0
  189.3910  176.1570  143.7240 C   0  0  0  0  0  2  0  0  0  0  0  0
  188.9110  177.5800  143.9360 C   0  0  1  0  0  3  0  0  0  0  0  0
  190.7100  176.8460  146.9190 N   0  0  0  0  0  1  0  0  0  0  0  0
  190.1760  175.7870  144.8980 N   0  0  0  0  0  0  0  0  0  0  0  0
  186.6660  176.4490  143.7630 C   0  0  0  0  0  2  0  0  0  0  0  0
  187.4050  177.7030  143.6220 C   0  0  1  0  0  3  0  0  0  0  0  0
  186.6000  177.4620  144.8350 N   0  0  0  0  0  0  0  0  0  0  0  0
  185.3490  178.1910  144.6720 C   0  0  2  0  0  3  0  0  0  0  0  0
  185.6380  179.5940  144.1550 C   0  0  0  0  0  1  0  0  0  0  0  0
  184.4520  176.9920  146.5380 F   0  0  0  0  0  0  0  0  0  0  0  0
  183.3550  178.8490  145.8430 F   0  0  0  0  0  0  0  0  0  0  0  0
  184.5980  178.2590  146.0020 C   0  0  0  0  0  3  0  0  0  0  0  0
  192.4960  174.6560  144.8650 C   0  0  2  0  0  3  0  0  0  0  0  0
  192.3830  174.2990  146.2230 O   0  0  0  0  0  0  0  0  0  0  0  0
  193.5950  174.9090  145.8360 C   0  0  1  0  0  3  0  0  0  0  0  0
  196.7140  169.6390  145.3910 C   0  0  0  0  0  3  0  0  0  0  0  0
  194.6620  173.8720  145.7110 C   0  0  0  0  0  0  0  0  0  0  0  0
  196.6570  171.9500  145.5670 C   0  0  0  0  0  0  0  0  0  0  0  0
  195.3470  171.5690  145.5330 C   0  0  2  0  0  3  0  0  0  0  0  0
  194.3180  172.5080  145.6150 C   0  0  0  0  0  3  0  0  0  0  0  0
  195.2380  170.0940  145.4250 C   0  0  0  0  0  3  0  0  0  0  0  0
  197.0340  173.2890  145.6830 C   0  0  0  0  0  3  0  0  0  0  0  0
  197.5370  170.8470  145.4940 N   0  0  0  0  0  0  0  0  0  0  0  0
  196.0210  174.2550  145.7590 C   0  0  0  0  0  3  0  0  0  0  0  0
  191.8700  176.6230  143.2310 C   0  0  0  0  0  2  0  0  0  0  0  0
  192.8210  175.8540  142.3680 C   0  0  0  0  0  3  0  0  0  0  0  0
  194.0070  176.2870  142.1510 N   0  0  0  0  0  0  0  0  0  0  0  0
  194.8970  175.5250  141.3210 C   0  0  0  0  0  2  0  0  0  0  0  0
  195.2450  174.2180  142.0080 C   0  0  0  0  0  1  0  0  0  0  0  0
  1 28  1  6  0  0  0
  1  7  1  0  0  0  0
  2  3  1  0  0  0  0
  3  6  1  0  0  0  0
  4  7  1  0  0  0  0
  5  4  1  1  0  0  0
  5  2  1  0  0  0  0
  7  3  1  0  0  0  0
  8 10  1  0  0  0  0
  9  8  1  6  0  0  0
  9  5  1  0  0  0  0
  9 10  1  0  0  0  0
 11 12  1  1  0  0  0
 11 10  1  0  0  0  0
 11 15  1  0  0  0  0
 14 15  1  0  0  0  0
 15 13  1  0  0  0  0
 16  1  1  1  0  0  0
 16 18  1  0  0  0  0
 16 17  1  0  0  0  0
 18 20  1  6  0  0  0
 18 17  1  0  0  0  0
 19 24  2  0  0  0  0
 19 26  1  0  0  0  0
 20 27  1  0  0  0  0
 21 25  1  0  0  0  0
 22 24  1  1  0  0  0
 22 21  1  0  0  0  0
 22 23  1  0  0  0  0
 23 20  2  0  0  0  0
 25 27  2  0  0  0  0
 26 21  2  0  0  0  0
 29 28  1  0  0  0  0
 30 29  2  0  0  0  0
 31 32  1  0  0  0  0
 31 30  1  0  0  0  0
M  END
>  <MODEL>
5

>  <REMARK>
 VINA RESULT:      -6.6      4.416      9.588
  Name = 
  9 active torsions:
  status: ('A' for Active; 'I' for Inactive)
    1  A    between atoms: C_2  and  C_22
    2  A    between atoms: C_3  and  C_11
    3  A    between atoms: C_6  and  C_15
    4  A    between atoms: N_8  and  C_24
    5  A    between atoms: C_13  and  C_20
    6  A    between atoms: C_15  and  C_22
    7  A    between atoms: C_15  and  N_32
    8  A    between atoms: C_19  and  C_28
    9  A    between atoms: C_19  and  N_29
                            x       y       z     vdW  Elec       q    Type
                         _______ _______ _______ _____ _____    ______ ____

>  <TORSDO>
F 9

$$$$
=
 OpenBabel11042416363D

 32 36  0  0  1  0  0  0  0  0999 V2000
  191.6300  175.3280  145.4370 C   0  0  1  0  0  3  0  0  0  0  0  0
  194.5810  174.6620  144.5690 C   0  0  0  0  0  2  0  0  0  0  0  0
  193.4060  174.9380  143.7630 N   0  0  0  0  0  0  0  0  0  0  0  0
  192.7560  173.2300  145.1570 C   0  0  0  0  0  2  0  0  0  0  0  0
  194.2490  173.4050  145.3550 C   0  0  1  0  0  3  0  0  0  0  0  0
  193.2940  176.3240  143.5570 N   0  0  0  0  0  1  0  0  0  0  0  0
  192.2740  174.4130  144.4510 N   0  0  0  0  0  0  0  0  0  0  0  0
  196.3800  172.0650  145.4570 C   0  0  0  0  0  2  0  0  0  0  0  0
  195.0100  172.1240  144.9500 C   0  0  1  0  0  3  0  0  0  0  0  0
  195.3140  171.3030  146.1380 N   0  0  0  0  0  0  0  0  0  0  0  0
  195.4090  169.9200  145.6890 C   0  0  2  0  0  3  0  0  0  0  0  0
  194.1240  169.5230  144.9770 C   0  0  0  0  0  1  0  0  0  0  0  0
  194.5600  168.9590  147.7090 F   0  0  0  0  0  0  0  0  0  0  0  0
  196.7800  169.4010  147.5950 F   0  0  0  0  0  0  0  0  0  0  0  0
  195.6660  168.9950  146.8790 C   0  0  0  0  0  3  0  0  0  0  0  0
  190.1400  175.6700  145.1790 C   0  0  2  0  0  3  0  0  0  0  0  0
  189.9690  176.1600  143.8690 O   0  0  0  0  0  0  0  0  0  0  0  0
  189.8880  177.1120  144.9080 C   0  0  1  0  0  3  0  0  0  0  0  0
  184.0790  179.0400  144.4140 C   0  0  0  0  0  3  0  0  0  0  0  0
  188.4570  177.4570  145.1610 C   0  0  0  0  0  0  0  0  0  0  0  0
  185.8260  178.1750  145.6680 C   0  0  0  0  0  0  0  0  0  0  0  0
  186.3360  178.3160  144.4100 C   0  0  2  0  0  3  0  0  0  0  0  0
  187.6580  177.9760  144.1230 C   0  0  0  0  0  3  0  0  0  0  0  0
  185.3100  178.8730  143.4940 C   0  0  0  0  0  3  0  0  0  0  0  0
  186.5950  177.6850  146.7250 C   0  0  0  0  0  3  0  0  0  0  0  0
  184.4810  178.5960  145.7510 N   0  0  0  0  0  0  0  0  0  0  0  0
  187.9250  177.3270  146.4630 C   0  0  0  0  0  3  0  0  0  0  0  0
  192.0420  175.0310  146.8830 C   0  0  0  0  0  2  0  0  0  0  0  0
  191.2870  175.8920  147.8470 C   0  0  0  0  0  3  0  0  0  0  0  0
  191.6190  177.1150  148.0330 N   0  0  0  0  0  0  0  0  0  0  0  0
  190.8730  177.9160  148.9610 C   0  0  0  0  0  2  0  0  0  0  0  0
  191.5660  177.9180  150.3100 C   0  0  0  0  0  1  0  0  0  0  0  0
  1 28  1  1  0  0  0
  3  7  1  0  0  0  0
  3  2  1  0  0  0  0
  4  5  1  0  0  0  0
  5  2  1  6  0  0  0
  6  3  1  0  0  0  0
  7  4  1  0  0  0  0
  7  1  1  0  0  0  0
  8 10  1  0  0  0  0
  9  5  1  0  0  0  0
  9  8  1  1  0  0  0
  9 10  1  0  0  0  0
 11 12  1  1  0  0  0
 11 10  1  0  0  0  0
 11 15  1  0  0  0  0
 15 14  1  0  0  0  0
 15 13  1  0  0  0  0
 16  1  1  6  0  0  0
 17 18  1  0  0  0  0
 17 16  1  0  0  0  0
 18 20  1  1  0  0  0
 18 16  1  0  0  0  0
 19 26  1  0  0  0  0
 20 27  1  0  0  0  0
 21 26  2  0  0  0  0
 21 25  1  0  0  0  0
 22 24  1  1  0  0  0
 22 21  1  0  0  0  0
 23 22  1  0  0  0  0
 23 20  2  0  0  0  0
 24 19  2  0  0  0  0
 27 25  2  0  0  0  0
 28 29  1  0  0  0  0
 29 30  2  0  0  0  0
 30 31  1  0  0  0  0
 31 32  1  0  0  0  0
M  END
>  <MODEL>
6

>  <REMARK>
 VINA RESULT:      -6.5      3.196      4.595
  Name = 
  9 active torsions:
  status: ('A' for Active; 'I' for Inactive)
    1  A    between atoms: C_2  and  C_22
    2  A    between atoms: C_3  and  C_11
    3  A    between atoms: C_6  and  C_15
    4  A    between atoms: N_8  and  C_24
    5  A    between atoms: C_13  and  C_20
    6  A    between atoms: C_15  and  C_22
    7  A    between atoms: C_15  and  N_32
    8  A    between atoms: C_19  and  C_28
    9  A    between atoms: C_19  and  N_29
                            x       y       z     vdW  Elec       q    Type
                         _______ _______ _______ _____ _____    ______ ____

>  <TORSDO>
F 9

$$$$
=
 OpenBabel11042416363D

 32 36  0  0  1  0  0  0  0  0999 V2000
  191.2900  174.7430  144.6520 C   0  0  1  0  0  3  0  0  0  0  0  0
  189.8220  177.2150  143.3710 C   0  0  0  0  0  2  0  0  0  0  0  0
  191.1080  177.1300  144.0380 N   0  0  0  0  0  0  0  0  0  0  0  0
  189.6240  176.2210  145.5390 C   0  0  0  0  0  2  0  0  0  0  0  0
  188.7950  176.8130  144.4160 C   0  0  1  0  0  3  0  0  0  0  0  0
  192.1020  176.7990  143.1000 N   0  0  0  0  0  1  0  0  0  0  0  0
  191.0030  176.1470  145.0640 N   0  0  0  0  0  0  0  0  0  0  0  0
  186.6910  178.1670  144.1240 C   0  0  0  0  0  2  0  0  0  0  0  0
  187.8800  177.9380  144.9440 C   0  0  1  0  0  3  0  0  0  0  0  0
  186.5790  177.3910  145.3750 N   0  0  0  0  0  0  0  0  0  0  0  0
  186.0570  178.2850  146.4000 C   0  0  2  0  0  3  0  0  0  0  0  0
  186.9770  178.2660  147.6130 C   0  0  0  0  0  1  0  0  0  0  0  0
  184.4390  176.5260  146.5110 F   0  0  0  0  0  0  0  0  0  0  0  0
  183.6910  178.6340  146.1520 F   0  0  0  0  0  0  0  0  0  0  0  0
  184.6430  177.8630  146.7990 C   0  0  0  0  0  3  0  0  0  0  0  0
  192.4880  174.0560  145.3560 C   0  0  2  0  0  3  0  0  0  0  0  0
  193.6060  174.9130  145.3680 O   0  0  0  0  0  0  0  0  0  0  0  0
  193.6620  173.8260  144.4690 C   0  0  1  0  0  3  0  0  0  0  0  0
  195.9220  168.5840  146.7280 C   0  0  0  0  0  3  0  0  0  0  0  0
  194.5460  172.7600  145.0250 C   0  0  0  0  0  0  0  0  0  0  0  0
  196.1770  170.8110  146.1380 C   0  0  0  0  0  0  0  0  0  0  0  0
  194.8870  170.5080  145.8110 C   0  0  2  0  0  3  0  0  0  0  0  0
  194.0360  171.4670  145.2610 C   0  0  0  0  0  3  0  0  0  0  0  0
  194.5850  169.0950  146.1460 C   0  0  0  0  0  3  0  0  0  0  0  0
  196.7090  172.0860  145.9390 C   0  0  0  0  0  3  0  0  0  0  0  0
  196.8590  169.7100  146.7010 N   0  0  0  0  0  0  0  0  0  0  0  0
  195.8780  173.0670  145.3790 C   0  0  0  0  0  3  0  0  0  0  0  0
  190.0200  173.9080  144.4530 C   0  0  0  0  0  2  0  0  0  0  0  0
  190.0090  173.2550  143.1070 C   0  0  0  0  0  3  0  0  0  0  0  0
  189.8250  173.9460  142.0430 N   0  0  0  0  0  0  0  0  0  0  0  0
  189.8240  173.2900  140.7660 C   0  0  0  0  0  2  0  0  0  0  0  0
  188.3960  173.0400  140.3200 C   0  0  0  0  0  1  0  0  0  0  0  0
  1 28  1  1  0  0  0
  1  7  1  0  0  0  0
  2  3  1  0  0  0  0
  3  7  1  0  0  0  0
  5  2  1  6  0  0  0
  5  9  1  0  0  0  0
  5  4  1  0  0  0  0
  6  3  1  0  0  0  0
  7  4  1  0  0  0  0
  8 10  1  0  0  0  0
  9  8  1  6  0  0  0
  9 10  1  0  0  0  0
 10 11  1  0  0  0  0
 11 15  1  0  0  0  0
 11 12  1  1  0  0  0
 13 15  1  0  0  0  0
 14 15  1  0  0  0  0
 16  1  1  6  0  0  0
 16 17  1  0  0  0  0
 18 20  1  1  0  0  0
 18 16  1  0  0  0  0
 18 17  1  0  0  0  0
 20 23  2  0  0  0  0
 20 27  1  0  0  0  0
 21 26  2  0  0  0  0
 22 23  1  1  0  0  0
 22 21  1  0  0  0  0
 22 24  1  0  0  0  0
 24 19  2  0  0  0  0
 25 21  1  0  0  0  0
 26 19  1  0  0  0  0
 27 25  2  0  0  0  0
 29 28  1  0  0  0  0
 30 29  2  0  0  0  0
 31 30  1  0  0  0  0
 32 31  1  0  0  0  0
M  END
>  <MODEL>
7

>  <REMARK>
 VINA RESULT:      -6.5      4.605      9.487
  Name = 
  9 active torsions:
  status: ('A' for Active; 'I' for Inactive)
    1  A    between atoms: C_2  and  C_22
    2  A    between atoms: C_3  and  C_11
    3  A    between atoms: C_6  and  C_15
    4  A    between atoms: N_8  and  C_24
    5  A    between atoms: C_13  and  C_20
    6  A    between atoms: C_15  and  C_22
    7  A    between atoms: C_15  and  N_32
    8  A    between atoms: C_19  and  C_28
    9  A    between atoms: C_19  and  N_29
                            x       y       z     vdW  Elec       q    Type
                         _______ _______ _______ _____ _____    ______ ____

>  <TORSDO>
F 9

$$$$
=
 OpenBabel11042416363D

 32 36  0  0  1  0  0  0  0  0999 V2000
  190.4380  175.5220  143.7340 C   0  0  1  0  0  3  0  0  0  0  0  0
  188.8660  177.9270  142.4490 C   0  0  0  0  0  2  0  0  0  0  0  0
  189.9230  177.9210  143.4440 N   0  0  0  0  0  0  0  0  0  0  0  0
  188.3260  176.5060  144.2970 C   0  0  0  0  0  2  0  0  0  0  0  0
  187.7110  177.1650  143.0770 C   0  0  1  0  0  3  0  0  0  0  0  0
  191.1730  177.9470  142.8010 N   0  0  0  0  0  1  0  0  0  0  0  0
  189.7640  176.7510  144.2410 N   0  0  0  0  0  0  0  0  0  0  0  0
  185.2180  177.4910  142.9230 C   0  0  0  0  0  2  0  0  0  0  0  0
  186.4740  178.0010  143.4690 C   0  0  1  0  0  3  0  0  0  0  0  0
  185.5690  177.2160  144.3300 N   0  0  0  0  0  0  0  0  0  0  0  0
  184.8350  178.1650  145.1580 C   0  0  2  0  0  3  0  0  0  0  0  0
  185.6630  179.4280  145.3450 C   0  0  0  0  0  1  0  0  0  0  0  0
  184.3750  178.5210  147.4790 F   0  0  0  0  0  0  0  0  0  0  0  0
  185.4800  176.6320  146.8940 F   0  0  0  0  0  0  0  0  0  0  0  0
  184.5050  177.5400  146.5130 C   0  0  0  0  0  3  0  0  0  0  0  0
  191.6150  174.9850  144.5900 C   0  0  2  0  0  3  0  0  0  0  0  0
  192.3310  176.0550  145.1620 O   0  0  0  0  0  0  0  0  0  0  0  0
  192.9580  175.3850  144.0900 C   0  0  1  0  0  3  0  0  0  0  0  0
  196.2070  170.4910  145.8770 C   0  0  0  0  0  3  0  0  0  0  0  0
  194.0140  174.4710  144.6180 C   0  0  0  0  0  0  0  0  0  0  0  0
  195.9450  172.7860  145.6800 C   0  0  0  0  0  0  0  0  0  0  0  0
  194.8290  172.2560  145.1020 C   0  0  2  0  0  3  0  0  0  0  0  0
  193.8320  173.0740  144.5680 C   0  0  0  0  0  3  0  0  0  0  0  0
  194.8660  170.7740  145.1640 C   0  0  0  0  0  3  0  0  0  0  0  0
  196.1480  174.1650  145.7660 C   0  0  0  0  0  3  0  0  0  0  0  0
  196.8150  171.7900  146.1760 N   0  0  0  0  0  0  0  0  0  0  0  0
  195.1660  175.0100  145.2310 C   0  0  0  0  0  3  0  0  0  0  0  0
  189.4530  174.4910  143.1700 C   0  0  0  0  0  2  0  0  0  0  0  0
  189.6480  174.3080  141.6980 C   0  0  0  0  0  3  0  0  0  0  0  0
  188.6470  174.1080  140.9230 N   0  0  0  0  0  0  0  0  0  0  0  0
  188.8670  173.9390  139.5140 C   0  0  0  0  0  2  0  0  0  0  0  0
  188.1930  172.6660  139.0400 C   0  0  0  0  0  1  0  0  0  0  0  0
  1 28  1  1  0  0  0
  1  7  1  0  0  0  0
  2  3  1  0  0  0  0
  3  7  1  0  0  0  0
  5  2  1  1  0  0  0
  5  9  1  0  0  0  0
  5  4  1  0  0  0  0
  6  3  1  0  0  0  0
  7  4  1  0  0  0  0
  8 10  1  0  0  0  0
  9  8  1  6  0  0  0
  9 10  1  0  0  0  0
 10 11  1  0  0  0  0
 11 12  1  1  0  0  0
 11 15  1  0  0  0  0
 15 14  1  0  0  0  0
 15 13  1  0  0  0  0
 16  1  1  6  0  0  0
 16 17  1  0  0  0  0
 18 16  1  0  0  0  0
 18 20  1  1  0  0  0
 18 17  1  0  0  0  0
 19 26  1  0  0  0  0
 20 27  1  0  0  0  0
 21 25  1  0  0  0  0
 21 26  2  0  0  0  0
 22 23  1  1  0  0  0
 22 24  1  0  0  0  0
 22 21  1  0  0  0  0
 23 20  2  0  0  0  0
 24 19  2  0  0  0  0
 27 25  2  0  0  0  0
 29 28  1  0  0  0  0
 30 29  2  0  0  0  0
 31 30  1  0  0  0  0
 32 31  1  0  0  0  0
M  END
>  <MODEL>
8

>  <REMARK>
 VINA RESULT:      -6.5      4.220      9.285
  Name = 
  9 active torsions:
  status: ('A' for Active; 'I' for Inactive)
    1  A    between atoms: C_2  and  C_22
    2  A    between atoms: C_3  and  C_11
    3  A    between atoms: C_6  and  C_15
    4  A    between atoms: N_8  and  C_24
    5  A    between atoms: C_13  and  C_20
    6  A    between atoms: C_15  and  C_22
    7  A    between atoms: C_15  and  N_32
    8  A    between atoms: C_19  and  C_28
    9  A    between atoms: C_19  and  N_29
                            x       y       z     vdW  Elec       q    Type
                         _______ _______ _______ _____ _____    ______ ____

>  <TORSDO>
F 9

$$$$
=
 OpenBabel11042416363D

 32 36  0  0  1  0  0  0  0  0999 V2000
  187.4180  176.8160  143.3540 C   0  0  1  0  0  3  0  0  0  0  0  0
  190.5200  177.3320  143.4920 C   0  0  0  0  0  2  0  0  0  0  0  0
  189.6410  177.1990  142.3450 N   0  0  0  0  0  0  0  0  0  0  0  0
  189.2610  175.2980  143.5790 C   0  0  0  0  0  2  0  0  0  0  0  0
  190.4430  176.0000  144.2190 C   0  0  1  0  0  3  0  0  0  0  0  0
  189.1000  178.4560  142.0210 N   0  0  0  0  0  1  0  0  0  0  0  0
  188.6260  176.2580  142.6800 N   0  0  0  0  0  0  0  0  0  0  0  0
  192.6580  175.5130  143.1230 C   0  0  0  0  0  2  0  0  0  0  0  0
  191.7060  175.1140  144.1570 C   0  0  1  0  0  3  0  0  0  0  0  0
  192.9040  175.8910  144.5290 N   0  0  0  0  0  0  0  0  0  0  0  0
  193.8740  174.9490  145.0730 C   0  0  2  0  0  3  0  0  0  0  0  0
  193.1550  173.9010  145.9100 C   0  0  0  0  0  1  0  0  0  0  0  0
  195.7960  174.7910  146.4900 F   0  0  0  0  0  0  0  0  0  0  0  0
  194.2990  176.4400  146.9110 F   0  0  0  0  0  0  0  0  0  0  0  0
  194.9100  175.6880  145.9200 C   0  0  0  0  0  3  0  0  0  0  0  0
  186.1100  176.8120  142.5220 C   0  0  2  0  0  3  0  0  0  0  0  0
  186.3880  177.0900  141.1690 O   0  0  0  0  0  0  0  0  0  0  0  0
  185.7790  178.1270  141.9070 C   0  0  1  0  0  3  0  0  0  0  0  0
  179.6920  178.9180  142.0390 C   0  0  0  0  0  3  0  0  0  0  0  0
  184.3280  178.2020  141.5640 C   0  0  0  0  0  0  0  0  0  0  0  0
  181.6250  178.2560  140.9440 C   0  0  1  0  0  3  0  0  0  0  0  0
  182.0480  178.7040  142.1610 C   0  0  0  0  0  0  0  0  0  0  0  0
  183.3990  178.6810  142.5100 C   0  0  0  0  0  3  0  0  0  0  0  0
  180.8960  179.1600  142.9760 C   0  0  0  0  0  3  0  0  0  0  0  0
  182.5140  177.7540  139.9910 C   0  0  0  0  0  3  0  0  0  0  0  0
  180.2220  178.3440  140.7990 N   0  0  0  0  0  0  0  0  0  0  0  0
  183.8780  177.7270  140.3130 C   0  0  0  0  0  3  0  0  0  0  0  0
  187.3150  176.4060  144.8270 C   0  0  0  0  0  2  0  0  0  0  0  0
  186.5880  177.4430  145.6250 C   0  0  0  0  0  3  0  0  0  0  0  0
  185.3320  177.3330  145.8550 N   0  0  0  0  0  0  0  0  0  0  0  0
  184.6640  178.3420  146.6270 C   0  0  0  0  0  2  0  0  0  0  0  0
  185.6870  179.2090  147.3340 C   0  0  0  0  0  1  0  0  0  0  0  0
  1 28  1  1  0  0  0
  3  7  1  0  0  0  0
  3  2  1  0  0  0  0
  4  5  1  0  0  0  0
  5  2  1  6  0  0  0
  6  3  1  0  0  0  0
  7  1  1  0  0  0  0
  7  4  1  0  0  0  0
  8 10  1  0  0  0  0
  9  8  1  6  0  0  0
  9  5  1  0  0  0  0
  9 10  1  0  0  0  0
 10 11  1  0  0  0  0
 11 12  1  1  0  0  0
 11 15  1  0  0  0  0
 15 13  1  0  0  0  0
 15 14  1  0  0  0  0
 16  1  1  1  0  0  0
 17 18  1  0  0  0  0
 17 16  1  0  0  0  0
 18 20  1  6  0  0  0
 18 16  1  0  0  0  0
 19 24  1  0  0  0  0
 20 23  2  0  0  0  0
 21 25  1  1  0  0  0
 21 22  1  0  0  0  0
 22 23  1  0  0  0  0
 22 24  2  0  0  0  0
 25 27  2  0  0  0  0
 26 21  1  0  0  0  0
 26 19  2  0  0  0  0
 27 20  1  0  0  0  0
 28 29  1  0  0  0  0
 29 30  2  0  0  0  0
 30 31  1  0  0  0  0
 31 32  1  0  0  0  0
M  END
>  <MODEL>
9

>  <REMARK>
 VINA RESULT:      -6.2      3.022      5.383
  Name = 
  9 active torsions:
  status: ('A' for Active; 'I' for Inactive)
    1  A    between atoms: C_2  and  C_22
    2  A    between atoms: C_3  and  C_11
    3  A    between atoms: C_6  and  C_15
    4  A    between atoms: N_8  and  C_24
    5  A    between atoms: C_13  and  C_20
    6  A    between atoms: C_15  and  C_22
    7  A    between atoms: C_15  and  N_32
    8  A    between atoms: C_19  and  C_28
    9  A    between atoms: C_19  and  N_29
                            x       y       z     vdW  Elec       q    Type
                         _______ _______ _______ _____ _____    ______ ____

>  <TORSDO>
F 9

$$$$
