=
 OpenBabel11042418113D

 25 28  0  0  1  0  0  0  0  0999 V2000
  193.4280  176.1590  144.2360 C   0  0  0  0  0  0  0  0  0  0  0  0
  193.9180  175.9250  145.4860 N   0  0  0  0  0  2  0  0  0  0  0  0
  190.0650  177.0880  144.8160 C   0  0  0  0  0  0  0  0  0  0  0  0
  191.8580  176.4390  146.5650 C   0  0  0  0  0  0  0  0  0  0  0  0
  194.3020  175.9970  143.0420 C   0  0  0  0  0  1  0  0  0  0  0  0
  187.7580  177.7710  144.6690 C   0  0  0  0  0  0  0  0  0  0  0  0
  191.4220  176.8350  142.9930 N   0  0  0  0  0  0  0  0  0  0  0  0
  193.1690  176.0570  146.5910 N   0  0  0  0  0  0  0  0  0  0  0  0
  191.2950  176.6960  145.3060 C   0  0  0  0  0  0  0  0  0  0  0  0
  187.8870  177.8410  143.2550 C   0  0  0  0  0  0  0  0  0  0  0  0
  190.1870  177.1580  143.4380 C   0  0  0  0  0  0  0  0  0  0  0  0
  188.8670  177.3930  145.4550 C   0  0  0  0  0  3  0  0  0  0  0  0
  192.1040  176.5500  144.1220 C   0  0  0  0  0  0  0  0  0  0  0  0
  189.1130  177.5360  142.6370 C   0  0  0  0  0  3  0  0  0  0  0  0
  185.5460  177.0540  145.3060 O   0  0  0  0  0  0  0  0  0  0  0  0
  185.5730  176.9710  146.7080 C   0  0  0  0  0  2  0  0  0  0  0  0
  186.4500  178.1290  145.3300 C   0  0  1  0  0  3  0  0  0  0  0  0
  186.5620  178.0980  146.8300 C   0  0  0  0  0  2  0  0  0  0  0  0
  191.1470  176.5480  147.8490 C   0  0  0  0  0  3  0  0  0  0  0  0
  191.5090  177.3240  148.7690 O   0  0  0  0  0  0  0  0  0  0  0  0
  186.7470  178.2720  142.3940 C   0  0  0  0  0  2  0  0  0  0  0  0
  187.0400  177.9710  141.0030 N   0  0  0  0  0  2  0  0  0  0  0  0
  185.7670  177.9300  140.3080 C   0  0  0  0  0  2  0  0  0  0  0  0
  183.4630  178.2110  140.4770 C   0  0  0  0  0  1  0  0  0  0  0  0
  184.7010  178.2700  141.2310 N   0  0  0  0  0  2  0  0  0  0  0  0
  1  2  1  0  0  0  0
  2  8  1  0  0  0  0
  3  9  2  0  0  0  0
  3 12  1  0  0  0  0
  4  8  2  0  0  0  0
  4 19  1  0  0  0  0
  5  1  1  0  0  0  0
  6 12  2  0  0  0  0
  7 11  2  0  0  0  0
  7 13  1  0  0  0  0
  9  4  1  0  0  0  0
 10  6  1  0  0  0  0
 11  3  1  0  0  0  0
 13  1  2  0  0  0  0
 13  9  1  0  0  0  0
 14 10  2  0  0  0  0
 14 11  1  0  0  0  0
 15 17  1  0  0  0  0
 15 16  1  0  0  0  0
 16 18  1  0  0  0  0
 17  6  1  6  0  0  0
 17 18  1  0  0  0  0
 19 20  2  0  0  0  0
 21 10  1  0  0  0  0
 22 21  1  0  0  0  0
 23 22  1  0  0  0  0
 23 25  1  0  0  0  0
 24 25  1  0  0  0  0
M  END
>  <MODEL>
1

>  <REMARK>
 VINA RESULT:      -6.7      0.000      0.000
  Name = 
  6 active torsions:
  status: ('A' for Active; 'I' for Inactive)
    1  A    between atoms: C_6  and  N_11
    2  A    between atoms: C_6  and  C_18
    3  A    between atoms: C_7  and  C_8
    4  A    between atoms: N_11  and  C_16
    5  A    between atoms: C_12  and  C_20
    6  A    between atoms: C_16  and  N_24
                            x       y       z     vdW  Elec       q    Type
                         _______ _______ _______ _____ _____    ______ ____

>  <TORSDO>
F 6

$$$$
=
 OpenBabel11042418113D

 25 28  0  0  1  0  0  0  0  0999 V2000
  184.1920  178.2730  143.1780 C   0  0  0  0  0  0  0  0  0  0  0  0
  183.7060  179.0160  144.2120 N   0  0  0  0  0  2  0  0  0  0  0  0
  187.0870  176.7560  144.5290 C   0  0  0  0  0  0  0  0  0  0  0  0
  185.4440  178.3710  145.7060 C   0  0  0  0  0  0  0  0  0  0  0  0
  183.4900  178.2570  141.8650 C   0  0  0  0  0  1  0  0  0  0  0  0
  189.0990  175.4970  144.9540 C   0  0  0  0  0  0  0  0  0  0  0  0
  185.9960  176.7430  142.5200 N   0  0  0  0  0  0  0  0  0  0  0  0
  184.3030  179.0620  145.4120 N   0  0  0  0  0  0  0  0  0  0  0  0
  185.9940  177.5860  144.6820 C   0  0  0  0  0  0  0  0  0  0  0  0
  189.0540  175.0090  143.6210 C   0  0  0  0  0  0  0  0  0  0  0  0
  187.0480  176.2770  143.2300 C   0  0  0  0  0  0  0  0  0  0  0  0
  188.0970  176.3790  145.4100 C   0  0  0  0  0  3  0  0  0  0  0  0
  185.3490  177.5420  143.3940 C   0  0  0  0  0  0  0  0  0  0  0  0
  188.0180  175.4000  142.7540 C   0  0  0  0  0  3  0  0  0  0  0  0
  191.0720  176.1050  146.2010 O   0  0  0  0  0  0  0  0  0  0  0  0
  190.6860  176.0560  147.5510 C   0  0  0  0  0  2  0  0  0  0  0  0
  190.1950  175.0510  145.8900 C   0  0  1  0  0  3  0  0  0  0  0  0
  189.7030  174.9430  147.3080 C   0  0  0  0  0  2  0  0  0  0  0  0
  186.0000  178.5060  147.0620 C   0  0  0  0  0  3  0  0  0  0  0  0
  185.9430  177.5900  147.9210 O   0  0  0  0  0  0  0  0  0  0  0  0
  190.0760  174.0470  143.1140 C   0  0  0  0  0  2  0  0  0  0  0  0
  190.8410  174.6600  142.0420 N   0  0  0  0  0  2  0  0  0  0  0  0
  192.2070  174.7740  142.5150 C   0  0  0  0  0  2  0  0  0  0  0  0
  193.6650  176.0960  143.7580 C   0  0  0  0  0  1  0  0  0  0  0  0
  192.4540  176.1310  142.9610 N   0  0  0  0  0  2  0  0  0  0  0  0
  1 13  2  0  0  0  0
  1  2  1  0  0  0  0
  2  8  1  0  0  0  0
  3  9  2  0  0  0  0
  3 12  1  0  0  0  0
  4 19  1  0  0  0  0
  5  1  1  0  0  0  0
  6 12  2  0  0  0  0
  7 11  2  0  0  0  0
  7 13  1  0  0  0  0
  8  4  2  0  0  0  0
  9  4  1  0  0  0  0
 10  6  1  0  0  0  0
 11  3  1  0  0  0  0
 13  9  1  0  0  0  0
 14 11  1  0  0  0  0
 14 10  2  0  0  0  0
 15 16  1  0  0  0  0
 17  6  1  6  0  0  0
 17 15  1  0  0  0  0
 17 18  1  0  0  0  0
 18 16  1  0  0  0  0
 19 20  2  0  0  0  0
 21 10  1  0  0  0  0
 22 23  1  0  0  0  0
 22 21  1  0  0  0  0
 23 25  1  0  0  0  0
 25 24  1  0  0  0  0
M  END
>  <MODEL>
2

>  <REMARK>
 VINA RESULT:      -6.6      2.182      6.573
  Name = 
  6 active torsions:
  status: ('A' for Active; 'I' for Inactive)
    1  A    between atoms: C_6  and  N_11
    2  A    between atoms: C_6  and  C_18
    3  A    between atoms: C_7  and  C_8
    4  A    between atoms: N_11  and  C_16
    5  A    between atoms: C_12  and  C_20
    6  A    between atoms: C_16  and  N_24
                            x       y       z     vdW  Elec       q    Type
                         _______ _______ _______ _____ _____    ______ ____

>  <TORSDO>
F 6

$$$$
=
 OpenBabel11042418113D

 25 28  0  0  1  0  0  0  0  0999 V2000
  184.2500  178.2500  143.1800 C   0  0  0  0  0  0  0  0  0  0  0  0
  183.7600  178.9990  144.2070 N   0  0  0  0  0  2  0  0  0  0  0  0
  187.1370  176.7360  144.5510 C   0  0  0  0  0  0  0  0  0  0  0  0
  185.4900  178.3580  145.7130 C   0  0  0  0  0  0  0  0  0  0  0  0
  183.5540  178.2290  141.8630 C   0  0  0  0  0  1  0  0  0  0  0  0
  189.1450  175.4770  144.9920 C   0  0  0  0  0  0  0  0  0  0  0  0
  186.0550  176.7150  142.5370 N   0  0  0  0  0  0  0  0  0  0  0  0
  184.3510  179.0490  145.4100 N   0  0  0  0  0  0  0  0  0  0  0  0
  186.0440  177.5680  144.6950 C   0  0  0  0  0  0  0  0  0  0  0  0
  189.1060  174.9830  143.6600 C   0  0  0  0  0  0  0  0  0  0  0  0
  187.1030  176.2510  143.2540 C   0  0  0  0  0  0  0  0  0  0  0  0
  188.1410  176.3620  145.4390 C   0  0  0  0  0  3  0  0  0  0  0  0
  185.4050  177.5190  143.4040 C   0  0  0  0  0  0  0  0  0  0  0  0
  188.0740  175.3710  142.7870 C   0  0  0  0  0  3  0  0  0  0  0  0
  191.1430  176.0730  146.2030 O   0  0  0  0  0  0  0  0  0  0  0  0
  190.7670  176.0810  147.5570 C   0  0  0  0  0  2  0  0  0  0  0  0
  190.2360  175.0340  145.9350 C   0  0  1  0  0  3  0  0  0  0  0  0
  189.7520  174.9880  147.3590 C   0  0  0  0  0  2  0  0  0  0  0  0
  186.0390  178.4990  147.0710 C   0  0  0  0  0  3  0  0  0  0  0  0
  185.9670  177.5910  147.9380 O   0  0  0  0  0  0  0  0  0  0  0  0
  190.1290  174.0170  143.1630 C   0  0  0  0  0  2  0  0  0  0  0  0
  190.4460  174.3060  141.7750 N   0  0  0  0  0  2  0  0  0  0  0  0
  190.6050  173.0280  141.1080 C   0  0  0  0  0  2  0  0  0  0  0  0
  188.6030  172.9060  139.9260 C   0  0  0  0  0  1  0  0  0  0  0  0
  189.3250  172.3480  141.0540 N   0  0  0  0  0  2  0  0  0  0  0  0
  1 13  2  0  0  0  0
  1  2  1  0  0  0  0
  2  8  1  0  0  0  0
  3  9  2  0  0  0  0
  3 12  1  0  0  0  0
  4 19  1  0  0  0  0
  5  1  1  0  0  0  0
  6 12  2  0  0  0  0
  7 11  2  0  0  0  0
  7 13  1  0  0  0  0
  8  4  2  0  0  0  0
  9  4  1  0  0  0  0
 10  6  1  0  0  0  0
 11  3  1  0  0  0  0
 13  9  1  0  0  0  0
 14 11  1  0  0  0  0
 14 10  2  0  0  0  0
 15 16  1  0  0  0  0
 17  6  1  6  0  0  0
 17 15  1  0  0  0  0
 17 18  1  0  0  0  0
 18 16  1  0  0  0  0
 19 20  2  0  0  0  0
 21 10  1  0  0  0  0
 22 21  1  0  0  0  0
 23 22  1  0  0  0  0
 24 25  1  0  0  0  0
 25 23  1  0  0  0  0
M  END
>  <MODEL>
3

>  <REMARK>
 VINA RESULT:      -6.6      2.780      6.292
  Name = 
  6 active torsions:
  status: ('A' for Active; 'I' for Inactive)
    1  A    between atoms: C_6  and  N_11
    2  A    between atoms: C_6  and  C_18
    3  A    between atoms: C_7  and  C_8
    4  A    between atoms: N_11  and  C_16
    5  A    between atoms: C_12  and  C_20
    6  A    between atoms: C_16  and  N_24
                            x       y       z     vdW  Elec       q    Type
                         _______ _______ _______ _____ _____    ______ ____

>  <TORSDO>
F 6

$$$$
=
 OpenBabel11042418113D

 25 28  0  0  1  0  0  0  0  0999 V2000
  190.1830  173.6890  142.8090 C   0  0  0  0  0  0  0  0  0  0  0  0
  190.8850  173.3380  143.9230 N   0  0  0  0  0  2  0  0  0  0  0  0
  187.8990  176.1180  143.9890 C   0  0  0  0  0  0  0  0  0  0  0  0
  189.6850  174.8270  145.3430 C   0  0  0  0  0  0  0  0  0  0  0  0
  190.4870  173.0560  141.4960 C   0  0  0  0  0  1  0  0  0  0  0  0
  186.1830  177.7870  144.2720 C   0  0  0  0  0  0  0  0  0  0  0  0
  188.3810  175.1360  141.9810 N   0  0  0  0  0  0  0  0  0  0  0  0
  190.6460  173.8800  145.1270 N   0  0  0  0  0  0  0  0  0  0  0  0
  188.9290  175.2300  144.2340 C   0  0  0  0  0  0  0  0  0  0  0  0
  185.8860  177.6920  142.8860 C   0  0  0  0  0  0  0  0  0  0  0  0
  187.6060  176.0290  142.6380 C   0  0  0  0  0  0  0  0  0  0  0  0
  187.2070  176.9890  144.8250 C   0  0  0  0  0  3  0  0  0  0  0  0
  189.1880  174.6440  142.9440 C   0  0  0  0  0  0  0  0  0  0  0  0
  186.6080  176.8090  142.0630 C   0  0  0  0  0  3  0  0  0  0  0  0
  184.1420  178.2850  145.4560 O   0  0  0  0  0  0  0  0  0  0  0  0
  184.4760  178.2080  146.8180 C   0  0  0  0  0  2  0  0  0  0  0  0
  185.4280  178.7590  145.1450 C   0  0  1  0  0  3  0  0  0  0  0  0
  185.8830  178.6850  146.5770 C   0  0  0  0  0  2  0  0  0  0  0  0
  189.5240  175.3420  146.7120 C   0  0  0  0  0  3  0  0  0  0  0  0
  188.9530  174.6950  147.6260 O   0  0  0  0  0  0  0  0  0  0  0  0
  184.8350  178.5460  142.2580 C   0  0  0  0  0  2  0  0  0  0  0  0
  184.7920  178.3020  140.8270 N   0  0  0  0  0  2  0  0  0  0  0  0
  183.3920  178.2580  140.4520 C   0  0  0  0  0  2  0  0  0  0  0  0
  181.1920  178.3400  141.2080 C   0  0  0  0  0  1  0  0  0  0  0  0
  182.5710  178.2470  141.6480 N   0  0  0  0  0  2  0  0  0  0  0  0
  1 13  2  0  0  0  0
  1  2  1  0  0  0  0
  2  8  1  0  0  0  0
  3  9  2  0  0  0  0
  3 12  1  0  0  0  0
  4 19  1  0  0  0  0
  5  1  1  0  0  0  0
  6 12  2  0  0  0  0
  7 11  2  0  0  0  0
  7 13  1  0  0  0  0
  8  4  2  0  0  0  0
  9  4  1  0  0  0  0
 10  6  1  0  0  0  0
 11  3  1  0  0  0  0
 13  9  1  0  0  0  0
 14 11  1  0  0  0  0
 14 10  2  0  0  0  0
 15 16  1  0  0  0  0
 17  6  1  6  0  0  0
 17 15  1  0  0  0  0
 17 18  1  0  0  0  0
 18 16  1  0  0  0  0
 19 20  2  0  0  0  0
 21 10  1  0  0  0  0
 22 21  1  0  0  0  0
 23 22  1  0  0  0  0
 23 25  1  0  0  0  0
 24 25  1  0  0  0  0
M  END
>  <MODEL>
4

>  <REMARK>
 VINA RESULT:      -6.5      2.588      2.872
  Name = 
  6 active torsions:
  status: ('A' for Active; 'I' for Inactive)
    1  A    between atoms: C_6  and  N_11
    2  A    between atoms: C_6  and  C_18
    3  A    between atoms: C_7  and  C_8
    4  A    between atoms: N_11  and  C_16
    5  A    between atoms: C_12  and  C_20
    6  A    between atoms: C_16  and  N_24
                            x       y       z     vdW  Elec       q    Type
                         _______ _______ _______ _____ _____    ______ ____

>  <TORSDO>
F 6

$$$$
=
 OpenBabel11042418113D

 25 28  0  0  1  0  0  0  0  0999 V2000
  184.5620  178.2970  144.9030 C   0  0  0  0  0  0  0  0  0  0  0  0
  184.0750  178.6040  143.6680 N   0  0  0  0  0  0  0  0  0  0  0  0
  187.5160  176.4790  144.2100 C   0  0  0  0  0  0  0  0  0  0  0  0
  185.8540  177.5140  142.5190 C   0  0  0  0  0  0  0  0  0  0  0  0
  183.8400  178.7370  146.1290 C   0  0  0  0  0  1  0  0  0  0  0  0
  189.5690  175.2190  144.2810 C   0  0  0  0  0  0  0  0  0  0  0  0
  186.3940  177.1630  146.0810 N   0  0  0  0  0  0  0  0  0  0  0  0
  184.6910  178.2300  142.5360 N   0  0  0  0  0  0  0  0  0  0  0  0
  186.4050  177.1670  143.7600 C   0  0  0  0  0  0  0  0  0  0  0  0
  189.5160  175.2450  145.7000 C   0  0  0  0  0  0  0  0  0  0  0  0
  187.4680  176.5030  145.5940 C   0  0  2  0  0  3  0  0  0  0  0  0
  188.5540  175.8490  143.5310 C   0  0  0  0  0  3  0  0  0  0  0  0
  185.7390  177.5700  144.9730 C   0  0  0  0  0  0  0  0  0  0  0  0
  188.4590  175.8970  146.3600 C   0  0  0  0  0  3  0  0  0  0  0  0
  190.5240  173.1580  143.4710 O   0  0  0  0  0  0  0  0  0  0  0  0
  190.4710  173.2500  142.0700 C   0  0  0  0  0  2  0  0  0  0  0  0
  190.7210  174.5450  143.5760 C   0  0  1  0  0  3  0  0  0  0  0  0
  190.6510  174.7440  142.0870 C   0  0  0  0  0  2  0  0  0  0  0  0
  186.4280  177.1660  141.2090 C   0  0  0  0  0  3  0  0  0  0  0  0
  186.3400  177.9140  140.2020 O   0  0  0  0  0  0  0  0  0  0  0  0
  190.5900  174.6200  146.5270 C   0  0  0  0  0  2  0  0  0  0  0  0
  190.9540  175.5100  147.6150 N   0  0  0  0  0  2  0  0  0  0  0  0
  191.9560  176.4200  147.0930 C   0  0  0  0  0  2  0  0  0  0  0  0
  194.2010  176.5940  146.5060 C   0  0  0  0  0  1  0  0  0  0  0  0
  193.0950  175.6620  146.6120 N   0  0  0  0  0  2  0  0  0  0  0  0
  1 13  1  0  0  0  0
  1  5  1  0  0  0  0
  2  1  2  0  0  0  0
  3 11  1  0  0  0  0
  4  8  2  0  0  0  0
  4  9  1  0  0  0  0
  6 10  1  0  0  0  0
  8  2  1  0  0  0  0
  9  3  2  0  0  0  0
  9 13  1  0  0  0  0
 10 14  2  0  0  0  0
 10 21  1  0  0  0  0
 11  7  1  0  0  0  0
 11 14  1  1  0  0  0
 12  3  1  0  0  0  0
 12  6  2  0  0  0  0
 13  7  2  0  0  0  0
 15 17  1  0  0  0  0
 16 18  1  0  0  0  0
 16 15  1  0  0  0  0
 17  6  1  1  0  0  0
 18 17  1  0  0  0  0
 19  4  1  0  0  0  0
 20 19  2  0  0  0  0
 21 22  1  0  0  0  0
 23 22  1  0  0  0  0
 24 25  1  0  0  0  0
 25 23  1  0  0  0  0
M  END
>  <MODEL>
5

>  <REMARK>
 VINA RESULT:      -6.3      2.769      7.610
  Name = 
  6 active torsions:
  status: ('A' for Active; 'I' for Inactive)
    1  A    between atoms: C_6  and  N_11
    2  A    between atoms: C_6  and  C_18
    3  A    between atoms: C_7  and  C_8
    4  A    between atoms: N_11  and  C_16
    5  A    between atoms: C_12  and  C_20
    6  A    between atoms: C_16  and  N_24
                            x       y       z     vdW  Elec       q    Type
                         _______ _______ _______ _____ _____    ______ ____

>  <TORSDO>
F 6

$$$$
=
 OpenBabel11042418113D

 25 28  0  0  1  0  0  0  0  0999 V2000
  185.2550  178.5580  146.2020 C   0  0  0  0  0  0  0  0  0  0  0  0
  184.2840  179.0430  145.3780 N   0  0  0  0  0  0  0  0  0  0  0  0
  187.2150  176.5220  144.0750 C   0  0  0  0  0  0  0  0  0  0  0  0
  185.1130  177.8980  143.4610 C   0  0  0  0  0  0  0  0  0  0  0  0
  185.2830  178.9400  147.6400 C   0  0  0  0  0  1  0  0  0  0  0  0
  188.8440  175.0500  143.0790 C   0  0  0  0  0  0  0  0  0  0  0  0
  187.2430  177.1190  146.2830 N   0  0  0  0  0  0  0  0  0  0  0  0
  184.2180  178.7280  144.0750 N   0  0  0  0  0  0  0  0  0  0  0  0
  186.1370  177.3660  144.2570 C   0  0  0  0  0  0  0  0  0  0  0  0
  189.4840  174.9330  144.3420 C   0  0  0  0  0  0  0  0  0  0  0  0
  187.8430  176.4040  145.3050 C   0  0  2  0  0  3  0  0  0  0  0  0
  187.6960  175.8610  142.9500 C   0  0  0  0  0  3  0  0  0  0  0  0
  186.2020  177.7070  145.6560 C   0  0  0  0  0  0  0  0  0  0  0  0
  188.9810  175.6190  145.4610 C   0  0  0  0  0  3  0  0  0  0  0  0
  189.0980  172.9660  141.8930 O   0  0  0  0  0  0  0  0  0  0  0  0
  188.3170  173.1020  140.7340 C   0  0  0  0  0  2  0  0  0  0  0  0
  189.4050  174.3370  141.8730 C   0  0  1  0  0  3  0  0  0  0  0  0
  188.5690  174.5830  140.6460 C   0  0  0  0  0  2  0  0  0  0  0  0
  184.9300  177.6320  142.0250 C   0  0  0  0  0  3  0  0  0  0  0  0
  185.6590  178.1390  141.1350 O   0  0  0  0  0  0  0  0  0  0  0  0
  190.7210  174.1140  144.5090 C   0  0  0  0  0  2  0  0  0  0  0  0
  191.7650  174.9180  145.1190 N   0  0  0  0  0  2  0  0  0  0  0  0
  192.3830  175.6810  144.0510 C   0  0  0  0  0  2  0  0  0  0  0  0
  191.5470  177.7530  143.3990 C   0  0  0  0  0  1  0  0  0  0  0  0
  192.3700  177.0900  144.3930 N   0  0  0  0  0  2  0  0  0  0  0  0
  1  5  1  0  0  0  0
  2  1  2  0  0  0  0
  3  9  2  0  0  0  0
  3 11  1  0  0  0  0
  4  8  2  0  0  0  0
  4  9  1  0  0  0  0
  6 10  1  0  0  0  0
  8  2  1  0  0  0  0
  9 13  1  0  0  0  0
 10 21  1  0  0  0  0
 10 14  2  0  0  0  0
 11 14  1  6  0  0  0
 11  7  1  0  0  0  0
 12  6  2  0  0  0  0
 12  3  1  0  0  0  0
 13  1  1  0  0  0  0
 13  7  2  0  0  0  0
 16 15  1  0  0  0  0
 17 15  1  0  0  0  0
 17  6  1  1  0  0  0
 18 16  1  0  0  0  0
 18 17  1  0  0  0  0
 19  4  1  0  0  0  0
 20 19  2  0  0  0  0
 21 22  1  0  0  0  0
 23 25  1  0  0  0  0
 23 22  1  0  0  0  0
 24 25  1  0  0  0  0
M  END
>  <MODEL>
6

>  <REMARK>
 VINA RESULT:      -6.3      2.963      7.067
  Name = 
  6 active torsions:
  status: ('A' for Active; 'I' for Inactive)
    1  A    between atoms: C_6  and  N_11
    2  A    between atoms: C_6  and  C_18
    3  A    between atoms: C_7  and  C_8
    4  A    between atoms: N_11  and  C_16
    5  A    between atoms: C_12  and  C_20
    6  A    between atoms: C_16  and  N_24
                            x       y       z     vdW  Elec       q    Type
                         _______ _______ _______ _____ _____    ______ ____

>  <TORSDO>
F 6

$$$$
=
 OpenBabel11042418113D

 25 28  0  0  1  0  0  0  0  0999 V2000
  185.6910  178.1490  142.1450 C   0  0  0  0  0  0  0  0  0  0  0  0
  184.6450  178.2700  143.0100 N   0  0  0  0  0  2  0  0  0  0  0  0
  188.4540  177.5120  144.2590 C   0  0  0  0  0  0  0  0  0  0  0  0
  185.9890  177.8950  144.9400 C   0  0  0  0  0  0  0  0  0  0  0  0
  185.4770  178.2910  140.6780 C   0  0  0  0  0  1  0  0  0  0  0  0
  190.6140  177.0580  145.2300 C   0  0  0  0  0  0  0  0  0  0  0  0
  188.1070  177.7330  142.0090 N   0  0  0  0  0  0  0  0  0  0  0  0
  184.7890  178.1490  144.3380 N   0  0  0  0  0  0  0  0  0  0  0  0
  187.1050  177.7600  144.1030 C   0  0  0  0  0  0  0  0  0  0  0  0
  191.1790  177.0520  143.9260 C   0  0  0  0  0  0  0  0  0  0  0  0
  189.0100  177.5040  142.9900 C   0  0  0  0  0  0  0  0  0  0  0  0
  189.2310  177.2880  145.3920 C   0  0  0  0  0  3  0  0  0  0  0  0
  186.9440  177.8910  142.6760 C   0  0  0  0  0  0  0  0  0  0  0  0
  190.3680  177.2720  142.7980 C   0  0  0  0  0  3  0  0  0  0  0  0
  190.7640  176.9420  147.6340 O   0  0  0  0  0  0  0  0  0  0  0  0
  190.9270  175.5790  147.9290 C   0  0  0  0  0  2  0  0  0  0  0  0
  191.4810  176.7910  146.4350 C   0  0  1  0  0  3  0  0  0  0  0  0
  191.6840  175.3160  146.6550 C   0  0  0  0  0  2  0  0  0  0  0  0
  186.0110  177.7860  146.4080 C   0  0  0  0  0  3  0  0  0  0  0  0
  185.5630  176.7890  147.0290 O   0  0  0  0  0  0  0  0  0  0  0  0
  192.6300  176.7770  143.7130 C   0  0  0  0  0  2  0  0  0  0  0  0
  192.8030  175.9150  142.5560 N   0  0  0  0  0  2  0  0  0  0  0  0
  193.5080  174.7340  143.0170 C   0  0  0  0  0  2  0  0  0  0  0  0
  193.2800  172.8240  144.3280 C   0  0  0  0  0  1  0  0  0  0  0  0
  192.5500  173.7500  143.4830 N   0  0  0  0  0  2  0  0  0  0  0  0
  1 13  2  0  0  0  0
  1  2  1  0  0  0  0
  2  8  1  0  0  0  0
  3 12  1  0  0  0  0
  4 19  1  0  0  0  0
  5  1  1  0  0  0  0
  6 12  2  0  0  0  0
  7 13  1  0  0  0  0
  7 11  2  0  0  0  0
  8  4  2  0  0  0  0
  9  3  2  0  0  0  0
  9  4  1  0  0  0  0
 10  6  1  0  0  0  0
 11  3  1  0  0  0  0
 13  9  1  0  0  0  0
 14 11  1  0  0  0  0
 14 10  2  0  0  0  0
 15 16  1  0  0  0  0
 17  6  1  6  0  0  0
 17 18  1  0  0  0  0
 17 15  1  0  0  0  0
 18 16  1  0  0  0  0
 19 20  2  0  0  0  0
 21 10  1  0  0  0  0
 22 23  1  0  0  0  0
 22 21  1  0  0  0  0
 23 25  1  0  0  0  0
 25 24  1  0  0  0  0
M  END
>  <MODEL>
7

>  <REMARK>
 VINA RESULT:      -6.1      1.506      6.460
  Name = 
  6 active torsions:
  status: ('A' for Active; 'I' for Inactive)
    1  A    between atoms: C_6  and  N_11
    2  A    between atoms: C_6  and  C_18
    3  A    between atoms: C_7  and  C_8
    4  A    between atoms: N_11  and  C_16
    5  A    between atoms: C_12  and  C_20
    6  A    between atoms: C_16  and  N_24
                            x       y       z     vdW  Elec       q    Type
                         _______ _______ _______ _____ _____    ______ ____

>  <TORSDO>
F 6

$$$$
=
 OpenBabel11042418113D

 25 28  0  0  1  0  0  0  0  0999 V2000
  183.1120  178.6460  142.1950 C   0  0  0  0  0  0  0  0  0  0  0  0
  183.1340  178.6360  140.8330 N   0  0  0  0  0  0  0  0  0  0  0  0
  186.3740  177.6130  143.0920 C   0  0  0  0  0  0  0  0  0  0  0  0
  185.4010  177.9160  140.7140 C   0  0  0  0  0  0  0  0  0  0  0  0
  181.8770  179.0410  142.9260 C   0  0  0  0  0  1  0  0  0  0  0  0
  188.4110  176.9750  144.2130 C   0  0  0  0  0  0  0  0  0  0  0  0
  184.4670  178.2230  144.1990 N   0  0  0  0  0  0  0  0  0  0  0  0
  184.2230  178.2880  140.1310 N   0  0  0  0  0  0  0  0  0  0  0  0
  185.4420  177.9060  142.1160 C   0  0  0  0  0  0  0  0  0  0  0  0
  187.7680  177.1830  145.4630 C   0  0  0  0  0  0  0  0  0  0  0  0
  185.7510  177.8160  144.3140 C   0  0  2  0  0  3  0  0  0  0  0  0
  187.6990  177.1980  143.0150 C   0  0  0  0  0  3  0  0  0  0  0  0
  184.2680  178.2800  142.8650 C   0  0  0  0  0  0  0  0  0  0  0  0
  186.4290  177.6110  145.5110 C   0  0  0  0  0  3  0  0  0  0  0  0
  190.3040  176.3820  142.8430 O   0  0  0  0  0  0  0  0  0  0  0  0
  191.2200  177.4360  143.0000 C   0  0  0  0  0  2  0  0  0  0  0  0
  189.8560  176.5450  144.1640 C   0  0  1  0  0  3  0  0  0  0  0  0
  190.7860  177.7010  144.4160 C   0  0  0  0  0  2  0  0  0  0  0  0
  186.5220  177.5570  139.8310 C   0  0  0  0  0  3  0  0  0  0  0  0
  186.3960  176.8000  138.8360 O   0  0  0  0  0  0  0  0  0  0  0  0
  188.4980  176.9920  146.7500 C   0  0  0  0  0  2  0  0  0  0  0  0
  188.2490  175.6560  147.2630 N   0  0  0  0  0  2  0  0  0  0  0  0
  189.5270  174.9700  147.2780 C   0  0  0  0  0  2  0  0  0  0  0  0
  191.8320  175.2910  147.2590 C   0  0  0  0  0  1  0  0  0  0  0  0
  190.5750  175.9060  147.6380 N   0  0  0  0  0  2  0  0  0  0  0  0
  1 13  1  0  0  0  0
  1  5  1  0  0  0  0
  2  1  2  0  0  0  0
  3 11  1  0  0  0  0
  4  9  1  0  0  0  0
  6 10  1  0  0  0  0
  7 11  1  0  0  0  0
  8  4  2  0  0  0  0
  8  2  1  0  0  0  0
  9 13  1  0  0  0  0
  9  3  2  0  0  0  0
 10 14  2  0  0  0  0
 10 21  1  0  0  0  0
 11 14  1  6  0  0  0
 12  3  1  0  0  0  0
 12  6  2  0  0  0  0
 13  7  2  0  0  0  0
 15 16  1  0  0  0  0
 15 17  1  0  0  0  0
 16 18  1  0  0  0  0
 17  6  1  6  0  0  0
 17 18  1  0  0  0  0
 19  4  1  0  0  0  0
 20 19  2  0  0  0  0
 21 22  1  0  0  0  0
 22 23  1  0  0  0  0
 23 25  1  0  0  0  0
 24 25  1  0  0  0  0
M  END
>  <MODEL>
8

>  <REMARK>
 VINA RESULT:      -6.1      2.597      7.834
  Name = 
  6 active torsions:
  status: ('A' for Active; 'I' for Inactive)
    1  A    between atoms: C_6  and  N_11
    2  A    between atoms: C_6  and  C_18
    3  A    between atoms: C_7  and  C_8
    4  A    between atoms: N_11  and  C_16
    5  A    between atoms: C_12  and  C_20
    6  A    between atoms: C_16  and  N_24
                            x       y       z     vdW  Elec       q    Type
                         _______ _______ _______ _____ _____    ______ ____

>  <TORSDO>
F 6

$$$$
=
 OpenBabel11042418113D

 25 28  0  0  1  0  0  0  0  0999 V2000
  186.1370  177.2540  139.8120 C   0  0  0  0  0  0  0  0  0  0  0  0
  184.9350  177.8940  139.7740 N   0  0  0  0  0  0  0  0  0  0  0  0
  186.8490  177.0200  143.2690 C   0  0  0  0  0  0  0  0  0  0  0  0
  184.7760  178.0800  142.1430 C   0  0  0  0  0  0  0  0  0  0  0  0
  186.8110  176.8400  138.5510 C   0  0  0  0  0  1  0  0  0  0  0  0
  187.7860  176.6070  145.4510 C   0  0  0  0  0  0  0  0  0  0  0  0
  187.8700  176.3900  141.3220 N   0  0  0  0  0  0  0  0  0  0  0  0
  184.2900  178.2870  140.8830 N   0  0  0  0  0  0  0  0  0  0  0  0
  186.0110  177.4250  142.2490 C   0  0  0  0  0  0  0  0  0  0  0  0
  188.9030  175.9820  144.8340 C   0  0  0  0  0  0  0  0  0  0  0  0
  187.9410  176.4100  142.6720 C   0  0  2  0  0  3  0  0  0  0  0  0
  186.7460  177.1270  144.6520 C   0  0  0  0  0  3  0  0  0  0  0  0
  186.7000  177.0070  141.0540 C   0  0  0  0  0  0  0  0  0  0  0  0
  188.9770  175.8800  143.4340 C   0  0  0  0  0  3  0  0  0  0  0  0
  187.9910  177.9780  147.4240 O   0  0  0  0  0  0  0  0  0  0  0  0
  186.6810  178.1250  147.9110 C   0  0  0  0  0  2  0  0  0  0  0  0
  187.6950  176.6870  146.9550 C   0  0  1  0  0  3  0  0  0  0  0  0
  186.2660  176.7640  147.4200 C   0  0  0  0  0  2  0  0  0  0  0  0
  183.9700  178.5590  143.2770 C   0  0  0  0  0  3  0  0  0  0  0  0
  184.3400  179.4900  144.0370 O   0  0  0  0  0  0  0  0  0  0  0  0
  190.0040  175.3880  145.6480 C   0  0  0  0  0  2  0  0  0  0  0  0
  190.6450  174.3180  144.9030 N   0  0  0  0  0  2  0  0  0  0  0  0
  192.0610  174.6270  144.8610 C   0  0  0  0  0  2  0  0  0  0  0  0
  193.5140  175.6020  146.3970 C   0  0  0  0  0  1  0  0  0  0  0  0
  192.6300  174.4720  146.1860 N   0  0  0  0  0  2  0  0  0  0  0  0
  1 13  1  0  0  0  0
  2  1  2  0  0  0  0
  2  8  1  0  0  0  0
  3 12  1  0  0  0  0
  4  9  1  0  0  0  0
  4 19  1  0  0  0  0
  5  1  1  0  0  0  0
  7 11  1  0  0  0  0
  8  4  2  0  0  0  0
  9  3  2  0  0  0  0
 10  6  1  0  0  0  0
 10 21  1  0  0  0  0
 11  3  1  0  0  0  0
 11 14  1  1  0  0  0
 12  6  2  0  0  0  0
 13  7  2  0  0  0  0
 13  9  1  0  0  0  0
 14 10  2  0  0  0  0
 15 16  1  0  0  0  0
 17  6  1  6  0  0  0
 17 18  1  0  0  0  0
 17 15  1  0  0  0  0
 18 16  1  0  0  0  0
 19 20  2  0  0  0  0
 22 21  1  0  0  0  0
 23 22  1  0  0  0  0
 23 25  1  0  0  0  0
 25 24  1  0  0  0  0
M  END
>  <MODEL>
9

>  <REMARK>
 VINA RESULT:      -5.8      2.022      6.787
  Name = 
  6 active torsions:
  status: ('A' for Active; 'I' for Inactive)
    1  A    between atoms: C_6  and  N_11
    2  A    between atoms: C_6  and  C_18
    3  A    between atoms: C_7  and  C_8
    4  A    between atoms: N_11  and  C_16
    5  A    between atoms: C_12  and  C_20
    6  A    between atoms: C_16  and  N_24
                            x       y       z     vdW  Elec       q    Type
                         _______ _______ _______ _____ _____    ______ ____

>  <TORSDO>
F 6

$$$$
