=
 OpenBabel11042413453D

 30 34  0  0  1  0  0  0  0  0999 V2000
  189.5410  177.1940  144.8240 C   0  0  0  0  0  0  0  0  0  0  0  0
  184.4250  178.3180  141.7200 C   0  0  0  0  0  0  0  0  0  0  0  0
  184.3420  177.6200  146.6110 C   0  0  0  0  0  3  0  0  0  0  0  0
  188.2050  177.7200  143.1850 C   0  0  0  0  0  0  0  0  0  0  0  0
  184.1820  178.6210  145.5140 C   0  0  0  0  0  2  0  0  0  0  0  0
  186.1490  177.9220  144.1210 C   0  0  0  0  0  0  0  0  0  0  0  0
  186.8250  177.2690  146.4020 C   0  0  0  0  0  2  0  0  0  0  0  0
  185.4970  177.0960  147.0210 C   0  0  0  0  0  3  0  0  0  0  0  0
  190.2970  177.1380  143.5470 C   0  0  0  0  0  3  0  0  0  0  0  0
  188.3090  177.5430  144.5100 C   0  0  0  0  0  0  0  0  0  0  0  0
  183.9800  178.4080  143.0510 C   0  0  0  0  0  3  0  0  0  0  0  0
  189.4750  177.4570  142.5310 C   0  0  0  0  0  3  0  0  0  0  0  0
  187.0700  177.6270  145.1380 C   0  0  0  0  0  0  0  0  0  0  0  0
  184.7780  178.2190  144.2050 C   0  0  0  0  0  0  0  0  0  0  0  0
  186.8920  177.9290  142.8680 C   0  0  2  0  0  3  0  0  0  0  0  0
  186.0820  178.0890  141.4090 S   0  0  0  0  0  0  0  0  0  0  0  0
  190.1840  177.8460  147.0140 O   0  0  0  0  0  1  0  0  0  0  0  0
  190.0240  176.7480  146.1680 C   0  0  2  0  0  3  0  0  0  0  0  0
  193.3970  175.5050  146.1460 C   0  0  0  0  0  3  0  0  0  0  0  0
  191.4640  174.6940  145.6540 C   0  0  0  0  0  0  0  0  0  0  0  0
  190.3810  173.7520  145.2460 C   0  0  0  0  0  1  0  0  0  0  0  0
  193.4020  173.1280  145.3840 C   0  0  0  0  0  1  0  0  0  0  0  0
  192.5240  176.5150  146.3700 N   0  0  0  0  0  0  0  0  0  0  0  0
  192.7690  174.3940  145.7110 N   0  0  0  0  0  0  0  0  0  0  0  0
  191.3150  176.0010  146.0540 C   0  0  0  0  0  0  0  0  0  0  0  0
  183.4750  178.5390  140.5950 C   0  0  0  0  0  2  0  0  0  0  0  0
  182.2200  177.8610  140.8740 N   0  0  0  0  0  2  0  0  0  0  0  0
  180.9720  178.5520  140.8710 C   0  0  0  0  0  0  0  0  0  0  0  0
  179.8010  177.8570  141.1430 O   0  0  0  0  0  1  0  0  0  0  0  0
  180.9220  179.7870  140.6240 O   0  0  0  0  0  0  0  0  0  0  0  0
  1 18  1  0  0  0  0
  2 11  2  0  0  0  0
  3  8  2  0  0  0  0
  4 10  1  0  0  0  0
  5  3  1  0  0  0  0
  6 14  2  0  0  0  0
  6 13  1  0  0  0  0
  7  8  1  0  0  0  0
  9  1  2  0  0  0  0
 10  1  1  0  0  0  0
 10 13  2  0  0  0  0
 11 14  1  0  0  0  0
 12  4  2  0  0  0  0
 12  9  1  0  0  0  0
 13  7  1  0  0  0  0
 14  5  1  0  0  0  0
 15 16  1  6  0  0  0
 15  4  1  0  0  0  0
 15  6  1  0  0  0  0
 16  2  1  0  0  0  0
 18 17  1  1  0  0  0
 19 23  2  0  0  0  0
 20 24  1  0  0  0  0
 20 25  2  0  0  0  0
 21 20  1  0  0  0  0
 22 24  1  0  0  0  0
 24 19  1  0  0  0  0
 25 18  1  0  0  0  0
 25 23  1  0  0  0  0
 26 27  1  0  0  0  0
 26  2  1  0  0  0  0
 28 27  1  0  0  0  0
 28 29  1  0  0  0  0
 30 28  2  0  0  0  0
M  END
>  <MODEL>
1

>  <REMARK>
 VINA RESULT:      -9.2      0.000      0.000
  Name = 
  4 active torsions:
  status: ('A' for Active; 'I' for Inactive)
    1  A    between atoms: C_2  and  C_26
    2  A    between atoms: C_3  and  C_9
    3  A    between atoms: C_9  and  N_11
    4  A    between atoms: C_26  and  C_30
                            x       y       z     vdW  Elec       q    Type
                         _______ _______ _______ _____ _____    ______ ____

>  <TORSDO>
F 4

$$$$
=
 OpenBabel11042413453D

 30 34  0  0  1  0  0  0  0  0999 V2000
  190.4590  177.0350  145.1340 C   0  0  0  0  0  0  0  0  0  0  0  0
  185.3030  178.1460  142.0910 C   0  0  0  0  0  0  0  0  0  0  0  0
  185.2330  176.9700  146.8910 C   0  0  0  0  0  3  0  0  0  0  0  0
  189.1040  177.6360  143.5370 C   0  0  0  0  0  0  0  0  0  0  0  0
  185.0180  178.0620  145.8930 C   0  0  0  0  0  2  0  0  0  0  0  0
  187.0330  177.6220  144.4630 C   0  0  0  0  0  0  0  0  0  0  0  0
  187.7340  176.7920  146.6780 C   0  0  0  0  0  2  0  0  0  0  0  0
  186.4150  176.4790  147.2610 C   0  0  0  0  0  3  0  0  0  0  0  0
  191.2250  177.1480  143.8660 C   0  0  0  0  0  3  0  0  0  0  0  0
  189.2100  177.3370  144.8400 C   0  0  0  0  0  0  0  0  0  0  0  0
  184.8450  178.0780  143.4200 C   0  0  0  0  0  3  0  0  0  0  0  0
  190.3910  177.5160  142.8760 C   0  0  0  0  0  3  0  0  0  0  0  0
  187.9640  177.2850  145.4580 C   0  0  0  0  0  0  0  0  0  0  0  0
  185.6460  177.8260  144.5590 C   0  0  0  0  0  0  0  0  0  0  0  0
  187.7820  177.7960  143.2250 C   0  0  2  0  0  3  0  0  0  0  0  0
  186.9740  178.0480  141.7790 S   0  0  0  0  0  0  0  0  0  0  0  0
  190.8850  177.4650  147.4280 O   0  0  0  0  0  1  0  0  0  0  0  0
  190.9600  176.4890  146.4340 C   0  0  2  0  0  3  0  0  0  0  0  0
  194.5020  175.8740  146.4470 C   0  0  0  0  0  3  0  0  0  0  0  0
  192.7640  174.7970  145.7710 C   0  0  0  0  0  0  0  0  0  0  0  0
  191.8830  173.7320  145.2090 C   0  0  0  0  0  1  0  0  0  0  0  0
  194.9620  173.6410  145.4310 C   0  0  0  0  0  1  0  0  0  0  0  0
  193.4540  176.6800  146.7350 N   0  0  0  0  0  0  0  0  0  0  0  0
  194.1000  174.7280  145.8620 N   0  0  0  0  0  0  0  0  0  0  0  0
  192.3690  176.0010  146.3040 C   0  0  0  0  0  0  0  0  0  0  0  0
  184.3490  178.4170  140.9820 C   0  0  0  0  0  2  0  0  0  0  0  0
  182.9960  178.4930  141.5070 N   0  0  0  0  0  2  0  0  0  0  0  0
  181.8750  177.9860  140.7830 C   0  0  0  0  0  0  0  0  0  0  0  0
  180.6030  178.0830  141.3300 O   0  0  0  0  0  1  0  0  0  0  0  0
  182.0300  177.4510  139.6530 O   0  0  0  0  0  0  0  0  0  0  0  0
  1 18  1  0  0  0  0
  2 11  2  0  0  0  0
  3  8  2  0  0  0  0
  4 10  1  0  0  0  0
  5  3  1  0  0  0  0
  6 14  2  0  0  0  0
  6 13  1  0  0  0  0
  7  8  1  0  0  0  0
  9  1  2  0  0  0  0
 10  1  1  0  0  0  0
 10 13  2  0  0  0  0
 11 14  1  0  0  0  0
 12  4  2  0  0  0  0
 12  9  1  0  0  0  0
 13  7  1  0  0  0  0
 14  5  1  0  0  0  0
 15 16  1  6  0  0  0
 15  4  1  0  0  0  0
 15  6  1  0  0  0  0
 16  2  1  0  0  0  0
 18 17  1  1  0  0  0
 19 23  2  0  0  0  0
 20 24  1  0  0  0  0
 20 25  2  0  0  0  0
 21 20  1  0  0  0  0
 22 24  1  0  0  0  0
 24 19  1  0  0  0  0
 25 18  1  0  0  0  0
 25 23  1  0  0  0  0
 26 27  1  0  0  0  0
 26  2  1  0  0  0  0
 28 29  1  0  0  0  0
 28 27  1  0  0  0  0
 30 28  2  0  0  0  0
M  END
>  <MODEL>
2

>  <REMARK>
 VINA RESULT:      -8.5      1.080      1.188
  Name = 
  4 active torsions:
  status: ('A' for Active; 'I' for Inactive)
    1  A    between atoms: C_2  and  C_26
    2  A    between atoms: C_3  and  C_9
    3  A    between atoms: C_9  and  N_11
    4  A    between atoms: C_26  and  C_30
                            x       y       z     vdW  Elec       q    Type
                         _______ _______ _______ _____ _____    ______ ____

>  <TORSDO>
F 4

$$$$
=
 OpenBabel11042413453D

 30 34  0  0  1  0  0  0  0  0999 V2000
  191.7900  176.5910  145.0550 C   0  0  0  0  0  0  0  0  0  0  0  0
  186.5780  178.0790  142.2810 C   0  0  0  0  0  0  0  0  0  0  0  0
  186.6220  176.5450  146.9790 C   0  0  0  0  0  3  0  0  0  0  0  0
  190.4040  177.3500  143.5550 C   0  0  0  0  0  0  0  0  0  0  0  0
  186.4110  177.7160  146.0730 C   0  0  0  0  0  2  0  0  0  0  0  0
  188.3650  177.3260  144.5470 C   0  0  0  0  0  0  0  0  0  0  0  0
  189.1090  176.3110  146.6690 C   0  0  0  0  0  2  0  0  0  0  0  0
  187.7990  175.9940  147.2710 C   0  0  0  0  0  3  0  0  0  0  0  0
  192.5180  176.7780  143.7740 C   0  0  0  0  0  3  0  0  0  0  0  0
  190.5420  176.9510  144.8270 C   0  0  0  0  0  0  0  0  0  0  0  0
  186.1600  177.9240  143.6150 C   0  0  0  0  0  3  0  0  0  0  0  0
  191.6660  177.2430  142.8440 C   0  0  0  0  0  3  0  0  0  0  0  0
  189.3150  176.8890  145.4820 C   0  0  0  0  0  0  0  0  0  0  0  0
  186.9880  177.5630  144.7040 C   0  0  0  0  0  0  0  0  0  0  0  0
  189.0790  177.5710  143.3010 C   0  0  2  0  0  3  0  0  0  0  0  0
  188.2340  177.9560  141.9060 S   0  0  0  0  0  0  0  0  0  0  0  0
  192.5290  176.8850  147.2910 O   0  0  0  0  0  1  0  0  0  0  0  0
  192.3140  175.9340  146.2930 C   0  0  2  0  0  3  0  0  0  0  0  0
  195.6590  174.6730  145.9170 C   0  0  0  0  0  3  0  0  0  0  0  0
  193.6880  173.9440  145.4510 C   0  0  0  0  0  0  0  0  0  0  0  0
  192.5670  173.0670  145.0010 C   0  0  0  0  0  1  0  0  0  0  0  0
  195.5810  172.4040  144.8790 C   0  0  0  0  0  1  0  0  0  0  0  0
  194.8180  175.6560  146.3120 N   0  0  0  0  0  0  0  0  0  0  0  0
  194.9890  173.6280  145.3920 N   0  0  0  0  0  0  0  0  0  0  0  0
  193.5840  175.1950  146.0120 C   0  0  0  0  0  0  0  0  0  0  0  0
  185.5980  178.4610  141.2280 C   0  0  0  0  0  2  0  0  0  0  0  0
  184.2630  178.5220  141.8000 N   0  0  0  0  0  2  0  0  0  0  0  0
  183.1070  178.1290  141.0610 C   0  0  0  0  0  0  0  0  0  0  0  0
  181.8540  178.2060  141.6540 O   0  0  0  0  0  1  0  0  0  0  0  0
  183.2120  177.7130  139.8760 O   0  0  0  0  0  0  0  0  0  0  0  0
  1 18  1  0  0  0  0
  2 11  2  0  0  0  0
  3  8  2  0  0  0  0
  4 10  1  0  0  0  0
  5  3  1  0  0  0  0
  6 14  2  0  0  0  0
  6 13  1  0  0  0  0
  7  8  1  0  0  0  0
  9  1  2  0  0  0  0
 10  1  1  0  0  0  0
 10 13  2  0  0  0  0
 11 14  1  0  0  0  0
 12  4  2  0  0  0  0
 12  9  1  0  0  0  0
 13  7  1  0  0  0  0
 14  5  1  0  0  0  0
 15 16  1  6  0  0  0
 15  4  1  0  0  0  0
 15  6  1  0  0  0  0
 16  2  1  0  0  0  0
 18 17  1  1  0  0  0
 19 23  2  0  0  0  0
 20 25  2  0  0  0  0
 21 20  1  0  0  0  0
 22 24  1  0  0  0  0
 24 20  1  0  0  0  0
 24 19  1  0  0  0  0
 25 18  1  0  0  0  0
 25 23  1  0  0  0  0
 26 27  1  0  0  0  0
 26  2  1  0  0  0  0
 28 29  1  0  0  0  0
 28 27  1  0  0  0  0
 30 28  2  0  0  0  0
M  END
>  <MODEL>
3

>  <REMARK>
 VINA RESULT:      -8.2      1.617      2.383
  Name = 
  4 active torsions:
  status: ('A' for Active; 'I' for Inactive)
    1  A    between atoms: C_2  and  C_26
    2  A    between atoms: C_3  and  C_9
    3  A    between atoms: C_9  and  N_11
    4  A    between atoms: C_26  and  C_30
                            x       y       z     vdW  Elec       q    Type
                         _______ _______ _______ _____ _____    ______ ____

>  <TORSDO>
F 4

$$$$
=
 OpenBabel11042413453D

 30 34  0  0  1  0  0  0  0  0999 V2000
  192.1440  174.3920  145.5040 C   0  0  0  0  0  0  0  0  0  0  0  0
  186.9800  177.6100  145.7250 C   0  0  0  0  0  0  0  0  0  0  0  0
  188.3120  175.2000  141.6220 C   0  0  0  0  0  3  0  0  0  0  0  0
  190.4880  175.5680  146.2910 C   0  0  0  0  0  0  0  0  0  0  0  0
  187.3470  175.2370  142.7630 C   0  0  0  0  0  2  0  0  0  0  0  0
  188.9960  175.7280  144.5910 C   0  0  0  0  0  0  0  0  0  0  0  0
  190.3610  174.5300  142.9210 C   0  0  0  0  0  3  0  0  0  0  0  0
  189.5910  174.8330  141.6990 C   0  0  0  0  0  3  0  0  0  0  0  0
  192.4990  174.8790  146.8610 C   0  0  0  0  0  3  0  0  0  0  0  0
  190.9360  174.8550  145.2490 C   0  0  0  0  0  0  0  0  0  0  0  0
  186.8480  176.9380  144.4960 C   0  0  0  0  0  3  0  0  0  0  0  0
  191.4810  175.6100  147.3500 C   0  0  0  0  0  3  0  0  0  0  0  0
  190.0730  174.9380  144.1600 C   0  0  0  0  0  0  0  0  0  0  0  0
  187.7930  176.0460  143.9360 C   0  0  0  0  0  0  0  0  0  0  0  0
  189.3060  176.1630  145.9460 C   0  0  0  0  0  0  0  0  0  0  0  0
  188.3110  177.2620  146.7270 S   0  0  0  0  0  0  0  0  0  0  0  0
  193.2390  172.3670  144.9300 O   0  0  0  0  0  1  0  0  0  0  0  0
  193.0510  173.6930  144.5400 C   0  0  2  0  0  3  0  0  0  0  0  0
  196.4270  174.9100  144.7490 C   0  0  0  0  0  3  0  0  0  0  0  0
  194.6800  175.4310  143.6030 C   0  0  0  0  0  0  0  0  0  0  0  0
  193.7720  176.0890  142.6190 C   0  0  0  0  0  1  0  0  0  0  0  0
  196.7340  176.7910  143.1380 C   0  0  0  0  0  1  0  0  0  0  0  0
  195.4650  174.0530  145.1640 N   0  0  0  0  0  0  0  0  0  0  0  0
  195.9660  175.7520  143.8040 N   0  0  0  0  0  0  0  0  0  0  0  0
  194.3720  174.3890  144.4450 C   0  0  0  0  0  0  0  0  0  0  0  0
  185.9070  178.5270  146.1970 C   0  0  0  0  0  2  0  0  0  0  0  0
  184.7230  178.3630  145.3700 N   0  0  0  0  0  2  0  0  0  0  0  0
  184.4430  179.2280  144.2700 C   0  0  0  0  0  0  0  0  0  0  0  0
  183.2980  179.0270  143.5120 O   0  0  0  0  0  0  0  0  0  0  0  0
  185.2260  180.1720  143.9820 O   0  0  0  0  0  1  0  0  0  0  0  0
  1  9  1  0  0  0  0
  2 26  1  0  0  0  0
  2 16  1  0  0  0  0
  3  8  2  0  0  0  0
  3  5  1  0  0  0  0
  4 12  1  0  0  0  0
  5 14  1  0  0  0  0
  6 15  1  0  0  0  0
  7 13  2  0  0  0  0
  8  7  1  0  0  0  0
  9 12  2  0  0  0  0
 10  1  2  0  0  0  0
 10  4  1  0  0  0  0
 11  2  2  0  0  0  0
 13  6  1  0  0  0  0
 13 10  1  0  0  0  0
 14 11  1  0  0  0  0
 14  6  2  0  0  0  0
 15  4  2  0  0  0  0
 15 16  1  0  0  0  0
 18 17  1  1  0  0  0
 18  1  1  0  0  0  0
 19 23  2  0  0  0  0
 20 24  1  0  0  0  0
 20 25  2  0  0  0  0
 21 20  1  0  0  0  0
 22 24  1  0  0  0  0
 24 19  1  0  0  0  0
 25 18  1  0  0  0  0
 25 23  1  0  0  0  0
 27 26  1  0  0  0  0
 28 27  1  0  0  0  0
 29 28  2  0  0  0  0
 30 28  1  0  0  0  0
M  END
>  <MODEL>
4

>  <REMARK>
 VINA RESULT:      -7.7      3.047      4.897
  Name = 
  4 active torsions:
  status: ('A' for Active; 'I' for Inactive)
    1  A    between atoms: C_2  and  C_26
    2  A    between atoms: C_3  and  C_9
    3  A    between atoms: C_9  and  N_11
    4  A    between atoms: C_26  and  C_30
                            x       y       z     vdW  Elec       q    Type
                         _______ _______ _______ _____ _____    ______ ____

>  <TORSDO>
F 4

$$$$
=
 OpenBabel11042413453D

 30 34  0  0  1  0  0  0  0  0999 V2000
  193.1160  175.8510  144.7540 C   0  0  0  0  0  0  0  0  0  0  0  0
  187.6730  177.9900  143.0580 C   0  0  0  0  0  0  0  0  0  0  0  0
  188.2370  175.5230  147.3030 C   0  0  0  0  0  3  0  0  0  0  0  0
  191.5900  176.9330  143.6360 C   0  0  0  0  0  0  0  0  0  0  0  0
  187.9700  176.8590  146.6870 C   0  0  0  0  0  2  0  0  0  0  0  0
  189.6930  176.7500  144.8660 C   0  0  0  0  0  0  0  0  0  0  0  0
  190.6500  175.3040  146.6220 C   0  0  0  0  0  2  0  0  0  0  0  0
  189.4130  174.8980  147.3180 C   0  0  0  0  0  3  0  0  0  0  0  0
  193.6840  176.2820  143.4510 C   0  0  0  0  0  3  0  0  0  0  0  0
  191.8680  176.2770  144.7720 C   0  0  0  0  0  0  0  0  0  0  0  0
  187.4200  177.5740  144.3770 C   0  0  0  0  0  3  0  0  0  0  0  0
  192.7440  176.9470  142.7560 C   0  0  0  0  0  3  0  0  0  0  0  0
  190.7320  176.1090  145.5580 C   0  0  0  0  0  0  0  0  0  0  0  0
  188.3610  176.9790  145.2510 C   0  0  0  0  0  0  0  0  0  0  0  0
  190.2560  177.2300  143.6110 C   0  0  2  0  0  3  0  0  0  0  0  0
  189.2600  177.9120  142.4480 S   0  0  0  0  0  0  0  0  0  0  0  0
  194.7230  175.6370  146.4870 O   0  0  0  0  0  1  0  0  0  0  0  0
  193.7600  174.9430  145.7530 C   0  0  2  0  0  3  0  0  0  0  0  0
  195.8360  172.3870  144.3120 C   0  0  0  0  0  3  0  0  0  0  0  0
  193.7170  172.6880  144.5410 C   0  0  0  0  0  0  0  0  0  0  0  0
  192.2400  172.4760  144.5050 C   0  0  0  0  0  1  0  0  0  0  0  0
  194.3980  170.5610  143.4020 C   0  0  0  0  0  1  0  0  0  0  0  0
  195.7160  173.5770  144.9460 N   0  0  0  0  0  0  0  0  0  0  0  0
  194.6330  171.8360  144.0590 N   0  0  0  0  0  0  0  0  0  0  0  0
  194.3850  173.7620  145.0800 C   0  0  0  0  0  0  0  0  0  0  0  0
  186.5870  178.6010  142.2440 C   0  0  0  0  0  2  0  0  0  0  0  0
  185.5130  179.0480  143.1150 N   0  0  0  0  0  2  0  0  0  0  0  0
  184.1650  178.6160  142.9340 C   0  0  0  0  0  0  0  0  0  0  0  0
  183.1760  179.0720  143.7950 O   0  0  0  0  0  1  0  0  0  0  0  0
  183.8640  177.8250  142.0000 O   0  0  0  0  0  0  0  0  0  0  0  0
  1 10  1  0  0  0  0
  1 18  1  0  0  0  0
  2 11  2  0  0  0  0
  3  8  2  0  0  0  0
  4 10  1  0  0  0  0
  5  3  1  0  0  0  0
  6 14  2  0  0  0  0
  6 13  1  0  0  0  0
  7  8  1  0  0  0  0
  9  1  2  0  0  0  0
 10 13  2  0  0  0  0
 11 14  1  0  0  0  0
 12  9  1  0  0  0  0
 12  4  2  0  0  0  0
 13  7  1  0  0  0  0
 14  5  1  0  0  0  0
 15 16  1  6  0  0  0
 15  4  1  0  0  0  0
 15  6  1  0  0  0  0
 16  2  1  0  0  0  0
 18 17  1  6  0  0  0
 19 23  2  0  0  0  0
 20 25  2  0  0  0  0
 21 20  1  0  0  0  0
 22 24  1  0  0  0  0
 23 25  1  0  0  0  0
 24 19  1  0  0  0  0
 24 20  1  0  0  0  0
 25 18  1  0  0  0  0
 26  2  1  0  0  0  0
 26 27  1  0  0  0  0
 28 27  1  0  0  0  0
 28 29  1  0  0  0  0
 30 28  2  0  0  0  0
M  END
>  <MODEL>
5

>  <REMARK>
 VINA RESULT:      -7.5      2.486      3.896
  Name = 
  4 active torsions:
  status: ('A' for Active; 'I' for Inactive)
    1  A    between atoms: C_2  and  C_26
    2  A    between atoms: C_3  and  C_9
    3  A    between atoms: C_9  and  N_11
    4  A    between atoms: C_26  and  C_30
                            x       y       z     vdW  Elec       q    Type
                         _______ _______ _______ _____ _____    ______ ____

>  <TORSDO>
F 4

$$$$
=
 OpenBabel11042413453D

 30 34  0  0  1  0  0  0  0  0999 V2000
  192.4360  174.4040  145.2920 C   0  0  0  0  0  0  0  0  0  0  0  0
  187.4280  177.6160  143.9920 C   0  0  0  0  0  0  0  0  0  0  0  0
  189.1270  174.1670  140.8870 C   0  0  0  0  0  3  0  0  0  0  0  0
  190.7520  175.7680  145.5210 C   0  0  0  0  0  0  0  0  0  0  0  0
  188.0370  174.5230  141.8460 C   0  0  0  0  0  2  0  0  0  0  0  0
  189.4790  175.4750  143.6660 C   0  0  0  0  0  0  0  0  0  0  0  0
  190.9770  173.8540  142.5640 C   0  0  0  0  0  3  0  0  0  0  0  0
  190.3700  173.8210  141.2200 C   0  0  0  0  0  3  0  0  0  0  0  0
  192.6490  175.2380  146.5020 C   0  0  0  0  0  3  0  0  0  0  0  0
  191.2880  174.7930  144.7720 C   0  0  0  0  0  0  0  0  0  0  0  0
  187.4130  176.6370  142.9820 C   0  0  0  0  0  3  0  0  0  0  0  0
  191.6140  176.0850  146.6450 C   0  0  0  0  0  3  0  0  0  0  0  0
  190.5630  174.5870  143.6020 C   0  0  0  0  0  0  0  0  0  0  0  0
  188.3770  175.6160  142.8050 C   0  0  0  0  0  0  0  0  0  0  0  0
  189.6460  176.2580  144.8830 C   0  0  0  0  0  0  0  0  0  0  0  0
  188.6160  177.5390  145.2090 S   0  0  0  0  0  0  0  0  0  0  0  0
  193.5100  172.2930  145.4310 O   0  0  0  0  0  1  0  0  0  0  0  0
  193.4180  173.4600  144.6730 C   0  0  2  0  0  3  0  0  0  0  0  0
  196.8420  174.5410  144.8300 C   0  0  0  0  0  3  0  0  0  0  0  0
  195.1180  175.0850  143.6610 C   0  0  0  0  0  0  0  0  0  0  0  0
  194.2370  175.7360  142.6480 C   0  0  0  0  0  1  0  0  0  0  0  0
  197.2270  176.3340  143.1370 C   0  0  0  0  0  1  0  0  0  0  0  0
  195.8450  173.7450  145.2810 N   0  0  0  0  0  0  0  0  0  0  0  0
  196.4170  175.3600  143.8480 N   0  0  0  0  0  0  0  0  0  0  0  0
  194.7670  174.0950  144.5480 C   0  0  0  0  0  0  0  0  0  0  0  0
  186.3490  178.6380  144.0620 C   0  0  0  0  0  2  0  0  0  0  0  0
  185.2340  178.1210  144.8380 N   0  0  0  0  0  2  0  0  0  0  0  0
  185.0100  178.5150  146.1910 C   0  0  0  0  0  0  0  0  0  0  0  0
  183.9290  177.9910  146.8880 O   0  0  0  0  0  1  0  0  0  0  0  0
  185.7830  179.3320  146.7590 O   0  0  0  0  0  0  0  0  0  0  0  0
  1  9  1  0  0  0  0
  2 26  1  0  0  0  0
  2 16  1  0  0  0  0
  3  8  2  0  0  0  0
  3  5  1  0  0  0  0
  4 12  1  0  0  0  0
  5 14  1  0  0  0  0
  6 15  1  0  0  0  0
  7 13  2  0  0  0  0
  8  7  1  0  0  0  0
  9 12  2  0  0  0  0
 10  1  2  0  0  0  0
 10  4  1  0  0  0  0
 11  2  2  0  0  0  0
 13  6  1  0  0  0  0
 13 10  1  0  0  0  0
 14 11  1  0  0  0  0
 14  6  2  0  0  0  0
 15 16  1  0  0  0  0
 15  4  2  0  0  0  0
 18  1  1  0  0  0  0
 18 17  1  1  0  0  0
 19 23  2  0  0  0  0
 20 24  1  0  0  0  0
 20 25  2  0  0  0  0
 21 20  1  0  0  0  0
 22 24  1  0  0  0  0
 24 19  1  0  0  0  0
 25 18  1  0  0  0  0
 25 23  1  0  0  0  0
 26 27  1  0  0  0  0
 27 28  1  0  0  0  0
 28 30  2  0  0  0  0
 28 29  1  0  0  0  0
M  END
>  <MODEL>
6

>  <REMARK>
 VINA RESULT:      -7.3      3.230      5.340
  Name = 
  4 active torsions:
  status: ('A' for Active; 'I' for Inactive)
    1  A    between atoms: C_2  and  C_26
    2  A    between atoms: C_3  and  C_9
    3  A    between atoms: C_9  and  N_11
    4  A    between atoms: C_26  and  C_30
                            x       y       z     vdW  Elec       q    Type
                         _______ _______ _______ _____ _____    ______ ____

>  <TORSDO>
F 4

$$$$
=
 OpenBabel11042413453D

 30 34  0  0  1  0  0  0  0  0999 V2000
  188.6710  176.5840  143.7290 C   0  0  0  0  0  0  0  0  0  0  0  0
  194.4530  175.0320  144.8420 C   0  0  0  0  0  0  0  0  0  0  0  0
  191.0740  171.6210  143.6690 C   0  0  0  0  0  3  0  0  0  0  0  0
  190.8080  176.7600  144.1180 C   0  0  0  0  0  0  0  0  0  0  0  0
  192.2880  172.3560  143.2000 C   0  0  0  0  0  2  0  0  0  0  0  0
  191.6250  174.6480  143.9780 C   0  0  0  0  0  0  0  0  0  0  0  0
  189.4520  173.5440  143.5920 C   0  0  0  0  0  3  0  0  0  0  0  0
  189.8490  172.1340  143.7730 C   0  0  0  0  0  3  0  0  0  0  0  0
  188.9800  177.9860  144.1130 C   0  0  0  0  0  3  0  0  0  0  0  0
  189.8160  175.9300  143.7650 C   0  0  0  0  0  0  0  0  0  0  0  0
  193.9210  173.8260  144.3490 C   0  0  0  0  0  3  0  0  0  0  0  0
  190.2980  178.0980  144.3580 C   0  0  0  0  0  3  0  0  0  0  0  0
  190.2520  174.6100  143.6910 C   0  0  0  0  0  0  0  0  0  0  0  0
  192.5820  173.6200  143.9390 C   0  0  0  0  0  0  0  0  0  0  0  0
  191.9520  176.0320  144.2970 C   0  0  0  0  0  0  0  0  0  0  0  0
  193.4830  176.4300  144.8500 S   0  0  0  0  0  0  0  0  0  0  0  0
  187.0490  175.8030  142.1840 O   0  0  0  0  0  1  0  0  0  0  0  0
  187.3120  175.9880  143.5420 C   0  0  2  0  0  3  0  0  0  0  0  0
  184.5750  178.1620  144.3820 C   0  0  0  0  0  3  0  0  0  0  0  0
  186.0450  177.0520  145.4960 C   0  0  0  0  0  0  0  0  0  0  0  0
  186.8190  176.4530  146.6230 C   0  0  0  0  0  1  0  0  0  0  0  0
  184.4010  178.3590  146.8640 C   0  0  0  0  0  1  0  0  0  0  0  0
  185.3340  177.5450  143.4470 N   0  0  0  0  0  0  0  0  0  0  0  0
  184.9940  177.8730  145.6300 N   0  0  0  0  0  0  0  0  0  0  0  0
  186.2570  176.8560  144.1520 C   0  0  0  0  0  0  0  0  0  0  0  0
  195.8840  175.1110  145.2420 C   0  0  0  0  0  2  0  0  0  0  0  0
  196.7310  174.8420  144.0920 N   0  0  0  0  0  2  0  0  0  0  0  0
  197.1250  175.8720  143.1860 C   0  0  0  0  0  0  0  0  0  0  0  0
  197.9350  175.5610  142.1030 O   0  0  0  0  0  0  0  0  0  0  0  0
  196.7440  177.0600  143.3610 O   0  0  0  0  0  1  0  0  0  0  0  0
  1 10  2  0  0  0  0
  1  9  1  0  0  0  0
  2 16  1  0  0  0  0
  2 26  1  0  0  0  0
  3  8  2  0  0  0  0
  4 15  2  0  0  0  0
  4 12  1  0  0  0  0
  5  3  1  0  0  0  0
  5 14  1  0  0  0  0
  6 15  1  0  0  0  0
  7 13  2  0  0  0  0
  7  8  1  0  0  0  0
  9 12  2  0  0  0  0
 10  4  1  0  0  0  0
 11  2  2  0  0  0  0
 13 10  1  0  0  0  0
 13  6  1  0  0  0  0
 14  6  2  0  0  0  0
 14 11  1  0  0  0  0
 15 16  1  0  0  0  0
 18 17  1  6  0  0  0
 18  1  1  0  0  0  0
 18 25  1  0  0  0  0
 19 24  1  0  0  0  0
 20 24  1  0  0  0  0
 20 21  1  0  0  0  0
 23 25  1  0  0  0  0
 23 19  2  0  0  0  0
 24 22  1  0  0  0  0
 25 20  2  0  0  0  0
 27 26  1  0  0  0  0
 28 30  1  0  0  0  0
 28 27  1  0  0  0  0
 29 28  2  0  0  0  0
M  END
>  <MODEL>
7

>  <REMARK>
 VINA RESULT:      -7.3      3.665      9.231
  Name = 
  4 active torsions:
  status: ('A' for Active; 'I' for Inactive)
    1  A    between atoms: C_2  and  C_26
    2  A    between atoms: C_3  and  C_9
    3  A    between atoms: C_9  and  N_11
    4  A    between atoms: C_26  and  C_30
                            x       y       z     vdW  Elec       q    Type
                         _______ _______ _______ _____ _____    ______ ____

>  <TORSDO>
F 4

$$$$
=
 OpenBabel11042413453D

 30 34  0  0  1  0  0  0  0  0999 V2000
  194.0720  175.0630  145.5080 C   0  0  0  0  0  0  0  0  0  0  0  0
  188.3430  177.0470  144.9410 C   0  0  0  0  0  0  0  0  0  0  0  0
  190.2210  173.7330  141.7920 C   0  0  0  0  0  3  0  0  0  0  0  0
  192.1930  176.0710  145.9540 C   0  0  0  0  0  0  0  0  0  0  0  0
  189.2510  173.9510  142.9090 C   0  0  0  0  0  2  0  0  0  0  0  0
  190.7290  175.3470  144.3800 C   0  0  0  0  0  0  0  0  0  0  0  0
  192.3430  173.9670  143.1250 C   0  0  0  0  0  3  0  0  0  0  0  0
  191.5470  173.6820  141.9150 C   0  0  0  0  0  3  0  0  0  0  0  0
  194.2940  176.0360  146.6080 C   0  0  0  0  0  3  0  0  0  0  0  0
  192.7980  175.1580  145.1810 C   0  0  0  0  0  0  0  0  0  0  0  0
  188.3770  175.9930  144.0110 C   0  0  0  0  0  3  0  0  0  0  0  0
  193.1370  176.6630  146.8840 C   0  0  0  0  0  3  0  0  0  0  0  0
  191.9550  174.6960  144.1750 C   0  0  0  0  0  0  0  0  0  0  0  0
  189.4970  175.1770  143.7240 C   0  0  0  0  0  0  0  0  0  0  0  0
  190.9180  176.2620  145.4980 C   0  0  0  0  0  0  0  0  0  0  0  0
  189.7010  177.3310  145.9280 S   0  0  0  0  0  0  0  0  0  0  0  0
  196.1130  173.8620  145.6660 O   0  0  0  0  0  1  0  0  0  0  0  0
  195.1220  174.2830  144.7790 C   0  0  2  0  0  3  0  0  0  0  0  0
  196.6470  176.7100  142.6110 C   0  0  0  0  0  3  0  0  0  0  0  0
  195.9940  174.6700  142.4030 C   0  0  0  0  0  0  0  0  0  0  0  0
  195.7240  173.3150  141.8370 C   0  0  0  0  0  1  0  0  0  0  0  0
  197.0160  175.6990  140.3590 C   0  0  0  0  0  1  0  0  0  0  0  0
  196.1440  176.3770  143.8220 N   0  0  0  0  0  0  0  0  0  0  0  0
  196.5630  175.6860  141.7390 N   0  0  0  0  0  0  0  0  0  0  0  0
  195.7310  175.0990  143.6830 C   0  0  0  0  0  0  0  0  0  0  0  0
  187.0940  177.8290  145.1430 C   0  0  0  0  0  2  0  0  0  0  0  0
  186.2610  177.7390  143.9560 N   0  0  0  0  0  2  0  0  0  0  0  0
  185.5430  178.8630  143.4490 C   0  0  0  0  0  0  0  0  0  0  0  0
  184.7620  178.7230  142.3110 O   0  0  0  0  0  0  0  0  0  0  0  0
  185.6120  179.9810  144.0260 O   0  0  0  0  0  1  0  0  0  0  0  0
  1  9  1  0  0  0  0
  2 26  1  0  0  0  0
  2 16  1  0  0  0  0
  3  8  2  0  0  0  0
  3  5  1  0  0  0  0
  4 12  1  0  0  0  0
  5 14  1  0  0  0  0
  6 15  1  0  0  0  0
  7 13  2  0  0  0  0
  8  7  1  0  0  0  0
  9 12  2  0  0  0  0
 10  1  2  0  0  0  0
 10  4  1  0  0  0  0
 11  2  2  0  0  0  0
 13  6  1  0  0  0  0
 13 10  1  0  0  0  0
 14 11  1  0  0  0  0
 14  6  2  0  0  0  0
 15 16  1  0  0  0  0
 15  4  2  0  0  0  0
 18  1  1  0  0  0  0
 18 17  1  1  0  0  0
 19 23  2  0  0  0  0
 20 25  2  0  0  0  0
 21 20  1  0  0  0  0
 22 24  1  0  0  0  0
 24 20  1  0  0  0  0
 24 19  1  0  0  0  0
 25 23  1  0  0  0  0
 25 18  1  0  0  0  0
 27 26  1  0  0  0  0
 28 27  1  0  0  0  0
 28 30  1  0  0  0  0
 29 28  2  0  0  0  0
M  END
>  <MODEL>
8

>  <REMARK>
 VINA RESULT:      -7.2      3.638      5.918
  Name = 
  4 active torsions:
  status: ('A' for Active; 'I' for Inactive)
    1  A    between atoms: C_2  and  C_26
    2  A    between atoms: C_3  and  C_9
    3  A    between atoms: C_9  and  N_11
    4  A    between atoms: C_26  and  C_30
                            x       y       z     vdW  Elec       q    Type
                         _______ _______ _______ _____ _____    ______ ____

>  <TORSDO>
F 4

$$$$
=
 OpenBabel11042413453D

 30 34  0  0  1  0  0  0  0  0999 V2000
  194.0140  175.7070  143.6140 C   0  0  0  0  0  0  0  0  0  0  0  0
  187.9420  176.1290  143.4420 C   0  0  0  0  0  0  0  0  0  0  0  0
  190.4370  176.8980  147.6380 C   0  0  0  0  0  3  0  0  0  0  0  0
  191.9810  175.7960  142.8340 C   0  0  0  0  0  0  0  0  0  0  0  0
  189.6310  177.5410  146.5560 C   0  0  0  0  0  2  0  0  0  0  0  0
  190.6790  176.3660  144.6020 C   0  0  0  0  0  0  0  0  0  0  0  0
  192.4900  176.3760  146.2780 C   0  0  0  0  0  2  0  0  0  0  0  0
  191.6900  176.4590  147.5150 C   0  0  0  0  0  3  0  0  0  0  0  0
  194.0160  175.2410  142.2030 C   0  0  0  0  0  3  0  0  0  0  0  0
  192.7630  176.0090  143.9020 C   0  0  0  0  0  0  0  0  0  0  0  0
  188.2300  176.6270  144.7260 C   0  0  0  0  0  3  0  0  0  0  0  0
  192.7620  175.2900  141.7190 C   0  0  0  0  0  3  0  0  0  0  0  0
  192.0150  176.3360  145.0290 C   0  0  0  0  0  0  0  0  0  0  0  0
  189.5190  176.7430  145.2980 C   0  0  0  0  0  0  0  0  0  0  0  0
  190.6750  175.9690  143.2000 C   0  0  2  0  0  3  0  0  0  0  0  0
  189.2240  175.7360  142.3940 S   0  0  0  0  0  0  0  0  0  0  0  0
  196.1080  176.6200  144.2540 O   0  0  0  0  0  1  0  0  0  0  0  0
  195.1600  175.6490  144.5750 C   0  0  2  0  0  3  0  0  0  0  0  0
  197.2080  172.7080  144.3010 C   0  0  0  0  0  3  0  0  0  0  0  0
  195.2540  173.1440  145.0940 C   0  0  0  0  0  0  0  0  0  0  0  0
  193.9280  172.9990  145.7630 C   0  0  0  0  0  1  0  0  0  0  0  0
  196.0120  170.7640  145.3100 C   0  0  0  0  0  1  0  0  0  0  0  0
  197.0240  174.0300  144.0770 N   0  0  0  0  0  0  0  0  0  0  0  0
  196.1440  172.1570  144.9160 N   0  0  0  0  0  0  0  0  0  0  0  0
  195.7950  174.2950  144.5720 C   0  0  0  0  0  0  0  0  0  0  0  0
  186.5350  176.0580  142.9630 C   0  0  0  0  0  2  0  0  0  0  0  0
  185.7090  176.9740  143.7320 N   0  0  0  0  0  2  0  0  0  0  0  0
  184.8290  177.9060  143.1030 C   0  0  0  0  0  0  0  0  0  0  0  0
  184.0610  178.7590  143.8840 O   0  0  0  0  0  1  0  0  0  0  0  0
  184.7430  177.9610  141.8470 O   0  0  0  0  0  0  0  0  0  0  0  0
  1 10  1  0  0  0  0
  1 18  1  0  0  0  0
  2 11  2  0  0  0  0
  4 15  1  0  0  0  0
  4 10  1  0  0  0  0
  5  3  1  0  0  0  0
  6 13  1  0  0  0  0
  6 14  2  0  0  0  0
  7  8  1  0  0  0  0
  8  3  2  0  0  0  0
  9  1  2  0  0  0  0
 10 13  2  0  0  0  0
 11 14  1  0  0  0  0
 12  9  1  0  0  0  0
 12  4  2  0  0  0  0
 13  7  1  0  0  0  0
 14  5  1  0  0  0  0
 15 16  1  1  0  0  0
 15  6  1  0  0  0  0
 16  2  1  0  0  0  0
 18 17  1  6  0  0  0
 19 24  1  0  0  0  0
 20 21  1  0  0  0  0
 23 19  2  0  0  0  0
 23 25  1  0  0  0  0
 24 20  1  0  0  0  0
 24 22  1  0  0  0  0
 25 18  1  0  0  0  0
 25 20  2  0  0  0  0
 26  2  1  0  0  0  0
 26 27  1  0  0  0  0
 28 27  1  0  0  0  0
 28 29  1  0  0  0  0
 30 28  2  0  0  0  0
M  END
>  <MODEL>
9

>  <REMARK>
 VINA RESULT:      -7.2      3.053      4.904
  Name = 
  4 active torsions:
  status: ('A' for Active; 'I' for Inactive)
    1  A    between atoms: C_2  and  C_26
    2  A    between atoms: C_3  and  C_9
    3  A    between atoms: C_9  and  N_11
    4  A    between atoms: C_26  and  C_30
                            x       y       z     vdW  Elec       q    Type
                         _______ _______ _______ _____ _____    ______ ____

>  <TORSDO>
F 4

$$$$
