=
 OpenBabel11042414483D

 28 31  0  0  0  0  0  0  0  0999 V2000
  189.1730  174.2300  140.7750 N   0  0  0  0  0  0  0  0  0  0  0  0
  189.1210  175.1040  143.0640 N   0  0  0  0  0  0  0  0  0  0  0  0
  184.7980  177.5900  145.1680 C   0  0  0  0  0  2  0  0  0  0  0  0
  187.1160  176.0260  142.9530 C   0  0  0  0  0  0  0  0  0  0  0  0
  188.1920  175.7950  143.7450 C   0  0  0  0  0  0  0  0  0  0  0  0
  186.5330  178.8330  147.2720 C   0  0  0  0  0  3  0  0  0  0  0  0
  185.9950  176.6970  143.4080 C   0  0  0  0  0  3  0  0  0  0  0  0
  188.2830  176.2980  145.0490 C   0  0  0  0  0  0  0  0  0  0  0  0
  185.9910  177.1800  144.7280 C   0  0  0  0  0  0  0  0  0  0  0  0
  188.5330  174.9320  141.8520 C   0  0  0  0  0  0  0  0  0  0  0  0
  187.2970  175.4830  141.7400 N   0  0  0  0  0  2  0  0  0  0  0  0
  184.4410  177.8240  146.5950 C   0  0  0  0  0  2  0  0  0  0  0  0
  187.1830  177.0770  145.5370 C   0  0  0  0  0  0  0  0  0  0  0  0
  185.2430  178.8750  147.1880 N   0  0  0  0  0  0  0  0  0  0  0  0
  187.3850  177.7960  146.6610 C   0  0  0  0  0  2  0  0  0  0  0  0
  193.1190  176.9340  145.7380 O   0  0  0  0  0  1  0  0  0  0  0  0
  191.8760  175.5550  147.2770 C   0  0  0  0  0  3  0  0  0  0  0  0
  190.7480  176.6210  145.4200 C   0  0  0  0  0  3  0  0  0  0  0  0
  189.5280  176.0620  145.8260 C   0  0  0  0  0  0  0  0  0  0  0  0
  191.9170  176.3720  146.1440 C   0  0  0  0  0  0  0  0  0  0  0  0
  190.6670  174.9850  147.6830 C   0  0  0  0  0  3  0  0  0  0  0  0
  189.4970  175.2350  146.9590 C   0  0  0  0  0  3  0  0  0  0  0  0
  188.5160  174.0850  139.4820 C   0  0  0  0  0  2  0  0  0  0  0  0
  189.5430  173.8010  138.4010 C   0  0  0  0  0  1  0  0  0  0  0  0
  190.5480  173.7710  140.9090 C   0  0  0  0  0  2  0  0  0  0  0  0
  190.1470  171.4220  140.9840 O   0  0  0  0  0  0  0  0  0  0  0  0
  191.1430  172.3160  142.8450 O   0  0  0  0  0  1  0  0  0  0  0  0
  190.5870  172.4400  141.5780 C   0  0  0  0  0  0  0  0  0  0  0  0
  1 25  1  0  0  0  0
  1 10  1  0  0  0  0
  2  5  1  0  0  0  0
  3 12  1  0  0  0  0
  4  7  2  0  0  0  0
  4  5  1  0  0  0  0
  5  8  2  0  0  0  0
  7  9  1  0  0  0  0
  8 13  1  0  0  0  0
  8 19  1  0  0  0  0
  9  3  1  0  0  0  0
  9 13  2  0  0  0  0
 10  2  2  0  0  0  0
 11 10  1  0  0  0  0
 11  4  1  0  0  0  0
 12 14  1  0  0  0  0
 13 15  1  0  0  0  0
 14  6  2  0  0  0  0
 15  6  1  0  0  0  0
 16 20  1  0  0  0  0
 17 21  1  0  0  0  0
 18 19  2  0  0  0  0
 18 20  1  0  0  0  0
 19 22  1  0  0  0  0
 20 17  2  0  0  0  0
 22 21  2  0  0  0  0
 23  1  1  0  0  0  0
 24 23  1  0  0  0  0
 25 28  1  0  0  0  0
 26 28  2  0  0  0  0
 28 27  1  0  0  0  0
M  END
>  <MODEL>
1

>  <REMARK>
 VINA RESULT:      -7.4      0.000      0.000
  Name = 
  4 active torsions:
  status: ('A' for Active; 'I' for Inactive)
    1  A    between atoms: C_1  and  N_6
    2  A    between atoms: N_6  and  C_28
    3  A    between atoms: C_15  and  C_20
    4  A    between atoms: C_17  and  C_28
                            x       y       z     vdW  Elec       q    Type
                         _______ _______ _______ _____ _____    ______ ____

>  <TORSDO>
F 4

$$$$
=
 OpenBabel11042414483D

 28 31  0  0  0  0  0  0  0  0999 V2000
  185.9010  177.5720  143.5730 N   0  0  0  0  0  0  0  0  0  0  0  0
  187.9280  176.3240  144.1570 N   0  0  0  0  0  0  0  0  0  0  0  0
  189.9050  172.3220  141.0960 C   0  0  0  0  0  2  0  0  0  0  0  0
  187.8430  174.8800  142.4860 C   0  0  0  0  0  0  0  0  0  0  0  0
  188.5390  175.2750  143.5810 C   0  0  0  0  0  0  0  0  0  0  0  0
  191.4650  171.2960  143.4400 C   0  0  0  0  0  3  0  0  0  0  0  0
  188.2630  173.8350  141.6840 C   0  0  0  0  0  3  0  0  0  0  0  0
  189.6790  174.5960  144.0290 C   0  0  0  0  0  0  0  0  0  0  0  0
  189.4330  173.1420  142.0390 C   0  0  0  0  0  0  0  0  0  0  0  0
  186.8600  176.5280  143.3430 C   0  0  0  0  0  0  0  0  0  0  0  0
  186.7700  175.6630  142.3000 N   0  0  0  0  0  2  0  0  0  0  0  0
  191.2740  171.7380  141.0690 C   0  0  0  0  0  2  0  0  0  0  0  0
  190.1030  173.4490  143.2820 C   0  0  0  0  0  0  0  0  0  0  0  0
  191.5220  170.8860  142.2140 N   0  0  0  0  0  0  0  0  0  0  0  0
  191.0080  172.6330  143.8610 C   0  0  0  0  0  2  0  0  0  0  0  0
  193.3990  176.8120  146.3780 O   0  0  0  0  0  1  0  0  0  0  0  0
  191.5990  175.8450  147.6590 C   0  0  0  0  0  3  0  0  0  0  0  0
  191.5650  175.7330  145.2420 C   0  0  0  0  0  3  0  0  0  0  0  0
  190.3410  175.0500  145.2800 C   0  0  0  0  0  0  0  0  0  0  0  0
  192.1900  176.1320  146.4260 C   0  0  0  0  0  0  0  0  0  0  0  0
  190.3840  175.1560  147.7080 C   0  0  0  0  0  3  0  0  0  0  0  0
  189.7590  174.7570  146.5230 C   0  0  0  0  0  3  0  0  0  0  0  0
  184.7570  177.7450  142.6870 C   0  0  0  0  0  2  0  0  0  0  0  0
  185.1740  178.4840  141.4290 C   0  0  0  0  0  1  0  0  0  0  0  0
  185.9760  178.3890  144.7760 C   0  0  0  0  0  2  0  0  0  0  0  0
  183.9530  178.7690  145.9780 O   0  0  0  0  0  0  0  0  0  0  0  0
  184.9580  176.7430  146.3480 O   0  0  0  0  0  1  0  0  0  0  0  0
  184.9120  177.9900  145.7400 C   0  0  0  0  0  0  0  0  0  0  0  0
  1 25  1  0  0  0  0
  3  9  1  0  0  0  0
  4  5  1  0  0  0  0
  5  8  2  0  0  0  0
  5  2  1  0  0  0  0
  6 15  1  0  0  0  0
  7  9  1  0  0  0  0
  7  4  2  0  0  0  0
  8 19  1  0  0  0  0
  9 13  2  0  0  0  0
 10  1  1  0  0  0  0
 10  2  2  0  0  0  0
 11  4  1  0  0  0  0
 11 10  1  0  0  0  0
 12  3  1  0  0  0  0
 12 14  1  0  0  0  0
 13 15  1  0  0  0  0
 13  8  1  0  0  0  0
 14  6  2  0  0  0  0
 16 20  1  0  0  0  0
 17 21  1  0  0  0  0
 18 19  2  0  0  0  0
 18 20  1  0  0  0  0
 19 22  1  0  0  0  0
 20 17  2  0  0  0  0
 22 21  2  0  0  0  0
 23  1  1  0  0  0  0
 24 23  1  0  0  0  0
 25 28  1  0  0  0  0
 28 26  2  0  0  0  0
 28 27  1  0  0  0  0
M  END
>  <MODEL>
2

>  <REMARK>
 VINA RESULT:      -7.2      2.875      5.985
  Name = 
  4 active torsions:
  status: ('A' for Active; 'I' for Inactive)
    1  A    between atoms: C_1  and  N_6
    2  A    between atoms: N_6  and  C_28
    3  A    between atoms: C_15  and  C_20
    4  A    between atoms: C_17  and  C_28
                            x       y       z     vdW  Elec       q    Type
                         _______ _______ _______ _____ _____    ______ ____

>  <TORSDO>
F 4

$$$$
=
 OpenBabel11042414483D

 28 31  0  0  0  0  0  0  0  0999 V2000
  192.9040  175.9550  145.2560 N   0  0  0  0  0  0  0  0  0  0  0  0
  190.6240  176.4380  144.4980 N   0  0  0  0  0  0  0  0  0  0  0  0
  186.8190  178.5010  147.7470 C   0  0  0  0  0  2  0  0  0  0  0  0
  189.8180  177.0630  146.4590 C   0  0  0  0  0  0  0  0  0  0  0  0
  189.5330  176.8820  145.1450 C   0  0  0  0  0  0  0  0  0  0  0  0
  184.6890  177.5400  145.8690 C   0  0  0  0  0  3  0  0  0  0  0  0
  188.8810  177.5410  147.3570 C   0  0  0  0  0  3  0  0  0  0  0  0
  188.2490  177.0780  144.6240 C   0  0  0  0  0  0  0  0  0  0  0  0
  187.5840  177.8160  146.8920 C   0  0  0  0  0  0  0  0  0  0  0  0
  191.5530  176.3830  145.4860 C   0  0  0  0  0  0  0  0  0  0  0  0
  191.1000  176.7610  146.7100 N   0  0  0  0  0  2  0  0  0  0  0  0
  185.5540  179.2040  147.3970 C   0  0  0  0  0  2  0  0  0  0  0  0
  187.2200  177.4880  145.5330 C   0  0  0  0  0  0  0  0  0  0  0  0
  184.5410  178.2890  146.9130 N   0  0  0  0  0  0  0  0  0  0  0  0
  185.9430  177.3970  145.1060 C   0  0  0  0  0  2  0  0  0  0  0  0
  188.1010  173.9450  140.8250 O   0  0  0  0  0  1  0  0  0  0  0  0
  187.5890  176.2730  140.4590 C   0  0  0  0  0  3  0  0  0  0  0  0
  188.1600  175.4890  142.6770 C   0  0  0  0  0  3  0  0  0  0  0  0
  188.0030  176.7860  143.1870 C   0  0  0  0  0  0  0  0  0  0  0  0
  187.9500  175.2320  141.3200 C   0  0  0  0  0  0  0  0  0  0  0  0
  187.4410  177.5700  140.9560 C   0  0  0  0  0  3  0  0  0  0  0  0
  187.6500  177.8270  142.3140 C   0  0  0  0  0  3  0  0  0  0  0  0
  193.8660  175.8910  146.3480 C   0  0  0  0  0  2  0  0  0  0  0  0
  194.5660  177.2280  146.5100 C   0  0  0  0  0  1  0  0  0  0  0  0
  193.3000  175.4400  143.9520 C   0  0  0  0  0  2  0  0  0  0  0  0
  194.7000  173.5320  143.6570 O   0  0  0  0  0  0  0  0  0  0  0  0
  192.6390  173.1160  144.5700 O   0  0  0  0  0  1  0  0  0  0  0  0
  193.5870  173.9800  144.0370 C   0  0  0  0  0  0  0  0  0  0  0  0
  1 10  1  0  0  0  0
  1 23  1  0  0  0  0
  2  5  1  0  0  0  0
  2 10  2  0  0  0  0
  4 11  1  0  0  0  0
  4  7  1  0  0  0  0
  5  4  2  0  0  0  0
  6 14  2  0  0  0  0
  8  5  1  0  0  0  0
  8 13  2  0  0  0  0
  9  7  2  0  0  0  0
  9  3  1  0  0  0  0
 10 11  1  0  0  0  0
 12  3  1  0  0  0  0
 13  9  1  0  0  0  0
 14 12  1  0  0  0  0
 15 13  1  0  0  0  0
 15  6  1  0  0  0  0
 16 20  1  0  0  0  0
 17 21  2  0  0  0  0
 17 20  1  0  0  0  0
 18 19  1  0  0  0  0
 19  8  1  0  0  0  0
 20 18  2  0  0  0  0
 21 22  1  0  0  0  0
 22 19  2  0  0  0  0
 23 24  1  0  0  0  0
 25 28  1  0  0  0  0
 25  1  1  0  0  0  0
 26 28  2  0  0  0  0
 28 27  1  0  0  0  0
M  END
>  <MODEL>
3

>  <REMARK>
 VINA RESULT:      -7.2      2.301      5.125
  Name = 
  4 active torsions:
  status: ('A' for Active; 'I' for Inactive)
    1  A    between atoms: C_1  and  N_6
    2  A    between atoms: N_6  and  C_28
    3  A    between atoms: C_15  and  C_20
    4  A    between atoms: C_17  and  C_28
                            x       y       z     vdW  Elec       q    Type
                         _______ _______ _______ _____ _____    ______ ____

>  <TORSDO>
F 4

$$$$
=
 OpenBabel11042414483D

 28 31  0  0  0  0  0  0  0  0999 V2000
  186.3360  177.2070  146.9440 N   0  0  0  0  0  0  0  0  0  0  0  0
  187.9750  176.0670  145.5220 N   0  0  0  0  0  0  0  0  0  0  0  0
  193.2950  176.1500  146.5140 C   0  0  0  0  0  2  0  0  0  0  0  0
  189.7820  176.7690  146.5820 C   0  0  0  0  0  0  0  0  0  0  0  0
  189.3170  176.0180  145.5540 C   0  0  0  0  0  0  0  0  0  0  0  0
  193.8410  175.3860  143.6680 C   0  0  0  0  0  3  0  0  0  0  0  0
  191.1310  176.8760  146.8660 C   0  0  0  0  0  3  0  0  0  0  0  0
  190.1710  175.3710  144.6520 C   0  0  0  0  0  0  0  0  0  0  0  0
  192.0470  176.2050  146.0370 C   0  0  0  0  0  0  0  0  0  0  0  0
  187.6820  176.8660  146.5800 C   0  0  0  0  0  0  0  0  0  0  0  0
  188.7660  177.3190  147.2630 N   0  0  0  0  0  2  0  0  0  0  0  0
  194.3630  175.2360  146.0250 C   0  0  0  0  0  2  0  0  0  0  0  0
  191.5830  175.5240  144.8510 C   0  0  0  0  0  0  0  0  0  0  0  0
  194.6930  175.4820  144.6360 N   0  0  0  0  0  0  0  0  0  0  0  0
  192.3940  175.1550  143.8380 C   0  0  0  0  0  2  0  0  0  0  0  0
  188.0550  175.2740  140.2050 O   0  0  0  0  0  1  0  0  0  0  0  0
  188.4200  173.2040  141.3870 C   0  0  0  0  0  3  0  0  0  0  0  0
  189.1000  175.3040  142.3790 C   0  0  0  0  0  3  0  0  0  0  0  0
  189.5810  174.6270  143.5090 C   0  0  0  0  0  0  0  0  0  0  0  0
  188.5250  174.5960  141.3210 C   0  0  0  0  0  0  0  0  0  0  0  0
  188.8880  172.5210  142.5130 C   0  0  0  0  0  3  0  0  0  0  0  0
  189.4640  173.2300  143.5710 C   0  0  0  0  0  3  0  0  0  0  0  0
  186.0650  178.0840  148.0750 C   0  0  0  0  0  2  0  0  0  0  0  0
  186.2440  179.5360  147.6690 C   0  0  0  0  0  1  0  0  0  0  0  0
  185.2200  176.7980  146.1020 C   0  0  0  0  0  2  0  0  0  0  0  0
  185.5030  178.0220  144.0760 O   0  0  0  0  0  0  0  0  0  0  0  0
  183.7970  178.7330  145.4320 O   0  0  0  0  0  1  0  0  0  0  0  0
  184.8620  177.8870  145.1510 C   0  0  0  0  0  0  0  0  0  0  0  0
  1 23  1  0  0  0  0
  2  5  1  0  0  0  0
  2 10  2  0  0  0  0
  4  7  1  0  0  0  0
  4 11  1  0  0  0  0
  5  4  2  0  0  0  0
  6 15  1  0  0  0  0
  6 14  2  0  0  0  0
  8 13  2  0  0  0  0
  8  5  1  0  0  0  0
  9  3  1  0  0  0  0
  9  7  2  0  0  0  0
 10  1  1  0  0  0  0
 10 11  1  0  0  0  0
 12  3  1  0  0  0  0
 13  9  1  0  0  0  0
 14 12  1  0  0  0  0
 15 13  1  0  0  0  0
 16 20  1  0  0  0  0
 17 21  1  0  0  0  0
 18 19  2  0  0  0  0
 19 22  1  0  0  0  0
 19  8  1  0  0  0  0
 20 17  2  0  0  0  0
 20 18  1  0  0  0  0
 21 22  2  0  0  0  0
 24 23  1  0  0  0  0
 25  1  1  0  0  0  0
 26 28  2  0  0  0  0
 28 27  1  0  0  0  0
 28 25  1  0  0  0  0
M  END
>  <MODEL>
4

>  <REMARK>
 VINA RESULT:      -7.2      3.215      7.138
  Name = 
  4 active torsions:
  status: ('A' for Active; 'I' for Inactive)
    1  A    between atoms: C_1  and  N_6
    2  A    between atoms: N_6  and  C_28
    3  A    between atoms: C_15  and  C_20
    4  A    between atoms: C_17  and  C_28
                            x       y       z     vdW  Elec       q    Type
                         _______ _______ _______ _____ _____    ______ ____

>  <TORSDO>
F 4

$$$$
=
 OpenBabel11042414483D

 28 31  0  0  0  0  0  0  0  0999 V2000
  186.0820  177.6520  144.6450 N   0  0  0  0  0  0  0  0  0  0  0  0
  187.9320  176.1520  144.0660 N   0  0  0  0  0  0  0  0  0  0  0  0
  192.7880  176.4150  146.4410 C   0  0  0  0  0  2  0  0  0  0  0  0
  189.4500  177.0830  145.3750 C   0  0  0  0  0  0  0  0  0  0  0  0
  189.2080  176.0920  144.4800 C   0  0  0  0  0  0  0  0  0  0  0  0
  193.9960  174.9170  144.1440 C   0  0  0  0  0  3  0  0  0  0  0  0
  190.6810  177.2400  145.9860 C   0  0  0  0  0  3  0  0  0  0  0  0
  190.2110  175.2170  144.0430 C   0  0  0  0  0  0  0  0  0  0  0  0
  191.7210  176.3610  145.6390 C   0  0  0  0  0  0  0  0  0  0  0  0
  187.4420  177.2060  144.7670 C   0  0  0  0  0  0  0  0  0  0  0  0
  188.3420  177.8080  145.5870 N   0  0  0  0  0  2  0  0  0  0  0  0
  193.8640  175.3890  146.5130 C   0  0  0  0  0  2  0  0  0  0  0  0
  191.5280  175.3970  144.5810 C   0  0  0  0  0  0  0  0  0  0  0  0
  194.5690  175.2530  145.2540 N   0  0  0  0  0  0  0  0  0  0  0  0
  192.5420  174.7610  143.9580 C   0  0  0  0  0  2  0  0  0  0  0  0
  189.3120  173.9820  139.3600 O   0  0  0  0  0  1  0  0  0  0  0  0
  189.2000  172.2880  141.0730 C   0  0  0  0  0  3  0  0  0  0  0  0
  189.7600  174.5690  141.6560 C   0  0  0  0  0  3  0  0  0  0  0  0
  189.8800  174.2060  143.0060 C   0  0  0  0  0  0  0  0  0  0  0  0
  189.4250  173.6140  140.6930 C   0  0  0  0  0  0  0  0  0  0  0  0
  189.3080  171.9190  142.4160 C   0  0  0  0  0  3  0  0  0  0  0  0
  189.6440  172.8740  143.3790 C   0  0  0  0  0  3  0  0  0  0  0  0
  185.6000  178.8010  145.4000 C   0  0  0  0  0  2  0  0  0  0  0  0
  184.4200  178.4020  146.2670 C   0  0  0  0  0  1  0  0  0  0  0  0
  185.1960  177.0500  143.6580 C   0  0  0  0  0  2  0  0  0  0  0  0
  185.7220  178.6250  141.9470 O   0  0  0  0  0  0  0  0  0  0  0  0
  183.4880  178.3230  142.3610 O   0  0  0  0  0  1  0  0  0  0  0  0
  184.8260  178.0510  142.6170 C   0  0  0  0  0  0  0  0  0  0  0  0
  1 10  1  0  0  0  0
  1 23  1  0  0  0  0
  2  5  1  0  0  0  0
  2 10  2  0  0  0  0
  3 12  1  0  0  0  0
  4 11  1  0  0  0  0
  4  7  1  0  0  0  0
  5  4  2  0  0  0  0
  6 14  2  0  0  0  0
  8  5  1  0  0  0  0
  8 13  2  0  0  0  0
  9  7  2  0  0  0  0
  9  3  1  0  0  0  0
 10 11  1  0  0  0  0
 13  9  1  0  0  0  0
 14 12  1  0  0  0  0
 15  6  1  0  0  0  0
 15 13  1  0  0  0  0
 16 20  1  0  0  0  0
 17 21  1  0  0  0  0
 18 19  2  0  0  0  0
 19 22  1  0  0  0  0
 19  8  1  0  0  0  0
 20 17  2  0  0  0  0
 20 18  1  0  0  0  0
 21 22  2  0  0  0  0
 23 24  1  0  0  0  0
 25  1  1  0  0  0  0
 26 28  2  0  0  0  0
 27 28  1  0  0  0  0
 28 25  1  0  0  0  0
M  END
>  <MODEL>
5

>  <REMARK>
 VINA RESULT:      -6.9      3.227      6.756
  Name = 
  4 active torsions:
  status: ('A' for Active; 'I' for Inactive)
    1  A    between atoms: C_1  and  N_6
    2  A    between atoms: N_6  and  C_28
    3  A    between atoms: C_15  and  C_20
    4  A    between atoms: C_17  and  C_28
                            x       y       z     vdW  Elec       q    Type
                         _______ _______ _______ _____ _____    ______ ____

>  <TORSDO>
F 4

$$$$
=
 OpenBabel11042414483D

 28 31  0  0  0  0  0  0  0  0999 V2000
  190.1600  173.7370  140.4520 N   0  0  0  0  0  0  0  0  0  0  0  0
  189.3670  174.9720  142.4150 N   0  0  0  0  0  0  0  0  0  0  0  0
  184.8810  178.0000  142.3740 C   0  0  0  0  0  2  0  0  0  0  0  0
  187.6610  175.9730  141.4300 C   0  0  0  0  0  0  0  0  0  0  0  0
  188.3370  175.8150  142.5950 C   0  0  0  0  0  0  0  0  0  0  0  0
  185.8480  179.4700  144.8000 C   0  0  0  0  0  3  0  0  0  0  0  0
  186.5340  176.7690  141.3340 C   0  0  0  0  0  3  0  0  0  0  0  0
  187.9970  176.5160  143.7590 C   0  0  0  0  0  0  0  0  0  0  0  0
  186.0990  177.4590  142.4780 C   0  0  0  0  0  0  0  0  0  0  0  0
  189.2520  174.6390  141.1040 C   0  0  0  0  0  0  0  0  0  0  0  0
  188.2140  175.2310  140.4590 N   0  0  0  0  0  2  0  0  0  0  0  0
  184.0530  178.4810  143.5140 C   0  0  0  0  0  2  0  0  0  0  0  0
  186.8900  177.4230  143.6860 C   0  0  0  0  0  0  0  0  0  0  0  0
  184.6920  179.5680  144.2270 N   0  0  0  0  0  0  0  0  0  0  0  0
  186.7420  178.3030  144.6990 C   0  0  0  0  0  2  0  0  0  0  0  0
  188.9600  174.2860  148.0450 O   0  0  0  0  0  1  0  0  0  0  0  0
  190.3980  176.0680  147.2890 C   0  0  0  0  0  3  0  0  0  0  0  0
  188.5070  175.3810  145.9430 C   0  0  0  0  0  3  0  0  0  0  0  0
  188.8340  176.3410  144.9750 C   0  0  0  0  0  0  0  0  0  0  0  0
  189.2880  175.2420  147.0940 C   0  0  0  0  0  0  0  0  0  0  0  0
  190.7260  177.0340  146.3340 C   0  0  0  0  0  3  0  0  0  0  0  0
  189.9450  177.1720  145.1820 C   0  0  0  0  0  3  0  0  0  0  0  0
  190.0140  173.4210  139.0370 C   0  0  0  0  0  2  0  0  0  0  0  0
  190.6270  172.0660  138.7360 C   0  0  0  0  0  1  0  0  0  0  0  0
  191.3290  173.2310  141.1580 C   0  0  0  0  0  2  0  0  0  0  0  0
  193.0710  174.4000  140.0240 O   0  0  0  0  0  0  0  0  0  0  0  0
  192.7550  174.9810  142.2180 O   0  0  0  0  0  1  0  0  0  0  0  0
  192.4390  174.2240  141.0980 C   0  0  0  0  0  0  0  0  0  0  0  0
  1 10  1  0  0  0  0
  1 25  1  0  0  0  0
  2  5  1  0  0  0  0
  3  9  1  0  0  0  0
  3 12  1  0  0  0  0
  4  5  1  0  0  0  0
  5  8  2  0  0  0  0
  7  4  2  0  0  0  0
  7  9  1  0  0  0  0
  8 19  1  0  0  0  0
  9 13  2  0  0  0  0
 10  2  2  0  0  0  0
 11 10  1  0  0  0  0
 11  4  1  0  0  0  0
 12 14  1  0  0  0  0
 13  8  1  0  0  0  0
 13 15  1  0  0  0  0
 14  6  2  0  0  0  0
 15  6  1  0  0  0  0
 18 20  2  0  0  0  0
 19 22  2  0  0  0  0
 19 18  1  0  0  0  0
 20 17  1  0  0  0  0
 20 16  1  0  0  0  0
 21 17  2  0  0  0  0
 22 21  1  0  0  0  0
 23  1  1  0  0  0  0
 24 23  1  0  0  0  0
 26 28  2  0  0  0  0
 28 25  1  0  0  0  0
 28 27  1  0  0  0  0
M  END
>  <MODEL>
6

>  <REMARK>
 VINA RESULT:      -6.9      1.986      2.461
  Name = 
  4 active torsions:
  status: ('A' for Active; 'I' for Inactive)
    1  A    between atoms: C_1  and  N_6
    2  A    between atoms: N_6  and  C_28
    3  A    between atoms: C_15  and  C_20
    4  A    between atoms: C_17  and  C_28
                            x       y       z     vdW  Elec       q    Type
                         _______ _______ _______ _____ _____    ______ ____

>  <TORSDO>
F 4

$$$$
=
 OpenBabel11042414483D

 28 31  0  0  0  0  0  0  0  0999 V2000
  186.1140  177.5540  143.6070 N   0  0  0  0  0  0  0  0  0  0  0  0
  188.2480  176.3920  143.9250 N   0  0  0  0  0  0  0  0  0  0  0  0
  189.7450  172.1220  140.9560 C   0  0  0  0  0  2  0  0  0  0  0  0
  187.9010  174.7860  142.4470 C   0  0  0  0  0  0  0  0  0  0  0  0
  188.7730  175.2960  143.3510 C   0  0  0  0  0  0  0  0  0  0  0  0
  191.7360  171.3520  143.0600 C   0  0  0  0  0  3  0  0  0  0  0  0
  188.1960  173.6690  141.6870 C   0  0  0  0  0  3  0  0  0  0  0  0
  189.9940  174.6770  143.6450 C   0  0  0  0  0  0  0  0  0  0  0  0
  189.4310  173.0280  141.8860 C   0  0  0  0  0  0  0  0  0  0  0  0
  187.0450  176.5020  143.3070 C   0  0  0  0  0  0  0  0  0  0  0  0
  186.7900  175.5350  142.3880 N   0  0  0  0  0  2  0  0  0  0  0  0
  191.1030  171.5520  140.7340 C   0  0  0  0  0  2  0  0  0  0  0  0
  190.3080  173.4650  142.9480 C   0  0  0  0  0  0  0  0  0  0  0  0
  191.5800  170.8220  141.8900 N   0  0  0  0  0  0  0  0  0  0  0  0
  191.3260  172.7200  143.4270 C   0  0  0  0  0  2  0  0  0  0  0  0
  191.1910  175.2900  148.3850 O   0  0  0  0  0  1  0  0  0  0  0  0
  192.4750  176.4190  146.6840 C   0  0  0  0  0  3  0  0  0  0  0  0
  190.6230  174.9920  146.0590 C   0  0  0  0  0  3  0  0  0  0  0  0
  190.8610  175.2600  144.7030 C   0  0  0  0  0  0  0  0  0  0  0  0
  191.4300  175.5660  147.0460 C   0  0  0  0  0  0  0  0  0  0  0  0
  192.7130  176.7010  145.3370 C   0  0  0  0  0  3  0  0  0  0  0  0
  191.9070  176.1260  144.3490 C   0  0  0  0  0  3  0  0  0  0  0  0
  184.8230  177.6260  142.9350 C   0  0  0  0  0  2  0  0  0  0  0  0
  184.9450  178.4220  141.6490 C   0  0  0  0  0  1  0  0  0  0  0  0
  186.3850  178.4890  144.6910 C   0  0  0  0  0  2  0  0  0  0  0  0
  184.5770  179.0440  146.1430 O   0  0  0  0  0  0  0  0  0  0  0  0
  185.6080  177.0420  146.5680 O   0  0  0  0  0  1  0  0  0  0  0  0
  185.4790  178.2200  145.8440 C   0  0  0  0  0  0  0  0  0  0  0  0
  1 25  1  0  0  0  0
  3  9  1  0  0  0  0
  4  5  1  0  0  0  0
  5  8  2  0  0  0  0
  5  2  1  0  0  0  0
  6 15  1  0  0  0  0
  7  9  1  0  0  0  0
  7  4  2  0  0  0  0
  8 19  1  0  0  0  0
  9 13  2  0  0  0  0
 10  1  1  0  0  0  0
 10  2  2  0  0  0  0
 11  4  1  0  0  0  0
 11 10  1  0  0  0  0
 12  3  1  0  0  0  0
 12 14  1  0  0  0  0
 13 15  1  0  0  0  0
 13  8  1  0  0  0  0
 14  6  2  0  0  0  0
 17 20  1  0  0  0  0
 18 20  2  0  0  0  0
 19 18  1  0  0  0  0
 20 16  1  0  0  0  0
 21 17  2  0  0  0  0
 22 19  2  0  0  0  0
 22 21  1  0  0  0  0
 23  1  1  0  0  0  0
 24 23  1  0  0  0  0
 25 28  1  0  0  0  0
 28 26  2  0  0  0  0
 28 27  1  0  0  0  0
M  END
>  <MODEL>
7

>  <REMARK>
 VINA RESULT:      -6.8      2.846      6.164
  Name = 
  4 active torsions:
  status: ('A' for Active; 'I' for Inactive)
    1  A    between atoms: C_1  and  N_6
    2  A    between atoms: N_6  and  C_28
    3  A    between atoms: C_15  and  C_20
    4  A    between atoms: C_17  and  C_28
                            x       y       z     vdW  Elec       q    Type
                         _______ _______ _______ _____ _____    ______ ____

>  <TORSDO>
F 4

$$$$
=
 OpenBabel11042414483D

 28 31  0  0  0  0  0  0  0  0999 V2000
  186.5730  177.2550  143.3310 N   0  0  0  0  0  0  0  0  0  0  0  0
  188.6560  176.1070  143.9270 N   0  0  0  0  0  0  0  0  0  0  0  0
  190.2820  171.5320  141.5360 C   0  0  0  0  0  2  0  0  0  0  0  0
  188.3860  174.3600  142.6010 C   0  0  0  0  0  0  0  0  0  0  0  0
  189.2000  174.9520  143.5100 C   0  0  0  0  0  0  0  0  0  0  0  0
  192.0990  170.9640  143.8520 C   0  0  0  0  0  3  0  0  0  0  0  0
  188.7140  173.1660  141.9850 C   0  0  0  0  0  3  0  0  0  0  0  0
  190.3840  174.3520  143.9570 C   0  0  0  0  0  0  0  0  0  0  0  0
  189.9180  172.5340  142.3420 C   0  0  0  0  0  0  0  0  0  0  0  0
  187.5020  176.1660  143.2120 C   0  0  0  0  0  0  0  0  0  0  0  0
  187.2970  175.1110  142.3820 N   0  0  0  0  0  2  0  0  0  0  0  0
  191.6410  170.9260  141.4770 C   0  0  0  0  0  2  0  0  0  0  0  0
  190.7240  173.0700  143.4140 C   0  0  0  0  0  0  0  0  0  0  0  0
  192.0180  170.3160  142.7350 N   0  0  0  0  0  0  0  0  0  0  0  0
  191.6890  172.3680  144.0430 C   0  0  0  0  0  2  0  0  0  0  0  0
  194.1060  177.2720  145.3330 O   0  0  0  0  0  1  0  0  0  0  0  0
  192.7070  176.2630  147.0190 C   0  0  0  0  0  3  0  0  0  0  0  0
  192.2730  175.8480  144.6750 C   0  0  0  0  0  3  0  0  0  0  0  0
  191.1820  175.0340  145.0100 C   0  0  0  0  0  0  0  0  0  0  0  0
  193.0310  176.4630  145.6740 C   0  0  0  0  0  0  0  0  0  0  0  0
  191.6280  175.4460  147.3630 C   0  0  0  0  0  3  0  0  0  0  0  0
  190.8700  174.8310  146.3630 C   0  0  0  0  0  3  0  0  0  0  0  0
  185.3360  177.2710  142.5610 C   0  0  0  0  0  2  0  0  0  0  0  0
  185.4430  178.2620  141.4170 C   0  0  0  0  0  1  0  0  0  0  0  0
  186.7820  178.2950  144.3290 C   0  0  0  0  0  2  0  0  0  0  0  0
  185.7180  177.1340  146.1200 O   0  0  0  0  0  1  0  0  0  0  0  0
  184.9100  179.2340  145.6830 O   0  0  0  0  0  0  0  0  0  0  0  0
  185.7710  178.1770  145.4180 C   0  0  0  0  0  0  0  0  0  0  0  0
  1 25  1  0  0  0  0
  3  9  1  0  0  0  0
  4  5  1  0  0  0  0
  5  2  1  0  0  0  0
  5  8  2  0  0  0  0
  6 15  1  0  0  0  0
  7  9  1  0  0  0  0
  7  4  2  0  0  0  0
  8 19  1  0  0  0  0
  9 13  2  0  0  0  0
 10  1  1  0  0  0  0
 10  2  2  0  0  0  0
 11  4  1  0  0  0  0
 11 10  1  0  0  0  0
 12  3  1  0  0  0  0
 12 14  1  0  0  0  0
 13  8  1  0  0  0  0
 13 15  1  0  0  0  0
 14  6  2  0  0  0  0
 16 20  1  0  0  0  0
 17 21  1  0  0  0  0
 18 19  2  0  0  0  0
 18 20  1  0  0  0  0
 19 22  1  0  0  0  0
 20 17  2  0  0  0  0
 22 21  2  0  0  0  0
 23  1  1  0  0  0  0
 24 23  1  0  0  0  0
 25 28  1  0  0  0  0
 28 27  2  0  0  0  0
 28 26  1  0  0  0  0
M  END
>  <MODEL>
8

>  <REMARK>
 VINA RESULT:      -6.8      2.839      6.061
  Name = 
  4 active torsions:
  status: ('A' for Active; 'I' for Inactive)
    1  A    between atoms: C_1  and  N_6
    2  A    between atoms: N_6  and  C_28
    3  A    between atoms: C_15  and  C_20
    4  A    between atoms: C_17  and  C_28
                            x       y       z     vdW  Elec       q    Type
                         _______ _______ _______ _____ _____    ______ ____

>  <TORSDO>
F 4

$$$$
=
 OpenBabel11042414483D

 28 31  0  0  0  0  0  0  0  0999 V2000
  186.8000  177.0040  144.5820 N   0  0  0  0  0  0  0  0  0  0  0  0
  188.7530  175.7080  143.8650 N   0  0  0  0  0  0  0  0  0  0  0  0
  193.6300  176.2250  146.1560 C   0  0  0  0  0  2  0  0  0  0  0  0
  190.2210  176.6750  145.2050 C   0  0  0  0  0  0  0  0  0  0  0  0
  190.0410  175.7300  144.2490 C   0  0  0  0  0  0  0  0  0  0  0  0
  194.9000  174.9910  143.7370 C   0  0  0  0  0  3  0  0  0  0  0  0
  191.4500  176.8960  145.8000 C   0  0  0  0  0  3  0  0  0  0  0  0
  191.1010  174.9750  143.7330 C   0  0  0  0  0  0  0  0  0  0  0  0
  192.5500  176.1330  145.3740 C   0  0  0  0  0  0  0  0  0  0  0  0
  188.1950  176.6680  144.6460 C   0  0  0  0  0  0  0  0  0  0  0  0
  189.0630  177.2880  145.4880 N   0  0  0  0  0  2  0  0  0  0  0  0
  194.7890  175.2910  146.1360 C   0  0  0  0  0  2  0  0  0  0  0  0
  192.4110  175.2290  144.2550 C   0  0  0  0  0  0  0  0  0  0  0  0
  195.4700  175.3000  144.8570 N   0  0  0  0  0  0  0  0  0  0  0  0
  193.4590  174.7250  143.5710 C   0  0  0  0  0  2  0  0  0  0  0  0
  190.3470  170.3820  142.1180 O   0  0  0  0  0  1  0  0  0  0  0  0
  190.3740  172.2030  140.5370 C   0  0  0  0  0  3  0  0  0  0  0  0
  190.7050  172.6380  142.8950 C   0  0  0  0  0  3  0  0  0  0  0  0
  190.8300  174.0100  142.6350 C   0  0  0  0  0  0  0  0  0  0  0  0
  190.4750  171.7380  141.8510 C   0  0  0  0  0  0  0  0  0  0  0  0
  190.5070  173.5680  140.2670 C   0  0  0  0  0  3  0  0  0  0  0  0
  190.7370  174.4680  141.3120 C   0  0  0  0  0  3  0  0  0  0  0  0
  186.2430  178.0550  145.4240 C   0  0  0  0  0  2  0  0  0  0  0  0
  185.0500  177.5290  146.2000 C   0  0  0  0  0  1  0  0  0  0  0  0
  185.9430  176.3960  143.5740 C   0  0  0  0  0  2  0  0  0  0  0  0
  186.6420  177.1840  141.4350 O   0  0  0  0  0  0  0  0  0  0  0  0
  184.7950  178.2170  142.3150 O   0  0  0  0  0  1  0  0  0  0  0  0
  185.8260  177.2900  142.3870 C   0  0  0  0  0  0  0  0  0  0  0  0
  1 10  1  0  0  0  0
  1 23  1  0  0  0  0
  2  5  1  0  0  0  0
  2 10  2  0  0  0  0
  4 11  1  0  0  0  0
  4  7  1  0  0  0  0
  5  4  2  0  0  0  0
  6 14  2  0  0  0  0
  8  5  1  0  0  0  0
  8 13  2  0  0  0  0
  9  7  2  0  0  0  0
  9  3  1  0  0  0  0
 10 11  1  0  0  0  0
 12  3  1  0  0  0  0
 13  9  1  0  0  0  0
 14 12  1  0  0  0  0
 15  6  1  0  0  0  0
 15 13  1  0  0  0  0
 17 20  1  0  0  0  0
 19 18  1  0  0  0  0
 19  8  1  0  0  0  0
 20 16  1  0  0  0  0
 20 18  2  0  0  0  0
 21 17  2  0  0  0  0
 21 22  1  0  0  0  0
 22 19  2  0  0  0  0
 23 24  1  0  0  0  0
 25  1  1  0  0  0  0
 26 28  2  0  0  0  0
 27 28  1  0  0  0  0
 28 25  1  0  0  0  0
M  END
>  <MODEL>
9

>  <REMARK>
 VINA RESULT:      -6.6      3.031      6.871
  Name = 
  4 active torsions:
  status: ('A' for Active; 'I' for Inactive)
    1  A    between atoms: C_1  and  N_6
    2  A    between atoms: N_6  and  C_28
    3  A    between atoms: C_15  and  C_20
    4  A    between atoms: C_17  and  C_28
                            x       y       z     vdW  Elec       q    Type
                         _______ _______ _______ _____ _____    ______ ____

>  <TORSDO>
F 4

$$$$
