=
 OpenBabel11042415513D

 50 51  0  0  1  0  0  0  0  0999 V2000
  183.5550  178.9170  144.1810 N   0  0  0  0  0  1  0  0  0  0  0  0
  186.6870  177.9060  145.9680 C   0  0  0  0  0  0  0  0  0  0  0  0
  187.5060  177.5250  144.8790 C   0  0  0  0  0  0  0  0  0  0  0  0
  184.5360  178.7530  146.7530 O   0  0  0  0  0  1  0  0  0  0  0  0
  185.3750  178.3730  145.7110 C   0  0  0  0  0  0  0  0  0  0  0  0
  184.8920  178.4610  144.3960 C   0  0  0  0  0  0  0  0  0  0  0  0
  187.0000  177.6210  143.5780 C   0  0  0  0  0  3  0  0  0  0  0  0
  185.7100  178.0830  143.3150 C   0  0  0  0  0  0  0  0  0  0  0  0
  186.0840  178.3580  140.9720 O   0  0  0  0  0  0  0  0  0  0  0  0
  183.8790  177.9470  141.5940 N   0  0  0  0  0  2  0  0  0  0  0  0
  185.2620  178.1410  141.9030 C   0  0  0  0  0  0  0  0  0  0  0  0
  183.3770  177.9330  140.2290 C   0  0  0  0  0  2  0  0  0  0  0  0
  181.8600  177.9620  140.2370 C   0  0  0  0  0  2  0  0  0  0  0  0
  181.3880  178.2250  141.5860 N   0  0  0  0  0  2  0  0  0  0  0  0
  180.0650  178.8230  141.4820 C   0  0  2  0  0  3  0  0  0  0  0  0
  179.2100  178.4590  142.6580 C   0  0  0  0  0  0  0  0  0  0  0  0
  178.4240  176.8860  142.6480 Cl  0  0  0  0  0  0  0  0  0  0  0  0
  179.0340  179.3050  143.6280 N   0  0  0  0  0  0  0  0  0  0  0  0
  178.2150  179.0340  144.7630 C   0  0  0  0  0  3  0  0  0  0  0  0
  178.1310  179.8760  145.6940 O   0  0  0  0  0  0  0  0  0  0  0  0
  179.4050  178.4760  140.1470 C   0  0  0  0  0  2  0  0  0  0  0  0
  178.3590  179.4990  139.7270 C   0  0  0  0  0  2  0  0  0  0  0  0
  178.9940  181.1700  140.0290 S   0  0  0  0  0  1  0  0  0  0  0  0
  189.8400  177.8210  145.3120 O   0  0  0  0  0  0  0  0  0  0  0  0
  188.8950  177.0280  145.0590 C   0  0  0  0  0  0  0  0  0  0  0  0
  189.1910  175.6250  144.9530 C   0  0  0  0  0  0  0  0  0  0  0  0
  189.4540  174.4510  144.8700 C   0  0  0  0  0  0  0  0  0  0  0  0
  189.8580  172.7380  144.7600 S   0  0  0  0  0  0  0  0  0  0  0  0
  189.9360  173.0990  142.0180 C   0  0  0  0  0  0  0  0  0  0  0  0
  189.2680  172.6210  143.0670 C   0  0  0  0  0  3  0  0  0  0  0  0
  191.2540  173.7970  142.1950 C   0  0  0  0  0  2  0  0  0  0  0  0
  192.3840  172.9220  141.6880 C   0  0  0  0  0  2  0  0  0  0  0  0
  193.5830  173.3130  142.2850 O   0  0  0  0  0  0  0  0  0  0  0  0
  194.1940  174.0300  141.3650 O   0  0  0  0  0  0  0  0  0  0  0  0
  193.6440  176.1970  141.7540 F   0  0  0  0  0  0  0  0  0  0  0  0
  194.5730  175.2080  142.0180 C   0  0  1  0  0  3  0  0  0  0  0  0
  194.6280  174.9710  143.4520 N   0  0  0  0  0  2  0  0  0  0  0  0
  194.8840  176.7300  145.0810 C   0  0  0  0  0  2  0  0  0  0  0  0
  193.9590  176.0880  144.1040 C   0  0  2  0  0  3  0  0  0  0  0  0
  194.5280  176.4880  146.3320 C   0  0  0  0  0  2  0  0  0  0  0  0
  192.2600  176.3160  147.2600 C   0  0  0  0  0  1  0  0  0  0  0  0
  193.3090  175.6430  146.4020 C   0  0  1  0  0  3  0  0  0  0  0  0
  192.8220  175.5560  144.9630 C   0  0  0  0  0  2  0  0  0  0  0  0
  189.3600  172.9450  140.7480 O   0  0  0  0  0  0  0  0  0  0  0  0
  189.0440  174.0140  139.8550 C   0  0  2  0  0  3  0  0  0  0  0  0
  188.3250  175.0130  140.5130 O   0  0  0  0  0  1  0  0  0  0  0  0
  188.2760  173.5200  138.6410 C   0  0  0  0  0  2  0  0  0  0  0  0
  187.5920  174.5710  138.0590 F   0  0  0  0  0  0  0  0  0  0  0  0
  186.9930  178.7860  148.3730 C   0  0  0  0  0  1  0  0  0  0  0  0
  187.2170  177.8300  147.3020 N   0  0  0  0  0  2  0  0  0  0  0  0
  1  6  1  0  0  0  0
  2 50  1  0  0  0  0
  3 25  1  0  0  0  0
  3  2  2  0  0  0  0
  5  2  1  0  0  0  0
  5  4  1  0  0  0  0
  6  5  2  0  0  0  0
  7  3  1  0  0  0  0
  8  7  2  0  0  0  0
  8  6  1  0  0  0  0
  9 11  2  0  0  0  0
 10 11  1  0  0  0  0
 11  8  1  0  0  0  0
 12 13  1  0  0  0  0
 12 10  1  0  0  0  0
 13 14  1  0  0  0  0
 15 21  1  6  0  0  0
 15 14  1  0  0  0  0
 15 16  1  0  0  0  0
 16 18  2  0  0  0  0
 17 16  1  0  0  0  0
 18 19  1  0  0  0  0
 19 20  2  0  0  0  0
 22 23  1  0  0  0  0
 22 21  1  0  0  0  0
 25 24  2  0  0  0  0
 26 25  1  0  0  0  0
 27 26  3  0  0  0  0
 28 27  1  0  0  0  0
 29 31  1  0  0  0  0
 29 30  2  0  0  0  0
 30 28  1  0  0  0  0
 32 31  1  0  0  0  0
 32 33  1  0  0  0  0
 34 36  1  0  0  0  0
 34 33  1  0  0  0  0
 36 35  1  1  0  0  0
 36 37  1  0  0  0  0
 38 40  1  0  0  0  0
 39 37  1  1  0  0  0
 39 43  1  0  0  0  0
 39 38  1  0  0  0  0
 40 42  1  0  0  0  0
 42 41  1  1  0  0  0
 43 42  1  0  0  0  0
 44 29  1  0  0  0  0
 45 46  1  1  0  0  0
 45 44  1  0  0  0  0
 47 45  1  0  0  0  0
 48 47  1  0  0  0  0
 50 49  1  0  0  0  0
M  END
>  <MODEL>
1

>  <REMARK>
 VINA RESULT:      -6.3      0.000      0.000
  Name = 
  24 active torsions:
  status: ('A' for Active; 'I' for Inactive)
    1  A    between atoms: C_1  and  N_47
    2  A    between atoms: C_5  and  N_29
    3  A    between atoms: C_5  and  C_39
    4  A    between atoms: N_7  and  C_19
    5  A    between atoms: N_7  and  C_37
    6  A    between atoms: C_8  and  C_13
    7  A    between atoms: C_9  and  C_25
    8  A    between atoms: C_9  and  O_43
    9  A    between atoms: C_10  and  N_49
   10  A    between atoms: C_11  and  C_20
   11  A    between atoms: C_11  and  O_43
   12  A    between atoms: C_12  and  C_42
   13  A    between atoms: C_13  and  N_29
   14  A    between atoms: C_13  and  C_42
   15  A    between atoms: C_15  and  C_50
   16  A    between atoms: S_16  and  C_22
   17  A    between atoms: S_16  and  C_33
   18  A    between atoms: O_18  and  O_32
   19  A    between atoms: O_18  and  C_46
   20  A    between atoms: C_21  and  C_50
   21  A    between atoms: N_23  and  C_39
   22  A    between atoms: C_25  and  C_46
   23  A    between atoms: C_27  and  C_45
   24  A    between atoms: O_32  and  C_37
                            x       y       z     vdW  Elec       q    Type
                         _______ _______ _______ _____ _____    ______ ____

>  <TORSDO>
F 24

$$$$
=
 OpenBabel11042415513D

 50 51  0  0  1  0  0  0  0  0999 V2000
  189.0110  173.7910  138.9180 N   0  0  0  0  0  1  0  0  0  0  0  0
  191.1220  170.7980  139.6970 C   0  0  0  0  0  0  0  0  0  0  0  0
  190.8590  170.6360  141.0770 C   0  0  0  0  0  0  0  0  0  0  0  0
  190.7240  172.0500  137.6380 O   0  0  0  0  0  1  0  0  0  0  0  0
  190.4900  171.8530  138.9950 C   0  0  0  0  0  0  0  0  0  0  0  0
  189.6130  172.7260  139.6560 C   0  0  0  0  0  0  0  0  0  0  0  0
  189.9820  171.5200  141.7130 C   0  0  0  0  0  3  0  0  0  0  0  0
  189.3520  172.5610  141.0300 C   0  0  0  0  0  0  0  0  0  0  0  0
  187.2400  173.1330  141.9880 O   0  0  0  0  0  0  0  0  0  0  0  0
  188.9420  174.6860  142.3160 N   0  0  0  0  0  2  0  0  0  0  0  0
  188.4450  173.4510  141.7930 C   0  0  0  0  0  0  0  0  0  0  0  0
  188.1270  175.5800  143.1220 C   0  0  0  0  0  2  0  0  0  0  0  0
  187.6370  176.7380  142.2730 C   0  0  0  0  0  2  0  0  0  0  0  0
  187.6820  177.9620  143.0540 N   0  0  0  0  0  2  0  0  0  0  0  0
  186.3080  178.3710  143.3110 C   0  0  2  0  0  3  0  0  0  0  0  0
  185.9530  178.2040  144.7580 C   0  0  0  0  0  0  0  0  0  0  0  0
  185.6580  176.5740  145.3500 Cl  0  0  0  0  0  0  0  0  0  0  0  0
  185.8350  179.2430  145.5290 N   0  0  0  0  0  0  0  0  0  0  0  0
  185.4760  179.1580  146.9060 C   0  0  0  0  0  3  0  0  0  0  0  0
  186.3570  178.9180  147.7710 O   0  0  0  0  0  0  0  0  0  0  0  0
  185.3330  177.6480  142.3810 C   0  0  0  0  0  2  0  0  0  0  0  0
  183.9350  178.2470  142.4200 C   0  0  0  0  0  2  0  0  0  0  0  0
  183.2240  178.2280  140.7520 S   0  0  0  0  0  1  0  0  0  0  0  0
  191.0280  168.3780  141.8500 O   0  0  0  0  0  0  0  0  0  0  0  0
  191.4770  169.5540  141.8870 C   0  0  0  0  0  0  0  0  0  0  0  0
  192.6110  169.8250  142.7300 C   0  0  0  0  0  0  0  0  0  0  0  0
  193.5520  170.0530  143.4480 C   0  0  0  0  0  0  0  0  0  0  0  0
  194.9150  170.3820  144.5180 S   0  0  0  0  0  0  0  0  0  0  0  0
  196.2780  172.7230  143.9530 C   0  0  0  0  0  0  0  0  0  0  0  0
  195.4920  171.7460  143.5010 C   0  0  0  0  0  3  0  0  0  0  0  0
  196.7280  172.7500  145.3860 C   0  0  0  0  0  2  0  0  0  0  0  0
  196.5100  174.1290  145.9770 C   0  0  0  0  0  2  0  0  0  0  0  0
  195.1640  174.4790  145.8640 O   0  0  0  0  0  0  0  0  0  0  0  0
  195.1750  175.7730  145.6220 O   0  0  0  0  0  0  0  0  0  0  0  0
  194.2600  177.1010  147.2170 F   0  0  0  0  0  0  0  0  0  0  0  0
  193.9780  176.2530  146.1640 C   0  0  1  0  0  3  0  0  0  0  0  0
  193.2410  176.9820  145.1440 N   0  0  0  0  0  2  0  0  0  0  0  0
  190.8650  177.2070  144.8130 C   0  0  0  0  0  2  0  0  0  0  0  0
  192.0060  176.2530  144.8940 C   0  0  2  0  0  3  0  0  0  0  0  0
  190.0690  177.1190  145.8660 C   0  0  0  0  0  2  0  0  0  0  0  0
  189.4370  175.1070  147.1270 C   0  0  0  0  0  1  0  0  0  0  0  0
  190.5450  176.0930  146.8290 C   0  0  1  0  0  3  0  0  0  0  0  0
  191.6820  175.3880  146.1030 C   0  0  0  0  0  2  0  0  0  0  0  0
  196.6520  173.7320  143.0530 O   0  0  0  0  0  0  0  0  0  0  0  0
  195.7490  174.4830  142.2400 C   0  0  2  0  0  3  0  0  0  0  0  0
  195.8230  174.0710  140.9080 O   0  0  0  0  0  1  0  0  0  0  0  0
  196.0100  175.9760  142.3480 C   0  0  0  0  0  2  0  0  0  0  0  0
  195.3430  176.6430  141.3370 F   0  0  0  0  0  0  0  0  0  0  0  0
  191.6100  168.7230  138.2430 C   0  0  0  0  0  1  0  0  0  0  0  0
  192.0050  169.8730  139.0390 N   0  0  0  0  0  2  0  0  0  0  0  0
  1  6  1  0  0  0  0
  2  3  1  0  0  0  0
  3  7  2  0  0  0  0
  3 25  1  0  0  0  0
  4  5  1  0  0  0  0
  5  6  1  0  0  0  0
  5  2  2  0  0  0  0
  6  8  2  0  0  0  0
  8  7  1  0  0  0  0
  8 11  1  0  0  0  0
 10 12  1  0  0  0  0
 11  9  2  0  0  0  0
 11 10  1  0  0  0  0
 13 14  1  0  0  0  0
 13 12  1  0  0  0  0
 14 15  1  0  0  0  0
 15 21  1  6  0  0  0
 15 16  1  0  0  0  0
 16 17  1  0  0  0  0
 16 18  2  0  0  0  0
 18 19  1  0  0  0  0
 19 20  2  0  0  0  0
 21 22  1  0  0  0  0
 23 22  1  0  0  0  0
 24 25  2  0  0  0  0
 25 26  1  0  0  0  0
 26 27  3  0  0  0  0
 27 28  1  0  0  0  0
 29 31  1  0  0  0  0
 30 29  2  0  0  0  0
 30 28  1  0  0  0  0
 31 32  1  0  0  0  0
 33 32  1  0  0  0  0
 34 33  1  0  0  0  0
 34 36  1  0  0  0  0
 36 35  1  1  0  0  0
 37 36  1  0  0  0  0
 38 39  1  0  0  0  0
 38 40  1  0  0  0  0
 39 37  1  1  0  0  0
 39 43  1  0  0  0  0
 40 42  1  0  0  0  0
 42 41  1  6  0  0  0
 43 42  1  0  0  0  0
 44 29  1  0  0  0  0
 45 46  1  6  0  0  0
 45 47  1  0  0  0  0
 45 44  1  0  0  0  0
 48 47  1  0  0  0  0
 49 50  1  0  0  0  0
 50  2  1  0  0  0  0
M  END
>  <MODEL>
2

>  <REMARK>
 VINA RESULT:      -6.3      3.722      7.343
  Name = 
  24 active torsions:
  status: ('A' for Active; 'I' for Inactive)
    1  A    between atoms: C_1  and  N_47
    2  A    between atoms: C_5  and  N_29
    3  A    between atoms: C_5  and  C_39
    4  A    between atoms: N_7  and  C_19
    5  A    between atoms: N_7  and  C_37
    6  A    between atoms: C_8  and  C_13
    7  A    between atoms: C_9  and  C_25
    8  A    between atoms: C_9  and  O_43
    9  A    between atoms: C_10  and  N_49
   10  A    between atoms: C_11  and  C_20
   11  A    between atoms: C_11  and  O_43
   12  A    between atoms: C_12  and  C_42
   13  A    between atoms: C_13  and  N_29
   14  A    between atoms: C_13  and  C_42
   15  A    between atoms: C_15  and  C_50
   16  A    between atoms: S_16  and  C_22
   17  A    between atoms: S_16  and  C_33
   18  A    between atoms: O_18  and  O_32
   19  A    between atoms: O_18  and  C_46
   20  A    between atoms: C_21  and  C_50
   21  A    between atoms: N_23  and  C_39
   22  A    between atoms: C_25  and  C_46
   23  A    between atoms: C_27  and  C_45
   24  A    between atoms: O_32  and  C_37
                            x       y       z     vdW  Elec       q    Type
                         _______ _______ _______ _____ _____    ______ ____

>  <TORSDO>
F 24

$$$$
=
 OpenBabel11042415513D

 50 51  0  0  1  0  0  0  0  0999 V2000
  189.2390  174.6050  141.2020 N   0  0  0  0  0  1  0  0  0  0  0  0
  191.5730  171.6910  140.9110 C   0  0  0  0  0  0  0  0  0  0  0  0
  192.6030  172.0840  141.7970 C   0  0  0  0  0  0  0  0  0  0  0  0
  189.4240  172.1990  139.8690 O   0  0  0  0  0  1  0  0  0  0  0  0
  190.4570  172.5450  140.7330 C   0  0  0  0  0  0  0  0  0  0  0  0
  190.3710  173.7620  141.4260 C   0  0  0  0  0  0  0  0  0  0  0  0
  192.4940  173.3030  142.4750 C   0  0  0  0  0  3  0  0  0  0  0  0
  191.3980  174.1490  142.3080 C   0  0  0  0  0  0  0  0  0  0  0  0
  191.9010  176.4670  142.5880 O   0  0  0  0  0  0  0  0  0  0  0  0
  190.7480  175.4720  144.3480 N   0  0  0  0  0  2  0  0  0  0  0  0
  191.3760  175.4240  143.0640 C   0  0  0  0  0  0  0  0  0  0  0  0
  190.6380  176.6990  145.1200 C   0  0  0  0  0  2  0  0  0  0  0  0
  189.2630  176.7880  145.7550 C   0  0  0  0  0  2  0  0  0  0  0  0
  188.4460  177.7300  145.0100 N   0  0  0  0  0  2  0  0  0  0  0  0
  187.4950  176.9610  144.2210 C   0  0  2  0  0  3  0  0  0  0  0  0
  187.4280  177.4630  142.8100 C   0  0  0  0  0  0  0  0  0  0  0  0
  188.9080  178.0730  142.0820 Cl  0  0  0  0  0  0  0  0  0  0  0  0
  186.2960  177.4750  142.1710 N   0  0  0  0  0  0  0  0  0  0  0  0
  186.1570  177.9600  140.8380 C   0  0  0  0  0  3  0  0  0  0  0  0
  185.0770  177.7880  140.2160 O   0  0  0  0  0  0  0  0  0  0  0  0
  186.1230  176.9200  144.8940 C   0  0  0  0  0  2  0  0  0  0  0  0
  185.8420  178.1650  145.7250 C   0  0  0  0  0  2  0  0  0  0  0  0
  184.2500  178.8760  145.2280 S   0  0  0  0  0  1  0  0  0  0  0  0
  193.7050  170.1000  142.5570 O   0  0  0  0  0  0  0  0  0  0  0  0
  193.8060  171.2470  142.0450 C   0  0  0  0  0  0  0  0  0  0  0  0
  195.1170  171.7250  141.6990 C   0  0  0  0  0  0  0  0  0  0  0  0
  196.2110  172.1410  141.4070 C   0  0  0  0  0  0  0  0  0  0  0  0
  197.8020  172.7700  140.9810 S   0  0  0  0  0  0  0  0  0  0  0  0
  196.8170  174.9070  139.5270 C   0  0  0  0  0  0  0  0  0  0  0  0
  197.1710  173.6220  139.5310 C   0  0  0  0  0  3  0  0  0  0  0  0
  196.9150  175.7390  140.7730 C   0  0  0  0  0  2  0  0  0  0  0  0
  195.5310  176.1350  141.2490 C   0  0  0  0  0  2  0  0  0  0  0  0
  195.2710  175.5350  142.4830 O   0  0  0  0  0  0  0  0  0  0  0  0
  195.8420  176.3270  143.3650 O   0  0  0  0  0  0  0  0  0  0  0  0
  195.2850  176.2060  145.5610 F   0  0  0  0  0  0  0  0  0  0  0  0
  195.9390  175.5590  144.5300 C   0  0  1  0  0  3  0  0  0  0  0  0
  195.3220  174.2610  144.3090 N   0  0  0  0  0  2  0  0  0  0  0  0
  196.7390  173.1270  145.8950 C   0  0  0  0  0  2  0  0  0  0  0  0
  195.3450  173.5450  145.5770 C   0  0  2  0  0  3  0  0  0  0  0  0
  196.9040  171.8200  145.7730 C   0  0  0  0  0  2  0  0  0  0  0  0
  195.3100  170.0300  146.3140 C   0  0  0  0  0  1  0  0  0  0  0  0
  195.6500  171.1460  145.3500 C   0  0  1  0  0  3  0  0  0  0  0  0
  194.5890  172.2340  145.4230 C   0  0  0  0  0  2  0  0  0  0  0  0
  196.3340  175.4500  138.3260 O   0  0  0  0  0  0  0  0  0  0  0  0
  195.3770  174.8240  137.4690 C   0  0  2  0  0  3  0  0  0  0  0  0
  195.6360  175.1290  136.1320 O   0  0  0  0  0  1  0  0  0  0  0  0
  193.9570  175.2180  137.8380 C   0  0  0  0  0  2  0  0  0  0  0  0
  193.5970  174.6140  139.0290 F   0  0  0  0  0  0  0  0  0  0  0  0
  190.9490  169.2120  140.5660 C   0  0  0  0  0  1  0  0  0  0  0  0
  191.6750  170.4260  140.2350 N   0  0  0  0  0  2  0  0  0  0  0  0
  1  6  1  0  0  0  0
  2  3  1  0  0  0  0
  3 25  1  0  0  0  0
  3  7  2  0  0  0  0
  4  5  1  0  0  0  0
  5  2  2  0  0  0  0
  5  6  1  0  0  0  0
  6  8  2  0  0  0  0
  8  7  1  0  0  0  0
  8 11  1  0  0  0  0
  9 11  2  0  0  0  0
 10 12  1  0  0  0  0
 11 10  1  0  0  0  0
 12 13  1  0  0  0  0
 14 13  1  0  0  0  0
 15 21  1  1  0  0  0
 15 14  1  0  0  0  0
 16 15  1  0  0  0  0
 17 16  1  0  0  0  0
 18 16  2  0  0  0  0
 19 18  1  0  0  0  0
 20 19  2  0  0  0  0
 21 22  1  0  0  0  0
 23 22  1  0  0  0  0
 25 24  2  0  0  0  0
 26 25  1  0  0  0  0
 27 26  3  0  0  0  0
 28 27  1  0  0  0  0
 29 30  2  0  0  0  0
 29 31  1  0  0  0  0
 30 28  1  0  0  0  0
 31 32  1  0  0  0  0
 32 33  1  0  0  0  0
 33 34  1  0  0  0  0
 34 36  1  0  0  0  0
 36 35  1  1  0  0  0
 37 36  1  0  0  0  0
 39 37  1  6  0  0  0
 39 38  1  0  0  0  0
 40 38  1  0  0  0  0
 42 43  1  0  0  0  0
 42 40  1  0  0  0  0
 42 41  1  1  0  0  0
 43 39  1  0  0  0  0
 44 29  1  0  0  0  0
 45 46  1  6  0  0  0
 45 47  1  0  0  0  0
 45 44  1  0  0  0  0
 47 48  1  0  0  0  0
 50 49  1  0  0  0  0
 50  2  1  0  0  0  0
M  END
>  <MODEL>
3

>  <REMARK>
 VINA RESULT:      -6.1      4.337      7.636
  Name = 
  24 active torsions:
  status: ('A' for Active; 'I' for Inactive)
    1  A    between atoms: C_1  and  N_47
    2  A    between atoms: C_5  and  N_29
    3  A    between atoms: C_5  and  C_39
    4  A    between atoms: N_7  and  C_19
    5  A    between atoms: N_7  and  C_37
    6  A    between atoms: C_8  and  C_13
    7  A    between atoms: C_9  and  C_25
    8  A    between atoms: C_9  and  O_43
    9  A    between atoms: C_10  and  N_49
   10  A    between atoms: C_11  and  C_20
   11  A    between atoms: C_11  and  O_43
   12  A    between atoms: C_12  and  C_42
   13  A    between atoms: C_13  and  N_29
   14  A    between atoms: C_13  and  C_42
   15  A    between atoms: C_15  and  C_50
   16  A    between atoms: S_16  and  C_22
   17  A    between atoms: S_16  and  C_33
   18  A    between atoms: O_18  and  O_32
   19  A    between atoms: O_18  and  C_46
   20  A    between atoms: C_21  and  C_50
   21  A    between atoms: N_23  and  C_39
   22  A    between atoms: C_25  and  C_46
   23  A    between atoms: C_27  and  C_45
   24  A    between atoms: O_32  and  C_37
                            x       y       z     vdW  Elec       q    Type
                         _______ _______ _______ _____ _____    ______ ____

>  <TORSDO>
F 24

$$$$
=
 OpenBabel11042415513D

 50 51  0  0  1  0  0  0  0  0999 V2000
  186.5190  176.6810  147.6150 N   0  0  0  0  0  1  0  0  0  0  0  0
  186.1430  176.9940  143.9020 C   0  0  0  0  0  0  0  0  0  0  0  0
  187.4290  176.5970  143.4680 C   0  0  0  0  0  0  0  0  0  0  0  0
  184.6090  177.3960  145.7590 O   0  0  0  0  0  1  0  0  0  0  0  0
  185.8590  177.0090  145.2900 C   0  0  0  0  0  0  0  0  0  0  0  0
  186.8380  176.6320  146.2230 C   0  0  0  0  0  0  0  0  0  0  0  0
  188.3880  176.2280  144.4190 C   0  0  0  0  0  3  0  0  0  0  0  0
  188.1170  176.2360  145.7870 C   0  0  0  0  0  0  0  0  0  0  0  0
  189.1760  174.7130  147.2910 O   0  0  0  0  0  0  0  0  0  0  0  0
  190.2840  176.7340  146.9660 N   0  0  0  0  0  2  0  0  0  0  0  0
  189.1990  175.8360  146.7170 C   0  0  0  0  0  0  0  0  0  0  0  0
  191.4090  176.3860  147.8190 C   0  0  0  0  0  2  0  0  0  0  0  0
  192.6820  176.3230  146.9970 C   0  0  0  0  0  2  0  0  0  0  0  0
  192.4010  176.7540  145.6380 N   0  0  0  0  0  2  0  0  0  0  0  0
  193.0510  175.8150  144.7350 C   0  0  2  0  0  3  0  0  0  0  0  0
  192.0490  174.9260  144.0620 C   0  0  0  0  0  0  0  0  0  0  0  0
  191.5520  175.3370  142.4250 Cl  0  0  0  0  0  0  0  0  0  0  0  0
  191.5460  173.9080  144.6940 N   0  0  0  0  0  0  0  0  0  0  0  0
  190.5720  173.0370  144.1240 C   0  0  0  0  0  3  0  0  0  0  0  0
  189.6700  172.5420  144.8470 O   0  0  0  0  0  0  0  0  0  0  0  0
  194.1460  175.0260  145.4530 C   0  0  0  0  0  2  0  0  0  0  0  0
  195.3860  174.8300  144.5910 C   0  0  0  0  0  2  0  0  0  0  0  0
  195.8910  176.4230  143.8880 S   0  0  0  0  0  1  0  0  0  0  0  0
  187.8630  177.6010  141.3400 O   0  0  0  0  0  0  0  0  0  0  0  0
  187.8090  176.5500  142.0320 C   0  0  0  0  0  0  0  0  0  0  0  0
  188.1310  175.2990  141.3990 C   0  0  0  0  0  0  0  0  0  0  0  0
  188.4140  174.2570  140.8640 C   0  0  0  0  0  0  0  0  0  0  0  0
  188.8510  172.7370  140.0830 S   0  0  0  0  0  0  0  0  0  0  0  0
  191.3750  172.6240  138.9540 C   0  0  0  0  0  0  0  0  0  0  0  0
  190.4480  173.3690  139.5550 C   0  0  0  0  0  3  0  0  0  0  0  0
  191.1390  171.1650  138.6880 C   0  0  0  0  0  2  0  0  0  0  0  0
  192.2340  170.3320  139.3240 C   0  0  0  0  0  2  0  0  0  0  0  0
  192.2700  170.5760  140.6980 O   0  0  0  0  0  0  0  0  0  0  0  0
  193.5260  170.3800  141.0390 O   0  0  0  0  0  0  0  0  0  0  0  0
  192.9810  172.4280  141.8490 F   0  0  0  0  0  0  0  0  0  0  0  0
  193.7760  171.3150  142.0480 C   0  0  1  0  0  3  0  0  0  0  0  0
  193.4640  170.7270  143.3420 N   0  0  0  0  0  2  0  0  0  0  0  0
  195.7660  171.3000  143.7700 C   0  0  0  0  0  2  0  0  0  0  0  0
  194.3800  171.3050  144.3160 C   0  0  2  0  0  3  0  0  0  0  0  0
  196.5350  170.4120  144.3800 C   0  0  0  0  0  2  0  0  0  0  0  0
  196.5270  169.7700  146.7510 C   0  0  0  0  0  1  0  0  0  0  0  0
  195.7920  169.6740  145.4320 C   0  0  1  0  0  3  0  0  0  0  0  0
  194.4550  170.3940  145.5320 C   0  0  0  0  0  2  0  0  0  0  0  0
  192.5820  173.2430  138.5970 O   0  0  0  0  0  0  0  0  0  0  0  0
  192.7160  174.2830  137.6270 C   0  0  2  0  0  3  0  0  0  0  0  0
  192.6720  173.7620  136.3330 O   0  0  0  0  0  1  0  0  0  0  0  0
  193.9940  175.0790  137.8350 C   0  0  0  0  0  2  0  0  0  0  0  0
  195.0820  174.2270  137.8340 F   0  0  0  0  0  0  0  0  0  0  0  0
  184.7610  178.6960  142.5430 C   0  0  0  0  0  1  0  0  0  0  0  0
  185.1520  177.3490  142.9230 N   0  0  0  0  0  2  0  0  0  0  0  0
  2  5  1  0  0  0  0
  3  2  2  0  0  0  0
  3  7  1  0  0  0  0
  5  4  1  0  0  0  0
  5  6  2  0  0  0  0
  6  1  1  0  0  0  0
  7  8  2  0  0  0  0
  8  6  1  0  0  0  0
  8 11  1  0  0  0  0
 10 12  1  0  0  0  0
 11 10  1  0  0  0  0
 11  9  2  0  0  0  0
 13 12  1  0  0  0  0
 14 13  1  0  0  0  0
 15 21  1  1  0  0  0
 15 14  1  0  0  0  0
 16 18  2  0  0  0  0
 16 15  1  0  0  0  0
 17 16  1  0  0  0  0
 19 18  1  0  0  0  0
 19 20  2  0  0  0  0
 22 21  1  0  0  0  0
 23 22  1  0  0  0  0
 24 25  2  0  0  0  0
 25  3  1  0  0  0  0
 26 25  1  0  0  0  0
 27 26  3  0  0  0  0
 28 27  1  0  0  0  0
 29 30  2  0  0  0  0
 30 28  1  0  0  0  0
 31 29  1  0  0  0  0
 31 32  1  0  0  0  0
 32 33  1  0  0  0  0
 33 34  1  0  0  0  0
 34 36  1  0  0  0  0
 36 35  1  6  0  0  0
 36 37  1  0  0  0  0
 38 39  1  0  0  0  0
 38 40  1  0  0  0  0
 39 37  1  6  0  0  0
 39 43  1  0  0  0  0
 40 42  1  0  0  0  0
 42 43  1  0  0  0  0
 42 41  1  1  0  0  0
 44 29  1  0  0  0  0
 45 46  1  6  0  0  0
 45 47  1  0  0  0  0
 45 44  1  0  0  0  0
 48 47  1  0  0  0  0
 49 50  1  0  0  0  0
 50  2  1  0  0  0  0
M  END
>  <MODEL>
4

>  <REMARK>
 VINA RESULT:      -6.1      4.248      8.217
  Name = 
  24 active torsions:
  status: ('A' for Active; 'I' for Inactive)
    1  A    between atoms: C_1  and  N_47
    2  A    between atoms: C_5  and  N_29
    3  A    between atoms: C_5  and  C_39
    4  A    between atoms: N_7  and  C_19
    5  A    between atoms: N_7  and  C_37
    6  A    between atoms: C_8  and  C_13
    7  A    between atoms: C_9  and  C_25
    8  A    between atoms: C_9  and  O_43
    9  A    between atoms: C_10  and  N_49
   10  A    between atoms: C_11  and  C_20
   11  A    between atoms: C_11  and  O_43
   12  A    between atoms: C_12  and  C_42
   13  A    between atoms: C_13  and  N_29
   14  A    between atoms: C_13  and  C_42
   15  A    between atoms: C_15  and  C_50
   16  A    between atoms: S_16  and  C_22
   17  A    between atoms: S_16  and  C_33
   18  A    between atoms: O_18  and  O_32
   19  A    between atoms: O_18  and  C_46
   20  A    between atoms: C_21  and  C_50
   21  A    between atoms: N_23  and  C_39
   22  A    between atoms: C_25  and  C_46
   23  A    between atoms: C_27  and  C_45
   24  A    between atoms: O_32  and  C_37
                            x       y       z     vdW  Elec       q    Type
                         _______ _______ _______ _____ _____    ______ ____

>  <TORSDO>
F 24

$$$$
=
 OpenBabel11042415513D

 50 51  0  0  1  0  0  0  0  0999 V2000
  186.5480  178.0110  147.4690 N   0  0  0  0  0  1  0  0  0  0  0  0
  186.4250  178.2050  143.7320 C   0  0  0  0  0  0  0  0  0  0  0  0
  187.6020  177.5010  143.3880 C   0  0  0  0  0  0  0  0  0  0  0  0
  184.9430  179.0460  145.4810 O   0  0  0  0  0  1  0  0  0  0  0  0
  186.0890  178.3580  145.0990 C   0  0  0  0  0  0  0  0  0  0  0  0
  186.9100  177.8170  146.1010 C   0  0  0  0  0  0  0  0  0  0  0  0
  188.4040  176.9720  144.4050 C   0  0  0  0  0  3  0  0  0  0  0  0
  188.0810  177.1150  145.7550 C   0  0  0  0  0  0  0  0  0  0  0  0
  188.7670  175.3910  147.2580 O   0  0  0  0  0  0  0  0  0  0  0  0
  190.1580  177.2550  147.1690 N   0  0  0  0  0  2  0  0  0  0  0  0
  188.9970  176.5260  146.7600 C   0  0  0  0  0  0  0  0  0  0  0  0
  191.1300  176.7160  148.1060 C   0  0  0  0  0  2  0  0  0  0  0  0
  192.3860  176.2990  147.3640 C   0  0  0  0  0  2  0  0  0  0  0  0
  192.1650  175.0130  146.7250 N   0  0  0  0  0  2  0  0  0  0  0  0
  192.8750  175.0250  145.4540 C   0  0  2  0  0  3  0  0  0  0  0  0
  194.0850  174.1410  145.4990 C   0  0  0  0  0  0  0  0  0  0  0  0
  195.5960  174.8430  146.0640 Cl  0  0  0  0  0  0  0  0  0  0  0  0
  194.0130  172.9080  145.0950 N   0  0  0  0  0  0  0  0  0  0  0  0
  195.1300  172.0220  145.0890 C   0  0  0  0  0  3  0  0  0  0  0  0
  195.1770  171.0640  145.9030 O   0  0  0  0  0  0  0  0  0  0  0  0
  193.2070  176.4520  145.0200 C   0  0  0  0  0  2  0  0  0  0  0  0
  192.2380  176.9860  143.9740 C   0  0  0  0  0  2  0  0  0  0  0  0
  191.6720  175.6230  142.9220 S   0  0  0  0  0  1  0  0  0  0  0  0
  188.2900  178.2690  141.2280 O   0  0  0  0  0  0  0  0  0  0  0  0
  188.0250  177.2930  141.9790 C   0  0  0  0  0  0  0  0  0  0  0  0
  188.1490  175.9650  141.4380 C   0  0  0  0  0  0  0  0  0  0  0  0
  188.2650  174.8500  140.9950 C   0  0  0  0  0  0  0  0  0  0  0  0
  188.4470  173.2130  140.3640 S   0  0  0  0  0  0  0  0  0  0  0  0
  190.1040  173.5760  138.1790 C   0  0  0  0  0  0  0  0  0  0  0  0
  188.9140  173.8030  138.7330 C   0  0  0  0  0  3  0  0  0  0  0  0
  191.1630  172.8030  138.9130 C   0  0  0  0  0  2  0  0  0  0  0  0
  192.0770  173.7500  139.6650 C   0  0  0  0  0  2  0  0  0  0  0  0
  193.3310  173.1600  139.8270 O   0  0  0  0  0  0  0  0  0  0  0  0
  193.9160  173.2940  138.6540 O   0  0  0  0  0  0  0  0  0  0  0  0
  196.0380  173.3370  137.8560 F   0  0  0  0  0  0  0  0  0  0  0  0
  195.2410  173.6270  138.9470 C   0  0  1  0  0  3  0  0  0  0  0  0
  195.3300  175.0480  139.2430 N   0  0  0  0  0  2  0  0  0  0  0  0
  196.4320  174.1650  141.1970 C   0  0  0  0  0  2  0  0  0  0  0  0
  196.4470  175.2350  140.1590 C   0  0  2  0  0  3  0  0  0  0  0  0
  196.0820  174.6320  142.3840 C   0  0  0  0  0  2  0  0  0  0  0  0
  196.6290  176.8080  143.3830 C   0  0  0  0  0  1  0  0  0  0  0  0
  195.8010  176.0890  142.3400 C   0  0  1  0  0  3  0  0  0  0  0  0
  196.2370  176.5190  140.9470 C   0  0  0  0  0  2  0  0  0  0  0  0
  190.3420  174.0980  136.8990 O   0  0  0  0  0  0  0  0  0  0  0  0
  190.3440  173.3370  135.6890 C   0  0  2  0  0  3  0  0  0  0  0  0
  189.6200  172.1530  135.8480 O   0  0  0  0  0  1  0  0  0  0  0  0
  191.7580  173.0350  135.2220 C   0  0  0  0  0  2  0  0  0  0  0  0
  192.2660  171.9610  135.9290 F   0  0  0  0  0  0  0  0  0  0  0  0
  184.4130  178.0840  142.1210 C   0  0  0  0  0  1  0  0  0  0  0  0
  185.5890  178.7270  142.6840 N   0  0  0  0  0  2  0  0  0  0  0  0
  2  5  1  0  0  0  0
  3  2  2  0  0  0  0
  3  7  1  0  0  0  0
  5  4  1  0  0  0  0
  5  6  2  0  0  0  0
  6  1  1  0  0  0  0
  7  8  2  0  0  0  0
  8  6  1  0  0  0  0
  8 11  1  0  0  0  0
 10 12  1  0  0  0  0
 11 10  1  0  0  0  0
 11  9  2  0  0  0  0
 13 12  1  0  0  0  0
 14 13  1  0  0  0  0
 15 21  1  1  0  0  0
 15 16  1  0  0  0  0
 15 14  1  0  0  0  0
 16 17  1  0  0  0  0
 18 16  2  0  0  0  0
 19 18  1  0  0  0  0
 19 20  2  0  0  0  0
 22 21  1  0  0  0  0
 23 22  1  0  0  0  0
 24 25  2  0  0  0  0
 25  3  1  0  0  0  0
 26 25  1  0  0  0  0
 27 26  3  0  0  0  0
 28 27  1  0  0  0  0
 29 30  2  0  0  0  0
 29 31  1  0  0  0  0
 30 28  1  0  0  0  0
 31 32  1  0  0  0  0
 32 33  1  0  0  0  0
 34 36  1  0  0  0  0
 34 33  1  0  0  0  0
 36 35  1  6  0  0  0
 36 37  1  0  0  0  0
 38 40  1  0  0  0  0
 39 37  1  6  0  0  0
 39 43  1  0  0  0  0
 39 38  1  0  0  0  0
 42 40  1  0  0  0  0
 42 41  1  1  0  0  0
 43 42  1  0  0  0  0
 44 29  1  0  0  0  0
 45 46  1  1  0  0  0
 45 44  1  0  0  0  0
 47 45  1  0  0  0  0
 47 48  1  0  0  0  0
 49 50  1  0  0  0  0
 50  2  1  0  0  0  0
M  END
>  <MODEL>
5

>  <REMARK>
 VINA RESULT:      -6.1      4.414      8.459
  Name = 
  24 active torsions:
  status: ('A' for Active; 'I' for Inactive)
    1  A    between atoms: C_1  and  N_47
    2  A    between atoms: C_5  and  N_29
    3  A    between atoms: C_5  and  C_39
    4  A    between atoms: N_7  and  C_19
    5  A    between atoms: N_7  and  C_37
    6  A    between atoms: C_8  and  C_13
    7  A    between atoms: C_9  and  C_25
    8  A    between atoms: C_9  and  O_43
    9  A    between atoms: C_10  and  N_49
   10  A    between atoms: C_11  and  C_20
   11  A    between atoms: C_11  and  O_43
   12  A    between atoms: C_12  and  C_42
   13  A    between atoms: C_13  and  N_29
   14  A    between atoms: C_13  and  C_42
   15  A    between atoms: C_15  and  C_50
   16  A    between atoms: S_16  and  C_22
   17  A    between atoms: S_16  and  C_33
   18  A    between atoms: O_18  and  O_32
   19  A    between atoms: O_18  and  C_46
   20  A    between atoms: C_21  and  C_50
   21  A    between atoms: N_23  and  C_39
   22  A    between atoms: C_25  and  C_46
   23  A    between atoms: C_27  and  C_45
   24  A    between atoms: O_32  and  C_37
                            x       y       z     vdW  Elec       q    Type
                         _______ _______ _______ _____ _____    ______ ____

>  <TORSDO>
F 24

$$$$
=
 OpenBabel11042415513D

 50 51  0  0  1  0  0  0  0  0999 V2000
  186.7300  178.1140  147.3590 N   0  0  0  0  0  1  0  0  0  0  0  0
  186.3930  178.1690  143.6300 C   0  0  0  0  0  0  0  0  0  0  0  0
  187.5160  177.3980  143.2480 C   0  0  0  0  0  0  0  0  0  0  0  0
  185.0560  179.1450  145.4250 O   0  0  0  0  0  1  0  0  0  0  0  0
  186.1460  178.3900  145.0070 C   0  0  0  0  0  0  0  0  0  0  0  0
  187.0010  177.8510  145.9810 C   0  0  0  0  0  0  0  0  0  0  0  0
  188.3530  176.8730  144.2390 C   0  0  0  0  0  3  0  0  0  0  0  0
  188.1170  177.0830  145.5980 C   0  0  0  0  0  0  0  0  0  0  0  0
  188.8130  175.3910  147.1330 O   0  0  0  0  0  0  0  0  0  0  0  0
  190.2810  177.1790  146.8790 N   0  0  0  0  0  2  0  0  0  0  0  0
  189.0650  176.4920  146.5720 C   0  0  0  0  0  0  0  0  0  0  0  0
  191.2830  176.6330  147.7800 C   0  0  0  0  0  2  0  0  0  0  0  0
  192.5510  176.3140  147.0090 C   0  0  0  0  0  2  0  0  0  0  0  0
  192.5860  174.8950  146.7030 N   0  0  0  0  0  2  0  0  0  0  0  0
  192.9130  174.7560  145.2910 C   0  0  2  0  0  3  0  0  0  0  0  0
  194.3210  175.1910  145.0140 C   0  0  0  0  0  0  0  0  0  0  0  0
  195.5990  174.5420  146.0340 Cl  0  0  0  0  0  0  0  0  0  0  0  0
  194.5690  176.0500  144.0700 N   0  0  0  0  0  0  0  0  0  0  0  0
  195.8790  176.5240  143.7700 C   0  0  0  0  0  3  0  0  0  0  0  0
  196.6480  175.8350  143.0520 O   0  0  0  0  0  0  0  0  0  0  0  0
  191.8920  175.4810  144.4140 C   0  0  0  0  0  2  0  0  0  0  0  0
  191.1730  174.5430  143.4550 C   0  0  0  0  0  2  0  0  0  0  0  0
  190.1610  173.3740  144.4010 S   0  0  0  0  0  1  0  0  0  0  0  0
  187.9450  178.0480  140.9850 O   0  0  0  0  0  0  0  0  0  0  0  0
  187.8450  177.1160  141.8270 C   0  0  0  0  0  0  0  0  0  0  0  0
  188.0630  175.7670  141.3780 C   0  0  0  0  0  0  0  0  0  0  0  0
  188.2620  174.6390  141.0020 C   0  0  0  0  0  0  0  0  0  0  0  0
  188.5740  172.9910  140.4560 S   0  0  0  0  0  0  0  0  0  0  0  0
  190.0360  172.7370  138.1210 C   0  0  0  0  0  0  0  0  0  0  0  0
  189.5730  173.5480  139.0710 C   0  0  0  0  0  3  0  0  0  0  0  0
  189.7550  171.2620  138.1610 C   0  0  0  0  0  2  0  0  0  0  0  0
  190.8720  170.5350  138.8850 C   0  0  0  0  0  2  0  0  0  0  0  0
  190.4140  169.2910  139.3220 O   0  0  0  0  0  0  0  0  0  0  0  0
  191.3780  168.8330  140.0930 O   0  0  0  0  0  0  0  0  0  0  0  0
  190.3100  169.4750  141.9890 F   0  0  0  0  0  0  0  0  0  0  0  0
  191.4120  169.7050  141.1860 C   0  0  1  0  0  3  0  0  0  0  0  0
  192.6240  169.4720  141.9550 N   0  0  0  0  0  2  0  0  0  0  0  0
  193.2410  171.6220  142.8530 C   0  0  0  0  0  2  0  0  0  0  0  0
  192.5630  170.3250  143.1340 C   0  0  2  0  0  3  0  0  0  0  0  0
  194.3900  171.7300  143.5000 C   0  0  0  0  0  2  0  0  0  0  0  0
  194.9490  170.9220  145.7520 C   0  0  0  0  0  1  0  0  0  0  0  0
  194.6750  170.5240  144.3180 C   0  0  1  0  0  3  0  0  0  0  0  0
  193.3960  169.7020  144.2440 C   0  0  0  0  0  2  0  0  0  0  0  0
  190.8090  173.3020  137.0960 O   0  0  0  0  0  0  0  0  0  0  0  0
  191.7180  174.3930  137.2600 C   0  0  2  0  0  3  0  0  0  0  0  0
  191.6910  175.2310  136.1440 O   0  0  0  0  0  1  0  0  0  0  0  0
  193.1330  173.9060  137.5240 C   0  0  0  0  0  2  0  0  0  0  0  0
  193.1870  173.2650  138.7470 F   0  0  0  0  0  0  0  0  0  0  0  0
  184.2800  178.0840  142.1520 C   0  0  0  0  0  1  0  0  0  0  0  0
  185.5200  178.6870  142.6110 N   0  0  0  0  0  2  0  0  0  0  0  0
  2  5  1  0  0  0  0
  3  2  2  0  0  0  0
  3  7  1  0  0  0  0
  5  4  1  0  0  0  0
  5  6  2  0  0  0  0
  6  1  1  0  0  0  0
  7  8  2  0  0  0  0
  8  6  1  0  0  0  0
  8 11  1  0  0  0  0
 10 12  1  0  0  0  0
 11 10  1  0  0  0  0
 11  9  2  0  0  0  0
 13 12  1  0  0  0  0
 14 13  1  0  0  0  0
 15 21  1  6  0  0  0
 15 14  1  0  0  0  0
 16 15  1  0  0  0  0
 16 17  1  0  0  0  0
 18 16  2  0  0  0  0
 19 18  1  0  0  0  0
 20 19  2  0  0  0  0
 22 23  1  0  0  0  0
 22 21  1  0  0  0  0
 24 25  2  0  0  0  0
 25  3  1  0  0  0  0
 26 25  1  0  0  0  0
 27 26  3  0  0  0  0
 28 27  1  0  0  0  0
 29 31  1  0  0  0  0
 29 30  2  0  0  0  0
 30 28  1  0  0  0  0
 31 32  1  0  0  0  0
 32 33  1  0  0  0  0
 33 34  1  0  0  0  0
 34 36  1  0  0  0  0
 36 37  1  0  0  0  0
 36 35  1  1  0  0  0
 38 39  1  0  0  0  0
 38 40  1  0  0  0  0
 39 37  1  6  0  0  0
 39 43  1  0  0  0  0
 40 42  1  0  0  0  0
 42 41  1  1  0  0  0
 43 42  1  0  0  0  0
 44 45  1  0  0  0  0
 44 29  1  0  0  0  0
 45 46  1  6  0  0  0
 45 47  1  0  0  0  0
 47 48  1  0  0  0  0
 49 50  1  0  0  0  0
 50  2  1  0  0  0  0
M  END
>  <MODEL>
6

>  <REMARK>
 VINA RESULT:      -6.1      4.359      8.608
  Name = 
  24 active torsions:
  status: ('A' for Active; 'I' for Inactive)
    1  A    between atoms: C_1  and  N_47
    2  A    between atoms: C_5  and  N_29
    3  A    between atoms: C_5  and  C_39
    4  A    between atoms: N_7  and  C_19
    5  A    between atoms: N_7  and  C_37
    6  A    between atoms: C_8  and  C_13
    7  A    between atoms: C_9  and  C_25
    8  A    between atoms: C_9  and  O_43
    9  A    between atoms: C_10  and  N_49
   10  A    between atoms: C_11  and  C_20
   11  A    between atoms: C_11  and  O_43
   12  A    between atoms: C_12  and  C_42
   13  A    between atoms: C_13  and  N_29
   14  A    between atoms: C_13  and  C_42
   15  A    between atoms: C_15  and  C_50
   16  A    between atoms: S_16  and  C_22
   17  A    between atoms: S_16  and  C_33
   18  A    between atoms: O_18  and  O_32
   19  A    between atoms: O_18  and  C_46
   20  A    between atoms: C_21  and  C_50
   21  A    between atoms: N_23  and  C_39
   22  A    between atoms: C_25  and  C_46
   23  A    between atoms: C_27  and  C_45
   24  A    between atoms: O_32  and  C_37
                            x       y       z     vdW  Elec       q    Type
                         _______ _______ _______ _____ _____    ______ ____

>  <TORSDO>
F 24

$$$$
=
 OpenBabel11042415513D

 50 51  0  0  1  0  0  0  0  0999 V2000
  188.0690  174.3580  138.5670 N   0  0  0  0  0  1  0  0  0  0  0  0
  190.5200  171.5330  138.3760 C   0  0  0  0  0  0  0  0  0  0  0  0
  190.7410  171.2770  139.7490 C   0  0  0  0  0  0  0  0  0  0  0  0
  189.3760  172.8490  136.6660 O   0  0  0  0  0  1  0  0  0  0  0  0
  189.6200  172.5610  138.0040 C   0  0  0  0  0  0  0  0  0  0  0  0
  188.9530  173.3150  138.9830 C   0  0  0  0  0  0  0  0  0  0  0  0
  190.0650  172.0430  140.7050 C   0  0  0  0  0  3  0  0  0  0  0  0
  189.1740  173.0560  140.3490 C   0  0  0  0  0  0  0  0  0  0  0  0
  187.4400  173.4050  141.9540 O   0  0  0  0  0  0  0  0  0  0  0  0
  189.0960  175.0390  141.8970 N   0  0  0  0  0  2  0  0  0  0  0  0
  188.5110  173.8190  141.4330 C   0  0  0  0  0  0  0  0  0  0  0  0
  188.5340  175.8090  142.9950 C   0  0  0  0  0  2  0  0  0  0  0  0
  188.2880  177.2380  142.5510 C   0  0  0  0  0  2  0  0  0  0  0  0
  187.4920  177.9260  143.5530 N   0  0  0  0  0  2  0  0  0  0  0  0
  186.2410  177.1950  143.6990 C   0  0  2  0  0  3  0  0  0  0  0  0
  185.0970  177.9490  143.0900 C   0  0  0  0  0  0  0  0  0  0  0  0
  184.2810  179.1500  144.0840 Cl  0  0  0  0  0  0  0  0  0  0  0  0
  184.7080  177.6860  141.8780 N   0  0  0  0  0  0  0  0  0  0  0  0
  183.6140  178.3460  141.2480 C   0  0  0  0  0  3  0  0  0  0  0  0
  182.4420  177.9210  141.4150 O   0  0  0  0  0  0  0  0  0  0  0  0
  185.9860  176.8230  145.1600 C   0  0  0  0  0  2  0  0  0  0  0  0
  186.8650  177.6060  146.1250 C   0  0  0  0  0  2  0  0  0  0  0  0
  185.9390  177.9440  147.6470 S   0  0  0  0  0  1  0  0  0  0  0  0
  191.4930  169.0100  139.9020 O   0  0  0  0  0  0  0  0  0  0  0  0
  191.6660  170.2160  140.2250 C   0  0  0  0  0  0  0  0  0  0  0  0
  192.7880  170.5420  141.0640 C   0  0  0  0  0  0  0  0  0  0  0  0
  193.7190  170.8180  141.7790 C   0  0  0  0  0  0  0  0  0  0  0  0
  195.0670  171.2200  142.8430 S   0  0  0  0  0  0  0  0  0  0  0  0
  196.1240  173.7560  142.5200 C   0  0  0  0  0  0  0  0  0  0  0  0
  195.3650  172.7850  142.0130 C   0  0  0  0  0  3  0  0  0  0  0  0
  196.7840  173.6000  143.8600 C   0  0  0  0  0  2  0  0  0  0  0  0
  196.7390  174.9110  144.6210 C   0  0  0  0  0  2  0  0  0  0  0  0
  195.5990  174.9460  145.4270 O   0  0  0  0  0  0  0  0  0  0  0  0
  195.3050  176.2240  145.5320 O   0  0  0  0  0  0  0  0  0  0  0  0
  194.3280  177.5130  147.1230 F   0  0  0  0  0  0  0  0  0  0  0  0
  194.2910  176.2830  146.4930 C   0  0  1  0  0  3  0  0  0  0  0  0
  192.9990  176.1140  145.8470 N   0  0  0  0  0  2  0  0  0  0  0  0
  191.6260  174.1710  145.4600 C   0  0  0  0  0  2  0  0  0  0  0  0
  192.3360  174.9860  146.4860 C   0  0  2  0  0  3  0  0  0  0  0  0
  190.3120  174.2980  145.5480 C   0  0  0  0  0  2  0  0  0  0  0  0
  188.9420  174.5390  147.5730 C   0  0  0  0  0  1  0  0  0  0  0  0
  189.9230  175.2210  146.6450 C   0  0  1  0  0  3  0  0  0  0  0  0
  191.2230  175.5050  147.3840 C   0  0  0  0  0  2  0  0  0  0  0  0
  196.2710  174.9320  141.7690 O   0  0  0  0  0  0  0  0  0  0  0  0
  195.2010  175.7930  141.3750 C   0  0  2  0  0  3  0  0  0  0  0  0
  195.6430  177.1120  141.2610 O   0  0  0  0  0  1  0  0  0  0  0  0
  194.0310  175.7070  142.3400 C   0  0  0  0  0  2  0  0  0  0  0  0
  192.8520  175.5540  141.6350 F   0  0  0  0  0  0  0  0  0  0  0  0
  192.0890  171.2090  136.3540 C   0  0  0  0  0  1  0  0  0  0  0  0
  191.1970  170.7280  137.3950 N   0  0  0  0  0  2  0  0  0  0  0  0
  1  6  1  0  0  0  0
  2  3  1  0  0  0  0
  3 25  1  0  0  0  0
  3  7  2  0  0  0  0
  4  5  1  0  0  0  0
  5  2  2  0  0  0  0
  5  6  1  0  0  0  0
  6  8  2  0  0  0  0
  8  7  1  0  0  0  0
  8 11  1  0  0  0  0
 10 12  1  0  0  0  0
 11 10  1  0  0  0  0
 11  9  2  0  0  0  0
 13 12  1  0  0  0  0
 13 14  1  0  0  0  0
 14 15  1  0  0  0  0
 15 21  1  1  0  0  0
 16 15  1  0  0  0  0
 16 17  1  0  0  0  0
 18 16  2  0  0  0  0
 19 20  2  0  0  0  0
 19 18  1  0  0  0  0
 21 22  1  0  0  0  0
 22 23  1  0  0  0  0
 24 25  2  0  0  0  0
 25 26  1  0  0  0  0
 26 27  3  0  0  0  0
 27 28  1  0  0  0  0
 29 31  1  0  0  0  0
 30 29  2  0  0  0  0
 30 28  1  0  0  0  0
 31 32  1  0  0  0  0
 32 33  1  0  0  0  0
 33 34  1  0  0  0  0
 34 36  1  0  0  0  0
 36 35  1  6  0  0  0
 37 36  1  0  0  0  0
 38 40  1  0  0  0  0
 38 39  1  0  0  0  0
 39 37  1  6  0  0  0
 39 43  1  0  0  0  0
 40 42  1  0  0  0  0
 42 43  1  0  0  0  0
 42 41  1  1  0  0  0
 44 29  1  0  0  0  0
 45 46  1  1  0  0  0
 45 44  1  0  0  0  0
 45 47  1  0  0  0  0
 48 47  1  0  0  0  0
 49 50  1  0  0  0  0
 50  2  1  0  0  0  0
M  END
>  <MODEL>
7

>  <REMARK>
 VINA RESULT:      -5.9      3.621      7.417
  Name = 
  24 active torsions:
  status: ('A' for Active; 'I' for Inactive)
    1  A    between atoms: C_1  and  N_47
    2  A    between atoms: C_5  and  N_29
    3  A    between atoms: C_5  and  C_39
    4  A    between atoms: N_7  and  C_19
    5  A    between atoms: N_7  and  C_37
    6  A    between atoms: C_8  and  C_13
    7  A    between atoms: C_9  and  C_25
    8  A    between atoms: C_9  and  O_43
    9  A    between atoms: C_10  and  N_49
   10  A    between atoms: C_11  and  C_20
   11  A    between atoms: C_11  and  O_43
   12  A    between atoms: C_12  and  C_42
   13  A    between atoms: C_13  and  N_29
   14  A    between atoms: C_13  and  C_42
   15  A    between atoms: C_15  and  C_50
   16  A    between atoms: S_16  and  C_22
   17  A    between atoms: S_16  and  C_33
   18  A    between atoms: O_18  and  O_32
   19  A    between atoms: O_18  and  C_46
   20  A    between atoms: C_21  and  C_50
   21  A    between atoms: N_23  and  C_39
   22  A    between atoms: C_25  and  C_46
   23  A    between atoms: C_27  and  C_45
   24  A    between atoms: O_32  and  C_37
                            x       y       z     vdW  Elec       q    Type
                         _______ _______ _______ _____ _____    ______ ____

>  <TORSDO>
F 24

$$$$
=
 OpenBabel11042415513D

 50 51  0  0  1  0  0  0  0  0999 V2000
  188.1830  173.1470  139.2840 N   0  0  0  0  0  1  0  0  0  0  0  0
  189.7960  171.8750  142.4150 C   0  0  0  0  0  0  0  0  0  0  0  0
  190.9860  171.3160  141.8950 C   0  0  0  0  0  0  0  0  0  0  0  0
  187.6940  173.0450  141.9960 O   0  0  0  0  0  1  0  0  0  0  0  0
  188.8780  172.4870  141.5270 C   0  0  0  0  0  0  0  0  0  0  0  0
  189.1440  172.5410  140.1500 C   0  0  0  0  0  0  0  0  0  0  0  0
  191.2270  171.3820  140.5180 C   0  0  0  0  0  3  0  0  0  0  0  0
  190.3310  171.9840  139.6360 C   0  0  0  0  0  0  0  0  0  0  0  0
  190.0210  171.2990  137.3690 O   0  0  0  0  0  0  0  0  0  0  0  0
  191.7480  172.8160  137.7300 N   0  0  0  0  0  2  0  0  0  0  0  0
  190.6700  171.9980  138.1930 C   0  0  0  0  0  0  0  0  0  0  0  0
  192.1000  172.9250  136.3230 C   0  0  0  0  0  2  0  0  0  0  0  0
  193.6000  173.0960  136.1780 C   0  0  0  0  0  2  0  0  0  0  0  0
  194.1470  173.6300  137.4140 N   0  0  0  0  0  2  0  0  0  0  0  0
  195.0820  174.6890  137.0600 C   0  0  2  0  0  3  0  0  0  0  0  0
  196.0540  174.9500  138.1720 C   0  0  0  0  0  0  0  0  0  0  0  0
  197.7600  174.6630  137.8580 Cl  0  0  0  0  0  0  0  0  0  0  0  0
  195.6290  175.3400  139.3370 N   0  0  0  0  0  0  0  0  0  0  0  0
  196.4940  175.5830  140.4430 C   0  0  0  0  0  3  0  0  0  0  0  0
  197.1150  174.6280  140.9770 O   0  0  0  0  0  0  0  0  0  0  0  0
  194.3440  175.9530  136.6180 C   0  0  0  0  0  2  0  0  0  0  0  0
  194.6610  176.3430  135.1810 C   0  0  0  0  0  2  0  0  0  0  0  0
  196.3720  176.9340  135.0790 S   0  0  0  0  0  1  0  0  0  0  0  0
  192.0290  169.4080  142.8940 O   0  0  0  0  0  0  0  0  0  0  0  0
  192.0040  170.6600  142.7570 C   0  0  0  0  0  0  0  0  0  0  0  0
  192.9910  171.4410  143.4520 C   0  0  0  0  0  0  0  0  0  0  0  0
  193.8080  172.1080  144.0360 C   0  0  0  0  0  0  0  0  0  0  0  0
  194.9870  173.0970  144.8980 S   0  0  0  0  0  0  0  0  0  0  0  0
  193.4790  175.4150  144.9760 C   0  0  0  0  0  0  0  0  0  0  0  0
  194.2890  174.6280  144.2690 C   0  0  0  0  0  3  0  0  0  0  0  0
  193.0790  175.0510  146.3770 C   0  0  0  0  0  2  0  0  0  0  0  0
  192.0200  176.0100  146.8860 C   0  0  0  0  0  2  0  0  0  0  0  0
  190.7680  175.3960  146.8300 O   0  0  0  0  0  0  0  0  0  0  0  0
  189.9080  176.3750  147.0170 O   0  0  0  0  0  0  0  0  0  0  0  0
  188.5060  174.6870  147.5940 F   0  0  0  0  0  0  0  0  0  0  0  0
  188.6530  175.8020  146.7900 C   0  0  1  0  0  3  0  0  0  0  0  0
  187.6130  176.7660  147.1130 N   0  0  0  0  0  2  0  0  0  0  0  0
  187.0880  177.3120  144.8240 C   0  0  0  0  0  2  0  0  0  0  0  0
  186.5940  176.6730  146.0760 C   0  0  2  0  0  3  0  0  0  0  0  0
  186.4680  178.4540  144.5740 C   0  0  0  0  0  2  0  0  0  0  0  0
  184.1120  179.0240  144.9750 C   0  0  0  0  0  1  0  0  0  0  0  0
  185.4590  178.7710  145.6160 C   0  0  1  0  0  3  0  0  0  0  0  0
  185.3950  177.5180  146.4780 C   0  0  0  0  0  2  0  0  0  0  0  0
  193.0000  176.5820  144.3630 O   0  0  0  0  0  0  0  0  0  0  0  0
  192.2670  176.6230  143.1370 C   0  0  2  0  0  3  0  0  0  0  0  0
  191.7500  177.9000  142.9110 O   0  0  0  0  0  1  0  0  0  0  0  0
  191.1530  175.5900  143.1180 C   0  0  0  0  0  2  0  0  0  0  0  0
  190.0580  176.0680  143.8140 F   0  0  0  0  0  0  0  0  0  0  0  0
  189.8860  172.8690  144.7940 C   0  0  0  0  0  1  0  0  0  0  0  0
  189.5610  171.8290  143.8330 N   0  0  0  0  0  2  0  0  0  0  0  0
  1  6  1  0  0  0  0
  2 50  1  0  0  0  0
  3  2  1  0  0  0  0
  3 25  1  0  0  0  0
  5  4  1  0  0  0  0
  5  2  2  0  0  0  0
  6  5  1  0  0  0  0
  7  3  2  0  0  0  0
  8  6  2  0  0  0  0
  8  7  1  0  0  0  0
  9 11  2  0  0  0  0
 10 11  1  0  0  0  0
 11  8  1  0  0  0  0
 12 10  1  0  0  0  0
 13 12  1  0  0  0  0
 13 14  1  0  0  0  0
 15 21  1  1  0  0  0
 15 14  1  0  0  0  0
 15 16  1  0  0  0  0
 16 18  2  0  0  0  0
 17 16  1  0  0  0  0
 18 19  1  0  0  0  0
 19 20  2  0  0  0  0
 22 21  1  0  0  0  0
 23 22  1  0  0  0  0
 25 24  2  0  0  0  0
 25 26  1  0  0  0  0
 26 27  3  0  0  0  0
 27 28  1  0  0  0  0
 29 31  1  0  0  0  0
 30 28  1  0  0  0  0
 30 29  2  0  0  0  0
 31 32  1  0  0  0  0
 33 32  1  0  0  0  0
 33 34  1  0  0  0  0
 36 34  1  0  0  0  0
 36 37  1  0  0  0  0
 36 35  1  1  0  0  0
 38 39  1  0  0  0  0
 39 43  1  0  0  0  0
 39 37  1  1  0  0  0
 40 38  1  0  0  0  0
 40 42  1  0  0  0  0
 42 41  1  6  0  0  0
 42 43  1  0  0  0  0
 44 29  1  0  0  0  0
 45 46  1  1  0  0  0
 45 44  1  0  0  0  0
 47 45  1  0  0  0  0
 47 48  1  0  0  0  0
 50 49  1  0  0  0  0
M  END
>  <MODEL>
8

>  <REMARK>
 VINA RESULT:      -5.8      5.776     10.523
  Name = 
  24 active torsions:
  status: ('A' for Active; 'I' for Inactive)
    1  A    between atoms: C_1  and  N_47
    2  A    between atoms: C_5  and  N_29
    3  A    between atoms: C_5  and  C_39
    4  A    between atoms: N_7  and  C_19
    5  A    between atoms: N_7  and  C_37
    6  A    between atoms: C_8  and  C_13
    7  A    between atoms: C_9  and  C_25
    8  A    between atoms: C_9  and  O_43
    9  A    between atoms: C_10  and  N_49
   10  A    between atoms: C_11  and  C_20
   11  A    between atoms: C_11  and  O_43
   12  A    between atoms: C_12  and  C_42
   13  A    between atoms: C_13  and  N_29
   14  A    between atoms: C_13  and  C_42
   15  A    between atoms: C_15  and  C_50
   16  A    between atoms: S_16  and  C_22
   17  A    between atoms: S_16  and  C_33
   18  A    between atoms: O_18  and  O_32
   19  A    between atoms: O_18  and  C_46
   20  A    between atoms: C_21  and  C_50
   21  A    between atoms: N_23  and  C_39
   22  A    between atoms: C_25  and  C_46
   23  A    between atoms: C_27  and  C_45
   24  A    between atoms: O_32  and  C_37
                            x       y       z     vdW  Elec       q    Type
                         _______ _______ _______ _____ _____    ______ ____

>  <TORSDO>
F 24

$$$$
=
 OpenBabel11042415513D

 50 51  0  0  1  0  0  0  0  0999 V2000
  187.4360  176.2640  140.9370 N   0  0  0  0  0  1  0  0  0  0  0  0
  188.3570  176.6790  144.5430 C   0  0  0  0  0  0  0  0  0  0  0  0
  189.1870  175.5510  144.7390 C   0  0  0  0  0  0  0  0  0  0  0  0
  186.9640  177.9960  143.0300 O   0  0  0  0  0  1  0  0  0  0  0  0
  187.7880  176.9010  143.2650 C   0  0  0  0  0  0  0  0  0  0  0  0
  188.0450  176.0170  142.2050 C   0  0  0  0  0  0  0  0  0  0  0  0
  189.4260  174.6840  143.6670 C   0  0  0  0  0  3  0  0  0  0  0  0
  188.8730  174.8960  142.4040 C   0  0  0  0  0  0  0  0  0  0  0  0
  188.3410  173.0350  141.0040 O   0  0  0  0  0  0  0  0  0  0  0  0
  190.4410  173.9770  140.6620 N   0  0  0  0  0  2  0  0  0  0  0  0
  189.1790  173.9180  141.3330 C   0  0  0  0  0  0  0  0  0  0  0  0
  190.7870  173.0890  139.5640 C   0  0  0  0  0  2  0  0  0  0  0  0
  192.2890  172.8770  139.5250 C   0  0  0  0  0  2  0  0  0  0  0  0
  192.9520  174.1570  139.3440 N   0  0  0  0  0  2  0  0  0  0  0  0
  193.6320  174.1230  138.0570 C   0  0  2  0  0  3  0  0  0  0  0  0
  195.1210  174.0950  138.2290 C   0  0  0  0  0  0  0  0  0  0  0  0
  195.8620  172.5850  138.7420 Cl  0  0  0  0  0  0  0  0  0  0  0  0
  195.8240  175.1720  138.0370 N   0  0  0  0  0  0  0  0  0  0  0  0
  197.2380  175.2210  138.2070 C   0  0  0  0  0  3  0  0  0  0  0  0
  197.7270  175.4970  139.3320 O   0  0  0  0  0  0  0  0  0  0  0  0
  193.1680  175.2690  137.1570 C   0  0  0  0  0  2  0  0  0  0  0  0
  192.0630  174.8480  136.1970 C   0  0  0  0  0  2  0  0  0  0  0  0
  192.3180  173.1220  135.7030 S   0  0  0  0  0  1  0  0  0  0  0  0
  189.1970  174.6300  146.9480 O   0  0  0  0  0  0  0  0  0  0  0  0
  189.8250  175.2460  146.0460 C   0  0  0  0  0  0  0  0  0  0  0  0
  191.1820  175.6440  146.3100 C   0  0  0  0  0  0  0  0  0  0  0  0
  192.3150  175.9810  146.5460 C   0  0  0  0  0  0  0  0  0  0  0  0
  193.9680  176.4760  146.9130 S   0  0  0  0  0  0  0  0  0  0  0  0
  195.1440  175.9290  144.4690 C   0  0  0  0  0  0  0  0  0  0  0  0
  194.3630  176.7410  145.1810 C   0  0  0  0  0  3  0  0  0  0  0  0
  195.7710  174.7160  145.0960 C   0  0  0  0  0  2  0  0  0  0  0  0
  197.1920  174.5420  144.5950 C   0  0  0  0  0  2  0  0  0  0  0  0
  197.4970  173.1830  144.5160 O   0  0  0  0  0  0  0  0  0  0  0  0
  196.6660  172.6050  145.3580 O   0  0  0  0  0  0  0  0  0  0  0  0
  196.7920  170.6370  146.4790 F   0  0  0  0  0  0  0  0  0  0  0  0
  196.9270  171.2360  145.2410 C   0  0  1  0  0  3  0  0  0  0  0  0
  195.9790  170.6400  144.3130 N   0  0  0  0  0  2  0  0  0  0  0  0
  193.7800  170.0880  145.1320 C   0  0  0  0  0  2  0  0  0  0  0  0
  194.6620  171.1770  144.6270 C   0  0  2  0  0  3  0  0  0  0  0  0
  192.8430  169.7640  144.2560 C   0  0  0  0  0  2  0  0  0  0  0  0
  191.6150  171.2450  142.7280 C   0  0  0  0  0  1  0  0  0  0  0  0
  192.9430  170.5800  143.0190 C   0  0  1  0  0  3  0  0  0  0  0  0
  193.9900  171.6360  143.3420 C   0  0  0  0  0  2  0  0  0  0  0  0
  195.3760  176.2550  143.1250 O   0  0  0  0  0  0  0  0  0  0  0  0
  194.5380  175.8730  142.0320 C   0  0  2  0  0  3  0  0  0  0  0  0
  194.8560  176.6050  140.8860 O   0  0  0  0  0  1  0  0  0  0  0  0
  193.0670  176.0340  142.3730 C   0  0  0  0  0  2  0  0  0  0  0  0
  192.5520  174.8280  142.8110 F   0  0  0  0  0  0  0  0  0  0  0  0
  186.9320  177.6640  146.4540 C   0  0  0  0  0  1  0  0  0  0  0  0
  188.1320  177.5820  145.6390 N   0  0  0  0  0  2  0  0  0  0  0  0
  1  6  1  0  0  0  0
  2  3  1  0  0  0  0
  2 50  1  0  0  0  0
  3 25  1  0  0  0  0
  4  5  1  0  0  0  0
  5  2  2  0  0  0  0
  6  8  2  0  0  0  0
  6  5  1  0  0  0  0
  7  3  2  0  0  0  0
  8  7  1  0  0  0  0
  9 11  2  0  0  0  0
 10 11  1  0  0  0  0
 11  8  1  0  0  0  0
 12 10  1  0  0  0  0
 13 12  1  0  0  0  0
 14 13  1  0  0  0  0
 15 21  1  6  0  0  0
 15 16  1  0  0  0  0
 15 14  1  0  0  0  0
 16 17  1  0  0  0  0
 18 19  1  0  0  0  0
 18 16  2  0  0  0  0
 19 20  2  0  0  0  0
 22 21  1  0  0  0  0
 23 22  1  0  0  0  0
 25 26  1  0  0  0  0
 25 24  2  0  0  0  0
 26 27  3  0  0  0  0
 27 28  1  0  0  0  0
 29 31  1  0  0  0  0
 29 30  2  0  0  0  0
 30 28  1  0  0  0  0
 32 31  1  0  0  0  0
 33 32  1  0  0  0  0
 33 34  1  0  0  0  0
 36 34  1  0  0  0  0
 36 35  1  1  0  0  0
 37 36  1  0  0  0  0
 39 37  1  6  0  0  0
 39 38  1  0  0  0  0
 40 38  1  0  0  0  0
 42 41  1  1  0  0  0
 42 43  1  0  0  0  0
 42 40  1  0  0  0  0
 43 39  1  0  0  0  0
 44 29  1  0  0  0  0
 45 46  1  6  0  0  0
 45 47  1  0  0  0  0
 45 44  1  0  0  0  0
 47 48  1  0  0  0  0
 50 49  1  0  0  0  0
M  END
>  <MODEL>
9

>  <REMARK>
 VINA RESULT:      -5.7      5.640      9.178
  Name = 
  24 active torsions:
  status: ('A' for Active; 'I' for Inactive)
    1  A    between atoms: C_1  and  N_47
    2  A    between atoms: C_5  and  N_29
    3  A    between atoms: C_5  and  C_39
    4  A    between atoms: N_7  and  C_19
    5  A    between atoms: N_7  and  C_37
    6  A    between atoms: C_8  and  C_13
    7  A    between atoms: C_9  and  C_25
    8  A    between atoms: C_9  and  O_43
    9  A    between atoms: C_10  and  N_49
   10  A    between atoms: C_11  and  C_20
   11  A    between atoms: C_11  and  O_43
   12  A    between atoms: C_12  and  C_42
   13  A    between atoms: C_13  and  N_29
   14  A    between atoms: C_13  and  C_42
   15  A    between atoms: C_15  and  C_50
   16  A    between atoms: S_16  and  C_22
   17  A    between atoms: S_16  and  C_33
   18  A    between atoms: O_18  and  O_32
   19  A    between atoms: O_18  and  C_46
   20  A    between atoms: C_21  and  C_50
   21  A    between atoms: N_23  and  C_39
   22  A    between atoms: C_25  and  C_46
   23  A    between atoms: C_27  and  C_45
   24  A    between atoms: O_32  and  C_37
                            x       y       z     vdW  Elec       q    Type
                         _______ _______ _______ _____ _____    ______ ____

>  <TORSDO>
F 24

$$$$
