=
 OpenBabel11042417453D

 48 51  0  0  1  0  0  0  0  0999 V2000
  191.8550  174.1900  143.4060 S   0  0  0  0  0  0  0  0  0  0  0  0
  191.2640  172.8780  144.5230 C   0  0  1  0  0  3  0  0  0  0  0  0
  190.9150  175.3560  144.3820 C   0  0  0  0  0  0  0  0  0  0  0  0
  189.9250  173.3260  145.0840 C   0  0  0  0  0  2  0  0  0  0  0  0
  189.9840  174.8110  145.1620 C   0  0  0  0  0  0  0  0  0  0  0  0
  187.8100  176.0140  145.5350 N   0  0  0  0  0  2  0  0  0  0  0  0
  186.7760  176.6350  146.3070 C   0  0  0  0  0  0  0  0  0  0  0  0
  186.8610  176.7050  147.5650 O   0  0  0  0  0  0  0  0  0  0  0  0
  189.0690  175.5610  146.0490 C   0  0  0  0  0  0  0  0  0  0  0  0
  189.3950  175.8170  147.2390 O   0  0  0  0  0  0  0  0  0  0  0  0
  185.5950  177.2280  145.6220 C   0  0  0  0  0  2  0  0  0  0  0  0
  185.9500  178.5730  145.0120 C   0  0  0  0  0  2  0  0  0  0  0  0
  184.9700  178.2010  140.9330 N   0  0  0  0  0  0  0  0  0  0  0  0
  183.9000  178.0860  141.9260 C   0  0  0  0  0  2  0  0  0  0  0  0
  186.6690  178.3900  142.6180 C   0  0  0  0  0  2  0  0  0  0  0  0
  185.6300  178.5760  143.5910 N   0  0  0  0  0  0  0  0  0  0  0  0
  186.3520  178.2340  141.3320 C   0  0  0  0  0  3  0  0  0  0  0  0
  184.2650  178.9040  143.1640 C   0  0  0  0  0  2  0  0  0  0  0  0
  191.2010  176.7610  144.3720 N   0  0  0  0  0  2  0  0  0  0  0  0
  192.5560  177.2890  144.4210 C   0  0  0  0  0  2  0  0  0  0  0  0
  195.1190  175.9060  144.2320 N   0  0  0  0  0  2  0  0  0  0  0  0
  193.2400  176.7700  145.5970 N   0  0  0  0  0  2  0  0  0  0  0  0
  194.9950  175.5870  146.5420 O   0  0  0  0  0  0  0  0  0  0  0  0
  194.4770  176.0670  145.5000 C   0  0  0  0  0  0  0  0  0  0  0  0
  196.0810  173.7740  143.5720 C   0  0  0  0  0  1  0  0  0  0  0  0
  196.3690  175.1790  144.0710 C   0  0  1  0  0  3  0  0  0  0  0  0
  197.2490  175.9090  143.0730 C   0  0  0  0  0  2  0  0  0  0  0  0
  197.2010  175.2400  141.7810 N   0  0  0  0  0  2  0  0  0  0  0  0
  196.6140  176.1750  140.8310 C   0  0  0  0  0  2  0  0  0  0  0  0
  195.3980  175.5790  140.2070 C   0  0  0  0  0  0  0  0  0  0  0  0
  194.2200  175.4760  140.9410 O   0  0  0  0  0  1  0  0  0  0  0  0
  195.4300  175.1890  139.0110 O   0  0  0  0  0  0  0  0  0  0  0  0
  191.1100  171.5620  143.7850 C   0  0  0  0  0  2  0  0  0  0  0  0
  190.1560  171.7210  142.6970 N   0  0  0  0  0  2  0  0  0  0  0  0
  191.0660  170.6020  138.7590 N   0  0  0  0  0  0  0  0  0  0  0  0
  191.1800  169.6850  139.7540 C   0  0  0  0  0  3  0  0  0  0  0  0
  190.2430  172.2620  140.2920 C   0  0  0  0  0  0  0  0  0  0  0  0
  190.6400  171.8770  138.9800 C   0  0  0  0  0  0  0  0  0  0  0  0
  190.4210  171.3340  141.3440 C   0  0  0  0  0  0  0  0  0  0  0  0
  190.8750  170.0400  141.0630 C   0  0  0  0  0  3  0  0  0  0  0  0
  189.6830  173.6370  140.5880 C   0  0  2  0  0  3  0  0  0  0  0  0
  188.0000  174.8010  141.9770 C   0  0  0  0  0  1  0  0  0  0  0  0
  188.2730  173.5510  141.1650 C   0  0  1  0  0  3  0  0  0  0  0  0
  188.4680  173.9270  139.7210 C   0  0  0  0  0  2  0  0  0  0  0  0
  191.6590  173.8250  137.7200 N   0  0  0  0  0  2  0  0  0  0  0  0
  191.7310  174.7190  136.5750 C   0  0  0  0  0  1  0  0  0  0  0  0
  189.8270  172.6480  136.8970 O   0  0  0  0  0  0  0  0  0  0  0  0
  190.6610  172.8060  137.8280 C   0  0  0  0  0  0  0  0  0  0  0  0
  1  3  1  0  0  0  0
  1  2  1  0  0  0  0
  2 33  1  6  0  0  0
  2  4  1  0  0  0  0
  3  5  2  0  0  0  0
  4  5  1  0  0  0  0
  5  9  1  0  0  0  0
  6  9  1  0  0  0  0
  6  7  1  0  0  0  0
  7  8  2  0  0  0  0
  9 10  2  0  0  0  0
 11  7  1  0  0  0  0
 12 11  1  0  0  0  0
 13 17  2  0  0  0  0
 13 14  1  0  0  0  0
 14 18  1  0  0  0  0
 15 16  1  0  0  0  0
 16 12  1  0  0  0  0
 17 15  1  0  0  0  0
 18 16  1  0  0  0  0
 19  3  1  0  0  0  0
 19 20  1  0  0  0  0
 20 22  1  0  0  0  0
 21 24  1  0  0  0  0
 24 22  1  0  0  0  0
 24 23  2  0  0  0  0
 26 25  1  6  0  0  0
 26 21  1  0  0  0  0
 27 26  1  0  0  0  0
 28 27  1  0  0  0  0
 29 28  1  0  0  0  0
 30 29  1  0  0  0  0
 30 31  1  0  0  0  0
 32 30  2  0  0  0  0
 34 33  1  0  0  0  0
 35 38  2  0  0  0  0
 35 36  1  0  0  0  0
 36 40  2  0  0  0  0
 37 39  2  0  0  0  0
 38 37  1  0  0  0  0
 39 34  1  0  0  0  0
 40 39  1  0  0  0  0
 41 37  1  6  0  0  0
 41 43  1  0  0  0  0
 43 42  1  1  0  0  0
 44 41  1  0  0  0  0
 44 43  1  0  0  0  0
 45 48  1  0  0  0  0
 46 45  1  0  0  0  0
 47 48  2  0  0  0  0
 48 38  1  0  0  0  0
M  END
>  <MODEL>
1

>  <REMARK>
 VINA RESULT:      -6.4      0.000      0.000
  Name = 
  17 active torsions:
  status: ('A' for Active; 'I' for Inactive)
    1  A    between atoms: N_1  and  C_16
    2  A    between atoms: C_2  and  C_23
    3  A    between atoms: C_4  and  C_18
    4  A    between atoms: C_4  and  C_42
    5  A    between atoms: C_6  and  N_9
    6  A    between atoms: C_6  and  N_32
    7  A    between atoms: C_7  and  C_38
    8  A    between atoms: C_13  and  C_30
    9  A    between atoms: C_13  and  N_39
   10  A    between atoms: C_16  and  C_34
   11  A    between atoms: C_25  and  C_47
   12  A    between atoms: C_28  and  C_46
   13  A    between atoms: N_31  and  C_42
   14  A    between atoms: N_32  and  C_37
   15  A    between atoms: C_34  and  N_45
   16  A    between atoms: C_38  and  N_45
   17  A    between atoms: N_39  and  C_40
                            x       y       z     vdW  Elec       q    Type
                         _______ _______ _______ _____ _____    ______ ____

>  <TORSDO>
F 17

$$$$
=
 OpenBabel11042417453D

 48 51  0  0  1  0  0  0  0  0999 V2000
  190.7380  173.8170  145.2410 S   0  0  0  0  0  0  0  0  0  0  0  0
  191.1520  174.9320  146.6200 C   0  0  1  0  0  3  0  0  0  0  0  0
  192.3920  174.0780  144.6150 C   0  0  0  0  0  0  0  0  0  0  0  0
  192.2210  175.8920  146.1250 C   0  0  0  0  0  2  0  0  0  0  0  0
  193.0190  175.1400  145.1180 C   0  0  0  0  0  0  0  0  0  0  0  0
  194.6860  175.8480  143.3780 N   0  0  0  0  0  2  0  0  0  0  0  0
  195.9170  176.3970  142.8950 C   0  0  0  0  0  0  0  0  0  0  0  0
  196.7980  176.8170  143.6960 O   0  0  0  0  0  0  0  0  0  0  0  0
  194.3830  175.5770  144.7520 C   0  0  0  0  0  0  0  0  0  0  0  0
  195.2780  175.6940  145.6320 O   0  0  0  0  0  0  0  0  0  0  0  0
  196.1780  176.4560  141.4300 C   0  0  0  0  0  2  0  0  0  0  0  0
  194.9000  176.2030  140.6490 C   0  0  0  0  0  2  0  0  0  0  0  0
  195.6470  174.1700  137.0380 N   0  0  0  0  0  0  0  0  0  0  0  0
  196.6240  175.1550  137.5040 C   0  0  0  0  0  2  0  0  0  0  0  0
  194.1340  174.6490  138.8390 C   0  0  0  0  0  2  0  0  0  0  0  0
  195.1860  175.3920  139.4740 N   0  0  0  0  0  0  0  0  0  0  0  0
  194.3650  174.0380  137.6750 C   0  0  0  0  0  3  0  0  0  0  0  0
  196.5750  175.2370  139.0290 C   0  0  0  0  0  2  0  0  0  0  0  0
  193.0120  173.1670  143.6990 N   0  0  0  0  0  2  0  0  0  0  0  0
  192.8110  173.2390  142.2600 C   0  0  0  0  0  2  0  0  0  0  0  0
  190.0820  173.1720  141.2280 N   0  0  0  0  0  2  0  0  0  0  0  0
  192.1960  172.0070  141.7900 N   0  0  0  0  0  2  0  0  0  0  0  0
  190.3490  170.8660  140.9770 O   0  0  0  0  0  0  0  0  0  0  0  0
  190.8520  171.9690  141.3150 C   0  0  0  0  0  0  0  0  0  0  0  0
  187.7840  173.5240  141.9390 C   0  0  0  0  0  1  0  0  0  0  0  0
  188.7000  173.1900  140.7740 C   0  0  1  0  0  3  0  0  0  0  0  0
  188.5450  174.2310  139.6810 C   0  0  0  0  0  2  0  0  0  0  0  0
  188.1840  173.5880  138.4250 N   0  0  0  0  0  2  0  0  0  0  0  0
  189.2920  173.7930  137.5010 C   0  0  0  0  0  2  0  0  0  0  0  0
  190.0270  172.5140  137.2870 C   0  0  0  0  0  0  0  0  0  0  0  0
  189.5290  171.5660  136.3980 O   0  0  0  0  0  0  0  0  0  0  0  0
  191.1080  172.2990  137.8950 O   0  0  0  0  0  1  0  0  0  0  0  0
  189.9310  175.7010  147.0860 C   0  0  0  0  0  2  0  0  0  0  0  0
  188.8610  175.5550  146.1100 N   0  0  0  0  0  2  0  0  0  0  0  0
  185.4690  178.0100  145.8780 N   0  0  0  0  0  0  0  0  0  0  0  0
  185.8170  177.4690  147.0730 C   0  0  0  0  0  3  0  0  0  0  0  0
  187.3970  177.0520  144.8060 C   0  0  0  0  0  0  0  0  0  0  0  0
  186.1940  177.8110  144.7420 C   0  0  0  0  0  0  0  0  0  0  0  0
  187.7300  176.4310  146.0320 C   0  0  0  0  0  0  0  0  0  0  0  0
  186.9430  176.6590  147.1660 C   0  0  0  0  0  3  0  0  0  0  0  0
  188.2910  176.8630  143.5980 C   0  0  2  0  0  3  0  0  0  0  0  0
  190.6640  176.8880  142.9050 C   0  0  0  0  0  1  0  0  0  0  0  0
  189.6330  177.5640  143.7850 C   0  0  1  0  0  3  0  0  0  0  0  0
  188.5750  178.1950  142.9210 C   0  0  0  0  0  2  0  0  0  0  0  0
  185.0080  177.5320  142.5200 N   0  0  0  0  0  2  0  0  0  0  0  0
  184.4200  178.0630  141.3010 C   0  0  0  0  0  1  0  0  0  0  0  0
  185.6910  179.6160  143.2980 O   0  0  0  0  0  0  0  0  0  0  0  0
  185.6490  178.3710  143.4850 C   0  0  0  0  0  0  0  0  0  0  0  0
  1  2  1  0  0  0  0
  2 33  1  6  0  0  0
  3  5  2  0  0  0  0
  3  1  1  0  0  0  0
  4  2  1  0  0  0  0
  5  4  1  0  0  0  0
  6  9  1  0  0  0  0
  7  6  1  0  0  0  0
  7  8  2  0  0  0  0
  9  5  1  0  0  0  0
  9 10  2  0  0  0  0
 11  7  1  0  0  0  0
 12 11  1  0  0  0  0
 13 14  1  0  0  0  0
 13 17  2  0  0  0  0
 14 18  1  0  0  0  0
 15 16  1  0  0  0  0
 16 12  1  0  0  0  0
 17 15  1  0  0  0  0
 18 16  1  0  0  0  0
 19  3  1  0  0  0  0
 20 19  1  0  0  0  0
 21 24  1  0  0  0  0
 22 20  1  0  0  0  0
 23 24  2  0  0  0  0
 24 22  1  0  0  0  0
 26 21  1  0  0  0  0
 26 25  1  1  0  0  0
 27 26  1  0  0  0  0
 28 27  1  0  0  0  0
 29 28  1  0  0  0  0
 30 29  1  0  0  0  0
 30 32  1  0  0  0  0
 31 30  2  0  0  0  0
 34 33  1  0  0  0  0
 35 36  1  0  0  0  0
 36 40  2  0  0  0  0
 37 39  2  0  0  0  0
 38 37  1  0  0  0  0
 38 35  2  0  0  0  0
 39 34  1  0  0  0  0
 39 40  1  0  0  0  0
 41 43  1  0  0  0  0
 41 37  1  1  0  0  0
 43 42  1  6  0  0  0
 44 41  1  0  0  0  0
 44 43  1  0  0  0  0
 45 48  1  0  0  0  0
 46 45  1  0  0  0  0
 47 48  2  0  0  0  0
 48 38  1  0  0  0  0
M  END
>  <MODEL>
2

>  <REMARK>
 VINA RESULT:      -6.4      2.348      8.254
  Name = 
  17 active torsions:
  status: ('A' for Active; 'I' for Inactive)
    1  A    between atoms: N_1  and  C_16
    2  A    between atoms: C_2  and  C_23
    3  A    between atoms: C_4  and  C_18
    4  A    between atoms: C_4  and  C_42
    5  A    between atoms: C_6  and  N_9
    6  A    between atoms: C_6  and  N_32
    7  A    between atoms: C_7  and  C_38
    8  A    between atoms: C_13  and  C_30
    9  A    between atoms: C_13  and  N_39
   10  A    between atoms: C_16  and  C_34
   11  A    between atoms: C_25  and  C_47
   12  A    between atoms: C_28  and  C_46
   13  A    between atoms: N_31  and  C_42
   14  A    between atoms: N_32  and  C_37
   15  A    between atoms: C_34  and  N_45
   16  A    between atoms: C_38  and  N_45
   17  A    between atoms: N_39  and  C_40
                            x       y       z     vdW  Elec       q    Type
                         _______ _______ _______ _____ _____    ______ ____

>  <TORSDO>
F 17

$$$$
=
 OpenBabel11042417453D

 48 51  0  0  1  0  0  0  0  0999 V2000
  192.1910  173.5860  143.4100 S   0  0  0  0  0  0  0  0  0  0  0  0
  191.2800  172.2190  144.1980 C   0  0  1  0  0  3  0  0  0  0  0  0
  191.2980  174.7110  144.4750 C   0  0  0  0  0  0  0  0  0  0  0  0
  189.9520  172.7760  144.6830 C   0  0  0  0  0  2  0  0  0  0  0  0
  190.2040  174.1990  145.0370 C   0  0  0  0  0  0  0  0  0  0  0  0
  188.4270  175.9370  145.4010 N   0  0  0  0  0  2  0  0  0  0  0  0
  187.4070  176.6300  146.1300 C   0  0  0  0  0  0  0  0  0  0  0  0
  187.1050  176.2870  147.3070 O   0  0  0  0  0  0  0  0  0  0  0  0
  189.2910  174.9290  145.9420 C   0  0  0  0  0  0  0  0  0  0  0  0
  189.2800  174.6830  147.1780 O   0  0  0  0  0  0  0  0  0  0  0  0
  186.7050  177.7840  145.5050 C   0  0  0  0  0  2  0  0  0  0  0  0
  185.3370  177.3660  144.9930 C   0  0  0  0  0  2  0  0  0  0  0  0
  184.6740  178.3420  140.9510 N   0  0  0  0  0  0  0  0  0  0  0  0
  183.5190  178.2200  141.8430 C   0  0  0  0  0  2  0  0  0  0  0  0
  186.2130  177.6670  142.6650 C   0  0  0  0  0  2  0  0  0  0  0  0
  185.1550  177.8250  143.6230 N   0  0  0  0  0  0  0  0  0  0  0  0
  185.9870  177.9410  141.3790 C   0  0  0  0  0  3  0  0  0  0  0  0
  183.9400  178.5660  143.2700 C   0  0  0  0  0  2  0  0  0  0  0  0
  191.7720  176.0340  144.7520 N   0  0  0  0  0  2  0  0  0  0  0  0
  192.9740  176.2920  145.5320 C   0  0  0  0  0  2  0  0  0  0  0  0
  195.5420  174.9510  145.1790 N   0  0  0  0  0  2  0  0  0  0  0  0
  194.0120  176.8320  144.6670 N   0  0  0  0  0  2  0  0  0  0  0  0
  196.1620  176.7350  143.8060 O   0  0  0  0  0  0  0  0  0  0  0  0
  195.2780  176.1930  144.5200 C   0  0  0  0  0  0  0  0  0  0  0  0
  197.1070  173.5340  146.3830 C   0  0  0  0  0  1  0  0  0  0  0  0
  196.8220  174.2670  145.0840 C   0  0  1  0  0  3  0  0  0  0  0  0
  196.7780  173.2790  143.9340 C   0  0  0  0  0  2  0  0  0  0  0  0
  195.4200  172.7860  143.7500 N   0  0  0  0  0  2  0  0  0  0  0  0
  195.4860  171.3310  143.7340 C   0  0  0  0  0  2  0  0  0  0  0  0
  194.7730  170.7700  144.9180 C   0  0  0  0  0  0  0  0  0  0  0  0
  194.2510  171.6250  145.8840 O   0  0  0  0  0  1  0  0  0  0  0  0
  194.6250  169.5260  145.0330 O   0  0  0  0  0  0  0  0  0  0  0  0
  191.0470  171.0840  143.2200 C   0  0  0  0  0  2  0  0  0  0  0  0
  190.1630  171.5310  142.1540 N   0  0  0  0  0  2  0  0  0  0  0  0
  191.1210  171.0240  138.1020 N   0  0  0  0  0  0  0  0  0  0  0  0
  191.1970  169.9600  138.9420 C   0  0  0  0  0  3  0  0  0  0  0  0
  190.3050  172.4420  139.8660 C   0  0  0  0  0  0  0  0  0  0  0  0
  190.7180  172.2580  138.5150 C   0  0  0  0  0  0  0  0  0  0  0  0
  190.4450  171.3560  140.7600 C   0  0  0  0  0  0  0  0  0  0  0  0
  190.8750  170.1110  140.2860 C   0  0  0  0  0  3  0  0  0  0  0  0
  189.7690  173.7670  140.3670 C   0  0  2  0  0  3  0  0  0  0  0  0
  188.1840  174.7390  141.9960 C   0  0  0  0  0  1  0  0  0  0  0  0
  188.4000  173.6010  141.0190 C   0  0  1  0  0  3  0  0  0  0  0  0
  188.5010  174.1550  139.6230 C   0  0  0  0  0  2  0  0  0  0  0  0
  189.7500  173.5260  136.5470 N   0  0  0  0  0  2  0  0  0  0  0  0
  189.7600  174.6250  135.5950 C   0  0  0  0  0  1  0  0  0  0  0  0
  191.7190  174.1930  137.5930 O   0  0  0  0  0  0  0  0  0  0  0  0
  190.7800  173.3560  137.5250 C   0  0  0  0  0  0  0  0  0  0  0  0
  1  2  1  0  0  0  0
  1  3  1  0  0  0  0
  2 33  1  6  0  0  0
  2  4  1  0  0  0  0
  3 19  1  0  0  0  0
  3  5  2  0  0  0  0
  4  5  1  0  0  0  0
  5  9  1  0  0  0  0
  6  9  1  0  0  0  0
  6  7  1  0  0  0  0
  7  8  2  0  0  0  0
  9 10  2  0  0  0  0
 11  7  1  0  0  0  0
 12 11  1  0  0  0  0
 13 17  2  0  0  0  0
 13 14  1  0  0  0  0
 14 18  1  0  0  0  0
 15 16  1  0  0  0  0
 16 12  1  0  0  0  0
 17 15  1  0  0  0  0
 18 16  1  0  0  0  0
 19 20  1  0  0  0  0
 22 20  1  0  0  0  0
 23 24  2  0  0  0  0
 24 22  1  0  0  0  0
 24 21  1  0  0  0  0
 26 21  1  0  0  0  0
 26 25  1  1  0  0  0
 27 26  1  0  0  0  0
 28 27  1  0  0  0  0
 29 28  1  0  0  0  0
 29 30  1  0  0  0  0
 30 32  2  0  0  0  0
 30 31  1  0  0  0  0
 34 33  1  0  0  0  0
 35 38  2  0  0  0  0
 35 36  1  0  0  0  0
 36 40  2  0  0  0  0
 37 39  2  0  0  0  0
 38 37  1  0  0  0  0
 39 34  1  0  0  0  0
 40 39  1  0  0  0  0
 41 37  1  6  0  0  0
 41 43  1  0  0  0  0
 43 42  1  1  0  0  0
 44 41  1  0  0  0  0
 44 43  1  0  0  0  0
 45 48  1  0  0  0  0
 46 45  1  0  0  0  0
 48 47  2  0  0  0  0
 48 38  1  0  0  0  0
M  END
>  <MODEL>
3

>  <REMARK>
 VINA RESULT:      -6.4      1.739      2.370
  Name = 
  17 active torsions:
  status: ('A' for Active; 'I' for Inactive)
    1  A    between atoms: N_1  and  C_16
    2  A    between atoms: C_2  and  C_23
    3  A    between atoms: C_4  and  C_18
    4  A    between atoms: C_4  and  C_42
    5  A    between atoms: C_6  and  N_9
    6  A    between atoms: C_6  and  N_32
    7  A    between atoms: C_7  and  C_38
    8  A    between atoms: C_13  and  C_30
    9  A    between atoms: C_13  and  N_39
   10  A    between atoms: C_16  and  C_34
   11  A    between atoms: C_25  and  C_47
   12  A    between atoms: C_28  and  C_46
   13  A    between atoms: N_31  and  C_42
   14  A    between atoms: N_32  and  C_37
   15  A    between atoms: C_34  and  N_45
   16  A    between atoms: C_38  and  N_45
   17  A    between atoms: N_39  and  C_40
                            x       y       z     vdW  Elec       q    Type
                         _______ _______ _______ _____ _____    ______ ____

>  <TORSDO>
F 17

$$$$
=
 OpenBabel11042417453D

 48 51  0  0  1  0  0  0  0  0999 V2000
  184.2740  177.8560  140.3430 S   0  0  0  0  0  0  0  0  0  0  0  0
  185.9840  178.1160  140.9160 C   0  0  1  0  0  3  0  0  0  0  0  0
  183.7290  178.2040  142.0100 C   0  0  0  0  0  0  0  0  0  0  0  0
  186.0240  177.7780  142.3970 C   0  0  0  0  0  2  0  0  0  0  0  0
  184.6810  178.1220  142.9370 C   0  0  0  0  0  0  0  0  0  0  0  0
  185.4170  177.7920  145.3160 N   0  0  0  0  0  2  0  0  0  0  0  0
  185.4230  178.0350  146.7280 C   0  0  0  0  0  0  0  0  0  0  0  0
  184.6550  178.8950  147.2400 O   0  0  0  0  0  0  0  0  0  0  0  0
  184.4810  178.3500  144.3850 C   0  0  0  0  0  0  0  0  0  0  0  0
  183.4930  179.0110  144.8000 O   0  0  0  0  0  0  0  0  0  0  0  0
  186.3290  177.2500  147.6100 C   0  0  0  0  0  2  0  0  0  0  0  0
  187.0260  176.1540  146.8220 C   0  0  0  0  0  2  0  0  0  0  0  0
  191.1600  176.4530  147.5630 N   0  0  0  0  0  2  0  0  0  0  0  0
  190.5500  175.1230  147.5130 C   0  0  0  0  0  2  0  0  0  0  0  0
  189.0460  177.5580  147.2940 C   0  0  0  0  0  3  0  0  0  0  0  0
  188.4710  176.2890  146.9490 N   0  0  0  0  0  0  0  0  0  0  0  0
  190.3500  177.6410  147.5660 C   0  0  0  0  0  3  0  0  0  0  0  0
  189.3320  175.1570  146.5930 C   0  0  0  0  0  2  0  0  0  0  0  0
  182.3860  178.6090  142.3020 N   0  0  0  0  0  2  0  0  0  0  0  0
  181.3910  178.8390  141.2660 C   0  0  0  0  0  2  0  0  0  0  0  0
  179.0740  180.3110  140.2720 N   0  0  0  0  0  2  0  0  0  0  0  0
  180.0580  178.6400  141.8160 N   0  0  0  0  0  2  0  0  0  0  0  0
  177.8140  179.2140  141.9030 O   0  0  0  0  0  0  0  0  0  0  0  0
  178.9320  179.3820  141.3510 C   0  0  0  0  0  0  0  0  0  0  0  0
  177.9600  182.4620  140.4680 C   0  0  0  0  0  1  0  0  0  0  0  0
  177.9670  181.1110  139.7730 C   0  0  1  0  0  3  0  0  0  0  0  0
  178.1210  181.3030  138.2760 C   0  0  0  0  0  2  0  0  0  0  0  0
  178.3450  182.7090  137.9720 N   0  0  0  0  0  2  0  0  0  0  0  0
  179.6180  182.8020  137.2700 C   0  0  0  0  0  2  0  0  0  0  0  0
  180.3140  184.0700  137.6310 C   0  0  0  0  0  0  0  0  0  0  0  0
  179.7120  184.9670  138.5080 O   0  0  0  0  0  1  0  0  0  0  0  0
  181.4540  184.3200  137.1600 O   0  0  0  0  0  0  0  0  0  0  0  0
  186.9550  177.2380  140.1500 C   0  0  0  0  0  2  0  0  0  0  0  0
  187.3160  176.0860  140.9630 N   0  0  0  0  0  2  0  0  0  0  0  0
  190.1010  173.1500  139.8620 N   0  0  0  0  0  0  0  0  0  0  0  0
  189.1250  173.5020  138.9870 C   0  0  0  0  0  3  0  0  0  0  0  0
  189.3570  174.7910  141.4540 C   0  0  0  0  0  0  0  0  0  0  0  0
  190.2350  173.7320  141.0860 C   0  0  0  0  0  0  0  0  0  0  0  0
  188.2980  175.1160  140.5760 C   0  0  0  0  0  0  0  0  0  0  0  0
  188.1990  174.4780  139.3350 C   0  0  0  0  0  3  0  0  0  0  0  0
  189.5050  175.5340  142.7660 C   0  0  2  0  0  3  0  0  0  0  0  0
  189.3910  177.8010  143.7460 C   0  0  0  0  0  1  0  0  0  0  0  0
  189.8350  177.0060  142.5360 C   0  0  1  0  0  3  0  0  0  0  0  0
  190.9250  176.0490  142.9400 C   0  0  0  0  0  2  0  0  0  0  0  0
  192.6620  173.4560  141.7600 N   0  0  0  0  0  2  0  0  0  0  0  0
  193.7000  172.9730  142.6560 C   0  0  0  0  0  1  0  0  0  0  0  0
  190.9250  172.5290  143.0030 O   0  0  0  0  0  0  0  0  0  0  0  0
  191.2750  173.1850  141.9850 C   0  0  0  0  0  0  0  0  0  0  0  0
  1  2  1  0  0  0  0
  1  3  1  0  0  0  0
  2 33  1  6  0  0  0
  2  4  1  0  0  0  0
  3 19  1  0  0  0  0
  3  5  2  0  0  0  0
  4  5  1  0  0  0  0
  5  9  1  0  0  0  0
  6  7  1  0  0  0  0
  7  8  2  0  0  0  0
  7 11  1  0  0  0  0
  9 10  2  0  0  0  0
  9  6  1  0  0  0  0
 12 16  1  0  0  0  0
 12 11  1  0  0  0  0
 13 17  1  0  0  0  0
 14 13  1  0  0  0  0
 15 17  2  0  0  0  0
 16 15  1  0  0  0  0
 18 16  1  0  0  0  0
 18 14  1  0  0  0  0
 20 22  1  0  0  0  0
 20 19  1  0  0  0  0
 21 24  1  0  0  0  0
 24 22  1  0  0  0  0
 24 23  2  0  0  0  0
 26 21  1  0  0  0  0
 26 25  1  1  0  0  0
 27 26  1  0  0  0  0
 28 27  1  0  0  0  0
 29 30  1  0  0  0  0
 29 28  1  0  0  0  0
 30 31  1  0  0  0  0
 32 30  2  0  0  0  0
 33 34  1  0  0  0  0
 35 38  1  0  0  0  0
 36 40  1  0  0  0  0
 36 35  2  0  0  0  0
 38 37  2  0  0  0  0
 38 48  1  0  0  0  0
 39 34  1  0  0  0  0
 39 37  1  0  0  0  0
 40 39  2  0  0  0  0
 41 37  1  6  0  0  0
 41 44  1  0  0  0  0
 43 41  1  0  0  0  0
 43 44  1  0  0  0  0
 43 42  1  1  0  0  0
 45 48  1  0  0  0  0
 45 46  1  0  0  0  0
 48 47  2  0  0  0  0
M  END
>  <MODEL>
4

>  <REMARK>
 VINA RESULT:      -6.3      5.083     10.517
  Name = 
  17 active torsions:
  status: ('A' for Active; 'I' for Inactive)
    1  A    between atoms: N_1  and  C_16
    2  A    between atoms: C_2  and  C_23
    3  A    between atoms: C_4  and  C_18
    4  A    between atoms: C_4  and  C_42
    5  A    between atoms: C_6  and  N_9
    6  A    between atoms: C_6  and  N_32
    7  A    between atoms: C_7  and  C_38
    8  A    between atoms: C_13  and  C_30
    9  A    between atoms: C_13  and  N_39
   10  A    between atoms: C_16  and  C_34
   11  A    between atoms: C_25  and  C_47
   12  A    between atoms: C_28  and  C_46
   13  A    between atoms: N_31  and  C_42
   14  A    between atoms: N_32  and  C_37
   15  A    between atoms: C_34  and  N_45
   16  A    between atoms: C_38  and  N_45
   17  A    between atoms: N_39  and  C_40
                            x       y       z     vdW  Elec       q    Type
                         _______ _______ _______ _____ _____    ______ ____

>  <TORSDO>
F 17

$$$$
=
 OpenBabel11042417453D

 48 51  0  0  1  0  0  0  0  0999 V2000
  190.0490  176.1110  144.5900 S   0  0  0  0  0  0  0  0  0  0  0  0
  190.1340  174.7230  145.7670 C   0  0  1  0  0  3  0  0  0  0  0  0
  189.8340  174.9090  143.2850 C   0  0  0  0  0  0  0  0  0  0  0  0
  190.6590  173.5150  145.0090 C   0  0  0  0  0  2  0  0  0  0  0  0
  190.1800  173.6640  143.6080 C   0  0  0  0  0  0  0  0  0  0  0  0
  191.2120  172.2230  141.8290 N   0  0  0  0  0  2  0  0  0  0  0  0
  191.3380  171.0640  140.9960 C   0  0  0  0  0  0  0  0  0  0  0  0
  190.5150  170.1110  141.0820 O   0  0  0  0  0  0  0  0  0  0  0  0
  190.1090  172.4980  142.7020 C   0  0  0  0  0  0  0  0  0  0  0  0
  189.0870  171.7610  142.6820 O   0  0  0  0  0  0  0  0  0  0  0  0
  192.4390  170.9870  139.9970 C   0  0  0  0  0  2  0  0  0  0  0  0
  192.5280  172.2750  139.1970 C   0  0  0  0  0  2  0  0  0  0  0  0
  189.3400  172.1330  136.4500 N   0  0  0  0  0  0  0  0  0  0  0  0
  189.2480  173.0530  137.5850 C   0  0  0  0  0  2  0  0  0  0  0  0
  191.4200  171.2130  137.2170 C   0  0  0  0  0  2  0  0  0  0  0  0
  191.5050  172.2910  138.1610 N   0  0  0  0  0  0  0  0  0  0  0  0
  190.3880  171.1510  136.3740 C   0  0  0  0  0  3  0  0  0  0  0  0
  190.6530  173.4760  138.0120 C   0  0  0  0  0  2  0  0  0  0  0  0
  189.2630  175.2560  142.0170 N   0  0  0  0  0  2  0  0  0  0  0  0
  187.8320  175.2000  141.7560 C   0  0  0  0  0  2  0  0  0  0  0  0
  186.1480  177.5570  142.1130 N   0  0  0  0  0  2  0  0  0  0  0  0
  187.5020  176.0850  140.6490 N   0  0  0  0  0  2  0  0  0  0  0  0
  186.3510  177.9160  139.8150 O   0  0  0  0  0  0  0  0  0  0  0  0
  186.6530  177.2190  140.8180 C   0  0  0  0  0  0  0  0  0  0  0  0
  183.8300  178.1940  142.4700 C   0  0  0  0  0  1  0  0  0  0  0  0
  185.2610  178.6870  142.3400 C   0  0  1  0  0  3  0  0  0  0  0  0
  185.6760  179.4030  143.6120 C   0  0  0  0  0  2  0  0  0  0  0  0
  184.7670  179.0630  144.6970 N   0  0  0  0  0  2  0  0  0  0  0  0
  185.5550  179.0110  145.9210 C   0  0  0  0  0  2  0  0  0  0  0  0
  185.8880  177.5980  146.2600 C   0  0  0  0  0  0  0  0  0  0  0  0
  184.8700  176.6970  146.5570 O   0  0  0  0  0  1  0  0  0  0  0  0
  187.0870  177.2150  146.2580 O   0  0  0  0  0  0  0  0  0  0  0  0
  191.0490  175.0510  146.9310 C   0  0  0  0  0  2  0  0  0  0  0  0
  192.4090  174.6420  146.6130 N   0  0  0  0  0  2  0  0  0  0  0  0
  195.3000  177.3650  145.2670 N   0  0  0  0  0  0  0  0  0  0  0  0
  194.5650  177.6660  146.3670 C   0  0  0  0  0  3  0  0  0  0  0  0
  194.2460  175.2130  145.0690 C   0  0  0  0  0  0  0  0  0  0  0  0
  195.1590  176.1930  144.5860 C   0  0  0  0  0  0  0  0  0  0  0  0
  193.4300  175.5460  146.1740 C   0  0  0  0  0  0  0  0  0  0  0  0
  193.6080  176.7700  146.8290 C   0  0  0  0  0  3  0  0  0  0  0  0
  194.1010  173.8580  144.4070 C   0  0  2  0  0  3  0  0  0  0  0  0
  193.7170  171.4700  144.9160 C   0  0  0  0  0  1  0  0  0  0  0  0
  194.4220  172.7280  145.3800 C   0  0  1  0  0  3  0  0  0  0  0  0
  195.4390  173.1380  144.3480 C   0  0  0  0  0  2  0  0  0  0  0  0
  195.3280  176.1450  142.0590 N   0  0  0  0  0  2  0  0  0  0  0  0
  196.0880  176.0410  140.8230 C   0  0  0  0  0  1  0  0  0  0  0  0
  197.1930  175.8660  143.4240 O   0  0  0  0  0  0  0  0  0  0  0  0
  195.9470  176.0330  143.3440 C   0  0  0  0  0  0  0  0  0  0  0  0
  1  2  1  0  0  0  0
  2 33  1  1  0  0  0
  3  5  2  0  0  0  0
  3  1  1  0  0  0  0
  4  2  1  0  0  0  0
  5  4  1  0  0  0  0
  6  9  1  0  0  0  0
  7  8  2  0  0  0  0
  7  6  1  0  0  0  0
  9  5  1  0  0  0  0
 10  9  2  0  0  0  0
 11  7  1  0  0  0  0
 12 11  1  0  0  0  0
 13 14  1  0  0  0  0
 14 18  1  0  0  0  0
 15 16  1  0  0  0  0
 16 12  1  0  0  0  0
 17 13  2  0  0  0  0
 17 15  1  0  0  0  0
 18 16  1  0  0  0  0
 19  3  1  0  0  0  0
 20 19  1  0  0  0  0
 21 26  1  0  0  0  0
 22 24  1  0  0  0  0
 22 20  1  0  0  0  0
 23 24  2  0  0  0  0
 24 21  1  0  0  0  0
 26 25  1  1  0  0  0
 26 27  1  0  0  0  0
 27 28  1  0  0  0  0
 28 29  1  0  0  0  0
 29 30  1  0  0  0  0
 30 31  1  0  0  0  0
 32 30  2  0  0  0  0
 34 33  1  0  0  0  0
 35 36  1  0  0  0  0
 36 40  2  0  0  0  0
 37 39  2  0  0  0  0
 38 37  1  0  0  0  0
 38 35  2  0  0  0  0
 39 34  1  0  0  0  0
 39 40  1  0  0  0  0
 41 37  1  1  0  0  0
 41 43  1  0  0  0  0
 43 42  1  6  0  0  0
 44 41  1  0  0  0  0
 44 43  1  0  0  0  0
 45 48  1  0  0  0  0
 46 45  1  0  0  0  0
 48 47  2  0  0  0  0
 48 38  1  0  0  0  0
M  END
>  <MODEL>
5

>  <REMARK>
 VINA RESULT:      -6.2      2.361      8.710
  Name = 
  17 active torsions:
  status: ('A' for Active; 'I' for Inactive)
    1  A    between atoms: N_1  and  C_16
    2  A    between atoms: C_2  and  C_23
    3  A    between atoms: C_4  and  C_18
    4  A    between atoms: C_4  and  C_42
    5  A    between atoms: C_6  and  N_9
    6  A    between atoms: C_6  and  N_32
    7  A    between atoms: C_7  and  C_38
    8  A    between atoms: C_13  and  C_30
    9  A    between atoms: C_13  and  N_39
   10  A    between atoms: C_16  and  C_34
   11  A    between atoms: C_25  and  C_47
   12  A    between atoms: C_28  and  C_46
   13  A    between atoms: N_31  and  C_42
   14  A    between atoms: N_32  and  C_37
   15  A    between atoms: C_34  and  N_45
   16  A    between atoms: C_38  and  N_45
   17  A    between atoms: N_39  and  C_40
                            x       y       z     vdW  Elec       q    Type
                         _______ _______ _______ _____ _____    ______ ____

>  <TORSDO>
F 17

$$$$
=
 OpenBabel11042417453D

 48 51  0  0  1  0  0  0  0  0999 V2000
  190.8810  174.3590  145.7560 S   0  0  0  0  0  0  0  0  0  0  0  0
  191.4190  175.8670  146.6260 C   0  0  1  0  0  3  0  0  0  0  0  0
  192.5440  174.2110  145.1170 C   0  0  0  0  0  0  0  0  0  0  0  0
  192.5670  176.4660  145.8320 C   0  0  0  0  0  2  0  0  0  0  0  0
  193.2750  175.3210  145.1990 C   0  0  0  0  0  0  0  0  0  0  0  0
  194.9160  175.7570  143.3480 N   0  0  0  0  0  2  0  0  0  0  0  0
  196.1990  176.0440  142.7790 C   0  0  0  0  0  0  0  0  0  0  0  0
  197.2160  176.1880  143.5140 O   0  0  0  0  0  0  0  0  0  0  0  0
  194.6700  175.4590  144.7280 C   0  0  0  0  0  0  0  0  0  0  0  0
  195.6350  175.3000  145.5220 O   0  0  0  0  0  0  0  0  0  0  0  0
  196.3470  176.1540  141.3020 C   0  0  0  0  0  2  0  0  0  0  0  0
  194.9860  176.1750  140.6280 C   0  0  0  0  0  2  0  0  0  0  0  0
  195.1270  173.2580  137.5950 N   0  0  0  0  0  0  0  0  0  0  0  0
  194.1820  173.0790  138.6980 C   0  0  0  0  0  2  0  0  0  0  0  0
  196.0690  175.2380  138.5720 C   0  0  0  0  0  2  0  0  0  0  0  0
  194.9730  175.2550  139.5000 N   0  0  0  0  0  0  0  0  0  0  0  0
  196.1290  174.2890  137.6370 C   0  0  0  0  0  3  0  0  0  0  0  0
  193.7760  174.4450  139.2480 C   0  0  0  0  0  2  0  0  0  0  0  0
  193.0620  172.9690  144.6240 N   0  0  0  0  0  2  0  0  0  0  0  0
  193.1120  172.6450  143.2060 C   0  0  0  0  0  2  0  0  0  0  0  0
  190.5030  173.0050  141.9480 N   0  0  0  0  0  2  0  0  0  0  0  0
  192.2280  171.5220  142.9300 N   0  0  0  0  0  2  0  0  0  0  0  0
  190.1920  170.7030  142.1830 O   0  0  0  0  0  0  0  0  0  0  0  0
  190.9410  171.7020  142.3440 C   0  0  0  0  0  0  0  0  0  0  0  0
  188.3110  173.9620  142.3810 C   0  0  0  0  0  1  0  0  0  0  0  0
  189.1920  173.2510  141.3680 C   0  0  1  0  0  3  0  0  0  0  0  0
  189.3460  174.1100  140.1270 C   0  0  0  0  0  2  0  0  0  0  0  0
  188.9890  173.3440  138.9410 N   0  0  0  0  0  2  0  0  0  0  0  0
  189.8450  173.8020  137.8560 C   0  0  0  0  0  2  0  0  0  0  0  0
  189.0180  174.2030  136.6810 C   0  0  0  0  0  0  0  0  0  0  0  0
  189.3260  173.7130  135.4160 O   0  0  0  0  0  0  0  0  0  0  0  0
  188.0300  174.9660  136.8370 O   0  0  0  0  0  1  0  0  0  0  0  0
  190.2820  176.8640  146.7410 C   0  0  0  0  0  2  0  0  0  0  0  0
  189.1470  176.4040  145.9550 N   0  0  0  0  0  2  0  0  0  0  0  0
  188.0010  178.2770  142.3830 N   0  0  0  0  0  0  0  0  0  0  0  0
  189.2930  177.8970  142.5490 C   0  0  0  0  0  3  0  0  0  0  0  0
  187.3820  177.3430  144.5100 C   0  0  0  0  0  0  0  0  0  0  0  0
  187.0420  178.0520  143.3240 C   0  0  0  0  0  0  0  0  0  0  0  0
  188.7380  177.0030  144.7200 C   0  0  0  0  0  0  0  0  0  0  0  0
  189.6860  177.2690  143.7250 C   0  0  0  0  0  3  0  0  0  0  0  0
  186.3460  176.9880  145.5570 C   0  0  2  0  0  3  0  0  0  0  0  0
  184.4130  177.9220  146.7830 C   0  0  0  0  0  1  0  0  0  0  0  0
  185.7890  178.2370  146.2330 C   0  0  1  0  0  3  0  0  0  0  0  0
  186.8150  177.3960  146.9440 C   0  0  0  0  0  2  0  0  0  0  0  0
  184.6680  177.8080  142.4710 N   0  0  0  0  0  2  0  0  0  0  0  0
  183.3230  178.3150  142.2500 C   0  0  0  0  0  1  0  0  0  0  0  0
  185.4340  179.7840  143.4360 O   0  0  0  0  0  0  0  0  0  0  0  0
  185.6950  178.6090  143.0640 C   0  0  0  0  0  0  0  0  0  0  0  0
  1  2  1  0  0  0  0
  2 33  1  6  0  0  0
  3  5  2  0  0  0  0
  3  1  1  0  0  0  0
  4  2  1  0  0  0  0
  5  4  1  0  0  0  0
  6  9  1  0  0  0  0
  7  6  1  0  0  0  0
  7  8  2  0  0  0  0
  9  5  1  0  0  0  0
  9 10  2  0  0  0  0
 11  7  1  0  0  0  0
 12 11  1  0  0  0  0
 13 17  2  0  0  0  0
 13 14  1  0  0  0  0
 14 18  1  0  0  0  0
 15 16  1  0  0  0  0
 16 12  1  0  0  0  0
 17 15  1  0  0  0  0
 18 16  1  0  0  0  0
 19  3  1  0  0  0  0
 20 19  1  0  0  0  0
 21 24  1  0  0  0  0
 22 20  1  0  0  0  0
 23 24  2  0  0  0  0
 24 22  1  0  0  0  0
 26 21  1  0  0  0  0
 26 25  1  1  0  0  0
 27 26  1  0  0  0  0
 28 27  1  0  0  0  0
 29 28  1  0  0  0  0
 30 32  1  0  0  0  0
 30 29  1  0  0  0  0
 31 30  2  0  0  0  0
 34 33  1  0  0  0  0
 35 36  2  0  0  0  0
 35 38  1  0  0  0  0
 36 40  1  0  0  0  0
 37 39  1  0  0  0  0
 38 37  2  0  0  0  0
 39 34  1  0  0  0  0
 40 39  2  0  0  0  0
 41 37  1  6  0  0  0
 41 43  1  0  0  0  0
 41 44  1  0  0  0  0
 43 42  1  1  0  0  0
 43 44  1  0  0  0  0
 45 48  1  0  0  0  0
 46 45  1  0  0  0  0
 48 38  1  0  0  0  0
 48 47  2  0  0  0  0
M  END
>  <MODEL>
6

>  <REMARK>
 VINA RESULT:      -6.1      2.353      8.186
  Name = 
  17 active torsions:
  status: ('A' for Active; 'I' for Inactive)
    1  A    between atoms: N_1  and  C_16
    2  A    between atoms: C_2  and  C_23
    3  A    between atoms: C_4  and  C_18
    4  A    between atoms: C_4  and  C_42
    5  A    between atoms: C_6  and  N_9
    6  A    between atoms: C_6  and  N_32
    7  A    between atoms: C_7  and  C_38
    8  A    between atoms: C_13  and  C_30
    9  A    between atoms: C_13  and  N_39
   10  A    between atoms: C_16  and  C_34
   11  A    between atoms: C_25  and  C_47
   12  A    between atoms: C_28  and  C_46
   13  A    between atoms: N_31  and  C_42
   14  A    between atoms: N_32  and  C_37
   15  A    between atoms: C_34  and  N_45
   16  A    between atoms: C_38  and  N_45
   17  A    between atoms: N_39  and  C_40
                            x       y       z     vdW  Elec       q    Type
                         _______ _______ _______ _____ _____    ______ ____

>  <TORSDO>
F 17

$$$$
=
 OpenBabel11042417453D

 48 51  0  0  1  0  0  0  0  0999 V2000
  190.4900  174.3940  146.0680 S   0  0  0  0  0  0  0  0  0  0  0  0
  191.2210  175.5430  147.2780 C   0  0  1  0  0  3  0  0  0  0  0  0
  192.1000  174.2770  145.3000 C   0  0  0  0  0  0  0  0  0  0  0  0
  192.3940  176.2320  146.6010 C   0  0  0  0  0  2  0  0  0  0  0  0
  192.9490  175.2470  145.6320 C   0  0  0  0  0  0  0  0  0  0  0  0
  194.5390  175.6550  143.7310 N   0  0  0  0  0  2  0  0  0  0  0  0
  195.8060  175.9360  143.1240 C   0  0  0  0  0  0  0  0  0  0  0  0
  196.8400  176.0970  143.8290 O   0  0  0  0  0  0  0  0  0  0  0  0
  194.3310  175.3820  145.1220 C   0  0  0  0  0  0  0  0  0  0  0  0
  195.3170  175.2410  145.8940 O   0  0  0  0  0  0  0  0  0  0  0  0
  195.9150  176.0180  141.6410 C   0  0  0  0  0  2  0  0  0  0  0  0
  197.3140  175.6410  141.1860 C   0  0  0  0  0  2  0  0  0  0  0  0
  196.7990  173.0300  137.9230 N   0  0  0  0  0  0  0  0  0  0  0  0
  195.8650  174.1450  138.0840 C   0  0  0  0  0  2  0  0  0  0  0  0
  197.9410  173.5410  139.9710 C   0  0  0  0  0  2  0  0  0  0  0  0
  197.2430  174.7950  140.0020 N   0  0  0  0  0  0  0  0  0  0  0  0
  197.7450  172.7000  138.9540 C   0  0  0  0  0  3  0  0  0  0  0  0
  196.5660  175.2970  138.8020 C   0  0  0  0  0  2  0  0  0  0  0  0
  192.4610  173.1790  144.4530 N   0  0  0  0  0  2  0  0  0  0  0  0
  191.7200  172.8390  143.2470 C   0  0  0  0  0  2  0  0  0  0  0  0
  191.5270  172.0310  140.4490 N   0  0  0  0  0  2  0  0  0  0  0  0
  192.1220  173.7210  142.1620 N   0  0  0  0  0  2  0  0  0  0  0  0
  192.4730  174.0950  139.9010 O   0  0  0  0  0  0  0  0  0  0  0  0
  192.0570  173.3150  140.7960 C   0  0  0  0  0  0  0  0  0  0  0  0
  191.2710  170.0480  139.0680 C   0  0  0  0  0  1  0  0  0  0  0  0
  191.4590  171.5550  139.0760 C   0  0  1  0  0  3  0  0  0  0  0  0
  190.2930  172.2230  138.3720 C   0  0  0  0  0  2  0  0  0  0  0  0
  189.0520  171.9390  139.0790 N   0  0  0  0  0  2  0  0  0  0  0  0
  188.3600  173.2070  139.2640 C   0  0  0  0  0  2  0  0  0  0  0  0
  188.4380  173.6330  140.6900 C   0  0  0  0  0  0  0  0  0  0  0  0
  188.9020  174.9050  141.0110 O   0  0  0  0  0  0  0  0  0  0  0  0
  188.0650  172.8510  141.6030 O   0  0  0  0  0  1  0  0  0  0  0  0
  190.2040  176.5700  147.7380 C   0  0  0  0  0  2  0  0  0  0  0  0
  189.8150  177.4090  146.6140 N   0  0  0  0  0  2  0  0  0  0  0  0
  185.8220  177.7770  145.3870 N   0  0  0  0  0  0  0  0  0  0  0  0
  186.1390  177.9930  146.6880 C   0  0  0  0  0  3  0  0  0  0  0  0
  188.1290  177.4190  144.8130 C   0  0  0  0  0  0  0  0  0  0  0  0
  186.7550  177.4670  144.4440 C   0  0  0  0  0  0  0  0  0  0  0  0
  188.4600  177.5770  146.1790 C   0  0  0  0  0  0  0  0  0  0  0  0
  187.4600  177.8820  147.1090 C   0  0  0  0  0  3  0  0  0  0  0  0
  189.2230  177.1620  143.7980 C   0  0  2  0  0  3  0  0  0  0  0  0
  191.5580  177.7640  143.2520 C   0  0  0  0  0  1  0  0  0  0  0  0
  190.2420  178.2970  143.7800 C   0  0  1  0  0  3  0  0  0  0  0  0
  189.1990  178.2120  142.6980 C   0  0  0  0  0  2  0  0  0  0  0  0
  185.8060  178.1880  142.2080 N   0  0  0  0  0  2  0  0  0  0  0  0
  185.3660  177.9130  140.8490 C   0  0  0  0  0  1  0  0  0  0  0  0
  186.3180  175.9650  142.6700 O   0  0  0  0  0  0  0  0  0  0  0  0
  186.2640  177.1540  143.0840 C   0  0  0  0  0  0  0  0  0  0  0  0
  1  2  1  0  0  0  0
  2 33  1  6  0  0  0
  3  5  2  0  0  0  0
  3  1  1  0  0  0  0
  4  2  1  0  0  0  0
  5  4  1  0  0  0  0
  6  9  1  0  0  0  0
  7  6  1  0  0  0  0
  7  8  2  0  0  0  0
  9  5  1  0  0  0  0
  9 10  2  0  0  0  0
 11  7  1  0  0  0  0
 12 11  1  0  0  0  0
 13 14  1  0  0  0  0
 13 17  2  0  0  0  0
 14 18  1  0  0  0  0
 15 16  1  0  0  0  0
 16 12  1  0  0  0  0
 17 15  1  0  0  0  0
 18 16  1  0  0  0  0
 19  3  1  0  0  0  0
 20 19  1  0  0  0  0
 21 24  1  0  0  0  0
 22 20  1  0  0  0  0
 23 24  2  0  0  0  0
 24 22  1  0  0  0  0
 26 25  1  1  0  0  0
 26 21  1  0  0  0  0
 27 26  1  0  0  0  0
 27 28  1  0  0  0  0
 28 29  1  0  0  0  0
 29 30  1  0  0  0  0
 30 31  2  0  0  0  0
 30 32  1  0  0  0  0
 34 33  1  0  0  0  0
 35 36  1  0  0  0  0
 36 40  2  0  0  0  0
 37 39  2  0  0  0  0
 38 37  1  0  0  0  0
 38 35  2  0  0  0  0
 39 34  1  0  0  0  0
 39 40  1  0  0  0  0
 41 37  1  1  0  0  0
 43 42  1  6  0  0  0
 43 41  1  0  0  0  0
 44 43  1  0  0  0  0
 44 41  1  0  0  0  0
 45 48  1  0  0  0  0
 46 45  1  0  0  0  0
 47 48  2  0  0  0  0
 48 38  1  0  0  0  0
M  END
>  <MODEL>
7

>  <REMARK>
 VINA RESULT:      -6.0      2.413      8.419
  Name = 
  17 active torsions:
  status: ('A' for Active; 'I' for Inactive)
    1  A    between atoms: N_1  and  C_16
    2  A    between atoms: C_2  and  C_23
    3  A    between atoms: C_4  and  C_18
    4  A    between atoms: C_4  and  C_42
    5  A    between atoms: C_6  and  N_9
    6  A    between atoms: C_6  and  N_32
    7  A    between atoms: C_7  and  C_38
    8  A    between atoms: C_13  and  C_30
    9  A    between atoms: C_13  and  N_39
   10  A    between atoms: C_16  and  C_34
   11  A    between atoms: C_25  and  C_47
   12  A    between atoms: C_28  and  C_46
   13  A    between atoms: N_31  and  C_42
   14  A    between atoms: N_32  and  C_37
   15  A    between atoms: C_34  and  N_45
   16  A    between atoms: C_38  and  N_45
   17  A    between atoms: N_39  and  C_40
                            x       y       z     vdW  Elec       q    Type
                         _______ _______ _______ _____ _____    ______ ____

>  <TORSDO>
F 17

$$$$
=
 OpenBabel11042417453D

 48 51  0  0  1  0  0  0  0  0999 V2000
  190.8770  174.5730  145.8430 S   0  0  0  0  0  0  0  0  0  0  0  0
  191.4390  176.1010  146.6600 C   0  0  1  0  0  3  0  0  0  0  0  0
  192.5270  174.3970  145.1780 C   0  0  0  0  0  0  0  0  0  0  0  0
  192.5760  176.6710  145.8290 C   0  0  0  0  0  2  0  0  0  0  0  0
  193.2660  175.5040  145.2160 C   0  0  0  0  0  0  0  0  0  0  0  0
  194.8770  176.0610  143.3700 N   0  0  0  0  0  2  0  0  0  0  0  0
  196.1580  176.3410  142.7940 C   0  0  0  0  0  0  0  0  0  0  0  0
  197.2010  176.3440  143.5060 O   0  0  0  0  0  0  0  0  0  0  0  0
  194.6530  175.6190  144.7150 C   0  0  0  0  0  0  0  0  0  0  0  0
  195.6290  175.3180  145.4530 O   0  0  0  0  0  0  0  0  0  0  0  0
  196.2710  176.6110  141.3350 C   0  0  0  0  0  2  0  0  0  0  0  0
  197.1600  175.5770  140.6670 C   0  0  0  0  0  2  0  0  0  0  0  0
  195.7800  174.3040  136.8970 N   0  0  0  0  0  0  0  0  0  0  0  0
  194.9850  173.9790  138.0820 C   0  0  0  0  0  2  0  0  0  0  0  0
  197.5290  175.3020  138.2040 C   0  0  0  0  0  2  0  0  0  0  0  0
  196.6500  175.2640  139.3390 N   0  0  0  0  0  0  0  0  0  0  0  0
  197.1000  174.8610  137.0190 C   0  0  0  0  0  3  0  0  0  0  0  0
  195.2120  175.0430  139.1550 C   0  0  0  0  0  2  0  0  0  0  0  0
  193.0290  173.1380  144.7110 N   0  0  0  0  0  2  0  0  0  0  0  0
  192.4640  172.4420  143.5650 C   0  0  0  0  0  2  0  0  0  0  0  0
  192.5240  171.7100  140.7400 N   0  0  0  0  0  2  0  0  0  0  0  0
  192.1550  173.4000  142.5150 N   0  0  0  0  0  2  0  0  0  0  0  0
  191.9970  173.9340  140.2640 O   0  0  0  0  0  0  0  0  0  0  0  0
  192.2150  173.0510  141.1330 C   0  0  0  0  0  0  0  0  0  0  0  0
  193.7390  170.2850  139.1910 C   0  0  0  0  0  1  0  0  0  0  0  0
  192.6220  171.3020  139.3470 C   0  0  1  0  0  3  0  0  0  0  0  0
  191.3040  170.6910  138.9100 C   0  0  0  0  0  2  0  0  0  0  0  0
  190.5430  171.6530  138.1250 N   0  0  0  0  0  2  0  0  0  0  0  0
  189.1570  171.5690  138.5630 C   0  0  0  0  0  2  0  0  0  0  0  0
  188.7930  172.7790  139.3540 C   0  0  0  0  0  0  0  0  0  0  0  0
  188.4900  173.9710  138.7020 O   0  0  0  0  0  0  0  0  0  0  0  0
  188.7390  172.7180  140.6100 O   0  0  0  0  0  1  0  0  0  0  0  0
  190.3110  177.1090  146.7670 C   0  0  0  0  0  2  0  0  0  0  0  0
  189.1480  176.6190  146.0420 N   0  0  0  0  0  2  0  0  0  0  0  0
  187.9430  178.2710  142.3800 N   0  0  0  0  0  0  0  0  0  0  0  0
  189.2410  177.9100  142.5520 C   0  0  0  0  0  3  0  0  0  0  0  0
  187.3580  177.4600  144.5670 C   0  0  0  0  0  0  0  0  0  0  0  0
  186.9980  178.0960  143.3450 C   0  0  0  0  0  0  0  0  0  0  0  0
  188.7200  177.1420  144.7790 C   0  0  0  0  0  0  0  0  0  0  0  0
  189.6530  177.3540  143.7570 C   0  0  0  0  0  3  0  0  0  0  0  0
  186.3380  177.1610  145.6460 C   0  0  2  0  0  3  0  0  0  0  0  0
  184.4920  178.1950  146.9250 C   0  0  0  0  0  1  0  0  0  0  0  0
  185.8650  178.4380  146.3330 C   0  0  1  0  0  3  0  0  0  0  0  0
  186.8690  177.5500  147.0170 C   0  0  0  0  0  2  0  0  0  0  0  0
  184.6650  177.8370  142.3900 N   0  0  0  0  0  2  0  0  0  0  0  0
  183.3130  178.3160  142.1520 C   0  0  0  0  0  1  0  0  0  0  0  0
  185.3320  179.7680  143.5070 O   0  0  0  0  0  0  0  0  0  0  0  0
  185.6440  178.6280  143.0710 C   0  0  0  0  0  0  0  0  0  0  0  0
  1  2  1  0  0  0  0
  2 33  1  6  0  0  0
  3  5  2  0  0  0  0
  3  1  1  0  0  0  0
  4  2  1  0  0  0  0
  5  4  1  0  0  0  0
  6  9  1  0  0  0  0
  7  6  1  0  0  0  0
  7  8  2  0  0  0  0
  9  5  1  0  0  0  0
  9 10  2  0  0  0  0
 11  7  1  0  0  0  0
 12 11  1  0  0  0  0
 13 17  2  0  0  0  0
 13 14  1  0  0  0  0
 14 18  1  0  0  0  0
 15 16  1  0  0  0  0
 16 12  1  0  0  0  0
 17 15  1  0  0  0  0
 18 16  1  0  0  0  0
 19  3  1  0  0  0  0
 20 19  1  0  0  0  0
 21 24  1  0  0  0  0
 22 20  1  0  0  0  0
 23 24  2  0  0  0  0
 24 22  1  0  0  0  0
 26 25  1  1  0  0  0
 26 21  1  0  0  0  0
 27 26  1  0  0  0  0
 28 29  1  0  0  0  0
 28 27  1  0  0  0  0
 29 30  1  0  0  0  0
 30 32  1  0  0  0  0
 31 30  2  0  0  0  0
 34 33  1  0  0  0  0
 35 36  2  0  0  0  0
 35 38  1  0  0  0  0
 36 40  1  0  0  0  0
 37 39  1  0  0  0  0
 38 37  2  0  0  0  0
 39 34  1  0  0  0  0
 40 39  2  0  0  0  0
 41 37  1  6  0  0  0
 41 43  1  0  0  0  0
 41 44  1  0  0  0  0
 43 42  1  1  0  0  0
 43 44  1  0  0  0  0
 45 48  1  0  0  0  0
 46 45  1  0  0  0  0
 48 38  1  0  0  0  0
 48 47  2  0  0  0  0
M  END
>  <MODEL>
8

>  <REMARK>
 VINA RESULT:      -6.0      2.344      8.343
  Name = 
  17 active torsions:
  status: ('A' for Active; 'I' for Inactive)
    1  A    between atoms: N_1  and  C_16
    2  A    between atoms: C_2  and  C_23
    3  A    between atoms: C_4  and  C_18
    4  A    between atoms: C_4  and  C_42
    5  A    between atoms: C_6  and  N_9
    6  A    between atoms: C_6  and  N_32
    7  A    between atoms: C_7  and  C_38
    8  A    between atoms: C_13  and  C_30
    9  A    between atoms: C_13  and  N_39
   10  A    between atoms: C_16  and  C_34
   11  A    between atoms: C_25  and  C_47
   12  A    between atoms: C_28  and  C_46
   13  A    between atoms: N_31  and  C_42
   14  A    between atoms: N_32  and  C_37
   15  A    between atoms: C_34  and  N_45
   16  A    between atoms: C_38  and  N_45
   17  A    between atoms: N_39  and  C_40
                            x       y       z     vdW  Elec       q    Type
                         _______ _______ _______ _____ _____    ______ ____

>  <TORSDO>
F 17

$$$$
=
 OpenBabel11042417453D

 48 51  0  0  1  0  0  0  0  0999 V2000
  184.5440  177.8570  140.2780 S   0  0  0  0  0  0  0  0  0  0  0  0
  186.2140  178.0960  140.9650 C   0  0  1  0  0  3  0  0  0  0  0  0
  183.8920  178.2210  141.9030 C   0  0  0  0  0  0  0  0  0  0  0  0
  186.1490  177.7650  142.4470 C   0  0  0  0  0  2  0  0  0  0  0  0
  184.7780  178.1310  142.8930 C   0  0  0  0  0  0  0  0  0  0  0  0
  185.4740  178.0390  145.3050 N   0  0  0  0  0  2  0  0  0  0  0  0
  185.3800  178.3310  146.7040 C   0  0  0  0  0  0  0  0  0  0  0  0
  184.4410  179.0440  147.1560 O   0  0  0  0  0  0  0  0  0  0  0  0
  184.4840  178.3690  144.3230 C   0  0  0  0  0  0  0  0  0  0  0  0
  183.3710  178.8410  144.6800 O   0  0  0  0  0  0  0  0  0  0  0  0
  186.3870  177.7710  147.6470 C   0  0  0  0  0  2  0  0  0  0  0  0
  186.8370  176.3930  147.1920 C   0  0  0  0  0  2  0  0  0  0  0  0
  191.0280  176.2480  146.8040 N   0  0  0  0  0  0  0  0  0  0  0  0
  190.2710  174.9970  146.7220 C   0  0  0  0  0  2  0  0  0  0  0  0
  189.0640  177.5370  147.2980 C   0  0  0  0  0  2  0  0  0  0  0  0
  188.2710  176.3960  146.9360 N   0  0  0  0  0  0  0  0  0  0  0  0
  190.3940  177.4730  147.2100 C   0  0  0  0  0  3  0  0  0  0  0  0
  188.8690  175.2850  146.1880 C   0  0  0  0  0  2  0  0  0  0  0  0
  182.5390  178.6480  142.1020 N   0  0  0  0  0  2  0  0  0  0  0  0
  181.4650  178.3130  141.1780 C   0  0  0  0  0  2  0  0  0  0  0  0
  178.9480  178.6730  139.7450 N   0  0  0  0  0  2  0  0  0  0  0  0
  180.1870  178.3780  141.8710 N   0  0  0  0  0  2  0  0  0  0  0  0
  177.8900  178.6930  141.8260 O   0  0  0  0  0  0  0  0  0  0  0  0
  178.9600  178.5850  141.1730 C   0  0  0  0  0  0  0  0  0  0  0  0
  177.6930  180.3520  138.5140 C   0  0  0  0  0  1  0  0  0  0  0  0
  177.7310  178.9070  138.9820 C   0  0  1  0  0  3  0  0  0  0  0  0
  177.7030  177.9760  137.7850 C   0  0  0  0  0  2  0  0  0  0  0  0
  178.4620  176.7670  138.0740 N   0  0  0  0  0  2  0  0  0  0  0  0
  177.6920  175.6410  137.5640 C   0  0  0  0  0  2  0  0  0  0  0  0
  178.6070  174.5710  137.0740 C   0  0  0  0  0  0  0  0  0  0  0  0
  178.8370  174.4250  135.7090 O   0  0  0  0  0  0  0  0  0  0  0  0
  179.1870  173.8130  137.8940 O   0  0  0  0  0  1  0  0  0  0  0  0
  187.2220  177.2000  140.2710 C   0  0  0  0  0  2  0  0  0  0  0  0
  187.5970  176.1080  141.1570 N   0  0  0  0  0  2  0  0  0  0  0  0
  190.2120  172.9880  140.1490 N   0  0  0  0  0  0  0  0  0  0  0  0
  189.2060  173.3140  139.2970 C   0  0  0  0  0  3  0  0  0  0  0  0
  189.6100  174.7700  141.6470 C   0  0  0  0  0  0  0  0  0  0  0  0
  190.4280  173.6520  141.3180 C   0  0  0  0  0  0  0  0  0  0  0  0
  188.5210  175.0740  140.7990 C   0  0  0  0  0  0  0  0  0  0  0  0
  188.3360  174.3510  139.6140 C   0  0  0  0  0  3  0  0  0  0  0  0
  189.8510  175.6010  142.8900 C   0  0  2  0  0  3  0  0  0  0  0  0
  189.7630  177.9250  143.7310 C   0  0  0  0  0  1  0  0  0  0  0  0
  190.1220  177.0610  142.5390 C   0  0  1  0  0  3  0  0  0  0  0  0
  191.2670  176.1550  142.9060 C   0  0  0  0  0  2  0  0  0  0  0  0
  191.1710  172.4440  143.4180 N   0  0  0  0  0  2  0  0  0  0  0  0
  192.1950  171.8780  144.2820 C   0  0  0  0  0  1  0  0  0  0  0  0
  192.6960  173.2340  141.8470 O   0  0  0  0  0  0  0  0  0  0  0  0
  191.4920  173.1310  142.2050 C   0  0  0  0  0  0  0  0  0  0  0  0
  1  2  1  0  0  0  0
  1  3  1  0  0  0  0
  2 33  1  6  0  0  0
  2  4  1  0  0  0  0
  3 19  1  0  0  0  0
  3  5  2  0  0  0  0
  4  5  1  0  0  0  0
  5  9  1  0  0  0  0
  6  7  1  0  0  0  0
  7  8  2  0  0  0  0
  7 11  1  0  0  0  0
  9 10  2  0  0  0  0
  9  6  1  0  0  0  0
 12 11  1  0  0  0  0
 13 17  2  0  0  0  0
 14 13  1  0  0  0  0
 16 12  1  0  0  0  0
 16 15  1  0  0  0  0
 17 15  1  0  0  0  0
 18 14  1  0  0  0  0
 18 16  1  0  0  0  0
 20 22  1  0  0  0  0
 20 19  1  0  0  0  0
 21 24  1  0  0  0  0
 24 23  2  0  0  0  0
 24 22  1  0  0  0  0
 26 25  1  6  0  0  0
 26 21  1  0  0  0  0
 27 28  1  0  0  0  0
 27 26  1  0  0  0  0
 29 28  1  0  0  0  0
 30 29  1  0  0  0  0
 30 32  1  0  0  0  0
 31 30  2  0  0  0  0
 33 34  1  0  0  0  0
 35 38  1  0  0  0  0
 36 40  1  0  0  0  0
 36 35  2  0  0  0  0
 38 37  2  0  0  0  0
 38 48  1  0  0  0  0
 39 34  1  0  0  0  0
 39 37  1  0  0  0  0
 40 39  2  0  0  0  0
 41 37  1  6  0  0  0
 41 44  1  0  0  0  0
 43 41  1  0  0  0  0
 43 44  1  0  0  0  0
 43 42  1  1  0  0  0
 45 46  1  0  0  0  0
 47 48  2  0  0  0  0
 48 45  1  0  0  0  0
M  END
>  <MODEL>
9

>  <REMARK>
 VINA RESULT:      -5.9      4.597     10.368
  Name = 
  17 active torsions:
  status: ('A' for Active; 'I' for Inactive)
    1  A    between atoms: N_1  and  C_16
    2  A    between atoms: C_2  and  C_23
    3  A    between atoms: C_4  and  C_18
    4  A    between atoms: C_4  and  C_42
    5  A    between atoms: C_6  and  N_9
    6  A    between atoms: C_6  and  N_32
    7  A    between atoms: C_7  and  C_38
    8  A    between atoms: C_13  and  C_30
    9  A    between atoms: C_13  and  N_39
   10  A    between atoms: C_16  and  C_34
   11  A    between atoms: C_25  and  C_47
   12  A    between atoms: C_28  and  C_46
   13  A    between atoms: N_31  and  C_42
   14  A    between atoms: N_32  and  C_37
   15  A    between atoms: C_34  and  N_45
   16  A    between atoms: C_38  and  N_45
   17  A    between atoms: N_39  and  C_40
                            x       y       z     vdW  Elec       q    Type
                         _______ _______ _______ _____ _____    ______ ____

>  <TORSDO>
F 17

$$$$
