=
 OpenBabel11042416113D

 26 29  0  0  1  0  0  0  0  0999 V2000
  188.0350  176.0560  143.6480 C   0  0  2  0  0  3  0  0  0  0  0  0
  186.0000  177.7090  143.4870 C   0  0  0  0  0  0  0  0  0  0  0  0
  186.5390  177.3050  139.3190 O   0  0  0  0  0  1  0  0  0  0  0  0
  190.2120  176.3870  143.8710 C   0  0  2  0  0  3  0  0  0  0  0  0
  187.0080  176.8850  142.9460 C   0  0  0  0  0  0  0  0  0  0  0  0
  185.3560  178.2800  141.1930 C   0  0  0  0  0  3  0  0  0  0  0  0
  187.1700  176.7580  141.5920 C   0  0  0  0  0  0  0  0  0  0  0  0
  190.1210  175.7690  142.6130 O   0  0  0  0  0  0  0  0  0  0  0  0
  188.9620  176.8870  144.2710 O   0  0  0  0  0  0  0  0  0  0  0  0
  188.2190  175.8750  141.2550 N   0  0  0  0  0  2  0  0  0  0  0  0
  186.3600  177.4430  140.6890 C   0  0  0  0  0  0  0  0  0  0  0  0
  188.7880  175.3760  142.5060 C   0  0  2  0  0  0  0  0  0  0  0  0
  185.1770  178.4100  142.5810 C   0  0  0  0  0  3  0  0  0  0  0  0
  185.5160  176.8210  145.8210 C   0  0  0  0  0  3  0  0  0  0  0  0
  185.5350  178.6530  146.9770 C   0  0  0  0  0  3  0  0  0  0  0  0
  185.3720  177.3180  147.0620 N   0  0  0  0  0  2  0  0  0  0  0  0
  185.7700  177.8560  144.9430 C   0  0  0  0  0  0  0  0  0  0  0  0
  185.7880  179.0280  145.6710 C   0  0  0  0  0  3  0  0  0  0  0  0
  187.8420  173.2830  141.9210 O   0  0  0  0  0  0  0  0  0  0  0  0
  188.6760  173.8830  142.5810 C   0  0  0  0  0  3  0  0  0  0  0  0
  191.2260  177.5170  143.8090 C   0  0  0  0  0  2  0  0  0  0  0  0
  192.4350  177.1480  144.5290 N   0  0  0  0  0  2  0  0  0  0  0  0
  192.0940  176.0290  145.3920 C   0  0  0  0  0  2  0  0  0  0  0  0
  192.5000  176.3300  146.8260 C   0  0  0  0  0  2  0  0  0  0  0  0
  191.3060  176.2370  147.7640 C   0  0  0  0  0  2  0  0  0  0  0  0
  190.3420  177.1820  147.4120 O   0  0  0  0  0  1  0  0  0  0  0  0
  1  5  1  6  0  0  0
  1  9  1  0  0  0  0
  2 17  1  0  0  0  0
  3 11  1  0  0  0  0
  4 21  1  6  0  0  0
  4  9  1  0  0  0  0
  5  2  1  0  0  0  0
  6 13  1  0  0  0  0
  7  5  2  0  0  0  0
  8  4  1  0  0  0  0
 10  7  1  0  0  0  0
 10 12  1  0  0  0  0
 11  6  2  0  0  0  0
 11  7  1  0  0  0  0
 12 20  1  1  0  0  0
 12  8  1  0  0  0  0
 12  1  1  0  0  0  0
 13  2  2  0  0  0  0
 14 16  1  0  0  0  0
 15 16  1  0  0  0  0
 17 18  1  0  0  0  0
 17 14  2  0  0  0  0
 18 15  2  0  0  0  0
 19 20  2  0  0  0  0
 21 22  1  0  0  0  0
 22 23  1  0  0  0  0
 23 24  1  0  0  0  0
 24 25  1  0  0  0  0
 26 25  1  0  0  0  0
M  END
>  <MODEL>
1

>  <REMARK>
 VINA RESULT:      -6.5      0.000      0.000
  Name = 
  7 active torsions:
  status: ('A' for Active; 'I' for Inactive)
    1  A    between atoms: C_3  and  C_10
    2  A    between atoms: C_3  and  N_19
    3  A    between atoms: C_4  and  C_8
    4  A    between atoms: C_6  and  C_16
    5  A    between atoms: C_8  and  C_14
    6  A    between atoms: C_14  and  N_19
    7  A    between atoms: C_21  and  C_25
                            x       y       z     vdW  Elec       q    Type
                         _______ _______ _______ _____ _____    ______ ____

>  <TORSDO>
F 7

$$$$
=
 OpenBabel11042416113D

 26 29  0  0  1  0  0  0  0  0999 V2000
  188.7830  177.7860  144.3940 C   0  0  2  0  0  3  0  0  0  0  0  0
  187.9340  176.3990  146.4570 C   0  0  0  0  0  0  0  0  0  0  0  0
  191.3850  174.0640  145.7770 O   0  0  0  0  0  1  0  0  0  0  0  0
  188.3190  177.6820  142.2330 C   0  0  2  0  0  3  0  0  0  0  0  0
  188.8360  176.6960  145.4150 C   0  0  0  0  0  0  0  0  0  0  0  0
  189.3650  174.4970  147.0400 C   0  0  0  0  0  3  0  0  0  0  0  0
  189.9550  175.9340  145.2080 C   0  0  0  0  0  0  0  0  0  0  0  0
  189.6860  177.3590  142.2710 O   0  0  0  0  0  0  0  0  0  0  0  0
  187.7390  177.5440  143.5050 O   0  0  0  0  0  0  0  0  0  0  0  0
  190.7370  176.4060  144.1310 N   0  0  0  0  0  2  0  0  0  0  0  0
  190.2470  174.8270  146.0030 C   0  0  0  0  0  0  0  0  0  0  0  0
  190.0680  177.5880  143.5920 C   0  0  2  0  0  0  0  0  0  0  0  0
  188.2180  175.2790  147.2650 C   0  0  0  0  0  3  0  0  0  0  0  0
  186.6810  178.3230  147.5520 C   0  0  0  0  0  3  0  0  0  0  0  0
  184.6860  178.0260  146.7630 C   0  0  0  0  0  3  0  0  0  0  0  0
  185.4300  178.8140  147.5640 N   0  0  0  0  0  2  0  0  0  0  0  0
  186.7260  177.2100  146.7360 C   0  0  0  0  0  0  0  0  0  0  0  0
  185.4580  177.0140  146.2260 C   0  0  0  0  0  3  0  0  0  0  0  0
  192.1750  178.6620  143.7530 O   0  0  0  0  0  0  0  0  0  0  0  0
  190.9620  178.7880  143.6750 C   0  0  0  0  0  3  0  0  0  0  0  0
  187.6110  176.7740  141.2410 C   0  0  0  0  0  2  0  0  0  0  0  0
  186.1760  176.7950  141.4750 N   0  0  0  0  0  2  0  0  0  0  0  0
  185.6520  177.9850  140.8240 C   0  0  0  0  0  2  0  0  0  0  0  0
  184.2590  178.2980  141.3460 C   0  0  0  0  0  2  0  0  0  0  0  0
  184.2080  178.2020  142.8630 C   0  0  0  0  0  2  0  0  0  0  0  0
  184.9120  179.2610  143.4370 O   0  0  0  0  0  1  0  0  0  0  0  0
  1  9  1  6  0  0  0
  1  5  1  0  0  0  0
  2 17  1  0  0  0  0
  2 13  1  0  0  0  0
  3 11  1  0  0  0  0
  4 21  1  6  0  0  0
  4  8  1  0  0  0  0
  4  9  1  0  0  0  0
  5  2  2  0  0  0  0
  6 13  2  0  0  0  0
  7  5  1  0  0  0  0
  7 11  2  0  0  0  0
  8 12  1  0  0  0  0
 10  7  1  0  0  0  0
 11  6  1  0  0  0  0
 12 20  1  1  0  0  0
 12 10  1  0  0  0  0
 12  1  1  0  0  0  0
 14 16  1  0  0  0  0
 15 16  1  0  0  0  0
 17 14  2  0  0  0  0
 18 17  1  0  0  0  0
 18 15  2  0  0  0  0
 20 19  2  0  0  0  0
 21 22  1  0  0  0  0
 23 24  1  0  0  0  0
 23 22  1  0  0  0  0
 24 25  1  0  0  0  0
 25 26  1  0  0  0  0
M  END
>  <MODEL>
2

>  <REMARK>
 VINA RESULT:      -6.5      2.213      5.485
  Name = 
  7 active torsions:
  status: ('A' for Active; 'I' for Inactive)
    1  A    between atoms: C_3  and  C_10
    2  A    between atoms: C_3  and  N_19
    3  A    between atoms: C_4  and  C_8
    4  A    between atoms: C_6  and  C_16
    5  A    between atoms: C_8  and  C_14
    6  A    between atoms: C_14  and  N_19
    7  A    between atoms: C_21  and  C_25
                            x       y       z     vdW  Elec       q    Type
                         _______ _______ _______ _____ _____    ______ ____

>  <TORSDO>
F 7

$$$$
=
 OpenBabel11042416113D

 26 29  0  0  1  0  0  0  0  0999 V2000
  187.9940  176.0910  143.6070 C   0  0  2  0  0  3  0  0  0  0  0  0
  185.9570  177.7380  143.4170 C   0  0  0  0  0  0  0  0  0  0  0  0
  186.5260  177.2990  139.2570 O   0  0  0  0  0  1  0  0  0  0  0  0
  190.1680  176.4290  143.8430 C   0  0  2  0  0  3  0  0  0  0  0  0
  186.9700  176.9120  142.8920 C   0  0  0  0  0  0  0  0  0  0  0  0
  185.3270  178.2880  141.1140 C   0  0  0  0  0  3  0  0  0  0  0  0
  187.1410  176.7730  141.5400 C   0  0  0  0  0  0  0  0  0  0  0  0
  190.0870  175.7990  142.5890 O   0  0  0  0  0  0  0  0  0  0  0  0
  188.9150  176.9300  144.2300 O   0  0  0  0  0  0  0  0  0  0  0  0
  188.1950  175.8890  141.2180 N   0  0  0  0  0  2  0  0  0  0  0  0
  186.3360  177.4490  140.6240 C   0  0  0  0  0  0  0  0  0  0  0  0
  188.7560  175.4030  142.4760 C   0  0  2  0  0  0  0  0  0  0  0  0
  185.1390  178.4290  142.5000 C   0  0  0  0  0  3  0  0  0  0  0  0
  185.5020  176.8660  145.7630 C   0  0  0  0  0  3  0  0  0  0  0  0
  185.4420  178.7140  146.8920 C   0  0  0  0  0  3  0  0  0  0  0  0
  185.3340  177.3750  146.9960 N   0  0  0  0  0  2  0  0  0  0  0  0
  185.7160  177.8970  144.8710 C   0  0  0  0  0  0  0  0  0  0  0  0
  185.6830  179.0800  145.5810 C   0  0  0  0  0  3  0  0  0  0  0  0
  187.7730  173.3090  141.9570 O   0  0  0  0  0  0  0  0  0  0  0  0
  188.6460  173.9100  142.5640 C   0  0  0  0  0  3  0  0  0  0  0  0
  191.1810  177.5600  143.7780 C   0  0  0  0  0  2  0  0  0  0  0  0
  192.4120  177.1720  144.4480 N   0  0  0  0  0  2  0  0  0  0  0  0
  192.0730  176.1190  145.3910 C   0  0  0  0  0  2  0  0  0  0  0  0
  192.7480  176.3760  146.7290 C   0  0  0  0  0  2  0  0  0  0  0  0
  194.2090  176.7530  146.5420 C   0  0  0  0  0  2  0  0  0  0  0  0
  194.9700  175.6150  146.2720 O   0  0  0  0  0  1  0  0  0  0  0  0
  1  5  1  6  0  0  0
  1  9  1  0  0  0  0
  2 17  1  0  0  0  0
  3 11  1  0  0  0  0
  4 21  1  6  0  0  0
  4  9  1  0  0  0  0
  5  2  1  0  0  0  0
  6 13  1  0  0  0  0
  7  5  2  0  0  0  0
  8  4  1  0  0  0  0
 10  7  1  0  0  0  0
 10 12  1  0  0  0  0
 11  6  2  0  0  0  0
 11  7  1  0  0  0  0
 12 20  1  1  0  0  0
 12  8  1  0  0  0  0
 12  1  1  0  0  0  0
 13  2  2  0  0  0  0
 14 16  1  0  0  0  0
 15 16  1  0  0  0  0
 17 18  1  0  0  0  0
 17 14  2  0  0  0  0
 18 15  2  0  0  0  0
 19 20  2  0  0  0  0
 21 22  1  0  0  0  0
 22 23  1  0  0  0  0
 23 24  1  0  0  0  0
 25 24  1  0  0  0  0
 26 25  1  0  0  0  0
M  END
>  <MODEL>
3

>  <REMARK>
 VINA RESULT:      -6.5      1.049      1.170
  Name = 
  7 active torsions:
  status: ('A' for Active; 'I' for Inactive)
    1  A    between atoms: C_3  and  C_10
    2  A    between atoms: C_3  and  N_19
    3  A    between atoms: C_4  and  C_8
    4  A    between atoms: C_6  and  C_16
    5  A    between atoms: C_8  and  C_14
    6  A    between atoms: C_14  and  N_19
    7  A    between atoms: C_21  and  C_25
                            x       y       z     vdW  Elec       q    Type
                         _______ _______ _______ _____ _____    ______ ____

>  <TORSDO>
F 7

$$$$
=
 OpenBabel11042416113D

 26 29  0  0  1  0  0  0  0  0999 V2000
  188.6010  177.6610  144.3300 C   0  0  2  0  0  3  0  0  0  0  0  0
  187.8430  176.3630  146.4850 C   0  0  0  0  0  0  0  0  0  0  0  0
  191.3990  174.1630  145.9020 O   0  0  0  0  0  1  0  0  0  0  0  0
  188.1190  177.4020  142.1860 C   0  0  2  0  0  3  0  0  0  0  0  0
  188.7190  176.6400  145.4150 C   0  0  0  0  0  0  0  0  0  0  0  0
  189.3730  174.5730  147.1630 C   0  0  0  0  0  3  0  0  0  0  0  0
  189.8720  175.9220  145.2390 C   0  0  0  0  0  0  0  0  0  0  0  0
  189.5010  177.1490  142.2250 O   0  0  0  0  0  0  0  0  0  0  0  0
  187.5610  177.3140  143.4720 O   0  0  0  0  0  0  0  0  0  0  0  0
  190.6180  176.3650  144.1250 N   0  0  0  0  0  2  0  0  0  0  0  0
  190.2270  174.8820  146.0960 C   0  0  0  0  0  0  0  0  0  0  0  0
  189.8850  177.4780  143.5240 C   0  0  2  0  0  0  0  0  0  0  0  0
  188.1910  175.3100  147.3550 C   0  0  0  0  0  3  0  0  0  0  0  0
  186.4790  178.2050  147.5880 C   0  0  0  0  0  3  0  0  0  0  0  0
  184.5390  177.8890  146.6790 C   0  0  0  0  0  3  0  0  0  0  0  0
  185.2150  178.6620  147.5510 N   0  0  0  0  0  2  0  0  0  0  0  0
  186.5990  177.1290  146.7310 C   0  0  0  0  0  0  0  0  0  0  0  0
  185.3670  176.9230  146.1430 C   0  0  0  0  0  3  0  0  0  0  0  0
  191.8950  178.6910  143.8530 O   0  0  0  0  0  0  0  0  0  0  0  0
  190.7190  178.7230  143.5230 C   0  0  0  0  0  3  0  0  0  0  0  0
  187.4470  176.4010  141.2600 C   0  0  0  0  0  2  0  0  0  0  0  0
  188.3460  175.2940  140.9790 N   0  0  0  0  0  2  0  0  0  0  0  0
  187.9030  174.1670  141.7840 C   0  0  0  0  0  2  0  0  0  0  0  0
  189.0240  173.7040  142.7010 C   0  0  0  0  0  2  0  0  0  0  0  0
  188.9380  172.2070  142.9580 C   0  0  0  0  0  2  0  0  0  0  0  0
  189.3520  171.9180  144.2590 O   0  0  0  0  0  1  0  0  0  0  0  0
  1  9  1  6  0  0  0
  1  5  1  0  0  0  0
  2 17  1  0  0  0  0
  2 13  1  0  0  0  0
  3 11  1  0  0  0  0
  4 21  1  6  0  0  0
  4  8  1  0  0  0  0
  4  9  1  0  0  0  0
  5  2  2  0  0  0  0
  6 13  2  0  0  0  0
  7  5  1  0  0  0  0
  7 11  2  0  0  0  0
  8 12  1  0  0  0  0
 10  7  1  0  0  0  0
 11  6  1  0  0  0  0
 12 20  1  1  0  0  0
 12 10  1  0  0  0  0
 12  1  1  0  0  0  0
 15 16  1  0  0  0  0
 16 14  1  0  0  0  0
 17 14  2  0  0  0  0
 18 15  2  0  0  0  0
 18 17  1  0  0  0  0
 20 19  2  0  0  0  0
 22 21  1  0  0  0  0
 22 23  1  0  0  0  0
 23 24  1  0  0  0  0
 24 25  1  0  0  0  0
 25 26  1  0  0  0  0
M  END
>  <MODEL>
4

>  <REMARK>
 VINA RESULT:      -6.3      2.114      4.892
  Name = 
  7 active torsions:
  status: ('A' for Active; 'I' for Inactive)
    1  A    between atoms: C_3  and  C_10
    2  A    between atoms: C_3  and  N_19
    3  A    between atoms: C_4  and  C_8
    4  A    between atoms: C_6  and  C_16
    5  A    between atoms: C_8  and  C_14
    6  A    between atoms: C_14  and  N_19
    7  A    between atoms: C_21  and  C_25
                            x       y       z     vdW  Elec       q    Type
                         _______ _______ _______ _____ _____    ______ ____

>  <TORSDO>
F 7

$$$$
=
 OpenBabel11042416113D

 26 29  0  0  1  0  0  0  0  0999 V2000
  189.7260  176.6120  144.1840 C   0  0  2  0  0  3  0  0  0  0  0  0
  191.5060  174.7440  144.6800 C   0  0  0  0  0  0  0  0  0  0  0  0
  188.7260  172.1820  142.8010 O   0  0  0  0  0  1  0  0  0  0  0  0
  188.0820  177.4650  145.3940 C   0  0  2  0  0  3  0  0  0  0  0  0
  190.2830  175.2250  144.1690 C   0  0  0  0  0  0  0  0  0  0  0  0
  190.8430  172.5080  143.9310 C   0  0  0  0  0  3  0  0  0  0  0  0
  189.3920  174.3840  143.5570 C   0  0  0  0  0  0  0  0  0  0  0  0
  187.3980  176.8680  144.3220 O   0  0  0  0  0  0  0  0  0  0  0  0
  189.3920  176.9680  145.4880 O   0  0  0  0  0  0  0  0  0  0  0  0
  188.2400  175.0610  143.0980 N   0  0  0  0  0  2  0  0  0  0  0  0
  189.6420  173.0200  143.4220 C   0  0  0  0  0  0  0  0  0  0  0  0
  188.4010  176.4740  143.4370 C   0  0  2  0  0  0  0  0  0  0  0  0
  191.7670  173.3650  144.5530 C   0  0  0  0  0  3  0  0  0  0  0  0
  193.4060  176.4360  144.6600 C   0  0  0  0  0  3  0  0  0  0  0  0
  193.7470  176.7060  146.7820 C   0  0  0  0  0  3  0  0  0  0  0  0
  194.1580  177.0940  145.5590 N   0  0  0  0  0  2  0  0  0  0  0  0
  192.5130  175.6190  145.3250 C   0  0  0  0  0  0  0  0  0  0  0  0
  192.7200  175.7870  146.6790 C   0  0  0  0  0  3  0  0  0  0  0  0
  189.2280  178.1690  142.0020 O   0  0  0  0  0  0  0  0  0  0  0  0
  188.3710  177.3230  142.2030 C   0  0  0  0  0  3  0  0  0  0  0  0
  187.3320  177.1940  146.6880 C   0  0  0  0  0  2  0  0  0  0  0  0
  185.9020  177.1180  146.4330 N   0  0  0  0  0  2  0  0  0  0  0  0
  185.3370  178.4140  146.7700 C   0  0  0  0  0  2  0  0  0  0  0  0
  184.1180  178.6950  145.9060 C   0  0  0  0  0  2  0  0  0  0  0  0
  184.5230  179.0270  144.4780 C   0  0  0  0  0  2  0  0  0  0  0  0
  185.5830  179.9340  144.4770 O   0  0  0  0  0  1  0  0  0  0  0  0
  1  5  1  1  0  0  0
  1  9  1  0  0  0  0
  2 17  1  0  0  0  0
  3 11  1  0  0  0  0
  4  9  1  0  0  0  0
  4 21  1  1  0  0  0
  5  2  2  0  0  0  0
  6 13  2  0  0  0  0
  7  5  1  0  0  0  0
  8  4  1  0  0  0  0
 10 12  1  0  0  0  0
 10  7  1  0  0  0  0
 11  7  2  0  0  0  0
 11  6  1  0  0  0  0
 12 20  1  6  0  0  0
 12  1  1  0  0  0  0
 12  8  1  0  0  0  0
 13  2  1  0  0  0  0
 14 17  2  0  0  0  0
 14 16  1  0  0  0  0
 16 15  1  0  0  0  0
 17 18  1  0  0  0  0
 18 15  2  0  0  0  0
 19 20  2  0  0  0  0
 22 21  1  0  0  0  0
 22 23  1  0  0  0  0
 24 23  1  0  0  0  0
 25 24  1  0  0  0  0
 26 25  1  0  0  0  0
M  END
>  <MODEL>
5

>  <REMARK>
 VINA RESULT:      -6.2      1.878      6.175
  Name = 
  7 active torsions:
  status: ('A' for Active; 'I' for Inactive)
    1  A    between atoms: C_3  and  C_10
    2  A    between atoms: C_3  and  N_19
    3  A    between atoms: C_4  and  C_8
    4  A    between atoms: C_6  and  C_16
    5  A    between atoms: C_8  and  C_14
    6  A    between atoms: C_14  and  N_19
    7  A    between atoms: C_21  and  C_25
                            x       y       z     vdW  Elec       q    Type
                         _______ _______ _______ _____ _____    ______ ____

>  <TORSDO>
F 7

$$$$
=
 OpenBabel11042416113D

 26 29  0  0  1  0  0  0  0  0999 V2000
  188.5710  177.2790  143.5100 C   0  0  2  0  0  3  0  0  0  0  0  0
  186.8280  177.2720  145.4760 C   0  0  0  0  0  0  0  0  0  0  0  0
  189.7340  174.9630  147.4870 O   0  0  0  0  0  1  0  0  0  0  0  0
  188.8150  175.9880  141.7290 C   0  0  2  0  0  3  0  0  0  0  0  0
  188.0590  176.9410  144.8730 C   0  0  0  0  0  0  0  0  0  0  0  0
  187.5570  176.0200  147.4520 C   0  0  0  0  0  3  0  0  0  0  0  0
  188.9960  176.1960  145.5380 C   0  0  0  0  0  0  0  0  0  0  0  0
  189.9950  175.7440  142.4520 O   0  0  0  0  0  0  0  0  0  0  0  0
  187.8420  176.5800  142.5510 O   0  0  0  0  0  0  0  0  0  0  0  0
  190.1640  175.9900  144.7720 N   0  0  0  0  0  2  0  0  0  0  0  0
  188.7750  175.7200  146.8290 C   0  0  0  0  0  0  0  0  0  0  0  0
  189.9720  176.6710  143.4930 C   0  0  2  0  0  0  0  0  0  0  0  0
  186.5920  176.7920  146.7810 C   0  0  0  0  0  3  0  0  0  0  0  0
  184.8680  177.6350  143.8970 C   0  0  0  0  0  3  0  0  0  0  0  0
  184.5030  179.7530  144.1640 C   0  0  0  0  0  3  0  0  0  0  0  0
  184.0820  178.6540  143.5070 N   0  0  0  0  0  0  0  0  0  0  0  0
  185.7960  178.0980  144.8070 C   0  0  1  0  0  3  0  0  0  0  0  0
  185.5690  179.4480  144.9870 C   0  0  0  0  0  3  0  0  0  0  0  0
  192.1840  177.4030  143.0580 O   0  0  0  0  0  0  0  0  0  0  0  0
  191.0250  177.7170  143.2840 C   0  0  0  0  0  3  0  0  0  0  0  0
  188.2880  174.6800  141.1630 C   0  0  0  0  0  2  0  0  0  0  0  0
  188.3260  173.6410  142.1790 N   0  0  0  0  0  2  0  0  0  0  0  0
  189.0410  172.5100  141.6110 C   0  0  0  0  0  2  0  0  0  0  0  0
  189.6730  171.6790  142.7160 C   0  0  0  0  0  2  0  0  0  0  0  0
  190.3050  172.5690  143.7760 C   0  0  0  0  0  2  0  0  0  0  0  0
  189.6930  172.3560  145.0110 O   0  0  0  0  0  1  0  0  0  0  0  0
  1  9  1  6  0  0  0
  1  5  1  0  0  0  0
  2 13  1  0  0  0  0
  4 21  1  1  0  0  0
  4  8  1  0  0  0  0
  4  9  1  0  0  0  0
  5  2  2  0  0  0  0
  5  7  1  0  0  0  0
  7 11  2  0  0  0  0
  8 12  1  0  0  0  0
 10  7  1  0  0  0  0
 11  6  1  0  0  0  0
 11  3  1  0  0  0  0
 12 20  1  6  0  0  0
 12  1  1  0  0  0  0
 12 10  1  0  0  0  0
 13  6  2  0  0  0  0
 14 17  1  0  0  0  0
 15 18  2  0  0  0  0
 16 14  2  0  0  0  0
 16 15  1  0  0  0  0
 17 18  1  0  0  0  0
 17  2  1  1  0  0  0
 19 20  2  0  0  0  0
 21 22  1  0  0  0  0
 23 22  1  0  0  0  0
 23 24  1  0  0  0  0
 24 25  1  0  0  0  0
 25 26  1  0  0  0  0
M  END
>  <MODEL>
6

>  <REMARK>
 VINA RESULT:      -6.1      2.259      4.611
  Name = 
  7 active torsions:
  status: ('A' for Active; 'I' for Inactive)
    1  A    between atoms: C_3  and  C_10
    2  A    between atoms: C_3  and  N_19
    3  A    between atoms: C_4  and  C_8
    4  A    between atoms: C_6  and  C_16
    5  A    between atoms: C_8  and  C_14
    6  A    between atoms: C_14  and  N_19
    7  A    between atoms: C_21  and  C_25
                            x       y       z     vdW  Elec       q    Type
                         _______ _______ _______ _____ _____    ______ ____

>  <TORSDO>
F 7

$$$$
=
 OpenBabel11042416113D

 26 29  0  0  1  0  0  0  0  0999 V2000
  188.5170  176.5200  143.5800 C   0  0  2  0  0  3  0  0  0  0  0  0
  189.5640  174.2210  144.3020 C   0  0  0  0  0  0  0  0  0  0  0  0
  188.0900  172.8580  140.5880 O   0  0  0  0  0  1  0  0  0  0  0  0
  186.5540  177.4570  143.9850 C   0  0  2  0  0  3  0  0  0  0  0  0
  188.8730  175.0770  143.4200 C   0  0  0  0  0  0  0  0  0  0  0  0
  189.2460  172.4210  142.6700 C   0  0  0  0  0  3  0  0  0  0  0  0
  188.4040  174.6240  142.2150 C   0  0  0  0  0  0  0  0  0  0  0  0
  186.5320  177.2850  142.5910 O   0  0  0  0  0  0  0  0  0  0  0  0
  187.5480  176.6550  144.5700 O   0  0  0  0  0  0  0  0  0  0  0  0
  187.7590  175.6370  141.4730 N   0  0  0  0  0  2  0  0  0  0  0  0
  188.5740  173.3010  141.8120 C   0  0  0  0  0  0  0  0  0  0  0  0
  187.8200  176.8640  142.2650 C   0  0  2  0  0  0  0  0  0  0  0  0
  189.7380  172.8790  143.9050 C   0  0  0  0  0  3  0  0  0  0  0  0
  191.4270  175.0260  145.8350 C   0  0  0  0  0  3  0  0  0  0  0  0
  190.3540  175.2830  147.6980 C   0  0  0  0  0  3  0  0  0  0  0  0
  191.5660  175.3960  147.1200 N   0  0  0  0  0  2  0  0  0  0  0  0
  190.1140  174.6720  145.6020 C   0  0  0  0  0  0  0  0  0  0  0  0
  189.4200  174.8360  146.7840 C   0  0  0  0  0  3  0  0  0  0  0  0
  189.5110  178.5050  142.0140 O   0  0  0  0  0  0  0  0  0  0  0  0
  188.5480  177.9410  141.5190 C   0  0  0  0  0  3  0  0  0  0  0  0
  185.1940  177.1000  144.5620 C   0  0  0  0  0  2  0  0  0  0  0  0
  184.4440  178.3080  144.8660 N   0  0  0  0  0  2  0  0  0  0  0  0
  185.2060  179.0470  145.8600 C   0  0  0  0  0  2  0  0  0  0  0  0
  184.7890  178.6240  147.2600 C   0  0  0  0  0  2  0  0  0  0  0  0
  185.9560  178.0050  148.0150 C   0  0  0  0  0  2  0  0  0  0  0  0
  187.1540  178.2670  147.3490 O   0  0  0  0  0  1  0  0  0  0  0  0
  1  5  1  6  0  0  0
  1  9  1  0  0  0  0
  2 17  1  0  0  0  0
  3 11  1  0  0  0  0
  4 21  1  1  0  0  0
  4  9  1  0  0  0  0
  5  2  2  0  0  0  0
  6 13  2  0  0  0  0
  7  5  1  0  0  0  0
  8  4  1  0  0  0  0
 10  7  1  0  0  0  0
 10 12  1  0  0  0  0
 11  7  2  0  0  0  0
 11  6  1  0  0  0  0
 12 20  1  6  0  0  0
 12  8  1  0  0  0  0
 12  1  1  0  0  0  0
 13  2  1  0  0  0  0
 14 16  1  0  0  0  0
 16 15  1  0  0  0  0
 17 14  2  0  0  0  0
 17 18  1  0  0  0  0
 18 15  2  0  0  0  0
 20 19  2  0  0  0  0
 21 22  1  0  0  0  0
 22 23  1  0  0  0  0
 23 24  1  0  0  0  0
 24 25  1  0  0  0  0
 26 25  1  0  0  0  0
M  END
>  <MODEL>
7

>  <REMARK>
 VINA RESULT:      -6.1      1.942      5.257
  Name = 
  7 active torsions:
  status: ('A' for Active; 'I' for Inactive)
    1  A    between atoms: C_3  and  C_10
    2  A    between atoms: C_3  and  N_19
    3  A    between atoms: C_4  and  C_8
    4  A    between atoms: C_6  and  C_16
    5  A    between atoms: C_8  and  C_14
    6  A    between atoms: C_14  and  N_19
    7  A    between atoms: C_21  and  C_25
                            x       y       z     vdW  Elec       q    Type
                         _______ _______ _______ _____ _____    ______ ____

>  <TORSDO>
F 7

$$$$
=
 OpenBabel11042416113D

 26 29  0  0  1  0  0  0  0  0999 V2000
  188.7610  176.2960  143.1620 C   0  0  2  0  0  3  0  0  0  0  0  0
  187.0630  176.9050  145.0720 C   0  0  0  0  0  0  0  0  0  0  0  0
  189.7390  174.7840  147.5550 O   0  0  0  0  0  1  0  0  0  0  0  0
  188.8340  174.6310  141.7060 C   0  0  2  0  0  3  0  0  0  0  0  0
  188.2400  176.3200  144.5630 C   0  0  0  0  0  0  0  0  0  0  0  0
  187.6870  176.0390  147.2780 C   0  0  0  0  0  3  0  0  0  0  0  0
  189.1030  175.6380  145.3800 C   0  0  0  0  0  0  0  0  0  0  0  0
  189.9940  174.4230  142.4710 O   0  0  0  0  0  0  0  0  0  0  0  0
  187.9450  175.4900  142.3730 O   0  0  0  0  0  0  0  0  0  0  0  0
  190.2290  175.1460  144.6840 N   0  0  0  0  0  2  0  0  0  0  0  0
  188.8550  175.4800  146.7420 C   0  0  0  0  0  0  0  0  0  0  0  0
  190.0890  175.5500  143.2860 C   0  0  2  0  0  0  0  0  0  0  0  0
  186.8000  176.7470  146.4480 C   0  0  0  0  0  3  0  0  0  0  0  0
  185.9790  179.0470  144.2340 C   0  0  0  0  0  3  0  0  0  0  0  0
  184.5800  178.2660  142.7770 C   0  0  0  0  0  3  0  0  0  0  0  0
  185.0370  179.4000  143.3420 N   0  0  0  0  0  0  0  0  0  0  0  0
  186.1150  177.6740  144.2330 C   0  0  1  0  0  3  0  0  0  0  0  0
  185.2290  177.1660  143.3040 C   0  0  0  0  0  3  0  0  0  0  0  0
  191.1420  177.6210  142.8190 O   0  0  0  0  0  0  0  0  0  0  0  0
  191.2450  176.4050  142.8620 C   0  0  0  0  0  3  0  0  0  0  0  0
  188.1600  173.2970  141.4340 C   0  0  0  0  0  2  0  0  0  0  0  0
  188.2040  172.9920  140.0130 N   0  0  0  0  0  2  0  0  0  0  0  0
  188.5390  174.2250  139.3200 C   0  0  0  0  0  2  0  0  0  0  0  0
  188.2800  174.0760  137.8290 C   0  0  0  0  0  2  0  0  0  0  0  0
  187.4670  175.2450  137.2950 C   0  0  0  0  0  2  0  0  0  0  0  0
  186.9420  175.9900  138.3520 O   0  0  0  0  0  1  0  0  0  0  0  0
  1  9  1  6  0  0  0
  1 12  1  0  0  0  0
  1  5  1  0  0  0  0
  2 13  1  0  0  0  0
  4 21  1  1  0  0  0
  4  9  1  0  0  0  0
  4  8  1  0  0  0  0
  5  2  2  0  0  0  0
  5  7  1  0  0  0  0
  7 11  2  0  0  0  0
  8 12  1  0  0  0  0
 10  7  1  0  0  0  0
 11  6  1  0  0  0  0
 11  3  1  0  0  0  0
 12 20  1  6  0  0  0
 12 10  1  0  0  0  0
 13  6  2  0  0  0  0
 15 18  2  0  0  0  0
 15 16  1  0  0  0  0
 16 14  2  0  0  0  0
 17 14  1  0  0  0  0
 17  2  1  6  0  0  0
 18 17  1  0  0  0  0
 19 20  2  0  0  0  0
 22 21  1  0  0  0  0
 23 22  1  0  0  0  0
 24 23  1  0  0  0  0
 25 24  1  0  0  0  0
 25 26  1  0  0  0  0
M  END
>  <MODEL>
8

>  <REMARK>
 VINA RESULT:      -5.9      2.352      5.644
  Name = 
  7 active torsions:
  status: ('A' for Active; 'I' for Inactive)
    1  A    between atoms: C_3  and  C_10
    2  A    between atoms: C_3  and  N_19
    3  A    between atoms: C_4  and  C_8
    4  A    between atoms: C_6  and  C_16
    5  A    between atoms: C_8  and  C_14
    6  A    between atoms: C_14  and  N_19
    7  A    between atoms: C_21  and  C_25
                            x       y       z     vdW  Elec       q    Type
                         _______ _______ _______ _____ _____    ______ ____

>  <TORSDO>
F 7

$$$$
=
 OpenBabel11042416113D

 26 29  0  0  1  0  0  0  0  0999 V2000
  188.9210  174.9280  143.0390 C   0  0  2  0  0  3  0  0  0  0  0  0
  187.7390  177.2090  143.5850 C   0  0  0  0  0  0  0  0  0  0  0  0
  186.6810  177.1610  139.4980 O   0  0  0  0  0  1  0  0  0  0  0  0
  191.0010  174.4220  142.4790 C   0  0  2  0  0  3  0  0  0  0  0  0
  188.1190  176.1520  142.7340 C   0  0  0  0  0  0  0  0  0  0  0  0
  186.6450  178.2550  141.6580 C   0  0  0  0  0  3  0  0  0  0  0  0
  187.7650  176.1450  141.4110 C   0  0  0  0  0  0  0  0  0  0  0  0
  190.2740  174.0400  141.3400 O   0  0  0  0  0  0  0  0  0  0  0  0
  190.2440  175.2860  143.2880 O   0  0  0  0  0  0  0  0  0  0  0  0
  188.2240  174.9920  140.7360 N   0  0  0  0  0  2  0  0  0  0  0  0
  187.0290  177.1820  140.8420 C   0  0  0  0  0  0  0  0  0  0  0  0
  188.9370  174.1710  141.7120 C   0  0  2  0  0  0  0  0  0  0  0  0
  186.9970  178.2670  143.0190 C   0  0  0  0  0  3  0  0  0  0  0  0
  187.1960  176.9870  146.0600 C   0  0  0  0  0  3  0  0  0  0  0  0
  189.1200  177.4240  146.9510 C   0  0  0  0  0  3  0  0  0  0  0  0
  187.8430  177.0990  147.2320 N   0  0  0  0  0  2  0  0  0  0  0  0
  188.0740  177.2470  145.0270 C   0  0  0  0  0  0  0  0  0  0  0  0
  189.3060  177.5240  145.5860 C   0  0  0  0  0  3  0  0  0  0  0  0
  187.0920  172.7130  142.0150 O   0  0  0  0  0  0  0  0  0  0  0  0
  188.2960  172.8220  141.8380 C   0  0  0  0  0  3  0  0  0  0  0  0
  192.2880  175.1090  142.0520 C   0  0  0  0  0  2  0  0  0  0  0  0
  192.4340  176.3790  142.7460 N   0  0  0  0  0  2  0  0  0  0  0  0
  193.5630  176.2460  143.6520 C   0  0  0  0  0  2  0  0  0  0  0  0
  193.1940  176.7720  145.0300 C   0  0  0  0  0  2  0  0  0  0  0  0
  193.4410  175.7210  146.1020 C   0  0  0  0  0  2  0  0  0  0  0  0
  194.8090  175.5930  146.3450 O   0  0  0  0  0  1  0  0  0  0  0  0
  1  5  1  6  0  0  0
  1  9  1  0  0  0  0
  2 17  1  0  0  0  0
  3 11  1  0  0  0  0
  4 21  1  6  0  0  0
  4  9  1  0  0  0  0
  5  2  2  0  0  0  0
  6 13  2  0  0  0  0
  7  5  1  0  0  0  0
  8 12  1  0  0  0  0
  8  4  1  0  0  0  0
 10  7  1  0  0  0  0
 10 12  1  0  0  0  0
 11  7  2  0  0  0  0
 11  6  1  0  0  0  0
 12 20  1  1  0  0  0
 12  1  1  0  0  0  0
 13  2  1  0  0  0  0
 14 16  1  0  0  0  0
 15 16  1  0  0  0  0
 17 18  1  0  0  0  0
 17 14  2  0  0  0  0
 18 15  2  0  0  0  0
 20 19  2  0  0  0  0
 21 22  1  0  0  0  0
 22 23  1  0  0  0  0
 23 24  1  0  0  0  0
 24 25  1  0  0  0  0
 25 26  1  0  0  0  0
M  END
>  <MODEL>
9

>  <REMARK>
 VINA RESULT:      -5.8      1.887      2.273
  Name = 
  7 active torsions:
  status: ('A' for Active; 'I' for Inactive)
    1  A    between atoms: C_3  and  C_10
    2  A    between atoms: C_3  and  N_19
    3  A    between atoms: C_4  and  C_8
    4  A    between atoms: C_6  and  C_16
    5  A    between atoms: C_8  and  C_14
    6  A    between atoms: C_14  and  N_19
    7  A    between atoms: C_21  and  C_25
                            x       y       z     vdW  Elec       q    Type
                         _______ _______ _______ _____ _____    ______ ____

>  <TORSDO>
F 7

$$$$
