=
 OpenBabel11042415173D

 45 48  0  0  1  0  0  0  0  0999 V2000
  193.1880  176.0700  142.6370 C   0  0  0  0  0  3  0  0  0  0  0  0
  191.9330  175.7570  142.4620 C   0  0  0  0  0  0  0  0  0  0  0  0
  190.6740  175.4480  142.2910 C   0  0  0  0  0  0  0  0  0  0  0  0
  189.6060  177.7170  142.4740 C   0  0  0  0  0  2  0  0  0  0  0  0
  188.2030  175.7030  142.6600 C   0  0  0  0  0  2  0  0  0  0  0  0
  189.5890  176.2630  142.9390 C   0  0  1  0  0  3  0  0  0  0  0  0
  186.0880  176.8150  142.2490 N   0  0  0  0  0  0  0  0  0  0  0  0
  188.1590  178.1670  142.3950 C   0  0  0  0  0  2  0  0  0  0  0  0
  187.3760  176.9040  142.4180 C   0  0  0  0  0  0  0  0  0  0  0  0
  184.9510  178.3380  140.8080 N   0  0  0  0  0  2  0  0  0  0  0  0
  185.1640  177.8870  142.0000 C   0  0  0  0  0  0  0  0  0  0  0  0
  184.3320  178.3960  143.1250 C   0  0  0  0  0  2  0  0  0  0  0  0
  185.0950  179.4730  143.8850 C   0  0  0  0  0  2  0  0  0  0  0  0
  185.0190  179.2700  145.3950 C   0  0  1  0  0  3  0  0  0  0  0  0
  183.7450  178.8370  145.7680 O   0  0  0  0  0  1  0  0  0  0  0  0
  186.2690  178.0980  145.9680 S   0  0  1  0  0  0  0  0  0  0  0  0
  186.6120  178.5990  147.3640 O   0  0  0  0  0  0  0  0  0  0  0  0
  185.3270  176.6000  146.2920 C   0  0  0  0  0  1  0  0  0  0  0  0
  193.8600  174.9530  140.5170 O   0  0  0  0  0  1  0  0  0  0  0  0
  195.2640  176.7150  141.3730 C   0  0  0  0  0  2  0  0  0  0  0  0
  195.6950  175.4420  142.0930 C   0  0  2  0  0  3  0  0  0  0  0  0
  194.2470  175.6420  141.6660 C   0  0  1  0  0  0  0  0  0  0  0  0
  195.9200  175.7510  143.5680 C   0  0  0  0  0  2  0  0  0  0  0  0
  195.9850  174.4640  144.3710 C   0  0  0  0  0  2  0  0  0  0  0  0
  195.4850  174.6990  145.7860 C   0  0  0  0  0  2  0  0  0  0  0  0
  191.7560  175.5670  146.1470 N   0  0  0  0  0  0  0  0  0  0  0  0
  190.9470  176.7420  146.4920 C   0  0  0  0  0  2  0  0  0  0  0  0
  193.7050  176.8560  146.2820 O   0  0  0  0  0  0  0  0  0  0  0  0
  194.0340  174.5960  145.8240 N   0  0  0  0  0  2  0  0  0  0  0  0
  191.6930  173.4780  145.0610 O   0  0  0  0  0  0  0  0  0  0  0  0
  189.6600  176.3440  147.2070 C   0  0  0  0  0  2  0  0  0  0  0  0
  188.8930  175.3600  146.3390 C   0  0  0  0  0  2  0  0  0  0  0  0
  189.6880  174.0700  146.1910 C   0  0  0  0  0  2  0  0  0  0  0  0
  193.1880  175.7210  146.0850 C   0  0  0  0  0  0  0  0  0  0  0  0
  191.0940  174.3470  145.7480 C   0  0  0  0  0  0  0  0  0  0  0  0
  190.3430  174.2900  141.5230 N   0  0  0  0  0  2  0  0  0  0  0  0
  190.2070  173.0220  142.1110 N   0  0  0  0  0  2  0  0  0  0  0  0
  189.8660  170.6670  138.5790 C   0  0  0  0  0  0  0  0  0  0  0  0
  190.9610  170.1970  142.0740 N   0  0  0  0  0  1  0  0  0  0  0  0
  190.8550  171.0160  140.8790 C   0  0  2  0  0  3  0  0  0  0  0  0
  189.6040  172.8500  139.7580 C   0  0  0  0  0  2  0  0  0  0  0  0
  189.7880  172.0940  141.0700 C   0  0  2  0  0  3  0  0  0  0  0  0
  189.7040  169.8960  137.5560 N   0  0  0  0  0  2  0  0  0  0  0  0
  189.0530  171.9220  138.6800 C   0  0  0  0  0  2  0  0  0  0  0  0
  190.5410  170.1640  139.7350 N   0  0  0  0  0  2  0  0  0  0  0  0
  2  1  2  0  0  0  0
  3  2  2  0  0  0  0
  4  6  1  0  0  0  0
  5  6  1  0  0  0  0
  6  3  1  6  0  0  0
  7  9  2  0  0  0  0
  8  9  1  0  0  0  0
  8  4  1  0  0  0  0
  9  5  1  0  0  0  0
 10 11  2  0  0  0  0
 11  7  1  0  0  0  0
 11 12  1  0  0  0  0
 12 13  1  0  0  0  0
 13 14  1  0  0  0  0
 14 15  1  6  0  0  0
 14 16  1  0  0  0  0
 16 18  1  1  0  0  0
 16 17  2  0  0  0  0
 20 22  1  0  0  0  0
 20 21  1  0  0  0  0
 21 23  1  1  0  0  0
 22 19  1  6  0  0  0
 22 21  1  0  0  0  0
 22  1  1  0  0  0  0
 23 24  1  0  0  0  0
 24 25  1  0  0  0  0
 25 29  1  0  0  0  0
 26 27  1  0  0  0  0
 27 31  1  0  0  0  0
 29 34  1  0  0  0  0
 30 35  2  0  0  0  0
 32 31  1  0  0  0  0
 33 32  1  0  0  0  0
 34 26  1  0  0  0  0
 34 28  2  0  0  0  0
 35 26  1  0  0  0  0
 35 33  1  0  0  0  0
 36 37  1  0  0  0  0
 36  3  1  0  0  0  0
 38 44  1  0  0  0  0
 38 45  1  0  0  0  0
 40 42  1  0  0  0  0
 40 39  1  1  0  0  0
 41 42  1  0  0  0  0
 42 37  1  1  0  0  0
 43 38  2  0  0  0  0
 44 41  1  0  0  0  0
 45 40  1  0  0  0  0
M  END
>  <MODEL>
1

>  <REMARK>
 VINA RESULT:      -7.2      0.000      0.000
  Name = 
  14 active torsions:
  status: ('A' for Active; 'I' for Inactive)
    1  A    between atoms: S_3  and  C_14
    2  A    between atoms: C_6  and  C_23
    3  A    between atoms: C_6  and  C_33
    4  A    between atoms: N_8  and  N_15
    5  A    between atoms: N_8  and  C_25
    6  A    between atoms: C_10  and  C_42
    7  A    between atoms: C_14  and  C_45
    8  A    between atoms: N_15  and  C_43
    9  A    between atoms: C_17  and  C_37
   10  A    between atoms: C_17  and  C_45
   11  A    between atoms: C_18  and  N_21
   12  A    between atoms: C_18  and  C_23
   13  A    between atoms: C_24  and  C_43
   14  A    between atoms: N_27  and  C_37
                            x       y       z     vdW  Elec       q    Type
                         _______ _______ _______ _____ _____    ______ ____

>  <TORSDO>
F 14

$$$$
=
 OpenBabel11042415173D

 45 48  0  0  1  0  0  0  0  0999 V2000
  188.1430  177.2930  141.8400 C   0  0  0  0  0  3  0  0  0  0  0  0
  188.5270  176.0600  142.0290 C   0  0  0  0  0  0  0  0  0  0  0  0
  188.9150  174.8270  142.2230 C   0  0  0  0  0  0  0  0  0  0  0  0
  189.9270  173.0560  143.6930 C   0  0  0  0  0  2  0  0  0  0  0  0
  191.3830  174.7660  142.6860 C   0  0  0  0  0  2  0  0  0  0  0  0
  189.9860  174.5090  143.2300 C   0  0  1  0  0  3  0  0  0  0  0  0
  193.4640  173.5640  143.0060 N   0  0  0  0  0  0  0  0  0  0  0  0
  191.3620  172.6040  143.8970 C   0  0  0  0  0  2  0  0  0  0  0  0
  192.1770  173.6240  143.1880 C   0  0  0  0  0  0  0  0  0  0  0  0
  194.7030  171.5590  142.6390 N   0  0  0  0  0  2  0  0  0  0  0  0
  194.3580  172.5210  143.4290 C   0  0  0  0  0  0  0  0  0  0  0  0
  195.0070  172.6280  144.7640 C   0  0  0  0  0  2  0  0  0  0  0  0
  194.3250  173.7150  145.5850 C   0  0  0  0  0  2  0  0  0  0  0  0
  195.2320  174.9230  145.8010 C   0  0  1  0  0  3  0  0  0  0  0  0
  196.5550  174.6050  145.4850 O   0  0  0  0  0  1  0  0  0  0  0  0
  194.6820  176.3430  144.8300 S   0  0  1  0  0  0  0  0  0  0  0  0
  194.7750  177.5020  145.8130 O   0  0  0  0  0  0  0  0  0  0  0  0
  196.0560  176.6460  143.7090 C   0  0  0  0  0  1  0  0  0  0  0  0
  186.6030  177.4350  139.8900 O   0  0  0  0  0  1  0  0  0  0  0  0
  185.6470  177.0950  142.0760 C   0  0  0  0  0  2  0  0  0  0  0  0
  185.8500  178.5990  141.9320 C   0  0  2  0  0  3  0  0  0  0  0  0
  186.8000  177.6180  141.2590 C   0  0  1  0  0  0  0  0  0  0  0  0
  186.4080  179.1590  143.2340 C   0  0  0  0  0  2  0  0  0  0  0  0
  185.2760  179.5440  144.1700 C   0  0  0  0  0  2  0  0  0  0  0  0
  185.5600  179.0400  145.5750 C   0  0  0  0  0  2  0  0  0  0  0  0
  188.4440  176.5800  146.2200 N   0  0  0  0  0  0  0  0  0  0  0  0
  188.6240  175.2600  146.8360 C   0  0  0  0  0  2  0  0  0  0  0  0
  186.1360  176.4480  146.5810 O   0  0  0  0  0  0  0  0  0  0  0  0
  186.8830  178.4370  145.6290 N   0  0  0  0  0  2  0  0  0  0  0  0
  189.4020  178.1070  144.7040 O   0  0  0  0  0  0  0  0  0  0  0  0
  189.9990  175.1260  147.4810 C   0  0  0  0  0  2  0  0  0  0  0  0
  191.0670  175.4170  146.4410 C   0  0  0  0  0  2  0  0  0  0  0  0
  190.9710  176.8690  145.9910 C   0  0  0  0  0  2  0  0  0  0  0  0
  187.1110  177.1250  146.1540 C   0  0  0  0  0  0  0  0  0  0  0  0
  189.5710  177.2180  145.5810 C   0  0  0  0  0  0  0  0  0  0  0  0
  188.3470  173.7880  141.4230 N   0  0  0  0  0  2  0  0  0  0  0  0
  188.2990  173.8700  140.0230 N   0  0  0  0  0  2  0  0  0  0  0  0
  191.3870  171.4480  138.3700 C   0  0  0  0  0  0  0  0  0  0  0  0
  189.1240  174.1340  137.2290 N   0  0  0  0  0  1  0  0  0  0  0  0
  189.3840  172.9540  138.0370 C   0  0  2  0  0  3  0  0  0  0  0  0
  189.9590  172.1110  140.3050 C   0  0  0  0  0  2  0  0  0  0  0  0
  189.5550  173.3460  139.5040 C   0  0  2  0  0  3  0  0  0  0  0  0
  192.3710  170.7940  137.8480 N   0  0  0  0  0  2  0  0  0  0  0  0
  191.3290  171.6120  139.8580 C   0  0  0  0  0  2  0  0  0  0  0  0
  190.5770  172.2780  137.5330 N   0  0  0  0  0  2  0  0  0  0  0  0
  1  2  2  0  0  0  0
  2  3  2  0  0  0  0
  4  8  1  0  0  0  0
  5  9  1  0  0  0  0
  5  6  1  0  0  0  0
  6  3  1  6  0  0  0
  6  4  1  0  0  0  0
  7  9  2  0  0  0  0
  7 11  1  0  0  0  0
  9  8  1  0  0  0  0
 10 11  2  0  0  0  0
 11 12  1  0  0  0  0
 12 13  1  0  0  0  0
 13 14  1  0  0  0  0
 14 15  1  6  0  0  0
 16 18  1  6  0  0  0
 16 14  1  0  0  0  0
 16 17  2  0  0  0  0
 21 20  1  0  0  0  0
 21 23  1  1  0  0  0
 22 19  1  6  0  0  0
 22  1  1  0  0  0  0
 22 21  1  0  0  0  0
 22 20  1  0  0  0  0
 23 24  1  0  0  0  0
 24 25  1  0  0  0  0
 25 29  1  0  0  0  0
 26 27  1  0  0  0  0
 27 31  1  0  0  0  0
 29 34  1  0  0  0  0
 30 35  2  0  0  0  0
 32 31  1  0  0  0  0
 33 32  1  0  0  0  0
 34 26  1  0  0  0  0
 34 28  2  0  0  0  0
 35 33  1  0  0  0  0
 35 26  1  0  0  0  0
 36  3  1  0  0  0  0
 37 36  1  0  0  0  0
 38 44  1  0  0  0  0
 40 39  1  6  0  0  0
 40 42  1  0  0  0  0
 42 37  1  1  0  0  0
 42 41  1  0  0  0  0
 43 38  2  0  0  0  0
 44 41  1  0  0  0  0
 45 40  1  0  0  0  0
 45 38  1  0  0  0  0
M  END
>  <MODEL>
2

>  <REMARK>
 VINA RESULT:      -6.9      2.656      7.216
  Name = 
  14 active torsions:
  status: ('A' for Active; 'I' for Inactive)
    1  A    between atoms: S_3  and  C_14
    2  A    between atoms: C_6  and  C_23
    3  A    between atoms: C_6  and  C_33
    4  A    between atoms: N_8  and  N_15
    5  A    between atoms: N_8  and  C_25
    6  A    between atoms: C_10  and  C_42
    7  A    between atoms: C_14  and  C_45
    8  A    between atoms: N_15  and  C_43
    9  A    between atoms: C_17  and  C_37
   10  A    between atoms: C_17  and  C_45
   11  A    between atoms: C_18  and  N_21
   12  A    between atoms: C_18  and  C_23
   13  A    between atoms: C_24  and  C_43
   14  A    between atoms: N_27  and  C_37
                            x       y       z     vdW  Elec       q    Type
                         _______ _______ _______ _____ _____    ______ ____

>  <TORSDO>
F 14

$$$$
=
 OpenBabel11042415173D

 45 48  0  0  1  0  0  0  0  0999 V2000
  193.2100  174.2170  142.2860 C   0  0  0  0  0  3  0  0  0  0  0  0
  192.0090  174.7140  142.3990 C   0  0  0  0  0  0  0  0  0  0  0  0
  190.8070  175.2150  142.5180 C   0  0  0  0  0  0  0  0  0  0  0  0
  189.7840  177.3930  143.2440 C   0  0  0  0  0  2  0  0  0  0  0  0
  189.5220  175.4020  144.6670 C   0  0  0  0  0  2  0  0  0  0  0  0
  190.4540  176.0940  143.6850 C   0  0  1  0  0  3  0  0  0  0  0  0
  187.6680  176.2540  145.9770 N   0  0  0  0  0  0  0  0  0  0  0  0
  188.7390  177.7230  144.2940 C   0  0  0  0  0  2  0  0  0  0  0  0
  188.5620  176.4580  145.0530 C   0  0  0  0  0  0  0  0  0  0  0  0
  186.9300  178.0350  147.3820 N   0  0  0  0  0  2  0  0  0  0  0  0
  186.6740  177.1780  146.4490 C   0  0  0  0  0  0  0  0  0  0  0  0
  185.3610  177.2400  145.7510 C   0  0  0  0  0  2  0  0  0  0  0  0
  184.8240  178.6650  145.7860 C   0  0  0  0  0  2  0  0  0  0  0  0
  184.6180  179.2340  144.3860 C   0  0  1  0  0  3  0  0  0  0  0  0
  185.5580  180.2320  144.1190 O   0  0  0  0  0  1  0  0  0  0  0  0
  184.7070  177.9410  143.1280 S   0  0  1  0  0  0  0  0  0  0  0  0
  183.4400  178.1530  142.3110 O   0  0  0  0  0  0  0  0  0  0  0  0
  186.0060  178.5150  142.0230 C   0  0  0  0  0  1  0  0  0  0  0  0
  193.5950  172.4440  140.5810 O   0  0  0  0  0  1  0  0  0  0  0  0
  193.4540  174.7320  139.8350 C   0  0  0  0  0  2  0  0  0  0  0  0
  194.8980  174.5190  140.2760 C   0  0  2  0  0  3  0  0  0  0  0  0
  193.7570  173.7770  140.9610 C   0  0  1  0  0  0  0  0  0  0  0  0
  195.3670  175.7330  141.0670 C   0  0  0  0  0  2  0  0  0  0  0  0
  196.8800  175.8460  141.0090 C   0  0  0  0  0  2  0  0  0  0  0  0
  197.4600  175.8790  142.4130 C   0  0  0  0  0  2  0  0  0  0  0  0
  194.7950  175.1460  145.0870 N   0  0  0  0  0  0  0  0  0  0  0  0
  194.2620  173.9740  145.7910 C   0  0  0  0  0  2  0  0  0  0  0  0
  196.3660  173.7940  144.0010 O   0  0  0  0  0  0  0  0  0  0  0  0
  196.3920  176.0410  143.3880 N   0  0  0  0  0  2  0  0  0  0  0  0
  195.0080  177.4890  145.2040 O   0  0  0  0  0  0  0  0  0  0  0  0
  192.7850  174.1490  146.1300 C   0  0  0  0  0  2  0  0  0  0  0  0
  192.6080  175.4250  146.9360 C   0  0  0  0  0  2  0  0  0  0  0  0
  192.9720  176.6320  146.0820 C   0  0  0  0  0  2  0  0  0  0  0  0
  195.8780  174.9470  144.1560 C   0  0  0  0  0  0  0  0  0  0  0  0
  194.3220  176.4620  145.4490 C   0  0  0  0  0  0  0  0  0  0  0  0
  189.8140  174.8680  141.5500 N   0  0  0  0  0  2  0  0  0  0  0  0
  188.9510  173.7760  141.7300 N   0  0  0  0  0  2  0  0  0  0  0  0
  189.4110  172.4270  137.7160 C   0  0  0  0  0  0  0  0  0  0  0  0
  190.3780  171.3020  141.0990 N   0  0  0  0  0  1  0  0  0  0  0  0
  190.1450  172.3640  140.1350 C   0  0  2  0  0  3  0  0  0  0  0  0
  188.5510  174.1040  139.3500 C   0  0  0  0  0  2  0  0  0  0  0  0
  188.8360  173.0870  140.4510 C   0  0  2  0  0  3  0  0  0  0  0  0
  189.5050  171.9380  136.5250 N   0  0  0  0  0  2  0  0  0  0  0  0
  188.3100  173.3970  138.0210 C   0  0  0  0  0  2  0  0  0  0  0  0
  190.1190  171.7980  138.7890 N   0  0  0  0  0  2  0  0  0  0  0  0
  1  2  2  0  0  0  0
  2  3  2  0  0  0  0
  4  6  1  0  0  0  0
  4  8  1  0  0  0  0
  5  9  1  0  0  0  0
  6  3  1  6  0  0  0
  6  5  1  0  0  0  0
  7 11  1  0  0  0  0
  8  9  1  0  0  0  0
  9  7  2  0  0  0  0
 11 10  2  0  0  0  0
 12 13  1  0  0  0  0
 12 11  1  0  0  0  0
 14 15  1  6  0  0  0
 14 13  1  0  0  0  0
 16 18  1  6  0  0  0
 16 14  1  0  0  0  0
 17 16  2  0  0  0  0
 20 21  1  0  0  0  0
 20 22  1  0  0  0  0
 21 22  1  0  0  0  0
 21 23  1  1  0  0  0
 22 19  1  6  0  0  0
 22  1  1  0  0  0  0
 24 23  1  0  0  0  0
 24 25  1  0  0  0  0
 25 29  1  0  0  0  0
 26 35  1  0  0  0  0
 26 27  1  0  0  0  0
 27 31  1  0  0  0  0
 28 34  2  0  0  0  0
 29 34  1  0  0  0  0
 30 35  2  0  0  0  0
 31 32  1  0  0  0  0
 33 32  1  0  0  0  0
 34 26  1  0  0  0  0
 35 33  1  0  0  0  0
 36 37  1  0  0  0  0
 36  3  1  0  0  0  0
 38 44  1  0  0  0  0
 38 45  1  0  0  0  0
 40 42  1  0  0  0  0
 40 39  1  1  0  0  0
 41 42  1  0  0  0  0
 42 37  1  1  0  0  0
 43 38  2  0  0  0  0
 44 41  1  0  0  0  0
 45 40  1  0  0  0  0
M  END
>  <MODEL>
3

>  <REMARK>
 VINA RESULT:      -6.7      2.154      3.201
  Name = 
  14 active torsions:
  status: ('A' for Active; 'I' for Inactive)
    1  A    between atoms: S_3  and  C_14
    2  A    between atoms: C_6  and  C_23
    3  A    between atoms: C_6  and  C_33
    4  A    between atoms: N_8  and  N_15
    5  A    between atoms: N_8  and  C_25
    6  A    between atoms: C_10  and  C_42
    7  A    between atoms: C_14  and  C_45
    8  A    between atoms: N_15  and  C_43
    9  A    between atoms: C_17  and  C_37
   10  A    between atoms: C_17  and  C_45
   11  A    between atoms: C_18  and  N_21
   12  A    between atoms: C_18  and  C_23
   13  A    between atoms: C_24  and  C_43
   14  A    between atoms: N_27  and  C_37
                            x       y       z     vdW  Elec       q    Type
                         _______ _______ _______ _____ _____    ______ ____

>  <TORSDO>
F 14

$$$$
=
 OpenBabel11042415173D

 45 48  0  0  1  0  0  0  0  0999 V2000
  191.1450  172.7570  144.2080 C   0  0  0  0  0  3  0  0  0  0  0  0
  190.2650  173.3320  143.4340 C   0  0  0  0  0  0  0  0  0  0  0  0
  189.3840  173.9130  142.6620 C   0  0  0  0  0  0  0  0  0  0  0  0
  189.0320  176.2720  141.8710 C   0  0  0  0  0  2  0  0  0  0  0  0
  187.3570  175.2310  143.3430 C   0  0  0  0  0  2  0  0  0  0  0  0
  188.8400  175.2720  143.0070 C   0  0  1  0  0  3  0  0  0  0  0  0
  185.5700  176.7960  142.8600 N   0  0  0  0  0  0  0  0  0  0  0  0
  187.8080  177.1710  141.8680 C   0  0  0  0  0  2  0  0  0  0  0  0
  186.8110  176.4410  142.6940 C   0  0  0  0  0  0  0  0  0  0  0  0
  184.6490  178.0130  141.0270 N   0  0  0  0  0  2  0  0  0  0  0  0
  184.9030  177.9350  142.2910 C   0  0  0  0  0  0  0  0  0  0  0  0
  184.3720  178.9860  143.2010 C   0  0  0  0  0  2  0  0  0  0  0  0
  185.4990  179.5430  144.0610 C   0  0  0  0  0  2  0  0  0  0  0  0
  185.2450  179.3260  145.5490 C   0  0  1  0  0  3  0  0  0  0  0  0
  183.9140  178.9670  145.7720 O   0  0  0  0  0  1  0  0  0  0  0  0
  186.3520  178.0730  146.2320 S   0  0  1  0  0  0  0  0  0  0  0  0
  186.5880  178.5470  147.6590 O   0  0  0  0  0  0  0  0  0  0  0  0
  185.2850  176.6400  146.4500 C   0  0  0  0  0  1  0  0  0  0  0  0
  191.5160  170.6080  143.0070 O   0  0  0  0  0  1  0  0  0  0  0  0
  193.2980  172.2320  143.0160 C   0  0  0  0  0  2  0  0  0  0  0  0
  193.4350  171.4450  144.3150 C   0  0  2  0  0  3  0  0  0  0  0  0
  192.0650  171.6900  143.6950 C   0  0  1  0  0  0  0  0  0  0  0  0
  193.7440  172.4060  145.4550 C   0  0  0  0  0  2  0  0  0  0  0  0
  195.2310  172.7100  145.4990 C   0  0  0  0  0  2  0  0  0  0  0  0
  195.4620  174.2110  145.5080 C   0  0  0  0  0  2  0  0  0  0  0  0
  192.4070  176.3940  144.6770 N   0  0  0  0  0  0  0  0  0  0  0  0
  191.9490  177.2370  143.5670 C   0  0  0  0  0  2  0  0  0  0  0  0
  194.2980  175.7780  143.4450 O   0  0  0  0  0  0  0  0  0  0  0  0
  194.1890  174.9090  145.6030 N   0  0  0  0  0  2  0  0  0  0  0  0
  191.6750  175.1840  146.5620 O   0  0  0  0  0  0  0  0  0  0  0  0
  191.1070  178.4080  144.0630 C   0  0  0  0  0  2  0  0  0  0  0  0
  189.9470  177.8730  144.8870 C   0  0  0  0  0  2  0  0  0  0  0  0
  190.4740  177.1920  146.1430 C   0  0  0  0  0  2  0  0  0  0  0  0
  193.6560  175.6910  144.5280 C   0  0  0  0  0  0  0  0  0  0  0  0
  191.5350  176.1850  145.8100 C   0  0  0  0  0  0  0  0  0  0  0  0
  188.9010  173.2130  141.5140 N   0  0  0  0  0  2  0  0  0  0  0  0
  189.7320  172.3860  140.7430 N   0  0  0  0  0  2  0  0  0  0  0  0
  189.3630  174.1910  136.9040 C   0  0  0  0  0  0  0  0  0  0  0  0
  191.6390  171.8260  138.5970 N   0  0  0  0  0  1  0  0  0  0  0  0
  190.7800  172.9980  138.6250 C   0  0  2  0  0  3  0  0  0  0  0  0
  188.5360  173.8780  139.2360 C   0  0  0  0  0  2  0  0  0  0  0  0
  189.4690  172.6750  139.3410 C   0  0  2  0  0  3  0  0  0  0  0  0
  189.2450  174.6510  135.7030 N   0  0  0  0  0  2  0  0  0  0  0  0
  188.1510  174.1290  137.7820 C   0  0  0  0  0  2  0  0  0  0  0  0
  190.5330  173.4480  137.2570 N   0  0  0  0  0  2  0  0  0  0  0  0
  2  1  2  0  0  0  0
  3  2  2  0  0  0  0
  4  6  1  0  0  0  0
  6  3  1  6  0  0  0
  6  5  1  0  0  0  0
  8  4  1  0  0  0  0
  8  9  1  0  0  0  0
  9  7  2  0  0  0  0
  9  5  1  0  0  0  0
 10 11  2  0  0  0  0
 11  7  1  0  0  0  0
 11 12  1  0  0  0  0
 12 13  1  0  0  0  0
 13 14  1  0  0  0  0
 14 15  1  6  0  0  0
 14 16  1  0  0  0  0
 16 18  1  1  0  0  0
 16 17  2  0  0  0  0
 20 22  1  0  0  0  0
 20 21  1  0  0  0  0
 21 23  1  1  0  0  0
 22 19  1  6  0  0  0
 22  1  1  0  0  0  0
 22 21  1  0  0  0  0
 23 24  1  0  0  0  0
 24 25  1  0  0  0  0
 25 29  1  0  0  0  0
 26 35  1  0  0  0  0
 27 31  1  0  0  0  0
 27 26  1  0  0  0  0
 28 34  2  0  0  0  0
 31 32  1  0  0  0  0
 32 33  1  0  0  0  0
 34 26  1  0  0  0  0
 34 29  1  0  0  0  0
 35 33  1  0  0  0  0
 35 30  2  0  0  0  0
 36  3  1  0  0  0  0
 37 36  1  0  0  0  0
 38 45  1  0  0  0  0
 38 44  1  0  0  0  0
 40 39  1  6  0  0  0
 40 42  1  0  0  0  0
 41 42  1  0  0  0  0
 42 37  1  1  0  0  0
 43 38  2  0  0  0  0
 44 41  1  0  0  0  0
 45 40  1  0  0  0  0
M  END
>  <MODEL>
4

>  <REMARK>
 VINA RESULT:      -6.7      2.055      2.768
  Name = 
  14 active torsions:
  status: ('A' for Active; 'I' for Inactive)
    1  A    between atoms: S_3  and  C_14
    2  A    between atoms: C_6  and  C_23
    3  A    between atoms: C_6  and  C_33
    4  A    between atoms: N_8  and  N_15
    5  A    between atoms: N_8  and  C_25
    6  A    between atoms: C_10  and  C_42
    7  A    between atoms: C_14  and  C_45
    8  A    between atoms: N_15  and  C_43
    9  A    between atoms: C_17  and  C_37
   10  A    between atoms: C_17  and  C_45
   11  A    between atoms: C_18  and  N_21
   12  A    between atoms: C_18  and  C_23
   13  A    between atoms: C_24  and  C_43
   14  A    between atoms: N_27  and  C_37
                            x       y       z     vdW  Elec       q    Type
                         _______ _______ _______ _____ _____    ______ ____

>  <TORSDO>
F 14

$$$$
=
 OpenBabel11042415173D

 45 48  0  0  1  0  0  0  0  0999 V2000
  192.2220  172.7430  143.6270 C   0  0  0  0  0  3  0  0  0  0  0  0
  191.4180  172.3000  142.7000 C   0  0  0  0  0  0  0  0  0  0  0  0
  190.6080  171.8630  141.7720 C   0  0  0  0  0  0  0  0  0  0  0  0
  188.2890  172.7060  142.2500 C   0  0  0  0  0  2  0  0  0  0  0  0
  189.8830  174.1620  141.0690 C   0  0  0  0  0  2  0  0  0  0  0  0
  189.4700  172.7140  141.2830 C   0  0  1  0  0  3  0  0  0  0  0  0
  188.6900  176.2360  141.4620 N   0  0  0  0  0  0  0  0  0  0  0  0
  187.6890  174.1000  142.2190 C   0  0  0  0  0  2  0  0  0  0  0  0
  188.7360  174.9410  141.5820 C   0  0  0  0  0  0  0  0  0  0  0  0
  186.5260  177.2250  141.2850 N   0  0  0  0  0  2  0  0  0  0  0  0
  187.6500  177.1180  141.9140 C   0  0  0  0  0  0  0  0  0  0  0  0
  187.8190  177.8220  143.2150 C   0  0  0  0  0  2  0  0  0  0  0  0
  186.5810  177.6180  144.0780 C   0  0  0  0  0  2  0  0  0  0  0  0
  186.0890  178.9250  144.6920 C   0  0  1  0  0  3  0  0  0  0  0  0
  185.3200  179.6400  143.7710 O   0  0  0  0  0  1  0  0  0  0  0  0
  185.1410  178.6300  146.2010 S   0  0  1  0  0  0  0  0  0  0  0  0
  183.7020  178.8800  145.7710 O   0  0  0  0  0  0  0  0  0  0  0  0
  185.2040  176.8420  146.3960 C   0  0  0  0  0  1  0  0  0  0  0  0
  193.8030  171.1370  144.6850 O   0  0  0  0  0  1  0  0  0  0  0  0
  194.3340  171.9820  142.4910 C   0  0  0  0  0  2  0  0  0  0  0  0
  194.8450  173.0230  143.4810 C   0  0  2  0  0  3  0  0  0  0  0  0
  193.6070  172.1920  143.7950 C   0  0  1  0  0  0  0  0  0  0  0  0
  194.5030  174.4160  142.9680 C   0  0  0  0  0  2  0  0  0  0  0  0
  195.5960  175.3990  143.3460 C   0  0  0  0  0  2  0  0  0  0  0  0
  195.0610  176.4290  144.3270 C   0  0  0  0  0  2  0  0  0  0  0  0
  191.6630  175.9970  146.0740 N   0  0  0  0  0  0  0  0  0  0  0  0
  191.1420  176.0110  147.4450 C   0  0  0  0  0  2  0  0  0  0  0  0
  193.7950  176.5480  146.8660 O   0  0  0  0  0  0  0  0  0  0  0  0
  193.6450  176.1980  144.5680 N   0  0  0  0  0  2  0  0  0  0  0  0
  191.0490  176.2470  143.8130 O   0  0  0  0  0  0  0  0  0  0  0  0
  189.9560  175.0640  147.6030 C   0  0  0  0  0  2  0  0  0  0  0  0
  188.8890  175.4310  146.5860 C   0  0  0  0  0  2  0  0  0  0  0  0
  189.4120  175.1920  145.1750 C   0  0  0  0  0  2  0  0  0  0  0  0
  193.0650  176.2670  145.8760 C   0  0  0  0  0  0  0  0  0  0  0  0
  190.7410  175.8570  144.9710 C   0  0  0  0  0  0  0  0  0  0  0  0
  190.7860  170.5380  141.2660 N   0  0  0  0  0  2  0  0  0  0  0  0
  191.9390  170.1610  140.5600 N   0  0  0  0  0  2  0  0  0  0  0  0
  190.2590  170.9340  136.7230 C   0  0  0  0  0  0  0  0  0  0  0  0
  193.2700  171.9080  138.6280 N   0  0  0  0  0  1  0  0  0  0  0  0
  191.8550  171.5800  138.5750 C   0  0  2  0  0  3  0  0  0  0  0  0
  190.1470  169.8120  138.9480 C   0  0  0  0  0  2  0  0  0  0  0  0
  191.6150  170.1800  139.1400 C   0  0  2  0  0  3  0  0  0  0  0  0
  189.8300  171.1330  135.5220 N   0  0  0  0  0  2  0  0  0  0  0  0
  189.8120  169.7110  137.4640 C   0  0  0  0  0  2  0  0  0  0  0  0
  191.3890  171.6750  137.1940 N   0  0  0  0  0  2  0  0  0  0  0  0
  1 22  1  0  0  0  0
  2  1  2  0  0  0  0
  3  2  2  0  0  0  0
  5  6  1  0  0  0  0
  5  9  1  0  0  0  0
  6  3  1  1  0  0  0
  6  4  1  0  0  0  0
  7  9  2  0  0  0  0
  7 11  1  0  0  0  0
  8  4  1  0  0  0  0
  9  8  1  0  0  0  0
 10 11  2  0  0  0  0
 11 12  1  0  0  0  0
 12 13  1  0  0  0  0
 13 14  1  0  0  0  0
 14 15  1  6  0  0  0
 14 16  1  0  0  0  0
 16 18  1  6  0  0  0
 17 16  2  0  0  0  0
 20 21  1  0  0  0  0
 20 22  1  0  0  0  0
 21 23  1  6  0  0  0
 21 22  1  0  0  0  0
 22 19  1  1  0  0  0
 23 24  1  0  0  0  0
 24 25  1  0  0  0  0
 25 29  1  0  0  0  0
 26 27  1  0  0  0  0
 27 31  1  0  0  0  0
 29 34  1  0  0  0  0
 30 35  2  0  0  0  0
 32 31  1  0  0  0  0
 33 32  1  0  0  0  0
 34 26  1  0  0  0  0
 34 28  2  0  0  0  0
 35 33  1  0  0  0  0
 35 26  1  0  0  0  0
 36  3  1  0  0  0  0
 37 36  1  0  0  0  0
 38 45  1  0  0  0  0
 38 44  1  0  0  0  0
 40 39  1  6  0  0  0
 40 42  1  0  0  0  0
 41 42  1  0  0  0  0
 42 37  1  1  0  0  0
 43 38  2  0  0  0  0
 44 41  1  0  0  0  0
 45 40  1  0  0  0  0
M  END
>  <MODEL>
5

>  <REMARK>
 VINA RESULT:      -6.6      1.884      2.937
  Name = 
  14 active torsions:
  status: ('A' for Active; 'I' for Inactive)
    1  A    between atoms: S_3  and  C_14
    2  A    between atoms: C_6  and  C_23
    3  A    between atoms: C_6  and  C_33
    4  A    between atoms: N_8  and  N_15
    5  A    between atoms: N_8  and  C_25
    6  A    between atoms: C_10  and  C_42
    7  A    between atoms: C_14  and  C_45
    8  A    between atoms: N_15  and  C_43
    9  A    between atoms: C_17  and  C_37
   10  A    between atoms: C_17  and  C_45
   11  A    between atoms: C_18  and  N_21
   12  A    between atoms: C_18  and  C_23
   13  A    between atoms: C_24  and  C_43
   14  A    between atoms: N_27  and  C_37
                            x       y       z     vdW  Elec       q    Type
                         _______ _______ _______ _____ _____    ______ ____

>  <TORSDO>
F 14

$$$$
=
 OpenBabel11042415173D

 45 48  0  0  1  0  0  0  0  0999 V2000
  191.8650  173.8900  141.7930 C   0  0  0  0  0  3  0  0  0  0  0  0
  190.6050  174.2230  141.7340 C   0  0  0  0  0  0  0  0  0  0  0  0
  189.3430  174.5620  141.6790 C   0  0  0  0  0  0  0  0  0  0  0  0
  188.9230  177.0220  141.9840 C   0  0  0  0  0  2  0  0  0  0  0  0
  187.3280  175.3990  142.9230 C   0  0  0  0  0  2  0  0  0  0  0  0
  188.7950  175.6260  142.5890 C   0  0  1  0  0  3  0  0  0  0  0  0
  185.4990  176.9630  143.2150 N   0  0  0  0  0  0  0  0  0  0  0  0
  187.6860  177.7960  142.4050 C   0  0  0  0  0  2  0  0  0  0  0  0
  186.7370  176.7520  142.8720 C   0  0  0  0  0  0  0  0  0  0  0  0
  183.7280  178.3910  142.4970 N   0  0  0  0  0  2  0  0  0  0  0  0
  184.7920  178.2130  143.2090 C   0  0  0  0  0  0  0  0  0  0  0  0
  185.2160  179.2840  144.1520 C   0  0  0  0  0  2  0  0  0  0  0  0
  184.7620  178.9390  145.5640 C   0  0  0  0  0  2  0  0  0  0  0  0
  185.9400  178.7740  146.5190 C   0  0  1  0  0  3  0  0  0  0  0  0
  185.8730  179.7160  147.5480 O   0  0  0  0  0  1  0  0  0  0  0  0
  186.0050  177.1040  147.2060 S   0  0  1  0  0  0  0  0  0  0  0  0
  184.9140  176.3650  146.4440 O   0  0  0  0  0  0  0  0  0  0  0  0
  187.5200  176.4220  146.5140 C   0  0  0  0  0  1  0  0  0  0  0  0
  192.4890  171.8530  140.5060 O   0  0  0  0  0  1  0  0  0  0  0  0
  192.3400  173.9480  139.3240 C   0  0  0  0  0  2  0  0  0  0  0  0
  193.7380  173.9030  139.9310 C   0  0  2  0  0  3  0  0  0  0  0  0
  192.5610  173.2400  140.6350 C   0  0  1  0  0  0  0  0  0  0  0  0
  194.0770  175.2680  140.5140 C   0  0  0  0  0  2  0  0  0  0  0  0
  195.5830  175.4360  140.6180 C   0  0  0  0  0  2  0  0  0  0  0  0
  195.9570  176.0000  141.9780 C   0  0  0  0  0  2  0  0  0  0  0  0
  193.5960  176.0390  145.0130 N   0  0  0  0  0  0  0  0  0  0  0  0
  193.6820  175.7770  146.4540 C   0  0  0  0  0  2  0  0  0  0  0  0
  195.8990  175.6850  144.7990 O   0  0  0  0  0  0  0  0  0  0  0  0
  194.7690  176.1210  142.8100 N   0  0  0  0  0  2  0  0  0  0  0  0
  192.3270  177.1410  143.3620 O   0  0  0  0  0  0  0  0  0  0  0  0
  192.3750  175.2090  146.9980 C   0  0  0  0  0  2  0  0  0  0  0  0
  191.2400  176.1610  146.6600 C   0  0  0  0  0  2  0  0  0  0  0  0
  191.0530  176.2310  145.1500 C   0  0  0  0  0  2  0  0  0  0  0  0
  194.8030  175.9440  144.2310 C   0  0  0  0  0  0  0  0  0  0  0  0
  192.3520  176.5170  144.4560 C   0  0  0  0  0  0  0  0  0  0  0  0
  188.4780  173.8670  140.7800 N   0  0  0  0  0  2  0  0  0  0  0  0
  188.8060  172.6060  140.2580 N   0  0  0  0  0  2  0  0  0  0  0  0
  189.4400  173.2490  136.0950 C   0  0  0  0  0  0  0  0  0  0  0  0
  189.5430  170.4160  138.4640 N   0  0  0  0  0  1  0  0  0  0  0  0
  189.7660  171.8190  138.1550 C   0  0  2  0  0  3  0  0  0  0  0  0
  188.8670  174.1280  138.3580 C   0  0  0  0  0  2  0  0  0  0  0  0
  188.6870  172.6820  138.8080 C   0  0  2  0  0  3  0  0  0  0  0  0
  189.5620  173.3800  134.8170 N   0  0  0  0  0  2  0  0  0  0  0  0
  188.6300  174.2530  136.8570 C   0  0  0  0  0  2  0  0  0  0  0  0
  189.7750  171.9990  136.7060 N   0  0  0  0  0  2  0  0  0  0  0  0
  2  1  2  0  0  0  0
  3  2  2  0  0  0  0
  4  8  1  0  0  0  0
  4  6  1  0  0  0  0
  6  3  1  6  0  0  0
  6  5  1  0  0  0  0
  8  9  1  0  0  0  0
  9  5  1  0  0  0  0
  9  7  2  0  0  0  0
 10 11  2  0  0  0  0
 11  7  1  0  0  0  0
 11 12  1  0  0  0  0
 12 13  1  0  0  0  0
 13 14  1  0  0  0  0
 14 16  1  0  0  0  0
 14 15  1  1  0  0  0
 16 18  1  6  0  0  0
 17 16  2  0  0  0  0
 20 21  1  0  0  0  0
 20 22  1  0  0  0  0
 21 23  1  1  0  0  0
 21 22  1  0  0  0  0
 22 19  1  6  0  0  0
 22  1  1  0  0  0  0
 23 24  1  0  0  0  0
 24 25  1  0  0  0  0
 25 29  1  0  0  0  0
 26 27  1  0  0  0  0
 27 31  1  0  0  0  0
 29 34  1  0  0  0  0
 30 35  2  0  0  0  0
 32 31  1  0  0  0  0
 33 32  1  0  0  0  0
 34 28  2  0  0  0  0
 34 26  1  0  0  0  0
 35 26  1  0  0  0  0
 35 33  1  0  0  0  0
 36  3  1  0  0  0  0
 37 36  1  0  0  0  0
 38 45  1  0  0  0  0
 38 44  1  0  0  0  0
 40 39  1  6  0  0  0
 40 42  1  0  0  0  0
 41 42  1  0  0  0  0
 42 37  1  1  0  0  0
 43 38  2  0  0  0  0
 44 41  1  0  0  0  0
 45 40  1  0  0  0  0
M  END
>  <MODEL>
6

>  <REMARK>
 VINA RESULT:      -6.6      1.988      2.761
  Name = 
  14 active torsions:
  status: ('A' for Active; 'I' for Inactive)
    1  A    between atoms: S_3  and  C_14
    2  A    between atoms: C_6  and  C_23
    3  A    between atoms: C_6  and  C_33
    4  A    between atoms: N_8  and  N_15
    5  A    between atoms: N_8  and  C_25
    6  A    between atoms: C_10  and  C_42
    7  A    between atoms: C_14  and  C_45
    8  A    between atoms: N_15  and  C_43
    9  A    between atoms: C_17  and  C_37
   10  A    between atoms: C_17  and  C_45
   11  A    between atoms: C_18  and  N_21
   12  A    between atoms: C_18  and  C_23
   13  A    between atoms: C_24  and  C_43
   14  A    between atoms: N_27  and  C_37
                            x       y       z     vdW  Elec       q    Type
                         _______ _______ _______ _____ _____    ______ ____

>  <TORSDO>
F 14

$$$$
=
 OpenBabel11042415173D

 45 48  0  0  1  0  0  0  0  0999 V2000
  192.2190  174.4380  140.9070 C   0  0  0  0  0  3  0  0  0  0  0  0
  191.1750  173.6620  141.0060 C   0  0  0  0  0  0  0  0  0  0  0  0
  190.1250  172.8890  141.1040 C   0  0  0  0  0  0  0  0  0  0  0  0
  188.2830  173.8710  142.5060 C   0  0  0  0  0  2  0  0  0  0  0  0
  188.6330  174.7040  140.2170 C   0  0  0  0  0  2  0  0  0  0  0  0
  188.7400  173.4740  141.1040 C   0  0  1  0  0  3  0  0  0  0  0  0
  187.3860  176.7650  140.4920 N   0  0  0  0  0  0  0  0  0  0  0  0
  187.4560  175.1340  142.3540 C   0  0  0  0  0  2  0  0  0  0  0  0
  187.7850  175.6320  140.9930 C   0  0  0  0  0  0  0  0  0  0  0  0
  185.3810  178.0410  140.7020 N   0  0  0  0  0  2  0  0  0  0  0  0
  186.5700  177.7630  141.1260 C   0  0  0  0  0  0  0  0  0  0  0  0
  187.0530  178.3930  142.3850 C   0  0  0  0  0  2  0  0  0  0  0  0
  185.8870  178.5860  143.3460 C   0  0  0  0  0  2  0  0  0  0  0  0
  186.1860  178.0200  144.7310 C   0  0  1  0  0  3  0  0  0  0  0  0
  187.5640  177.9170  144.9310 O   0  0  0  0  0  1  0  0  0  0  0  0
  185.4400  179.0260  146.0320 S   0  0  1  0  0  0  0  0  0  0  0  0
  184.0500  178.4270  146.1920 O   0  0  0  0  0  0  0  0  0  0  0  0
  186.2920  178.4880  147.5230 C   0  0  0  0  0  1  0  0  0  0  0  0
  193.5940  172.6350  139.8800 O   0  0  0  0  0  1  0  0  0  0  0  0
  194.2970  174.9200  139.5750 C   0  0  0  0  0  2  0  0  0  0  0  0
  194.8600  174.4800  140.9210 C   0  0  2  0  0  3  0  0  0  0  0  0
  193.5370  173.9230  140.4110 C   0  0  1  0  0  0  0  0  0  0  0  0
  194.6740  175.6010  141.9350 C   0  0  0  0  0  2  0  0  0  0  0  0
  195.8990  175.7160  142.8250 C   0  0  0  0  0  2  0  0  0  0  0  0
  195.5390  176.4040  144.1310 C   0  0  0  0  0  2  0  0  0  0  0  0
  192.1960  176.0980  146.0070 N   0  0  0  0  0  0  0  0  0  0  0  0
  191.7190  176.1940  147.3910 C   0  0  0  0  0  2  0  0  0  0  0  0
  194.3560  176.6770  146.6970 O   0  0  0  0  0  0  0  0  0  0  0  0
  194.1300  176.1970  144.4290 N   0  0  0  0  0  2  0  0  0  0  0  0
  191.5110  176.2240  143.7560 O   0  0  0  0  0  0  0  0  0  0  0  0
  190.5340  175.2670  147.6400 C   0  0  0  0  0  2  0  0  0  0  0  0
  189.4360  175.5840  146.6380 C   0  0  0  0  0  2  0  0  0  0  0  0
  189.9120  175.2610  145.2270 C   0  0  0  0  0  2  0  0  0  0  0  0
  193.5930  176.3450  145.7490 C   0  0  0  0  0  0  0  0  0  0  0  0
  191.2390  175.9020  144.9430 C   0  0  0  0  0  0  0  0  0  0  0  0
  190.3130  171.4820  141.2680 N   0  0  0  0  0  2  0  0  0  0  0  0
  190.4100  170.8890  142.5370 N   0  0  0  0  0  2  0  0  0  0  0  0
  193.8320  171.4260  145.0160 C   0  0  0  0  0  0  0  0  0  0  0  0
  192.6870  169.0560  142.4240 N   0  0  0  0  0  1  0  0  0  0  0  0
  192.4120  169.9290  143.5530 C   0  0  2  0  0  3  0  0  0  0  0  0
  191.5710  172.1610  144.2580 C   0  0  0  0  0  2  0  0  0  0  0  0
  191.7250  171.2080  143.0760 C   0  0  2  0  0  3  0  0  0  0  0  0
  194.9210  171.5940  145.6870 N   0  0  0  0  0  2  0  0  0  0  0  0
  192.9390  172.6030  144.7670 C   0  0  0  0  0  2  0  0  0  0  0  0
  193.6630  170.2330  144.2440 N   0  0  0  0  0  2  0  0  0  0  0  0
  1  2  2  0  0  0  0
  2  3  2  0  0  0  0
  3 36  1  0  0  0  0
  5  9  1  0  0  0  0
  5  6  1  0  0  0  0
  6  3  1  1  0  0  0
  6  4  1  0  0  0  0
  7  9  2  0  0  0  0
  7 11  1  0  0  0  0
  8  4  1  0  0  0  0
  9  8  1  0  0  0  0
 10 11  2  0  0  0  0
 11 12  1  0  0  0  0
 12 13  1  0  0  0  0
 13 14  1  0  0  0  0
 14 15  1  1  0  0  0
 14 16  1  0  0  0  0
 16 17  2  0  0  0  0
 16 18  1  1  0  0  0
 20 22  1  0  0  0  0
 20 21  1  0  0  0  0
 21 23  1  1  0  0  0
 22 19  1  6  0  0  0
 22  1  1  0  0  0  0
 22 21  1  0  0  0  0
 23 24  1  0  0  0  0
 24 25  1  0  0  0  0
 25 29  1  0  0  0  0
 26 27  1  0  0  0  0
 27 31  1  0  0  0  0
 29 34  1  0  0  0  0
 30 35  2  0  0  0  0
 32 31  1  0  0  0  0
 33 32  1  0  0  0  0
 34 26  1  0  0  0  0
 34 28  2  0  0  0  0
 35 33  1  0  0  0  0
 35 26  1  0  0  0  0
 36 37  1  0  0  0  0
 38 43  2  0  0  0  0
 40 39  1  6  0  0  0
 40 45  1  0  0  0  0
 41 44  1  0  0  0  0
 42 37  1  1  0  0  0
 42 40  1  0  0  0  0
 42 41  1  0  0  0  0
 44 38  1  0  0  0  0
 45 38  1  0  0  0  0
M  END
>  <MODEL>
7

>  <REMARK>
 VINA RESULT:      -6.5      1.965      3.272
  Name = 
  14 active torsions:
  status: ('A' for Active; 'I' for Inactive)
    1  A    between atoms: S_3  and  C_14
    2  A    between atoms: C_6  and  C_23
    3  A    between atoms: C_6  and  C_33
    4  A    between atoms: N_8  and  N_15
    5  A    between atoms: N_8  and  C_25
    6  A    between atoms: C_10  and  C_42
    7  A    between atoms: C_14  and  C_45
    8  A    between atoms: N_15  and  C_43
    9  A    between atoms: C_17  and  C_37
   10  A    between atoms: C_17  and  C_45
   11  A    between atoms: C_18  and  N_21
   12  A    between atoms: C_18  and  C_23
   13  A    between atoms: C_24  and  C_43
   14  A    between atoms: N_27  and  C_37
                            x       y       z     vdW  Elec       q    Type
                         _______ _______ _______ _____ _____    ______ ____

>  <TORSDO>
F 14

$$$$
=
 OpenBabel11042415173D

 45 48  0  0  1  0  0  0  0  0999 V2000
  192.5310  171.2410  144.3200 C   0  0  0  0  0  3  0  0  0  0  0  0
  191.5430  171.4310  143.4890 C   0  0  0  0  0  0  0  0  0  0  0  0
  190.5500  171.6250  142.6600 C   0  0  0  0  0  0  0  0  0  0  0  0
  189.7190  173.5090  144.1010 C   0  0  0  0  0  2  0  0  0  0  0  0
  188.7060  173.1440  141.8880 C   0  0  0  0  0  2  0  0  0  0  0  0
  189.3580  172.4430  143.0700 C   0  0  1  0  0  3  0  0  0  0  0  0
  187.6860  175.3350  141.6990 N   0  0  0  0  0  0  0  0  0  0  0  0
  188.8660  174.7250  143.7890 C   0  0  0  0  0  2  0  0  0  0  0  0
  188.3640  174.4830  142.4110 C   0  0  0  0  0  0  0  0  0  0  0  0
  187.9530  177.7060  141.6860 N   0  0  0  0  0  2  0  0  0  0  0  0
  187.2890  176.6650  142.0710 C   0  0  0  0  0  0  0  0  0  0  0  0
  186.0070  176.8560  142.8010 C   0  0  0  0  0  2  0  0  0  0  0  0
  186.2580  177.6150  144.0970 C   0  0  0  0  0  2  0  0  0  0  0  0
  185.0960  178.5360  144.4570 C   0  0  1  0  0  3  0  0  0  0  0  0
  184.0780  178.4340  143.5070 O   0  0  0  0  0  1  0  0  0  0  0  0
  184.4520  178.1740  146.1040 S   0  0  1  0  0  0  0  0  0  0  0  0
  184.8300  176.7150  146.3210 O   0  0  0  0  0  0  0  0  0  0  0  0
  185.5740  179.0540  147.2010 C   0  0  0  0  0  1  0  0  0  0  0  0
  194.1150  169.6260  143.2830 O   0  0  0  0  0  1  0  0  0  0  0  0
  194.5640  171.9820  143.0380 C   0  0  0  0  0  2  0  0  0  0  0  0
  195.1500  171.5760  144.3870 C   0  0  2  0  0  3  0  0  0  0  0  0
  193.9060  170.8880  143.8390 C   0  0  1  0  0  0  0  0  0  0  0  0
  194.8220  172.6470  145.4200 C   0  0  0  0  0  2  0  0  0  0  0  0
  196.0420  173.5080  145.6900 C   0  0  0  0  0  2  0  0  0  0  0  0
  195.8950  174.8590  145.0100 C   0  0  0  0  0  2  0  0  0  0  0  0
  192.4770  176.5280  144.4460 N   0  0  0  0  0  0  0  0  0  0  0  0
  191.7740  177.2120  143.3550 C   0  0  0  0  0  2  0  0  0  0  0  0
  194.2820  176.0880  143.0230 O   0  0  0  0  0  0  0  0  0  0  0  0
  194.5530  175.3800  145.2250 N   0  0  0  0  0  2  0  0  0  0  0  0
  192.1560  175.3770  146.4760 O   0  0  0  0  0  0  0  0  0  0  0  0
  190.8340  178.2910  143.8850 C   0  0  0  0  0  2  0  0  0  0  0  0
  189.8690  177.6650  144.8780 C   0  0  0  0  0  2  0  0  0  0  0  0
  190.6330  177.1610  146.0960 C   0  0  0  0  0  2  0  0  0  0  0  0
  193.7900  175.9950  144.1810 C   0  0  0  0  0  0  0  0  0  0  0  0
  191.7840  176.2880  145.6900 C   0  0  0  0  0  0  0  0  0  0  0  0
  190.5880  170.9990  141.3760 N   0  0  0  0  0  2  0  0  0  0  0  0
  191.7790  170.8760  140.6440 N   0  0  0  0  0  2  0  0  0  0  0  0
  189.8210  171.4140  136.9010 C   0  0  0  0  0  0  0  0  0  0  0  0
  191.9390  173.4040  139.1810 N   0  0  0  0  0  1  0  0  0  0  0  0
  190.9030  172.4090  138.9580 C   0  0  2  0  0  3  0  0  0  0  0  0
  190.3830  169.9790  138.8620 C   0  0  0  0  0  2  0  0  0  0  0  0
  191.4480  171.0080  139.2320 C   0  0  2  0  0  3  0  0  0  0  0  0
  189.3120  171.5960  135.7280 N   0  0  0  0  0  2  0  0  0  0  0  0
  190.1030  170.0170  137.3630 C   0  0  0  0  0  2  0  0  0  0  0  0
  190.4120  172.5220  137.5870 N   0  0  0  0  0  2  0  0  0  0  0  0
  2  1  2  0  0  0  0
  3  2  2  0  0  0  0
  5  9  1  0  0  0  0
  5  6  1  0  0  0  0
  6  3  1  6  0  0  0
  6  4  1  0  0  0  0
  7 11  1  0  0  0  0
  7  9  2  0  0  0  0
  8  4  1  0  0  0  0
  9  8  1  0  0  0  0
 10 11  2  0  0  0  0
 11 12  1  0  0  0  0
 12 13  1  0  0  0  0
 13 14  1  0  0  0  0
 14 15  1  6  0  0  0
 14 16  1  0  0  0  0
 16 17  2  0  0  0  0
 16 18  1  1  0  0  0
 20 22  1  0  0  0  0
 20 21  1  0  0  0  0
 21 23  1  1  0  0  0
 22 19  1  6  0  0  0
 22  1  1  0  0  0  0
 22 21  1  0  0  0  0
 23 24  1  0  0  0  0
 25 29  1  0  0  0  0
 25 24  1  0  0  0  0
 26 35  1  0  0  0  0
 27 31  1  0  0  0  0
 27 26  1  0  0  0  0
 28 34  2  0  0  0  0
 31 32  1  0  0  0  0
 32 33  1  0  0  0  0
 34 26  1  0  0  0  0
 34 29  1  0  0  0  0
 35 33  1  0  0  0  0
 35 30  2  0  0  0  0
 36  3  1  0  0  0  0
 37 36  1  0  0  0  0
 38 44  1  0  0  0  0
 38 45  1  0  0  0  0
 40 39  1  6  0  0  0
 40 42  1  0  0  0  0
 41 42  1  0  0  0  0
 42 37  1  1  0  0  0
 43 38  2  0  0  0  0
 44 41  1  0  0  0  0
 45 40  1  0  0  0  0
M  END
>  <MODEL>
8

>  <REMARK>
 VINA RESULT:      -6.5      2.193      3.247
  Name = 
  14 active torsions:
  status: ('A' for Active; 'I' for Inactive)
    1  A    between atoms: S_3  and  C_14
    2  A    between atoms: C_6  and  C_23
    3  A    between atoms: C_6  and  C_33
    4  A    between atoms: N_8  and  N_15
    5  A    between atoms: N_8  and  C_25
    6  A    between atoms: C_10  and  C_42
    7  A    between atoms: C_14  and  C_45
    8  A    between atoms: N_15  and  C_43
    9  A    between atoms: C_17  and  C_37
   10  A    between atoms: C_17  and  C_45
   11  A    between atoms: C_18  and  N_21
   12  A    between atoms: C_18  and  C_23
   13  A    between atoms: C_24  and  C_43
   14  A    between atoms: N_27  and  C_37
                            x       y       z     vdW  Elec       q    Type
                         _______ _______ _______ _____ _____    ______ ____

>  <TORSDO>
F 14

$$$$
=
 OpenBabel11042415173D

 45 48  0  0  1  0  0  0  0  0999 V2000
  187.8600  176.6860  145.5340 C   0  0  0  0  0  3  0  0  0  0  0  0
  188.1550  177.1700  144.3580 C   0  0  0  0  0  0  0  0  0  0  0  0
  188.4450  177.6570  143.1800 C   0  0  0  0  0  0  0  0  0  0  0  0
  187.1770  177.8070  141.0150 C   0  0  0  0  0  2  0  0  0  0  0  0
  186.0770  178.4920  143.1080 C   0  0  0  0  0  2  0  0  0  0  0  0
  187.4170  178.4210  142.3920 C   0  0  1  0  0  3  0  0  0  0  0  0
  183.8090  178.4020  142.2570 N   0  0  0  0  0  0  0  0  0  0  0  0
  185.6990  177.9760  140.7140 C   0  0  0  0  0  2  0  0  0  0  0  0
  185.0860  178.2940  142.0300 C   0  0  0  0  0  0  0  0  0  0  0  0
  182.9330  177.7180  140.1470 N   0  0  0  0  0  2  0  0  0  0  0  0
  182.7370  178.2310  141.3160 C   0  0  0  0  0  0  0  0  0  0  0  0
  181.3440  178.5270  141.7510 C   0  0  0  0  0  2  0  0  0  0  0  0
  180.4070  178.4740  140.5510 C   0  0  0  0  0  2  0  0  0  0  0  0
  179.0190  177.9660  140.9310 C   0  0  1  0  0  3  0  0  0  0  0  0
  179.0450  177.3650  142.1910 O   0  0  0  0  0  1  0  0  0  0  0  0
  177.7970  179.2950  140.8970 S   0  0  1  0  0  0  0  0  0  0  0  0
  177.6910  179.7170  142.3560 O   0  0  0  0  0  0  0  0  0  0  0  0
  178.6830  180.6650  140.1390 C   0  0  0  0  0  1  0  0  0  0  0  0
  189.5210  177.4310  147.2320 O   0  0  0  0  0  1  0  0  0  0  0  0
  188.5680  175.2270  147.4570 C   0  0  0  0  0  2  0  0  0  0  0  0
  189.7350  175.0880  146.4850 C   0  0  2  0  0  3  0  0  0  0  0  0
  188.9220  176.3740  146.5450 C   0  0  1  0  0  0  0  0  0  0  0  0
  189.3220  174.1850  145.3300 C   0  0  0  0  0  2  0  0  0  0  0  0
  190.4330  173.2020  145.0070 C   0  0  0  0  0  2  0  0  0  0  0  0
  189.8740  171.9990  144.2670 C   0  0  0  0  0  2  0  0  0  0  0  0
  189.8470  172.5980  140.4690 N   0  0  0  0  0  0  0  0  0  0  0  0
  190.7610  172.4110  139.3370 C   0  0  0  0  0  2  0  0  0  0  0  0
  191.4020  171.6050  141.9060 O   0  0  0  0  0  0  0  0  0  0  0  0
  189.4610  172.3880  142.9270 N   0  0  0  0  0  2  0  0  0  0  0  0
  187.5770  172.8590  141.0460 O   0  0  0  0  0  0  0  0  0  0  0  0
  190.5520  173.4760  138.2660 C   0  0  0  0  0  2  0  0  0  0  0  0
  189.0960  173.4620  137.8280 C   0  0  0  0  0  2  0  0  0  0  0  0
  188.2020  173.8760  138.9900 C   0  0  0  0  0  2  0  0  0  0  0  0
  190.2810  172.1670  141.7740 C   0  0  0  0  0  0  0  0  0  0  0  0
  188.5050  173.0720  140.2200 C   0  0  0  0  0  0  0  0  0  0  0  0
  189.7380  177.4050  142.6250 N   0  0  0  0  0  2  0  0  0  0  0  0
  190.3850  176.1700  142.7810 N   0  0  0  0  0  2  0  0  0  0  0  0
  194.3730  176.1620  144.2780 C   0  0  0  0  0  0  0  0  0  0  0  0
  192.5740  174.9100  141.3050 N   0  0  0  0  0  1  0  0  0  0  0  0
  192.6230  175.1950  142.7290 C   0  0  2  0  0  3  0  0  0  0  0  0
  191.9710  176.7900  144.5220 C   0  0  0  0  0  2  0  0  0  0  0  0
  191.7920  176.4370  143.0490 C   0  0  2  0  0  3  0  0  0  0  0  0
  195.6070  176.2050  144.6520 N   0  0  0  0  0  2  0  0  0  0  0  0
  193.4160  177.1880  144.8040 C   0  0  0  0  0  2  0  0  0  0  0  0
  194.0140  175.3770  143.1370 N   0  0  0  0  0  2  0  0  0  0  0  0
  1 22  1  0  0  0  0
  2  1  2  0  0  0  0
  3  2  2  0  0  0  0
  4  6  1  0  0  0  0
  6  5  1  0  0  0  0
  6  3  1  1  0  0  0
  8  4  1  0  0  0  0
  8  9  1  0  0  0  0
  9  7  2  0  0  0  0
  9  5  1  0  0  0  0
 10 11  2  0  0  0  0
 11 12  1  0  0  0  0
 11  7  1  0  0  0  0
 13 14  1  0  0  0  0
 13 12  1  0  0  0  0
 14 15  1  1  0  0  0
 16 18  1  6  0  0  0
 16 14  1  0  0  0  0
 16 17  2  0  0  0  0
 21 23  1  6  0  0  0
 21 22  1  0  0  0  0
 21 20  1  0  0  0  0
 22 19  1  1  0  0  0
 22 20  1  0  0  0  0
 24 23  1  0  0  0  0
 25 24  1  0  0  0  0
 26 34  1  0  0  0  0
 27 26  1  0  0  0  0
 29 25  1  0  0  0  0
 31 27  1  0  0  0  0
 32 31  1  0  0  0  0
 32 33  1  0  0  0  0
 33 35  1  0  0  0  0
 34 28  2  0  0  0  0
 34 29  1  0  0  0  0
 35 26  1  0  0  0  0
 35 30  2  0  0  0  0
 36 37  1  0  0  0  0
 36  3  1  0  0  0  0
 38 43  2  0  0  0  0
 38 44  1  0  0  0  0
 40 39  1  6  0  0  0
 40 42  1  0  0  0  0
 40 45  1  0  0  0  0
 41 44  1  0  0  0  0
 42 37  1  1  0  0  0
 42 41  1  0  0  0  0
 45 38  1  0  0  0  0
M  END
>  <MODEL>
9

>  <REMARK>
 VINA RESULT:      -6.5      3.224      6.630
  Name = 
  14 active torsions:
  status: ('A' for Active; 'I' for Inactive)
    1  A    between atoms: S_3  and  C_14
    2  A    between atoms: C_6  and  C_23
    3  A    between atoms: C_6  and  C_33
    4  A    between atoms: N_8  and  N_15
    5  A    between atoms: N_8  and  C_25
    6  A    between atoms: C_10  and  C_42
    7  A    between atoms: C_14  and  C_45
    8  A    between atoms: N_15  and  C_43
    9  A    between atoms: C_17  and  C_37
   10  A    between atoms: C_17  and  C_45
   11  A    between atoms: C_18  and  N_21
   12  A    between atoms: C_18  and  C_23
   13  A    between atoms: C_24  and  C_43
   14  A    between atoms: N_27  and  C_37
                            x       y       z     vdW  Elec       q    Type
                         _______ _______ _______ _____ _____    ______ ____

>  <TORSDO>
F 14

$$$$
