=
 OpenBabel11042414383D

 60 62  0  0  1  0  0  0  0  0999 V2000
  188.5530  174.5930  140.9990 C   0  0  0  0  0  3  0  0  0  0  0  0
  189.8330  174.0480  141.0710 C   0  0  0  0  0  0  0  0  0  0  0  0
  189.2230  176.4170  142.4690 C   0  0  0  0  0  0  0  0  0  0  0  0
  190.8150  174.6950  141.8300 C   0  0  0  0  0  3  0  0  0  0  0  0
  190.5210  175.8650  142.5410 C   0  0  0  0  0  0  0  0  0  0  0  0
  188.2310  175.7700  141.6950 C   0  0  0  0  0  0  0  0  0  0  0  0
  186.8800  176.3500  141.5870 C   0  0  0  0  0  2  0  0  0  0  0  0
  186.5050  177.5530  140.5770 S   0  0  0  0  0  0  0  0  0  0  0  0
  183.1300  178.4440  142.1780 C   0  0  0  0  0  2  0  0  0  0  0  0
  184.4500  178.1990  142.2800 N   0  0  0  0  0  0  0  0  0  0  0  0
  184.8350  177.9350  141.0200 C   0  0  0  0  0  0  0  0  0  0  0  0
  183.8360  178.0010  140.1250 N   0  0  0  0  0  0  0  0  0  0  0  0
  182.7530  178.3230  140.8570 C   0  0  0  0  0  3  0  0  0  0  0  0
  192.9550  176.3640  142.7160 C   0  0  0  0  0  1  0  0  0  0  0  0
  191.5940  176.5100  143.3800 C   0  0  2  0  0  3  0  0  0  0  0  0
  191.6200  175.9440  144.6570 O   0  0  0  0  0  0  0  0  0  0  0  0
  191.9720  174.6080  144.4580 C   0  0  0  0  0  2  0  0  0  0  0  0
  192.8260  174.1130  145.6170 C   0  0  0  0  0  2  0  0  0  0  0  0
  194.2540  173.8090  145.1840 C   0  0  0  0  0  2  0  0  0  0  0  0
  195.1480  175.0320  145.3310 C   0  0  1  0  0  3  0  0  0  0  0  0
  195.7440  175.0270  146.5800 F   0  0  0  0  0  0  0  0  0  0  0  0
  197.8590  174.3440  144.6940 O   0  0  0  0  0  1  0  0  0  0  0  0
  195.9130  174.0610  142.7560 O   0  0  0  0  0  0  0  0  0  0  0  0
  196.4370  175.0070  144.0560 P   0  0  0  0  0  0  0  0  0  0  0  0
  196.7070  176.4130  143.5780 O   0  0  0  0  0  1  0  0  0  0  0  0
  188.9100  177.7040  143.1840 C   0  0  0  0  0  2  0  0  0  0  0  0
  188.7560  176.8840  145.6560 C   0  0  0  0  0  2  0  0  0  0  0  0
  187.7160  176.2630  146.6240 C   0  0  0  0  0  2  0  0  0  0  0  0
  185.9840  178.5010  145.3010 C   0  0  0  0  0  3  0  0  0  0  0  0
  185.9750  178.1730  146.7440 C   0  0  0  0  0  0  0  0  0  0  0  0
  186.7770  177.2450  147.3200 C   0  0  0  0  0  3  0  0  0  0  0  0
  185.0590  178.9460  147.6250 C   0  0  0  0  0  1  0  0  0  0  0  0
  187.0040  178.0570  144.6450 C   0  0  0  0  0  0  0  0  0  0  0  0
  188.1150  177.4420  144.4170 C   0  0  0  0  0  0  0  0  0  0  0  0
  190.1610  172.8520  140.2340 C   0  0  0  0  0  2  0  0  0  0  0  0
  188.9860  172.3750  139.3820 C   0  0  0  0  0  2  0  0  0  0  0  0
  189.6490  172.8110  137.0090 C   0  0  0  0  0  0  0  0  0  0  0  0
  189.4410  171.8840  138.0820 N   0  0  0  0  0  0  0  0  0  0  0  0
  189.4340  174.1710  137.2070 O   0  0  0  0  0  1  0  0  0  0  0  0
  190.0180  172.4030  135.8740 O   0  0  0  0  0  0  0  0  0  0  0  0
  189.6860  170.4560  137.8880 C   0  0  0  0  0  2  0  0  0  0  0  0
  191.1000  170.0400  138.2920 C   0  0  2  0  0  3  0  0  0  0  0  0
  191.1680  169.6890  139.6450 O   0  0  0  0  0  1  0  0  0  0  0  0
  192.7310  171.6480  139.0630 O   0  0  0  0  0  1  0  0  0  0  0  0
  192.1510  171.0910  137.9220 C   0  0  1  0  0  3  0  0  0  0  0  0
  193.2290  170.5160  137.0080 C   0  0  2  0  0  3  0  0  0  0  0  0
  192.7070  169.4540  136.2660 O   0  0  0  0  0  1  0  0  0  0  0  0
  194.3320  170.0840  137.7540 O   0  0  0  0  0  0  0  0  0  0  0  0
  195.1970  171.9270  135.7460 C   0  0  0  0  0  1  0  0  0  0  0  0
  195.6620  170.9980  137.2290 P   0  0  2  0  0  0  0  0  0  0  0  0
  196.7860  170.0560  136.8750 O   0  0  0  0  0  0  0  0  0  0  0  0
  196.2210  172.1740  138.5220 C   0  0  1  0  0  3  0  0  0  0  0  0
  196.7110  171.5560  139.8050 C   0  0  0  0  0  0  0  0  0  0  0  0
  197.9400  171.3810  140.0070 O   0  0  0  0  0  0  0  0  0  0  0  0
  195.7960  171.2160  140.7940 O   0  0  0  0  0  1  0  0  0  0  0  0
  196.9670  173.2760  138.0400 O   0  0  0  0  0  0  0  0  0  0  0  0
  196.1430  175.6480  136.9410 O   0  0  0  0  0  0  0  0  0  0  0  0
  196.0330  174.7020  138.1150 P   0  0  2  0  0  4  0  0  0  0  0  0
  196.5880  175.5530  139.5000 O   0  0  0  0  0  1  0  0  0  0  0  0
  195.3450  175.2840  139.5720 O   0  0  0  0  0  0  0  0  0  0  0  0
  1  2  2  0  0  0  0
  1  6  1  0  0  0  0
  2  4  1  0  0  0  0
  3  5  1  0  0  0  0
  3 26  1  0  0  0  0
  4  5  2  0  0  0  0
  5 15  1  0  0  0  0
  6  3  2  0  0  0  0
  7  6  1  0  0  0  0
  8 11  1  0  0  0  0
  8  7  1  0  0  0  0
  9 10  1  0  0  0  0
 11 10  2  0  0  0  0
 12 13  2  0  0  0  0
 12 11  1  0  0  0  0
 13  9  1  0  0  0  0
 15 14  1  6  0  0  0
 15 16  1  0  0  0  0
 17 16  1  0  0  0  0
 17 18  1  0  0  0  0
 19 20  1  0  0  0  0
 19 18  1  0  0  0  0
 20 21  1  1  0  0  0
 23 24  2  0  0  0  0
 24 22  1  0  0  0  0
 24 20  1  0  0  0  0
 25 24  1  0  0  0  0
 26 34  1  0  0  0  0
 27 28  1  0  0  0  0
 28 31  1  0  0  0  0
 29 30  1  0  0  0  0
 30 31  2  0  0  0  0
 30 32  1  0  0  0  0
 33 29  2  0  0  0  0
 34 33  2  0  0  0  0
 34 27  1  0  0  0  0
 35  2  1  0  0  0  0
 36 35  1  0  0  0  0
 37 39  1  0  0  0  0
 37 38  1  0  0  0  0
 38 36  1  0  0  0  0
 40 37  2  0  0  0  0
 41 38  1  0  0  0  0
 41 42  1  0  0  0  0
 42 43  1  1  0  0  0
 45 42  1  0  0  0  0
 45 44  1  1  0  0  0
 46 47  1  1  0  0  0
 46 48  1  0  0  0  0
 46 45  1  0  0  0  0
 50 49  1  6  0  0  0
 50 48  1  0  0  0  0
 50 52  1  0  0  0  0
 51 50  2  0  0  0  0
 52 56  1  6  0  0  0
 52 53  1  0  0  0  0
 53 54  2  0  0  0  0
 53 55  1  0  0  0  0
 56 58  1  0  0  0  0
 58 57  2  1  0  0  0
 58 60  1  0  0  0  0
 59 60  1  0  0  0  0
M  END
>  <MODEL>
1

>  <REMARK>
 VINA RESULT:      -6.2      0.000      0.000
  Name = 
  24 active torsions:
  status: ('A' for Active; 'I' for Inactive)
    1  A    between atoms: C_4  and  C_10
    2  A    between atoms: C_4  and  C_29
    3  A    between atoms: C_6  and  C_56
    4  A    between atoms: O_8  and  C_33
    5  A    between atoms: O_8  and  P_51
    6  A    between atoms: C_10  and  C_48
    7  A    between atoms: C_12  and  N_35
    8  A    between atoms: C_12  and  C_60
    9  A    between atoms: C_13  and  S_22
   10  A    between atoms: C_14  and  C_45
   11  A    between atoms: C_19  and  C_30
   12  A    between atoms: C_19  and  C_53
   13  A    between atoms: C_20  and  C_60
   14  A    between atoms: P_24  and  O_25
   15  A    between atoms: O_25  and  C_56
   16  A    between atoms: C_26  and  C_32
   17  A    between atoms: C_26  and  O_47
   18  A    between atoms: C_27  and  C_40
   19  A    between atoms: C_29  and  P_38
   20  A    between atoms: C_30  and  C_33
   21  A    between atoms: N_35  and  C_53
   22  A    between atoms: C_40  and  C_55
   23  A    between atoms: O_47  and  C_48
   24  A    between atoms: P_51  and  C_56
                            x       y       z     vdW  Elec       q    Type
                         _______ _______ _______ _____ _____    ______ ____

>  <TORSDO>
F 24

$$$$
=
 OpenBabel11042414383D

 60 62  0  0  1  0  0  0  0  0999 V2000
  191.0410  173.7940  140.8410 C   0  0  0  0  0  3  0  0  0  0  0  0
  189.7080  173.4630  140.6060 C   0  0  0  0  0  0  0  0  0  0  0  0
  190.3520  175.6700  142.2350 C   0  0  0  0  0  0  0  0  0  0  0  0
  188.6960  174.2260  141.1980 C   0  0  0  0  0  3  0  0  0  0  0  0
  189.0020  175.3340  141.9980 C   0  0  0  0  0  0  0  0  0  0  0  0
  191.3790  174.8950  141.6460 C   0  0  0  0  0  0  0  0  0  0  0  0
  192.7940  175.2160  141.9090 C   0  0  0  0  0  2  0  0  0  0  0  0
  193.6720  174.4980  143.0570 S   0  0  0  0  0  0  0  0  0  0  0  0
  197.1180  176.0720  142.4280 C   0  0  0  0  0  3  0  0  0  0  0  0
  196.1620  175.1750  142.1190 N   0  0  0  0  0  0  0  0  0  0  0  0
  195.1910  175.4050  143.0190 C   0  0  0  0  0  0  0  0  0  0  0  0
  195.4750  176.3960  143.8790 N   0  0  0  0  0  2  0  0  0  0  0  0
  196.6980  176.8210  143.5070 C   0  0  0  0  0  3  0  0  0  0  0  0
  186.6900  175.2730  142.9230 C   0  0  0  0  0  1  0  0  0  0  0  0
  187.8820  176.1560  142.5840 C   0  0  2  0  0  3  0  0  0  0  0  0
  187.4970  177.1600  141.6930 O   0  0  0  0  0  0  0  0  0  0  0  0
  186.2240  177.5520  142.1090 C   0  0  0  0  0  2  0  0  0  0  0  0
  186.3080  178.8460  142.9060 C   0  0  0  0  0  2  0  0  0  0  0  0
  185.5530  178.7540  144.2250 C   0  0  0  0  0  2  0  0  0  0  0  0
  186.3140  177.9130  145.2400 C   0  0  1  0  0  3  0  0  0  0  0  0
  187.6330  178.3260  145.2940 F   0  0  0  0  0  0  0  0  0  0  0  0
  186.0420  179.5760  147.5610 O   0  0  0  0  0  1  0  0  0  0  0  0
  183.8800  178.0760  146.7260 O   0  0  0  0  0  0  0  0  0  0  0  0
  185.5630  178.1020  146.8800 P   0  0  0  0  0  0  0  0  0  0  0  0
  186.0030  176.9670  147.7740 O   0  0  0  0  0  1  0  0  0  0  0  0
  190.6950  176.8250  143.1380 C   0  0  0  0  0  2  0  0  0  0  0  0
  190.7150  175.0300  145.0320 C   0  0  0  0  0  2  0  0  0  0  0  0
  190.0420  174.7630  146.4030 C   0  0  0  0  0  2  0  0  0  0  0  0
  190.7530  177.7890  146.7080 C   0  0  0  0  0  3  0  0  0  0  0  0
  190.9270  176.7730  147.7700 C   0  0  0  0  0  0  0  0  0  0  0  0
  190.6780  175.4510  147.6090 C   0  0  0  0  0  3  0  0  0  0  0  0
  191.4550  177.2260  149.0840 C   0  0  0  0  0  1  0  0  0  0  0  0
  190.6180  177.3160  145.5140 C   0  0  0  0  0  0  0  0  0  0  0  0
  190.5140  176.4450  144.5680 C   0  0  0  0  0  0  0  0  0  0  0  0
  189.3950  172.2240  139.8280 C   0  0  0  0  0  2  0  0  0  0  0  0
  188.2900  172.4280  138.7930 C   0  0  0  0  0  2  0  0  0  0  0  0
  188.4130  174.3380  137.1810 C   0  0  0  0  0  0  0  0  0  0  0  0
  188.8200  173.0190  137.5650 N   0  0  0  0  0  0  0  0  0  0  0  0
  187.5310  175.0590  137.9790 O   0  0  0  0  0  1  0  0  0  0  0  0
  188.8410  174.8540  136.1130 O   0  0  0  0  0  0  0  0  0  0  0  0
  189.7640  172.2640  136.7430 C   0  0  0  0  0  2  0  0  0  0  0  0
  191.2200  172.5140  137.1360 C   0  0  2  0  0  3  0  0  0  0  0  0
  191.4300  173.8440  137.5190 O   0  0  0  0  0  1  0  0  0  0  0  0
  191.8160  172.5300  134.7950 O   0  0  0  0  0  1  0  0  0  0  0  0
  192.2070  172.0690  136.0530 C   0  0  1  0  0  3  0  0  0  0  0  0
  193.6310  172.5230  136.3640 C   0  0  2  0  0  3  0  0  0  0  0  0
  194.1810  173.1590  135.2500 O   0  0  0  0  0  1  0  0  0  0  0  0
  194.4260  171.4340  136.7380 O   0  0  0  0  0  0  0  0  0  0  0  0
  194.6940  173.5210  138.6750 C   0  0  0  0  0  1  0  0  0  0  0  0
  195.0420  171.7880  138.2800 P   0  0  2  0  0  0  0  0  0  0  0  0
  196.5370  171.5890  138.2610 O   0  0  0  0  0  0  0  0  0  0  0  0
  194.2890  170.7170  139.5660 C   0  0  1  0  0  3  0  0  0  0  0  0
  195.0930  170.5390  140.8260 C   0  0  0  0  0  0  0  0  0  0  0  0
  195.9310  169.6070  140.9290 O   0  0  0  0  0  0  0  0  0  0  0  0
  194.9380  171.4440  141.8700 O   0  0  0  0  0  1  0  0  0  0  0  0
  192.8950  170.8870  139.7370 O   0  0  0  0  0  0  0  0  0  0  0  0
  192.8520  168.1670  140.0750 O   0  0  0  0  0  0  0  0  0  0  0  0
  192.0930  169.3870  139.6040 P   0  0  2  0  0  4  0  0  0  0  0  0
  191.7810  169.1690  137.9300 O   0  0  0  0  0  1  0  0  0  0  0  0
  190.7100  169.1590  138.6190 O   0  0  0  0  0  0  0  0  0  0  0  0
  1  6  1  0  0  0  0
  2  1  2  0  0  0  0
  2  4  1  0  0  0  0
  3 26  1  0  0  0  0
  4  5  2  0  0  0  0
  5  3  1  0  0  0  0
  5 15  1  0  0  0  0
  6  7  1  0  0  0  0
  6  3  2  0  0  0  0
  7  8  1  0  0  0  0
  9 13  2  0  0  0  0
 10  9  1  0  0  0  0
 10 11  2  0  0  0  0
 11  8  1  0  0  0  0
 11 12  1  0  0  0  0
 13 12  1  0  0  0  0
 15 14  1  6  0  0  0
 16 17  1  0  0  0  0
 16 15  1  0  0  0  0
 17 18  1  0  0  0  0
 18 19  1  0  0  0  0
 19 20  1  0  0  0  0
 20 21  1  1  0  0  0
 20 24  1  0  0  0  0
 23 24  2  0  0  0  0
 24 22  1  0  0  0  0
 24 25  1  0  0  0  0
 26 34  1  0  0  0  0
 27 28  1  0  0  0  0
 28 31  1  0  0  0  0
 29 30  1  0  0  0  0
 30 32  1  0  0  0  0
 31 30  2  0  0  0  0
 33 29  2  0  0  0  0
 34 27  1  0  0  0  0
 34 33  2  0  0  0  0
 35  2  1  0  0  0  0
 36 35  1  0  0  0  0
 37 38  1  0  0  0  0
 37 39  1  0  0  0  0
 38 36  1  0  0  0  0
 40 37  2  0  0  0  0
 41 42  1  0  0  0  0
 41 38  1  0  0  0  0
 42 43  1  6  0  0  0
 45 44  1  6  0  0  0
 45 46  1  0  0  0  0
 45 42  1  0  0  0  0
 46 47  1  6  0  0  0
 46 48  1  0  0  0  0
 48 50  1  0  0  0  0
 50 49  1  1  0  0  0
 50 52  1  0  0  0  0
 51 50  2  0  0  0  0
 52 56  1  1  0  0  0
 52 53  1  0  0  0  0
 53 54  2  0  0  0  0
 53 55  1  0  0  0  0
 58 56  1  0  0  0  0
 58 57  2  6  0  0  0
 59 60  1  0  0  0  0
 60 58  1  0  0  0  0
M  END
>  <MODEL>
2

>  <REMARK>
 VINA RESULT:      -6.1      3.757      6.601
  Name = 
  24 active torsions:
  status: ('A' for Active; 'I' for Inactive)
    1  A    between atoms: C_4  and  C_10
    2  A    between atoms: C_4  and  C_29
    3  A    between atoms: C_6  and  C_56
    4  A    between atoms: O_8  and  C_33
    5  A    between atoms: O_8  and  P_51
    6  A    between atoms: C_10  and  C_48
    7  A    between atoms: C_12  and  N_35
    8  A    between atoms: C_12  and  C_60
    9  A    between atoms: C_13  and  S_22
   10  A    between atoms: C_14  and  C_45
   11  A    between atoms: C_19  and  C_30
   12  A    between atoms: C_19  and  C_53
   13  A    between atoms: C_20  and  C_60
   14  A    between atoms: P_24  and  O_25
   15  A    between atoms: O_25  and  C_56
   16  A    between atoms: C_26  and  C_32
   17  A    between atoms: C_26  and  O_47
   18  A    between atoms: C_27  and  C_40
   19  A    between atoms: C_29  and  P_38
   20  A    between atoms: C_30  and  C_33
   21  A    between atoms: N_35  and  C_53
   22  A    between atoms: C_40  and  C_55
   23  A    between atoms: O_47  and  C_48
   24  A    between atoms: P_51  and  C_56
                            x       y       z     vdW  Elec       q    Type
                         _______ _______ _______ _____ _____    ______ ____

>  <TORSDO>
F 24

$$$$
=
 OpenBabel11042414383D

 60 62  0  0  1  0  0  0  0  0999 V2000
  188.5770  173.6830  140.1860 C   0  0  0  0  0  3  0  0  0  0  0  0
  189.7220  172.9000  140.0570 C   0  0  0  0  0  0  0  0  0  0  0  0
  189.7050  175.1060  141.8100 C   0  0  0  0  0  0  0  0  0  0  0  0
  190.8660  173.2280  140.7940 C   0  0  0  0  0  3  0  0  0  0  0  0
  190.8670  174.3140  141.6790 C   0  0  0  0  0  0  0  0  0  0  0  0
  188.5500  174.7820  141.0600 C   0  0  0  0  0  0  0  0  0  0  0  0
  187.3400  175.6180  141.1650 C   0  0  0  0  0  2  0  0  0  0  0  0
  187.1850  177.0550  140.4450 S   0  0  0  0  0  0  0  0  0  0  0  0
  184.1150  178.2430  142.4230 C   0  0  0  0  0  2  0  0  0  0  0  0
  185.3690  177.7540  142.3820 N   0  0  0  0  0  0  0  0  0  0  0  0
  185.6380  177.6460  141.0710 C   0  0  0  0  0  0  0  0  0  0  0  0
  184.6290  178.0400  140.2770 N   0  0  0  0  0  0  0  0  0  0  0  0
  183.6610  178.4190  141.1320 C   0  0  0  0  0  3  0  0  0  0  0  0
  193.3110  174.7790  141.5730 C   0  0  0  0  0  1  0  0  0  0  0  0
  192.1050  174.6100  142.4850 C   0  0  2  0  0  3  0  0  0  0  0  0
  192.3420  173.5890  143.4080 O   0  0  0  0  0  0  0  0  0  0  0  0
  193.6620  173.1940  143.1880 C   0  0  0  0  0  2  0  0  0  0  0  0
  194.3560  172.9220  144.5140 C   0  0  0  0  0  2  0  0  0  0  0  0
  195.2840  174.0600  144.9170 C   0  0  0  0  0  2  0  0  0  0  0  0
  194.5590  175.0880  145.7720 C   0  0  1  0  0  3  0  0  0  0  0  0
  195.1960  175.2120  146.9940 F   0  0  0  0  0  0  0  0  0  0  0  0
  195.6390  176.6570  143.6260 O   0  0  0  0  0  0  0  0  0  0  0  0
  193.0060  177.0310  144.3680 O   0  0  0  0  0  1  0  0  0  0  0  0
  194.5640  176.6970  144.9330 P   0  0  0  0  0  0  0  0  0  0  0  0
  194.9880  177.7750  145.9020 O   0  0  0  0  0  1  0  0  0  0  0  0
  189.7110  176.3080  142.7170 C   0  0  0  0  0  2  0  0  0  0  0  0
  190.0260  175.5520  145.1940 C   0  0  0  0  0  2  0  0  0  0  0  0
  189.2390  174.8070  146.3030 C   0  0  0  0  0  2  0  0  0  0  0  0
  187.0110  176.7050  145.2120 C   0  0  0  0  0  3  0  0  0  0  0  0
  187.2500  176.4250  146.6450 C   0  0  0  0  0  0  0  0  0  0  0  0
  188.2590  175.6530  147.1130 C   0  0  0  0  0  3  0  0  0  0  0  0
  186.3510  177.0740  147.6380 C   0  0  0  0  0  1  0  0  0  0  0  0
  187.9890  176.4050  144.4250 C   0  0  0  0  0  0  0  0  0  0  0  0
  189.1420  175.9630  144.0500 C   0  0  0  0  0  0  0  0  0  0  0  0
  189.7410  171.8020  139.0410 C   0  0  0  0  0  2  0  0  0  0  0  0
  189.2100  172.2380  137.6760 C   0  0  0  0  0  2  0  0  0  0  0  0
  191.0900  173.2800  136.3950 C   0  0  0  0  0  0  0  0  0  0  0  0
  190.2490  172.1480  136.6520 N   0  0  0  0  0  0  0  0  0  0  0  0
  190.9290  174.4520  137.1260 O   0  0  0  0  0  1  0  0  0  0  0  0
  191.9750  173.2280  135.4980 O   0  0  0  0  0  0  0  0  0  0  0  0
  190.4280  170.9050  135.9030 C   0  0  0  0  0  2  0  0  0  0  0  0
  191.3450  169.9130  136.6170 C   0  0  2  0  0  3  0  0  0  0  0  0
  190.6270  169.0650  137.4670 O   0  0  0  0  0  1  0  0  0  0  0  0
  192.6370  170.1220  138.6490 O   0  0  0  0  0  1  0  0  0  0  0  0
  192.5040  170.6020  137.3440 C   0  0  1  0  0  3  0  0  0  0  0  0
  193.8200  170.4460  136.5870 C   0  0  2  0  0  3  0  0  0  0  0  0
  193.7880  169.2860  135.8100 O   0  0  0  0  0  1  0  0  0  0  0  0
  194.9000  170.4000  137.4760 O   0  0  0  0  0  0  0  0  0  0  0  0
  195.3730  172.4330  135.5210 C   0  0  0  0  0  1  0  0  0  0  0  0
  195.8920  171.7260  137.1050 P   0  0  2  0  0  0  0  0  0  0  0  0
  197.3150  171.2440  136.9750 O   0  0  0  0  0  0  0  0  0  0  0  0
  195.7920  173.0220  138.4010 C   0  0  1  0  0  3  0  0  0  0  0  0
  195.3100  174.3730  137.9440 C   0  0  0  0  0  0  0  0  0  0  0  0
  194.0980  174.6940  138.0540 O   0  0  0  0  0  1  0  0  0  0  0  0
  196.2220  175.2900  137.4380 O   0  0  0  0  0  0  0  0  0  0  0  0
  195.2970  172.5750  139.6500 O   0  0  0  0  0  0  0  0  0  0  0  0
  196.3900  171.2450  141.7820 O   0  0  0  0  0  0  0  0  0  0  0  0
  196.5830  172.3250  140.7430 P   0  0  2  0  0  4  0  0  0  0  0  0
  196.7750  173.8070  141.5880 O   0  0  0  0  0  1  0  0  0  0  0  0
  197.8390  173.4680  140.9750 O   0  0  0  0  0  0  0  0  0  0  0  0
  1  6  1  0  0  0  0
  2  1  2  0  0  0  0
  2  4  1  0  0  0  0
  3 26  1  0  0  0  0
  4  5  2  0  0  0  0
  5  3  1  0  0  0  0
  5 15  1  0  0  0  0
  6  7  1  0  0  0  0
  6  3  2  0  0  0  0
  8 11  1  0  0  0  0
  8  7  1  0  0  0  0
 10  9  1  0  0  0  0
 11 10  2  0  0  0  0
 12 11  1  0  0  0  0
 12 13  2  0  0  0  0
 13  9  1  0  0  0  0
 15 14  1  6  0  0  0
 15 16  1  0  0  0  0
 17 16  1  0  0  0  0
 17 18  1  0  0  0  0
 18 19  1  0  0  0  0
 19 20  1  0  0  0  0
 20 21  1  1  0  0  0
 22 24  2  0  0  0  0
 23 24  1  0  0  0  0
 24 20  1  0  0  0  0
 24 25  1  0  0  0  0
 26 34  1  0  0  0  0
 27 28  1  0  0  0  0
 28 31  1  0  0  0  0
 29 30  1  0  0  0  0
 30 31  2  0  0  0  0
 30 32  1  0  0  0  0
 33 29  2  0  0  0  0
 34 33  2  0  0  0  0
 34 27  1  0  0  0  0
 35  2  1  0  0  0  0
 36 35  1  0  0  0  0
 37 38  1  0  0  0  0
 37 39  1  0  0  0  0
 38 36  1  0  0  0  0
 40 37  2  0  0  0  0
 41 42  1  0  0  0  0
 41 38  1  0  0  0  0
 42 45  1  0  0  0  0
 42 43  1  1  0  0  0
 45 44  1  1  0  0  0
 46 47  1  1  0  0  0
 46 45  1  0  0  0  0
 46 48  1  0  0  0  0
 50 49  1  6  0  0  0
 50 48  1  0  0  0  0
 50 52  1  0  0  0  0
 51 50  2  0  0  0  0
 52 53  1  6  0  0  0
 52 56  1  0  0  0  0
 53 54  1  0  0  0  0
 55 53  2  0  0  0  0
 56 58  1  0  0  0  0
 58 60  1  0  0  0  0
 58 57  2  1  0  0  0
 60 59  1  0  0  0  0
M  END
>  <MODEL>
3

>  <REMARK>
 VINA RESULT:      -6.0      1.538      2.337
  Name = 
  24 active torsions:
  status: ('A' for Active; 'I' for Inactive)
    1  A    between atoms: C_4  and  C_10
    2  A    between atoms: C_4  and  C_29
    3  A    between atoms: C_6  and  C_56
    4  A    between atoms: O_8  and  C_33
    5  A    between atoms: O_8  and  P_51
    6  A    between atoms: C_10  and  C_48
    7  A    between atoms: C_12  and  N_35
    8  A    between atoms: C_12  and  C_60
    9  A    between atoms: C_13  and  S_22
   10  A    between atoms: C_14  and  C_45
   11  A    between atoms: C_19  and  C_30
   12  A    between atoms: C_19  and  C_53
   13  A    between atoms: C_20  and  C_60
   14  A    between atoms: P_24  and  O_25
   15  A    between atoms: O_25  and  C_56
   16  A    between atoms: C_26  and  C_32
   17  A    between atoms: C_26  and  O_47
   18  A    between atoms: C_27  and  C_40
   19  A    between atoms: C_29  and  P_38
   20  A    between atoms: C_30  and  C_33
   21  A    between atoms: N_35  and  C_53
   22  A    between atoms: C_40  and  C_55
   23  A    between atoms: O_47  and  C_48
   24  A    between atoms: P_51  and  C_56
                            x       y       z     vdW  Elec       q    Type
                         _______ _______ _______ _____ _____    ______ ____

>  <TORSDO>
F 24

$$$$
=
 OpenBabel11042414383D

 60 62  0  0  1  0  0  0  0  0999 V2000
  193.1450  176.0670  141.8930 C   0  0  0  0  0  3  0  0  0  0  0  0
  194.5150  175.8350  142.0010 C   0  0  0  0  0  0  0  0  0  0  0  0
  192.7530  174.8470  143.9650 C   0  0  0  0  0  0  0  0  0  0  0  0
  195.0070  175.1220  143.0990 C   0  0  0  0  0  3  0  0  0  0  0  0
  194.1410  174.6130  144.0750 C   0  0  0  0  0  0  0  0  0  0  0  0
  192.2530  175.5770  142.8610 C   0  0  0  0  0  0  0  0  0  0  0  0
  190.8090  175.8540  142.7480 C   0  0  0  0  0  2  0  0  0  0  0  0
  190.1840  177.3420  142.7760 S   0  0  0  0  0  0  0  0  0  0  0  0
  186.5790  176.0160  142.7730 C   0  0  0  0  0  2  0  0  0  0  0  0
  187.9080  175.8060  142.7230 N   0  0  0  0  0  0  0  0  0  0  0  0
  188.4400  177.0370  142.7900 C   0  0  0  0  0  0  0  0  0  0  0  0
  187.5250  178.0160  142.8820 N   0  0  0  0  0  0  0  0  0  0  0  0
  186.3440  177.3720  142.8710 C   0  0  0  0  0  3  0  0  0  0  0  0
  195.5930  174.6860  146.0980 C   0  0  0  0  0  1  0  0  0  0  0  0
  194.7060  173.8140  145.2220 C   0  0  2  0  0  3  0  0  0  0  0  0
  195.4320  172.7210  144.7430 O   0  0  0  0  0  0  0  0  0  0  0  0
  195.4050  171.7830  145.7750 C   0  0  0  0  0  2  0  0  0  0  0  0
  195.5400  170.3760  145.2090 C   0  0  0  0  0  2  0  0  0  0  0  0
  194.2100  169.8340  144.7040 C   0  0  0  0  0  2  0  0  0  0  0  0
  194.3430  169.2590  143.3020 C   0  0  1  0  0  3  0  0  0  0  0  0
  193.4510  168.2150  143.1380 F   0  0  0  0  0  0  0  0  0  0  0  0
  193.3020  169.8440  140.6940 O   0  0  0  0  0  0  0  0  0  0  0  0
  192.8980  171.6570  142.7360 O   0  0  0  0  0  1  0  0  0  0  0  0
  193.9860  170.5450  142.0740 P   0  0  0  0  0  0  0  0  0  0  0  0
  195.2640  171.2570  141.6970 O   0  0  0  0  0  1  0  0  0  0  0  0
  191.8180  174.3540  145.0370 C   0  0  0  0  0  2  0  0  0  0  0  0
  189.8500  175.6640  146.1400 C   0  0  0  0  0  2  0  0  0  0  0  0
  189.5070  177.1080  146.5910 C   0  0  0  0  0  2  0  0  0  0  0  0
  192.4150  176.8460  147.7030 C   0  0  0  0  0  3  0  0  0  0  0  0
  191.2870  177.4650  148.4340 C   0  0  0  0  0  0  0  0  0  0  0  0
  190.0150  177.5170  147.9720 C   0  0  0  0  0  3  0  0  0  0  0  0
  191.5600  178.0260  149.7850 C   0  0  0  0  0  1  0  0  0  0  0  0
  192.0760  176.0930  146.7110 C   0  0  0  0  0  0  0  0  0  0  0  0
  191.3160  175.4900  145.8600 C   0  0  0  0  0  0  0  0  0  0  0  0
  195.4380  176.4630  141.0040 C   0  0  0  0  0  2  0  0  0  0  0  0
  196.8840  175.9890  141.1430 C   0  0  0  0  0  2  0  0  0  0  0  0
  197.6470  173.6630  140.6260 C   0  0  0  0  0  0  0  0  0  0  0  0
  197.1920  174.9430  140.1700 N   0  0  0  0  0  0  0  0  0  0  0  0
  197.7790  173.4120  141.9870 O   0  0  0  0  0  1  0  0  0  0  0  0
  197.9410  172.7570  139.8000 O   0  0  0  0  0  0  0  0  0  0  0  0
  197.0300  175.2070  138.7410 C   0  0  0  0  0  2  0  0  0  0  0  0
  196.1450  174.1730  138.0470 C   0  0  2  0  0  3  0  0  0  0  0  0
  196.7010  173.7480  136.8340 O   0  0  0  0  0  1  0  0  0  0  0  0
  194.4480  175.0280  136.5530 O   0  0  0  0  0  1  0  0  0  0  0  0
  194.7010  174.6540  137.8750 C   0  0  1  0  0  3  0  0  0  0  0  0
  193.6950  173.5990  138.3280 C   0  0  2  0  0  3  0  0  0  0  0  0
  193.7180  173.4870  139.7200 O   0  0  0  0  0  1  0  0  0  0  0  0
  193.9790  172.3610  137.7410 O   0  0  0  0  0  0  0  0  0  0  0  0
  192.1240  170.2340  137.2790 C   0  0  0  0  0  1  0  0  0  0  0  0
  192.6070  171.9230  136.8420 P   0  0  2  0  0  0  0  0  0  0  0  0
  192.9580  171.9600  135.3750 O   0  0  0  0  0  0  0  0  0  0  0  0
  191.2000  173.0540  137.1720 C   0  0  1  0  0  3  0  0  0  0  0  0
  190.8350  173.9930  136.0530 C   0  0  0  0  0  0  0  0  0  0  0  0
  190.1460  173.5960  135.0780 O   0  0  0  0  0  0  0  0  0  0  0  0
  191.2270  175.3250  136.1230 O   0  0  0  0  0  1  0  0  0  0  0  0
  190.1160  172.4650  137.8660 O   0  0  0  0  0  0  0  0  0  0  0  0
  190.6500  172.6310  140.5500 O   0  0  0  0  0  0  0  0  0  0  0  0
  189.8990  173.2230  139.3790 P   0  0  2  0  0  4  0  0  0  0  0  0
  188.2250  173.0870  139.7360 O   0  0  0  0  0  1  0  0  0  0  0  0
  188.6060  174.3010  139.6990 O   0  0  0  0  0  0  0  0  0  0  0  0
  1  2  2  0  0  0  0
  1  6  1  0  0  0  0
  2  4  1  0  0  0  0
  3  5  1  0  0  0  0
  3 26  1  0  0  0  0
  4  5  2  0  0  0  0
  5 15  1  0  0  0  0
  6  3  2  0  0  0  0
  7  8  1  0  0  0  0
  7  6  1  0  0  0  0
  8 11  1  0  0  0  0
  9 13  1  0  0  0  0
 10  9  1  0  0  0  0
 10 11  2  0  0  0  0
 11 12  1  0  0  0  0
 13 12  2  0  0  0  0
 15 14  1  6  0  0  0
 16 15  1  0  0  0  0
 16 17  1  0  0  0  0
 18 17  1  0  0  0  0
 19 18  1  0  0  0  0
 20 21  1  1  0  0  0
 20 19  1  0  0  0  0
 22 24  2  0  0  0  0
 24 23  1  0  0  0  0
 24 20  1  0  0  0  0
 25 24  1  0  0  0  0
 26 34  1  0  0  0  0
 27 28  1  0  0  0  0
 28 31  1  0  0  0  0
 29 30  1  0  0  0  0
 30 32  1  0  0  0  0
 31 30  2  0  0  0  0
 33 29  2  0  0  0  0
 34 27  1  0  0  0  0
 34 33  2  0  0  0  0
 35 36  1  0  0  0  0
 35  2  1  0  0  0  0
 37 39  1  0  0  0  0
 38 37  1  0  0  0  0
 38 36  1  0  0  0  0
 40 37  2  0  0  0  0
 41 38  1  0  0  0  0
 42 43  1  6  0  0  0
 42 41  1  0  0  0  0
 45 44  1  6  0  0  0
 45 42  1  0  0  0  0
 45 46  1  0  0  0  0
 46 47  1  1  0  0  0
 48 46  1  0  0  0  0
 50 52  1  0  0  0  0
 50 49  1  1  0  0  0
 50 48  1  0  0  0  0
 51 50  2  0  0  0  0
 52 53  1  6  0  0  0
 52 56  1  0  0  0  0
 53 55  1  0  0  0  0
 54 53  2  0  0  0  0
 56 58  1  0  0  0  0
 58 60  1  0  0  0  0
 58 57  2  1  0  0  0
 60 59  1  0  0  0  0
M  END
>  <MODEL>
4

>  <REMARK>
 VINA RESULT:      -6.0      3.090      5.880
  Name = 
  24 active torsions:
  status: ('A' for Active; 'I' for Inactive)
    1  A    between atoms: C_4  and  C_10
    2  A    between atoms: C_4  and  C_29
    3  A    between atoms: C_6  and  C_56
    4  A    between atoms: O_8  and  C_33
    5  A    between atoms: O_8  and  P_51
    6  A    between atoms: C_10  and  C_48
    7  A    between atoms: C_12  and  N_35
    8  A    between atoms: C_12  and  C_60
    9  A    between atoms: C_13  and  S_22
   10  A    between atoms: C_14  and  C_45
   11  A    between atoms: C_19  and  C_30
   12  A    between atoms: C_19  and  C_53
   13  A    between atoms: C_20  and  C_60
   14  A    between atoms: P_24  and  O_25
   15  A    between atoms: O_25  and  C_56
   16  A    between atoms: C_26  and  C_32
   17  A    between atoms: C_26  and  O_47
   18  A    between atoms: C_27  and  C_40
   19  A    between atoms: C_29  and  P_38
   20  A    between atoms: C_30  and  C_33
   21  A    between atoms: N_35  and  C_53
   22  A    between atoms: C_40  and  C_55
   23  A    between atoms: O_47  and  C_48
   24  A    between atoms: P_51  and  C_56
                            x       y       z     vdW  Elec       q    Type
                         _______ _______ _______ _____ _____    ______ ____

>  <TORSDO>
F 24

$$$$
=
 OpenBabel11042414383D

 60 62  0  0  1  0  0  0  0  0999 V2000
  190.4810  173.4870  141.8920 C   0  0  0  0  0  3  0  0  0  0  0  0
  189.5550  174.5260  141.9670 C   0  0  0  0  0  0  0  0  0  0  0  0
  191.0810  173.8230  144.2290 C   0  0  0  0  0  0  0  0  0  0  0  0
  189.3810  175.2050  143.1780 C   0  0  0  0  0  3  0  0  0  0  0  0
  190.1430  174.8750  144.3060 C   0  0  0  0  0  0  0  0  0  0  0  0
  191.2540  173.1280  143.0080 C   0  0  0  0  0  0  0  0  0  0  0  0
  192.2090  172.0090  142.9220 C   0  0  0  0  0  2  0  0  0  0  0  0
  191.8050  170.5310  142.4130 S   0  0  0  0  0  0  0  0  0  0  0  0
  194.8330  168.1680  142.4570 C   0  0  0  0  0  2  0  0  0  0  0  0
  193.6810  168.5920  141.9020 N   0  0  0  0  0  0  0  0  0  0  0  0
  193.2820  169.5970  142.6980 C   0  0  0  0  0  0  0  0  0  0  0  0
  194.1140  169.8370  143.7240 N   0  0  0  0  0  0  0  0  0  0  0  0
  195.0980  168.9310  143.5750 C   0  0  0  0  0  3  0  0  0  0  0  0
  189.3100  174.7900  146.6520 C   0  0  0  0  0  1  0  0  0  0  0  0
  189.9540  175.6570  145.5810 C   0  0  2  0  0  3  0  0  0  0  0  0
  189.1710  176.7900  145.3460 O   0  0  0  0  0  0  0  0  0  0  0  0
  188.1370  176.7210  146.2800 C   0  0  0  0  0  2  0  0  0  0  0  0
  187.1100  177.8110  146.0080 C   0  0  0  0  0  2  0  0  0  0  0  0
  185.7310  177.2350  145.7170 C   0  0  0  0  0  2  0  0  0  0  0  0
  184.9300  178.1530  144.8050 C   0  0  1  0  0  3  0  0  0  0  0  0
  185.2390  179.4730  145.0830 F   0  0  0  0  0  0  0  0  0  0  0  0
  183.9400  177.9520  142.1210 O   0  0  0  0  0  0  0  0  0  0  0  0
  186.4990  178.9010  142.5380 O   0  0  0  0  0  1  0  0  0  0  0  0
  185.3320  177.8000  143.0720 P   0  0  0  0  0  0  0  0  0  0  0  0
  185.8740  176.3950  142.9510 O   0  0  0  0  0  1  0  0  0  0  0  0
  191.8660  173.4230  145.4490 C   0  0  0  0  0  2  0  0  0  0  0  0
  194.4490  173.0570  145.3870 C   0  0  0  0  0  2  0  0  0  0  0  0
  195.7500  173.8030  145.7800 C   0  0  0  0  0  2  0  0  0  0  0  0
  194.1710  176.1170  144.3990 C   0  0  0  0  0  3  0  0  0  0  0  0
  195.6160  175.8550  144.2120 C   0  0  0  0  0  0  0  0  0  0  0  0
  196.2790  174.8110  144.7630 C   0  0  0  0  0  3  0  0  0  0  0  0
  196.3770  176.7720  143.3220 C   0  0  0  0  0  1  0  0  0  0  0  0
  193.4960  175.1330  144.8920 C   0  0  0  0  0  0  0  0  0  0  0  0
  193.2530  173.9660  145.3840 C   0  0  0  0  0  0  0  0  0  0  0  0
  188.6820  174.8070  140.7850 C   0  0  0  0  0  2  0  0  0  0  0  0
  188.4510  173.5810  139.9030 C   0  0  0  0  0  2  0  0  0  0  0  0
  188.4820  174.5280  137.5870 C   0  0  0  0  0  0  0  0  0  0  0  0
  189.1050  173.7340  138.6050 N   0  0  0  0  0  0  0  0  0  0  0  0
  187.2710  175.1630  137.8390 O   0  0  0  0  0  1  0  0  0  0  0  0
  189.0200  174.6510  136.4530 O   0  0  0  0  0  0  0  0  0  0  0  0
  190.3900  173.0820  138.3550 C   0  0  0  0  0  2  0  0  0  0  0  0
  190.2400  171.6090  137.9800 C   0  0  2  0  0  3  0  0  0  0  0  0
  190.4560  170.7710  139.0810 O   0  0  0  0  0  1  0  0  0  0  0  0
  191.1360  172.2260  135.8230 O   0  0  0  0  0  1  0  0  0  0  0  0
  191.1110  171.2140  136.7840 C   0  0  1  0  0  3  0  0  0  0  0  0
  192.5320  170.8550  137.2120 C   0  0  2  0  0  3  0  0  0  0  0  0
  192.5220  169.6670  137.9460 O   0  0  0  0  0  1  0  0  0  0  0  0
  193.0940  171.8860  137.9740 O   0  0  0  0  0  0  0  0  0  0  0  0
  194.6770  171.8770  135.5920 C   0  0  0  0  0  1  0  0  0  0  0  0
  194.6690  172.1210  137.3870 P   0  0  2  0  0  0  0  0  0  0  0  0
  195.5780  171.0950  138.0170 O   0  0  0  0  0  0  0  0  0  0  0  0
  195.2810  173.8090  137.7650 C   0  0  1  0  0  3  0  0  0  0  0  0
  196.2700  174.3850  136.7870 C   0  0  0  0  0  0  0  0  0  0  0  0
  195.9080  175.2280  135.9260 O   0  0  0  0  0  0  0  0  0  0  0  0
  197.6060  174.0120  136.8660 O   0  0  0  0  0  1  0  0  0  0  0  0
  194.2960  174.7030  138.2500 O   0  0  0  0  0  0  0  0  0  0  0  0
  196.1920  175.3930  140.1050 O   0  0  0  0  0  0  0  0  0  0  0  0
  194.7160  175.2620  139.8070 P   0  0  2  0  0  4  0  0  0  0  0  0
  194.0810  174.1070  140.9070 O   0  0  0  0  0  1  0  0  0  0  0  0
  193.6130  175.2720  141.1170 O   0  0  0  0  0  0  0  0  0  0  0  0
  1  2  2  0  0  0  0
  1  6  1  0  0  0  0
  2  4  1  0  0  0  0
  3  5  1  0  0  0  0
  3 26  1  0  0  0  0
  4  5  2  0  0  0  0
  5 15  1  0  0  0  0
  6  3  2  0  0  0  0
  7  6  1  0  0  0  0
  8 11  1  0  0  0  0
  8  7  1  0  0  0  0
  9 13  1  0  0  0  0
 10  9  1  0  0  0  0
 10 11  2  0  0  0  0
 11 12  1  0  0  0  0
 13 12  2  0  0  0  0
 15 14  1  1  0  0  0
 16 15  1  0  0  0  0
 16 17  1  0  0  0  0
 18 17  1  0  0  0  0
 19 18  1  0  0  0  0
 20 21  1  1  0  0  0
 20 19  1  0  0  0  0
 22 24  2  0  0  0  0
 23 24  1  0  0  0  0
 24 20  1  0  0  0  0
 25 24  1  0  0  0  0
 27 28  1  0  0  0  0
 29 33  2  0  0  0  0
 30 29  1  0  0  0  0
 30 31  2  0  0  0  0
 31 28  1  0  0  0  0
 32 30  1  0  0  0  0
 33 34  2  0  0  0  0
 34 27  1  0  0  0  0
 34 26  1  0  0  0  0
 35  2  1  0  0  0  0
 36 35  1  0  0  0  0
 37 39  1  0  0  0  0
 37 38  1  0  0  0  0
 38 36  1  0  0  0  0
 40 37  2  0  0  0  0
 41 38  1  0  0  0  0
 42 41  1  0  0  0  0
 42 43  1  1  0  0  0
 45 44  1  6  0  0  0
 45 46  1  0  0  0  0
 45 42  1  0  0  0  0
 46 47  1  1  0  0  0
 46 48  1  0  0  0  0
 50 49  1  6  0  0  0
 50 52  1  0  0  0  0
 50 48  1  0  0  0  0
 50 51  2  0  0  0  0
 52 53  1  6  0  0  0
 52 56  1  0  0  0  0
 53 55  1  0  0  0  0
 54 53  2  0  0  0  0
 56 58  1  0  0  0  0
 58 57  2  1  0  0  0
 58 60  1  0  0  0  0
 59 60  1  0  0  0  0
M  END
>  <MODEL>
5

>  <REMARK>
 VINA RESULT:      -5.9      3.645      7.147
  Name = 
  24 active torsions:
  status: ('A' for Active; 'I' for Inactive)
    1  A    between atoms: C_4  and  C_10
    2  A    between atoms: C_4  and  C_29
    3  A    between atoms: C_6  and  C_56
    4  A    between atoms: O_8  and  C_33
    5  A    between atoms: O_8  and  P_51
    6  A    between atoms: C_10  and  C_48
    7  A    between atoms: C_12  and  N_35
    8  A    between atoms: C_12  and  C_60
    9  A    between atoms: C_13  and  S_22
   10  A    between atoms: C_14  and  C_45
   11  A    between atoms: C_19  and  C_30
   12  A    between atoms: C_19  and  C_53
   13  A    between atoms: C_20  and  C_60
   14  A    between atoms: P_24  and  O_25
   15  A    between atoms: O_25  and  C_56
   16  A    between atoms: C_26  and  C_32
   17  A    between atoms: C_26  and  O_47
   18  A    between atoms: C_27  and  C_40
   19  A    between atoms: C_29  and  P_38
   20  A    between atoms: C_30  and  C_33
   21  A    between atoms: N_35  and  C_53
   22  A    between atoms: C_40  and  C_55
   23  A    between atoms: O_47  and  C_48
   24  A    between atoms: P_51  and  C_56
                            x       y       z     vdW  Elec       q    Type
                         _______ _______ _______ _____ _____    ______ ____

>  <TORSDO>
F 24

$$$$
=
 OpenBabel11042414383D

 60 62  0  0  1  0  0  0  0  0999 V2000
  193.1060  172.1080  140.8420 C   0  0  0  0  0  3  0  0  0  0  0  0
  192.2270  171.7980  141.8780 C   0  0  0  0  0  0  0  0  0  0  0  0
  191.2940  173.1470  139.5870 C   0  0  0  0  0  0  0  0  0  0  0  0
  190.8830  172.1760  141.7770 C   0  0  0  0  0  3  0  0  0  0  0  0
  190.4040  172.8350  140.6370 C   0  0  0  0  0  0  0  0  0  0  0  0
  192.6560  172.7750  139.6910 C   0  0  0  0  0  0  0  0  0  0  0  0
  193.6030  173.1200  138.6150 C   0  0  0  0  0  2  0  0  0  0  0  0
  194.6050  174.3840  138.6840 S   0  0  0  0  0  0  0  0  0  0  0  0
  196.4370  175.0260  135.3690 C   0  0  0  0  0  2  0  0  0  0  0  0
  196.0620  175.4230  136.6010 N   0  0  0  0  0  0  0  0  0  0  0  0
  195.3390  174.3940  137.0730 C   0  0  0  0  0  0  0  0  0  0  0  0
  195.2340  173.3680  136.2130 N   0  0  0  0  0  0  0  0  0  0  0  0
  195.9290  173.7670  135.1310 C   0  0  0  0  0  3  0  0  0  0  0  0
  188.2470  172.3370  139.4950 C   0  0  0  0  0  1  0  0  0  0  0  0
  188.9410  173.1890  140.5470 C   0  0  2  0  0  3  0  0  0  0  0  0
  188.7860  174.5430  140.2460 O   0  0  0  0  0  0  0  0  0  0  0  0
  188.4360  175.1490  141.4540 C   0  0  0  0  0  2  0  0  0  0  0  0
  187.9590  176.5740  141.2080 C   0  0  0  0  0  2  0  0  0  0  0  0
  186.5000  176.7620  141.6000 C   0  0  0  0  0  2  0  0  0  0  0  0
  186.1400  178.2370  141.6990 C   0  0  1  0  0  3  0  0  0  0  0  0
  185.5250  178.6480  140.5310 F   0  0  0  0  0  0  0  0  0  0  0  0
  183.4080  178.4630  142.5420 O   0  0  0  0  0  0  0  0  0  0  0  0
  185.2380  177.2740  144.2330 O   0  0  0  0  0  1  0  0  0  0  0  0
  185.0090  178.5010  143.0920 P   0  0  0  0  0  0  0  0  0  0  0  0
  185.2910  179.8400  143.7310 O   0  0  0  0  0  1  0  0  0  0  0  0
  190.8030  173.9040  138.3820 C   0  0  0  0  0  2  0  0  0  0  0  0
  190.3780  173.4780  135.8430 C   0  0  0  0  0  2  0  0  0  0  0  0
  189.6630  172.4490  134.9280 C   0  0  0  0  0  2  0  0  0  0  0  0
  191.1130  170.5230  136.9150 C   0  0  0  0  0  3  0  0  0  0  0  0
  191.0290  170.3160  135.4520 C   0  0  0  0  0  0  0  0  0  0  0  0
  190.4550  171.1890  134.5900 C   0  0  0  0  0  3  0  0  0  0  0  0
  191.6580  169.0920  134.8880 C   0  0  0  0  0  1  0  0  0  0  0  0
  190.8600  171.7250  137.3130 C   0  0  0  0  0  0  0  0  0  0  0  0
  190.5370  172.9720  137.2490 C   0  0  0  0  0  0  0  0  0  0  0  0
  192.7680  171.1800  143.1290 C   0  0  0  0  0  2  0  0  0  0  0  0
  193.3720  172.2010  144.0920 C   0  0  0  0  0  2  0  0  0  0  0  0
  195.3280  171.1280  145.2240 C   0  0  0  0  0  0  0  0  0  0  0  0
  194.8160  172.0130  144.2210 N   0  0  0  0  0  0  0  0  0  0  0  0
  194.4560  170.4380  146.0600 O   0  0  0  0  0  1  0  0  0  0  0  0
  196.5720  170.9730  145.3670 O   0  0  0  0  0  0  0  0  0  0  0  0
  195.7250  172.7250  143.3240 C   0  0  0  0  0  2  0  0  0  0  0  0
  196.1540  174.0840  143.8760 C   0  0  2  0  0  3  0  0  0  0  0  0
  197.3480  173.9940  144.6000 O   0  0  0  0  0  1  0  0  0  0  0  0
  195.5400  175.2670  145.8920 O   0  0  0  0  0  1  0  0  0  0  0  0
  195.0470  174.7660  144.6860 C   0  0  1  0  0  3  0  0  0  0  0  0
  194.3660  175.8770  143.8900 C   0  0  2  0  0  3  0  0  0  0  0  0
  195.3000  176.5180  143.0730 O   0  0  0  0  0  1  0  0  0  0  0  0
  193.7650  176.8030  144.7500 O   0  0  0  0  0  0  0  0  0  0  0  0
  191.7850  175.5740  143.0920 C   0  0  0  0  0  1  0  0  0  0  0  0
  192.1100  176.8170  144.3690 P   0  0  2  0  0  0  0  0  0  0  0  0
  191.7520  178.1760  143.8210 O   0  0  0  0  0  0  0  0  0  0  0  0
  191.0790  176.4490  145.8410 C   0  0  1  0  0  3  0  0  0  0  0  0
  191.8300  176.1080  147.1020 C   0  0  0  0  0  0  0  0  0  0  0  0
  191.8460  176.9030  148.0760 O   0  0  0  0  0  1  0  0  0  0  0  0
  192.4750  174.8820  147.2030 O   0  0  0  0  0  0  0  0  0  0  0  0
  189.9500  177.2870  145.9990 O   0  0  0  0  0  0  0  0  0  0  0  0
  187.9560  176.0170  144.6130 O   0  0  0  0  0  0  0  0  0  0  0  0
  188.5160  176.3630  145.9730 P   0  0  2  0  0  4  0  0  0  0  0  0
  187.3320  177.3110  146.7790 O   0  0  0  0  0  1  0  0  0  0  0  0
  187.5040  176.1830  147.3440 O   0  0  0  0  0  0  0  0  0  0  0  0
  1  2  1  0  0  0  0
  2 35  1  0  0  0  0
  3  6  1  0  0  0  0
  3  5  2  0  0  0  0
  4  2  2  0  0  0  0
  5  4  1  0  0  0  0
  6  1  2  0  0  0  0
  7  8  1  0  0  0  0
  7  6  1  0  0  0  0
  9 10  1  0  0  0  0
 10 11  2  0  0  0  0
 11  8  1  0  0  0  0
 12 11  1  0  0  0  0
 13  9  1  0  0  0  0
 13 12  2  0  0  0  0
 15 14  1  6  0  0  0
 15  5  1  0  0  0  0
 16 15  1  0  0  0  0
 16 17  1  0  0  0  0
 18 17  1  0  0  0  0
 18 19  1  0  0  0  0
 19 20  1  0  0  0  0
 20 21  1  6  0  0  0
 20 24  1  0  0  0  0
 22 24  2  0  0  0  0
 24 25  1  0  0  0  0
 24 23  1  0  0  0  0
 26  3  1  0  0  0  0
 27 34  1  0  0  0  0
 28 27  1  0  0  0  0
 29 33  2  0  0  0  0
 30 29  1  0  0  0  0
 31 28  1  0  0  0  0
 31 30  2  0  0  0  0
 32 30  1  0  0  0  0
 34 33  2  0  0  0  0
 34 26  1  0  0  0  0
 35 36  1  0  0  0  0
 36 38  1  0  0  0  0
 37 40  2  0  0  0  0
 37 39  1  0  0  0  0
 38 37  1  0  0  0  0
 41 42  1  0  0  0  0
 41 38  1  0  0  0  0
 42 43  1  1  0  0  0
 42 45  1  0  0  0  0
 45 44  1  1  0  0  0
 46 47  1  1  0  0  0
 46 45  1  0  0  0  0
 46 48  1  0  0  0  0
 50 49  1  6  0  0  0
 50 48  1  0  0  0  0
 50 52  1  0  0  0  0
 51 50  2  0  0  0  0
 52 56  1  1  0  0  0
 52 53  1  0  0  0  0
 53 55  2  0  0  0  0
 53 54  1  0  0  0  0
 58 57  2  6  0  0  0
 58 56  1  0  0  0  0
 58 60  1  0  0  0  0
 59 60  1  0  0  0  0
M  END
>  <MODEL>
6

>  <REMARK>
 VINA RESULT:      -5.7      4.906     10.172
  Name = 
  24 active torsions:
  status: ('A' for Active; 'I' for Inactive)
    1  A    between atoms: C_4  and  C_10
    2  A    between atoms: C_4  and  C_29
    3  A    between atoms: C_6  and  C_56
    4  A    between atoms: O_8  and  C_33
    5  A    between atoms: O_8  and  P_51
    6  A    between atoms: C_10  and  C_48
    7  A    between atoms: C_12  and  N_35
    8  A    between atoms: C_12  and  C_60
    9  A    between atoms: C_13  and  S_22
   10  A    between atoms: C_14  and  C_45
   11  A    between atoms: C_19  and  C_30
   12  A    between atoms: C_19  and  C_53
   13  A    between atoms: C_20  and  C_60
   14  A    between atoms: P_24  and  O_25
   15  A    between atoms: O_25  and  C_56
   16  A    between atoms: C_26  and  C_32
   17  A    between atoms: C_26  and  O_47
   18  A    between atoms: C_27  and  C_40
   19  A    between atoms: C_29  and  P_38
   20  A    between atoms: C_30  and  C_33
   21  A    between atoms: N_35  and  C_53
   22  A    between atoms: C_40  and  C_55
   23  A    between atoms: O_47  and  C_48
   24  A    between atoms: P_51  and  C_56
                            x       y       z     vdW  Elec       q    Type
                         _______ _______ _______ _____ _____    ______ ____

>  <TORSDO>
F 24

$$$$
=
 OpenBabel11042414383D

 60 62  0  0  1  0  0  0  0  0999 V2000
  191.1960  173.6290  140.7510 C   0  0  0  0  0  3  0  0  0  0  0  0
  189.8350  173.4330  140.5230 C   0  0  0  0  0  0  0  0  0  0  0  0
  190.7030  175.5310  142.1930 C   0  0  0  0  0  0  0  0  0  0  0  0
  188.9060  174.2770  141.1410 C   0  0  0  0  0  3  0  0  0  0  0  0
  189.3240  175.3320  141.9620 C   0  0  0  0  0  0  0  0  0  0  0  0
  191.6450  174.6730  141.5770 C   0  0  0  0  0  0  0  0  0  0  0  0
  193.0860  174.8510  141.8320 C   0  0  0  0  0  2  0  0  0  0  0  0
  193.8300  174.3040  143.1560 S   0  0  0  0  0  0  0  0  0  0  0  0
  197.0670  176.3450  142.8300 C   0  0  0  0  0  2  0  0  0  0  0  0
  195.7270  176.2790  142.9470 N   0  0  0  0  0  0  0  0  0  0  0  0
  195.4650  174.9620  142.9910 C   0  0  0  0  0  0  0  0  0  0  0  0
  196.5610  174.1900  142.9120 N   0  0  0  0  0  0  0  0  0  0  0  0
  197.5790  175.0650  142.8080 C   0  0  0  0  0  3  0  0  0  0  0  0
  186.9110  175.9470  142.0170 C   0  0  0  0  0  1  0  0  0  0  0  0
  188.2940  176.2450  142.5770 C   0  0  2  0  0  3  0  0  0  0  0  0
  188.6270  177.5810  142.3470 O   0  0  0  0  0  0  0  0  0  0  0  0
  187.4120  178.2300  142.1290 C   0  0  0  0  0  2  0  0  0  0  0  0
  187.0160  179.0310  143.3620 C   0  0  0  0  0  2  0  0  0  0  0  0
  185.8810  178.3700  144.1320 C   0  0  0  0  0  2  0  0  0  0  0  0
  186.4090  177.5420  145.2940 C   0  0  1  0  0  3  0  0  0  0  0  0
  187.7750  177.7250  145.4150 F   0  0  0  0  0  0  0  0  0  0  0  0
  183.9350  178.2250  146.5760 O   0  0  0  0  0  0  0  0  0  0  0  0
  185.8690  176.8870  148.0220 O   0  0  0  0  0  1  0  0  0  0  0  0
  185.6010  178.0590  146.8330 P   0  0  0  0  0  0  0  0  0  0  0  0
  186.1740  179.3790  147.2910 O   0  0  0  0  0  1  0  0  0  0  0  0
  191.1630  176.6260  143.1170 C   0  0  0  0  0  2  0  0  0  0  0  0
  191.6680  177.0140  145.6470 C   0  0  0  0  0  2  0  0  0  0  0  0
  191.9190  176.1870  146.9350 C   0  0  0  0  0  2  0  0  0  0  0  0
  189.4740  174.6490  145.7470 C   0  0  0  0  0  3  0  0  0  0  0  0
  189.6430  174.9830  147.1790 C   0  0  0  0  0  0  0  0  0  0  0  0
  190.6740  175.7060  147.6770 C   0  0  0  0  0  3  0  0  0  0  0  0
  188.5870  174.5330  148.1250 C   0  0  0  0  0  1  0  0  0  0  0  0
  190.2140  175.3270  144.9350 C   0  0  0  0  0  0  0  0  0  0  0  0
  191.1000  176.1760  144.5370 C   0  0  0  0  0  0  0  0  0  0  0  0
  189.3970  172.2480  139.7220 C   0  0  0  0  0  2  0  0  0  0  0  0
  188.2600  172.5660  138.7520 C   0  0  0  0  0  2  0  0  0  0  0  0
  188.2570  174.5150  137.1830 C   0  0  0  0  0  0  0  0  0  0  0  0
  188.7620  173.2250  137.5480 N   0  0  0  0  0  0  0  0  0  0  0  0
  187.3050  175.1450  137.9790 O   0  0  0  0  0  1  0  0  0  0  0  0
  188.6610  175.0880  136.1340 O   0  0  0  0  0  0  0  0  0  0  0  0
  189.7790  172.5670  136.7280 C   0  0  0  0  0  2  0  0  0  0  0  0
  191.1940  172.7740  137.2660 C   0  0  2  0  0  3  0  0  0  0  0  0
  191.5720  174.1210  137.2180 O   0  0  0  0  0  1  0  0  0  0  0  0
  191.6390  171.1370  135.5450 O   0  0  0  0  0  1  0  0  0  0  0  0
  192.2230  171.8690  136.5810 C   0  0  1  0  0  3  0  0  0  0  0  0
  193.4180  172.6630  136.0610 C   0  0  2  0  0  3  0  0  0  0  0  0
  193.6100  172.3990  134.7030 O   0  0  0  0  0  1  0  0  0  0  0  0
  194.5750  172.3430  136.7810 O   0  0  0  0  0  0  0  0  0  0  0  0
  194.6530  175.1720  136.3680 C   0  0  0  0  0  1  0  0  0  0  0  0
  195.6260  173.6660  136.6230 P   0  0  2  0  0  0  0  0  0  0  0  0
  196.5010  173.4470  135.4140 O   0  0  0  0  0  0  0  0  0  0  0  0
  196.6720  173.8740  138.1160 C   0  0  1  0  0  3  0  0  0  0  0  0
  197.4990  175.1310  138.1710 C   0  0  0  0  0  0  0  0  0  0  0  0
  197.9310  175.6630  137.1160 O   0  0  0  0  0  0  0  0  0  0  0  0
  197.7480  175.7330  139.3980 O   0  0  0  0  0  1  0  0  0  0  0  0
  196.0590  173.4810  139.3300 O   0  0  0  0  0  0  0  0  0  0  0  0
  197.5240  171.2130  138.8610 O   0  0  0  0  0  0  0  0  0  0  0  0
  196.6850  171.9830  139.8540 P   0  0  2  0  0  4  0  0  0  0  0  0
  195.3200  171.0080  140.2220 O   0  0  0  0  0  1  0  0  0  0  0  0
  196.0830  171.1580  141.2300 O   0  0  0  0  0  0  0  0  0  0  0  0
  1  6  1  0  0  0  0
  2  1  2  0  0  0  0
  2  4  1  0  0  0  0
  3 26  1  0  0  0  0
  4  5  2  0  0  0  0
  5  3  1  0  0  0  0
  5 15  1  0  0  0  0
  6  7  1  0  0  0  0
  6  3  2  0  0  0  0
  7  8  1  0  0  0  0
  9 10  1  0  0  0  0
 10 11  2  0  0  0  0
 11  8  1  0  0  0  0
 12 11  1  0  0  0  0
 13  9  1  0  0  0  0
 13 12  2  0  0  0  0
 15 14  1  6  0  0  0
 16 15  1  0  0  0  0
 17 16  1  0  0  0  0
 17 18  1  0  0  0  0
 18 19  1  0  0  0  0
 19 20  1  0  0  0  0
 20 21  1  1  0  0  0
 20 24  1  0  0  0  0
 22 24  2  0  0  0  0
 24 25  1  0  0  0  0
 24 23  1  0  0  0  0
 26 34  1  0  0  0  0
 27 28  1  0  0  0  0
 28 31  1  0  0  0  0
 29 30  1  0  0  0  0
 30 31  2  0  0  0  0
 30 32  1  0  0  0  0
 33 29  2  0  0  0  0
 34 33  2  0  0  0  0
 34 27  1  0  0  0  0
 35  2  1  0  0  0  0
 36 35  1  0  0  0  0
 37 38  1  0  0  0  0
 37 39  1  0  0  0  0
 38 36  1  0  0  0  0
 40 37  2  0  0  0  0
 41 42  1  0  0  0  0
 41 38  1  0  0  0  0
 42 43  1  6  0  0  0
 45 44  1  6  0  0  0
 45 42  1  0  0  0  0
 46 47  1  6  0  0  0
 46 45  1  0  0  0  0
 46 48  1  0  0  0  0
 50 49  1  6  0  0  0
 50 48  1  0  0  0  0
 50 52  1  0  0  0  0
 51 50  2  0  0  0  0
 52 53  1  1  0  0  0
 52 56  1  0  0  0  0
 53 55  1  0  0  0  0
 54 53  2  0  0  0  0
 56 58  1  0  0  0  0
 58 57  2  6  0  0  0
 58 60  1  0  0  0  0
 59 60  1  0  0  0  0
M  END
>  <MODEL>
7

>  <REMARK>
 VINA RESULT:      -5.6      3.690      6.458
  Name = 
  24 active torsions:
  status: ('A' for Active; 'I' for Inactive)
    1  A    between atoms: C_4  and  C_10
    2  A    between atoms: C_4  and  C_29
    3  A    between atoms: C_6  and  C_56
    4  A    between atoms: O_8  and  C_33
    5  A    between atoms: O_8  and  P_51
    6  A    between atoms: C_10  and  C_48
    7  A    between atoms: C_12  and  N_35
    8  A    between atoms: C_12  and  C_60
    9  A    between atoms: C_13  and  S_22
   10  A    between atoms: C_14  and  C_45
   11  A    between atoms: C_19  and  C_30
   12  A    between atoms: C_19  and  C_53
   13  A    between atoms: C_20  and  C_60
   14  A    between atoms: P_24  and  O_25
   15  A    between atoms: O_25  and  C_56
   16  A    between atoms: C_26  and  C_32
   17  A    between atoms: C_26  and  O_47
   18  A    between atoms: C_27  and  C_40
   19  A    between atoms: C_29  and  P_38
   20  A    between atoms: C_30  and  C_33
   21  A    between atoms: N_35  and  C_53
   22  A    between atoms: C_40  and  C_55
   23  A    between atoms: O_47  and  C_48
   24  A    between atoms: P_51  and  C_56
                            x       y       z     vdW  Elec       q    Type
                         _______ _______ _______ _____ _____    ______ ____

>  <TORSDO>
F 24

$$$$
=
 OpenBabel11042414383D

 60 62  0  0  1  0  0  0  0  0999 V2000
  190.2920  174.0060  141.2900 C   0  0  0  0  0  3  0  0  0  0  0  0
  189.1950  173.7880  140.4590 C   0  0  0  0  0  0  0  0  0  0  0  0
  189.2890  176.0720  142.1060 C   0  0  0  0  0  0  0  0  0  0  0  0
  188.1370  174.7040  140.4610 C   0  0  0  0  0  3  0  0  0  0  0  0
  188.1770  175.8500  141.2640 C   0  0  0  0  0  0  0  0  0  0  0  0
  190.3570  175.1430  142.1140 C   0  0  0  0  0  0  0  0  0  0  0  0
  191.5100  175.3460  143.0090 C   0  0  0  0  0  2  0  0  0  0  0  0
  192.7380  176.3370  142.6670 S   0  0  0  0  0  0  0  0  0  0  0  0
  195.6770  175.9230  145.1050 C   0  0  0  0  0  3  0  0  0  0  0  0
  195.1900  176.2840  143.9030 N   0  0  0  0  0  0  0  0  0  0  0  0
  193.8740  176.0280  143.9890 C   0  0  0  0  0  0  0  0  0  0  0  0
  193.4980  175.5280  145.1770 N   0  0  0  0  0  2  0  0  0  0  0  0
  194.6400  175.4590  145.8870 C   0  0  0  0  0  3  0  0  0  0  0  0
  186.8130  177.3150  139.7820 C   0  0  0  0  0  1  0  0  0  0  0  0
  187.0370  176.8340  141.2080 C   0  0  2  0  0  3  0  0  0  0  0  0
  187.2900  177.9210  142.0470 O   0  0  0  0  0  0  0  0  0  0  0  0
  186.0790  178.6100  142.1290 C   0  0  0  0  0  2  0  0  0  0  0  0
  185.0320  177.7510  142.8230 C   0  0  0  0  0  2  0  0  0  0  0  0
  185.5050  177.2640  144.1860 C   0  0  0  0  0  2  0  0  0  0  0  0
  185.8440  178.4300  145.1030 C   0  0  1  0  0  3  0  0  0  0  0  0
  184.9770  179.4810  144.8630 F   0  0  0  0  0  0  0  0  0  0  0  0
  187.1540  178.1780  147.6420 O   0  0  0  0  0  1  0  0  0  0  0  0
  184.4700  178.8220  147.5770 O   0  0  0  0  0  1  0  0  0  0  0  0
  185.6890  177.9150  146.8350 P   0  0  0  0  0  0  0  0  0  0  0  0
  185.3340  176.4490  146.9000 O   0  0  0  0  0  0  0  0  0  0  0  0
  189.3190  177.2710  143.0160 C   0  0  0  0  0  2  0  0  0  0  0  0
  188.8420  175.4880  144.8600 C   0  0  0  0  0  2  0  0  0  0  0  0
  188.5060  175.4250  146.3730 C   0  0  0  0  0  2  0  0  0  0  0  0
  190.7950  177.5500  146.3950 C   0  0  0  0  0  3  0  0  0  0  0  0
  190.6530  176.4560  147.3820 C   0  0  0  0  0  0  0  0  0  0  0  0
  189.6950  175.5000  147.3280 C   0  0  0  0  0  3  0  0  0  0  0  0
  191.6560  176.3760  148.4780 C   0  0  0  0  0  1  0  0  0  0  0  0
  190.1280  177.3910  145.3010 C   0  0  0  0  0  0  0  0  0  0  0  0
  189.3310  176.8470  144.4450 C   0  0  0  0  0  0  0  0  0  0  0  0
  189.1200  172.5150  139.6760 C   0  0  0  0  0  2  0  0  0  0  0  0
  188.4780  172.6910  138.3010 C   0  0  0  0  0  2  0  0  0  0  0  0
  189.3300  174.3780  136.6620 C   0  0  0  0  0  0  0  0  0  0  0  0
  189.4650  173.1060  137.3070 N   0  0  0  0  0  0  0  0  0  0  0  0
  188.2740  175.2210  136.9920 O   0  0  0  0  0  1  0  0  0  0  0  0
  190.1590  174.7420  135.7830 O   0  0  0  0  0  0  0  0  0  0  0  0
  190.5850  172.2240  136.9810 C   0  0  0  0  0  2  0  0  0  0  0  0
  191.7590  172.3800  137.9470 C   0  0  2  0  0  3  0  0  0  0  0  0
  192.3250  173.6580  137.8680 O   0  0  0  0  0  1  0  0  0  0  0  0
  192.5910  170.5460  136.6120 O   0  0  0  0  0  1  0  0  0  0  0  0
  192.8100  171.2790  137.7790 C   0  0  1  0  0  3  0  0  0  0  0  0
  194.2280  171.8440  137.7910 C   0  0  2  0  0  3  0  0  0  0  0  0
  195.0740  171.0220  137.0430 O   0  0  0  0  0  1  0  0  0  0  0  0
  194.7040  171.9590  139.1020 O   0  0  0  0  0  0  0  0  0  0  0  0
  195.7300  174.2070  137.6630 C   0  0  0  0  0  1  0  0  0  0  0  0
  195.9760  173.0830  139.0610 P   0  0  2  0  0  0  0  0  0  0  0  0
  197.2720  172.3380  138.8590 O   0  0  0  0  0  0  0  0  0  0  0  0
  196.0560  174.0610  140.6110 C   0  0  1  0  0  3  0  0  0  0  0  0
  196.3830  175.5220  140.4500 C   0  0  0  0  0  0  0  0  0  0  0  0
  195.4820  176.3960  140.5320 O   0  0  0  0  0  1  0  0  0  0  0  0
  197.7020  175.9100  140.2530 O   0  0  0  0  0  0  0  0  0  0  0  0
  195.0550  173.7500  141.5620 O   0  0  0  0  0  0  0  0  0  0  0  0
  197.1600  172.4680  142.7620 O   0  0  0  0  0  0  0  0  0  0  0  0
  195.6610  172.6610  142.7280 P   0  0  2  0  0  4  0  0  0  0  0  0
  194.9660  171.1370  142.3520 O   0  0  0  0  0  1  0  0  0  0  0  0
  194.6710  171.5170  143.5310 O   0  0  0  0  0  0  0  0  0  0  0  0
  1  6  1  0  0  0  0
  2  4  1  0  0  0  0
  2  1  2  0  0  0  0
  3  6  2  0  0  0  0
  3 26  1  0  0  0  0
  4  5  2  0  0  0  0
  5  3  1  0  0  0  0
  6  7  1  0  0  0  0
  8  7  1  0  0  0  0
  8 11  1  0  0  0  0
  9 13  2  0  0  0  0
 10 11  2  0  0  0  0
 10  9  1  0  0  0  0
 11 12  1  0  0  0  0
 12 13  1  0  0  0  0
 15 14  1  6  0  0  0
 15  5  1  0  0  0  0
 15 16  1  0  0  0  0
 16 17  1  0  0  0  0
 17 18  1  0  0  0  0
 18 19  1  0  0  0  0
 19 20  1  0  0  0  0
 20 21  1  6  0  0  0
 20 24  1  0  0  0  0
 24 25  2  0  0  0  0
 24 23  1  0  0  0  0
 24 22  1  0  0  0  0
 26 34  1  0  0  0  0
 27 28  1  0  0  0  0
 28 31  1  0  0  0  0
 29 30  1  0  0  0  0
 30 32  1  0  0  0  0
 31 30  2  0  0  0  0
 33 29  2  0  0  0  0
 34 27  1  0  0  0  0
 34 33  2  0  0  0  0
 35  2  1  0  0  0  0
 36 35  1  0  0  0  0
 37 39  1  0  0  0  0
 37 38  1  0  0  0  0
 38 36  1  0  0  0  0
 40 37  2  0  0  0  0
 41 38  1  0  0  0  0
 41 42  1  0  0  0  0
 42 43  1  6  0  0  0
 45 44  1  6  0  0  0
 45 46  1  0  0  0  0
 45 42  1  0  0  0  0
 46 47  1  6  0  0  0
 46 48  1  0  0  0  0
 50 49  1  6  0  0  0
 50 48  1  0  0  0  0
 50 52  1  0  0  0  0
 51 50  2  0  0  0  0
 52 53  1  6  0  0  0
 52 56  1  0  0  0  0
 53 54  1  0  0  0  0
 55 53  2  0  0  0  0
 56 58  1  0  0  0  0
 58 57  2  6  0  0  0
 58 60  1  0  0  0  0
 59 60  1  0  0  0  0
M  END
>  <MODEL>
8

>  <REMARK>
 VINA RESULT:      -5.5      3.684      6.316
  Name = 
  24 active torsions:
  status: ('A' for Active; 'I' for Inactive)
    1  A    between atoms: C_4  and  C_10
    2  A    between atoms: C_4  and  C_29
    3  A    between atoms: C_6  and  C_56
    4  A    between atoms: O_8  and  C_33
    5  A    between atoms: O_8  and  P_51
    6  A    between atoms: C_10  and  C_48
    7  A    between atoms: C_12  and  N_35
    8  A    between atoms: C_12  and  C_60
    9  A    between atoms: C_13  and  S_22
   10  A    between atoms: C_14  and  C_45
   11  A    between atoms: C_19  and  C_30
   12  A    between atoms: C_19  and  C_53
   13  A    between atoms: C_20  and  C_60
   14  A    between atoms: P_24  and  O_25
   15  A    between atoms: O_25  and  C_56
   16  A    between atoms: C_26  and  C_32
   17  A    between atoms: C_26  and  O_47
   18  A    between atoms: C_27  and  C_40
   19  A    between atoms: C_29  and  P_38
   20  A    between atoms: C_30  and  C_33
   21  A    between atoms: N_35  and  C_53
   22  A    between atoms: C_40  and  C_55
   23  A    between atoms: O_47  and  C_48
   24  A    between atoms: P_51  and  C_56
                            x       y       z     vdW  Elec       q    Type
                         _______ _______ _______ _____ _____    ______ ____

>  <TORSDO>
F 24

$$$$
=
 OpenBabel11042414383D

 60 62  0  0  1  0  0  0  0  0999 V2000
  189.7970  174.2470  145.1150 C   0  0  0  0  0  3  0  0  0  0  0  0
  190.8590  173.5430  144.5520 C   0  0  0  0  0  0  0  0  0  0  0  0
  190.4480  176.2520  143.8930 C   0  0  0  0  0  0  0  0  0  0  0  0
  191.7090  174.1890  143.6470 C   0  0  0  0  0  3  0  0  0  0  0  0
  191.5240  175.5390  143.3210 C   0  0  0  0  0  0  0  0  0  0  0  0
  189.5810  175.5990  144.8010 C   0  0  0  0  0  0  0  0  0  0  0  0
  188.4360  176.3230  145.3830 C   0  0  0  0  0  2  0  0  0  0  0  0
  187.8640  176.0400  146.8660 S   0  0  0  0  0  0  0  0  0  0  0  0
  184.4600  177.7890  146.5460 C   0  0  0  0  0  3  0  0  0  0  0  0
  185.3150  176.8100  146.1950 N   0  0  0  0  0  0  0  0  0  0  0  0
  186.4130  177.0520  146.9300 C   0  0  0  0  0  0  0  0  0  0  0  0
  186.3030  178.1260  147.7280 N   0  0  0  0  0  2  0  0  0  0  0  0
  185.0650  178.5970  147.4860 C   0  0  0  0  0  3  0  0  0  0  0  0
  192.8310  175.2850  141.2160 C   0  0  0  0  0  1  0  0  0  0  0  0
  192.4850  176.2090  142.3740 C   0  0  2  0  0  3  0  0  0  0  0  0
  193.6480  176.5890  143.0480 O   0  0  0  0  0  0  0  0  0  0  0  0
  194.6980  176.0650  142.2920 C   0  0  0  0  0  2  0  0  0  0  0  0
  196.0300  176.5860  142.8120 C   0  0  0  0  0  2  0  0  0  0  0  0
  196.7030  175.5950  143.7520 C   0  0  0  0  0  2  0  0  0  0  0  0
  195.9150  174.2960  143.8420 C   0  0  1  0  0  3  0  0  0  0  0  0
  196.6920  173.2460  143.3880 F   0  0  0  0  0  0  0  0  0  0  0  0
  196.8300  173.7690  146.5090 O   0  0  0  0  0  1  0  0  0  0  0  0
  194.5660  175.3070  146.1490 O   0  0  0  0  0  1  0  0  0  0  0  0
  195.4410  173.9840  145.5650 P   0  0  0  0  0  0  0  0  0  0  0  0
  194.5840  172.7420  145.6390 O   0  0  0  0  0  0  0  0  0  0  0  0
  190.2050  177.6870  143.5080 C   0  0  0  0  0  2  0  0  0  0  0  0
  188.5540  176.8720  141.6600 C   0  0  0  0  0  2  0  0  0  0  0  0
  187.4480  177.4470  140.7370 C   0  0  0  0  0  2  0  0  0  0  0  0
  186.6790  178.8010  143.4460 C   0  0  0  0  0  3  0  0  0  0  0  0
  185.7100  178.2120  142.4940 C   0  0  0  0  0  0  0  0  0  0  0  0
  186.0560  177.5690  141.3530 C   0  0  0  0  0  3  0  0  0  0  0  0
  184.2650  178.2910  142.8390 C   0  0  0  0  0  1  0  0  0  0  0  0
  187.9040  178.4250  143.2830 C   0  0  0  0  0  0  0  0  0  0  0  0
  188.9200  177.8220  142.7650 C   0  0  0  0  0  0  0  0  0  0  0  0
  190.9910  172.0800  144.8340 C   0  0  0  0  0  2  0  0  0  0  0  0
  189.9520  171.2310  144.1030 C   0  0  0  0  0  2  0  0  0  0  0  0
  189.3840  171.9630  141.7790 C   0  0  0  0  0  0  0  0  0  0  0  0
  190.2130  171.2010  142.6650 N   0  0  0  0  0  0  0  0  0  0  0  0
  188.3470  172.7400  142.2850 O   0  0  0  0  0  1  0  0  0  0  0  0
  189.5780  171.9290  140.5340 O   0  0  0  0  0  0  0  0  0  0  0  0
  191.3180  170.3990  142.1430 C   0  0  0  0  0  2  0  0  0  0  0  0
  192.2960  171.2190  141.3040 C   0  0  2  0  0  3  0  0  0  0  0  0
  192.5450  170.6170  140.0640 O   0  0  0  0  0  1  0  0  0  0  0  0
  193.7570  170.6950  143.1560 O   0  0  0  0  0  1  0  0  0  0  0  0
  193.5930  171.5360  142.0540 C   0  0  1  0  0  3  0  0  0  0  0  0
  194.8120  171.4520  141.1380 C   0  0  2  0  0  3  0  0  0  0  0  0
  195.8320  170.7380  141.7690 O   0  0  0  0  0  1  0  0  0  0  0  0
  195.2620  172.7310  140.7940 O   0  0  0  0  0  0  0  0  0  0  0  0
  195.6840  170.9460  138.6010 C   0  0  0  0  0  1  0  0  0  0  0  0
  195.6990  172.6700  139.1550 P   0  0  2  0  0  0  0  0  0  0  0  0
  197.0990  173.2110  139.0070 O   0  0  0  0  0  0  0  0  0  0  0  0
  194.5430  173.6440  138.1160 C   0  0  1  0  0  3  0  0  0  0  0  0
  195.0640  174.0600  136.7650 C   0  0  0  0  0  0  0  0  0  0  0  0
  195.1190  175.2750  136.4430 O   0  0  0  0  0  1  0  0  0  0  0  0
  195.5310  173.0920  135.8850 O   0  0  0  0  0  0  0  0  0  0  0  0
  193.1970  173.2070  138.1530 O   0  0  0  0  0  0  0  0  0  0  0  0
  191.5730  174.9100  136.7490 O   0  0  0  0  0  0  0  0  0  0  0  0
  192.3910  173.6390  136.7130 P   0  0  2  0  0  4  0  0  0  0  0  0
  191.3060  172.3520  136.3790 O   0  0  0  0  0  1  0  0  0  0  0  0
  192.1330  172.5360  135.4280 O   0  0  0  0  0  0  0  0  0  0  0  0
  2 35  1  0  0  0  0
  2  1  2  0  0  0  0
  3  6  2  0  0  0  0
  4  2  1  0  0  0  0
  5  4  2  0  0  0  0
  5  3  1  0  0  0  0
  6  1  1  0  0  0  0
  6  7  1  0  0  0  0
  7  8  1  0  0  0  0
  8 11  1  0  0  0  0
  9 13  2  0  0  0  0
 10  9  1  0  0  0  0
 10 11  2  0  0  0  0
 11 12  1  0  0  0  0
 13 12  1  0  0  0  0
 15 14  1  6  0  0  0
 15 16  1  0  0  0  0
 15  5  1  0  0  0  0
 17 18  1  0  0  0  0
 17 16  1  0  0  0  0
 18 19  1  0  0  0  0
 19 20  1  0  0  0  0
 20 21  1  1  0  0  0
 20 24  1  0  0  0  0
 24 25  2  0  0  0  0
 24 23  1  0  0  0  0
 24 22  1  0  0  0  0
 26  3  1  0  0  0  0
 27 34  1  0  0  0  0
 28 31  1  0  0  0  0
 28 27  1  0  0  0  0
 30 32  1  0  0  0  0
 30 29  1  0  0  0  0
 31 30  2  0  0  0  0
 33 29  2  0  0  0  0
 34 33  2  0  0  0  0
 34 26  1  0  0  0  0
 36 35  1  0  0  0  0
 37 39  1  0  0  0  0
 37 38  1  0  0  0  0
 38 36  1  0  0  0  0
 40 37  2  0  0  0  0
 41 38  1  0  0  0  0
 42 43  1  6  0  0  0
 42 45  1  0  0  0  0
 42 41  1  0  0  0  0
 45 44  1  1  0  0  0
 46 47  1  1  0  0  0
 46 45  1  0  0  0  0
 48 46  1  0  0  0  0
 50 49  1  6  0  0  0
 50 48  1  0  0  0  0
 51 50  2  0  0  0  0
 52 53  1  6  0  0  0
 52 56  1  0  0  0  0
 52 50  1  0  0  0  0
 54 53  1  0  0  0  0
 55 53  2  0  0  0  0
 58 57  2  1  0  0  0
 58 56  1  0  0  0  0
 60 59  1  0  0  0  0
 60 58  1  0  0  0  0
M  END
>  <MODEL>
9

>  <REMARK>
 VINA RESULT:      -5.5      2.590      4.324
  Name = 
  24 active torsions:
  status: ('A' for Active; 'I' for Inactive)
    1  A    between atoms: C_4  and  C_10
    2  A    between atoms: C_4  and  C_29
    3  A    between atoms: C_6  and  C_56
    4  A    between atoms: O_8  and  C_33
    5  A    between atoms: O_8  and  P_51
    6  A    between atoms: C_10  and  C_48
    7  A    between atoms: C_12  and  N_35
    8  A    between atoms: C_12  and  C_60
    9  A    between atoms: C_13  and  S_22
   10  A    between atoms: C_14  and  C_45
   11  A    between atoms: C_19  and  C_30
   12  A    between atoms: C_19  and  C_53
   13  A    between atoms: C_20  and  C_60
   14  A    between atoms: P_24  and  O_25
   15  A    between atoms: O_25  and  C_56
   16  A    between atoms: C_26  and  C_32
   17  A    between atoms: C_26  and  O_47
   18  A    between atoms: C_27  and  C_40
   19  A    between atoms: C_29  and  P_38
   20  A    between atoms: C_30  and  C_33
   21  A    between atoms: N_35  and  C_53
   22  A    between atoms: C_40  and  C_55
   23  A    between atoms: O_47  and  C_48
   24  A    between atoms: P_51  and  C_56
                            x       y       z     vdW  Elec       q    Type
                         _______ _______ _______ _____ _____    ______ ____

>  <TORSDO>
F 24

$$$$
