=
 OpenBabel11042417303D

 39 44  0  0  1  0  0  0  0  0999 V2000
  185.3490  178.7510  143.3080 C   0  0  2  0  0  3  0  0  0  0  0  0
  185.8410  177.3720  142.8710 C   0  0  1  0  0  3  0  0  0  0  0  0
  188.1510  176.9620  142.2830 C   0  0  1  0  0  3  0  0  0  0  0  0
  185.8400  178.9550  144.6700 N   0  0  0  0  0  2  0  0  0  0  0  0
  186.0530  177.5960  145.1440 C   0  0  1  0  0  3  0  0  0  0  0  0
  186.8450  177.4860  141.7320 C   0  0  0  0  0  2  0  0  0  0  0  0
  187.9440  177.0010  143.7750 C   0  0  0  0  0  2  0  0  0  0  0  0
  186.5180  176.7820  144.0170 N   0  0  2  0  0  0  0  0  0  0  0  0
  188.2270  175.1920  140.5160 C   0  0  0  0  0  3  0  0  0  0  0  0
  189.4160  173.3490  142.2810 C   0  0  0  0  0  0  0  0  0  0  0  0
  188.4360  175.5450  141.8640 C   0  0  0  0  0  0  0  0  0  0  0  0
  189.3730  171.8020  138.9310 C   0  0  0  0  0  2  0  0  0  0  0  0
  188.4680  173.3250  138.4140 S   0  0  0  0  0  0  0  0  0  0  0  0
  189.6040  171.8540  140.3380 O   0  0  0  0  0  0  0  0  0  0  0  0
  189.0340  174.6150  142.7430 C   0  0  0  0  0  3  0  0  0  0  0  0
  189.2140  173.0340  140.9340 C   0  0  0  0  0  0  0  0  0  0  0  0
  188.6140  173.9250  140.0800 C   0  0  0  0  0  0  0  0  0  0  0  0
  190.0010  172.4340  143.1470 O   0  0  0  0  0  1  0  0  0  0  0  0
  183.8210  178.7610  143.2980 C   0  0  0  0  0  2  0  0  0  0  0  0
  183.2970  178.1660  142.0100 C   0  0  0  0  0  2  0  0  0  0  0  0
  181.4760  178.7290  140.5160 N   0  0  0  0  0  1  0  0  0  0  0  0
  181.8070  178.4260  141.9000 C   0  0  0  0  0  2  0  0  0  0  0  0
  186.9470  177.5100  146.3940 C   0  0  2  0  0  3  0  0  0  0  0  0
  187.3740  176.1200  146.5960 N   0  0  0  0  0  2  0  0  0  0  0  0
  189.8120  176.6020  146.6900 N   0  0  0  0  0  2  0  0  0  0  0  0
  188.7130  175.7030  146.8840 C   0  0  0  0  0  0  0  0  0  0  0  0
  188.9100  174.5380  147.3150 O   0  0  0  0  0  0  0  0  0  0  0  0
  191.1590  176.2270  146.8460 N   0  0  0  0  0  0  0  0  0  0  0  0
  191.5820  176.7990  148.1080 C   0  0  0  0  0  1  0  0  0  0  0  0
  194.2790  177.2440  145.0680 O   0  0  0  0  0  1  0  0  0  0  0  0
  193.3470  176.3630  145.6260 C   0  0  1  0  0  0  0  0  0  0  0  0
  192.9870  173.9680  145.9340 C   0  0  2  0  0  3  0  0  0  0  0  0
  193.8730  175.1280  146.3380 C   0  0  0  0  0  2  0  0  0  0  0  0
  191.9250  176.9000  145.7910 C   0  0  1  0  0  3  0  0  0  0  0  0
  193.8370  172.8350  145.4030 C   0  0  0  0  0  1  0  0  0  0  0  0
  192.0470  174.4640  144.8520 C   0  0  0  0  0  2  0  0  0  0  0  0
  192.2990  175.9570  144.6210 C   0  0  2  0  0  3  0  0  0  0  0  0
  186.6190  179.2520  148.1080 C   0  0  0  0  0  2  0  0  0  0  0  0
  186.2630  178.0630  147.6130 C   0  0  0  0  0  3  0  0  0  0  0  0
  1 19  1  1  0  0  0
  1  4  1  0  0  0  0
  2  6  1  6  0  0  0
  2  1  1  0  0  0  0
  2  8  1  0  0  0  0
  3 11  1  6  0  0  0
  3  7  1  0  0  0  0
  4  5  1  0  0  0  0
  5 23  1  1  0  0  0
  6  3  1  0  0  0  0
  8  7  1  6  0  0  0
  8  5  1  0  0  0  0
  9 11  1  0  0  0  0
 10 15  1  0  0  0  0
 10 18  1  0  0  0  0
 11 15  2  0  0  0  0
 12 14  1  0  0  0  0
 13 12  1  0  0  0  0
 13 17  1  0  0  0  0
 14 16  1  0  0  0  0
 16 10  2  0  0  0  0
 17  9  2  0  0  0  0
 17 16  1  0  0  0  0
 20 19  1  0  0  0  0
 21 22  1  0  0  0  0
 22 20  1  0  0  0  0
 23 24  1  0  0  0  0
 23 39  1  1  0  0  0
 24 26  1  0  0  0  0
 25 28  1  0  0  0  0
 25 26  1  0  0  0  0
 26 27  2  0  0  0  0
 28 29  1  0  0  0  0
 31 30  1  6  0  0  0
 31 34  1  0  0  0  0
 31 33  1  0  0  0  0
 32 35  1  6  0  0  0
 32 33  1  0  0  0  0
 34 28  1  1  0  0  0
 36 32  1  0  0  0  0
 37 36  1  1  0  0  0
 37 31  1  0  0  0  0
 37 34  1  0  0  0  0
 39 38  2  0  0  0  0
M  END
>  <MODEL>
1

>  <REMARK>
 VINA RESULT:      -7.9      0.000      0.000
  Name = 
  9 active torsions:
  status: ('A' for Active; 'I' for Inactive)
    1  A    between atoms: C_5  and  C_28
    2  A    between atoms: N_6  and  N_16
    3  A    between atoms: N_6  and  C_23
    4  A    between atoms: N_7  and  C_30
    5  A    between atoms: C_10  and  C_14
    6  A    between atoms: C_13  and  C_24
    7  A    between atoms: C_13  and  C_28
    8  A    between atoms: C_22  and  C_30
    9  A    between atoms: C_26  and  C_30
                            x       y       z     vdW  Elec       q    Type
                         _______ _______ _______ _____ _____    ______ ____

>  <TORSDO>
F 9

$$$$
=
 OpenBabel11042417303D

 39 44  0  0  1  0  0  0  0  0999 V2000
  186.5190  177.7150  144.8320 C   0  0  2  0  0  3  0  0  0  0  0  0
  187.0540  176.4310  144.2000 C   0  0  1  0  0  3  0  0  0  0  0  0
  188.7770  176.4590  142.5030 C   0  0  1  0  0  3  0  0  0  0  0  0
  187.5560  178.1930  145.7450 N   0  0  0  0  0  2  0  0  0  0  0  0
  188.3110  176.9840  146.0380 C   0  0  1  0  0  3  0  0  0  0  0  0
  187.2870  176.6130  142.7070 C   0  0  0  0  0  2  0  0  0  0  0  0
  189.3420  176.6430  143.8880 C   0  0  0  0  0  2  0  0  0  0  0  0
  188.3370  176.1530  144.8300 N   0  0  2  0  0  0  0  0  0  0  0  0
  190.0740  174.3330  142.7460 C   0  0  0  0  0  3  0  0  0  0  0  0
  188.8000  173.1910  140.5110 C   0  0  0  0  0  0  0  0  0  0  0  0
  189.1590  175.0960  141.9930 C   0  0  0  0  0  0  0  0  0  0  0  0
  190.8780  170.5650  142.0620 C   0  0  0  0  0  2  0  0  0  0  0  0
  191.4220  171.8980  143.2150 S   0  0  0  0  0  0  0  0  0  0  0  0
  190.0060  171.1250  141.0810 O   0  0  0  0  0  0  0  0  0  0  0  0
  188.5230  174.5150  140.8730 C   0  0  0  0  0  3  0  0  0  0  0  0
  189.6980  172.4520  141.2870 C   0  0  0  0  0  0  0  0  0  0  0  0
  190.3350  173.0180  142.3640 C   0  0  0  0  0  0  0  0  0  0  0  0
  188.1770  172.6210  139.4080 O   0  0  0  0  0  1  0  0  0  0  0  0
  185.2450  177.3920  145.6120 C   0  0  0  0  0  2  0  0  0  0  0  0
  184.2760  178.5520  145.5450 C   0  0  0  0  0  2  0  0  0  0  0  0
  183.7830  178.5080  143.1740 N   0  0  0  0  0  1  0  0  0  0  0  0
  184.4410  179.2740  144.2210 C   0  0  0  0  0  2  0  0  0  0  0  0
  189.6990  177.2550  146.6460 C   0  0  2  0  0  3  0  0  0  0  0  0
  190.3360  175.9810  146.9980 N   0  0  0  0  0  2  0  0  0  0  0  0
  192.5420  176.4930  145.9720 N   0  0  0  0  0  2  0  0  0  0  0  0
  191.7220  175.6730  146.8120 C   0  0  0  0  0  0  0  0  0  0  0  0
  192.2100  174.6760  147.4030 O   0  0  0  0  0  0  0  0  0  0  0  0
  193.8790  176.1900  145.6560 N   0  0  0  0  0  0  0  0  0  0  0  0
  194.5960  177.4460  145.7360 C   0  0  0  0  0  1  0  0  0  0  0  0
  195.5470  175.2980  142.4380 O   0  0  0  0  0  1  0  0  0  0  0  0
  195.2680  175.2170  143.8060 C   0  0  1  0  0  0  0  0  0  0  0  0
  195.9370  173.9470  145.7810 C   0  0  2  0  0  3  0  0  0  0  0  0
  196.4240  174.9480  144.7550 C   0  0  0  0  0  2  0  0  0  0  0  0
  193.9110  175.7650  144.2520 C   0  0  1  0  0  3  0  0  0  0  0  0
  196.8850  172.7700  145.8400 C   0  0  0  0  0  1  0  0  0  0  0  0
  194.5580  173.4840  145.3530 C   0  0  0  0  0  2  0  0  0  0  0  0
  194.1500  174.2440  144.0870 C   0  0  2  0  0  3  0  0  0  0  0  0
  190.6310  178.2490  148.7010 C   0  0  0  0  0  2  0  0  0  0  0  0
  189.6230  178.1830  147.8270 C   0  0  0  0  0  3  0  0  0  0  0  0
  1 19  1  1  0  0  0
  1  4  1  0  0  0  0
  2  6  1  6  0  0  0
  2  8  1  0  0  0  0
  2  1  1  0  0  0  0
  3 11  1  1  0  0  0
  3  6  1  0  0  0  0
  3  7  1  0  0  0  0
  4  5  1  0  0  0  0
  5 23  1  6  0  0  0
  8  7  1  6  0  0  0
  8  5  1  0  0  0  0
 10 15  2  0  0  0  0
 10 16  1  0  0  0  0
 11  9  2  0  0  0  0
 12 13  1  0  0  0  0
 14 16  1  0  0  0  0
 14 12  1  0  0  0  0
 15 11  1  0  0  0  0
 16 17  2  0  0  0  0
 17  9  1  0  0  0  0
 17 13  1  0  0  0  0
 18 10  1  0  0  0  0
 20 19  1  0  0  0  0
 21 22  1  0  0  0  0
 22 20  1  0  0  0  0
 23 24  1  0  0  0  0
 23 39  1  1  0  0  0
 25 26  1  0  0  0  0
 26 24  1  0  0  0  0
 26 27  2  0  0  0  0
 28 29  1  0  0  0  0
 28 25  1  0  0  0  0
 31 30  1  6  0  0  0
 31 37  1  0  0  0  0
 31 34  1  0  0  0  0
 31 33  1  0  0  0  0
 32 35  1  6  0  0  0
 33 32  1  0  0  0  0
 34 28  1  1  0  0  0
 36 32  1  0  0  0  0
 37 34  1  0  0  0  0
 37 36  1  1  0  0  0
 39 38  2  0  0  0  0
M  END
>  <MODEL>
2

>  <REMARK>
 VINA RESULT:      -7.2      2.126      2.940
  Name = 
  9 active torsions:
  status: ('A' for Active; 'I' for Inactive)
    1  A    between atoms: C_5  and  C_28
    2  A    between atoms: N_6  and  N_16
    3  A    between atoms: N_6  and  C_23
    4  A    between atoms: N_7  and  C_30
    5  A    between atoms: C_10  and  C_14
    6  A    between atoms: C_13  and  C_24
    7  A    between atoms: C_13  and  C_28
    8  A    between atoms: C_22  and  C_30
    9  A    between atoms: C_26  and  C_30
                            x       y       z     vdW  Elec       q    Type
                         _______ _______ _______ _____ _____    ______ ____

>  <TORSDO>
F 9

$$$$
=
 OpenBabel11042417303D

 39 44  0  0  1  0  0  0  0  0999 V2000
  193.9980  172.3390  144.8150 C   0  0  2  0  0  3  0  0  0  0  0  0
  193.1240  172.5730  143.5850 C   0  0  1  0  0  3  0  0  0  0  0  0
  190.7670  172.0280  143.5640 C   0  0  1  0  0  3  0  0  0  0  0  0
  193.6430  173.3780  145.7810 N   0  0  0  0  0  2  0  0  0  0  0  0
  193.0810  174.4240  144.9400 C   0  0  1  0  0  3  0  0  0  0  0  0
  192.1420  171.4260  143.3860 C   0  0  0  0  0  2  0  0  0  0  0  0
  191.0420  173.3290  144.2730 C   0  0  0  0  0  2  0  0  0  0  0  0
  192.3590  173.7870  143.8340 N   0  0  2  0  0  0  0  0  0  0  0  0
  189.3460  173.5120  142.1370 C   0  0  0  0  0  3  0  0  0  0  0  0
  189.7360  171.8740  139.8810 C   0  0  0  0  0  0  0  0  0  0  0  0
  190.0810  172.3170  142.2560 C   0  0  0  0  0  0  0  0  0  0  0  0
  187.9060  174.8770  138.7630 C   0  0  0  0  0  2  0  0  0  0  0  0
  187.9060  175.3470  140.5470 S   0  0  0  0  0  0  0  0  0  0  0  0
  188.5070  173.5910  138.6210 O   0  0  0  0  0  0  0  0  0  0  0  0
  190.2740  171.5000  141.1190 C   0  0  0  0  0  3  0  0  0  0  0  0
  189.0270  173.0750  139.7880 C   0  0  0  0  0  0  0  0  0  0  0  0
  188.8190  173.8620  140.8930 C   0  0  0  0  0  0  0  0  0  0  0  0
  189.9230  171.0690  138.7650 O   0  0  0  0  0  1  0  0  0  0  0  0
  195.4660  172.4780  144.4160 C   0  0  0  0  0  2  0  0  0  0  0  0
  196.3440  172.5480  145.6460 C   0  0  0  0  0  2  0  0  0  0  0  0
  196.9790  174.5060  144.3690 N   0  0  0  0  0  1  0  0  0  0  0  0
  197.0570  173.8870  145.6830 C   0  0  0  0  0  2  0  0  0  0  0  0
  192.2550  175.4640  145.7160 C   0  0  2  0  0  3  0  0  0  0  0  0
  191.7140  176.4570  144.7810 N   0  0  0  0  0  2  0  0  0  0  0  0
  189.6110  176.8890  146.0370 N   0  0  0  0  0  2  0  0  0  0  0  0
  190.5360  177.2410  145.0010 C   0  0  0  0  0  0  0  0  0  0  0  0
  190.3300  178.2480  144.2760 O   0  0  0  0  0  0  0  0  0  0  0  0
  188.3840  177.5460  146.2380 N   0  0  0  0  0  0  0  0  0  0  0  0
  188.4060  178.0050  147.6120 C   0  0  0  0  0  1  0  0  0  0  0  0
  184.8940  176.2690  146.5860 O   0  0  0  0  0  1  0  0  0  0  0  0
  185.9130  177.1200  146.1470 C   0  0  1  0  0  0  0  0  0  0  0  0
  186.2220  179.1180  144.7780 C   0  0  2  0  0  3  0  0  0  0  0  0
  185.6130  178.6080  146.0670 C   0  0  0  0  0  2  0  0  0  0  0  0
  187.3260  176.5350  146.1390 C   0  0  1  0  0  3  0  0  0  0  0  0
  185.1730  179.8510  143.9710 C   0  0  0  0  0  1  0  0  0  0  0  0
  186.7290  177.9170  144.0020 C   0  0  0  0  0  2  0  0  0  0  0  0
  186.4970  176.6540  144.8360 C   0  0  2  0  0  3  0  0  0  0  0  0
  194.1720  176.7840  146.5290 C   0  0  0  0  0  2  0  0  0  0  0  0
  193.0540  176.1110  146.8130 C   0  0  0  0  0  3  0  0  0  0  0  0
  1 19  1  6  0  0  0
  1  4  1  0  0  0  0
  2  6  1  1  0  0  0
  2  8  1  0  0  0  0
  2  1  1  0  0  0  0
  3 11  1  6  0  0  0
  3  7  1  0  0  0  0
  5 23  1  1  0  0  0
  5  4  1  0  0  0  0
  6  3  1  0  0  0  0
  8  7  1  1  0  0  0
  8  5  1  0  0  0  0
  9 11  1  0  0  0  0
 10 15  1  0  0  0  0
 12 13  1  0  0  0  0
 13 17  1  0  0  0  0
 14 12  1  0  0  0  0
 14 16  1  0  0  0  0
 15 11  2  0  0  0  0
 16 10  2  0  0  0  0
 16 17  1  0  0  0  0
 17  9  2  0  0  0  0
 18 10  1  0  0  0  0
 19 20  1  0  0  0  0
 20 22  1  0  0  0  0
 21 22  1  0  0  0  0
 23 39  1  1  0  0  0
 24 26  1  0  0  0  0
 24 23  1  0  0  0  0
 25 28  1  0  0  0  0
 26 25  1  0  0  0  0
 27 26  2  0  0  0  0
 28 29  1  0  0  0  0
 31 30  1  1  0  0  0
 32 35  1  6  0  0  0
 32 33  1  0  0  0  0
 33 31  1  0  0  0  0
 34 31  1  0  0  0  0
 34 28  1  6  0  0  0
 36 32  1  0  0  0  0
 37 36  1  6  0  0  0
 37 34  1  0  0  0  0
 37 31  1  0  0  0  0
 38 39  2  0  0  0  0
M  END
>  <MODEL>
3

>  <REMARK>
 VINA RESULT:      -7.1      2.614      7.664
  Name = 
  9 active torsions:
  status: ('A' for Active; 'I' for Inactive)
    1  A    between atoms: C_5  and  C_28
    2  A    between atoms: N_6  and  N_16
    3  A    between atoms: N_6  and  C_23
    4  A    between atoms: N_7  and  C_30
    5  A    between atoms: C_10  and  C_14
    6  A    between atoms: C_13  and  C_24
    7  A    between atoms: C_13  and  C_28
    8  A    between atoms: C_22  and  C_30
    9  A    between atoms: C_26  and  C_30
                            x       y       z     vdW  Elec       q    Type
                         _______ _______ _______ _____ _____    ______ ____

>  <TORSDO>
F 9

$$$$
=
 OpenBabel11042417303D

 39 44  0  0  1  0  0  0  0  0999 V2000
  191.7550  176.2800  145.8430 C   0  0  2  0  0  3  0  0  0  0  0  0
  190.4140  176.2800  145.1100 C   0  0  1  0  0  3  0  0  0  0  0  0
  189.8000  178.0310  143.5590 C   0  0  1  0  0  3  0  0  0  0  0  0
  192.7670  175.9050  144.8570 N   0  0  0  0  0  2  0  0  0  0  0  0
  191.9940  175.1870  143.8560 C   0  0  1  0  0  3  0  0  0  0  0  0
  189.8350  177.6860  145.0300 C   0  0  0  0  0  2  0  0  0  0  0  0
  190.7420  177.0300  142.9410 C   0  0  0  0  0  2  0  0  0  0  0  0
  190.6740  175.8170  143.7540 N   0  0  2  0  0  0  0  0  0  0  0  0
  187.3080  178.0800  143.7670 C   0  0  0  0  0  3  0  0  0  0  0  0
  186.9750  177.6240  141.0090 C   0  0  0  0  0  0  0  0  0  0  0  0
  188.4340  177.8620  142.9510 C   0  0  0  0  0  0  0  0  0  0  0  0
  183.6350  178.2880  142.4310 C   0  0  0  0  0  2  0  0  0  0  0  0
  184.5130  178.3580  144.0520 S   0  0  0  0  0  0  0  0  0  0  0  0
  184.5700  177.9450  141.4100 O   0  0  0  0  0  0  0  0  0  0  0  0
  188.2590  177.6350  141.5670 C   0  0  0  0  0  3  0  0  0  0  0  0
  185.8760  177.8610  141.8410 C   0  0  0  0  0  0  0  0  0  0  0  0
  186.0380  178.0620  143.1890 C   0  0  0  0  0  0  0  0  0  0  0  0
  186.8030  177.3970  139.6500 O   0  0  0  0  0  1  0  0  0  0  0  0
  191.7090  175.2440  146.9650 C   0  0  0  0  0  2  0  0  0  0  0  0
  191.3380  175.9010  148.2760 C   0  0  0  0  0  2  0  0  0  0  0  0
  191.5220  177.9390  149.5710 N   0  0  0  0  0  1  0  0  0  0  0  0
  191.8690  177.3220  148.3000 C   0  0  0  0  0  2  0  0  0  0  0  0
  192.7210  175.0280  142.5090 C   0  0  2  0  0  3  0  0  0  0  0  0
  192.8500  173.6030  142.1870 N   0  0  0  0  0  2  0  0  0  0  0  0
  192.3050  173.8250  139.7700 N   0  0  0  0  0  2  0  0  0  0  0  0
  192.7990  173.0480  140.8670 C   0  0  0  0  0  0  0  0  0  0  0  0
  193.2010  171.8700  140.6850 O   0  0  0  0  0  0  0  0  0  0  0  0
  192.1230  173.3120  138.4730 N   0  0  0  0  0  0  0  0  0  0  0  0
  193.0220  174.0650  137.6240 C   0  0  0  0  0  1  0  0  0  0  0  0
  189.2220  173.3370  136.1260 O   0  0  0  0  0  1  0  0  0  0  0  0
  190.2320  172.7760  136.9150 C   0  0  1  0  0  0  0  0  0  0  0  0
  191.1270  170.5910  137.5320 C   0  0  2  0  0  3  0  0  0  0  0  0
  190.9590  171.5550  136.3780 C   0  0  0  0  0  2  0  0  0  0  0  0
  190.7560  173.6460  138.0580 C   0  0  1  0  0  3  0  0  0  0  0  0
  190.5830  169.2330  137.1500 C   0  0  0  0  0  1  0  0  0  0  0  0
  190.3530  171.1480  138.7120 C   0  0  0  0  0  2  0  0  0  0  0  0
  189.7490  172.4980  138.3170 C   0  0  2  0  0  3  0  0  0  0  0  0
  194.5380  176.2570  141.3820 C   0  0  0  0  0  2  0  0  0  0  0  0
  194.0550  175.7210  142.5070 C   0  0  0  0  0  3  0  0  0  0  0  0
  1 19  1  1  0  0  0
  2  6  1  6  0  0  0
  2  1  1  0  0  0  0
  3 11  1  6  0  0  0
  3  6  1  0  0  0  0
  4  1  1  0  0  0  0
  5 23  1  6  0  0  0
  5  4  1  0  0  0  0
  7  3  1  0  0  0  0
  8  7  1  6  0  0  0
  8  5  1  0  0  0  0
  8  2  1  0  0  0  0
 10 15  2  0  0  0  0
 10 16  1  0  0  0  0
 11  9  2  0  0  0  0
 12 13  1  0  0  0  0
 14 16  1  0  0  0  0
 14 12  1  0  0  0  0
 15 11  1  0  0  0  0
 16 17  2  0  0  0  0
 17  9  1  0  0  0  0
 17 13  1  0  0  0  0
 18 10  1  0  0  0  0
 19 20  1  0  0  0  0
 20 22  1  0  0  0  0
 22 21  1  0  0  0  0
 23 39  1  1  0  0  0
 24 23  1  0  0  0  0
 25 26  1  0  0  0  0
 26 24  1  0  0  0  0
 27 26  2  0  0  0  0
 28 25  1  0  0  0  0
 29 28  1  0  0  0  0
 31 30  1  6  0  0  0
 31 34  1  0  0  0  0
 31 37  1  0  0  0  0
 32 35  1  6  0  0  0
 32 36  1  0  0  0  0
 33 31  1  0  0  0  0
 33 32  1  0  0  0  0
 34 37  1  0  0  0  0
 34 28  1  1  0  0  0
 37 36  1  1  0  0  0
 38 39  2  0  0  0  0
M  END
>  <MODEL>
4

>  <REMARK>
 VINA RESULT:      -6.8      3.745      8.114
  Name = 
  9 active torsions:
  status: ('A' for Active; 'I' for Inactive)
    1  A    between atoms: C_5  and  C_28
    2  A    between atoms: N_6  and  N_16
    3  A    between atoms: N_6  and  C_23
    4  A    between atoms: N_7  and  C_30
    5  A    between atoms: C_10  and  C_14
    6  A    between atoms: C_13  and  C_24
    7  A    between atoms: C_13  and  C_28
    8  A    between atoms: C_22  and  C_30
    9  A    between atoms: C_26  and  C_30
                            x       y       z     vdW  Elec       q    Type
                         _______ _______ _______ _____ _____    ______ ____

>  <TORSDO>
F 9

$$$$
=
 OpenBabel11042417303D

 39 44  0  0  1  0  0  0  0  0999 V2000
  188.4400  176.5850  142.9450 C   0  0  2  0  0  3  0  0  0  0  0  0
  189.8670  176.4710  143.4750 C   0  0  1  0  0  3  0  0  0  0  0  0
  190.4960  174.8140  145.1230 C   0  0  1  0  0  3  0  0  0  0  0  0
  188.2420  175.4560  142.0370 N   0  0  0  0  0  2  0  0  0  0  0  0
  189.6000  175.1150  141.6440 C   0  0  1  0  0  3  0  0  0  0  0  0
  189.8740  176.1840  144.9710 C   0  0  0  0  0  2  0  0  0  0  0  0
  190.3960  174.2280  143.7380 C   0  0  0  0  0  2  0  0  0  0  0  0
  190.4830  175.3410  142.7930 N   0  0  2  0  0  0  0  0  0  0  0  0
  192.7280  173.7130  145.3690 C   0  0  0  0  0  3  0  0  0  0  0  0
  193.9370  176.1290  146.1630 C   0  0  0  0  0  0  0  0  0  0  0  0
  191.9430  174.8710  145.5300 C   0  0  0  0  0  0  0  0  0  0  0  0
  196.6200  173.6250  145.7760 C   0  0  0  0  0  2  0  0  0  0  0  0
  195.2490  172.4440  145.4190 S   0  0  0  0  0  0  0  0  0  0  0  0
  196.0640  174.8960  146.1080 O   0  0  0  0  0  0  0  0  0  0  0  0
  192.5570  176.0810  145.9270 C   0  0  0  0  0  3  0  0  0  0  0  0
  194.6940  174.9680  145.9770 C   0  0  0  0  0  0  0  0  0  0  0  0
  194.1000  173.7860  145.6110 C   0  0  0  0  0  0  0  0  0  0  0  0
  194.5390  177.3170  146.5570 O   0  0  0  0  0  1  0  0  0  0  0  0
  188.2950  177.9000  142.1810 C   0  0  0  0  0  2  0  0  0  0  0  0
  186.9100  178.0160  141.5840 C   0  0  0  0  0  2  0  0  0  0  0  0
  184.8340  177.6850  142.7860 N   0  0  0  0  0  1  0  0  0  0  0  0
  185.9600  178.5910  142.6170 C   0  0  0  0  0  2  0  0  0  0  0  0
  189.7300  173.7160  141.0170 C   0  0  2  0  0  3  0  0  0  0  0  0
  190.6050  173.7850  139.8410 N   0  0  0  0  0  2  0  0  0  0  0  0
  192.7390  173.4690  141.0780 N   0  0  0  0  0  2  0  0  0  0  0  0
  192.0130  173.5230  139.8440 C   0  0  0  0  0  0  0  0  0  0  0  0
  192.6000  173.3330  138.7490 O   0  0  0  0  0  0  0  0  0  0  0  0
  194.1370  173.3270  141.1510 N   0  0  0  0  0  0  0  0  0  0  0  0
  194.3680  172.1100  141.9010 C   0  0  0  0  0  1  0  0  0  0  0  0
  196.7990  175.3320  142.8300 O   0  0  0  0  0  1  0  0  0  0  0  0
  196.1410  174.7040  141.7680 C   0  0  1  0  0  0  0  0  0  0  0  0
  196.3720  174.3660  139.3610 C   0  0  2  0  0  3  0  0  0  0  0  0
  196.9890  174.0310  140.7020 C   0  0  0  0  0  2  0  0  0  0  0  0
  194.6480  174.4370  141.9630 C   0  0  1  0  0  3  0  0  0  0  0  0
  197.4220  174.9560  138.4460 C   0  0  0  0  0  1  0  0  0  0  0  0
  195.2670  175.3770  139.6040 C   0  0  0  0  0  2  0  0  0  0  0  0
  195.1470  175.6290  141.1100 C   0  0  2  0  0  3  0  0  0  0  0  0
  188.1300  172.7020  139.4370 C   0  0  0  0  0  2  0  0  0  0  0  0
  188.3890  173.1260  140.6780 C   0  0  0  0  0  3  0  0  0  0  0  0
  1 19  1  6  0  0  0
  1  2  1  0  0  0  0
  2  6  1  1  0  0  0
  3 11  1  6  0  0  0
  4  1  1  0  0  0  0
  5 23  1  1  0  0  0
  5  4  1  0  0  0  0
  5  8  1  0  0  0  0
  6  3  1  0  0  0  0
  7  3  1  0  0  0  0
  8  2  1  0  0  0  0
  8  7  1  1  0  0  0
  9 11  2  0  0  0  0
  9 17  1  0  0  0  0
 10 18  1  0  0  0  0
 11 15  1  0  0  0  0
 12 14  1  0  0  0  0
 13 17  1  0  0  0  0
 13 12  1  0  0  0  0
 15 10  2  0  0  0  0
 16 14  1  0  0  0  0
 16 10  1  0  0  0  0
 17 16  2  0  0  0  0
 20 19  1  0  0  0  0
 20 22  1  0  0  0  0
 22 21  1  0  0  0  0
 23 39  1  6  0  0  0
 24 26  1  0  0  0  0
 24 23  1  0  0  0  0
 25 28  1  0  0  0  0
 26 25  1  0  0  0  0
 27 26  2  0  0  0  0
 28 29  1  0  0  0  0
 31 34  1  0  0  0  0
 31 30  1  1  0  0  0
 32 35  1  6  0  0  0
 32 36  1  0  0  0  0
 32 33  1  0  0  0  0
 33 31  1  0  0  0  0
 34 28  1  6  0  0  0
 37 36  1  6  0  0  0
 37 31  1  0  0  0  0
 37 34  1  0  0  0  0
 38 39  2  0  0  0  0
M  END
>  <MODEL>
5

>  <REMARK>
 VINA RESULT:      -6.6      3.915      6.703
  Name = 
  9 active torsions:
  status: ('A' for Active; 'I' for Inactive)
    1  A    between atoms: C_5  and  C_28
    2  A    between atoms: N_6  and  N_16
    3  A    between atoms: N_6  and  C_23
    4  A    between atoms: N_7  and  C_30
    5  A    between atoms: C_10  and  C_14
    6  A    between atoms: C_13  and  C_24
    7  A    between atoms: C_13  and  C_28
    8  A    between atoms: C_22  and  C_30
    9  A    between atoms: C_26  and  C_30
                            x       y       z     vdW  Elec       q    Type
                         _______ _______ _______ _____ _____    ______ ____

>  <TORSDO>
F 9

$$$$
=
 OpenBabel11042417303D

 39 44  0  0  1  0  0  0  0  0999 V2000
  194.2600  176.0820  145.1260 C   0  0  2  0  0  3  0  0  0  0  0  0
  192.7860  175.8900  144.7730 C   0  0  1  0  0  3  0  0  0  0  0  0
  191.4660  177.6520  143.7700 C   0  0  1  0  0  3  0  0  0  0  0  0
  194.9960  176.0570  143.8630 N   0  0  0  0  0  2  0  0  0  0  0  0
  194.1020  175.3230  142.9810 C   0  0  1  0  0  3  0  0  0  0  0  0
  191.9790  177.1400  145.0970 C   0  0  0  0  0  2  0  0  0  0  0  0
  192.3470  176.9590  142.7630 C   0  0  0  0  0  2  0  0  0  0  0  0
  192.7210  175.6670  143.3350 N   0  0  2  0  0  0  0  0  0  0  0  0
  189.0360  177.8290  144.3380 C   0  0  0  0  0  3  0  0  0  0  0  0
  188.3050  176.2890  142.0980 C   0  0  0  0  0  0  0  0  0  0  0  0
  190.0330  177.2740  143.5120 C   0  0  0  0  0  0  0  0  0  0  0  0
  185.1950  177.5410  143.6420 C   0  0  0  0  0  2  0  0  0  0  0  0
  186.3090  178.2520  144.9300 S   0  0  0  0  0  0  0  0  0  0  0  0
  185.9770  176.7920  142.7130 O   0  0  0  0  0  0  0  0  0  0  0  0
  189.6580  176.5030  142.3880 C   0  0  0  0  0  3  0  0  0  0  0  0
  187.3370  176.8670  142.9250 C   0  0  0  0  0  0  0  0  0  0  0  0
  187.6950  177.5990  144.0290 C   0  0  0  0  0  0  0  0  0  0  0  0
  187.9370  175.5290  140.9950 O   0  0  0  0  0  1  0  0  0  0  0  0
  194.7140  174.9280  146.0170 C   0  0  0  0  0  2  0  0  0  0  0  0
  193.6200  173.8890  146.1350 C   0  0  0  0  0  2  0  0  0  0  0  0
  193.0720  172.1100  144.5870 N   0  0  0  0  0  1  0  0  0  0  0  0
  194.0880  172.5880  145.5120 C   0  0  0  0  0  2  0  0  0  0  0  0
  194.4300  175.4930  141.4870 C   0  0  2  0  0  3  0  0  0  0  0  0
  194.7210  174.1820  140.8970 N   0  0  0  0  0  2  0  0  0  0  0  0
  192.5100  173.8880  139.7960 N   0  0  0  0  0  2  0  0  0  0  0  0
  193.8730  173.4850  139.9760 C   0  0  0  0  0  0  0  0  0  0  0  0
  194.3450  172.5190  139.3240 O   0  0  0  0  0  0  0  0  0  0  0  0
  191.5920  173.1850  138.9940 N   0  0  0  0  0  0  0  0  0  0  0  0
  191.4640  173.9570  137.7750 C   0  0  0  0  0  1  0  0  0  0  0  0
  187.9550  172.4400  139.3750 O   0  0  0  0  0  1  0  0  0  0  0  0
  189.3140  172.1560  139.2050 C   0  0  1  0  0  0  0  0  0  0  0  0
  190.8070  170.2420  138.9440 C   0  0  2  0  0  3  0  0  0  0  0  0
  189.6920  171.0170  138.2740 C   0  0  0  0  0  2  0  0  0  0  0  0
  190.2920  173.2340  139.6730 C   0  0  1  0  0  3  0  0  0  0  0  0
  190.4430  168.7760  139.0140 C   0  0  0  0  0  1  0  0  0  0  0  0
  190.9780  170.8030  140.3440 C   0  0  0  0  0  2  0  0  0  0  0  0
  190.0110  171.9760  140.5310 C   0  0  2  0  0  3  0  0  0  0  0  0
  196.7210  176.0470  140.7640 C   0  0  0  0  0  2  0  0  0  0  0  0
  195.5560  176.4640  141.2660 C   0  0  0  0  0  3  0  0  0  0  0  0
  1 19  1  1  0  0  0
  2  6  1  6  0  0  0
  2  1  1  0  0  0  0
  3 11  1  6  0  0  0
  3  6  1  0  0  0  0
  4  1  1  0  0  0  0
  5 23  1  6  0  0  0
  5  8  1  0  0  0  0
  5  4  1  0  0  0  0
  7  3  1  0  0  0  0
  8  7  1  6  0  0  0
  8  2  1  0  0  0  0
 10 15  2  0  0  0  0
 10 16  1  0  0  0  0
 11  9  2  0  0  0  0
 12 13  1  0  0  0  0
 14 16  1  0  0  0  0
 14 12  1  0  0  0  0
 15 11  1  0  0  0  0
 16 17  2  0  0  0  0
 17  9  1  0  0  0  0
 17 13  1  0  0  0  0
 18 10  1  0  0  0  0
 19 20  1  0  0  0  0
 21 22  1  0  0  0  0
 22 20  1  0  0  0  0
 23 39  1  1  0  0  0
 24 23  1  0  0  0  0
 25 26  1  0  0  0  0
 26 24  1  0  0  0  0
 27 26  2  0  0  0  0
 28 25  1  0  0  0  0
 29 28  1  0  0  0  0
 31 30  1  1  0  0  0
 31 34  1  0  0  0  0
 31 37  1  0  0  0  0
 32 35  1  1  0  0  0
 32 36  1  0  0  0  0
 33 32  1  0  0  0  0
 33 31  1  0  0  0  0
 34 28  1  6  0  0  0
 34 37  1  0  0  0  0
 37 36  1  6  0  0  0
 38 39  2  0  0  0  0
M  END
>  <MODEL>
6

>  <REMARK>
 VINA RESULT:      -6.6      3.974      8.516
  Name = 
  9 active torsions:
  status: ('A' for Active; 'I' for Inactive)
    1  A    between atoms: C_5  and  C_28
    2  A    between atoms: N_6  and  N_16
    3  A    between atoms: N_6  and  C_23
    4  A    between atoms: N_7  and  C_30
    5  A    between atoms: C_10  and  C_14
    6  A    between atoms: C_13  and  C_24
    7  A    between atoms: C_13  and  C_28
    8  A    between atoms: C_22  and  C_30
    9  A    between atoms: C_26  and  C_30
                            x       y       z     vdW  Elec       q    Type
                         _______ _______ _______ _____ _____    ______ ____

>  <TORSDO>
F 9

$$$$
=
 OpenBabel11042417303D

 39 44  0  0  1  0  0  0  0  0999 V2000
  187.4000  176.4500  142.5470 C   0  0  2  0  0  3  0  0  0  0  0  0
  187.9820  175.0390  142.5860 C   0  0  1  0  0  3  0  0  0  0  0  0
  190.1080  174.4990  141.5650 C   0  0  1  0  0  3  0  0  0  0  0  0
  188.1760  177.2470  143.4960 N   0  0  0  0  0  2  0  0  0  0  0  0
  188.7170  176.2410  144.3970 C   0  0  1  0  0  3  0  0  0  0  0  0
  188.6380  174.6800  141.2590 C   0  0  0  0  0  2  0  0  0  0  0  0
  190.2760  175.1790  142.8990 C   0  0  0  0  0  2  0  0  0  0  0  0
  189.0100  175.0350  143.6180 N   0  0  2  0  0  0  0  0  0  0  0  0
  190.3270  172.2080  140.5840 C   0  0  0  0  0  3  0  0  0  0  0  0
  191.6490  171.2510  142.8770 C   0  0  0  0  0  0  0  0  0  0  0  0
  190.5030  173.0530  141.6970 C   0  0  0  0  0  0  0  0  0  0  0  0
  191.7380  168.5650  140.3490 C   0  0  0  0  0  2  0  0  0  0  0  0
  190.7190  169.7130  139.3240 S   0  0  0  0  0  0  0  0  0  0  0  0
  191.9600  169.1560  141.6280 O   0  0  0  0  0  0  0  0  0  0  0  0
  191.1690  172.5660  142.8440 C   0  0  0  0  0  3  0  0  0  0  0  0
  191.4770  170.4410  141.7510 C   0  0  0  0  0  0  0  0  0  0  0  0
  190.8120  170.9010  140.6420 C   0  0  0  0  0  0  0  0  0  0  0  0
  192.3010  170.7710  144.0070 O   0  0  0  0  0  1  0  0  0  0  0  0
  185.9370  176.3980  142.9840 C   0  0  0  0  0  2  0  0  0  0  0  0
  185.3910  177.7960  143.1740 C   0  0  0  0  0  2  0  0  0  0  0  0
  184.8270  178.3830  140.8930 N   0  0  0  0  0  1  0  0  0  0  0  0
  184.2630  178.0370  142.1890 C   0  0  0  0  0  2  0  0  0  0  0  0
  189.8960  176.7440  145.2480 C   0  0  2  0  0  3  0  0  0  0  0  0
  190.5240  175.6080  145.9350 N   0  0  0  0  0  2  0  0  0  0  0  0
  192.8520  176.1230  145.2280 N   0  0  0  0  0  2  0  0  0  0  0  0
  191.9340  175.3930  146.0520 C   0  0  0  0  0  0  0  0  0  0  0  0
  192.3560  174.5580  146.8920 O   0  0  0  0  0  0  0  0  0  0  0  0
  194.2380  175.8850  145.2100 N   0  0  0  0  0  0  0  0  0  0  0  0
  194.8590  177.1640  145.4870 C   0  0  0  0  0  1  0  0  0  0  0  0
  196.6130  175.0030  142.4700 O   0  0  0  0  0  1  0  0  0  0  0  0
  195.9890  174.8870  143.7160 C   0  0  1  0  0  0  0  0  0  0  0  0
  196.0500  173.4880  145.7160 C   0  0  2  0  0  3  0  0  0  0  0  0
  196.8450  174.4900  144.9070 C   0  0  0  0  0  2  0  0  0  0  0  0
  194.6010  175.5180  143.8370 C   0  0  1  0  0  3  0  0  0  0  0  0
  196.8740  172.2400  145.9410 C   0  0  0  0  0  1  0  0  0  0  0  0
  194.7990  173.1500  144.9270 C   0  0  0  0  0  2  0  0  0  0  0  0
  194.7770  173.9910  143.6460 C   0  0  2  0  0  3  0  0  0  0  0  0
  189.8320  177.7430  147.5010 C   0  0  0  0  0  2  0  0  0  0  0  0
  189.4740  177.8140  146.2160 C   0  0  0  0  0  3  0  0  0  0  0  0
  1  2  1  0  0  0  0
  1 19  1  1  0  0  0
  1  4  1  0  0  0  0
  2  6  1  6  0  0  0
  2  8  1  0  0  0  0
  3 11  1  1  0  0  0
  3  7  1  0  0  0  0
  4  5  1  0  0  0  0
  5 23  1  6  0  0  0
  6  3  1  0  0  0  0
  8  7  1  6  0  0  0
  8  5  1  0  0  0  0
  9 17  2  0  0  0  0
  9 11  1  0  0  0  0
 10 18  1  0  0  0  0
 11 15  2  0  0  0  0
 12 14  1  0  0  0  0
 13 12  1  0  0  0  0
 13 17  1  0  0  0  0
 14 16  1  0  0  0  0
 15 10  1  0  0  0  0
 16 10  2  0  0  0  0
 17 16  1  0  0  0  0
 19 20  1  0  0  0  0
 21 22  1  0  0  0  0
 22 20  1  0  0  0  0
 23 24  1  0  0  0  0
 23 39  1  1  0  0  0
 24 26  1  0  0  0  0
 25 26  1  0  0  0  0
 26 27  2  0  0  0  0
 28 25  1  0  0  0  0
 28 29  1  0  0  0  0
 31 30  1  6  0  0  0
 31 34  1  0  0  0  0
 31 33  1  0  0  0  0
 32 35  1  6  0  0  0
 33 32  1  0  0  0  0
 34 28  1  1  0  0  0
 36 32  1  0  0  0  0
 37 31  1  0  0  0  0
 37 34  1  0  0  0  0
 37 36  1  1  0  0  0
 39 38  2  0  0  0  0
M  END
>  <MODEL>
7

>  <REMARK>
 VINA RESULT:      -6.5      2.529      3.392
  Name = 
  9 active torsions:
  status: ('A' for Active; 'I' for Inactive)
    1  A    between atoms: C_5  and  C_28
    2  A    between atoms: N_6  and  N_16
    3  A    between atoms: N_6  and  C_23
    4  A    between atoms: N_7  and  C_30
    5  A    between atoms: C_10  and  C_14
    6  A    between atoms: C_13  and  C_24
    7  A    between atoms: C_13  and  C_28
    8  A    between atoms: C_22  and  C_30
    9  A    between atoms: C_26  and  C_30
                            x       y       z     vdW  Elec       q    Type
                         _______ _______ _______ _____ _____    ______ ____

>  <TORSDO>
F 9

$$$$
=
 OpenBabel11042417303D

 39 44  0  0  1  0  0  0  0  0999 V2000
  196.4560  173.3660  141.7030 C   0  0  2  0  0  3  0  0  0  0  0  0
  195.0140  173.7100  141.3370 C   0  0  1  0  0  3  0  0  0  0  0  0
  193.2770  172.0290  141.2520 C   0  0  1  0  0  3  0  0  0  0  0  0
  196.4730  173.1260  143.1460 N   0  0  0  0  0  2  0  0  0  0  0  0
  195.3020  173.8550  143.6080 C   0  0  1  0  0  3  0  0  0  0  0  0
  194.4050  172.6340  140.4480 C   0  0  0  0  0  2  0  0  0  0  0  0
  193.5820  172.4590  142.6640 C   0  0  0  0  0  2  0  0  0  0  0  0
  194.2600  173.7510  142.5820 N   0  0  2  0  0  0  0  0  0  0  0  0
  191.7260  172.9480  139.5170 C   0  0  0  0  0  3  0  0  0  0  0  0
  189.5540  172.9150  141.3070 C   0  0  0  0  0  0  0  0  0  0  0  0
  191.9260  172.5610  140.8570 C   0  0  0  0  0  0  0  0  0  0  0  0
  188.2360  173.8400  137.9870 C   0  0  0  0  0  2  0  0  0  0  0  0
  190.0000  173.7870  137.4480 S   0  0  0  0  0  0  0  0  0  0  0  0
  188.1710  173.5950  139.3910 O   0  0  0  0  0  0  0  0  0  0  0  0
  190.8300  172.5460  141.7490 C   0  0  0  0  0  3  0  0  0  0  0  0
  189.3820  173.2770  139.9680 C   0  0  0  0  0  0  0  0  0  0  0  0
  190.4450  173.3140  139.1020 C   0  0  0  0  0  0  0  0  0  0  0  0
  188.4780  172.9030  142.1860 O   0  0  0  0  0  1  0  0  0  0  0  0
  197.3540  174.5540  141.3610 C   0  0  0  0  0  2  0  0  0  0  0  0
  196.5640  175.6240  140.6410 C   0  0  0  0  0  2  0  0  0  0  0  0
  197.2150  176.6560  142.7320 N   0  0  0  0  0  1  0  0  0  0  0  0
  196.3680  176.8140  141.5610 C   0  0  0  0  0  2  0  0  0  0  0  0
  194.8390  173.4500  145.0190 C   0  0  2  0  0  3  0  0  0  0  0  0
  194.3840  174.6410  145.7460 N   0  0  0  0  0  2  0  0  0  0  0  0
  191.9680  174.3650  145.2270 N   0  0  0  0  0  2  0  0  0  0  0  0
  193.0160  174.9970  145.9720 C   0  0  0  0  0  0  0  0  0  0  0  0
  192.7470  175.8680  146.8380 O   0  0  0  0  0  0  0  0  0  0  0  0
  190.6150  174.7410  145.3160 N   0  0  0  0  0  0  0  0  0  0  0  0
  189.8630  173.5030  145.3120 C   0  0  0  0  0  1  0  0  0  0  0  0
  188.2850  176.2230  142.8050 O   0  0  0  0  0  1  0  0  0  0  0  0
  188.8580  176.0220  144.0650 C   0  0  1  0  0  0  0  0  0  0  0  0
  188.6410  176.8090  146.3660 C   0  0  2  0  0  3  0  0  0  0  0  0
  187.9380  176.0300  145.2750 C   0  0  0  0  0  2  0  0  0  0  0  0
  190.2780  175.4540  144.0790 C   0  0  1  0  0  3  0  0  0  0  0  0
  187.7330  177.9020  146.8820 C   0  0  0  0  0  1  0  0  0  0  0  0
  189.8940  177.4150  145.7630 C   0  0  0  0  0  2  0  0  0  0  0  0
  190.0130  176.9630  144.3050 C   0  0  2  0  0  3  0  0  0  0  0  0
  196.9190  173.3830  146.3410 C   0  0  0  0  0  2  0  0  0  0  0  0
  195.9120  172.7140  145.7720 C   0  0  0  0  0  3  0  0  0  0  0  0
  1 19  1  1  0  0  0
  1  4  1  0  0  0  0
  2  6  1  6  0  0  0
  2  1  1  0  0  0  0
  2  8  1  0  0  0  0
  3 11  1  6  0  0  0
  3  7  1  0  0  0  0
  4  5  1  0  0  0  0
  5 23  1  1  0  0  0
  6  3  1  0  0  0  0
  8  7  1  1  0  0  0
  8  5  1  0  0  0  0
  9 11  1  0  0  0  0
 10 15  1  0  0  0  0
 10 18  1  0  0  0  0
 11 15  2  0  0  0  0
 12 14  1  0  0  0  0
 13 12  1  0  0  0  0
 13 17  1  0  0  0  0
 14 16  1  0  0  0  0
 16 10  2  0  0  0  0
 17  9  2  0  0  0  0
 17 16  1  0  0  0  0
 20 19  1  0  0  0  0
 20 22  1  0  0  0  0
 22 21  1  0  0  0  0
 23 24  1  0  0  0  0
 23 39  1  1  0  0  0
 24 26  1  0  0  0  0
 25 28  1  0  0  0  0
 25 26  1  0  0  0  0
 26 27  2  0  0  0  0
 29 28  1  0  0  0  0
 31 30  1  6  0  0  0
 31 34  1  0  0  0  0
 31 37  1  0  0  0  0
 31 33  1  0  0  0  0
 32 35  1  6  0  0  0
 33 32  1  0  0  0  0
 34 37  1  0  0  0  0
 34 28  1  1  0  0  0
 36 32  1  0  0  0  0
 37 36  1  1  0  0  0
 39 38  2  0  0  0  0
M  END
>  <MODEL>
8

>  <REMARK>
 VINA RESULT:      -6.5      3.493      7.844
  Name = 
  9 active torsions:
  status: ('A' for Active; 'I' for Inactive)
    1  A    between atoms: C_5  and  C_28
    2  A    between atoms: N_6  and  N_16
    3  A    between atoms: N_6  and  C_23
    4  A    between atoms: N_7  and  C_30
    5  A    between atoms: C_10  and  C_14
    6  A    between atoms: C_13  and  C_24
    7  A    between atoms: C_13  and  C_28
    8  A    between atoms: C_22  and  C_30
    9  A    between atoms: C_26  and  C_30
                            x       y       z     vdW  Elec       q    Type
                         _______ _______ _______ _____ _____    ______ ____

>  <TORSDO>
F 9

$$$$
=
 OpenBabel11042417303D

 39 44  0  0  1  0  0  0  0  0999 V2000
  189.9890  172.2080  138.1740 C   0  0  2  0  0  3  0  0  0  0  0  0
  189.9000  173.3660  139.1670 C   0  0  1  0  0  3  0  0  0  0  0  0
  188.3910  173.3230  141.0560 C   0  0  1  0  0  3  0  0  0  0  0  0
  190.7060  171.1310  138.8540 N   0  0  0  0  0  2  0  0  0  0  0  0
  191.4570  171.8390  139.8790 C   0  0  1  0  0  3  0  0  0  0  0  0
  188.4570  173.6250  139.5770 C   0  0  0  0  0  2  0  0  0  0  0  0
  189.6330  172.5060  141.3030 C   0  0  0  0  0  2  0  0  0  0  0  0
  190.6450  172.9640  140.3520 N   0  0  2  0  0  0  0  0  0  0  0  0
  188.8880  174.4400  143.2390 C   0  0  0  0  0  3  0  0  0  0  0  0
  188.3770  176.9880  142.1570 C   0  0  0  0  0  0  0  0  0  0  0  0
  188.4390  174.5610  141.9090 C   0  0  0  0  0  0  0  0  0  0  0  0
  189.6830  177.4790  145.5730 C   0  0  0  0  0  2  0  0  0  0  0  0
  189.6680  175.6370  145.6730 S   0  0  0  0  0  0  0  0  0  0  0  0
  189.1350  177.8820  144.3190 O   0  0  0  0  0  0  0  0  0  0  0  0
  188.1860  175.8440  141.3730 C   0  0  0  0  0  3  0  0  0  0  0  0
  188.8410  176.8390  143.4670 C   0  0  0  0  0  0  0  0  0  0  0  0
  189.0690  175.5950  144.0000 C   0  0  0  0  0  0  0  0  0  0  0  0
  188.1250  178.2490  141.6300 O   0  0  0  0  0  1  0  0  0  0  0  0
  190.7750  172.6640  136.9460 C   0  0  0  0  0  2  0  0  0  0  0  0
  190.4850  174.1170  136.6410 C   0  0  0  0  0  2  0  0  0  0  0  0
  188.5010  175.2990  135.9130 N   0  0  0  0  0  1  0  0  0  0  0  0
  189.4030  174.2070  135.5820 C   0  0  0  0  0  2  0  0  0  0  0  0
  191.9840  170.9270  141.0010 C   0  0  2  0  0  3  0  0  0  0  0  0
  193.4310  171.1180  141.1500 N   0  0  0  0  0  2  0  0  0  0  0  0
  193.2910  172.7980  142.9790 N   0  0  0  0  0  2  0  0  0  0  0  0
  194.0590  171.8890  142.1810 C   0  0  0  0  0  0  0  0  0  0  0  0
  195.2930  171.7520  142.3790 O   0  0  0  0  0  0  0  0  0  0  0  0
  193.8570  173.6650  143.9310 N   0  0  0  0  0  0  0  0  0  0  0  0
  193.6430  173.0300  145.2160 C   0  0  0  0  0  1  0  0  0  0  0  0
  193.0500  177.1620  144.9560 O   0  0  0  0  0  1  0  0  0  0  0  0
  193.8270  176.1220  144.4350 C   0  0  1  0  0  0  0  0  0  0  0  0
  196.0350  175.7420  143.4650 C   0  0  2  0  0  3  0  0  0  0  0  0
  195.3160  176.1240  144.7410 C   0  0  0  0  0  2  0  0  0  0  0  0
  193.0640  174.8990  143.9240 C   0  0  1  0  0  3  0  0  0  0  0  0
  197.0870  176.7790  143.1390 C   0  0  0  0  0  1  0  0  0  0  0  0
  195.0020  175.6840  142.3550 C   0  0  0  0  0  2  0  0  0  0  0  0
  193.6190  175.9670  142.9480 C   0  0  2  0  0  3  0  0  0  0  0  0
  190.9330  168.7970  141.6660 C   0  0  0  0  0  2  0  0  0  0  0  0
  191.6360  169.4840  140.7610 C   0  0  0  0  0  3  0  0  0  0  0  0
  1 19  1  6  0  0  0
  1  4  1  0  0  0  0
  1  2  1  0  0  0  0
  2  6  1  1  0  0  0
  2  8  1  0  0  0  0
  3  7  1  0  0  0  0
  3 11  1  1  0  0  0
  4  5  1  0  0  0  0
  5  8  1  0  0  0  0
  5 23  1  1  0  0  0
  6  3  1  0  0  0  0
  8  7  1  1  0  0  0
  9 17  1  0  0  0  0
 10 16  1  0  0  0  0
 11  9  2  0  0  0  0
 12 13  1  0  0  0  0
 14 12  1  0  0  0  0
 15 11  1  0  0  0  0
 15 10  2  0  0  0  0
 16 17  2  0  0  0  0
 16 14  1  0  0  0  0
 17 13  1  0  0  0  0
 18 10  1  0  0  0  0
 20 19  1  0  0  0  0
 22 21  1  0  0  0  0
 22 20  1  0  0  0  0
 23 39  1  6  0  0  0
 23 24  1  0  0  0  0
 24 26  1  0  0  0  0
 25 28  1  0  0  0  0
 26 27  2  0  0  0  0
 26 25  1  0  0  0  0
 28 29  1  0  0  0  0
 31 33  1  0  0  0  0
 31 30  1  1  0  0  0
 32 35  1  6  0  0  0
 32 33  1  0  0  0  0
 34 28  1  6  0  0  0
 34 31  1  0  0  0  0
 36 32  1  0  0  0  0
 37 36  1  6  0  0  0
 37 34  1  0  0  0  0
 37 31  1  0  0  0  0
 39 38  2  0  0  0  0
M  END
>  <MODEL>
9

>  <REMARK>
 VINA RESULT:      -6.4      4.171      7.155
  Name = 
  9 active torsions:
  status: ('A' for Active; 'I' for Inactive)
    1  A    between atoms: C_5  and  C_28
    2  A    between atoms: N_6  and  N_16
    3  A    between atoms: N_6  and  C_23
    4  A    between atoms: N_7  and  C_30
    5  A    between atoms: C_10  and  C_14
    6  A    between atoms: C_13  and  C_24
    7  A    between atoms: C_13  and  C_28
    8  A    between atoms: C_22  and  C_30
    9  A    between atoms: C_26  and  C_30
                            x       y       z     vdW  Elec       q    Type
                         _______ _______ _______ _____ _____    ______ ____

>  <TORSDO>
F 9

$$$$
