=
 OpenBabel11042415203D

 47 51  0  0  1  0  0  0  0  0999 V2000
  188.4610  175.0280  142.8280 C   0  0  0  0  0  0  0  0  0  0  0  0
  189.5950  175.1510  143.5710 N   0  0  0  0  0  0  0  0  0  0  0  0
  189.7540  176.1580  144.4740 C   0  0  0  0  0  0  0  0  0  0  0  0
  188.7390  177.0990  144.6550 C   0  0  0  0  0  3  0  0  0  0  0  0
  187.4250  175.9510  142.9840 C   0  0  0  0  0  3  0  0  0  0  0  0
  187.5620  176.9940  143.9090 C   0  0  0  0  0  0  0  0  0  0  0  0
  191.2480  175.0030  146.1180 C   0  0  1  0  0  3  0  0  0  0  0  0
  195.3060  175.7970  142.7430 C   0  0  0  0  0  1  0  0  0  0  0  0
  191.0240  176.2760  145.2590 C   0  0  1  0  0  3  0  0  0  0  0  0
  195.5900  176.0370  145.1440 N   0  0  0  0  0  2  0  0  0  0  0  0
  193.6380  175.2770  145.7600 C   0  0  0  0  0  0  0  0  0  0  0  0
  194.7280  176.3720  144.0190 C   0  0  2  0  0  3  0  0  0  0  0  0
  192.1960  176.5720  144.3350 C   0  0  0  0  0  0  0  0  0  0  0  0
  192.1430  177.5200  143.5660 O   0  0  0  0  0  0  0  0  0  0  0  0
  194.8440  175.4480  146.1640 N   0  0  0  0  0  0  0  0  0  0  0  0
  193.4060  175.6770  144.3510 C   0  0  2  0  0  3  0  0  0  0  0  0
  192.5900  174.9200  146.6020 O   0  0  0  0  0  0  0  0  0  0  0  0
  189.9010  176.2200  147.6560 F   0  0  0  0  0  0  0  0  0  0  0  0
  190.2670  174.9410  147.2810 C   0  0  0  0  0  3  0  0  0  0  0  0
  189.1400  174.2200  146.9270 F   0  0  0  0  0  0  0  0  0  0  0  0
  188.3180  173.9180  141.8360 C   0  0  2  0  0  3  0  0  0  0  0  0
  188.4800  172.5620  142.5100 C   0  0  0  0  0  1  0  0  0  0  0  0
  189.2490  174.1180  140.6310 C   0  0  2  0  0  3  0  0  0  0  0  0
  189.0770  173.2650  138.3800 O   0  0  0  0  0  1  0  0  0  0  0  0
  188.4780  174.1160  139.3110 C   0  0  0  0  0  2  0  0  0  0  0  0
  190.4320  173.1510  140.6100 C   0  0  0  0  0  2  0  0  0  0  0  0
  191.7000  173.8550  141.0560 C   0  0  0  0  0  2  0  0  0  0  0  0
  192.1940  173.2440  142.2080 O   0  0  0  0  0  0  0  0  0  0  0  0
  193.4180  172.6970  141.8160 C   0  0  0  0  0  2  0  0  0  0  0  0
  195.9220  170.8360  145.8560 C   0  0  0  0  0  2  0  0  0  0  0  0
  194.5820  170.9610  145.1160 C   0  0  1  0  0  3  0  0  0  0  0  0
  194.5460  172.0490  143.9950 C   0  0  1  0  0  3  0  0  0  0  0  0
  192.8260  169.8180  144.3200 C   0  0  0  0  0  2  0  0  0  0  0  0
  196.6240  172.1870  145.9510 C   0  0  0  0  0  2  0  0  0  0  0  0
  196.8710  172.6960  144.5650 C   0  0  0  0  0  3  0  0  0  0  0  0
  192.6090  170.6640  143.0580 C   0  0  0  0  0  2  0  0  0  0  0  0
  195.9020  172.6160  143.6470 C   0  0  0  0  0  3  0  0  0  0  0  0
  194.1920  169.7030  144.6250 O   0  0  0  0  0  0  0  0  0  0  0  0
  193.8200  171.5510  142.7360 C   0  0  1  0  0  3  0  0  0  0  0  0
  186.5300  177.9650  144.0940 N   0  0  0  0  0  2  0  0  0  0  0  0
  185.1470  177.6210  144.4060 C   0  0  2  0  0  3  0  0  0  0  0  0
  184.2930  178.2520  143.4980 O   0  0  0  0  0  1  0  0  0  0  0  0
  184.7780  177.9990  145.8490 C   0  0  2  0  0  0  0  0  0  0  0  0
  184.4870  176.8590  146.5770 F   0  0  0  0  0  0  0  0  0  0  0  0
  183.6370  178.8030  145.8210 O   0  0  0  0  0  1  0  0  0  0  0  0
  186.5240  177.9900  147.5140 O   0  0  0  0  0  1  0  0  0  0  0  0
  185.8970  178.7740  146.5430 C   0  0  0  0  0  2  0  0  0  0  0  0
  1  5  2  0  0  0  0
  1  2  1  0  0  0  0
  2  3  2  0  0  0  0
  3  4  1  0  0  0  0
  5  6  1  0  0  0  0
  6 40  1  0  0  0  0
  6  4  2  0  0  0  0
  7 17  1  0  0  0  0
  7 19  1  1  0  0  0
  9  3  1  6  0  0  0
  9  7  1  0  0  0  0
 10 15  1  0  0  0  0
 11 15  2  0  0  0  0
 11 17  1  0  0  0  0
 12  8  1  6  0  0  0
 12 16  1  0  0  0  0
 12 10  1  0  0  0  0
 13  9  1  0  0  0  0
 14 13  2  0  0  0  0
 16 13  1  1  0  0  0
 16 11  1  0  0  0  0
 19 18  1  0  0  0  0
 20 19  1  0  0  0  0
 21 22  1  1  0  0  0
 21  1  1  0  0  0  0
 23 25  1  6  0  0  0
 23 21  1  0  0  0  0
 24 25  1  0  0  0  0
 26 23  1  0  0  0  0
 26 27  1  0  0  0  0
 27 28  1  0  0  0  0
 29 28  1  0  0  0  0
 30 34  1  0  0  0  0
 31 30  1  6  0  0  0
 32 37  1  6  0  0  0
 32 31  1  0  0  0  0
 33 38  1  0  0  0  0
 35 34  1  0  0  0  0
 36 33  1  0  0  0  0
 37 35  2  0  0  0  0
 38 31  1  0  0  0  0
 39 29  1  1  0  0  0
 39 36  1  0  0  0  0
 39 32  1  0  0  0  0
 40 41  1  0  0  0  0
 41 42  1  6  0  0  0
 41 43  1  0  0  0  0
 43 45  1  6  0  0  0
 43 47  1  0  0  0  0
 43 44  1  0  0  0  0
 47 46  1  0  0  0  0
M  END
>  <MODEL>
1

>  <REMARK>
 VINA RESULT:      -7.3      0.000      0.000
  Name = 
  14 active torsions:
  status: ('A' for Active; 'I' for Inactive)
    1  A    between atoms: C_1  and  C_32
    2  A    between atoms: C_1  and  C_39
    3  A    between atoms: C_2  and  C_28
    4  A    between atoms: C_4  and  C_18
    5  A    between atoms: C_6  and  C_33
    6  A    between atoms: C_6  and  C_44
    7  A    between atoms: C_7  and  C_16
    8  A    between atoms: O_8  and  C_10
    9  A    between atoms: O_8  and  C_39
   10  A    between atoms: C_10  and  C_42
   11  A    between atoms: C_18  and  C_32
   12  A    between atoms: C_32  and  C_36
   13  A    between atoms: C_33  and  N_34
   14  A    between atoms: N_34  and  C_38
                            x       y       z     vdW  Elec       q    Type
                         _______ _______ _______ _____ _____    ______ ____

>  <TORSDO>
F 14

$$$$
=
 OpenBabel11042415203D

 47 51  0  0  1  0  0  0  0  0999 V2000
  191.3490  174.3040  145.0290 C   0  0  0  0  0  0  0  0  0  0  0  0
  190.6040  173.6100  144.1250 N   0  0  0  0  0  0  0  0  0  0  0  0
  191.0920  173.2820  142.8960 C   0  0  0  0  0  0  0  0  0  0  0  0
  192.3870  173.6600  142.5360 C   0  0  0  0  0  3  0  0  0  0  0  0
  192.6480  174.6980  144.7020 C   0  0  0  0  0  3  0  0  0  0  0  0
  193.1740  174.3690  143.4470 C   0  0  0  0  0  0  0  0  0  0  0  0
  189.9030  173.4350  140.6980 C   0  0  1  0  0  3  0  0  0  0  0  0
  192.4590  168.9990  139.1910 C   0  0  0  0  0  1  0  0  0  0  0  0
  190.2370  172.5360  141.9180 C   0  0  1  0  0  3  0  0  0  0  0  0
  190.1290  169.3760  138.6140 N   0  0  0  0  0  2  0  0  0  0  0  0
  189.9740  171.4410  139.3090 C   0  0  0  0  0  0  0  0  0  0  0  0
  191.1020  169.4410  139.6960 C   0  0  2  0  0  3  0  0  0  0  0  0
  190.9030  171.2280  141.5170 C   0  0  0  0  0  0  0  0  0  0  0  0
  191.2640  170.4380  142.3760 O   0  0  0  0  0  0  0  0  0  0  0  0
  189.4560  170.5910  138.4970 N   0  0  0  0  0  0  0  0  0  0  0  0
  191.1430  170.9270  140.0620 C   0  0  2  0  0  3  0  0  0  0  0  0
  189.3970  172.6720  139.6010 O   0  0  0  0  0  0  0  0  0  0  0  0
  188.0590  174.0770  142.0590 F   0  0  0  0  0  0  0  0  0  0  0  0
  188.9150  174.5320  141.0730 C   0  0  0  0  0  3  0  0  0  0  0  0
  189.5870  175.6560  141.5220 F   0  0  0  0  0  0  0  0  0  0  0  0
  190.7830  174.6600  146.3670 C   0  0  2  0  0  3  0  0  0  0  0  0
  189.2940  174.3490  146.4280 C   0  0  0  0  0  1  0  0  0  0  0  0
  191.1240  176.1050  146.7550 C   0  0  2  0  0  3  0  0  0  0  0  0
  191.3410  177.5670  148.6640 O   0  0  0  0  0  1  0  0  0  0  0  0
  191.4290  176.2370  148.2480 C   0  0  0  0  0  2  0  0  0  0  0  0
  190.0830  177.1220  146.2860 C   0  0  0  0  0  2  0  0  0  0  0  0
  190.4230  177.6240  144.8960 C   0  0  0  0  0  2  0  0  0  0  0  0
  189.2590  178.0470  144.2550 O   0  0  0  0  0  0  0  0  0  0  0  0
  188.5330  176.8740  144.0390 C   0  0  0  0  0  2  0  0  0  0  0  0
  184.1320  178.5000  146.0500 C   0  0  0  0  0  2  0  0  0  0  0  0
  185.1390  178.6080  144.8960 C   0  0  1  0  0  3  0  0  0  0  0  0
  186.5280  177.9460  145.1680 C   0  0  1  0  0  3  0  0  0  0  0  0
  185.3630  178.6000  142.6660 C   0  0  0  0  0  2  0  0  0  0  0  0
  184.8400  178.5200  147.4010 C   0  0  0  0  0  2  0  0  0  0  0  0
  185.7870  177.3620  147.4610 C   0  0  0  0  0  3  0  0  0  0  0  0
  186.7080  177.8600  142.6170 C   0  0  0  0  0  2  0  0  0  0  0  0
  186.5650  177.0860  146.4090 C   0  0  0  0  0  3  0  0  0  0  0  0
  184.5590  178.1210  143.7130 O   0  0  0  0  0  0  0  0  0  0  0  0
  187.0400  177.1690  143.9460 C   0  0  1  0  0  3  0  0  0  0  0  0
  194.4960  174.7600  143.0690 N   0  0  0  0  0  2  0  0  0  0  0  0
  195.6770  173.9340  143.2960 C   0  0  2  0  0  3  0  0  0  0  0  0
  195.2810  172.6360  143.6310 O   0  0  0  0  0  1  0  0  0  0  0  0
  196.5820  174.5220  144.3900 C   0  0  2  0  0  0  0  0  0  0  0  0
  195.8420  175.3360  145.2290 F   0  0  0  0  0  0  0  0  0  0  0  0
  197.5670  175.3010  143.7810 O   0  0  0  0  0  1  0  0  0  0  0  0
  197.1210  173.6680  146.5800 O   0  0  0  0  0  1  0  0  0  0  0  0
  197.2690  173.4320  145.2120 C   0  0  0  0  0  2  0  0  0  0  0  0
  1 21  1  0  0  0  0
  2  1  2  0  0  0  0
  3  2  1  0  0  0  0
  4  3  2  0  0  0  0
  4  6  1  0  0  0  0
  5  1  1  0  0  0  0
  6  5  2  0  0  0  0
  7 19  1  1  0  0  0
  7  9  1  0  0  0  0
  9  3  1  1  0  0  0
 10 12  1  0  0  0  0
 11 17  1  0  0  0  0
 12  8  1  6  0  0  0
 12 16  1  0  0  0  0
 13  9  1  0  0  0  0
 13 14  2  0  0  0  0
 15 10  1  0  0  0  0
 15 11  2  0  0  0  0
 16 11  1  6  0  0  0
 16 13  1  0  0  0  0
 17  7  1  0  0  0  0
 19 20  1  0  0  0  0
 19 18  1  0  0  0  0
 21 22  1  6  0  0  0
 21 23  1  0  0  0  0
 23 26  1  1  0  0  0
 23 25  1  0  0  0  0
 25 24  1  0  0  0  0
 27 26  1  0  0  0  0
 28 27  1  0  0  0  0
 29 28  1  0  0  0  0
 30 34  1  0  0  0  0
 31 32  1  0  0  0  0
 31 30  1  1  0  0  0
 32 37  1  1  0  0  0
 33 38  1  0  0  0  0
 34 35  1  0  0  0  0
 36 33  1  0  0  0  0
 36 39  1  0  0  0  0
 37 35  2  0  0  0  0
 38 31  1  0  0  0  0
 39 29  1  1  0  0  0
 39 32  1  0  0  0  0
 40 41  1  0  0  0  0
 40  6  1  0  0  0  0
 41 42  1  1  0  0  0
 41 43  1  0  0  0  0
 43 45  1  6  0  0  0
 43 47  1  0  0  0  0
 43 44  1  0  0  0  0
 47 46  1  0  0  0  0
M  END
>  <MODEL>
2

>  <REMARK>
 VINA RESULT:      -7.0      2.975      9.136
  Name = 
  14 active torsions:
  status: ('A' for Active; 'I' for Inactive)
    1  A    between atoms: C_1  and  C_32
    2  A    between atoms: C_1  and  C_39
    3  A    between atoms: C_2  and  C_28
    4  A    between atoms: C_4  and  C_18
    5  A    between atoms: C_6  and  C_33
    6  A    between atoms: C_6  and  C_44
    7  A    between atoms: C_7  and  C_16
    8  A    between atoms: O_8  and  C_10
    9  A    between atoms: O_8  and  C_39
   10  A    between atoms: C_10  and  C_42
   11  A    between atoms: C_18  and  C_32
   12  A    between atoms: C_32  and  C_36
   13  A    between atoms: C_33  and  N_34
   14  A    between atoms: N_34  and  C_38
                            x       y       z     vdW  Elec       q    Type
                         _______ _______ _______ _____ _____    ______ ____

>  <TORSDO>
F 14

$$$$
=
 OpenBabel11042415203D

 47 51  0  0  1  0  0  0  0  0999 V2000
  190.0240  174.2030  142.1000 C   0  0  0  0  0  0  0  0  0  0  0  0
  189.0500  175.1140  142.3710 N   0  0  0  0  0  0  0  0  0  0  0  0
  189.3450  176.3970  142.7210 C   0  0  0  0  0  0  0  0  0  0  0  0
  190.6780  176.8060  142.8100 C   0  0  0  0  0  3  0  0  0  0  0  0
  191.3670  174.5780  142.1790 C   0  0  0  0  0  3  0  0  0  0  0  0
  191.6970  175.8920  142.5320 C   0  0  0  0  0  0  0  0  0  0  0  0
  186.9380  176.9510  142.3140 C   0  0  1  0  0  3  0  0  0  0  0  0
  186.2590  177.1560  147.6040 C   0  0  0  0  0  1  0  0  0  0  0  0
  188.2480  177.3670  143.0330 C   0  0  1  0  0  3  0  0  0  0  0  0
  185.1750  178.7500  146.1250 N   0  0  0  0  0  2  0  0  0  0  0  0
  185.7070  177.8150  144.2250 C   0  0  0  0  0  0  0  0  0  0  0  0
  186.4360  178.0830  146.4200 C   0  0  2  0  0  3  0  0  0  0  0  0
  188.0720  177.5050  144.5380 C   0  0  0  0  0  0  0  0  0  0  0  0
  189.0300  177.7850  145.2430 O   0  0  0  0  0  0  0  0  0  0  0  0
  184.8510  178.5950  144.7780 N   0  0  0  0  0  0  0  0  0  0  0  0
  186.7210  177.2660  145.1570 C   0  0  2  0  0  3  0  0  0  0  0  0
  185.8010  177.6310  142.8490 O   0  0  0  0  0  0  0  0  0  0  0  0
  185.7640  177.3020  140.2740 F   0  0  0  0  0  0  0  0  0  0  0  0
  187.0320  177.1900  140.8120 C   0  0  0  0  0  3  0  0  0  0  0  0
  187.7530  178.3420  140.5490 F   0  0  0  0  0  0  0  0  0  0  0  0
  189.6700  172.7980  141.7280 C   0  0  2  0  0  3  0  0  0  0  0  0
  188.6950  172.2000  142.7340 C   0  0  0  0  0  1  0  0  0  0  0  0
  190.9240  171.9410  141.5070 C   0  0  2  0  0  3  0  0  0  0  0  0
  191.6660  172.0260  139.2120 O   0  0  0  0  0  1  0  0  0  0  0  0
  190.9240  171.2790  140.1290 C   0  0  0  0  0  2  0  0  0  0  0  0
  191.1810  170.9380  142.6310 C   0  0  0  0  0  2  0  0  0  0  0  0
  192.6660  170.6560  142.7590 C   0  0  0  0  0  2  0  0  0  0  0  0
  193.3230  171.8010  143.2070 O   0  0  0  0  0  0  0  0  0  0  0  0
  192.8300  172.0040  144.4980 C   0  0  0  0  0  2  0  0  0  0  0  0
  191.2770  176.1230  147.0830 C   0  0  0  0  0  2  0  0  0  0  0  0
  192.4340  175.1700  146.7520 C   0  0  1  0  0  3  0  0  0  0  0  0
  192.0140  173.8380  146.0520 C   0  0  1  0  0  3  0  0  0  0  0  0
  194.5730  175.0610  146.0900 C   0  0  0  0  0  2  0  0  0  0  0  0
  190.0040  175.3490  147.4090 C   0  0  0  0  0  2  0  0  0  0  0  0
  189.6350  174.5150  146.2220 C   0  0  0  0  0  3  0  0  0  0  0  0
  194.4370  173.7970  145.2280 C   0  0  0  0  0  2  0  0  0  0  0  0
  190.5800  173.8210  145.5790 C   0  0  0  0  0  3  0  0  0  0  0  0
  193.4160  175.8530  146.0140 O   0  0  0  0  0  0  0  0  0  0  0  0
  192.9720  173.4650  144.9110 C   0  0  1  0  0  3  0  0  0  0  0  0
  193.0590  176.3150  142.6340 N   0  0  0  0  0  2  0  0  0  0  0  0
  194.1140  175.8560  141.7370 C   0  0  2  0  0  3  0  0  0  0  0  0
  194.0200  174.4710  141.5760 O   0  0  0  0  0  1  0  0  0  0  0  0
  195.5090  176.2470  142.2490 C   0  0  2  0  0  0  0  0  0  0  0  0
  195.3990  176.8970  143.4670 F   0  0  0  0  0  0  0  0  0  0  0  0
  196.0890  177.1260  141.3340 O   0  0  0  0  0  1  0  0  0  0  0  0
  197.2320  175.1520  143.5340 O   0  0  0  0  0  1  0  0  0  0  0  0
  196.4250  175.0330  142.4000 C   0  0  0  0  0  2  0  0  0  0  0  0
  1  5  2  0  0  0  0
  1  2  1  0  0  0  0
  2  3  2  0  0  0  0
  3  4  1  0  0  0  0
  5  6  1  0  0  0  0
  6 40  1  0  0  0  0
  6  4  2  0  0  0  0
  7 19  1  6  0  0  0
  7 17  1  0  0  0  0
  7  9  1  0  0  0  0
  9  3  1  1  0  0  0
  9 13  1  0  0  0  0
 10 12  1  0  0  0  0
 11 15  2  0  0  0  0
 12  8  1  1  0  0  0
 13 16  1  0  0  0  0
 13 14  2  0  0  0  0
 15 10  1  0  0  0  0
 16 11  1  6  0  0  0
 16 12  1  0  0  0  0
 17 11  1  0  0  0  0
 18 19  1  0  0  0  0
 20 19  1  0  0  0  0
 21  1  1  0  0  0  0
 21 22  1  1  0  0  0
 23 25  1  6  0  0  0
 23 21  1  0  0  0  0
 23 26  1  0  0  0  0
 24 25  1  0  0  0  0
 26 27  1  0  0  0  0
 27 28  1  0  0  0  0
 28 29  1  0  0  0  0
 30 34  1  0  0  0  0
 31 30  1  6  0  0  0
 32 37  1  6  0  0  0
 32 31  1  0  0  0  0
 35 34  1  0  0  0  0
 36 33  1  0  0  0  0
 37 35  2  0  0  0  0
 38 33  1  0  0  0  0
 38 31  1  0  0  0  0
 39 29  1  1  0  0  0
 39 36  1  0  0  0  0
 39 32  1  0  0  0  0
 41 42  1  1  0  0  0
 41 43  1  0  0  0  0
 41 40  1  0  0  0  0
 43 45  1  6  0  0  0
 43 47  1  0  0  0  0
 43 44  1  0  0  0  0
 47 46  1  0  0  0  0
M  END
>  <MODEL>
3

>  <REMARK>
 VINA RESULT:      -6.9      2.723      7.003
  Name = 
  14 active torsions:
  status: ('A' for Active; 'I' for Inactive)
    1  A    between atoms: C_1  and  C_32
    2  A    between atoms: C_1  and  C_39
    3  A    between atoms: C_2  and  C_28
    4  A    between atoms: C_4  and  C_18
    5  A    between atoms: C_6  and  C_33
    6  A    between atoms: C_6  and  C_44
    7  A    between atoms: C_7  and  C_16
    8  A    between atoms: O_8  and  C_10
    9  A    between atoms: O_8  and  C_39
   10  A    between atoms: C_10  and  C_42
   11  A    between atoms: C_18  and  C_32
   12  A    between atoms: C_32  and  C_36
   13  A    between atoms: C_33  and  N_34
   14  A    between atoms: N_34  and  C_38
                            x       y       z     vdW  Elec       q    Type
                         _______ _______ _______ _____ _____    ______ ____

>  <TORSDO>
F 14

$$$$
=
 OpenBabel11042415203D

 47 51  0  0  1  0  0  0  0  0999 V2000
  193.9250  174.6840  143.7870 C   0  0  0  0  0  0  0  0  0  0  0  0
  192.7200  174.2830  143.2950 N   0  0  0  0  0  0  0  0  0  0  0  0
  192.3910  172.9660  143.1890 C   0  0  0  0  0  0  0  0  0  0  0  0
  193.3020  171.9860  143.5890 C   0  0  0  0  0  3  0  0  0  0  0  0
  194.8590  173.7300  144.1980 C   0  0  0  0  0  3  0  0  0  0  0  0
  194.5430  172.3690  144.1030 C   0  0  0  0  0  0  0  0  0  0  0  0
  189.9370  173.4560  143.1970 C   0  0  1  0  0  3  0  0  0  0  0  0
  190.1490  173.7920  137.8750 C   0  0  0  0  0  1  0  0  0  0  0  0
  191.0660  172.5610  142.6220 C   0  0  1  0  0  3  0  0  0  0  0  0
  188.2740  172.7360  139.0030 N   0  0  0  0  0  2  0  0  0  0  0  0
  188.8070  173.2760  141.0510 C   0  0  0  0  0  0  0  0  0  0  0  0
  189.7280  172.8250  138.9600 C   0  0  2  0  0  3  0  0  0  0  0  0
  191.1090  172.5770  141.1010 C   0  0  0  0  0  0  0  0  0  0  0  0
  191.9750  171.9530  140.5080 O   0  0  0  0  0  0  0  0  0  0  0  0
  187.8160  172.9530  140.3020 N   0  0  0  0  0  0  0  0  0  0  0  0
  190.1000  173.3890  140.3340 C   0  0  2  0  0  3  0  0  0  0  0  0
  188.7310  173.3420  142.4380 O   0  0  0  0  0  0  0  0  0  0  0  0
  190.1660  171.8820  144.9670 F   0  0  0  0  0  0  0  0  0  0  0  0
  189.6660  173.1340  144.6610 C   0  0  0  0  0  3  0  0  0  0  0  0
  190.2510  174.0810  145.4820 F   0  0  0  0  0  0  0  0  0  0  0  0
  194.2630  176.1370  143.8820 C   0  0  2  0  0  3  0  0  0  0  0  0
  195.7680  176.3390  144.0050 C   0  0  0  0  0  1  0  0  0  0  0  0
  193.4590  176.8310  144.9910 C   0  0  2  0  0  3  0  0  0  0  0  0
  192.6600  175.5930  146.9020 O   0  0  0  0  0  1  0  0  0  0  0  0
  193.7720  176.2480  146.3690 C   0  0  0  0  0  2  0  0  0  0  0  0
  191.9570  176.8820  144.7120 C   0  0  0  0  0  2  0  0  0  0  0  0
  191.6530  177.9010  143.6310 C   0  0  0  0  0  2  0  0  0  0  0  0
  190.3120  178.2750  143.7050 O   0  0  0  0  0  0  0  0  0  0  0  0
  189.6540  177.1280  144.1560 C   0  0  0  0  0  2  0  0  0  0  0  0
  184.8490  177.9630  145.6650 C   0  0  0  0  0  2  0  0  0  0  0  0
  185.9620  178.3000  144.6620 C   0  0  1  0  0  3  0  0  0  0  0  0
  187.3900  177.8190  145.0730 C   0  0  1  0  0  3  0  0  0  0  0  0
  186.4540  178.5000  142.4840 C   0  0  0  0  0  2  0  0  0  0  0  0
  185.3770  177.9740  147.0950 C   0  0  0  0  0  2  0  0  0  0  0  0
  186.4710  176.9570  147.2090 C   0  0  0  0  0  3  0  0  0  0  0  0
  187.8900  177.9600  142.5670 C   0  0  0  0  0  2  0  0  0  0  0  0
  187.4030  176.8770  146.2540 C   0  0  0  0  0  3  0  0  0  0  0  0
  185.6090  177.8320  143.3850 O   0  0  0  0  0  0  0  0  0  0  0  0
  188.1570  177.2190  143.8850 C   0  0  1  0  0  3  0  0  0  0  0  0
  195.4730  171.3600  144.5040 N   0  0  0  0  0  2  0  0  0  0  0  0
  195.9510  171.2040  145.8730 C   0  0  2  0  0  3  0  0  0  0  0  0
  197.1700  171.8710  146.0210 O   0  0  0  0  0  1  0  0  0  0  0  0
  196.0940  169.7240  146.2620 C   0  0  2  0  0  0  0  0  0  0  0  0
  196.8630  169.6080  147.4070 F   0  0  0  0  0  0  0  0  0  0  0  0
  196.7460  169.0520  145.2270 O   0  0  0  0  0  1  0  0  0  0  0  0
  194.5690  168.7080  147.8310 O   0  0  0  0  0  1  0  0  0  0  0  0
  194.7370  169.0580  146.4890 C   0  0  0  0  0  2  0  0  0  0  0  0
  1 21  1  0  0  0  0
  1  5  1  0  0  0  0
  2  1  2  0  0  0  0
  3  2  1  0  0  0  0
  3  4  2  0  0  0  0
  4  6  1  0  0  0  0
  6  5  2  0  0  0  0
  6 40  1  0  0  0  0
  7 19  1  1  0  0  0
  9  3  1  1  0  0  0
  9  7  1  0  0  0  0
 10 15  1  0  0  0  0
 11 17  1  0  0  0  0
 12  8  1  6  0  0  0
 12 10  1  0  0  0  0
 12 16  1  0  0  0  0
 13  9  1  0  0  0  0
 14 13  2  0  0  0  0
 15 11  2  0  0  0  0
 16 11  1  1  0  0  0
 16 13  1  0  0  0  0
 17  7  1  0  0  0  0
 19 18  1  0  0  0  0
 19 20  1  0  0  0  0
 21 22  1  1  0  0  0
 21 23  1  0  0  0  0
 23 26  1  6  0  0  0
 23 25  1  0  0  0  0
 25 24  1  0  0  0  0
 27 28  1  0  0  0  0
 27 26  1  0  0  0  0
 28 29  1  0  0  0  0
 30 34  1  0  0  0  0
 31 32  1  0  0  0  0
 31 30  1  1  0  0  0
 32 37  1  1  0  0  0
 33 36  1  0  0  0  0
 33 38  1  0  0  0  0
 34 35  1  0  0  0  0
 36 39  1  0  0  0  0
 37 35  2  0  0  0  0
 38 31  1  0  0  0  0
 39 29  1  1  0  0  0
 39 32  1  0  0  0  0
 40 41  1  0  0  0  0
 41 42  1  6  0  0  0
 41 43  1  0  0  0  0
 43 45  1  6  0  0  0
 43 47  1  0  0  0  0
 43 44  1  0  0  0  0
 47 46  1  0  0  0  0
M  END
>  <MODEL>
4

>  <REMARK>
 VINA RESULT:      -6.8      2.526      9.153
  Name = 
  14 active torsions:
  status: ('A' for Active; 'I' for Inactive)
    1  A    between atoms: C_1  and  C_32
    2  A    between atoms: C_1  and  C_39
    3  A    between atoms: C_2  and  C_28
    4  A    between atoms: C_4  and  C_18
    5  A    between atoms: C_6  and  C_33
    6  A    between atoms: C_6  and  C_44
    7  A    between atoms: C_7  and  C_16
    8  A    between atoms: O_8  and  C_10
    9  A    between atoms: O_8  and  C_39
   10  A    between atoms: C_10  and  C_42
   11  A    between atoms: C_18  and  C_32
   12  A    between atoms: C_32  and  C_36
   13  A    between atoms: C_33  and  N_34
   14  A    between atoms: N_34  and  C_38
                            x       y       z     vdW  Elec       q    Type
                         _______ _______ _______ _____ _____    ______ ____

>  <TORSDO>
F 14

$$$$
=
 OpenBabel11042415203D

 47 51  0  0  1  0  0  0  0  0999 V2000
  188.8540  174.8280  142.8800 C   0  0  0  0  0  0  0  0  0  0  0  0
  190.0110  174.9580  143.5870 N   0  0  0  0  0  0  0  0  0  0  0  0
  190.2660  176.0570  144.3490 C   0  0  0  0  0  0  0  0  0  0  0  0
  189.3290  177.0900  144.4190 C   0  0  0  0  0  3  0  0  0  0  0  0
  187.8950  175.8420  142.9280 C   0  0  0  0  0  3  0  0  0  0  0  0
  188.1320  176.9810  143.7080 C   0  0  0  0  0  0  0  0  0  0  0  0
  191.6740  175.0500  146.1580 C   0  0  1  0  0  3  0  0  0  0  0  0
  195.7130  174.8410  142.6770 C   0  0  0  0  0  1  0  0  0  0  0  0
  191.5590  176.1750  145.0960 C   0  0  1  0  0  3  0  0  0  0  0  0
  196.0740  175.4530  145.0000 N   0  0  0  0  0  2  0  0  0  0  0  0
  194.0700  175.0120  145.7470 C   0  0  0  0  0  0  0  0  0  0  0  0
  195.2260  175.6800  143.8380 C   0  0  2  0  0  3  0  0  0  0  0  0
  192.7340  176.1890  144.1290 C   0  0  0  0  0  0  0  0  0  0  0  0
  192.7590  176.9930  143.2090 O   0  0  0  0  0  0  0  0  0  0  0  0
  195.2960  175.1250  146.1090 N   0  0  0  0  0  0  0  0  0  0  0  0
  193.8480  175.1900  144.2910 C   0  0  2  0  0  3  0  0  0  0  0  0
  193.0110  174.9140  146.6430 O   0  0  0  0  0  0  0  0  0  0  0  0
  189.6230  174.4510  147.2070 F   0  0  0  0  0  0  0  0  0  0  0  0
  190.7180  175.2870  147.3200 C   0  0  0  0  0  3  0  0  0  0  0  0
  191.3550  175.0590  148.5270 F   0  0  0  0  0  0  0  0  0  0  0  0
  188.6060  173.6150  142.0420 C   0  0  2  0  0  3  0  0  0  0  0  0
  188.8340  172.3430  142.8480 C   0  0  0  0  0  1  0  0  0  0  0  0
  189.4050  173.6620  140.7330 C   0  0  2  0  0  3  0  0  0  0  0  0
  187.9700  172.6190  139.0960 O   0  0  0  0  0  1  0  0  0  0  0  0
  188.4950  173.8420  139.5170 C   0  0  0  0  0  2  0  0  0  0  0  0
  190.3670  172.4860  140.5650 C   0  0  0  0  0  2  0  0  0  0  0  0
  191.6690  172.9520  139.9420 C   0  0  0  0  0  2  0  0  0  0  0  0
  192.2700  171.8910  139.2660 O   0  0  0  0  0  0  0  0  0  0  0  0
  192.5730  170.9660  140.2670 C   0  0  0  0  0  2  0  0  0  0  0  0
  195.3620  171.4900  144.5110 C   0  0  0  0  0  2  0  0  0  0  0  0
  195.2750  170.9180  143.0880 C   0  0  1  0  0  3  0  0  0  0  0  0
  193.8420  170.9130  142.4650 C   0  0  1  0  0  3  0  0  0  0  0  0
  196.3340  170.7610  141.1190 C   0  0  0  0  0  2  0  0  0  0  0  0
  194.0870  171.2030  145.2970 C   0  0  0  0  0  2  0  0  0  0  0  0
  192.9320  171.8310  144.5810 C   0  0  0  0  0  3  0  0  0  0  0  0
  195.0850  170.8360  140.2290 C   0  0  0  0  0  2  0  0  0  0  0  0
  192.8280  171.7070  143.2530 C   0  0  0  0  0  3  0  0  0  0  0  0
  196.1970  171.5740  142.2550 O   0  0  0  0  0  0  0  0  0  0  0  0
  193.8570  171.3510  140.9920 C   0  0  1  0  0  3  0  0  0  0  0  0
  187.1800  178.0460  143.7780 N   0  0  0  0  0  2  0  0  0  0  0  0
  186.2240  178.2010  144.8690 C   0  0  2  0  0  3  0  0  0  0  0  0
  185.8840  176.9440  145.3740 O   0  0  0  0  0  1  0  0  0  0  0  0
  184.9670  178.9620  144.4200 C   0  0  2  0  0  0  0  0  0  0  0  0
  185.3120  180.2270  143.9790 F   0  0  0  0  0  0  0  0  0  0  0  0
  184.1140  179.0990  145.5160 O   0  0  0  0  0  1  0  0  0  0  0  0
  184.5990  178.6850  142.0520 O   0  0  0  0  0  1  0  0  0  0  0  0
  184.2150  178.2240  143.3130 C   0  0  0  0  0  2  0  0  0  0  0  0
  1  5  2  0  0  0  0
  1  2  1  0  0  0  0
  2  3  2  0  0  0  0
  3  4  1  0  0  0  0
  5  6  1  0  0  0  0
  6 40  1  0  0  0  0
  6  4  2  0  0  0  0
  7 17  1  0  0  0  0
  7 19  1  1  0  0  0
  9  3  1  6  0  0  0
  9  7  1  0  0  0  0
 10 15  1  0  0  0  0
 11 15  2  0  0  0  0
 11 17  1  0  0  0  0
 12  8  1  6  0  0  0
 12 16  1  0  0  0  0
 12 10  1  0  0  0  0
 13  9  1  0  0  0  0
 14 13  2  0  0  0  0
 16 13  1  1  0  0  0
 16 11  1  0  0  0  0
 18 19  1  0  0  0  0
 19 20  1  0  0  0  0
 21 22  1  1  0  0  0
 21  1  1  0  0  0  0
 23 25  1  6  0  0  0
 23 21  1  0  0  0  0
 24 25  1  0  0  0  0
 26 23  1  0  0  0  0
 27 26  1  0  0  0  0
 28 27  1  0  0  0  0
 28 29  1  0  0  0  0
 30 34  1  0  0  0  0
 31 30  1  1  0  0  0
 32 31  1  0  0  0  0
 32 37  1  1  0  0  0
 33 38  1  0  0  0  0
 35 34  1  0  0  0  0
 36 39  1  0  0  0  0
 36 33  1  0  0  0  0
 37 35  2  0  0  0  0
 38 31  1  0  0  0  0
 39 29  1  6  0  0  0
 39 32  1  0  0  0  0
 40 41  1  0  0  0  0
 41 42  1  6  0  0  0
 43 44  1  6  0  0  0
 43 41  1  0  0  0  0
 43 45  1  0  0  0  0
 46 47  1  0  0  0  0
 47 43  1  0  0  0  0
M  END
>  <MODEL>
5

>  <REMARK>
 VINA RESULT:      -6.8      1.536      2.166
  Name = 
  14 active torsions:
  status: ('A' for Active; 'I' for Inactive)
    1  A    between atoms: C_1  and  C_32
    2  A    between atoms: C_1  and  C_39
    3  A    between atoms: C_2  and  C_28
    4  A    between atoms: C_4  and  C_18
    5  A    between atoms: C_6  and  C_33
    6  A    between atoms: C_6  and  C_44
    7  A    between atoms: C_7  and  C_16
    8  A    between atoms: O_8  and  C_10
    9  A    between atoms: O_8  and  C_39
   10  A    between atoms: C_10  and  C_42
   11  A    between atoms: C_18  and  C_32
   12  A    between atoms: C_32  and  C_36
   13  A    between atoms: C_33  and  N_34
   14  A    between atoms: N_34  and  C_38
                            x       y       z     vdW  Elec       q    Type
                         _______ _______ _______ _____ _____    ______ ____

>  <TORSDO>
F 14

$$$$
=
 OpenBabel11042415203D

 47 51  0  0  1  0  0  0  0  0999 V2000
  189.8150  174.1370  142.7720 C   0  0  0  0  0  0  0  0  0  0  0  0
  189.0370  175.2170  143.0570 N   0  0  0  0  0  0  0  0  0  0  0  0
  189.5660  176.3730  143.5460 C   0  0  0  0  0  0  0  0  0  0  0  0
  190.9410  176.4700  143.7690 C   0  0  0  0  0  3  0  0  0  0  0  0
  191.1940  174.2000  142.9830 C   0  0  0  0  0  3  0  0  0  0  0  0
  191.7640  175.3780  143.4810 C   0  0  0  0  0  0  0  0  0  0  0  0
  187.4540  177.5590  142.9150 C   0  0  1  0  0  3  0  0  0  0  0  0
  185.9220  177.2060  148.0150 C   0  0  0  0  0  1  0  0  0  0  0  0
  188.6780  177.5340  143.8690 C   0  0  1  0  0  3  0  0  0  0  0  0
  185.5000  179.2060  146.7010 N   0  0  0  0  0  2  0  0  0  0  0  0
  186.1330  178.4340  144.7590 C   0  0  0  0  0  0  0  0  0  0  0  0
  186.5070  178.2120  147.0460 C   0  0  2  0  0  3  0  0  0  0  0  0
  188.2750  177.5060  145.3360 C   0  0  0  0  0  0  0  0  0  0  0  0
  189.1330  177.4390  146.2040 O   0  0  0  0  0  0  0  0  0  0  0  0
  185.3900  179.3210  145.3170 N   0  0  0  0  0  0  0  0  0  0  0  0
  186.8180  177.5290  145.7120 C   0  0  2  0  0  3  0  0  0  0  0  0
  186.4230  178.4220  143.3990 O   0  0  0  0  0  0  0  0  0  0  0  0
  189.0930  178.5960  141.5340 F   0  0  0  0  0  0  0  0  0  0  0  0
  187.8610  177.9690  141.5050 C   0  0  0  0  0  3  0  0  0  0  0  0
  187.9210  176.8620  140.6770 F   0  0  0  0  0  0  0  0  0  0  0  0
  189.2050  172.8770  142.2460 C   0  0  2  0  0  3  0  0  0  0  0  0
  189.1800  171.7960  143.3190 C   0  0  0  0  0  1  0  0  0  0  0  0
  189.8760  172.4290  140.9410 C   0  0  2  0  0  3  0  0  0  0  0  0
  189.3490  171.6170  138.7300 O   0  0  0  0  0  1  0  0  0  0  0  0
  188.8990  172.4390  139.7650 C   0  0  0  0  0  2  0  0  0  0  0  0
  190.6180  171.0980  141.0640 C   0  0  0  0  0  2  0  0  0  0  0  0
  192.1040  171.2960  140.8390 C   0  0  0  0  0  2  0  0  0  0  0  0
  192.8180  170.3410  141.5610 O   0  0  0  0  0  0  0  0  0  0  0  0
  192.6430  170.7100  142.8970 C   0  0  0  0  0  2  0  0  0  0  0  0
  196.6510  171.5470  145.9460 C   0  0  0  0  0  2  0  0  0  0  0  0
  195.3200  170.8100  145.7410 C   0  0  1  0  0  3  0  0  0  0  0  0
  194.4350  171.3570  144.5750 C   0  0  1  0  0  3  0  0  0  0  0  0
  194.3150  168.8080  145.8120 C   0  0  0  0  0  2  0  0  0  0  0  0
  196.5210  173.0240  145.5900 C   0  0  0  0  0  2  0  0  0  0  0  0
  196.1100  173.1360  144.1540 C   0  0  0  0  0  3  0  0  0  0  0  0
  193.3780  169.0260  144.6150 C   0  0  0  0  0  2  0  0  0  0  0  0
  195.1440  172.3430  143.6780 C   0  0  0  0  0  3  0  0  0  0  0  0
  195.5560  169.4310  145.6060 O   0  0  0  0  0  0  0  0  0  0  0  0
  193.8060  170.2210  143.7530 C   0  0  1  0  0  3  0  0  0  0  0  0
  193.1700  175.4820  143.7190 N   0  0  0  0  0  2  0  0  0  0  0  0
  193.7500  176.3140  144.7670 C   0  0  2  0  0  3  0  0  0  0  0  0
  195.0840  176.5900  144.4590 O   0  0  0  0  0  1  0  0  0  0  0  0
  193.6400  175.6490  146.1490 C   0  0  2  0  0  0  0  0  0  0  0  0
  194.8680  175.6800  146.7860 F   0  0  0  0  0  0  0  0  0  0  0  0
  193.2700  174.3150  145.9740 O   0  0  0  0  0  1  0  0  0  0  0  0
  191.5320  175.4630  147.3080 O   0  0  0  0  0  1  0  0  0  0  0  0
  192.5910  176.3290  147.0290 C   0  0  0  0  0  2  0  0  0  0  0  0
  1  5  2  0  0  0  0
  1  2  1  0  0  0  0
  2  3  2  0  0  0  0
  3  4  1  0  0  0  0
  5  6  1  0  0  0  0
  6 40  1  0  0  0  0
  6  4  2  0  0  0  0
  7 19  1  6  0  0  0
  7 17  1  0  0  0  0
  7  9  1  0  0  0  0
  9  3  1  6  0  0  0
  9 13  1  0  0  0  0
 10 12  1  0  0  0  0
 11 15  2  0  0  0  0
 12  8  1  1  0  0  0
 13 16  1  0  0  0  0
 13 14  2  0  0  0  0
 15 10  1  0  0  0  0
 16 11  1  6  0  0  0
 16 12  1  0  0  0  0
 17 11  1  0  0  0  0
 19 18  1  0  0  0  0
 20 19  1  0  0  0  0
 21  1  1  0  0  0  0
 21 22  1  1  0  0  0
 23 25  1  6  0  0  0
 23 26  1  0  0  0  0
 23 21  1  0  0  0  0
 24 25  1  0  0  0  0
 27 26  1  0  0  0  0
 27 28  1  0  0  0  0
 28 29  1  0  0  0  0
 31 30  1  6  0  0  0
 32 37  1  6  0  0  0
 32 31  1  0  0  0  0
 34 30  1  0  0  0  0
 35 34  1  0  0  0  0
 36 33  1  0  0  0  0
 37 35  2  0  0  0  0
 38 31  1  0  0  0  0
 38 33  1  0  0  0  0
 39 29  1  1  0  0  0
 39 32  1  0  0  0  0
 39 36  1  0  0  0  0
 40 41  1  0  0  0  0
 41 42  1  6  0  0  0
 41 43  1  0  0  0  0
 43 45  1  6  0  0  0
 43 44  1  0  0  0  0
 43 47  1  0  0  0  0
 47 46  1  0  0  0  0
M  END
>  <MODEL>
6

>  <REMARK>
 VINA RESULT:      -6.7      2.298      5.746
  Name = 
  14 active torsions:
  status: ('A' for Active; 'I' for Inactive)
    1  A    between atoms: C_1  and  C_32
    2  A    between atoms: C_1  and  C_39
    3  A    between atoms: C_2  and  C_28
    4  A    between atoms: C_4  and  C_18
    5  A    between atoms: C_6  and  C_33
    6  A    between atoms: C_6  and  C_44
    7  A    between atoms: C_7  and  C_16
    8  A    between atoms: O_8  and  C_10
    9  A    between atoms: O_8  and  C_39
   10  A    between atoms: C_10  and  C_42
   11  A    between atoms: C_18  and  C_32
   12  A    between atoms: C_32  and  C_36
   13  A    between atoms: C_33  and  N_34
   14  A    between atoms: N_34  and  C_38
                            x       y       z     vdW  Elec       q    Type
                         _______ _______ _______ _____ _____    ______ ____

>  <TORSDO>
F 14

$$$$
=
 OpenBabel11042415203D

 47 51  0  0  1  0  0  0  0  0999 V2000
  192.1320  174.0190  144.6580 C   0  0  0  0  0  0  0  0  0  0  0  0
  193.2610  173.2570  144.6670 N   0  0  0  0  0  0  0  0  0  0  0  0
  193.3650  172.1210  143.9240 C   0  0  0  0  0  0  0  0  0  0  0  0
  192.2950  171.7080  143.1270 C   0  0  0  0  0  3  0  0  0  0  0  0
  191.0430  173.6370  143.8710 C   0  0  0  0  0  3  0  0  0  0  0  0
  191.1270  172.4740  143.0950 C   0  0  0  0  0  0  0  0  0  0  0  0
  195.8460  172.1970  144.2480 C   0  0  1  0  0  3  0  0  0  0  0  0
  195.3050  168.4660  148.0260 C   0  0  0  0  0  1  0  0  0  0  0  0
  194.6130  171.2950  143.9750 C   0  0  1  0  0  3  0  0  0  0  0  0
  197.1610  168.4220  146.4590 N   0  0  0  0  0  2  0  0  0  0  0  0
  196.8110  170.3610  145.5170 C   0  0  0  0  0  0  0  0  0  0  0  0
  195.7200  168.5970  146.5760 C   0  0  2  0  0  3  0  0  0  0  0  0
  194.4700  170.1750  144.9950 C   0  0  0  0  0  0  0  0  0  0  0  0
  193.5190  169.4100  144.9330 O   0  0  0  0  0  0  0  0  0  0  0  0
  197.7210  169.4870  145.7550 N   0  0  0  0  0  0  0  0  0  0  0  0
  195.4860  170.0320  146.0960 C   0  0  2  0  0  3  0  0  0  0  0  0
  196.9850  171.4310  144.6460 O   0  0  0  0  0  0  0  0  0  0  0  0
  195.6350  172.4910  141.8960 F   0  0  0  0  0  0  0  0  0  0  0  0
  196.1870  173.0500  143.0340 C   0  0  0  0  0  3  0  0  0  0  0  0
  195.7100  174.3390  143.1970 F   0  0  0  0  0  0  0  0  0  0  0  0
  192.0430  175.2560  145.4920 C   0  0  2  0  0  3  0  0  0  0  0  0
  192.2300  174.9320  146.9690 C   0  0  0  0  0  1  0  0  0  0  0  0
  190.7580  176.0430  145.1970 C   0  0  2  0  0  3  0  0  0  0  0  0
  192.4190  177.5360  144.2830 O   0  0  0  0  0  1  0  0  0  0  0  0
  191.0450  177.3350  144.4330 C   0  0  0  0  0  2  0  0  0  0  0  0
  189.8930  176.2830  146.4340 C   0  0  0  0  0  2  0  0  0  0  0  0
  188.6110  175.4770  146.3490 C   0  0  0  0  0  2  0  0  0  0  0  0
  187.5990  176.1340  147.0470 O   0  0  0  0  0  0  0  0  0  0  0  0
  187.8430  177.4910  146.8210 C   0  0  0  0  0  2  0  0  0  0  0  0
  184.6490  178.5700  142.9880 C   0  0  0  0  0  2  0  0  0  0  0  0
  184.8090  178.0570  144.4260 C   0  0  1  0  0  3  0  0  0  0  0  0
  186.2710  177.6910  144.8380 C   0  0  1  0  0  3  0  0  0  0  0  0
  184.0730  178.2760  146.5320 C   0  0  0  0  0  2  0  0  0  0  0  0
  185.6630  177.9150  142.0550 C   0  0  0  0  0  2  0  0  0  0  0  0
  187.0410  178.2370  142.5450 C   0  0  0  0  0  3  0  0  0  0  0  0
  185.4230  178.0480  147.2260 C   0  0  0  0  0  2  0  0  0  0  0  0
  187.3190  178.1460  143.8500 C   0  0  0  0  0  3  0  0  0  0  0  0
  184.2350  178.9730  145.3240 O   0  0  0  0  0  0  0  0  0  0  0  0
  186.6050  178.1790  146.2560 C   0  0  1  0  0  3  0  0  0  0  0  0
  190.0320  172.0420  142.2830 N   0  0  0  0  0  2  0  0  0  0  0  0
  189.8830  172.3980  140.8770 C   0  0  2  0  0  3  0  0  0  0  0  0
  190.9250  173.2490  140.4970 O   0  0  0  0  0  1  0  0  0  0  0  0
  188.5210  173.0520  140.5940 C   0  0  2  0  0  0  0  0  0  0  0  0
  187.6870  172.8960  141.6880 F   0  0  0  0  0  0  0  0  0  0  0  0
  187.9360  172.4110  139.5020 O   0  0  0  0  0  1  0  0  0  0  0  0
  188.4940  175.3230  141.4090 O   0  0  0  0  0  1  0  0  0  0  0  0
  188.6570  174.5390  140.2650 C   0  0  0  0  0  2  0  0  0  0  0  0
  1  2  1  0  0  0  0
  1 21  1  0  0  0  0
  3  2  2  0  0  0  0
  4  3  1  0  0  0  0
  5  1  2  0  0  0  0
  6  4  2  0  0  0  0
  6  5  1  0  0  0  0
  7 19  1  6  0  0  0
  7 17  1  0  0  0  0
  9  3  1  1  0  0  0
  9  7  1  0  0  0  0
  9 13  1  0  0  0  0
 10 12  1  0  0  0  0
 11 15  2  0  0  0  0
 11 16  1  0  0  0  0
 12  8  1  1  0  0  0
 14 13  2  0  0  0  0
 15 10  1  0  0  0  0
 16 13  1  6  0  0  0
 16 12  1  0  0  0  0
 17 11  1  0  0  0  0
 18 19  1  0  0  0  0
 19 20  1  0  0  0  0
 21 22  1  1  0  0  0
 23 25  1  1  0  0  0
 23 21  1  0  0  0  0
 23 26  1  0  0  0  0
 24 25  1  0  0  0  0
 27 26  1  0  0  0  0
 27 28  1  0  0  0  0
 29 28  1  0  0  0  0
 31 30  1  6  0  0  0
 31 32  1  0  0  0  0
 31 38  1  0  0  0  0
 32 37  1  6  0  0  0
 32 39  1  0  0  0  0
 33 36  1  0  0  0  0
 34 35  1  0  0  0  0
 34 30  1  0  0  0  0
 35 37  2  0  0  0  0
 38 33  1  0  0  0  0
 39 29  1  1  0  0  0
 39 36  1  0  0  0  0
 40  6  1  0  0  0  0
 41 42  1  1  0  0  0
 41 40  1  0  0  0  0
 43 45  1  6  0  0  0
 43 41  1  0  0  0  0
 43 44  1  0  0  0  0
 47 43  1  0  0  0  0
 47 46  1  0  0  0  0
M  END
>  <MODEL>
7

>  <REMARK>
 VINA RESULT:      -6.6      2.905      8.334
  Name = 
  14 active torsions:
  status: ('A' for Active; 'I' for Inactive)
    1  A    between atoms: C_1  and  C_32
    2  A    between atoms: C_1  and  C_39
    3  A    between atoms: C_2  and  C_28
    4  A    between atoms: C_4  and  C_18
    5  A    between atoms: C_6  and  C_33
    6  A    between atoms: C_6  and  C_44
    7  A    between atoms: C_7  and  C_16
    8  A    between atoms: O_8  and  C_10
    9  A    between atoms: O_8  and  C_39
   10  A    between atoms: C_10  and  C_42
   11  A    between atoms: C_18  and  C_32
   12  A    between atoms: C_32  and  C_36
   13  A    between atoms: C_33  and  N_34
   14  A    between atoms: N_34  and  C_38
                            x       y       z     vdW  Elec       q    Type
                         _______ _______ _______ _____ _____    ______ ____

>  <TORSDO>
F 14

$$$$
=
 OpenBabel11042415203D

 47 51  0  0  1  0  0  0  0  0999 V2000
  191.4930  173.5040  143.6690 C   0  0  0  0  0  0  0  0  0  0  0  0
  190.8100  172.9630  142.6230 N   0  0  0  0  0  0  0  0  0  0  0  0
  191.3120  172.9720  141.3570 C   0  0  0  0  0  0  0  0  0  0  0  0
  192.5590  173.5500  141.1060 C   0  0  0  0  0  3  0  0  0  0  0  0
  192.7430  174.0890  143.4540 C   0  0  0  0  0  3  0  0  0  0  0  0
  193.2830  174.1080  142.1620 C   0  0  0  0  0  0  0  0  0  0  0  0
  189.9110  173.5150  139.3550 C   0  0  1  0  0  3  0  0  0  0  0  0
  193.1020  170.3590  136.4670 C   0  0  0  0  0  1  0  0  0  0  0  0
  190.5240  172.3870  140.2260 C   0  0  1  0  0  3  0  0  0  0  0  0
  190.6980  170.3940  136.1140 N   0  0  0  0  0  2  0  0  0  0  0  0
  190.2220  172.0810  137.4170 C   0  0  0  0  0  0  0  0  0  0  0  0
  191.7410  170.3390  137.1290 C   0  0  2  0  0  3  0  0  0  0  0  0
  191.3840  171.4250  139.4190 C   0  0  0  0  0  0  0  0  0  0  0  0
  191.9680  170.5110  139.9800 O   0  0  0  0  0  0  0  0  0  0  0  0
  189.7990  171.4200  136.4010 N   0  0  0  0  0  0  0  0  0  0  0  0
  191.5350  171.6240  137.9350 C   0  0  2  0  0  3  0  0  0  0  0  0
  189.4550  173.0220  138.0940 O   0  0  0  0  0  0  0  0  0  0  0  0
  187.9510  174.8530  139.1710 F   0  0  0  0  0  0  0  0  0  0  0  0
  188.7740  174.2210  140.0840 C   0  0  0  0  0  3  0  0  0  0  0  0
  188.0370  173.3140  140.8250 F   0  0  0  0  0  0  0  0  0  0  0  0
  190.9120  173.4880  145.0470 C   0  0  2  0  0  3  0  0  0  0  0  0
  189.7280  172.5340  145.1270 C   0  0  0  0  0  1  0  0  0  0  0  0
  190.5890  174.9070  145.5370 C   0  0  2  0  0  3  0  0  0  0  0  0
  192.2720  176.1810  146.7060 O   0  0  0  0  0  1  0  0  0  0  0  0
  191.2740  175.2190  146.8680 C   0  0  0  0  0  2  0  0  0  0  0  0
  189.0910  175.2110  145.5730 C   0  0  0  0  0  2  0  0  0  0  0  0
  188.6480  175.5230  146.9900 C   0  0  0  0  0  2  0  0  0  0  0  0
  187.4110  176.1650  146.9620 O   0  0  0  0  0  0  0  0  0  0  0  0
  187.7190  177.5080  146.7280 C   0  0  0  0  0  2  0  0  0  0  0  0
  184.8760  178.3620  142.5760 C   0  0  0  0  0  2  0  0  0  0  0  0
  184.9010  178.0050  144.0690 C   0  0  1  0  0  3  0  0  0  0  0  0
  186.3010  177.5890  144.6250 C   0  0  1  0  0  3  0  0  0  0  0  0
  184.0470  178.5090  146.0790 C   0  0  0  0  0  2  0  0  0  0  0  0
  185.8960  177.5390  141.7970 C   0  0  0  0  0  2  0  0  0  0  0  0
  187.2590  177.8200  142.3500 C   0  0  0  0  0  3  0  0  0  0  0  0
  185.3270  178.2690  146.8920 C   0  0  0  0  0  2  0  0  0  0  0  0
  187.4430  177.8580  143.6740 C   0  0  0  0  0  3  0  0  0  0  0  0
  184.3400  179.0530  144.8180 O   0  0  0  0  0  0  0  0  0  0  0  0
  186.5770  178.2090  146.0030 C   0  0  1  0  0  3  0  0  0  0  0  0
  194.5550  174.7040  141.8970 N   0  0  0  0  0  2  0  0  0  0  0  0
  194.8910  176.0780  142.2540 C   0  0  2  0  0  3  0  0  0  0  0  0
  195.4940  176.7100  141.1630 O   0  0  0  0  0  1  0  0  0  0  0  0
  195.8050  176.1400  143.4880 C   0  0  2  0  0  0  0  0  0  0  0  0
  195.0740  176.5280  144.5980 F   0  0  0  0  0  0  0  0  0  0  0  0
  196.7970  177.0940  143.2610 O   0  0  0  0  0  1  0  0  0  0  0  0
  197.8270  174.8270  143.3980 O   0  0  0  0  0  1  0  0  0  0  0  0
  196.4810  174.7980  143.7670 C   0  0  0  0  0  2  0  0  0  0  0  0
  1 21  1  0  0  0  0
  2  1  2  0  0  0  0
  3  2  1  0  0  0  0
  4  3  2  0  0  0  0
  4  6  1  0  0  0  0
  5  1  1  0  0  0  0
  6  5  2  0  0  0  0
  7 19  1  1  0  0  0
  7  9  1  0  0  0  0
  9  3  1  1  0  0  0
 10 15  1  0  0  0  0
 10 12  1  0  0  0  0
 11 17  1  0  0  0  0
 12  8  1  6  0  0  0
 12 16  1  0  0  0  0
 13 14  2  0  0  0  0
 13  9  1  0  0  0  0
 15 11  2  0  0  0  0
 16 11  1  6  0  0  0
 16 13  1  0  0  0  0
 17  7  1  0  0  0  0
 18 19  1  0  0  0  0
 19 20  1  0  0  0  0
 21 22  1  6  0  0  0
 21 23  1  0  0  0  0
 23 26  1  1  0  0  0
 23 25  1  0  0  0  0
 24 25  1  0  0  0  0
 26 27  1  0  0  0  0
 28 27  1  0  0  0  0
 29 28  1  0  0  0  0
 31 30  1  6  0  0  0
 31 32  1  0  0  0  0
 31 38  1  0  0  0  0
 32 37  1  6  0  0  0
 32 39  1  0  0  0  0
 33 36  1  0  0  0  0
 34 35  1  0  0  0  0
 34 30  1  0  0  0  0
 35 37  2  0  0  0  0
 38 33  1  0  0  0  0
 39 29  1  1  0  0  0
 39 36  1  0  0  0  0
 40  6  1  0  0  0  0
 40 41  1  0  0  0  0
 41 42  1  6  0  0  0
 41 43  1  0  0  0  0
 43 45  1  6  0  0  0
 43 47  1  0  0  0  0
 43 44  1  0  0  0  0
 46 47  1  0  0  0  0
M  END
>  <MODEL>
8

>  <REMARK>
 VINA RESULT:      -6.5      3.404      9.288
  Name = 
  14 active torsions:
  status: ('A' for Active; 'I' for Inactive)
    1  A    between atoms: C_1  and  C_32
    2  A    between atoms: C_1  and  C_39
    3  A    between atoms: C_2  and  C_28
    4  A    between atoms: C_4  and  C_18
    5  A    between atoms: C_6  and  C_33
    6  A    between atoms: C_6  and  C_44
    7  A    between atoms: C_7  and  C_16
    8  A    between atoms: O_8  and  C_10
    9  A    between atoms: O_8  and  C_39
   10  A    between atoms: C_10  and  C_42
   11  A    between atoms: C_18  and  C_32
   12  A    between atoms: C_32  and  C_36
   13  A    between atoms: C_33  and  N_34
   14  A    between atoms: N_34  and  C_38
                            x       y       z     vdW  Elec       q    Type
                         _______ _______ _______ _____ _____    ______ ____

>  <TORSDO>
F 14

$$$$
=
 OpenBabel11042415203D

 47 51  0  0  1  0  0  0  0  0999 V2000
  193.0910  174.2020  144.5470 C   0  0  0  0  0  0  0  0  0  0  0  0
  192.4460  173.9110  143.3840 N   0  0  0  0  0  0  0  0  0  0  0  0
  192.3870  172.6410  142.8950 C   0  0  0  0  0  0  0  0  0  0  0  0
  193.0000  171.5970  143.5910 C   0  0  0  0  0  3  0  0  0  0  0  0
  193.7140  173.1810  145.2690 C   0  0  0  0  0  3  0  0  0  0  0  0
  193.6640  171.8660  144.7900 C   0  0  0  0  0  0  0  0  0  0  0  0
  190.2780  173.0100  141.5980 C   0  0  1  0  0  3  0  0  0  0  0  0
  193.2650  174.8530  137.5770 C   0  0  0  0  0  1  0  0  0  0  0  0
  191.6870  172.3610  141.6010 C   0  0  1  0  0  3  0  0  0  0  0  0
  191.3260  173.4460  137.1720 N   0  0  0  0  0  2  0  0  0  0  0  0
  190.5500  173.4020  139.2130 C   0  0  0  0  0  0  0  0  0  0  0  0
  192.5210  173.6010  137.9900 C   0  0  2  0  0  3  0  0  0  0  0  0
  192.5420  172.8110  140.4250 C   0  0  0  0  0  0  0  0  0  0  0  0
  193.6940  172.4170  140.3200 O   0  0  0  0  0  0  0  0  0  0  0  0
  190.2070  173.2660  137.9830 N   0  0  0  0  0  0  0  0  0  0  0  0
  191.9740  173.7660  139.4100 C   0  0  2  0  0  3  0  0  0  0  0  0
  189.7240  173.0670  140.2810 O   0  0  0  0  0  0  0  0  0  0  0  0
  189.6930  170.9430  142.6220 F   0  0  0  0  0  0  0  0  0  0  0  0
  189.3280  172.2730  142.5330 C   0  0  0  0  0  3  0  0  0  0  0  0
  189.3470  172.8460  143.7920 F   0  0  0  0  0  0  0  0  0  0  0  0
  193.1480  175.6070  145.0540 C   0  0  2  0  0  3  0  0  0  0  0  0
  193.7690  175.6590  146.4450 C   0  0  0  0  0  1  0  0  0  0  0  0
  191.7780  176.2920  144.9700 C   0  0  2  0  0  3  0  0  0  0  0  0
  191.4070  177.3810  142.8480 O   0  0  0  0  0  1  0  0  0  0  0  0
  191.8380  177.5880  144.1600 C   0  0  0  0  0  2  0  0  0  0  0  0
  191.1130  176.4930  146.3320 C   0  0  0  0  0  2  0  0  0  0  0  0
  190.0430  175.4420  146.5580 C   0  0  0  0  0  2  0  0  0  0  0  0
  188.8730  176.0540  147.0060 O   0  0  0  0  0  0  0  0  0  0  0  0
  188.6520  177.0920  146.0970 C   0  0  0  0  0  2  0  0  0  0  0  0
  184.4320  178.0210  143.3800 C   0  0  0  0  0  2  0  0  0  0  0  0
  185.9090  177.6020  143.3630 C   0  0  1  0  0  3  0  0  0  0  0  0
  186.6860  177.8690  144.6920 C   0  0  1  0  0  3  0  0  0  0  0  0
  187.3610  176.0730  142.6030 C   0  0  0  0  0  2  0  0  0  0  0  0
  184.2180  179.2440  144.2650 C   0  0  0  0  0  2  0  0  0  0  0  0
  184.6530  178.9070  145.6580 C   0  0  0  0  0  3  0  0  0  0  0  0
  188.2690  176.0470  143.8410 C   0  0  0  0  0  2  0  0  0  0  0  0
  185.8010  178.2500  145.8540 C   0  0  0  0  0  3  0  0  0  0  0  0
  186.0170  176.2590  142.9640 O   0  0  0  0  0  0  0  0  0  0  0  0
  187.6050  176.6950  145.0630 C   0  0  1  0  0  3  0  0  0  0  0  0
  194.2960  170.7940  145.4930 N   0  0  0  0  0  2  0  0  0  0  0  0
  195.7240  170.7530  145.7850 C   0  0  2  0  0  3  0  0  0  0  0  0
  196.4470  170.9850  144.6120 O   0  0  0  0  0  1  0  0  0  0  0  0
  196.1390  169.4170  146.4200 C   0  0  2  0  0  0  0  0  0  0  0  0
  196.7950  169.6460  147.6160 F   0  0  0  0  0  0  0  0  0  0  0  0
  197.0190  168.7660  145.5550 O   0  0  0  0  0  1  0  0  0  0  0  0
  194.5830  168.4910  148.0150 O   0  0  0  0  0  1  0  0  0  0  0  0
  194.9390  168.5020  146.6640 C   0  0  0  0  0  2  0  0  0  0  0  0
  1 21  1  0  0  0  0
  1  5  1  0  0  0  0
  2  1  2  0  0  0  0
  3  2  1  0  0  0  0
  3  4  2  0  0  0  0
  4  6  1  0  0  0  0
  6  5  2  0  0  0  0
  6 40  1  0  0  0  0
  7  9  1  0  0  0  0
  7 19  1  1  0  0  0
  9  3  1  1  0  0  0
 10 15  1  0  0  0  0
 10 12  1  0  0  0  0
 11 17  1  0  0  0  0
 12  8  1  6  0  0  0
 12 16  1  0  0  0  0
 13  9  1  0  0  0  0
 14 13  2  0  0  0  0
 15 11  2  0  0  0  0
 16 11  1  6  0  0  0
 16 13  1  0  0  0  0
 17  7  1  0  0  0  0
 19 18  1  0  0  0  0
 19 20  1  0  0  0  0
 21 22  1  1  0  0  0
 23 25  1  1  0  0  0
 23 21  1  0  0  0  0
 23 26  1  0  0  0  0
 24 25  1  0  0  0  0
 26 27  1  0  0  0  0
 27 28  1  0  0  0  0
 29 28  1  0  0  0  0
 30 34  1  0  0  0  0
 31 30  1  1  0  0  0
 31 32  1  0  0  0  0
 32 39  1  0  0  0  0
 32 37  1  1  0  0  0
 33 38  1  0  0  0  0
 33 36  1  0  0  0  0
 34 35  1  0  0  0  0
 35 37  2  0  0  0  0
 36 39  1  0  0  0  0
 38 31  1  0  0  0  0
 39 29  1  1  0  0  0
 40 41  1  0  0  0  0
 41 42  1  6  0  0  0
 41 43  1  0  0  0  0
 43 45  1  6  0  0  0
 43 47  1  0  0  0  0
 43 44  1  0  0  0  0
 47 46  1  0  0  0  0
M  END
>  <MODEL>
9

>  <REMARK>
 VINA RESULT:      -6.4      2.812      9.208
  Name = 
  14 active torsions:
  status: ('A' for Active; 'I' for Inactive)
    1  A    between atoms: C_1  and  C_32
    2  A    between atoms: C_1  and  C_39
    3  A    between atoms: C_2  and  C_28
    4  A    between atoms: C_4  and  C_18
    5  A    between atoms: C_6  and  C_33
    6  A    between atoms: C_6  and  C_44
    7  A    between atoms: C_7  and  C_16
    8  A    between atoms: O_8  and  C_10
    9  A    between atoms: O_8  and  C_39
   10  A    between atoms: C_10  and  C_42
   11  A    between atoms: C_18  and  C_32
   12  A    between atoms: C_32  and  C_36
   13  A    between atoms: C_33  and  N_34
   14  A    between atoms: N_34  and  C_38
                            x       y       z     vdW  Elec       q    Type
                         _______ _______ _______ _____ _____    ______ ____

>  <TORSDO>
F 14

$$$$
