=
 OpenBabel11042416103D

 26 29  0  0  1  0  0  0  0  0999 V2000
  187.2000  176.8420  143.0700 C   0  0  1  0  0  3  0  0  0  0  0  0
  189.5350  177.5540  142.7860 C   0  0  0  0  0  3  0  0  0  0  0  0
  188.9310  176.2820  144.9010 C   0  0  1  0  0  3  0  0  0  0  0  0
  187.7070  175.9910  145.6650 N   0  0  0  0  0  0  0  0  0  0  0  0
  186.3300  178.2600  140.8450 N   0  0  0  0  0  2  0  0  0  0  0  0
  186.8930  178.3370  145.8170 C   0  0  2  0  0  3  0  0  0  0  0  0
  185.7980  176.5260  146.9070 O   0  0  0  0  0  0  0  0  0  0  0  0
  191.6190  176.6080  143.7950 C   0  0  0  0  0  2  0  0  0  0  0  0
  188.6180  176.9290  143.5600 C   0  0  0  0  0  0  0  0  0  0  0  0
  186.4800  178.1590  143.2010 C   0  0  0  0  0  0  0  0  0  0  0  0
  185.1790  177.6820  147.4360 C   0  0  0  0  0  2  0  0  0  0  0  0
  186.2050  178.7680  144.5260 C   0  0  0  0  0  0  0  0  0  0  0  0
  187.2740  177.2370  140.6480 N   0  0  0  0  0  2  0  0  0  0  0  0
  186.8300  176.8680  146.0620 C   0  0  0  0  0  0  0  0  0  0  0  0
  186.0900  178.8430  147.0220 C   0  0  0  0  0  2  0  0  0  0  0  0
  186.0700  178.7700  142.1290 N   0  0  0  0  0  0  0  0  0  0  0  0
  187.0560  176.2250  141.6730 C   0  0  0  0  0  2  0  0  0  0  0  0
  185.4310  179.7660  144.5590 O   0  0  0  0  0  0  0  0  0  0  0  0
  189.9870  177.0450  145.7320 C   0  0  2  0  0  3  0  0  0  0  0  0
  190.9780  177.8090  143.1240 C   0  0  0  0  0  2  0  0  0  0  0  0
  191.4160  176.6640  145.3070 C   0  0  0  0  0  2  0  0  0  0  0  0
  189.8170  176.8800  147.2480 C   0  0  1  0  0  3  0  0  0  0  0  0
  190.3990  175.6890  147.6910 O   0  0  0  0  0  1  0  0  0  0  0  0
  190.4040  178.0720  147.9930 C   0  0  0  0  0  2  0  0  0  0  0  0
  191.4960  178.4040  150.0940 O   0  0  0  0  0  1  0  0  0  0  0  0
  191.5150  177.6320  148.9320 C   0  0  0  0  0  2  0  0  0  0  0  0
  1 17  1  6  0  0  0
  1 10  1  0  0  0  0
  1  9  1  0  0  0  0
  2 20  1  0  0  0  0
  2  9  2  0  0  0  0
  3  9  1  6  0  0  0
  3  4  1  0  0  0  0
  3 19  1  0  0  0  0
  4 14  2  0  0  0  0
  5 16  1  0  0  0  0
  6 14  1  0  0  0  0
  6 15  1  1  0  0  0
  7 11  1  0  0  0  0
  8 21  1  0  0  0  0
 10 12  1  0  0  0  0
 12 18  2  0  0  0  0
 12  6  1  0  0  0  0
 13  5  1  0  0  0  0
 13 17  1  0  0  0  0
 14  7  1  0  0  0  0
 15 11  1  0  0  0  0
 16 10  2  0  0  0  0
 19 22  1  1  0  0  0
 20  8  1  0  0  0  0
 21 19  1  0  0  0  0
 22 23  1  1  0  0  0
 22 24  1  0  0  0  0
 24 26  1  0  0  0  0
 26 25  1  0  0  0  0
M  END
>  <MODEL>
1

>  <REMARK>
 VINA RESULT:      -7.3      0.000      0.000
  Name = 
  3 active torsions:
  status: ('A' for Active; 'I' for Inactive)
    1  A    between atoms: C_3  and  C_14
    2  A    between atoms: C_3  and  C_24
    3  A    between atoms: C_14  and  C_23
                            x       y       z     vdW  Elec       q    Type
                         _______ _______ _______ _____ _____    ______ ____

>  <TORSDO>
F 3

$$$$
=
 OpenBabel11042416103D

 26 29  0  0  1  0  0  0  0  0999 V2000
  186.6800  176.7950  146.1290 C   0  0  1  0  0  3  0  0  0  0  0  0
  186.5590  178.0880  144.0430 C   0  0  0  0  0  3  0  0  0  0  0  0
  188.0250  176.0130  144.0690 C   0  0  1  0  0  3  0  0  0  0  0  0
  188.6840  175.1780  145.0860 N   0  0  0  0  0  0  0  0  0  0  0  0
  185.2630  178.6960  147.5770 N   0  0  0  0  0  2  0  0  0  0  0  0
  189.8080  177.0330  146.3030 C   0  0  2  0  0  3  0  0  0  0  0  0
  190.1510  174.7430  146.8550 O   0  0  0  0  0  0  0  0  0  0  0  0
  186.9760  177.3520  141.6890 C   0  0  0  0  0  2  0  0  0  0  0  0
  187.0750  177.0230  144.6960 C   0  0  0  0  0  0  0  0  0  0  0  0
  187.3690  177.7570  147.0600 C   0  0  0  0  0  0  0  0  0  0  0  0
  191.1350  175.4360  147.5980 C   0  0  0  0  0  2  0  0  0  0  0  0
  188.8410  177.7420  147.2460 C   0  0  0  0  0  0  0  0  0  0  0  0
  184.6160  178.0750  146.4940 N   0  0  0  0  0  2  0  0  0  0  0  0
  189.4510  175.6100  146.0460 C   0  0  0  0  0  0  0  0  0  0  0  0
  191.1620  176.8470  147.0000 C   0  0  0  0  0  2  0  0  0  0  0  0
  186.6570  178.6110  147.7350 N   0  0  0  0  0  0  0  0  0  0  0  0
  185.1650  176.7310  146.3580 C   0  0  0  0  0  2  0  0  0  0  0  0
  189.3180  178.4430  148.1830 O   0  0  0  0  0  0  0  0  0  0  0  0
  189.0240  176.6340  143.0660 C   0  0  2  0  0  3  0  0  0  0  0  0
  186.8800  178.5290  142.6410 C   0  0  0  0  0  2  0  0  0  0  0  0
  188.3940  176.7870  141.6710 C   0  0  0  0  0  2  0  0  0  0  0  0
  190.3560  175.8780  142.9740 C   0  0  1  0  0  3  0  0  0  0  0  0
  190.3790  175.0400  141.8550 O   0  0  0  0  0  1  0  0  0  0  0  0
  191.5300  176.8480  142.9410 C   0  0  0  0  0  2  0  0  0  0  0  0
  192.4070  175.0610  144.2650 O   0  0  0  0  0  1  0  0  0  0  0  0
  192.7530  176.2440  143.6120 C   0  0  0  0  0  2  0  0  0  0  0  0
  1 17  1  6  0  0  0
  1 10  1  0  0  0  0
  2  9  2  0  0  0  0
  3  9  1  1  0  0  0
  3  4  1  0  0  0  0
  4 14  2  0  0  0  0
  5 16  1  0  0  0  0
  6 15  1  1  0  0  0
  6 12  1  0  0  0  0
  7 11  1  0  0  0  0
  8 20  1  0  0  0  0
  9  1  1  0  0  0  0
 10 12  1  0  0  0  0
 10 16  2  0  0  0  0
 12 18  2  0  0  0  0
 13  5  1  0  0  0  0
 14  6  1  0  0  0  0
 14  7  1  0  0  0  0
 15 11  1  0  0  0  0
 17 13  1  0  0  0  0
 19 22  1  6  0  0  0
 19  3  1  0  0  0  0
 20  2  1  0  0  0  0
 21  8  1  0  0  0  0
 21 19  1  0  0  0  0
 22 23  1  6  0  0  0
 24 22  1  0  0  0  0
 24 26  1  0  0  0  0
 26 25  1  0  0  0  0
M  END
>  <MODEL>
2

>  <REMARK>
 VINA RESULT:      -7.2      2.552      4.727
  Name = 
  3 active torsions:
  status: ('A' for Active; 'I' for Inactive)
    1  A    between atoms: C_3  and  C_14
    2  A    between atoms: C_3  and  C_24
    3  A    between atoms: C_14  and  C_23
                            x       y       z     vdW  Elec       q    Type
                         _______ _______ _______ _____ _____    ______ ____

>  <TORSDO>
F 3

$$$$
=
 OpenBabel11042416103D

 26 29  0  0  1  0  0  0  0  0999 V2000
  188.4670  177.4600  142.3790 C   0  0  1  0  0  3  0  0  0  0  0  0
  186.7170  176.9860  144.0390 C   0  0  0  0  0  3  0  0  0  0  0  0
  188.9540  177.8450  144.8850 C   0  0  1  0  0  3  0  0  0  0  0  0
  190.3360  177.9130  144.3840 N   0  0  0  0  0  0  0  0  0  0  0  0
  187.0040  176.3610  140.2880 N   0  0  0  0  0  2  0  0  0  0  0  0
  190.5300  175.5180  143.7380 C   0  0  2  0  0  3  0  0  0  0  0  0
  192.3560  177.0370  143.5940 O   0  0  0  0  0  0  0  0  0  0  0  0
  186.4190  177.9120  146.3430 C   0  0  0  0  0  2  0  0  0  0  0  0
  187.9810  177.4030  143.8010 C   0  0  0  0  0  0  0  0  0  0  0  0
  188.7690  176.0880  141.8360 C   0  0  0  0  0  0  0  0  0  0  0  0
  192.9370  175.7660  143.3780 C   0  0  0  0  0  2  0  0  0  0  0  0
  189.8600  175.2510  142.3940 C   0  0  0  0  0  0  0  0  0  0  0  0
  186.4630  177.4720  140.9600 N   0  0  0  0  0  2  0  0  0  0  0  0
  191.0180  176.9170  143.8920 C   0  0  0  0  0  0  0  0  0  0  0  0
  191.8620  174.7610  143.8080 C   0  0  0  0  0  2  0  0  0  0  0  0
  188.0710  175.6300  140.8380 N   0  0  0  0  0  0  0  0  0  0  0  0
  187.5720  178.2840  141.4450 C   0  0  0  0  0  2  0  0  0  0  0  0
  190.1750  174.2050  141.7610 O   0  0  0  0  0  0  0  0  0  0  0  0
  188.8330  177.0400  146.1990 C   0  0  2  0  0  3  0  0  0  0  0  0
  186.0690  176.7910  145.3820 C   0  0  0  0  0  2  0  0  0  0  0  0
  187.7100  177.5940  147.0930 C   0  0  0  0  0  2  0  0  0  0  0  0
  190.1460  176.9420  146.9850 C   0  0  1  0  0  3  0  0  0  0  0  0
  190.1580  177.8420  148.0550 O   0  0  0  0  0  1  0  0  0  0  0  0
  190.3780  175.5200  147.4800 C   0  0  0  0  0  2  0  0  0  0  0  0
  192.5940  176.2370  146.9400 O   0  0  0  0  0  1  0  0  0  0  0  0
  191.8540  175.1620  147.4340 C   0  0  0  0  0  2  0  0  0  0  0  0
  1 17  1  6  0  0  0
  1  9  1  0  0  0  0
  2 20  1  0  0  0  0
  3  9  1  6  0  0  0
  3 19  1  0  0  0  0
  4  3  1  0  0  0  0
  5 16  1  0  0  0  0
  5 13  1  0  0  0  0
  6 15  1  6  0  0  0
  6 14  1  0  0  0  0
  7 14  1  0  0  0  0
  8 21  1  0  0  0  0
  9  2  2  0  0  0  0
 10  1  1  0  0  0  0
 10 12  1  0  0  0  0
 11  7  1  0  0  0  0
 11 15  1  0  0  0  0
 12  6  1  0  0  0  0
 13 17  1  0  0  0  0
 14  4  2  0  0  0  0
 16 10  2  0  0  0  0
 18 12  2  0  0  0  0
 19 22  1  1  0  0  0
 19 21  1  0  0  0  0
 20  8  1  0  0  0  0
 22 24  1  0  0  0  0
 22 23  1  1  0  0  0
 25 26  1  0  0  0  0
 26 24  1  0  0  0  0
M  END
>  <MODEL>
3

>  <REMARK>
 VINA RESULT:      -7.1      2.235      4.470
  Name = 
  3 active torsions:
  status: ('A' for Active; 'I' for Inactive)
    1  A    between atoms: C_3  and  C_14
    2  A    between atoms: C_3  and  C_24
    3  A    between atoms: C_14  and  C_23
                            x       y       z     vdW  Elec       q    Type
                         _______ _______ _______ _____ _____    ______ ____

>  <TORSDO>
F 3

$$$$
=
 OpenBabel11042416103D

 26 29  0  0  1  0  0  0  0  0999 V2000
  187.4670  177.6780  146.0510 C   0  0  1  0  0  3  0  0  0  0  0  0
  188.3300  175.6790  147.1920 C   0  0  0  0  0  3  0  0  0  0  0  0
  189.8570  176.8520  145.5340 C   0  0  1  0  0  3  0  0  0  0  0  0
  189.7010  177.7820  144.4040 N   0  0  0  0  0  0  0  0  0  0  0  0
  184.8980  177.3340  147.0520 N   0  0  0  0  0  2  0  0  0  0  0  0
  187.9640  176.4770  143.1910 C   0  0  2  0  0  3  0  0  0  0  0  0
  188.9260  178.4660  142.3060 O   0  0  0  0  0  0  0  0  0  0  0  0
  190.6960  175.0000  147.6380 C   0  0  0  0  0  2  0  0  0  0  0  0
  188.5550  176.6700  146.3000 C   0  0  0  0  0  0  0  0  0  0  0  0
  186.3580  177.1070  145.2070 C   0  0  0  0  0  0  0  0  0  0  0  0
  188.1910  177.9210  141.2280 C   0  0  0  0  0  2  0  0  0  0  0  0
  186.5830  176.6950  143.8000 C   0  0  0  0  0  0  0  0  0  0  0  0
  185.9410  177.5420  147.9710 N   0  0  0  0  0  2  0  0  0  0  0  0
  188.8920  177.6250  143.3950 C   0  0  0  0  0  0  0  0  0  0  0  0
  187.8590  176.4880  141.6600 C   0  0  0  0  0  2  0  0  0  0  0  0
  185.1660  176.9920  145.7150 N   0  0  0  0  0  0  0  0  0  0  0  0
  186.9510  178.3680  147.3210 C   0  0  0  0  0  2  0  0  0  0  0  0
  185.5660  176.4130  143.1050 O   0  0  0  0  0  0  0  0  0  0  0  0
  190.5320  175.5220  145.1260 C   0  0  2  0  0  3  0  0  0  0  0  0
  189.2530  174.5410  147.5280 C   0  0  0  0  0  2  0  0  0  0  0  0
  191.3810  174.9510  146.2740 C   0  0  0  0  0  2  0  0  0  0  0  0
  191.3650  175.6220  143.8410 C   0  0  1  0  0  3  0  0  0  0  0  0
  192.7320  175.6650  144.1320 O   0  0  0  0  0  1  0  0  0  0  0  0
  191.0540  174.4650  142.9010 C   0  0  0  0  0  2  0  0  0  0  0  0
  189.0940  173.1550  142.5040 O   0  0  0  0  0  1  0  0  0  0  0  0
  189.9920  173.5540  143.4940 C   0  0  0  0  0  2  0  0  0  0  0  0
  1  9  1  0  0  0  0
  1 17  1  1  0  0  0
  2 20  1  0  0  0  0
  3  4  1  6  0  0  0
  3  9  1  0  0  0  0
  5 13  1  0  0  0  0
  6 15  1  6  0  0  0
  6 14  1  0  0  0  0
  6 12  1  0  0  0  0
  7 14  1  0  0  0  0
  9  2  2  0  0  0  0
 10 16  2  0  0  0  0
 10  1  1  0  0  0  0
 11 15  1  0  0  0  0
 11  7  1  0  0  0  0
 12 10  1  0  0  0  0
 14  4  2  0  0  0  0
 16  5  1  0  0  0  0
 17 13  1  0  0  0  0
 18 12  2  0  0  0  0
 19 22  1  6  0  0  0
 19  3  1  0  0  0  0
 19 21  1  0  0  0  0
 20  8  1  0  0  0  0
 21  8  1  0  0  0  0
 22 23  1  1  0  0  0
 24 26  1  0  0  0  0
 24 22  1  0  0  0  0
 25 26  1  0  0  0  0
M  END
>  <MODEL>
4

>  <REMARK>
 VINA RESULT:      -7.1      2.797      4.960
  Name = 
  3 active torsions:
  status: ('A' for Active; 'I' for Inactive)
    1  A    between atoms: C_3  and  C_14
    2  A    between atoms: C_3  and  C_24
    3  A    between atoms: C_14  and  C_23
                            x       y       z     vdW  Elec       q    Type
                         _______ _______ _______ _____ _____    ______ ____

>  <TORSDO>
F 3

$$$$
=
 OpenBabel11042416103D

 26 29  0  0  1  0  0  0  0  0999 V2000
  188.9680  175.7430  145.9690 C   0  0  1  0  0  3  0  0  0  0  0  0
  188.3490  177.6490  147.3920 C   0  0  0  0  0  3  0  0  0  0  0  0
  186.6200  176.7910  145.7400 C   0  0  1  0  0  3  0  0  0  0  0  0
  186.6210  175.9930  144.5040 N   0  0  0  0  0  0  0  0  0  0  0  0
  191.6210  175.7840  146.7930 N   0  0  0  0  0  2  0  0  0  0  0  0
  188.3650  177.3060  143.3110 C   0  0  2  0  0  3  0  0  0  0  0  0
  187.1870  175.5090  142.2870 O   0  0  0  0  0  0  0  0  0  0  0  0
  186.0830  178.4350  148.1000 C   0  0  0  0  0  2  0  0  0  0  0  0
  187.9840  176.7880  146.4160 C   0  0  0  0  0  0  0  0  0  0  0  0
  190.0560  176.3300  145.1090 C   0  0  0  0  0  0  0  0  0  0  0  0
  187.8850  176.1240  141.2220 C   0  0  0  0  0  2  0  0  0  0  0  0
  189.7650  176.9200  143.7790 C   0  0  0  0  0  0  0  0  0  0  0  0
  190.6320  175.5430  147.7630 N   0  0  0  0  0  2  0  0  0  0  0  0
  187.3660  176.2100  143.4580 C   0  0  0  0  0  0  0  0  0  0  0  0
  188.3600  177.4690  141.7850 C   0  0  0  0  0  2  0  0  0  0  0  0
  191.2860  176.3000  145.5290 N   0  0  0  0  0  0  0  0  0  0  0  0
  189.5170  174.8730  147.1070 C   0  0  0  0  0  2  0  0  0  0  0  0
  190.7480  177.2100  143.0410 O   0  0  0  0  0  0  0  0  0  0  0  0
  186.0250  178.2030  145.5400 C   0  0  2  0  0  3  0  0  0  0  0  0
  187.5450  178.8010  147.9270 C   0  0  0  0  0  2  0  0  0  0  0  0
  185.3080  178.6940  146.8100 C   0  0  0  0  0  2  0  0  0  0  0  0
  185.0980  178.3150  144.3230 C   0  0  1  0  0  3  0  0  0  0  0  0
  183.8020  178.6690  144.7120 O   0  0  0  0  0  1  0  0  0  0  0  0
  185.6450  179.3160  143.3130 C   0  0  0  0  0  2  0  0  0  0  0  0
  184.6300  177.6750  141.9010 O   0  0  0  0  0  1  0  0  0  0  0  0
  185.3050  178.8960  141.8930 C   0  0  0  0  0  2  0  0  0  0  0  0
  1  9  1  0  0  0  0
  1 17  1  1  0  0  0
  2 20  1  0  0  0  0
  3  4  1  6  0  0  0
  3  9  1  0  0  0  0
  5 13  1  0  0  0  0
  6 15  1  6  0  0  0
  6 14  1  0  0  0  0
  6 12  1  0  0  0  0
  7 14  1  0  0  0  0
  9  2  2  0  0  0  0
 10 16  2  0  0  0  0
 10  1  1  0  0  0  0
 11 15  1  0  0  0  0
 11  7  1  0  0  0  0
 12 10  1  0  0  0  0
 14  4  2  0  0  0  0
 16  5  1  0  0  0  0
 17 13  1  0  0  0  0
 18 12  2  0  0  0  0
 19 22  1  6  0  0  0
 19  3  1  0  0  0  0
 19 21  1  0  0  0  0
 20  8  1  0  0  0  0
 21  8  1  0  0  0  0
 22 23  1  1  0  0  0
 24 22  1  0  0  0  0
 26 25  1  0  0  0  0
 26 24  1  0  0  0  0
M  END
>  <MODEL>
5

>  <REMARK>
 VINA RESULT:      -7.0      2.666      6.079
  Name = 
  3 active torsions:
  status: ('A' for Active; 'I' for Inactive)
    1  A    between atoms: C_3  and  C_14
    2  A    between atoms: C_3  and  C_24
    3  A    between atoms: C_14  and  C_23
                            x       y       z     vdW  Elec       q    Type
                         _______ _______ _______ _____ _____    ______ ____

>  <TORSDO>
F 3

$$$$
=
 OpenBabel11042416103D

 26 29  0  0  1  0  0  0  0  0999 V2000
  189.1150  177.2720  142.6970 C   0  0  1  0  0  3  0  0  0  0  0  0
  188.1760  176.8360  144.9260 C   0  0  0  0  0  3  0  0  0  0  0  0
  190.6630  177.3300  144.7610 C   0  0  1  0  0  3  0  0  0  0  0  0
  191.6980  177.2860  143.7170 N   0  0  0  0  0  0  0  0  0  0  0  0
  186.7590  176.5820  141.3950 N   0  0  0  0  0  2  0  0  0  0  0  0
  191.2350  174.9670  142.9440 C   0  0  2  0  0  3  0  0  0  0  0  0
  193.0400  176.2660  142.0940 O   0  0  0  0  0  0  0  0  0  0  0  0
  189.0190  177.5420  147.1720 C   0  0  0  0  0  2  0  0  0  0  0  0
  189.2700  177.1240  144.1850 C   0  0  0  0  0  0  0  0  0  0  0  0
  188.9470  175.9390  142.0150 C   0  0  0  0  0  0  0  0  0  0  0  0
  193.2740  174.9650  141.5910 C   0  0  0  0  0  2  0  0  0  0  0  0
  190.0300  174.9260  142.0100 C   0  0  0  0  0  0  0  0  0  0  0  0
  186.7270  177.6720  142.2830 N   0  0  0  0  0  2  0  0  0  0  0  0
  191.9500  176.2750  142.9350 C   0  0  0  0  0  0  0  0  0  0  0  0
  192.3410  174.0550  142.3980 C   0  0  0  0  0  2  0  0  0  0  0  0
  187.8330  175.6760  141.3970 N   0  0  0  0  0  0  0  0  0  0  0  0
  188.0470  178.2910  142.2770 C   0  0  0  0  0  2  0  0  0  0  0  0
  189.8860  173.9220  141.2560 O   0  0  0  0  0  0  0  0  0  0  0  0
  190.9850  176.4110  145.9610 C   0  0  2  0  0  3  0  0  0  0  0  0
  188.1320  176.5780  146.4070 C   0  0  0  0  0  2  0  0  0  0  0  0
  190.4420  176.9960  147.2760 C   0  0  0  0  0  2  0  0  0  0  0  0
  192.4760  176.0750  146.0990 C   0  0  1  0  0  3  0  0  0  0  0  0
  193.0440  176.7540  147.1810 O   0  0  0  0  0  1  0  0  0  0  0  0
  192.6830  174.5720  146.2410 C   0  0  0  0  0  2  0  0  0  0  0  0
  194.5830  175.1430  144.9070 O   0  0  0  0  0  1  0  0  0  0  0  0
  194.0650  174.1670  145.7580 C   0  0  0  0  0  2  0  0  0  0  0  0
  1 17  1  1  0  0  0
  1  9  1  0  0  0  0
  2 20  1  0  0  0  0
  3  4  1  6  0  0  0
  3 19  1  0  0  0  0
  5 16  1  0  0  0  0
  5 13  1  0  0  0  0
  6 15  1  6  0  0  0
  7 14  1  0  0  0  0
  8 21  1  0  0  0  0
  9  3  1  0  0  0  0
  9  2  2  0  0  0  0
 10  1  1  0  0  0  0
 11  7  1  0  0  0  0
 11 15  1  0  0  0  0
 12 10  1  0  0  0  0
 12  6  1  0  0  0  0
 14  6  1  0  0  0  0
 14  4  2  0  0  0  0
 16 10  2  0  0  0  0
 17 13  1  0  0  0  0
 18 12  2  0  0  0  0
 19 22  1  1  0  0  0
 19 21  1  0  0  0  0
 20  8  1  0  0  0  0
 22 24  1  0  0  0  0
 22 23  1  1  0  0  0
 25 26  1  0  0  0  0
 26 24  1  0  0  0  0
M  END
>  <MODEL>
6

>  <REMARK>
 VINA RESULT:      -6.5      2.911      5.099
  Name = 
  3 active torsions:
  status: ('A' for Active; 'I' for Inactive)
    1  A    between atoms: C_3  and  C_14
    2  A    between atoms: C_3  and  C_24
    3  A    between atoms: C_14  and  C_23
                            x       y       z     vdW  Elec       q    Type
                         _______ _______ _______ _____ _____    ______ ____

>  <TORSDO>
F 3

$$$$
=
 OpenBabel11042416103D

 26 29  0  0  1  0  0  0  0  0999 V2000
  187.6670  177.7430  142.6020 C   0  0  1  0  0  3  0  0  0  0  0  0
  186.1810  177.0030  144.4150 C   0  0  0  0  0  3  0  0  0  0  0  0
  188.6860  176.9670  144.8430 C   0  0  1  0  0  3  0  0  0  0  0  0
  189.9130  176.9490  144.0310 N   0  0  0  0  0  0  0  0  0  0  0  0
  185.5940  177.9160  140.7590 N   0  0  0  0  0  2  0  0  0  0  0  0
  189.2680  175.0400  142.5710 C   0  0  2  0  0  3  0  0  0  0  0  0
  191.4060  176.0780  142.4550 O   0  0  0  0  0  0  0  0  0  0  0  0
  186.5880  176.9510  146.8820 C   0  0  0  0  0  2  0  0  0  0  0  0
  187.4480  177.2140  143.9920 C   0  0  0  0  0  0  0  0  0  0  0  0
  187.4450  176.6820  141.5570 C   0  0  0  0  0  0  0  0  0  0  0  0
  191.5350  174.9160  141.6590 C   0  0  0  0  0  2  0  0  0  0  0  0
  188.3200  175.4870  141.4620 C   0  0  0  0  0  0  0  0  0  0  0  0
  185.5370  178.7420  141.8960 N   0  0  0  0  0  2  0  0  0  0  0  0
  190.1680  176.1230  143.0560 C   0  0  0  0  0  0  0  0  0  0  0  0
  190.3050  174.0660  141.9990 C   0  0  0  0  0  2  0  0  0  0  0  0
  186.4760  176.8230  140.7010 N   0  0  0  0  0  0  0  0  0  0  0  0
  186.9050  179.0400  142.3000 C   0  0  0  0  0  2  0  0  0  0  0  0
  188.1910  174.7490  140.4450 O   0  0  0  0  0  0  0  0  0  0  0  0
  188.5680  175.7400  145.7760 C   0  0  2  0  0  3  0  0  0  0  0  0
  185.7550  176.4160  145.7320 C   0  0  0  0  0  2  0  0  0  0  0  0
  187.8390  176.0990  147.0820 C   0  0  0  0  0  2  0  0  0  0  0  0
  189.9110  175.0640  146.0780 C   0  0  1  0  0  3  0  0  0  0  0  0
  190.2870  175.2700  147.4100 O   0  0  0  0  0  1  0  0  0  0  0  0
  189.8530  173.5750  145.7630 C   0  0  0  0  0  2  0  0  0  0  0  0
  192.0940  174.1200  145.1340 O   0  0  0  0  0  1  0  0  0  0  0  0
  191.1300  173.1140  145.0800 C   0  0  0  0  0  2  0  0  0  0  0  0
  1 17  1  6  0  0  0
  1  9  1  0  0  0  0
  2 20  1  0  0  0  0
  3  9  1  6  0  0  0
  3 19  1  0  0  0  0
  4  3  1  0  0  0  0
  5 13  1  0  0  0  0
  6 15  1  6  0  0  0
  6 14  1  0  0  0  0
  7 14  1  0  0  0  0
  8 21  1  0  0  0  0
  9  2  2  0  0  0  0
 10  1  1  0  0  0  0
 11 15  1  0  0  0  0
 11  7  1  0  0  0  0
 12 10  1  0  0  0  0
 12  6  1  0  0  0  0
 13 17  1  0  0  0  0
 14  4  2  0  0  0  0
 16  5  1  0  0  0  0
 16 10  2  0  0  0  0
 18 12  2  0  0  0  0
 19 22  1  1  0  0  0
 19 21  1  0  0  0  0
 20  8  1  0  0  0  0
 22 23  1  1  0  0  0
 24 22  1  0  0  0  0
 26 25  1  0  0  0  0
 26 24  1  0  0  0  0
M  END
>  <MODEL>
7

>  <REMARK>
 VINA RESULT:      -6.4      2.555      4.701
  Name = 
  3 active torsions:
  status: ('A' for Active; 'I' for Inactive)
    1  A    between atoms: C_3  and  C_14
    2  A    between atoms: C_3  and  C_24
    3  A    between atoms: C_14  and  C_23
                            x       y       z     vdW  Elec       q    Type
                         _______ _______ _______ _____ _____    ______ ____

>  <TORSDO>
F 3

$$$$
=
 OpenBabel11042416103D

 26 29  0  0  1  0  0  0  0  0999 V2000
  188.7940  176.8210  145.3130 C   0  0  1  0  0  3  0  0  0  0  0  0
  188.6690  175.1280  143.5360 C   0  0  0  0  0  3  0  0  0  0  0  0
  187.8650  177.4770  142.9960 C   0  0  1  0  0  3  0  0  0  0  0  0
  187.4120  178.6560  143.7510 N   0  0  0  0  0  0  0  0  0  0  0  0
  189.5080  174.9630  147.2510 N   0  0  0  0  0  2  0  0  0  0  0  0
  185.7250  177.4760  145.1490 C   0  0  2  0  0  3  0  0  0  0  0  0
  186.0230  179.8370  145.2170 O   0  0  0  0  0  0  0  0  0  0  0  0
  188.6320  175.4290  141.0530 C   0  0  0  0  0  2  0  0  0  0  0  0
  188.4420  176.4070  143.9110 C   0  0  0  0  0  0  0  0  0  0  0  0
  187.7990  176.3010  146.3170 C   0  0  0  0  0  0  0  0  0  0  0  0
  184.8370  179.6100  145.9520 C   0  0  0  0  0  2  0  0  0  0  0  0
  186.3850  176.7510  146.3180 C   0  0  0  0  0  0  0  0  0  0  0  0
  190.3740  175.1410  146.1580 N   0  0  0  0  0  2  0  0  0  0  0  0
  186.4930  178.6620  144.6750 C   0  0  0  0  0  0  0  0  0  0  0  0
  184.4410  178.1640  145.6290 C   0  0  0  0  0  2  0  0  0  0  0  0
  188.1900  175.4520  147.2210 N   0  0  0  0  0  0  0  0  0  0  0  0
  190.2460  176.5210  145.7080 C   0  0  0  0  0  2  0  0  0  0  0  0
  185.6690  176.4220  147.3040 O   0  0  0  0  0  0  0  0  0  0  0  0
  186.7950  176.9490  142.0140 C   0  0  2  0  0  3  0  0  0  0  0  0
  188.3230  174.5010  142.2130 C   0  0  0  0  0  2  0  0  0  0  0  0
  187.4410  176.3370  140.7580 C   0  0  0  0  0  2  0  0  0  0  0  0
  185.7460  177.9980  141.6210 C   0  0  1  0  0  3  0  0  0  0  0  0
  185.8060  178.2770  140.2520 O   0  0  0  0  0  1  0  0  0  0  0  0
  184.3470  177.5410  142.0140 C   0  0  0  0  0  2  0  0  0  0  0  0
  182.1450  178.4700  142.0010 O   0  0  0  0  0  1  0  0  0  0  0  0
  183.2880  178.2910  141.2230 C   0  0  0  0  0  2  0  0  0  0  0  0
  1 17  1  1  0  0  0
  1 10  1  0  0  0  0
  2  9  2  0  0  0  0
  3  4  1  1  0  0  0
  3  9  1  0  0  0  0
  4 14  2  0  0  0  0
  6 15  1  1  0  0  0
  6 12  1  0  0  0  0
  7 11  1  0  0  0  0
  8 20  1  0  0  0  0
  9  1  1  0  0  0  0
 10 12  1  0  0  0  0
 10 16  2  0  0  0  0
 12 18  2  0  0  0  0
 13  5  1  0  0  0  0
 14  6  1  0  0  0  0
 14  7  1  0  0  0  0
 15 11  1  0  0  0  0
 16  5  1  0  0  0  0
 17 13  1  0  0  0  0
 19 22  1  6  0  0  0
 19  3  1  0  0  0  0
 20  2  1  0  0  0  0
 21  8  1  0  0  0  0
 21 19  1  0  0  0  0
 22 23  1  6  0  0  0
 22 24  1  0  0  0  0
 26 25  1  0  0  0  0
 26 24  1  0  0  0  0
M  END
>  <MODEL>
8

>  <REMARK>
 VINA RESULT:      -6.4      2.442      5.763
  Name = 
  3 active torsions:
  status: ('A' for Active; 'I' for Inactive)
    1  A    between atoms: C_3  and  C_14
    2  A    between atoms: C_3  and  C_24
    3  A    between atoms: C_14  and  C_23
                            x       y       z     vdW  Elec       q    Type
                         _______ _______ _______ _____ _____    ______ ____

>  <TORSDO>
F 3

$$$$
=
 OpenBabel11042416103D

 26 29  0  0  1  0  0  0  0  0999 V2000
  189.2220  177.0450  144.9630 C   0  0  1  0  0  3  0  0  0  0  0  0
  189.5600  174.6730  145.5100 C   0  0  0  0  0  3  0  0  0  0  0  0
  190.0090  175.4160  143.1220 C   0  0  1  0  0  3  0  0  0  0  0  0
  189.6270  176.5470  142.2610 N   0  0  0  0  0  0  0  0  0  0  0  0
  188.0900  177.6170  147.4360 N   0  0  0  0  0  2  0  0  0  0  0  0
  187.1760  176.4070  142.6660 C   0  0  2  0  0  3  0  0  0  0  0  0
  188.1350  177.9380  141.1160 O   0  0  0  0  0  0  0  0  0  0  0  0
  191.0070  172.9720  144.3820 C   0  0  0  0  0  2  0  0  0  0  0  0
  189.5950  175.6430  144.5690 C   0  0  0  0  0  0  0  0  0  0  0  0
  187.7340  177.2020  145.1370 C   0  0  0  0  0  0  0  0  0  0  0  0
  186.7440  178.0090  140.8680 C   0  0  0  0  0  2  0  0  0  0  0  0
  186.7970  177.0530  143.9960 C   0  0  0  0  0  0  0  0  0  0  0  0
  189.4170  177.1540  147.4090 N   0  0  0  0  0  2  0  0  0  0  0  0
  188.4130  176.9760  142.0600 C   0  0  0  0  0  0  0  0  0  0  0  0
  186.1500  176.7970  141.5950 C   0  0  0  0  0  2  0  0  0  0  0  0
  187.2570  177.4960  146.3100 N   0  0  0  0  0  0  0  0  0  0  0  0
  190.0180  177.5920  146.1560 C   0  0  0  0  0  2  0  0  0  0  0  0
  185.5940  177.3900  144.1810 O   0  0  0  0  0  0  0  0  0  0  0  0
  189.5610  174.0520  142.5500 C   0  0  2  0  0  3  0  0  0  0  0  0
  189.8250  173.2070  145.3040 C   0  0  0  0  0  2  0  0  0  0  0  0
  190.5530  172.9370  142.9240 C   0  0  0  0  0  2  0  0  0  0  0  0
  189.3170  174.0670  141.0360 C   0  0  1  0  0  3  0  0  0  0  0  0
  190.4890  173.7620  140.3370 O   0  0  0  0  0  1  0  0  0  0  0  0
  188.2000  173.1030  140.6560 C   0  0  0  0  0  2  0  0  0  0  0  0
  187.9740  173.6290  138.3350 O   0  0  0  0  0  1  0  0  0  0  0  0
  188.3600  172.6240  139.2230 C   0  0  0  0  0  2  0  0  0  0  0  0
  1 10  1  0  0  0  0
  1 17  1  1  0  0  0
  3  4  1  6  0  0  0
  3  9  1  0  0  0  0
  6 15  1  6  0  0  0
  6 12  1  0  0  0  0
  7 14  1  0  0  0  0
  8 20  1  0  0  0  0
  9  1  1  0  0  0  0
  9  2  2  0  0  0  0
 10 16  2  0  0  0  0
 11  7  1  0  0  0  0
 11 15  1  0  0  0  0
 12 18  2  0  0  0  0
 12 10  1  0  0  0  0
 13  5  1  0  0  0  0
 14  4  2  0  0  0  0
 14  6  1  0  0  0  0
 16  5  1  0  0  0  0
 17 13  1  0  0  0  0
 19 22  1  6  0  0  0
 19 21  1  0  0  0  0
 19  3  1  0  0  0  0
 20  2  1  0  0  0  0
 21  8  1  0  0  0  0
 22 23  1  6  0  0  0
 24 22  1  0  0  0  0
 25 26  1  0  0  0  0
 26 24  1  0  0  0  0
M  END
>  <MODEL>
9

>  <REMARK>
 VINA RESULT:      -6.1      3.436      6.000
  Name = 
  3 active torsions:
  status: ('A' for Active; 'I' for Inactive)
    1  A    between atoms: C_3  and  C_14
    2  A    between atoms: C_3  and  C_24
    3  A    between atoms: C_14  and  C_23
                            x       y       z     vdW  Elec       q    Type
                         _______ _______ _______ _____ _____    ______ ____

>  <TORSDO>
F 3

$$$$
