=
 OpenBabel11042416203D

 66 73  0  0  1  0  0  0  0  0999 V2000
  190.4830  175.3280  143.8650 C   0  0  2  0  0  3  0  0  0  0  0  0
  190.6140  174.1960  142.8990 C   0  0  0  0  0  0  0  0  0  0  0  0
  191.6740  174.1690  141.9900 O   0  0  0  0  0  0  0  0  0  0  0  0
  191.9130  173.1210  141.0460 C   0  0  0  0  0  0  0  0  0  0  0  0
  190.8070  173.0930  140.0050 C   0  0  2  0  0  3  0  0  0  0  0  0
  190.8670  171.9950  141.0550 C   0  0  0  0  0  0  0  0  0  0  0  0
  189.7170  173.2230  142.9070 C   0  0  0  0  0  3  0  0  0  0  0  0
  189.8080  172.1650  142.0030 O   0  0  0  0  0  0  0  0  0  0  0  0
  191.3710  172.5810  138.6960 C   0  0  0  0  0  2  0  0  0  0  0  0
  190.8990  173.4610  137.5580 C   0  0  0  0  0  2  0  0  0  0  0  0
  192.0780  173.8220  136.6780 C   0  0  0  0  0  2  0  0  0  0  0  0
  193.3650  173.7600  137.4830 C   0  0  0  0  0  2  0  0  0  0  0  0
  194.0130  175.7910  136.5440 C   0  0  0  0  0  1  0  0  0  0  0  0
  193.8190  175.1030  137.8100 N   0  0  0  0  0  0  0  0  0  0  0  0
  195.0190  175.0780  139.8590 N   0  0  0  0  0  0  0  0  0  0  0  0
  195.1330  174.9670  138.4190 C   0  0  1  0  0  3  0  0  0  0  0  0
  195.1600  173.8590  139.2130 O   0  0  0  0  0  0  0  0  0  0  0  0
  196.3090  175.4690  140.4640 C   0  0  0  0  0  0  0  0  0  0  0  0
  197.3220  175.6550  139.5110 O   0  0  0  0  0  1  0  0  0  0  0  0
  196.7120  174.4650  141.3480 O   0  0  0  0  0  1  0  0  0  0  0  0
  196.1340  176.7660  141.2470 C   0  0  0  0  0  2  0  0  0  0  0  0
  194.7910  177.0430  141.4360 F   0  0  0  0  0  0  0  0  0  0  0  0
  189.4960  177.5890  144.1980 C   0  0  0  0  0  2  0  0  0  0  0  0
  188.4370  176.7040  143.5660 C   0  0  2  0  0  3  0  0  0  0  0  0
  189.8960  176.5480  143.1700 C   0  0  2  0  0  3  0  0  0  0  0  0
  187.7440  177.4450  142.5300 N   0  0  0  0  0  2  0  0  0  0  0  0
  186.4700  176.7840  142.3180 C   0  0  0  0  0  2  0  0  0  0  0  0
  182.7290  178.8490  141.5520 C   0  0  2  0  0  3  0  0  0  0  0  0
  185.7970  177.3810  141.1780 N   0  0  0  0  0  2  0  0  0  0  0  0
  184.5200  177.9950  141.3240 C   0  0  0  0  0  0  0  0  0  0  0  0
  183.6750  178.6140  140.4800 N   0  0  0  0  0  0  0  0  0  0  0  0
  183.5610  178.1820  142.4700 C   0  0  1  0  0  3  0  0  0  0  0  0
  185.2830  179.7030  143.1390 F   0  0  0  0  0  0  0  0  0  0  0  0
  184.1130  179.1040  143.5700 C   0  0  2  0  0  3  0  0  0  0  0  0
  184.4010  178.2970  145.1870 S   0  0  0  0  0  1  0  0  0  0  0  0
  181.4590  178.0410  141.3190 C   0  0  0  0  0  2  0  0  0  0  0  0
  180.2210  178.8790  141.6170 C   0  0  2  0  0  3  0  0  0  0  0  0
  178.0380  178.6300  142.5920 O   0  0  0  0  0  0  0  0  0  0  0  0
  178.7880  179.2170  143.5360 O   0  0  0  0  0  0  0  0  0  0  0  0
  179.3580  178.2530  142.7270 C   0  0  0  0  0  3  0  0  0  0  0  0
  179.4950  179.0930  140.4410 O   0  0  0  0  0  0  0  0  0  0  0  0
  179.8410  180.3820  140.0360 C   0  0  0  0  0  2  0  0  0  0  0  0
  179.3600  181.2990  140.9500 F   0  0  0  0  0  0  0  0  0  0  0  0
  191.7400  175.6450  144.3880 O   0  0  0  0  0  0  0  0  0  0  0  0
  191.6780  175.2800  145.7360 C   0  0  0  0  0  2  0  0  0  0  0  0
  192.7880  175.9710  146.5080 C   0  0  0  0  0  2  0  0  0  0  0  0
  194.0090  175.2670  146.3310 O   0  0  0  0  0  0  0  0  0  0  0  0
  194.8680  176.7280  144.7650 O   0  0  0  0  0  0  0  0  0  0  0  0
  195.8270  174.6180  144.8300 N   0  0  0  0  0  2  0  0  0  0  0  0
  194.9000  175.5900  145.3050 C   0  0  0  0  0  0  0  0  0  0  0  0
  192.4060  170.2790  143.8470 C   0  0  0  0  0  1  0  0  0  0  0  0
  195.9860  170.6720  142.6150 C   0  0  2  0  0  3  0  0  0  0  0  0
  194.5790  168.6920  142.6880 O   0  0  0  0  0  0  0  0  0  0  0  0
  194.7460  169.9150  142.9450 C   0  0  0  0  0  0  0  0  0  0  0  0
  197.0090  171.2040  145.1250 O   0  0  0  0  0  1  0  0  0  0  0  0
  194.2460  172.0540  143.7520 C   0  0  2  0  0  3  0  0  0  0  0  0
  195.8720  173.2690  145.3740 C   0  0  1  0  0  3  0  0  0  0  0  0
  194.1830  172.6110  145.4880 S   0  0  0  0  0  0  0  0  0  0  0  0
  196.6380  172.3620  144.4350 C   0  0  2  0  0  3  0  0  0  0  0  0
  193.7820  170.6900  143.6310 N   0  0  0  0  0  0  0  0  0  0  0  0
  195.7040  172.0410  143.2670 C   0  0  1  0  0  3  0  0  0  0  0  0
  196.1940  170.8490  141.0990 C   0  0  2  0  0  3  0  0  0  0  0  0
  194.8710  170.8480  140.3490 C   0  0  0  0  0  1  0  0  0  0  0  0
  197.0390  169.7140  140.5280 C   0  0  0  0  0  2  0  0  0  0  0  0
  197.9160  170.1670  139.3700 C   0  0  0  0  0  2  0  0  0  0  0  0
  197.9260  171.5610  139.2820 O   0  0  0  0  0  1  0  0  0  0  0  0
  1 44  1  6  0  0  0
  2  7  2  0  0  0  0
  2  1  1  0  0  0  0
  3  2  1  0  0  0  0
  4  6  2  0  0  0  0
  4  3  1  0  0  0  0
  5  9  1  6  0  0  0
  5  4  1  0  0  0  0
  5  6  1  0  0  0  0
  6  8  1  0  0  0  0
  8  7  1  0  0  0  0
 10  9  1  0  0  0  0
 11 12  1  0  0  0  0
 11 10  1  0  0  0  0
 12 14  1  0  0  0  0
 13 14  1  0  0  0  0
 15 18  1  0  0  0  0
 16 14  1  6  0  0  0
 16 17  1  0  0  0  0
 16 15  1  0  0  0  0
 17 15  1  0  0  0  0
 18 21  1  0  0  0  0
 18 20  1  0  0  0  0
 19 18  1  0  0  0  0
 21 22  1  0  0  0  0
 24 26  1  6  0  0  0
 24 23  1  0  0  0  0
 25 24  1  0  0  0  0
 25  1  1  1  0  0  0
 25 23  1  0  0  0  0
 27 26  1  0  0  0  0
 28 36  1  6  0  0  0
 28 32  1  0  0  0  0
 29 30  1  0  0  0  0
 29 27  1  0  0  0  0
 30 32  1  0  0  0  0
 31 30  2  0  0  0  0
 31 28  1  0  0  0  0
 32 34  1  1  0  0  0
 34 33  1  6  0  0  0
 34 35  1  0  0  0  0
 37 36  1  6  0  0  0
 37 40  1  0  0  0  0
 38 40  1  0  0  0  0
 38 39  1  0  0  0  0
 40 39  1  0  0  0  0
 41 37  1  0  0  0  0
 42 41  1  0  0  0  0
 42 43  1  0  0  0  0
 44 45  1  0  0  0  0
 45 46  1  0  0  0  0
 47 46  1  0  0  0  0
 48 50  2  0  0  0  0
 49 50  1  0  0  0  0
 50 47  1  0  0  0  0
 52 62  1  6  0  0  0
 52 54  1  0  0  0  0
 52 61  1  0  0  0  0
 53 54  2  0  0  0  0
 54 60  1  0  0  0  0
 56 58  1  1  0  0  0
 57 49  1  6  0  0  0
 57 58  1  0  0  0  0
 59 55  1  1  0  0  0
 59 57  1  0  0  0  0
 60 56  1  0  0  0  0
 60 51  1  0  0  0  0
 61 56  1  0  0  0  0
 61 59  1  0  0  0  0
 63 62  1  0  0  0  0
 64 62  1  0  0  0  0
 65 64  1  0  0  0  0
 66 65  1  0  0  0  0
M  END
>  <MODEL>
1

>  <REMARK>
 VINA RESULT:      -5.2      0.000      0.000
  Name = 
  28 active torsions:
  status: ('A' for Active; 'I' for Inactive)
    1  A    between atoms: C_1  and  C_34
    2  A    between atoms: C_2  and  O_12
    3  A    between atoms: C_2  and  C_27
    4  A    between atoms: C_2  and  C_52
    5  A    between atoms: O_3  and  C_32
    6  A    between atoms: O_3  and  C_34
    7  A    between atoms: C_5  and  C_18
    8  A    between atoms: C_5  and  N_55
    9  A    between atoms: C_7  and  C_17
   10  A    between atoms: C_7  and  C_25
   11  A    between atoms: C_9  and  C_11
   12  A    between atoms: C_9  and  C_14
   13  A    between atoms: C_10  and  C_24
   14  A    between atoms: C_11  and  C_18
   15  A    between atoms: O_12  and  C_53
   16  A    between atoms: C_13  and  N_22
   17  A    between atoms: C_13  and  N_33
   18  A    between atoms: N_15  and  C_24
   19  A    between atoms: C_19  and  C_27
   20  A    between atoms: C_25  and  C_54
   21  A    between atoms: O_28  and  C_49
   22  A    between atoms: O_28  and  C_65
   23  A    between atoms: C_32  and  C_49
   24  A    between atoms: N_33  and  C_43
   25  A    between atoms: C_34  and  C_59
   26  A    between atoms: C_35  and  C_61
   27  A    between atoms: C_45  and  N_63
   28  A    between atoms: C_46  and  N_55
                            x       y       z     vdW  Elec       q    Type
                         _______ _______ _______ _____ _____    ______ ____

>  <TORSDO>
F 28

$$$$
=
 OpenBabel11042416203D

 66 73  0  0  1  0  0  0  0  0999 V2000
  190.7150  171.3510  143.5100 C   0  0  2  0  0  3  0  0  0  0  0  0
  191.3800  172.5590  144.0850 C   0  0  0  0  0  0  0  0  0  0  0  0
  190.6850  173.3880  144.9670 O   0  0  0  0  0  0  0  0  0  0  0  0
  191.2340  174.5490  145.6000 C   0  0  0  0  0  0  0  0  0  0  0  0
  191.5220  175.6220  144.5640 C   0  0  2  0  0  3  0  0  0  0  0  0
  192.6810  174.8750  145.2020 C   0  0  0  0  0  0  0  0  0  0  0  0
  192.6280  172.8400  143.7470 C   0  0  0  0  0  3  0  0  0  0  0  0
  193.2650  173.9720  144.2570 O   0  0  0  0  0  0  0  0  0  0  0  0
  191.3740  176.9850  145.2070 C   0  0  0  0  0  2  0  0  0  0  0  0
  190.5970  177.9020  144.2860 C   0  0  0  0  0  2  0  0  0  0  0  0
  189.9370  177.0810  143.1970 C   0  0  0  0  0  2  0  0  0  0  0  0
  188.6130  176.5260  143.6960 C   0  0  0  0  0  2  0  0  0  0  0  0
  188.0590  177.9940  141.9730 C   0  0  0  0  0  1  0  0  0  0  0  0
  187.5050  177.2530  143.0950 N   0  0  0  0  0  0  0  0  0  0  0  0
  185.7380  177.8990  144.5450 N   0  0  0  0  0  0  0  0  0  0  0  0
  187.0660  178.2360  144.0720 C   0  0  1  0  0  3  0  0  0  0  0  0
  186.8830  177.6330  145.2820 O   0  0  0  0  0  0  0  0  0  0  0  0
  185.0560  179.0860  145.1010 C   0  0  0  0  0  0  0  0  0  0  0  0
  184.7190  180.0290  144.1170 O   0  0  0  0  0  1  0  0  0  0  0  0
  185.9050  179.6960  146.0270 O   0  0  0  0  0  1  0  0  0  0  0  0
  183.7820  178.6540  145.8180 C   0  0  0  0  0  2  0  0  0  0  0  0
  184.0790  177.8050  146.8700 F   0  0  0  0  0  0  0  0  0  0  0  0
  190.9920  169.4690  141.9030 C   0  0  0  0  0  2  0  0  0  0  0  0
  192.2760  169.5960  142.7020 C   0  0  2  0  0  3  0  0  0  0  0  0
  191.4980  170.8410  142.3080 C   0  0  2  0  0  3  0  0  0  0  0  0
  193.4130  169.4510  141.8130 N   0  0  0  0  0  2  0  0  0  0  0  0
  194.0200  168.1670  142.1090 C   0  0  0  0  0  2  0  0  0  0  0  0
  197.2410  169.5760  144.6560 C   0  0  2  0  0  3  0  0  0  0  0  0
  195.4650  168.2840  142.0320 N   0  0  0  0  0  2  0  0  0  0  0  0
  196.2130  168.8200  143.1190 C   0  0  0  0  0  0  0  0  0  0  0  0
  197.5210  169.0460  143.3370 N   0  0  0  0  0  0  0  0  0  0  0  0
  195.8590  169.3900  144.4680 C   0  0  1  0  0  3  0  0  0  0  0  0
  193.8880  168.2520  145.2060 F   0  0  0  0  0  0  0  0  0  0  0  0
  195.2510  168.3460  145.4190 C   0  0  2  0  0  3  0  0  0  0  0  0
  195.5710  168.6360  147.1970 S   0  0  0  0  0  1  0  0  0  0  0  0
  197.5640  171.0630  144.7050 C   0  0  0  0  0  2  0  0  0  0  0  0
  196.3010  171.8980  144.5290 C   0  0  2  0  0  3  0  0  0  0  0  0
  196.3990  172.1310  142.1380 O   0  0  0  0  0  0  0  0  0  0  0  0
  197.5590  172.6240  142.5950 O   0  0  0  0  0  0  0  0  0  0  0  0
  196.4030  172.8440  143.3190 C   0  0  0  0  0  3  0  0  0  0  0  0
  196.0150  172.5850  145.7130 O   0  0  0  0  0  0  0  0  0  0  0  0
  197.0030  173.5650  145.8060 C   0  0  0  0  0  2  0  0  0  0  0  0
  197.3220  173.7760  147.1330 F   0  0  0  0  0  0  0  0  0  0  0  0
  189.4130  171.6750  143.1180 O   0  0  0  0  0  0  0  0  0  0  0  0
  189.5480  172.2850  141.8680 C   0  0  0  0  0  2  0  0  0  0  0  0
  188.2230  172.8920  141.4450 C   0  0  0  0  0  2  0  0  0  0  0  0
  188.1110  172.8690  140.0290 O   0  0  0  0  0  0  0  0  0  0  0  0
  187.9740  175.1170  139.5290 O   0  0  0  0  0  0  0  0  0  0  0  0
  189.2710  173.8290  138.1030 N   0  0  0  0  0  2  0  0  0  0  0  0
  188.4390  173.9800  139.2500 C   0  0  0  0  0  0  0  0  0  0  0  0
  193.4480  172.6320  134.5490 C   0  0  0  0  0  1  0  0  0  0  0  0
  193.5170  172.2740  138.3380 C   0  0  2  0  0  3  0  0  0  0  0  0
  195.0250  171.3610  136.6650 O   0  0  0  0  0  0  0  0  0  0  0  0
  193.9840  172.0140  136.9480 C   0  0  0  0  0  0  0  0  0  0  0  0
  191.1980  170.7770  138.4450 O   0  0  0  0  0  1  0  0  0  0  0  0
  192.0290  173.2470  136.5870 C   0  0  2  0  0  3  0  0  0  0  0  0
  189.7900  172.5320  137.6960 C   0  0  1  0  0  3  0  0  0  0  0  0
  190.4140  172.6410  135.9940 S   0  0  0  0  0  0  0  0  0  0  0  0
  190.9630  172.1500  138.5730 C   0  0  2  0  0  3  0  0  0  0  0  0
  193.1130  172.5270  135.9590 N   0  0  0  0  0  0  0  0  0  0  0  0
  192.1620  172.9680  138.0920 C   0  0  1  0  0  3  0  0  0  0  0  0
  194.4530  173.2160  139.1180 C   0  0  2  0  0  3  0  0  0  0  0  0
  193.7550  173.8220  140.3270 C   0  0  0  0  0  1  0  0  0  0  0  0
  194.9200  174.3730  138.2400 C   0  0  0  0  0  2  0  0  0  0  0  0
  196.4330  174.5240  138.2320 C   0  0  0  0  0  2  0  0  0  0  0  0
  196.8320  175.4720  139.1780 O   0  0  0  0  0  1  0  0  0  0  0  0
  1 44  1  6  0  0  0
  1  2  1  0  0  0  0
  2  3  1  0  0  0  0
  3  4  1  0  0  0  0
  5  6  1  0  0  0  0
  5  9  1  1  0  0  0
  5  4  1  0  0  0  0
  6  4  2  0  0  0  0
  7  2  2  0  0  0  0
  7  8  1  0  0  0  0
  8  6  1  0  0  0  0
 10  9  1  0  0  0  0
 11 12  1  0  0  0  0
 11 10  1  0  0  0  0
 13 14  1  0  0  0  0
 14 12  1  0  0  0  0
 15 18  1  0  0  0  0
 15 17  1  0  0  0  0
 16 14  1  6  0  0  0
 16 15  1  0  0  0  0
 16 17  1  0  0  0  0
 18 21  1  0  0  0  0
 18 20  1  0  0  0  0
 19 18  1  0  0  0  0
 21 22  1  0  0  0  0
 23 25  1  0  0  0  0
 23 24  1  0  0  0  0
 24 26  1  6  0  0  0
 25 24  1  0  0  0  0
 25  1  1  1  0  0  0
 26 27  1  0  0  0  0
 28 36  1  6  0  0  0
 29 27  1  0  0  0  0
 29 30  1  0  0  0  0
 30 31  2  0  0  0  0
 30 32  1  0  0  0  0
 31 28  1  0  0  0  0
 32 28  1  0  0  0  0
 32 34  1  1  0  0  0
 34 33  1  1  0  0  0
 34 35  1  0  0  0  0
 37 36  1  1  0  0  0
 37 41  1  0  0  0  0
 38 39  1  0  0  0  0
 38 40  1  0  0  0  0
 39 40  1  0  0  0  0
 40 37  1  0  0  0  0
 41 42  1  0  0  0  0
 42 43  1  0  0  0  0
 45 44  1  0  0  0  0
 46 45  1  0  0  0  0
 47 46  1  0  0  0  0
 49 50  1  0  0  0  0
 50 48  2  0  0  0  0
 50 47  1  0  0  0  0
 51 60  1  0  0  0  0
 52 62  1  6  0  0  0
 53 54  2  0  0  0  0
 54 52  1  0  0  0  0
 56 58  1  6  0  0  0
 56 61  1  0  0  0  0
 57 49  1  1  0  0  0
 57 59  1  0  0  0  0
 58 57  1  0  0  0  0
 59 55  1  6  0  0  0
 60 56  1  0  0  0  0
 60 54  1  0  0  0  0
 61 52  1  0  0  0  0
 61 59  1  0  0  0  0
 62 63  1  0  0  0  0
 64 62  1  0  0  0  0
 65 64  1  0  0  0  0
 65 66  1  0  0  0  0
M  END
>  <MODEL>
2

>  <REMARK>
 VINA RESULT:      -5.2      3.733     11.107
  Name = 
  28 active torsions:
  status: ('A' for Active; 'I' for Inactive)
    1  A    between atoms: C_1  and  C_34
    2  A    between atoms: C_2  and  O_12
    3  A    between atoms: C_2  and  C_27
    4  A    between atoms: C_2  and  C_52
    5  A    between atoms: O_3  and  C_32
    6  A    between atoms: O_3  and  C_34
    7  A    between atoms: C_5  and  C_18
    8  A    between atoms: C_5  and  N_55
    9  A    between atoms: C_7  and  C_17
   10  A    between atoms: C_7  and  C_25
   11  A    between atoms: C_9  and  C_11
   12  A    between atoms: C_9  and  C_14
   13  A    between atoms: C_10  and  C_24
   14  A    between atoms: C_11  and  C_18
   15  A    between atoms: O_12  and  C_53
   16  A    between atoms: C_13  and  N_22
   17  A    between atoms: C_13  and  N_33
   18  A    between atoms: N_15  and  C_24
   19  A    between atoms: C_19  and  C_27
   20  A    between atoms: C_25  and  C_54
   21  A    between atoms: O_28  and  C_49
   22  A    between atoms: O_28  and  C_65
   23  A    between atoms: C_32  and  C_49
   24  A    between atoms: N_33  and  C_43
   25  A    between atoms: C_34  and  C_59
   26  A    between atoms: C_35  and  C_61
   27  A    between atoms: C_45  and  N_63
   28  A    between atoms: C_46  and  N_55
                            x       y       z     vdW  Elec       q    Type
                         _______ _______ _______ _____ _____    ______ ____

>  <TORSDO>
F 28

$$$$
=
 OpenBabel11042416203D

 66 73  0  0  1  0  0  0  0  0999 V2000
  190.4170  175.1550  144.1670 C   0  0  2  0  0  3  0  0  0  0  0  0
  190.4280  173.9310  143.3080 C   0  0  0  0  0  0  0  0  0  0  0  0
  191.1100  173.9360  142.0900 O   0  0  0  0  0  0  0  0  0  0  0  0
  191.2120  172.8140  141.2080 C   0  0  0  0  0  0  0  0  0  0  0  0
  189.8490  172.4800  140.6270 C   0  0  2  0  0  3  0  0  0  0  0  0
  190.4570  171.5590  141.6720 C   0  0  0  0  0  0  0  0  0  0  0  0
  189.7810  172.8480  143.7070 C   0  0  0  0  0  3  0  0  0  0  0  0
  189.7610  171.7000  142.9150 O   0  0  0  0  0  0  0  0  0  0  0  0
  190.0310  171.8810  139.2480 C   0  0  0  0  0  2  0  0  0  0  0  0
  189.7810  172.9400  138.1940 C   0  0  0  0  0  2  0  0  0  0  0  0
  190.8610  172.8620  137.1350 C   0  0  0  0  0  2  0  0  0  0  0  0
  192.0170  172.0110  137.6340 C   0  0  0  0  0  2  0  0  0  0  0  0
  192.7460  172.5310  135.4830 C   0  0  0  0  0  1  0  0  0  0  0  0
  193.2070  172.2610  136.8350 N   0  0  0  0  0  0  0  0  0  0  0  0
  195.3290  171.2780  136.4200 N   0  0  0  0  0  0  0  0  0  0  0  0
  193.9510  171.0130  136.7850 C   0  0  1  0  0  3  0  0  0  0  0  0
  194.9370  171.0250  137.7260 O   0  0  0  0  0  0  0  0  0  0  0  0
  195.9680  170.0720  135.8530 C   0  0  0  0  0  0  0  0  0  0  0  0
  195.0380  169.1500  135.3480 O   0  0  0  0  0  1  0  0  0  0  0  0
  196.7110  169.4460  136.8570 O   0  0  0  0  0  1  0  0  0  0  0  0
  196.9130  170.4750  134.7270 C   0  0  0  0  0  2  0  0  0  0  0  0
  197.9360  171.2720  135.2110 F   0  0  0  0  0  0  0  0  0  0  0  0
  189.7740  177.5570  144.2710 C   0  0  0  0  0  2  0  0  0  0  0  0
  188.5690  176.7700  143.7890 C   0  0  2  0  0  3  0  0  0  0  0  0
  189.9670  176.3620  143.3560 C   0  0  2  0  0  3  0  0  0  0  0  0
  187.9290  177.4840  142.7010 N   0  0  0  0  0  2  0  0  0  0  0  0
  186.6010  176.9190  142.5470 C   0  0  0  0  0  2  0  0  0  0  0  0
  182.8030  178.8290  141.6660 C   0  0  2  0  0  3  0  0  0  0  0  0
  185.9520  177.5150  141.3940 N   0  0  0  0  0  2  0  0  0  0  0  0
  184.6410  178.0650  141.4970 C   0  0  0  0  0  0  0  0  0  0  0  0
  183.8050  178.6670  140.6320 N   0  0  0  0  0  0  0  0  0  0  0  0
  183.6250  178.1770  142.6040 C   0  0  1  0  0  3  0  0  0  0  0  0
  185.2000  179.8140  143.3580 F   0  0  0  0  0  0  0  0  0  0  0  0
  184.0850  179.0940  143.7500 C   0  0  2  0  0  3  0  0  0  0  0  0
  184.4340  178.2440  145.3320 S   0  0  0  0  0  1  0  0  0  0  0  0
  181.5850  177.9700  141.3570 C   0  0  0  0  0  2  0  0  0  0  0  0
  180.3310  178.8290  141.2430 C   0  0  2  0  0  3  0  0  0  0  0  0
  178.2260  178.5750  142.3750 O   0  0  0  0  0  0  0  0  0  0  0  0
  178.9470  177.4960  142.7110 O   0  0  0  0  0  0  0  0  0  0  0  0
  179.0480  178.0000  141.4290 C   0  0  0  0  0  3  0  0  0  0  0  0
  180.3380  179.5240  140.0290 O   0  0  0  0  0  0  0  0  0  0  0  0
  179.8770  180.8020  140.3450 C   0  0  0  0  0  2  0  0  0  0  0  0
  178.9230  181.1900  139.4250 F   0  0  0  0  0  0  0  0  0  0  0  0
  191.7000  175.3810  144.6740 O   0  0  0  0  0  0  0  0  0  0  0  0
  191.6770  174.8580  145.9710 C   0  0  0  0  0  2  0  0  0  0  0  0
  192.6310  175.6380  146.8570 C   0  0  0  0  0  2  0  0  0  0  0  0
  193.9670  175.4470  146.4130 O   0  0  0  0  0  0  0  0  0  0  0  0
  194.0800  177.4240  145.2290 O   0  0  0  0  0  0  0  0  0  0  0  0
  195.6430  175.8050  144.6700 N   0  0  0  0  0  2  0  0  0  0  0  0
  194.5450  176.2740  145.4480 C   0  0  0  0  0  0  0  0  0  0  0  0
  193.7580  170.9310  142.6230 C   0  0  0  0  0  1  0  0  0  0  0  0
  196.8580  172.8240  141.4850 C   0  0  2  0  0  3  0  0  0  0  0  0
  196.1970  170.5270  141.0520 O   0  0  0  0  0  0  0  0  0  0  0  0
  195.9780  171.6300  141.6210 C   0  0  0  0  0  0  0  0  0  0  0  0
  197.9070  173.0480  144.0310 O   0  0  0  0  0  1  0  0  0  0  0  0
  194.8910  173.1990  142.9740 C   0  0  2  0  0  3  0  0  0  0  0  0
  196.1870  174.4660  144.8360 C   0  0  1  0  0  3  0  0  0  0  0  0
  194.8310  173.2590  144.7960 S   0  0  0  0  0  0  0  0  0  0  0  0
  197.1050  174.1380  143.6780 C   0  0  2  0  0  3  0  0  0  0  0  0
  194.8910  171.8320  142.5020 N   0  0  0  0  0  0  0  0  0  0  0  0
  196.2110  173.8080  142.4810 C   0  0  1  0  0  3  0  0  0  0  0  0
  196.8360  173.4270  140.0680 C   0  0  2  0  0  3  0  0  0  0  0  0
  197.6170  174.7310  140.0020 C   0  0  0  0  0  1  0  0  0  0  0  0
  195.4080  173.7330  139.6270 C   0  0  0  0  0  2  0  0  0  0  0  0
  195.3220  174.9710  138.7470 C   0  0  0  0  0  2  0  0  0  0  0  0
  195.3980  174.6160  137.3980 O   0  0  0  0  0  1  0  0  0  0  0  0
  1 44  1  6  0  0  0
  2  7  2  0  0  0  0
  2  1  1  0  0  0  0
  3  2  1  0  0  0  0
  4  6  2  0  0  0  0
  4  3  1  0  0  0  0
  5  9  1  6  0  0  0
  5  4  1  0  0  0  0
  5  6  1  0  0  0  0
  6  8  1  0  0  0  0
  8  7  1  0  0  0  0
 10  9  1  0  0  0  0
 11 12  1  0  0  0  0
 11 10  1  0  0  0  0
 13 14  1  0  0  0  0
 14 12  1  0  0  0  0
 15 16  1  0  0  0  0
 15 17  1  0  0  0  0
 16 14  1  1  0  0  0
 16 17  1  0  0  0  0
 18 15  1  0  0  0  0
 18 20  1  0  0  0  0
 19 18  1  0  0  0  0
 21 22  1  0  0  0  0
 21 18  1  0  0  0  0
 24 26  1  6  0  0  0
 24 23  1  0  0  0  0
 25 24  1  0  0  0  0
 25  1  1  1  0  0  0
 25 23  1  0  0  0  0
 27 26  1  0  0  0  0
 28 36  1  6  0  0  0
 28 32  1  0  0  0  0
 29 30  1  0  0  0  0
 29 27  1  0  0  0  0
 30 32  1  0  0  0  0
 31 30  2  0  0  0  0
 31 28  1  0  0  0  0
 32 34  1  1  0  0  0
 34 33  1  6  0  0  0
 34 35  1  0  0  0  0
 37 36  1  6  0  0  0
 37 40  1  0  0  0  0
 38 39  1  0  0  0  0
 40 38  1  0  0  0  0
 40 39  1  0  0  0  0
 41 42  1  0  0  0  0
 41 37  1  0  0  0  0
 43 42  1  0  0  0  0
 44 45  1  0  0  0  0
 45 46  1  0  0  0  0
 47 46  1  0  0  0  0
 48 50  2  0  0  0  0
 49 50  1  0  0  0  0
 50 47  1  0  0  0  0
 52 62  1  6  0  0  0
 52 54  1  0  0  0  0
 52 61  1  0  0  0  0
 53 54  2  0  0  0  0
 54 60  1  0  0  0  0
 56 58  1  1  0  0  0
 57 49  1  6  0  0  0
 58 57  1  0  0  0  0
 59 55  1  1  0  0  0
 59 57  1  0  0  0  0
 60 51  1  0  0  0  0
 60 56  1  0  0  0  0
 61 56  1  0  0  0  0
 61 59  1  0  0  0  0
 63 62  1  0  0  0  0
 64 62  1  0  0  0  0
 65 64  1  0  0  0  0
 66 65  1  0  0  0  0
M  END
>  <MODEL>
3

>  <REMARK>
 VINA RESULT:      -4.7      2.093      2.976
  Name = 
  28 active torsions:
  status: ('A' for Active; 'I' for Inactive)
    1  A    between atoms: C_1  and  C_34
    2  A    between atoms: C_2  and  O_12
    3  A    between atoms: C_2  and  C_27
    4  A    between atoms: C_2  and  C_52
    5  A    between atoms: O_3  and  C_32
    6  A    between atoms: O_3  and  C_34
    7  A    between atoms: C_5  and  C_18
    8  A    between atoms: C_5  and  N_55
    9  A    between atoms: C_7  and  C_17
   10  A    between atoms: C_7  and  C_25
   11  A    between atoms: C_9  and  C_11
   12  A    between atoms: C_9  and  C_14
   13  A    between atoms: C_10  and  C_24
   14  A    between atoms: C_11  and  C_18
   15  A    between atoms: O_12  and  C_53
   16  A    between atoms: C_13  and  N_22
   17  A    between atoms: C_13  and  N_33
   18  A    between atoms: N_15  and  C_24
   19  A    between atoms: C_19  and  C_27
   20  A    between atoms: C_25  and  C_54
   21  A    between atoms: O_28  and  C_49
   22  A    between atoms: O_28  and  C_65
   23  A    between atoms: C_32  and  C_49
   24  A    between atoms: N_33  and  C_43
   25  A    between atoms: C_34  and  C_59
   26  A    between atoms: C_35  and  C_61
   27  A    between atoms: C_45  and  N_63
   28  A    between atoms: C_46  and  N_55
                            x       y       z     vdW  Elec       q    Type
                         _______ _______ _______ _____ _____    ______ ____

>  <TORSDO>
F 28

$$$$
=
 OpenBabel11042416203D

 66 73  0  0  1  0  0  0  0  0999 V2000
  190.6350  171.5360  143.6410 C   0  0  2  0  0  3  0  0  0  0  0  0
  191.1990  172.7190  144.3580 C   0  0  0  0  0  0  0  0  0  0  0  0
  190.3900  173.8230  144.6330 O   0  0  0  0  0  0  0  0  0  0  0  0
  190.8170  174.9910  145.3410 C   0  0  0  0  0  0  0  0  0  0  0  0
  191.8490  175.7490  144.5240 C   0  0  2  0  0  3  0  0  0  0  0  0
  192.2950  174.9860  145.7600 C   0  0  0  0  0  0  0  0  0  0  0  0
  192.4700  172.7150  144.7240 C   0  0  0  0  0  3  0  0  0  0  0  0
  193.0250  173.8150  145.3790 O   0  0  0  0  0  0  0  0  0  0  0  0
  191.7480  177.2260  144.8420 C   0  0  0  0  0  2  0  0  0  0  0  0
  191.4920  178.0060  143.5690 C   0  0  0  0  0  2  0  0  0  0  0  0
  190.3730  177.3460  142.7900 C   0  0  0  0  0  2  0  0  0  0  0  0
  189.0400  177.6100  143.4700 C   0  0  0  0  0  2  0  0  0  0  0  0
  187.4260  176.9230  141.9370 C   0  0  0  0  0  1  0  0  0  0  0  0
  188.1010  176.5420  143.1670 N   0  0  0  0  0  0  0  0  0  0  0  0
  186.1500  177.6270  143.9810 N   0  0  0  0  0  0  0  0  0  0  0  0
  187.0960  176.5540  144.2190 C   0  0  1  0  0  3  0  0  0  0  0  0
  185.8670  176.3020  143.6840 O   0  0  0  0  0  0  0  0  0  0  0  0
  185.4610  178.0130  145.2300 C   0  0  0  0  0  0  0  0  0  0  0  0
  186.2750  178.7700  146.0870 O   0  0  0  0  0  1  0  0  0  0  0  0
  185.0690  176.8520  145.9010 O   0  0  0  0  0  1  0  0  0  0  0  0
  184.2160  178.8270  144.8960 C   0  0  0  0  0  2  0  0  0  0  0  0
  184.5650  180.0300  144.3050 F   0  0  0  0  0  0  0  0  0  0  0  0
  191.2510  169.7600  142.0080 C   0  0  0  0  0  2  0  0  0  0  0  0
  192.4930  170.1170  142.8030 C   0  0  2  0  0  3  0  0  0  0  0  0
  191.4920  171.1970  142.4290 C   0  0  2  0  0  3  0  0  0  0  0  0
  193.6310  170.2000  141.9080 N   0  0  0  0  0  2  0  0  0  0  0  0
  194.5590  169.1580  142.3070 C   0  0  0  0  0  2  0  0  0  0  0  0
  196.9140  171.6320  144.9860 C   0  0  2  0  0  3  0  0  0  0  0  0
  195.9060  169.6980  142.3490 N   0  0  0  0  0  2  0  0  0  0  0  0
  196.3350  170.5040  143.4430 C   0  0  0  0  0  0  0  0  0  0  0  0
  197.4860  171.1260  143.7550 N   0  0  0  0  0  0  0  0  0  0  0  0
  195.6770  171.0280  144.6930 C   0  0  1  0  0  3  0  0  0  0  0  0
  194.2290  170.3230  146.4620 F   0  0  0  0  0  0  0  0  0  0  0  0
  195.2950  169.9140  145.6810 C   0  0  2  0  0  3  0  0  0  0  0  0
  196.6530  169.3340  146.7610 S   0  0  0  0  0  1  0  0  0  0  0  0
  196.7810  173.1470  144.9200 C   0  0  0  0  0  2  0  0  0  0  0  0
  196.7120  173.6230  143.4740 C   0  0  2  0  0  3  0  0  0  0  0  0
  197.7340  175.7990  143.4210 O   0  0  0  0  0  0  0  0  0  0  0  0
  197.6200  175.4240  142.1390 O   0  0  0  0  0  0  0  0  0  0  0  0
  197.9360  174.4750  143.0910 C   0  0  0  0  0  3  0  0  0  0  0  0
  195.5090  174.3000  143.2510 O   0  0  0  0  0  0  0  0  0  0  0  0
  194.9180  173.6360  142.1750 C   0  0  0  0  0  2  0  0  0  0  0  0
  193.6670  174.1680  141.9350 F   0  0  0  0  0  0  0  0  0  0  0  0
  189.3290  171.8180  143.2280 O   0  0  0  0  0  0  0  0  0  0  0  0
  189.4690  172.5320  142.0340 C   0  0  0  0  0  2  0  0  0  0  0  0
  188.1010  172.9170  141.5010 C   0  0  0  0  0  2  0  0  0  0  0  0
  188.0850  172.8040  140.0850 O   0  0  0  0  0  0  0  0  0  0  0  0
  187.9340  174.8820  139.0940 O   0  0  0  0  0  0  0  0  0  0  0  0
  189.8180  173.6340  138.5730 N   0  0  0  0  0  2  0  0  0  0  0  0
  188.5850  173.8160  139.2630 C   0  0  0  0  0  0  0  0  0  0  0  0
  191.5800  170.1760  134.5180 C   0  0  0  0  0  1  0  0  0  0  0  0
  193.7340  172.5450  136.5770 C   0  0  2  0  0  3  0  0  0  0  0  0
  194.3930  170.6800  135.1650 O   0  0  0  0  0  0  0  0  0  0  0  0
  193.4810  171.3790  135.6860 C   0  0  0  0  0  0  0  0  0  0  0  0
  192.7980  171.6160  139.0040 O   0  0  0  0  0  1  0  0  0  0  0  0
  191.3100  172.0780  136.2090 C   0  0  2  0  0  3  0  0  0  0  0  0
  190.5850  172.4020  138.6830 C   0  0  1  0  0  3  0  0  0  0  0  0
  190.1160  171.2810  137.3340 S   0  0  0  0  0  0  0  0  0  0  0  0
  192.0600  172.7000  138.5180 C   0  0  2  0  0  3  0  0  0  0  0  0
  192.1070  171.0890  135.5180 N   0  0  0  0  0  0  0  0  0  0  0  0
  192.3060  172.9170  137.0240 C   0  0  1  0  0  3  0  0  0  0  0  0
  194.3760  173.7350  135.8400 C   0  0  2  0  0  3  0  0  0  0  0  0
  195.8450  173.4790  135.5370 C   0  0  0  0  0  1  0  0  0  0  0  0
  194.3030  175.0040  136.6830 C   0  0  0  0  0  2  0  0  0  0  0  0
  195.0920  174.8880  137.9790 C   0  0  0  0  0  2  0  0  0  0  0  0
  194.3020  175.2730  139.0650 O   0  0  0  0  0  1  0  0  0  0  0  0
  1 44  1  6  0  0  0
  1  2  1  0  0  0  0
  2  3  1  0  0  0  0
  2  7  2  0  0  0  0
  3  4  1  0  0  0  0
  4  6  2  0  0  0  0
  5  9  1  1  0  0  0
  5  4  1  0  0  0  0
  5  6  1  0  0  0  0
  7  8  1  0  0  0  0
  8  6  1  0  0  0  0
 10  9  1  0  0  0  0
 11 12  1  0  0  0  0
 11 10  1  0  0  0  0
 13 14  1  0  0  0  0
 14 12  1  0  0  0  0
 15 16  1  0  0  0  0
 15 18  1  0  0  0  0
 16 14  1  6  0  0  0
 17 15  1  0  0  0  0
 17 16  1  0  0  0  0
 18 20  1  0  0  0  0
 18 19  1  0  0  0  0
 21 18  1  0  0  0  0
 22 21  1  0  0  0  0
 23 25  1  0  0  0  0
 23 24  1  0  0  0  0
 24 26  1  6  0  0  0
 25 24  1  0  0  0  0
 25  1  1  1  0  0  0
 26 27  1  0  0  0  0
 27 29  1  0  0  0  0
 28 36  1  6  0  0  0
 29 30  1  0  0  0  0
 30 31  2  0  0  0  0
 30 32  1  0  0  0  0
 31 28  1  0  0  0  0
 32 28  1  0  0  0  0
 32 34  1  1  0  0  0
 34 33  1  1  0  0  0
 34 35  1  0  0  0  0
 37 36  1  1  0  0  0
 39 40  1  0  0  0  0
 39 38  1  0  0  0  0
 40 38  1  0  0  0  0
 40 37  1  0  0  0  0
 41 37  1  0  0  0  0
 42 41  1  0  0  0  0
 43 42  1  0  0  0  0
 45 44  1  0  0  0  0
 46 45  1  0  0  0  0
 47 46  1  0  0  0  0
 48 50  2  0  0  0  0
 49 50  1  0  0  0  0
 50 47  1  0  0  0  0
 51 60  1  0  0  0  0
 52 62  1  6  0  0  0
 52 61  1  0  0  0  0
 53 54  2  0  0  0  0
 54 52  1  0  0  0  0
 56 61  1  0  0  0  0
 56 58  1  1  0  0  0
 57 49  1  6  0  0  0
 58 57  1  0  0  0  0
 59 57  1  0  0  0  0
 59 55  1  6  0  0  0
 60 54  1  0  0  0  0
 60 56  1  0  0  0  0
 61 59  1  0  0  0  0
 62 64  1  0  0  0  0
 63 62  1  0  0  0  0
 64 65  1  0  0  0  0
 65 66  1  0  0  0  0
M  END
>  <MODEL>
4

>  <REMARK>
 VINA RESULT:      -4.5      3.597     10.676
  Name = 
  28 active torsions:
  status: ('A' for Active; 'I' for Inactive)
    1  A    between atoms: C_1  and  C_34
    2  A    between atoms: C_2  and  O_12
    3  A    between atoms: C_2  and  C_27
    4  A    between atoms: C_2  and  C_52
    5  A    between atoms: O_3  and  C_32
    6  A    between atoms: O_3  and  C_34
    7  A    between atoms: C_5  and  C_18
    8  A    between atoms: C_5  and  N_55
    9  A    between atoms: C_7  and  C_17
   10  A    between atoms: C_7  and  C_25
   11  A    between atoms: C_9  and  C_11
   12  A    between atoms: C_9  and  C_14
   13  A    between atoms: C_10  and  C_24
   14  A    between atoms: C_11  and  C_18
   15  A    between atoms: O_12  and  C_53
   16  A    between atoms: C_13  and  N_22
   17  A    between atoms: C_13  and  N_33
   18  A    between atoms: N_15  and  C_24
   19  A    between atoms: C_19  and  C_27
   20  A    between atoms: C_25  and  C_54
   21  A    between atoms: O_28  and  C_49
   22  A    between atoms: O_28  and  C_65
   23  A    between atoms: C_32  and  C_49
   24  A    between atoms: N_33  and  C_43
   25  A    between atoms: C_34  and  C_59
   26  A    between atoms: C_35  and  C_61
   27  A    between atoms: C_45  and  N_63
   28  A    between atoms: C_46  and  N_55
                            x       y       z     vdW  Elec       q    Type
                         _______ _______ _______ _____ _____    ______ ____

>  <TORSDO>
F 28

$$$$
=
 OpenBabel11042416203D

 66 73  0  0  1  0  0  0  0  0999 V2000
  189.4570  173.8060  137.0550 C   0  0  2  0  0  3  0  0  0  0  0  0
  188.6430  174.8680  136.3900 C   0  0  0  0  0  0  0  0  0  0  0  0
  187.3340  175.1150  136.8110 O   0  0  0  0  0  0  0  0  0  0  0  0
  186.4800  176.1260  136.2680 C   0  0  0  0  0  0  0  0  0  0  0  0
  186.1250  175.7940  134.8290 C   0  0  2  0  0  3  0  0  0  0  0  0
  187.0900  176.9330  135.1120 C   0  0  0  0  0  0  0  0  0  0  0  0
  189.1670  175.5680  135.3970 C   0  0  0  0  0  3  0  0  0  0  0  0
  188.4220  176.5520  134.7480 O   0  0  0  0  0  0  0  0  0  0  0  0
  184.7530  176.3510  134.5140 C   0  0  0  0  0  2  0  0  0  0  0  0
  183.7680  175.9130  135.5780 C   0  0  0  0  0  2  0  0  0  0  0  0
  182.4310  175.6080  134.9330 C   0  0  0  0  0  2  0  0  0  0  0  0
  181.3620  175.4530  136.0010 C   0  0  0  0  0  2  0  0  0  0  0  0
  179.0580  175.5480  135.6700 C   0  0  0  0  0  1  0  0  0  0  0  0
  180.2290  174.7090  135.4740 N   0  0  0  0  0  0  0  0  0  0  0  0
  180.9590  172.4900  135.9040 N   0  0  0  0  0  0  0  0  0  0  0  0
  180.0570  173.5430  136.3270 C   0  0  1  0  0  3  0  0  0  0  0  0
  181.2140  173.2940  137.0050 O   0  0  0  0  0  0  0  0  0  0  0  0
  180.4790  171.1680  136.3570 C   0  0  0  0  0  0  0  0  0  0  0  0
  179.0830  171.0440  136.2870 O   0  0  0  0  0  1  0  0  0  0  0  0
  180.8750  170.9790  137.6830 O   0  0  0  0  0  1  0  0  0  0  0  0
  181.1070  170.0740  135.5010 C   0  0  0  0  0  2  0  0  0  0  0  0
  180.4690  168.8640  135.7110 F   0  0  0  0  0  0  0  0  0  0  0  0
  190.4390  171.5400  136.7410 C   0  0  0  0  0  2  0  0  0  0  0  0
  191.4080  172.5550  136.1620 C   0  0  2  0  0  3  0  0  0  0  0  0
  189.9090  172.7730  136.0330 C   0  0  2  0  0  3  0  0  0  0  0  0
  191.9220  172.0640  134.8980 N   0  0  0  0  0  2  0  0  0  0  0  0
  192.7760  170.9310  135.2010 C   0  0  0  0  0  2  0  0  0  0  0  0
  195.7450  172.2220  138.0930 C   0  0  2  0  0  3  0  0  0  0  0  0
  194.1650  171.3520  135.1850 N   0  0  0  0  0  2  0  0  0  0  0  0
  194.8320  171.7160  136.3900 C   0  0  0  0  0  0  0  0  0  0  0  0
  196.0760  172.1340  136.6860 N   0  0  0  0  0  0  0  0  0  0  0  0
  194.4220  171.8200  137.8360 C   0  0  1  0  0  3  0  0  0  0  0  0
  193.5840  169.6060  137.4820 F   0  0  0  0  0  0  0  0  0  0  0  0
  194.0680  170.4580  138.4580 C   0  0  2  0  0  3  0  0  0  0  0  0
  192.8850  170.5250  139.8520 S   0  0  0  0  0  1  0  0  0  0  0  0
  195.7680  173.6750  138.5490 C   0  0  0  0  0  2  0  0  0  0  0  0
  196.5570  173.8240  139.8450 C   0  0  2  0  0  3  0  0  0  0  0  0
  196.4950  172.1990  141.6140 O   0  0  0  0  0  0  0  0  0  0  0  0
  197.7700  172.6080  141.5470 O   0  0  0  0  0  0  0  0  0  0  0  0
  197.0460  172.4660  140.3790 C   0  0  0  0  0  3  0  0  0  0  0  0
  195.7950  174.5190  140.7890 O   0  0  0  0  0  0  0  0  0  0  0  0
  196.1780  175.8530  140.6470 C   0  0  0  0  0  2  0  0  0  0  0  0
  197.3820  176.0590  141.2920 F   0  0  0  0  0  0  0  0  0  0  0  0
  188.6940  173.1830  138.0460 O   0  0  0  0  0  0  0  0  0  0  0  0
  189.2780  173.5720  139.2560 C   0  0  0  0  0  2  0  0  0  0  0  0
  188.6470  172.8030  140.4030 C   0  0  0  0  0  2  0  0  0  0  0  0
  188.3220  173.6950  141.4600 O   0  0  0  0  0  0  0  0  0  0  0  0
  188.5770  172.2520  143.2420 O   0  0  0  0  0  0  0  0  0  0  0  0
  189.0990  174.4750  143.6420 N   0  0  0  0  0  2  0  0  0  0  0  0
  188.6720  173.4210  142.7840 C   0  0  0  0  0  0  0  0  0  0  0  0
  184.9650  177.8900  141.9840 C   0  0  0  0  0  1  0  0  0  0  0  0
  186.9190  178.1070  145.2430 C   0  0  2  0  0  3  0  0  0  0  0  0
  185.4780  179.7530  144.1860 O   0  0  0  0  0  0  0  0  0  0  0  0
  186.0410  178.6250  144.1570 C   0  0  0  0  0  0  0  0  0  0  0  0
  189.3880  178.0700  144.0040 O   0  0  0  0  0  1  0  0  0  0  0  0
  186.6670  176.5300  143.3260 C   0  0  2  0  0  3  0  0  0  0  0  0
  189.1720  175.8550  143.1880 C   0  0  1  0  0  3  0  0  0  0  0  0
  187.8470  176.1620  141.9850 S   0  0  0  0  0  0  0  0  0  0  0  0
  188.9380  176.7930  144.3530 C   0  0  2  0  0  3  0  0  0  0  0  0
  185.9380  177.7480  143.0530 N   0  0  0  0  0  0  0  0  0  0  0  0
  187.4340  176.7880  144.6310 C   0  0  1  0  0  3  0  0  0  0  0  0
  186.1520  177.8130  146.5460 C   0  0  2  0  0  3  0  0  0  0  0  0
  184.7580  177.2750  146.2640 C   0  0  0  0  0  1  0  0  0  0  0  0
  185.9870  179.0800  147.3800 C   0  0  0  0  0  2  0  0  0  0  0  0
  186.7320  179.0070  148.7040 C   0  0  0  0  0  2  0  0  0  0  0  0
  188.0990  179.2160  148.5060 O   0  0  0  0  0  1  0  0  0  0  0  0
  1 44  1  1  0  0  0
  2  3  1  0  0  0  0
  2  1  1  0  0  0  0
  4  3  1  0  0  0  0
  5  9  1  1  0  0  0
  5  6  1  0  0  0  0
  5  4  1  0  0  0  0
  6  4  2  0  0  0  0
  7  2  2  0  0  0  0
  8  6  1  0  0  0  0
  8  7  1  0  0  0  0
  9 10  1  0  0  0  0
 11 10  1  0  0  0  0
 11 12  1  0  0  0  0
 14 13  1  0  0  0  0
 14 12  1  0  0  0  0
 15 16  1  0  0  0  0
 15 18  1  0  0  0  0
 15 17  1  0  0  0  0
 16 14  1  6  0  0  0
 16 17  1  0  0  0  0
 18 20  1  0  0  0  0
 19 18  1  0  0  0  0
 21 22  1  0  0  0  0
 21 18  1  0  0  0  0
 24 26  1  6  0  0  0
 24 23  1  0  0  0  0
 25 24  1  0  0  0  0
 25 23  1  0  0  0  0
 25  1  1  1  0  0  0
 26 27  1  0  0  0  0
 28 36  1  6  0  0  0
 29 27  1  0  0  0  0
 29 30  1  0  0  0  0
 30 31  2  0  0  0  0
 30 32  1  0  0  0  0
 31 28  1  0  0  0  0
 32 28  1  0  0  0  0
 32 34  1  1  0  0  0
 34 33  1  6  0  0  0
 34 35  1  0  0  0  0
 37 36  1  6  0  0  0
 37 40  1  0  0  0  0
 37 41  1  0  0  0  0
 39 38  1  0  0  0  0
 40 39  1  0  0  0  0
 40 38  1  0  0  0  0
 42 41  1  0  0  0  0
 42 43  1  0  0  0  0
 44 45  1  0  0  0  0
 45 46  1  0  0  0  0
 46 47  1  0  0  0  0
 47 50  1  0  0  0  0
 50 48  2  0  0  0  0
 50 49  1  0  0  0  0
 51 60  1  0  0  0  0
 52 62  1  1  0  0  0
 54 53  2  0  0  0  0
 54 52  1  0  0  0  0
 56 58  1  6  0  0  0
 56 61  1  0  0  0  0
 57 49  1  1  0  0  0
 57 59  1  0  0  0  0
 58 57  1  0  0  0  0
 59 55  1  6  0  0  0
 59 61  1  0  0  0  0
 60 56  1  0  0  0  0
 60 54  1  0  0  0  0
 61 52  1  0  0  0  0
 62 64  1  0  0  0  0
 63 62  1  0  0  0  0
 64 65  1  0  0  0  0
 66 65  1  0  0  0  0
M  END
>  <MODEL>
5

>  <REMARK>
 VINA RESULT:      -4.5      5.041     12.767
  Name = 
  28 active torsions:
  status: ('A' for Active; 'I' for Inactive)
    1  A    between atoms: C_1  and  C_34
    2  A    between atoms: C_2  and  O_12
    3  A    between atoms: C_2  and  C_27
    4  A    between atoms: C_2  and  C_52
    5  A    between atoms: O_3  and  C_32
    6  A    between atoms: O_3  and  C_34
    7  A    between atoms: C_5  and  C_18
    8  A    between atoms: C_5  and  N_55
    9  A    between atoms: C_7  and  C_17
   10  A    between atoms: C_7  and  C_25
   11  A    between atoms: C_9  and  C_11
   12  A    between atoms: C_9  and  C_14
   13  A    between atoms: C_10  and  C_24
   14  A    between atoms: C_11  and  C_18
   15  A    between atoms: O_12  and  C_53
   16  A    between atoms: C_13  and  N_22
   17  A    between atoms: C_13  and  N_33
   18  A    between atoms: N_15  and  C_24
   19  A    between atoms: C_19  and  C_27
   20  A    between atoms: C_25  and  C_54
   21  A    between atoms: O_28  and  C_49
   22  A    between atoms: O_28  and  C_65
   23  A    between atoms: C_32  and  C_49
   24  A    between atoms: N_33  and  C_43
   25  A    between atoms: C_34  and  C_59
   26  A    between atoms: C_35  and  C_61
   27  A    between atoms: C_45  and  N_63
   28  A    between atoms: C_46  and  N_55
                            x       y       z     vdW  Elec       q    Type
                         _______ _______ _______ _____ _____    ______ ____

>  <TORSDO>
F 28

$$$$
=
 OpenBabel11042416203D

 66 73  0  0  1  0  0  0  0  0999 V2000
  195.6610  175.0900  139.3730 C   0  0  2  0  0  3  0  0  0  0  0  0
  195.3320  174.4900  138.0450 C   0  0  0  0  0  0  0  0  0  0  0  0
  194.4450  173.4150  137.9620 O   0  0  0  0  0  0  0  0  0  0  0  0
  194.0360  172.7870  136.7430 C   0  0  0  0  0  0  0  0  0  0  0  0
  195.2130  172.0710  136.1030 C   0  0  2  0  0  3  0  0  0  0  0  0
  194.6920  173.3530  135.4750 C   0  0  0  0  0  0  0  0  0  0  0  0
  195.8930  174.9780  136.9500 C   0  0  0  0  0  3  0  0  0  0  0  0
  195.6160  174.4230  135.7010 O   0  0  0  0  0  0  0  0  0  0  0  0
  194.7050  170.8750  135.3260 C   0  0  0  0  0  2  0  0  0  0  0  0
  194.4920  169.7080  136.2660 C   0  0  0  0  0  2  0  0  0  0  0  0
  193.0240  169.6190  136.6340 C   0  0  0  0  0  2  0  0  0  0  0  0
  192.1990  169.2910  135.4010 C   0  0  0  0  0  2  0  0  0  0  0  0
  191.1560  171.1790  134.5230 C   0  0  0  0  0  1  0  0  0  0  0  0
  190.9560  170.0470  135.4120 N   0  0  0  0  0  0  0  0  0  0  0  0
  189.7540  171.5860  136.7630 N   0  0  0  0  0  0  0  0  0  0  0  0
  190.8050  170.5880  136.7540 C   0  0  1  0  0  3  0  0  0  0  0  0
  189.5620  170.2940  137.2310 O   0  0  0  0  0  0  0  0  0  0  0  0
  189.9100  172.5080  137.9080 C   0  0  0  0  0  0  0  0  0  0  0  0
  189.9410  173.8560  137.5190 O   0  0  0  0  0  1  0  0  0  0  0  0
  191.1050  172.2080  138.5640 O   0  0  0  0  0  1  0  0  0  0  0  0
  188.7550  172.3110  138.8840 C   0  0  0  0  0  2  0  0  0  0  0  0
  187.8230  173.3250  138.7460 F   0  0  0  0  0  0  0  0  0  0  0  0
  197.7930  174.5850  140.5550 C   0  0  0  0  0  2  0  0  0  0  0  0
  197.5940  173.5350  139.4780 C   0  0  2  0  0  3  0  0  0  0  0  0
  196.3980  174.0800  140.2400 C   0  0  2  0  0  3  0  0  0  0  0  0
  197.9360  172.2290  140.0080 N   0  0  0  0  0  2  0  0  0  0  0  0
  197.0060  171.9550  141.0880 C   0  0  0  0  0  2  0  0  0  0  0  0
  196.1740  172.9150  145.2390 C   0  0  2  0  0  3  0  0  0  0  0  0
  197.7230  171.9330  142.3510 N   0  0  0  0  0  2  0  0  0  0  0  0
  197.0870  172.3400  143.5590 C   0  0  0  0  0  0  0  0  0  0  0  0
  197.4780  172.4250  144.8430 N   0  0  0  0  0  0  0  0  0  0  0  0
  195.7230  172.8760  143.9070 C   0  0  1  0  0  3  0  0  0  0  0  0
  194.3440  171.7300  142.3220 F   0  0  0  0  0  0  0  0  0  0  0  0
  194.5990  171.8520  143.6760 C   0  0  2  0  0  3  0  0  0  0  0  0
  193.0360  172.2020  144.5610 S   0  0  0  0  0  1  0  0  0  0  0  0
  196.2760  174.3590  145.7110 C   0  0  0  0  0  2  0  0  0  0  0  0
  195.6210  175.3050  144.7100 C   0  0  2  0  0  3  0  0  0  0  0  0
  196.6390  177.3070  143.8530 O   0  0  0  0  0  0  0  0  0  0  0  0
  196.0460  176.7260  142.8000 O   0  0  0  0  0  0  0  0  0  0  0  0
  196.6520  175.9310  143.7540 C   0  0  0  0  0  3  0  0  0  0  0  0
  194.8740  176.2730  145.3880 O   0  0  0  0  0  0  0  0  0  0  0  0
  193.9610  175.5490  146.1550 C   0  0  0  0  0  2  0  0  0  0  0  0
  193.4200  176.3680  147.1250 F   0  0  0  0  0  0  0  0  0  0  0  0
  194.4830  175.4870  140.0120 O   0  0  0  0  0  0  0  0  0  0  0  0
  194.1770  174.4460  140.8940 C   0  0  0  0  0  2  0  0  0  0  0  0
  192.9910  174.8350  141.7580 C   0  0  0  0  0  2  0  0  0  0  0  0
  191.7810  174.5750  141.0610 O   0  0  0  0  0  0  0  0  0  0  0  0
  190.8340  172.6040  141.7970 O   0  0  0  0  0  0  0  0  0  0  0  0
  189.5400  174.5130  142.0370 N   0  0  0  0  0  2  0  0  0  0  0  0
  190.7400  173.8510  141.6450 C   0  0  0  0  0  0  0  0  0  0  0  0
  184.8970  177.6000  142.6820 C   0  0  0  0  0  1  0  0  0  0  0  0
  187.9580  177.6030  144.9440 C   0  0  2  0  0  3  0  0  0  0  0  0
  186.1250  179.1920  144.8120 O   0  0  0  0  0  0  0  0  0  0  0  0
  186.6960  178.1550  144.3790 C   0  0  0  0  0  0  0  0  0  0  0  0
  189.7400  178.0330  142.8780 O   0  0  0  0  0  1  0  0  0  0  0  0
  187.0640  176.2840  143.0240 C   0  0  2  0  0  3  0  0  0  0  0  0
  189.3490  175.9410  141.8340 C   0  0  1  0  0  3  0  0  0  0  0  0
  187.6420  176.2480  141.2940 S   0  0  0  0  0  0  0  0  0  0  0  0
  189.5370  176.6750  143.1440 C   0  0  2  0  0  3  0  0  0  0  0  0
  186.2180  177.4320  143.2610 N   0  0  0  0  0  0  0  0  0  0  0  0
  188.2660  176.4520  143.9650 C   0  0  1  0  0  3  0  0  0  0  0  0
  187.7820  177.0440  146.3690 C   0  0  2  0  0  3  0  0  0  0  0  0
  186.4060  177.3670  146.9300 C   0  0  0  0  0  1  0  0  0  0  0  0
  188.8110  177.6450  147.3220 C   0  0  0  0  0  2  0  0  0  0  0  0
  190.2200  177.1400  147.0530 C   0  0  0  0  0  2  0  0  0  0  0  0
  190.2800  175.7540  147.2180 O   0  0  0  0  0  1  0  0  0  0  0  0
  1 44  1  1  0  0  0
  2  1  1  0  0  0  0
  3  2  1  0  0  0  0
  4  3  1  0  0  0  0
  5  9  1  6  0  0  0
  5  4  1  0  0  0  0
  6  8  1  0  0  0  0
  6  5  1  0  0  0  0
  6  4  2  0  0  0  0
  7  2  2  0  0  0  0
  8  7  1  0  0  0  0
  9 10  1  0  0  0  0
 10 11  1  0  0  0  0
 12 14  1  0  0  0  0
 12 11  1  0  0  0  0
 13 14  1  0  0  0  0
 15 17  1  0  0  0  0
 15 18  1  0  0  0  0
 16 14  1  6  0  0  0
 16 15  1  0  0  0  0
 16 17  1  0  0  0  0
 18 20  1  0  0  0  0
 18 21  1  0  0  0  0
 19 18  1  0  0  0  0
 22 21  1  0  0  0  0
 24 26  1  1  0  0  0
 24 25  1  0  0  0  0
 24 23  1  0  0  0  0
 25  1  1  6  0  0  0
 25 23  1  0  0  0  0
 26 27  1  0  0  0  0
 27 29  1  0  0  0  0
 28 36  1  6  0  0  0
 29 30  1  0  0  0  0
 30 32  1  0  0  0  0
 30 31  2  0  0  0  0
 31 28  1  0  0  0  0
 32 34  1  1  0  0  0
 32 28  1  0  0  0  0
 34 33  1  6  0  0  0
 34 35  1  0  0  0  0
 37 41  1  0  0  0  0
 37 36  1  1  0  0  0
 39 40  1  0  0  0  0
 39 38  1  0  0  0  0
 40 38  1  0  0  0  0
 40 37  1  0  0  0  0
 41 42  1  0  0  0  0
 42 43  1  0  0  0  0
 44 45  1  0  0  0  0
 45 46  1  0  0  0  0
 47 50  1  0  0  0  0
 47 46  1  0  0  0  0
 50 48  2  0  0  0  0
 50 49  1  0  0  0  0
 51 60  1  0  0  0  0
 52 62  1  1  0  0  0
 54 53  2  0  0  0  0
 54 52  1  0  0  0  0
 56 58  1  6  0  0  0
 56 60  1  0  0  0  0
 56 61  1  0  0  0  0
 57 49  1  1  0  0  0
 57 59  1  0  0  0  0
 58 57  1  0  0  0  0
 59 55  1  6  0  0  0
 59 61  1  0  0  0  0
 60 54  1  0  0  0  0
 61 52  1  0  0  0  0
 62 63  1  0  0  0  0
 62 64  1  0  0  0  0
 65 66  1  0  0  0  0
 65 64  1  0  0  0  0
M  END
>  <MODEL>
6

>  <REMARK>
 VINA RESULT:      -4.2      3.656     10.561
  Name = 
  28 active torsions:
  status: ('A' for Active; 'I' for Inactive)
    1  A    between atoms: C_1  and  C_34
    2  A    between atoms: C_2  and  O_12
    3  A    between atoms: C_2  and  C_27
    4  A    between atoms: C_2  and  C_52
    5  A    between atoms: O_3  and  C_32
    6  A    between atoms: O_3  and  C_34
    7  A    between atoms: C_5  and  C_18
    8  A    between atoms: C_5  and  N_55
    9  A    between atoms: C_7  and  C_17
   10  A    between atoms: C_7  and  C_25
   11  A    between atoms: C_9  and  C_11
   12  A    between atoms: C_9  and  C_14
   13  A    between atoms: C_10  and  C_24
   14  A    between atoms: C_11  and  C_18
   15  A    between atoms: O_12  and  C_53
   16  A    between atoms: C_13  and  N_22
   17  A    between atoms: C_13  and  N_33
   18  A    between atoms: N_15  and  C_24
   19  A    between atoms: C_19  and  C_27
   20  A    between atoms: C_25  and  C_54
   21  A    between atoms: O_28  and  C_49
   22  A    between atoms: O_28  and  C_65
   23  A    between atoms: C_32  and  C_49
   24  A    between atoms: N_33  and  C_43
   25  A    between atoms: C_34  and  C_59
   26  A    between atoms: C_35  and  C_61
   27  A    between atoms: C_45  and  N_63
   28  A    between atoms: C_46  and  N_55
                            x       y       z     vdW  Elec       q    Type
                         _______ _______ _______ _____ _____    ______ ____

>  <TORSDO>
F 28

$$$$
=
 OpenBabel11042416203D

 66 73  0  0  1  0  0  0  0  0999 V2000
  195.3980  174.7830  145.1580 C   0  0  2  0  0  3  0  0  0  0  0  0
  195.2240  175.0900  143.7060 C   0  0  0  0  0  0  0  0  0  0  0  0
  194.9560  174.0620  142.8000 O   0  0  0  0  0  0  0  0  0  0  0  0
  194.7400  174.2460  141.3980 C   0  0  0  0  0  0  0  0  0  0  0  0
  196.0180  174.7200  140.7290 C   0  0  2  0  0  3  0  0  0  0  0  0
  194.8700  175.6980  140.9110 C   0  0  0  0  0  0  0  0  0  0  0  0
  195.3320  176.3390  143.2850 C   0  0  0  0  0  3  0  0  0  0  0  0
  195.1910  176.6490  141.9320 O   0  0  0  0  0  0  0  0  0  0  0  0
  196.0450  174.2210  139.2990 C   0  0  0  0  0  2  0  0  0  0  0  0
  196.6520  175.2790  138.4010 C   0  0  0  0  0  2  0  0  0  0  0  0
  195.8000  175.4340  137.1580 C   0  0  0  0  0  2  0  0  0  0  0  0
  196.1260  174.3330  136.1640 C   0  0  0  0  0  2  0  0  0  0  0  0
  194.9930  175.7450  134.6980 C   0  0  0  0  0  1  0  0  0  0  0  0
  195.1740  174.3500  135.0640 N   0  0  0  0  0  0  0  0  0  0  0  0
  192.8110  174.5010  134.8700 N   0  0  0  0  0  0  0  0  0  0  0  0
  193.9030  173.8880  135.6010 C   0  0  1  0  0  3  0  0  0  0  0  0
  193.2230  173.1960  134.6430 O   0  0  0  0  0  0  0  0  0  0  0  0
  191.5690  174.4960  135.6710 C   0  0  0  0  0  0  0  0  0  0  0  0
  191.8140  174.5400  137.0520 O   0  0  0  0  0  1  0  0  0  0  0  0
  190.8570  173.3290  135.3840 O   0  0  0  0  0  1  0  0  0  0  0  0
  190.7110  175.6960  135.2900 C   0  0  0  0  0  2  0  0  0  0  0  0
  191.4900  176.8340  135.1690 F   0  0  0  0  0  0  0  0  0  0  0  0
  197.0890  173.4350  146.3920 C   0  0  0  0  0  2  0  0  0  0  0  0
  197.4640  173.4240  144.9210 C   0  0  2  0  0  3  0  0  0  0  0  0
  196.0020  173.3970  145.3340 C   0  0  2  0  0  3  0  0  0  0  0  0
  197.8700  172.0860  144.5360 N   0  0  0  0  0  2  0  0  0  0  0  0
  197.1500  171.7600  143.3190 C   0  0  0  0  0  2  0  0  0  0  0  0
  194.3400  169.2970  141.1100 C   0  0  2  0  0  3  0  0  0  0  0  0
  196.5820  170.4290  143.4340 N   0  0  0  0  0  2  0  0  0  0  0  0
  195.6480  169.9490  142.4720 C   0  0  0  0  0  0  0  0  0  0  0  0
  194.9710  168.7970  142.3140 N   0  0  0  0  0  0  0  0  0  0  0  0
  194.9980  170.5330  141.2450 C   0  0  1  0  0  3  0  0  0  0  0  0
  195.3200  171.0520  138.9310 F   0  0  0  0  0  0  0  0  0  0  0  0
  195.9990  170.8150  140.1120 C   0  0  2  0  0  3  0  0  0  0  0  0
  197.2550  169.5120  139.8430 S   0  0  0  0  0  1  0  0  0  0  0  0
  192.8450  169.4770  141.3360 C   0  0  0  0  0  2  0  0  0  0  0  0
  192.2840  170.5570  140.4170 C   0  0  2  0  0  3  0  0  0  0  0  0
  190.4680  170.8480  141.9660 O   0  0  0  0  0  0  0  0  0  0  0  0
  190.0430  171.3770  140.8100 O   0  0  0  0  0  0  0  0  0  0  0  0
  191.3660  171.5340  141.1740 C   0  0  0  0  0  3  0  0  0  0  0  0
  191.6400  169.9660  139.3260 O   0  0  0  0  0  0  0  0  0  0  0  0
  192.1510  170.6260  138.2080 C   0  0  0  0  0  2  0  0  0  0  0  0
  191.3060  171.6580  137.8530 F   0  0  0  0  0  0  0  0  0  0  0  0
  194.1590  174.8410  145.8010 O   0  0  0  0  0  0  0  0  0  0  0  0
  193.2120  174.8090  144.7730 C   0  0  0  0  0  2  0  0  0  0  0  0
  192.3580  173.5600  144.8980 C   0  0  0  0  0  2  0  0  0  0  0  0
  190.9940  173.9220  145.0600 O   0  0  0  0  0  0  0  0  0  0  0  0
  189.7200  172.0050  144.9030 O   0  0  0  0  0  0  0  0  0  0  0  0
  189.2030  173.7030  143.4100 N   0  0  0  0  0  2  0  0  0  0  0  0
  189.9630  173.1710  144.4920 C   0  0  0  0  0  0  0  0  0  0  0  0
  185.6180  177.4980  141.3500 C   0  0  0  0  0  1  0  0  0  0  0  0
  187.5030  177.7120  144.6500 C   0  0  2  0  0  3  0  0  0  0  0  0
  186.3270  179.4460  143.4190 O   0  0  0  0  0  0  0  0  0  0  0  0
  186.7310  178.2540  143.4970 C   0  0  0  0  0  0  0  0  0  0  0  0
  189.9730  177.2430  143.5050 O   0  0  0  0  0  1  0  0  0  0  0  0
  187.0840  176.0340  142.8510 C   0  0  2  0  0  3  0  0  0  0  0  0
  189.4760  175.0190  142.8530 C   0  0  1  0  0  3  0  0  0  0  0  0
  188.2350  175.4030  141.5840 S   0  0  0  0  0  0  0  0  0  0  0  0
  189.3440  176.0700  143.9340 C   0  0  2  0  0  3  0  0  0  0  0  0
  186.5360  177.3130  142.4600 N   0  0  0  0  0  0  0  0  0  0  0  0
  187.8470  176.2910  144.1590 C   0  0  1  0  0  3  0  0  0  0  0  0
  186.6720  177.6310  145.9430 C   0  0  2  0  0  3  0  0  0  0  0  0
  187.2130  176.5700  146.8900 C   0  0  0  0  0  1  0  0  0  0  0  0
  185.2220  177.2660  145.6390 C   0  0  0  0  0  2  0  0  0  0  0  0
  184.2470  178.3600  146.0460 C   0  0  0  0  0  2  0  0  0  0  0  0
  184.3240  178.5930  147.4220 O   0  0  0  0  0  1  0  0  0  0  0  0
  1 44  1  1  0  0  0
  2  1  1  0  0  0  0
  3  2  1  0  0  0  0
  4  3  1  0  0  0  0
  5  9  1  6  0  0  0
  5  6  1  0  0  0  0
  5  4  1  0  0  0  0
  6  4  2  0  0  0  0
  6  8  1  0  0  0  0
  7  2  2  0  0  0  0
  8  7  1  0  0  0  0
 10  9  1  0  0  0  0
 11 10  1  0  0  0  0
 12 11  1  0  0  0  0
 13 14  1  0  0  0  0
 14 12  1  0  0  0  0
 15 16  1  0  0  0  0
 15 18  1  0  0  0  0
 16 14  1  6  0  0  0
 17 15  1  0  0  0  0
 17 16  1  0  0  0  0
 18 19  1  0  0  0  0
 20 18  1  0  0  0  0
 21 18  1  0  0  0  0
 22 21  1  0  0  0  0
 24 26  1  1  0  0  0
 24 25  1  0  0  0  0
 24 23  1  0  0  0  0
 25  1  1  6  0  0  0
 25 23  1  0  0  0  0
 27 29  1  0  0  0  0
 27 26  1  0  0  0  0
 28 32  1  0  0  0  0
 28 36  1  1  0  0  0
 28 31  1  0  0  0  0
 30 29  1  0  0  0  0
 31 30  2  0  0  0  0
 32 34  1  6  0  0  0
 32 30  1  0  0  0  0
 34 33  1  6  0  0  0
 35 34  1  0  0  0  0
 37 40  1  0  0  0  0
 37 36  1  1  0  0  0
 39 40  1  0  0  0  0
 39 38  1  0  0  0  0
 40 38  1  0  0  0  0
 41 37  1  0  0  0  0
 42 41  1  0  0  0  0
 43 42  1  0  0  0  0
 45 46  1  0  0  0  0
 45 44  1  0  0  0  0
 46 47  1  0  0  0  0
 49 50  1  0  0  0  0
 50 48  2  0  0  0  0
 50 47  1  0  0  0  0
 51 60  1  0  0  0  0
 52 62  1  1  0  0  0
 53 54  2  0  0  0  0
 54 52  1  0  0  0  0
 56 58  1  6  0  0  0
 56 61  1  0  0  0  0
 57 49  1  1  0  0  0
 57 59  1  0  0  0  0
 58 57  1  0  0  0  0
 59 55  1  6  0  0  0
 59 61  1  0  0  0  0
 60 56  1  0  0  0  0
 60 54  1  0  0  0  0
 61 52  1  0  0  0  0
 62 63  1  0  0  0  0
 64 62  1  0  0  0  0
 64 65  1  0  0  0  0
 65 66  1  0  0  0  0
M  END
>  <MODEL>
7

>  <REMARK>
 VINA RESULT:      -3.9      3.941     10.251
  Name = 
  28 active torsions:
  status: ('A' for Active; 'I' for Inactive)
    1  A    between atoms: C_1  and  C_34
    2  A    between atoms: C_2  and  O_12
    3  A    between atoms: C_2  and  C_27
    4  A    between atoms: C_2  and  C_52
    5  A    between atoms: O_3  and  C_32
    6  A    between atoms: O_3  and  C_34
    7  A    between atoms: C_5  and  C_18
    8  A    between atoms: C_5  and  N_55
    9  A    between atoms: C_7  and  C_17
   10  A    between atoms: C_7  and  C_25
   11  A    between atoms: C_9  and  C_11
   12  A    between atoms: C_9  and  C_14
   13  A    between atoms: C_10  and  C_24
   14  A    between atoms: C_11  and  C_18
   15  A    between atoms: O_12  and  C_53
   16  A    between atoms: C_13  and  N_22
   17  A    between atoms: C_13  and  N_33
   18  A    between atoms: N_15  and  C_24
   19  A    between atoms: C_19  and  C_27
   20  A    between atoms: C_25  and  C_54
   21  A    between atoms: O_28  and  C_49
   22  A    between atoms: O_28  and  C_65
   23  A    between atoms: C_32  and  C_49
   24  A    between atoms: N_33  and  C_43
   25  A    between atoms: C_34  and  C_59
   26  A    between atoms: C_35  and  C_61
   27  A    between atoms: C_45  and  N_63
   28  A    between atoms: C_46  and  N_55
                            x       y       z     vdW  Elec       q    Type
                         _______ _______ _______ _____ _____    ______ ____

>  <TORSDO>
F 28

$$$$
=
 OpenBabel11042416203D

 66 73  0  0  1  0  0  0  0  0999 V2000
  188.0260  174.2470  140.7180 C   0  0  2  0  0  3  0  0  0  0  0  0
  187.6480  175.6550  141.0460 C   0  0  0  0  0  0  0  0  0  0  0  0
  187.3060  176.0020  142.3540 O   0  0  0  0  0  0  0  0  0  0  0  0
  186.9600  177.3220  142.7840 C   0  0  0  0  0  0  0  0  0  0  0  0
  185.6460  177.7500  142.1560 C   0  0  2  0  0  3  0  0  0  0  0  0
  186.9410  178.3780  141.6690 C   0  0  0  0  0  0  0  0  0  0  0  0
  187.6340  176.5670  140.0880 C   0  0  0  0  0  3  0  0  0  0  0  0
  187.2680  177.8840  140.3660 O   0  0  0  0  0  0  0  0  0  0  0  0
  184.9340  178.7030  143.0930 C   0  0  0  0  0  2  0  0  0  0  0  0
  185.8510  179.0710  144.2400 C   0  0  0  0  0  2  0  0  0  0  0  0
  185.0990  178.9380  145.5490 C   0  0  0  0  0  2  0  0  0  0  0  0
  185.1060  177.4890  146.0070 C   0  0  0  0  0  2  0  0  0  0  0  0
  185.8350  178.5820  147.9310 C   0  0  0  0  0  1  0  0  0  0  0  0
  185.9460  177.3390  147.1850 N   0  0  0  0  0  0  0  0  0  0  0  0
  187.7860  175.8830  146.8120 N   0  0  0  0  0  0  0  0  0  0  0  0
  187.3200  177.2530  146.7150 C   0  0  1  0  0  3  0  0  0  0  0  0
  187.3800  176.4520  145.6130 O   0  0  0  0  0  0  0  0  0  0  0  0
  189.2610  175.8280  146.8580 C   0  0  0  0  0  0  0  0  0  0  0  0
  189.7670  175.9160  148.1640 O   0  0  0  0  0  1  0  0  0  0  0  0
  189.7730  176.8920  146.1120 O   0  0  0  0  0  1  0  0  0  0  0  0
  189.7440  174.5220  146.2380 C   0  0  0  0  0  2  0  0  0  0  0  0
  188.8830  173.4850  146.5550 F   0  0  0  0  0  0  0  0  0  0  0  0
  190.1950  174.0420  141.9230 C   0  0  0  0  0  2  0  0  0  0  0  0
  189.8260  172.6710  141.3870 C   0  0  2  0  0  3  0  0  0  0  0  0
  188.7420  173.6060  141.8980 C   0  0  2  0  0  3  0  0  0  0  0  0
  190.0980  171.6680  142.3980 N   0  0  0  0  0  2  0  0  0  0  0  0
  191.4440  171.9100  142.8820 C   0  0  0  0  0  2  0  0  0  0  0  0
  195.5320  170.4910  142.5270 C   0  0  2  0  0  3  0  0  0  0  0  0
  192.3960  171.6610  141.8140 N   0  0  0  0  0  2  0  0  0  0  0  0
  193.7040  171.1740  142.1010 C   0  0  0  0  0  0  0  0  0  0  0  0
  194.7730  170.8550  141.3480 N   0  0  0  0  0  0  0  0  0  0  0  0
  194.4560  170.8400  143.3630 C   0  0  1  0  0  3  0  0  0  0  0  0
  193.1000  170.0860  145.1850 F   0  0  0  0  0  0  0  0  0  0  0  0
  193.8580  169.6410  144.1170 C   0  0  2  0  0  3  0  0  0  0  0  0
  195.0760  168.4090  144.7070 S   0  0  0  0  0  1  0  0  0  0  0  0
  196.6850  171.4650  142.7310 C   0  0  0  0  0  2  0  0  0  0  0  0
  196.5000  172.2630  144.0160 C   0  0  2  0  0  3  0  0  0  0  0  0
  195.7720  174.3860  144.8760 O   0  0  0  0  0  0  0  0  0  0  0  0
  194.8750  174.0510  143.9370 O   0  0  0  0  0  0  0  0  0  0  0  0
  196.2060  173.7470  143.7330 C   0  0  0  0  0  3  0  0  0  0  0  0
  197.6130  172.0940  144.8460 O   0  0  0  0  0  0  0  0  0  0  0  0
  197.1570  171.3050  145.9020 C   0  0  0  0  0  2  0  0  0  0  0  0
  196.1510  171.9690  146.5750 F   0  0  0  0  0  0  0  0  0  0  0  0
  188.8630  174.2350  139.5990 O   0  0  0  0  0  0  0  0  0  0  0  0
  188.2430  173.3740  138.6880 C   0  0  0  0  0  2  0  0  0  0  0  0
  188.5270  173.8350  137.2690 C   0  0  0  0  0  2  0  0  0  0  0  0
  189.7990  173.3580  136.8530 O   0  0  0  0  0  0  0  0  0  0  0  0
  189.7340  173.8950  134.6100 O   0  0  0  0  0  0  0  0  0  0  0  0
  190.7150  171.8640  135.1480 N   0  0  0  0  0  2  0  0  0  0  0  0
  190.0770  173.0850  135.5120 C   0  0  0  0  0  0  0  0  0  0  0  0
  195.3970  168.7910  135.5240 C   0  0  0  0  0  1  0  0  0  0  0  0
  194.3990  171.6940  137.7750 C   0  0  2  0  0  3  0  0  0  0  0  0
  196.1060  169.9950  138.0990 O   0  0  0  0  0  0  0  0  0  0  0  0
  195.1620  170.4680  137.4100 C   0  0  0  0  0  0  0  0  0  0  0  0
  191.9050  170.6580  138.3520 O   0  0  0  0  0  1  0  0  0  0  0  0
  193.6240  170.6320  135.6540 C   0  0  2  0  0  3  0  0  0  0  0  0
  191.0820  170.8640  136.1390 C   0  0  1  0  0  3  0  0  0  0  0  0
  192.1420  169.6100  135.3620 S   0  0  0  0  0  0  0  0  0  0  0  0
  191.8940  171.5080  137.2420 C   0  0  2  0  0  3  0  0  0  0  0  0
  194.6890  169.8430  136.2330 N   0  0  0  0  0  0  0  0  0  0  0  0
  193.3050  171.7200  136.6890 C   0  0  1  0  0  3  0  0  0  0  0  0
  195.2490  172.9760  137.6900 C   0  0  2  0  0  3  0  0  0  0  0  0
  195.0390  173.8670  138.9050 C   0  0  0  0  0  1  0  0  0  0  0  0
  194.8790  173.7960  136.4590 C   0  0  0  0  0  2  0  0  0  0  0  0
  196.0610  174.5770  135.9020 C   0  0  0  0  0  2  0  0  0  0  0  0
  196.2580  175.7490  136.6350 O   0  0  0  0  0  1  0  0  0  0  0  0
  1 44  1  6  0  0  0
  1  2  1  0  0  0  0
  2  3  1  0  0  0  0
  3  4  1  0  0  0  0
  5  4  1  0  0  0  0
  5  9  1  1  0  0  0
  6  5  1  0  0  0  0
  6  4  2  0  0  0  0
  7  8  1  0  0  0  0
  7  2  2  0  0  0  0
  8  6  1  0  0  0  0
  9 10  1  0  0  0  0
 10 11  1  0  0  0  0
 11 12  1  0  0  0  0
 12 14  1  0  0  0  0
 14 13  1  0  0  0  0
 15 18  1  0  0  0  0
 16 15  1  0  0  0  0
 16 14  1  1  0  0  0
 17 16  1  0  0  0  0
 17 15  1  0  0  0  0
 18 19  1  0  0  0  0
 20 18  1  0  0  0  0
 21 22  1  0  0  0  0
 21 18  1  0  0  0  0
 24 25  1  0  0  0  0
 24 23  1  0  0  0  0
 24 26  1  1  0  0  0
 25  1  1  6  0  0  0
 25 23  1  0  0  0  0
 26 27  1  0  0  0  0
 28 36  1  1  0  0  0
 28 32  1  0  0  0  0
 29 30  1  0  0  0  0
 29 27  1  0  0  0  0
 30 32  1  0  0  0  0
 31 30  2  0  0  0  0
 31 28  1  0  0  0  0
 32 34  1  6  0  0  0
 34 35  1  1  0  0  0
 34 33  1  0  0  0  0
 37 36  1  6  0  0  0
 37 41  1  0  0  0  0
 39 38  1  0  0  0  0
 40 39  1  0  0  0  0
 40 37  1  0  0  0  0
 40 38  1  0  0  0  0
 41 42  1  0  0  0  0
 42 43  1  0  0  0  0
 45 44  1  0  0  0  0
 46 45  1  0  0  0  0
 47 46  1  0  0  0  0
 48 50  2  0  0  0  0
 49 50  1  0  0  0  0
 50 47  1  0  0  0  0
 51 60  1  0  0  0  0
 52 62  1  6  0  0  0
 54 52  1  0  0  0  0
 54 53  2  0  0  0  0
 56 58  1  1  0  0  0
 56 60  1  0  0  0  0
 56 61  1  0  0  0  0
 57 49  1  6  0  0  0
 57 59  1  0  0  0  0
 58 57  1  0  0  0  0
 59 55  1  1  0  0  0
 60 54  1  0  0  0  0
 61 59  1  0  0  0  0
 61 52  1  0  0  0  0
 62 63  1  0  0  0  0
 64 62  1  0  0  0  0
 65 64  1  0  0  0  0
 65 66  1  0  0  0  0
M  END
>  <MODEL>
8

>  <REMARK>
 VINA RESULT:      -3.8      4.493     10.808
  Name = 
  28 active torsions:
  status: ('A' for Active; 'I' for Inactive)
    1  A    between atoms: C_1  and  C_34
    2  A    between atoms: C_2  and  O_12
    3  A    between atoms: C_2  and  C_27
    4  A    between atoms: C_2  and  C_52
    5  A    between atoms: O_3  and  C_32
    6  A    between atoms: O_3  and  C_34
    7  A    between atoms: C_5  and  C_18
    8  A    between atoms: C_5  and  N_55
    9  A    between atoms: C_7  and  C_17
   10  A    between atoms: C_7  and  C_25
   11  A    between atoms: C_9  and  C_11
   12  A    between atoms: C_9  and  C_14
   13  A    between atoms: C_10  and  C_24
   14  A    between atoms: C_11  and  C_18
   15  A    between atoms: O_12  and  C_53
   16  A    between atoms: C_13  and  N_22
   17  A    between atoms: C_13  and  N_33
   18  A    between atoms: N_15  and  C_24
   19  A    between atoms: C_19  and  C_27
   20  A    between atoms: C_25  and  C_54
   21  A    between atoms: O_28  and  C_49
   22  A    between atoms: O_28  and  C_65
   23  A    between atoms: C_32  and  C_49
   24  A    between atoms: N_33  and  C_43
   25  A    between atoms: C_34  and  C_59
   26  A    between atoms: C_35  and  C_61
   27  A    between atoms: C_45  and  N_63
   28  A    between atoms: C_46  and  N_55
                            x       y       z     vdW  Elec       q    Type
                         _______ _______ _______ _____ _____    ______ ____

>  <TORSDO>
F 28

$$$$
=
 OpenBabel11042416203D

 66 73  0  0  1  0  0  0  0  0999 V2000
  195.4550  175.2920  139.7390 C   0  0  2  0  0  3  0  0  0  0  0  0
  195.0710  173.9750  139.1450 C   0  0  0  0  0  0  0  0  0  0  0  0
  194.3730  173.0380  139.9100 O   0  0  0  0  0  0  0  0  0  0  0  0
  193.9300  171.7640  139.4330 C   0  0  0  0  0  0  0  0  0  0  0  0
  195.1220  170.8720  139.1370 C   0  0  2  0  0  3  0  0  0  0  0  0
  194.3200  171.4480  137.9820 C   0  0  0  0  0  0  0  0  0  0  0  0
  195.4030  173.7010  137.8940 C   0  0  0  0  0  3  0  0  0  0  0  0
  195.0720  172.4730  137.3230 O   0  0  0  0  0  0  0  0  0  0  0  0
  194.7310  169.4270  139.3640 C   0  0  0  0  0  2  0  0  0  0  0  0
  194.2620  169.2430  140.7920 C   0  0  0  0  0  2  0  0  0  0  0  0
  192.8670  168.6520  140.7930 C   0  0  0  0  0  2  0  0  0  0  0  0
  192.4000  168.4230  139.3650 C   0  0  0  0  0  2  0  0  0  0  0  0
  190.5100  168.1660  138.0280 C   0  0  0  0  0  1  0  0  0  0  0  0
  191.0110  168.8310  139.2190 N   0  0  0  0  0  0  0  0  0  0  0  0
  189.6850  170.7980  139.0970 N   0  0  0  0  0  0  0  0  0  0  0  0
  191.0190  170.2570  138.9330 C   0  0  1  0  0  3  0  0  0  0  0  0
  190.6780  170.9550  140.0530 O   0  0  0  0  0  0  0  0  0  0  0  0
  189.5260  172.0560  138.3390 C   0  0  0  0  0  0  0  0  0  0  0  0
  189.3280  171.8410  136.9660 O   0  0  0  0  0  1  0  0  0  0  0  0
  190.6780  172.8280  138.5050 O   0  0  0  0  0  1  0  0  0  0  0  0
  188.3340  172.8350  138.8850 C   0  0  0  0  0  2  0  0  0  0  0  0
  188.0660  172.4620  140.1910 F   0  0  0  0  0  0  0  0  0  0  0  0
  197.9050  174.9730  140.0430 C   0  0  0  0  0  2  0  0  0  0  0  0
  197.2030  173.7350  140.5700 C   0  0  2  0  0  3  0  0  0  0  0  0
  196.5720  175.1050  140.7550 C   0  0  2  0  0  3  0  0  0  0  0  0
  197.8170  173.3260  141.8180 N   0  0  0  0  0  2  0  0  0  0  0  0
  196.8000  172.6270  142.5810 C   0  0  0  0  0  2  0  0  0  0  0  0
  193.7490  173.5300  145.5350 C   0  0  2  0  0  3  0  0  0  0  0  0
  196.7480  173.1660  143.9280 N   0  0  0  0  0  2  0  0  0  0  0  0
  195.5050  173.3210  144.6060 C   0  0  0  0  0  0  0  0  0  0  0  0
  195.1480  173.7760  145.8210 N   0  0  0  0  0  0  0  0  0  0  0  0
  194.0640  173.0750  144.2420 C   0  0  1  0  0  3  0  0  0  0  0  0
  194.3760  171.1290  142.8830 F   0  0  0  0  0  0  0  0  0  0  0  0
  193.7460  171.5850  144.0270 C   0  0  2  0  0  3  0  0  0  0  0  0
  191.9650  171.1750  143.9460 S   0  0  0  0  0  1  0  0  0  0  0  0
  192.9900  174.8470  145.4530 C   0  0  0  0  0  2  0  0  0  0  0  0
  191.7740  174.8310  146.3720 C   0  0  2  0  0  3  0  0  0  0  0  0
  189.3940  174.5050  146.4510 O   0  0  0  0  0  0  0  0  0  0  0  0
  189.8910  173.3890  145.8990 O   0  0  0  0  0  0  0  0  0  0  0  0
  190.4670  174.6060  145.5910 C   0  0  0  0  0  3  0  0  0  0  0  0
  191.7380  176.0020  147.1350 O   0  0  0  0  0  0  0  0  0  0  0  0
  192.7830  176.7830  146.6410 C   0  0  0  0  0  2  0  0  0  0  0  0
  193.8070  176.8240  147.5680 F   0  0  0  0  0  0  0  0  0  0  0  0
  194.3430  175.8650  140.3630 O   0  0  0  0  0  0  0  0  0  0  0  0
  194.0150  174.9900  141.4030 C   0  0  0  0  0  2  0  0  0  0  0  0
  192.8030  175.5120  142.1520 C   0  0  0  0  0  2  0  0  0  0  0  0
  191.6310  175.3090  141.3750 O   0  0  0  0  0  0  0  0  0  0  0  0
  190.7100  173.2460  141.8440 O   0  0  0  0  0  0  0  0  0  0  0  0
  189.3490  175.0850  142.2220 N   0  0  0  0  0  2  0  0  0  0  0  0
  190.5850  174.5000  141.8230 C   0  0  0  0  0  0  0  0  0  0  0  0
  184.5080  177.9160  141.9850 C   0  0  0  0  0  1  0  0  0  0  0  0
  186.8550  177.6780  144.9720 C   0  0  2  0  0  3  0  0  0  0  0  0
  185.0220  179.2180  144.5590 O   0  0  0  0  0  0  0  0  0  0  0  0
  185.7540  178.2700  144.1630 C   0  0  0  0  0  0  0  0  0  0  0  0
  189.0870  178.4510  143.5410 O   0  0  0  0  0  1  0  0  0  0  0  0
  186.5900  176.6250  142.7250 C   0  0  2  0  0  3  0  0  0  0  0  0
  189.1250  176.5210  142.1640 C   0  0  1  0  0  3  0  0  0  0  0  0
  187.6050  176.8550  141.2280 S   0  0  0  0  0  0  0  0  0  0  0  0
  188.9110  177.0640  143.5610 C   0  0  2  0  0  3  0  0  0  0  0  0
  185.6370  177.7030  142.8730 N   0  0  0  0  0  0  0  0  0  0  0  0
  187.4860  176.6890  143.9710 C   0  0  1  0  0  3  0  0  0  0  0  0
  186.3460  176.9140  146.2090 C   0  0  2  0  0  3  0  0  0  0  0  0
  184.8260  176.8680  146.2510 C   0  0  0  0  0  1  0  0  0  0  0  0
  186.8130  177.5870  147.4960 C   0  0  0  0  0  2  0  0  0  0  0  0
  188.0890  178.3930  147.3030 C   0  0  0  0  0  2  0  0  0  0  0  0
  189.2040  177.5510  147.3240 O   0  0  0  0  0  1  0  0  0  0  0  0
  1 44  1  1  0  0  0
  2  1  1  0  0  0  0
  2  3  1  0  0  0  0
  4  3  1  0  0  0  0
  5  9  1  1  0  0  0
  5  4  1  0  0  0  0
  6  5  1  0  0  0  0
  6  4  2  0  0  0  0
  7  2  2  0  0  0  0
  8  7  1  0  0  0  0
  8  6  1  0  0  0  0
  9 10  1  0  0  0  0
 10 11  1  0  0  0  0
 12 11  1  0  0  0  0
 13 14  1  0  0  0  0
 14 12  1  0  0  0  0
 15 17  1  0  0  0  0
 16 15  1  0  0  0  0
 16 14  1  1  0  0  0
 16 17  1  0  0  0  0
 18 20  1  0  0  0  0
 18 21  1  0  0  0  0
 18 15  1  0  0  0  0
 19 18  1  0  0  0  0
 21 22  1  0  0  0  0
 23 24  1  0  0  0  0
 23 25  1  0  0  0  0
 24 25  1  0  0  0  0
 24 26  1  1  0  0  0
 25  1  1  6  0  0  0
 26 27  1  0  0  0  0
 27 29  1  0  0  0  0
 28 36  1  6  0  0  0
 28 31  1  0  0  0  0
 29 30  1  0  0  0  0
 30 31  2  0  0  0  0
 32 34  1  1  0  0  0
 32 30  1  0  0  0  0
 32 28  1  0  0  0  0
 34 33  1  6  0  0  0
 35 34  1  0  0  0  0
 37 36  1  6  0  0  0
 37 41  1  0  0  0  0
 39 38  1  0  0  0  0
 40 39  1  0  0  0  0
 40 37  1  0  0  0  0
 40 38  1  0  0  0  0
 42 41  1  0  0  0  0
 42 43  1  0  0  0  0
 44 45  1  0  0  0  0
 45 46  1  0  0  0  0
 47 50  1  0  0  0  0
 47 46  1  0  0  0  0
 50 48  2  0  0  0  0
 50 49  1  0  0  0  0
 51 60  1  0  0  0  0
 52 62  1  1  0  0  0
 54 53  2  0  0  0  0
 54 52  1  0  0  0  0
 56 58  1  6  0  0  0
 56 60  1  0  0  0  0
 56 61  1  0  0  0  0
 57 49  1  1  0  0  0
 57 59  1  0  0  0  0
 58 57  1  0  0  0  0
 59 55  1  6  0  0  0
 59 61  1  0  0  0  0
 60 54  1  0  0  0  0
 61 52  1  0  0  0  0
 62 63  1  0  0  0  0
 62 64  1  0  0  0  0
 65 66  1  0  0  0  0
 65 64  1  0  0  0  0
M  END
>  <MODEL>
9

>  <REMARK>
 VINA RESULT:      -3.8      3.617      9.984
  Name = 
  28 active torsions:
  status: ('A' for Active; 'I' for Inactive)
    1  A    between atoms: C_1  and  C_34
    2  A    between atoms: C_2  and  O_12
    3  A    between atoms: C_2  and  C_27
    4  A    between atoms: C_2  and  C_52
    5  A    between atoms: O_3  and  C_32
    6  A    between atoms: O_3  and  C_34
    7  A    between atoms: C_5  and  C_18
    8  A    between atoms: C_5  and  N_55
    9  A    between atoms: C_7  and  C_17
   10  A    between atoms: C_7  and  C_25
   11  A    between atoms: C_9  and  C_11
   12  A    between atoms: C_9  and  C_14
   13  A    between atoms: C_10  and  C_24
   14  A    between atoms: C_11  and  C_18
   15  A    between atoms: O_12  and  C_53
   16  A    between atoms: C_13  and  N_22
   17  A    between atoms: C_13  and  N_33
   18  A    between atoms: N_15  and  C_24
   19  A    between atoms: C_19  and  C_27
   20  A    between atoms: C_25  and  C_54
   21  A    between atoms: O_28  and  C_49
   22  A    between atoms: O_28  and  C_65
   23  A    between atoms: C_32  and  C_49
   24  A    between atoms: N_33  and  C_43
   25  A    between atoms: C_34  and  C_59
   26  A    between atoms: C_35  and  C_61
   27  A    between atoms: C_45  and  N_63
   28  A    between atoms: C_46  and  N_55
                            x       y       z     vdW  Elec       q    Type
                         _______ _______ _______ _____ _____    ______ ____

>  <TORSDO>
F 28

$$$$
