=
 OpenBabel11042415433D

 59 64  0  0  1  0  0  0  0  0999 V2000
  189.9760  171.9270  144.1440 C   0  0  1  0  0  3  0  0  0  0  0  0
  191.5070  171.6820  144.1620 C   0  0  2  0  0  3  0  0  0  0  0  0
  189.0630  177.2470  143.7700 C   0  0  2  0  0  3  0  0  0  0  0  0
  189.9280  173.7680  140.8970 C   0  0  0  0  0  1  0  0  0  0  0  0
  192.7550  175.1390  143.6310 C   0  0  0  0  0  0  0  0  0  0  0  0
  192.2860  172.8600  144.5350 N   0  0  0  0  0  2  0  0  0  0  0  0
  191.3400  176.9230  144.3840 O   0  0  0  0  0  0  0  0  0  0  0  0
  190.0890  177.2760  144.8230 N   0  0  0  0  0  0  0  0  0  0  0  0
  193.7150  173.1690  142.7140 O   0  0  0  0  0  0  0  0  0  0  0  0
  189.0130  175.8970  143.0610 C   0  0  0  0  0  2  0  0  0  0  0  0
  189.3810  173.0380  143.2530 C   0  0  2  0  0  3  0  0  0  0  0  0
  189.3270  171.5890  142.8140 C   0  0  0  0  0  2  0  0  0  0  0  0
  191.3480  175.5710  143.9650 C   0  0  1  0  0  3  0  0  0  0  0  0
  190.3370  173.8520  142.3600 C   0  0  2  0  0  3  0  0  0  0  0  0
  193.0030  173.6880  143.6160 C   0  0  0  0  0  0  0  0  0  0  0  0
  190.4090  175.3410  142.7690 C   0  0  1  0  0  3  0  0  0  0  0  0
  193.6410  176.0520  143.1970 C   0  0  0  0  0  3  0  0  0  0  0  0
  197.9380  174.6160  144.4740 O   0  0  0  0  0  0  0  0  0  0  0  0
  196.8510  175.8180  141.1790 C   0  0  0  0  0  0  0  0  0  0  0  0
  195.5700  176.0230  141.4930 C   0  0  0  0  0  3  0  0  0  0  0  0
  197.8650  175.4320  142.2330 C   0  0  0  0  0  2  0  0  0  0  0  0
  197.2350  175.1130  143.5570 C   0  0  0  0  0  0  0  0  0  0  0  0
  195.0650  175.8500  142.8700 C   0  0  0  0  0  0  0  0  0  0  0  0
  195.8490  175.3880  143.7950 N   0  0  0  0  0  0  0  0  0  0  0  0
  197.2610  176.0160  139.8260 N   0  0  0  0  0  2  0  0  0  0  0  0
  197.0910  173.7540  139.2970 O   0  0  0  0  0  1  0  0  0  0  0  0
  197.4730  175.2850  137.5250 C   0  0  0  0  0  1  0  0  0  0  0  0
  197.7460  174.9420  138.9740 C   0  0  1  0  0  3  0  0  0  0  0  0
  192.3630  169.3610  143.7720 C   0  0  0  0  0  1  0  0  0  0  0  0
  192.1650  170.7320  143.1420 C   0  0  1  0  0  3  0  0  0  0  0  0
  191.3460  170.5840  142.0190 O   0  0  0  0  0  0  0  0  0  0  0  0
  192.2260  170.3960  140.9500 C   0  0  0  0  0  2  0  0  0  0  0  0
  190.4570  169.7480  139.3290 C   0  0  0  0  0  3  0  0  0  0  0  0
  189.7680  169.9030  138.1250 C   0  0  0  0  0  3  0  0  0  0  0  0
  191.8810  171.6380  138.7690 C   0  0  0  0  0  0  0  0  0  0  0  0
  191.1710  171.7990  137.5610 C   0  0  0  0  0  0  0  0  0  0  0  0
  190.1240  170.9260  137.2460 C   0  0  0  0  0  3  0  0  0  0  0  0
  191.5030  170.6140  139.6630 C   0  0  0  0  0  0  0  0  0  0  0  0
  191.5250  172.8710  136.5800 C   0  0  0  0  0  2  0  0  0  0  0  0
  192.6480  172.4010  135.6750 C   0  0  0  0  0  1  0  0  0  0  0  0
  192.9980  172.5740  139.1230 C   0  0  0  0  0  2  0  0  0  0  0  0
  194.2180  172.0160  138.7420 O   0  0  0  0  0  1  0  0  0  0  0  0
  189.3120  178.2630  142.8440 O   0  0  0  0  0  0  0  0  0  0  0  0
  188.4220  178.0190  141.7960 C   0  0  0  0  0  2  0  0  0  0  0  0
  187.2870  178.8170  141.9450 O   0  0  0  0  0  0  0  0  0  0  0  0
  186.2490  178.0460  141.4230 C   0  0  0  0  0  2  0  0  0  0  0  0
  185.0100  178.1920  142.2880 C   0  0  0  0  0  2  0  0  0  0  0  0
  184.2580  179.4110  144.0580 O   0  0  0  0  0  0  0  0  0  0  0  0
  184.4550  178.1590  144.5410 C   0  0  1  0  0  3  0  0  0  0  0  0
  185.3710  178.7310  143.5870 N   0  0  0  0  0  0  0  0  0  0  0  0
  185.0520  178.2400  145.9330 C   0  0  0  0  0  2  0  0  0  0  0  0
  185.2100  176.9540  146.4530 O   0  0  0  0  0  0  0  0  0  0  0  0
  186.0040  177.1250  147.5860 C   0  0  0  0  0  2  0  0  0  0  0  0
  187.6240  178.7700  148.1020 F   0  0  0  0  0  0  0  0  0  0  0  0
  186.2890  178.5980  147.7870 C   0  0  0  0  0  2  0  0  0  0  0  0
  189.7260  176.6900  146.1260 C   0  0  0  0  0  2  0  0  0  0  0  0
  190.6350  177.7790  148.1610 C   0  0  0  0  0  1  0  0  0  0  0  0
  190.9120  175.3440  147.8500 C   0  0  0  0  0  1  0  0  0  0  0  0
  190.8600  176.6830  147.1440 C   0  0  0  0  0  3  0  0  0  0  0  0
  1 12  1  6  0  0  0
  1  2  1  0  0  0  0
  2 30  1  6  0  0  0
  2  6  1  0  0  0  0
  3 43  1  6  0  0  0
  3  8  1  0  0  0  0
  7  8  1  0  0  0  0
  8 56  1  0  0  0  0
  9 15  2  0  0  0  0
 10  3  1  0  0  0  0
 11 12  1  6  0  0  0
 11  1  1  0  0  0  0
 13  5  1  6  0  0  0
 13  7  1  0  0  0  0
 14  4  1  6  0  0  0
 14 16  1  0  0  0  0
 14 11  1  0  0  0  0
 15  5  1  0  0  0  0
 15  6  1  0  0  0  0
 16 10  1  1  0  0  0
 16 13  1  0  0  0  0
 17  5  2  0  0  0  0
 19 20  2  0  0  0  0
 19 21  1  0  0  0  0
 20 23  1  0  0  0  0
 21 22  1  0  0  0  0
 22 24  1  0  0  0  0
 22 18  2  0  0  0  0
 23 17  1  0  0  0  0
 23 24  2  0  0  0  0
 25 19  1  0  0  0  0
 28 27  1  6  0  0  0
 28 26  1  0  0  0  0
 28 25  1  0  0  0  0
 30 29  1  1  0  0  0
 31 30  1  0  0  0  0
 32 31  1  0  0  0  0
 33 38  1  0  0  0  0
 34 33  2  0  0  0  0
 35 41  1  0  0  0  0
 35 38  2  0  0  0  0
 36 35  1  0  0  0  0
 37 36  2  0  0  0  0
 37 34  1  0  0  0  0
 38 32  1  0  0  0  0
 39 36  1  0  0  0  0
 40 39  1  0  0  0  0
 42 41  1  0  0  0  0
 44 45  1  0  0  0  0
 44 43  1  0  0  0  0
 46 45  1  0  0  0  0
 46 47  1  0  0  0  0
 47 50  1  0  0  0  0
 48 49  1  0  0  0  0
 49 51  1  1  0  0  0
 50 48  1  0  0  0  0
 50 49  1  0  0  0  0
 51 52  1  0  0  0  0
 52 53  1  0  0  0  0
 53 55  1  0  0  0  0
 55 54  1  0  0  0  0
 56 59  1  0  0  0  0
 59 58  1  0  0  0  0
 59 57  1  0  0  0  0
M  END
>  <MODEL>
1

>  <REMARK>
 VINA RESULT:      -6.5      0.000      0.000
  Name = 
  21 active torsions:
  status: ('A' for Active; 'I' for Inactive)
    1  A    between atoms: C_4  and  C_9
    2  A    between atoms: O_5  and  C_25
    3  A    between atoms: O_5  and  C_41
    4  A    between atoms: C_9  and  O_17
    5  A    between atoms: O_11  and  C_15
    6  A    between atoms: O_11  and  C_26
    7  A    between atoms: C_12  and  C_48
    8  A    between atoms: O_17  and  C_24
    9  A    between atoms: C_18  and  N_38
   10  A    between atoms: C_21  and  C_47
   11  A    between atoms: C_23  and  O_29
   12  A    between atoms: C_23  and  C_56
   13  A    between atoms: C_24  and  C_52
   14  A    between atoms: C_25  and  C_39
   15  A    between atoms: C_26  and  O_29
   16  A    between atoms: N_32  and  C_48
   17  A    between atoms: C_35  and  C_36
   18  A    between atoms: N_38  and  C_58
   19  A    between atoms: C_41  and  C_42
   20  A    between atoms: C_45  and  C_57
   21  A    between atoms: N_50  and  C_56
                            x       y       z     vdW  Elec       q    Type
                         _______ _______ _______ _____ _____    ______ ____

>  <TORSDO>
F 21

$$$$
=
 OpenBabel11042415433D

 59 64  0  0  1  0  0  0  0  0999 V2000
  191.7440  175.1680  146.9930 C   0  0  1  0  0  3  0  0  0  0  0  0
  190.5760  174.4780  146.2400 C   0  0  2  0  0  3  0  0  0  0  0  0
  196.2550  174.6780  144.0450 C   0  0  2  0  0  3  0  0  0  0  0  0
  192.6430  177.5110  144.2300 C   0  0  0  0  0  1  0  0  0  0  0  0
  192.2770  173.5250  143.0790 C   0  0  0  0  0  0  0  0  0  0  0  0
  191.0150  173.5150  145.2330 N   0  0  0  0  0  2  0  0  0  0  0  0
  194.6420  173.1460  143.1990 O   0  0  0  0  0  0  0  0  0  0  0  0
  195.7810  173.2900  143.9500 N   0  0  0  0  0  0  0  0  0  0  0  0
  190.0400  174.3030  143.2630 O   0  0  0  0  0  0  0  0  0  0  0  0
  195.1650  175.6170  144.5540 C   0  0  0  0  0  2  0  0  0  0  0  0
  192.8190  175.9470  146.2060 C   0  0  2  0  0  3  0  0  0  0  0  0
  191.7010  176.6830  146.9150 C   0  0  0  0  0  2  0  0  0  0  0  0
  193.5590  173.8140  143.8210 C   0  0  1  0  0  3  0  0  0  0  0  0
  192.6720  176.0570  144.6770 C   0  0  2  0  0  3  0  0  0  0  0  0
  191.0280  173.7580  143.8240 C   0  0  0  0  0  0  0  0  0  0  0  0
  193.8040  175.3280  143.9170 C   0  0  1  0  0  3  0  0  0  0  0  0
  192.3200  173.2570  141.7630 C   0  0  0  0  0  3  0  0  0  0  0  0
  188.4920  174.5330  139.3390 O   0  0  0  0  0  0  0  0  0  0  0  0
  190.1220  171.2440  139.4070 C   0  0  0  0  0  0  0  0  0  0  0  0
  191.1170  171.5700  140.2350 C   0  0  0  0  0  3  0  0  0  0  0  0
  189.0010  172.2140  139.1070 C   0  0  0  0  0  2  0  0  0  0  0  0
  189.2570  173.5870  139.6560 C   0  0  0  0  0  0  0  0  0  0  0  0
  191.2000  172.9000  140.8720 C   0  0  0  0  0  0  0  0  0  0  0  0
  190.3480  173.8260  140.5530 N   0  0  0  0  0  0  0  0  0  0  0  0
  190.1110  169.9340  138.8400 N   0  0  0  0  0  2  0  0  0  0  0  0
  191.0960  170.7470  136.8930 O   0  0  0  0  0  1  0  0  0  0  0  0
  191.2530  168.4200  137.3310 C   0  0  0  0  0  1  0  0  0  0  0  0
  190.4030  169.6680  137.4400 C   0  0  1  0  0  3  0  0  0  0  0  0
  188.4330  175.3740  147.1760 C   0  0  0  0  0  1  0  0  0  0  0  0
  189.2820  175.2500  145.9190 C   0  0  1  0  0  3  0  0  0  0  0  0
  189.5840  176.5380  145.4670 O   0  0  0  0  0  0  0  0  0  0  0  0
  188.4620  177.3080  145.7880 C   0  0  0  0  0  2  0  0  0  0  0  0
  188.4200  177.7140  143.3360 C   0  0  0  0  0  3  0  0  0  0  0  0
  187.7620  178.0460  142.1510 C   0  0  0  0  0  3  0  0  0  0  0  0
  186.3330  177.9310  144.5660 C   0  0  0  0  0  0  0  0  0  0  0  0
  185.6710  178.2520  143.3620 C   0  0  0  0  0  0  0  0  0  0  0  0
  186.3930  178.3120  142.1660 C   0  0  0  0  0  3  0  0  0  0  0  0
  187.7130  177.6430  144.5410 C   0  0  0  0  0  0  0  0  0  0  0  0
  184.2080  178.5590  143.3300 C   0  0  0  0  0  2  0  0  0  0  0  0
  183.6360  178.2330  141.9640 C   0  0  0  0  0  1  0  0  0  0  0  0
  185.5680  177.8520  145.8540 C   0  0  0  0  0  2  0  0  0  0  0  0
  185.2070  176.5290  146.1060 O   0  0  0  0  0  1  0  0  0  0  0  0
  196.7100  175.1070  142.7960 O   0  0  0  0  0  0  0  0  0  0  0  0
  196.5800  176.4960  142.8250 C   0  0  0  0  0  2  0  0  0  0  0  0
  196.2200  176.9630  141.5600 O   0  0  0  0  0  0  0  0  0  0  0  0
  196.2390  175.8260  140.7520 C   0  0  0  0  0  2  0  0  0  0  0  0
  194.8900  175.6480  140.0770 C   0  0  0  0  0  2  0  0  0  0  0  0
  193.7870  174.1200  138.7990 O   0  0  0  0  0  0  0  0  0  0  0  0
  194.0410  175.1650  137.9720 C   0  0  1  0  0  3  0  0  0  0  0  0
  195.0150  174.7440  138.9470 N   0  0  0  0  0  0  0  0  0  0  0  0
  194.4320  174.6440  136.6020 C   0  0  0  0  0  2  0  0  0  0  0  0
  193.4070  174.9010  135.6910 O   0  0  0  0  0  0  0  0  0  0  0  0
  192.7410  173.6840  135.5530 C   0  0  0  0  0  2  0  0  0  0  0  0
  193.8320  171.5850  135.5610 F   0  0  0  0  0  0  0  0  0  0  0  0
  193.6150  172.7110  134.7900 C   0  0  0  0  0  2  0  0  0  0  0  0
  195.7810  172.4960  145.1920 C   0  0  0  0  0  2  0  0  0  0  0  0
  196.1170  170.0710  144.7940 C   0  0  0  0  0  1  0  0  0  0  0  0
  197.9230  171.6620  144.2390 C   0  0  0  0  0  1  0  0  0  0  0  0
  196.7950  171.3580  145.2040 C   0  0  0  0  0  3  0  0  0  0  0  0
  1 12  1  1  0  0  0
  2 30  1  6  0  0  0
  2  1  1  0  0  0  0
  3 43  1  6  0  0  0
  3 10  1  0  0  0  0
  5 15  1  0  0  0  0
  6  2  1  0  0  0  0
  7 13  1  0  0  0  0
  7  8  1  0  0  0  0
  8  3  1  0  0  0  0
  8 56  1  0  0  0  0
  9 15  2  0  0  0  0
 11 12  1  1  0  0  0
 11  1  1  0  0  0  0
 13  5  1  6  0  0  0
 13 16  1  0  0  0  0
 14  4  1  1  0  0  0
 14 11  1  0  0  0  0
 15  6  1  0  0  0  0
 16 10  1  1  0  0  0
 16 14  1  0  0  0  0
 17  5  2  0  0  0  0
 18 22  2  0  0  0  0
 19 20  2  0  0  0  0
 20 23  1  0  0  0  0
 21 19  1  0  0  0  0
 21 22  1  0  0  0  0
 22 24  1  0  0  0  0
 23 17  1  0  0  0  0
 24 23  2  0  0  0  0
 25 19  1  0  0  0  0
 26 28  1  0  0  0  0
 28 27  1  1  0  0  0
 28 25  1  0  0  0  0
 30 29  1  1  0  0  0
 31 32  1  0  0  0  0
 31 30  1  0  0  0  0
 33 38  1  0  0  0  0
 34 37  1  0  0  0  0
 34 33  2  0  0  0  0
 35 41  1  0  0  0  0
 36 35  1  0  0  0  0
 37 36  2  0  0  0  0
 38 35  2  0  0  0  0
 38 32  1  0  0  0  0
 39 36  1  0  0  0  0
 40 39  1  0  0  0  0
 41 42  1  0  0  0  0
 43 44  1  0  0  0  0
 45 44  1  0  0  0  0
 46 45  1  0  0  0  0
 47 46  1  0  0  0  0
 48 50  1  0  0  0  0
 49 51  1  6  0  0  0
 49 48  1  0  0  0  0
 49 50  1  0  0  0  0
 50 47  1  0  0  0  0
 52 51  1  0  0  0  0
 53 52  1  0  0  0  0
 55 53  1  0  0  0  0
 55 54  1  0  0  0  0
 56 59  1  0  0  0  0
 57 59  1  0  0  0  0
 58 59  1  0  0  0  0
M  END
>  <MODEL>
2

>  <REMARK>
 VINA RESULT:      -6.0      3.154      8.999
  Name = 
  21 active torsions:
  status: ('A' for Active; 'I' for Inactive)
    1  A    between atoms: C_4  and  C_9
    2  A    between atoms: O_5  and  C_25
    3  A    between atoms: O_5  and  C_41
    4  A    between atoms: C_9  and  O_17
    5  A    between atoms: O_11  and  C_15
    6  A    between atoms: O_11  and  C_26
    7  A    between atoms: C_12  and  C_48
    8  A    between atoms: O_17  and  C_24
    9  A    between atoms: C_18  and  N_38
   10  A    between atoms: C_21  and  C_47
   11  A    between atoms: C_23  and  O_29
   12  A    between atoms: C_23  and  C_56
   13  A    between atoms: C_24  and  C_52
   14  A    between atoms: C_25  and  C_39
   15  A    between atoms: C_26  and  O_29
   16  A    between atoms: N_32  and  C_48
   17  A    between atoms: C_35  and  C_36
   18  A    between atoms: N_38  and  C_58
   19  A    between atoms: C_41  and  C_42
   20  A    between atoms: C_45  and  C_57
   21  A    between atoms: N_50  and  C_56
                            x       y       z     vdW  Elec       q    Type
                         _______ _______ _______ _____ _____    ______ ____

>  <TORSDO>
F 21

$$$$
=
 OpenBabel11042415433D

 59 64  0  0  1  0  0  0  0  0999 V2000
  190.2240  172.2380  144.4280 C   0  0  1  0  0  3  0  0  0  0  0  0
  191.7620  172.1100  144.2700 C   0  0  2  0  0  3  0  0  0  0  0  0
  188.7500  177.2870  143.1610 C   0  0  2  0  0  3  0  0  0  0  0  0
  189.5770  173.3590  140.9270 C   0  0  0  0  0  1  0  0  0  0  0  0
  192.5830  175.4630  142.8990 C   0  0  0  0  0  0  0  0  0  0  0  0
  192.4620  173.3930  144.2890 N   0  0  0  0  0  2  0  0  0  0  0  0
  191.1070  177.2590  143.4880 O   0  0  0  0  0  0  0  0  0  0  0  0
  189.8950  177.6050  144.0270 N   0  0  0  0  0  0  0  0  0  0  0  0
  193.6070  173.4190  142.2540 O   0  0  0  0  0  0  0  0  0  0  0  0
  188.7430  175.8200  142.7450 C   0  0  0  0  0  2  0  0  0  0  0  0
  189.4120  173.0960  143.4340 C   0  0  2  0  0  3  0  0  0  0  0  0
  189.4460  171.5870  143.2990 C   0  0  0  0  0  2  0  0  0  0  0  0
  191.1950  175.8530  143.3440 C   0  0  1  0  0  3  0  0  0  0  0  0
  190.1600  173.7730  142.2700 C   0  0  2  0  0  3  0  0  0  0  0  0
  192.9690  174.0600  143.1310 C   0  0  0  0  0  0  0  0  0  0  0  0
  190.1380  175.3160  142.3660 C   0  0  1  0  0  3  0  0  0  0  0  0
  193.3110  176.3260  142.1700 C   0  0  0  0  0  3  0  0  0  0  0  0
  197.9350  176.2060  143.0430 O   0  0  0  0  0  0  0  0  0  0  0  0
  196.2240  175.5300  139.8660 C   0  0  0  0  0  0  0  0  0  0  0  0
  194.9780  175.7070  140.3090 C   0  0  0  0  0  3  0  0  0  0  0  0
  197.4190  175.8240  140.7450 C   0  0  0  0  0  2  0  0  0  0  0  0
  197.0370  176.1120  142.1680 C   0  0  0  0  0  0  0  0  0  0  0  0
  194.6940  176.1620  141.6860 C   0  0  0  0  0  0  0  0  0  0  0  0
  195.6650  176.3010  142.5350 N   0  0  0  0  0  0  0  0  0  0  0  0
  196.4120  175.0970  138.5180 N   0  0  0  0  0  2  0  0  0  0  0  0
  194.7240  173.5170  138.2430 O   0  0  0  0  0  1  0  0  0  0  0  0
  196.4190  173.6340  136.5860 C   0  0  0  0  0  1  0  0  0  0  0  0
  196.0850  173.7570  138.0580 C   0  0  1  0  0  3  0  0  0  0  0  0
  192.6610  169.7740  144.1970 C   0  0  0  0  0  1  0  0  0  0  0  0
  192.3730  171.0190  143.3700 C   0  0  1  0  0  3  0  0  0  0  0  0
  191.4790  170.6720  142.3530 O   0  0  0  0  0  0  0  0  0  0  0  0
  192.0940  169.6150  141.6750 C   0  0  0  0  0  2  0  0  0  0  0  0
  190.5200  169.4380  139.7580 C   0  0  0  0  0  3  0  0  0  0  0  0
  190.2190  169.5090  138.3970 C   0  0  0  0  0  3  0  0  0  0  0  0
  192.8210  170.0730  139.2920 C   0  0  0  0  0  0  0  0  0  0  0  0
  192.5060  170.1590  137.9200 C   0  0  0  0  0  0  0  0  0  0  0  0
  191.2090  169.8710  137.4830 C   0  0  0  0  0  3  0  0  0  0  0  0
  191.8110  169.7280  140.2130 C   0  0  0  0  0  0  0  0  0  0  0  0
  193.5370  170.5270  136.9000 C   0  0  0  0  0  2  0  0  0  0  0  0
  192.9500  171.4950  135.8900 C   0  0  0  0  0  1  0  0  0  0  0  0
  194.2060  170.3910  139.7740 C   0  0  0  0  0  2  0  0  0  0  0  0
  194.9780  169.2300  139.7840 O   0  0  0  0  0  1  0  0  0  0  0  0
  188.7760  178.1050  142.0290 O   0  0  0  0  0  0  0  0  0  0  0  0
  187.6510  177.7310  141.2910 C   0  0  0  0  0  2  0  0  0  0  0  0
  186.5500  178.4890  141.6930 O   0  0  0  0  0  0  0  0  0  0  0  0
  185.5620  178.1880  140.7570 C   0  0  0  0  0  2  0  0  0  0  0  0
  184.2210  178.0250  141.4530 C   0  0  0  0  0  2  0  0  0  0  0  0
  182.3790  177.6490  140.1680 O   0  0  0  0  0  0  0  0  0  0  0  0
  181.9220  178.2850  141.2760 C   0  0  1  0  0  3  0  0  0  0  0  0
  183.1750  178.6650  140.6740 N   0  0  0  0  0  0  0  0  0  0  0  0
  180.8460  179.2790  140.8830 C   0  0  0  0  0  2  0  0  0  0  0  0
  179.5900  178.7640  141.2060 O   0  0  0  0  0  0  0  0  0  0  0  0
  178.6870  179.7350  140.7730 C   0  0  0  0  0  2  0  0  0  0  0  0
  177.9000  178.2850  139.0780 F   0  0  0  0  0  0  0  0  0  0  0  0
  178.4120  179.5490  139.2960 C   0  0  0  0  0  2  0  0  0  0  0  0
  189.7620  177.2780  145.4590 C   0  0  0  0  0  2  0  0  0  0  0  0
  188.9720  175.1540  146.4660 C   0  0  0  0  0  1  0  0  0  0  0  0
  187.6200  177.2050  146.7240 C   0  0  0  0  0  1  0  0  0  0  0  0
  188.5370  176.4360  145.7940 C   0  0  0  0  0  3  0  0  0  0  0  0
  1 12  1  6  0  0  0
  2 30  1  6  0  0  0
  2  6  1  0  0  0  0
  2  1  1  0  0  0  0
  3 43  1  6  0  0  0
  3  8  1  0  0  0  0
  5 15  1  0  0  0  0
  7  8  1  0  0  0  0
  8 56  1  0  0  0  0
  9 15  2  0  0  0  0
 10  3  1  0  0  0  0
 11 12  1  6  0  0  0
 11  1  1  0  0  0  0
 13  5  1  6  0  0  0
 13  7  1  0  0  0  0
 14  4  1  6  0  0  0
 14 16  1  0  0  0  0
 14 11  1  0  0  0  0
 15  6  1  0  0  0  0
 16 10  1  1  0  0  0
 16 13  1  0  0  0  0
 17  5  2  0  0  0  0
 19 20  2  0  0  0  0
 19 21  1  0  0  0  0
 20 23  1  0  0  0  0
 21 22  1  0  0  0  0
 22 24  1  0  0  0  0
 22 18  2  0  0  0  0
 23 17  1  0  0  0  0
 23 24  2  0  0  0  0
 25 19  1  0  0  0  0
 28 27  1  6  0  0  0
 28 26  1  0  0  0  0
 28 25  1  0  0  0  0
 30 29  1  1  0  0  0
 31 30  1  0  0  0  0
 32 31  1  0  0  0  0
 33 38  1  0  0  0  0
 34 33  2  0  0  0  0
 35 41  1  0  0  0  0
 35 38  2  0  0  0  0
 36 35  1  0  0  0  0
 37 36  2  0  0  0  0
 37 34  1  0  0  0  0
 38 32  1  0  0  0  0
 39 36  1  0  0  0  0
 40 39  1  0  0  0  0
 41 42  1  0  0  0  0
 44 45  1  0  0  0  0
 44 43  1  0  0  0  0
 46 47  1  0  0  0  0
 46 45  1  0  0  0  0
 48 50  1  0  0  0  0
 48 49  1  0  0  0  0
 49 51  1  6  0  0  0
 50 49  1  0  0  0  0
 50 47  1  0  0  0  0
 51 52  1  0  0  0  0
 53 52  1  0  0  0  0
 54 55  1  0  0  0  0
 55 53  1  0  0  0  0
 56 59  1  0  0  0  0
 59 57  1  0  0  0  0
 59 58  1  0  0  0  0
M  END
>  <MODEL>
3

>  <REMARK>
 VINA RESULT:      -5.9      2.775      3.455
  Name = 
  21 active torsions:
  status: ('A' for Active; 'I' for Inactive)
    1  A    between atoms: C_4  and  C_9
    2  A    between atoms: O_5  and  C_25
    3  A    between atoms: O_5  and  C_41
    4  A    between atoms: C_9  and  O_17
    5  A    between atoms: O_11  and  C_15
    6  A    between atoms: O_11  and  C_26
    7  A    between atoms: C_12  and  C_48
    8  A    between atoms: O_17  and  C_24
    9  A    between atoms: C_18  and  N_38
   10  A    between atoms: C_21  and  C_47
   11  A    between atoms: C_23  and  O_29
   12  A    between atoms: C_23  and  C_56
   13  A    between atoms: C_24  and  C_52
   14  A    between atoms: C_25  and  C_39
   15  A    between atoms: C_26  and  O_29
   16  A    between atoms: N_32  and  C_48
   17  A    between atoms: C_35  and  C_36
   18  A    between atoms: N_38  and  C_58
   19  A    between atoms: C_41  and  C_42
   20  A    between atoms: C_45  and  C_57
   21  A    between atoms: N_50  and  C_56
                            x       y       z     vdW  Elec       q    Type
                         _______ _______ _______ _____ _____    ______ ____

>  <TORSDO>
F 21

$$$$
=
 OpenBabel11042415433D

 59 64  0  0  1  0  0  0  0  0999 V2000
  192.3330  174.9850  146.6420 C   0  0  1  0  0  3  0  0  0  0  0  0
  191.0920  174.2740  146.0410 C   0  0  2  0  0  3  0  0  0  0  0  0
  196.1780  175.2960  142.8480 C   0  0  2  0  0  3  0  0  0  0  0  0
  192.4750  177.7110  144.0970 C   0  0  0  0  0  1  0  0  0  0  0  0
  192.1840  173.8700  142.5140 C   0  0  0  0  0  0  0  0  0  0  0  0
  191.3890  173.4830  144.8480 N   0  0  0  0  0  2  0  0  0  0  0  0
  194.5470  173.7190  142.1280 O   0  0  0  0  0  0  0  0  0  0  0  0
  195.8000  173.8870  142.6590 N   0  0  0  0  0  0  0  0  0  0  0  0
  189.9790  174.3930  143.2250 O   0  0  0  0  0  0  0  0  0  0  0  0
  195.1460  176.0550  143.6760 C   0  0  0  0  0  2  0  0  0  0  0  0
  193.1650  175.9540  145.7750 C   0  0  2  0  0  3  0  0  0  0  0  0
  192.1610  176.4860  146.7770 C   0  0  0  0  0  2  0  0  0  0  0  0
  193.5650  174.1970  143.0290 C   0  0  1  0  0  3  0  0  0  0  0  0
  192.7030  176.2260  144.3310 C   0  0  2  0  0  3  0  0  0  0  0  0
  191.0990  173.8890  143.5090 C   0  0  0  0  0  0  0  0  0  0  0  0
  193.7100  175.7070  143.2780 C   0  0  1  0  0  3  0  0  0  0  0  0
  191.9810  173.7620  141.1900 C   0  0  0  0  0  3  0  0  0  0  0  0
  187.4160  172.6240  141.3500 O   0  0  0  0  0  0  0  0  0  0  0  0
  189.4960  173.1810  138.3760 C   0  0  0  0  0  0  0  0  0  0  0  0
  190.6270  173.4800  139.0190 C   0  0  0  0  0  3  0  0  0  0  0  0
  188.2700  172.7070  139.1230 C   0  0  0  0  0  2  0  0  0  0  0  0
  188.4160  172.8220  140.6130 C   0  0  0  0  0  0  0  0  0  0  0  0
  190.7340  173.4020  140.4900 C   0  0  0  0  0  0  0  0  0  0  0  0
  189.6830  173.1340  141.2030 N   0  0  0  0  0  0  0  0  0  0  0  0
  189.4780  173.2740  136.9510 N   0  0  0  0  0  2  0  0  0  0  0  0
  190.3430  172.3130  135.0140 O   0  0  0  0  0  1  0  0  0  0  0  0
  189.8910  170.8870  136.8570 C   0  0  0  0  0  1  0  0  0  0  0  0
  189.4620  172.1120  136.0760 C   0  0  1  0  0  3  0  0  0  0  0  0
  189.0710  174.7330  147.4470 C   0  0  0  0  0  1  0  0  0  0  0  0
  189.7050  174.9440  146.0790 C   0  0  1  0  0  3  0  0  0  0  0  0
  189.8250  176.3190  145.8590 O   0  0  0  0  0  0  0  0  0  0  0  0
  188.5630  176.8450  146.1530 C   0  0  0  0  0  2  0  0  0  0  0  0
  188.7510  177.5000  143.7630 C   0  0  0  0  0  3  0  0  0  0  0  0
  188.2360  178.0560  142.5900 C   0  0  0  0  0  3  0  0  0  0  0  0
  186.6480  177.9330  144.9040 C   0  0  0  0  0  0  0  0  0  0  0  0
  186.1280  178.4800  143.7110 C   0  0  0  0  0  0  0  0  0  0  0  0
  186.9290  178.5410  142.5660 C   0  0  0  0  0  3  0  0  0  0  0  0
  187.9630  177.4250  144.9160 C   0  0  0  0  0  0  0  0  0  0  0  0
  184.7380  179.0270  143.6400 C   0  0  0  0  0  2  0  0  0  0  0  0
  183.9130  178.2310  142.6460 C   0  0  0  0  0  1  0  0  0  0  0  0
  185.7950  177.8510  146.1350 C   0  0  0  0  0  2  0  0  0  0  0  0
  185.1120  176.6350  146.1540 O   0  0  0  0  0  1  0  0  0  0  0  0
  196.3370  175.9100  141.6030 O   0  0  0  0  0  0  0  0  0  0  0  0
  197.5590  175.4370  141.1230 C   0  0  0  0  0  2  0  0  0  0  0  0
  197.5200  175.3570  139.7300 O   0  0  0  0  0  0  0  0  0  0  0  0
  197.6100  173.9920  139.4580 C   0  0  0  0  0  2  0  0  0  0  0  0
  196.3800  173.5350  138.6920 C   0  0  0  0  0  2  0  0  0  0  0  0
  196.3110  171.7300  140.0780 O   0  0  0  0  0  0  0  0  0  0  0  0
  195.0870  171.7840  139.4960 C   0  0  1  0  0  3  0  0  0  0  0  0
  196.2750  172.0870  138.7390 N   0  0  0  0  0  0  0  0  0  0  0  0
  194.6180  170.3800  139.1690 C   0  0  0  0  0  2  0  0  0  0  0  0
  194.6640  169.5890  140.3170 O   0  0  0  0  0  0  0  0  0  0  0  0
  193.3650  169.1040  140.4670 C   0  0  0  0  0  2  0  0  0  0  0  0
  191.8680  169.3050  142.2880 F   0  0  0  0  0  0  0  0  0  0  0  0
  192.5740  170.0410  141.3550 C   0  0  0  0  0  2  0  0  0  0  0  0
  196.1120  172.9580  143.7610 C   0  0  0  0  0  2  0  0  0  0  0  0
  195.6980  170.5260  143.5100 C   0  0  0  0  0  1  0  0  0  0  0  0
  194.6760  171.7520  145.3960 C   0  0  0  0  0  1  0  0  0  0  0  0
  195.0910  171.8410  143.9420 C   0  0  0  0  0  3  0  0  0  0  0  0
  1 12  1  1  0  0  0
  2 30  1  6  0  0  0
  2  1  1  0  0  0  0
  3 43  1  6  0  0  0
  3 10  1  0  0  0  0
  5 13  1  0  0  0  0
  5 15  1  0  0  0  0
  6  2  1  0  0  0  0
  7  8  1  0  0  0  0
  8  3  1  0  0  0  0
  8 56  1  0  0  0  0
  9 15  2  0  0  0  0
 11  1  1  0  0  0  0
 11 12  1  1  0  0  0
 13  7  1  6  0  0  0
 13 16  1  0  0  0  0
 14  4  1  1  0  0  0
 14 11  1  0  0  0  0
 15  6  1  0  0  0  0
 16 10  1  1  0  0  0
 16 14  1  0  0  0  0
 17  5  2  0  0  0  0
 19 20  2  0  0  0  0
 19 21  1  0  0  0  0
 20 23  1  0  0  0  0
 21 22  1  0  0  0  0
 22 24  1  0  0  0  0
 22 18  2  0  0  0  0
 23 17  1  0  0  0  0
 23 24  2  0  0  0  0
 25 19  1  0  0  0  0
 26 28  1  0  0  0  0
 28 27  1  1  0  0  0
 28 25  1  0  0  0  0
 30 29  1  1  0  0  0
 31 30  1  0  0  0  0
 31 32  1  0  0  0  0
 33 38  1  0  0  0  0
 34 33  2  0  0  0  0
 35 38  2  0  0  0  0
 35 41  1  0  0  0  0
 36 35  1  0  0  0  0
 37 34  1  0  0  0  0
 37 36  2  0  0  0  0
 38 32  1  0  0  0  0
 39 36  1  0  0  0  0
 40 39  1  0  0  0  0
 41 42  1  0  0  0  0
 44 43  1  0  0  0  0
 45 44  1  0  0  0  0
 46 45  1  0  0  0  0
 47 50  1  0  0  0  0
 47 46  1  0  0  0  0
 49 51  1  6  0  0  0
 49 48  1  0  0  0  0
 50 49  1  0  0  0  0
 50 48  1  0  0  0  0
 51 52  1  0  0  0  0
 52 53  1  0  0  0  0
 53 55  1  0  0  0  0
 55 54  1  0  0  0  0
 56 59  1  0  0  0  0
 57 59  1  0  0  0  0
 59 58  1  0  0  0  0
M  END
>  <MODEL>
4

>  <REMARK>
 VINA RESULT:      -5.5      2.851      9.036
  Name = 
  21 active torsions:
  status: ('A' for Active; 'I' for Inactive)
    1  A    between atoms: C_4  and  C_9
    2  A    between atoms: O_5  and  C_25
    3  A    between atoms: O_5  and  C_41
    4  A    between atoms: C_9  and  O_17
    5  A    between atoms: O_11  and  C_15
    6  A    between atoms: O_11  and  C_26
    7  A    between atoms: C_12  and  C_48
    8  A    between atoms: O_17  and  C_24
    9  A    between atoms: C_18  and  N_38
   10  A    between atoms: C_21  and  C_47
   11  A    between atoms: C_23  and  O_29
   12  A    between atoms: C_23  and  C_56
   13  A    between atoms: C_24  and  C_52
   14  A    between atoms: C_25  and  C_39
   15  A    between atoms: C_26  and  O_29
   16  A    between atoms: N_32  and  C_48
   17  A    between atoms: C_35  and  C_36
   18  A    between atoms: N_38  and  C_58
   19  A    between atoms: C_41  and  C_42
   20  A    between atoms: C_45  and  C_57
   21  A    between atoms: N_50  and  C_56
                            x       y       z     vdW  Elec       q    Type
                         _______ _______ _______ _____ _____    ______ ____

>  <TORSDO>
F 21

$$$$
=
 OpenBabel11042415433D

 59 64  0  0  1  0  0  0  0  0999 V2000
  194.7190  171.2990  138.2280 C   0  0  1  0  0  3  0  0  0  0  0  0
  194.4870  171.0970  139.7480 C   0  0  2  0  0  3  0  0  0  0  0  0
  190.4650  173.9140  136.1440 C   0  0  2  0  0  3  0  0  0  0  0  0
  194.3770  175.0150  138.2840 C   0  0  0  0  0  1  0  0  0  0  0  0
  191.3050  172.9580  140.2030 C   0  0  0  0  0  0  0  0  0  0  0  0
  193.0860  171.2100  140.1480 N   0  0  0  0  0  2  0  0  0  0  0  0
  189.8570  173.0980  138.2960 O   0  0  0  0  0  0  0  0  0  0  0  0
  189.7370  172.9160  136.9420 N   0  0  0  0  0  0  0  0  0  0  0  0
  193.1100  172.9130  141.7460 O   0  0  0  0  0  0  0  0  0  0  0  0
  191.9360  173.9930  136.5380 C   0  0  0  0  0  2  0  0  0  0  0  0
  194.2610  172.6040  137.5420 C   0  0  2  0  0  3  0  0  0  0  0  0
  195.7160  172.3980  137.9110 C   0  0  0  0  0  2  0  0  0  0  0  0
  191.2020  172.9120  138.6970 C   0  0  1  0  0  3  0  0  0  0  0  0
  193.6200  173.7020  138.4110 C   0  0  2  0  0  3  0  0  0  0  0  0
  192.5120  172.3510  140.7900 C   0  0  0  0  0  0  0  0  0  0  0  0
  192.1360  173.9500  138.0550 C   0  0  1  0  0  3  0  0  0  0  0  0
  190.4190  173.6860  140.9040 C   0  0  0  0  0  3  0  0  0  0  0  0
  189.4810  171.7760  145.1020 O   0  0  0  0  0  0  0  0  0  0  0  0
  190.7230  175.1570  144.3930 C   0  0  0  0  0  0  0  0  0  0  0  0
  190.7890  175.0340  143.0660 C   0  0  0  0  0  3  0  0  0  0  0  0
  190.1200  174.0690  145.2530 C   0  0  0  0  0  2  0  0  0  0  0  0
  189.8260  172.8150  144.4840 C   0  0  0  0  0  0  0  0  0  0  0  0
  190.3140  173.8210  142.3690 C   0  0  0  0  0  0  0  0  0  0  0  0
  189.9120  172.7950  143.0540 N   0  0  0  0  0  0  0  0  0  0  0  0
  191.1950  176.3660  144.9880 N   0  0  0  0  0  2  0  0  0  0  0  0
  189.0500  177.0500  145.5850 O   0  0  0  0  0  1  0  0  0  0  0  0
  190.6200  176.6700  147.3230 C   0  0  0  0  0  1  0  0  0  0  0  0
  190.4010  177.1650  145.9090 C   0  0  1  0  0  3  0  0  0  0  0  0
  196.6600  170.5800  140.8810 C   0  0  0  0  0  1  0  0  0  0  0  0
  195.5250  171.5890  140.7750 C   0  0  1  0  0  3  0  0  0  0  0  0
  196.0640  172.8130  140.3710 O   0  0  0  0  0  0  0  0  0  0  0  0
  197.0060  173.1370  141.3530 C   0  0  0  0  0  2  0  0  0  0  0  0
  196.3540  175.5100  141.7010 C   0  0  0  0  0  3  0  0  0  0  0  0
  195.8740  176.5560  142.4910 C   0  0  0  0  0  3  0  0  0  0  0  0
  196.1100  173.9730  143.5700 C   0  0  0  0  0  0  0  0  0  0  0  0
  195.6110  175.0300  144.3590 C   0  0  0  0  0  0  0  0  0  0  0  0
  195.5020  176.3140  143.8140 C   0  0  0  0  0  3  0  0  0  0  0  0
  196.4650  174.2190  142.2270 C   0  0  0  0  0  0  0  0  0  0  0  0
  195.2140  174.8250  145.7860 C   0  0  0  0  0  2  0  0  0  0  0  0
  194.4800  176.0460  146.3050 C   0  0  0  0  0  1  0  0  0  0  0  0
  196.2210  172.5890  144.1390 C   0  0  0  0  0  2  0  0  0  0  0  0
  197.4780  172.4180  144.7180 O   0  0  0  0  0  1  0  0  0  0  0  0
  189.8620  175.1650  136.2930 O   0  0  0  0  0  0  0  0  0  0  0  0
  188.5270  174.9640  135.9410 C   0  0  0  0  0  2  0  0  0  0  0  0
  187.7440  176.0050  136.4430 O   0  0  0  0  0  0  0  0  0  0  0  0
  187.2760  175.5280  137.6670 C   0  0  0  0  0  2  0  0  0  0  0  0
  186.5790  176.6440  138.4250 C   0  0  0  0  0  2  0  0  0  0  0  0
  187.3590  177.8530  140.1900 O   0  0  0  0  0  0  0  0  0  0  0  0
  186.0820  177.5300  140.5120 C   0  0  1  0  0  3  0  0  0  0  0  0
  186.9310  176.5840  139.8330 N   0  0  0  0  0  0  0  0  0  0  0  0
  186.0040  177.1790  141.9850 C   0  0  0  0  0  2  0  0  0  0  0  0
  184.7620  177.5610  142.4940 O   0  0  0  0  0  0  0  0  0  0  0  0
  185.0440  178.6130  143.3640 C   0  0  0  0  0  2  0  0  0  0  0  0
  184.0040  179.2810  145.3820 F   0  0  0  0  0  0  0  0  0  0  0  0
  184.6560  178.2240  144.7750 C   0  0  0  0  0  2  0  0  0  0  0  0
  189.8490  171.5090  136.5160 C   0  0  0  0  0  2  0  0  0  0  0  0
  189.7320  169.6100  138.1090 C   0  0  0  0  0  1  0  0  0  0  0  0
  191.7500  169.9150  136.7160 C   0  0  0  0  0  1  0  0  0  0  0  0
  190.6480  170.6300  137.4720 C   0  0  0  0  0  3  0  0  0  0  0  0
  1 12  1  1  0  0  0
  1  2  1  0  0  0  0
  2  6  1  0  0  0  0
  2 30  1  1  0  0  0
  3 43  1  1  0  0  0
  3 10  1  0  0  0  0
  3  8  1  0  0  0  0
  5 15  1  0  0  0  0
  5 17  2  0  0  0  0
  6 15  1  0  0  0  0
  8  7  1  0  0  0  0
 11 12  1  1  0  0  0
 11  1  1  0  0  0  0
 11 14  1  0  0  0  0
 13  7  1  1  0  0  0
 13  5  1  0  0  0  0
 14  4  1  6  0  0  0
 15  9  2  0  0  0  0
 16 10  1  6  0  0  0
 16 14  1  0  0  0  0
 16 13  1  0  0  0  0
 17 23  1  0  0  0  0
 19 25  1  0  0  0  0
 19 21  1  0  0  0  0
 20 19  2  0  0  0  0
 22 18  2  0  0  0  0
 22 21  1  0  0  0  0
 23 24  2  0  0  0  0
 23 20  1  0  0  0  0
 24 22  1  0  0  0  0
 25 28  1  0  0  0  0
 26 28  1  0  0  0  0
 28 27  1  1  0  0  0
 30 29  1  6  0  0  0
 31 30  1  0  0  0  0
 31 32  1  0  0  0  0
 32 38  1  0  0  0  0
 33 38  2  0  0  0  0
 33 34  1  0  0  0  0
 34 37  2  0  0  0  0
 35 41  1  0  0  0  0
 35 36  2  0  0  0  0
 36 39  1  0  0  0  0
 37 36  1  0  0  0  0
 38 35  1  0  0  0  0
 39 40  1  0  0  0  0
 41 42  1  0  0  0  0
 44 43  1  0  0  0  0
 44 45  1  0  0  0  0
 45 46  1  0  0  0  0
 46 47  1  0  0  0  0
 47 50  1  0  0  0  0
 48 49  1  0  0  0  0
 49 51  1  1  0  0  0
 50 48  1  0  0  0  0
 50 49  1  0  0  0  0
 51 52  1  0  0  0  0
 52 53  1  0  0  0  0
 53 55  1  0  0  0  0
 55 54  1  0  0  0  0
 56  8  1  0  0  0  0
 56 59  1  0  0  0  0
 58 59  1  0  0  0  0
 59 57  1  0  0  0  0
M  END
>  <MODEL>
5

>  <REMARK>
 VINA RESULT:      -5.3      2.797      7.379
  Name = 
  21 active torsions:
  status: ('A' for Active; 'I' for Inactive)
    1  A    between atoms: C_4  and  C_9
    2  A    between atoms: O_5  and  C_25
    3  A    between atoms: O_5  and  C_41
    4  A    between atoms: C_9  and  O_17
    5  A    between atoms: O_11  and  C_15
    6  A    between atoms: O_11  and  C_26
    7  A    between atoms: C_12  and  C_48
    8  A    between atoms: O_17  and  C_24
    9  A    between atoms: C_18  and  N_38
   10  A    between atoms: C_21  and  C_47
   11  A    between atoms: C_23  and  O_29
   12  A    between atoms: C_23  and  C_56
   13  A    between atoms: C_24  and  C_52
   14  A    between atoms: C_25  and  C_39
   15  A    between atoms: C_26  and  O_29
   16  A    between atoms: N_32  and  C_48
   17  A    between atoms: C_35  and  C_36
   18  A    between atoms: N_38  and  C_58
   19  A    between atoms: C_41  and  C_42
   20  A    between atoms: C_45  and  C_57
   21  A    between atoms: N_50  and  C_56
                            x       y       z     vdW  Elec       q    Type
                         _______ _______ _______ _____ _____    ______ ____

>  <TORSDO>
F 21

$$$$
=
 OpenBabel11042415433D

 59 64  0  0  1  0  0  0  0  0999 V2000
  195.9520  171.6520  138.9670 C   0  0  1  0  0  3  0  0  0  0  0  0
  195.4920  171.4690  140.4360 C   0  0  2  0  0  3  0  0  0  0  0  0
  191.9290  173.9170  136.1450 C   0  0  2  0  0  3  0  0  0  0  0  0
  195.3660  175.3360  138.8440 C   0  0  0  0  0  1  0  0  0  0  0  0
  192.1650  173.1140  140.3160 C   0  0  0  0  0  0  0  0  0  0  0  0
  194.0410  171.4930  140.6040 N   0  0  0  0  0  2  0  0  0  0  0  0
  191.0370  173.1100  138.1990 O   0  0  0  0  0  0  0  0  0  0  0  0
  191.1490  172.8900  136.8500 N   0  0  0  0  0  0  0  0  0  0  0  0
  193.6970  173.2290  142.1270 O   0  0  0  0  0  0  0  0  0  0  0  0
  193.3100  174.1080  136.7660 C   0  0  0  0  0  2  0  0  0  0  0  0
  195.5280  172.9060  138.1730 C   0  0  2  0  0  3  0  0  0  0  0  0
  196.9140  172.8100  138.7760 C   0  0  0  0  0  2  0  0  0  0  0  0
  192.3090  173.0280  138.8160 C   0  0  1  0  0  3  0  0  0  0  0  0
  194.6850  173.9770  138.8920 C   0  0  2  0  0  3  0  0  0  0  0  0
  193.2980  172.6060  141.1080 C   0  0  0  0  0  0  0  0  0  0  0  0
  193.2640  174.1130  138.2960 C   0  0  1  0  0  3  0  0  0  0  0  0
  191.1330  173.7950  140.8430 C   0  0  0  0  0  3  0  0  0  0  0  0
  189.6730  171.9160  144.9040 O   0  0  0  0  0  0  0  0  0  0  0  0
  190.7650  175.3650  144.2820 C   0  0  0  0  0  0  0  0  0  0  0  0
  191.0520  175.2160  142.9870 C   0  0  0  0  0  3  0  0  0  0  0  0
  190.1120  174.2550  145.0740 C   0  0  0  0  0  2  0  0  0  0  0  0
  190.0370  172.9640  144.3120 C   0  0  0  0  0  0  0  0  0  0  0  0
  190.7840  173.9550  142.2670 C   0  0  0  0  0  0  0  0  0  0  0  0
  190.3530  172.9170  142.9150 N   0  0  0  0  0  0  0  0  0  0  0  0
  191.0470  176.6210  144.9010 N   0  0  0  0  0  2  0  0  0  0  0  0
  191.4310  178.2890  143.3230 O   0  0  0  0  0  1  0  0  0  0  0  0
  189.1800  177.7470  143.8420 C   0  0  0  0  0  1  0  0  0  0  0  0
  190.5940  177.8940  144.3650 C   0  0  1  0  0  3  0  0  0  0  0  0
  197.6870  171.3920  141.6400 C   0  0  0  0  0  1  0  0  0  0  0  0
  196.3170  172.0550  141.5980 C   0  0  1  0  0  3  0  0  0  0  0  0
  196.5020  173.4280  141.4180 O   0  0  0  0  0  0  0  0  0  0  0  0
  197.5020  173.7830  142.3280 C   0  0  0  0  0  2  0  0  0  0  0  0
  196.9740  173.2000  144.6860 C   0  0  0  0  0  3  0  0  0  0  0  0
  196.3910  173.4720  145.9250 C   0  0  0  0  0  3  0  0  0  0  0  0
  196.1810  175.3340  143.8320 C   0  0  0  0  0  0  0  0  0  0  0  0
  195.6070  175.6110  145.0910 C   0  0  0  0  0  0  0  0  0  0  0  0
  195.7120  174.6750  146.1250 C   0  0  0  0  0  3  0  0  0  0  0  0
  196.8840  174.1270  143.6420 C   0  0  0  0  0  0  0  0  0  0  0  0
  194.8560  176.8780  145.3490 C   0  0  0  0  0  2  0  0  0  0  0  0
  194.0930  176.7760  146.6550 C   0  0  0  0  0  1  0  0  0  0  0  0
  196.0850  176.3350  142.7190 C   0  0  0  0  0  2  0  0  0  0  0  0
  194.8300  176.2500  142.1160 O   0  0  0  0  0  1  0  0  0  0  0  0
  191.2310  175.1270  136.1550 O   0  0  0  0  0  0  0  0  0  0  0  0
  190.6510  175.2160  134.8890 C   0  0  0  0  0  2  0  0  0  0  0  0
  189.6580  176.1970  134.8920 O   0  0  0  0  0  0  0  0  0  0  0  0
  188.4630  175.4810  134.8300 C   0  0  0  0  0  2  0  0  0  0  0  0
  187.9470  175.2130  136.2330 C   0  0  0  0  0  2  0  0  0  0  0  0
  185.9740  176.1040  136.9390 O   0  0  0  0  0  0  0  0  0  0  0  0
  186.7570  176.0420  138.0450 C   0  0  1  0  0  3  0  0  0  0  0  0
  187.3160  176.4070  136.7680 N   0  0  0  0  0  0  0  0  0  0  0  0
  186.5490  177.2870  138.8850 C   0  0  0  0  0  2  0  0  0  0  0  0
  186.8880  177.0220  140.2120 O   0  0  0  0  0  0  0  0  0  0  0  0
  185.9400  177.7130  140.9650 C   0  0  0  0  0  2  0  0  0  0  0  0
  185.8000  178.2030  143.2760 F   0  0  0  0  0  0  0  0  0  0  0  0
  185.9120  177.1610  142.3750 C   0  0  0  0  0  2  0  0  0  0  0  0
  191.4190  171.4840  136.4950 C   0  0  0  0  0  2  0  0  0  0  0  0
  189.6640  170.0430  137.4920 C   0  0  0  0  0  1  0  0  0  0  0  0
  189.0910  171.5500  135.6210 C   0  0  0  0  0  1  0  0  0  0  0  0
  190.1680  170.6620  136.2090 C   0  0  0  0  0  3  0  0  0  0  0  0
  1 12  1  1  0  0  0
  1  2  1  0  0  0  0
  2  6  1  0  0  0  0
  2 30  1  1  0  0  0
  3 43  1  1  0  0  0
  3 10  1  0  0  0  0
  3  8  1  0  0  0  0
  5 17  2  0  0  0  0
  5 15  1  0  0  0  0
  6 15  1  0  0  0  0
  8  7  1  0  0  0  0
 11 12  1  1  0  0  0
 11 14  1  0  0  0  0
 11  1  1  0  0  0  0
 13  7  1  6  0  0  0
 13  5  1  0  0  0  0
 14  4  1  6  0  0  0
 15  9  2  0  0  0  0
 16 10  1  6  0  0  0
 16 13  1  0  0  0  0
 16 14  1  0  0  0  0
 17 23  1  0  0  0  0
 19 25  1  0  0  0  0
 19 21  1  0  0  0  0
 20 19  2  0  0  0  0
 22 18  2  0  0  0  0
 22 21  1  0  0  0  0
 23 24  2  0  0  0  0
 23 20  1  0  0  0  0
 24 22  1  0  0  0  0
 26 28  1  0  0  0  0
 28 27  1  6  0  0  0
 28 25  1  0  0  0  0
 30 29  1  6  0  0  0
 31 30  1  0  0  0  0
 31 32  1  0  0  0  0
 32 38  1  0  0  0  0
 33 34  1  0  0  0  0
 34 37  2  0  0  0  0
 35 36  2  0  0  0  0
 36 39  1  0  0  0  0
 36 37  1  0  0  0  0
 38 35  1  0  0  0  0
 38 33  2  0  0  0  0
 39 40  1  0  0  0  0
 41 35  1  0  0  0  0
 42 41  1  0  0  0  0
 44 45  1  0  0  0  0
 44 43  1  0  0  0  0
 46 45  1  0  0  0  0
 46 47  1  0  0  0  0
 47 50  1  0  0  0  0
 48 49  1  0  0  0  0
 49 51  1  1  0  0  0
 50 48  1  0  0  0  0
 50 49  1  0  0  0  0
 51 52  1  0  0  0  0
 52 53  1  0  0  0  0
 53 55  1  0  0  0  0
 55 54  1  0  0  0  0
 56  8  1  0  0  0  0
 58 59  1  0  0  0  0
 59 56  1  0  0  0  0
 59 57  1  0  0  0  0
M  END
>  <MODEL>
6

>  <REMARK>
 VINA RESULT:      -5.3      3.085      7.839
  Name = 
  21 active torsions:
  status: ('A' for Active; 'I' for Inactive)
    1  A    between atoms: C_4  and  C_9
    2  A    between atoms: O_5  and  C_25
    3  A    between atoms: O_5  and  C_41
    4  A    between atoms: C_9  and  O_17
    5  A    between atoms: O_11  and  C_15
    6  A    between atoms: O_11  and  C_26
    7  A    between atoms: C_12  and  C_48
    8  A    between atoms: O_17  and  C_24
    9  A    between atoms: C_18  and  N_38
   10  A    between atoms: C_21  and  C_47
   11  A    between atoms: C_23  and  O_29
   12  A    between atoms: C_23  and  C_56
   13  A    between atoms: C_24  and  C_52
   14  A    between atoms: C_25  and  C_39
   15  A    between atoms: C_26  and  O_29
   16  A    between atoms: N_32  and  C_48
   17  A    between atoms: C_35  and  C_36
   18  A    between atoms: N_38  and  C_58
   19  A    between atoms: C_41  and  C_42
   20  A    between atoms: C_45  and  C_57
   21  A    between atoms: N_50  and  C_56
                            x       y       z     vdW  Elec       q    Type
                         _______ _______ _______ _____ _____    ______ ____

>  <TORSDO>
F 21

$$$$
=
 OpenBabel11042415433D

 59 64  0  0  1  0  0  0  0  0999 V2000
  196.7210  174.3280  143.5290 C   0  0  1  0  0  3  0  0  0  0  0  0
  195.3000  173.8680  143.9460 C   0  0  2  0  0  3  0  0  0  0  0  0
  197.1270  174.0850  138.1390 C   0  0  2  0  0  3  0  0  0  0  0  0
  195.5830  177.0710  141.2690 C   0  0  0  0  0  1  0  0  0  0  0  0
  193.7340  173.3970  140.6110 C   0  0  0  0  0  0  0  0  0  0  0  0
  194.6160  173.0780  142.9240 N   0  0  0  0  0  2  0  0  0  0  0  0
  195.2050  172.8450  138.7990 O   0  0  0  0  0  0  0  0  0  0  0  0
  196.5060  172.7720  138.3700 N   0  0  0  0  0  0  0  0  0  0  0  0
  192.6510  174.2770  142.5330 O   0  0  0  0  0  0  0  0  0  0  0  0
  197.0250  174.9860  139.3660 C   0  0  0  0  0  2  0  0  0  0  0  0
  196.9200  175.1640  142.2470 C   0  0  2  0  0  3  0  0  0  0  0  0
  196.9160  175.8310  143.6070 C   0  0  0  0  0  2  0  0  0  0  0  0
  195.1430  173.4590  140.0730 C   0  0  1  0  0  3  0  0  0  0  0  0
  195.6740  175.5620  141.4320 C   0  0  2  0  0  3  0  0  0  0  0  0
  193.5860  173.5740  142.0650 C   0  0  0  0  0  0  0  0  0  0  0  0
  195.6480  174.9100  140.0300 C   0  0  1  0  0  3  0  0  0  0  0  0
  192.7000  173.3730  139.7530 C   0  0  0  0  0  3  0  0  0  0  0  0
  188.2040  173.8870  138.4570 O   0  0  0  0  0  0  0  0  0  0  0  0
  189.4980  172.4590  141.5820 C   0  0  0  0  0  0  0  0  0  0  0  0
  190.7960  172.5890  141.2980 C   0  0  0  0  0  3  0  0  0  0  0  0
  188.4350  173.0320  140.6720 C   0  0  0  0  0  2  0  0  0  0  0  0
  188.9910  173.5400  139.3740 C   0  0  0  0  0  0  0  0  0  0  0  0
  191.2640  173.2620  140.0680 C   0  0  0  0  0  0  0  0  0  0  0  0
  190.4050  173.6540  139.1780 N   0  0  0  0  0  0  0  0  0  0  0  0
  189.1290  171.8040  142.7960 N   0  0  0  0  0  2  0  0  0  0  0  0
  190.9710  171.7540  144.2200 O   0  0  0  0  0  1  0  0  0  0  0  0
  189.6020  173.6930  144.2390 C   0  0  0  0  0  1  0  0  0  0  0  0
  189.6510  172.1860  144.0980 C   0  0  1  0  0  3  0  0  0  0  0  0
  195.0550  174.9830  146.1750 C   0  0  0  0  0  1  0  0  0  0  0  0
  194.4040  174.7710  144.8150 C   0  0  1  0  0  3  0  0  0  0  0  0
  194.2390  176.0190  144.2090 O   0  0  0  0  0  0  0  0  0  0  0  0
  193.6250  176.8160  145.1800 C   0  0  0  0  0  2  0  0  0  0  0  0
  191.9810  177.5990  143.4880 C   0  0  0  0  0  3  0  0  0  0  0  0
  190.6820  177.9020  143.0760 C   0  0  0  0  0  3  0  0  0  0  0  0
  191.1430  176.9270  145.6700 C   0  0  0  0  0  0  0  0  0  0  0  0
  189.8310  177.2200  145.2420 C   0  0  0  0  0  0  0  0  0  0  0  0
  189.6120  177.7100  143.9500 C   0  0  0  0  0  3  0  0  0  0  0  0
  192.2180  177.1030  144.7750 C   0  0  0  0  0  0  0  0  0  0  0  0
  188.6530  177.0460  146.1480 C   0  0  0  0  0  2  0  0  0  0  0  0
  187.4180  177.6680  145.5240 C   0  0  0  0  0  1  0  0  0  0  0  0
  191.3880  176.3900  147.0490 C   0  0  0  0  0  2  0  0  0  0  0  0
  191.4450  174.9970  147.0080 O   0  0  0  0  0  1  0  0  0  0  0  0
  196.5250  174.7030  137.0410 O   0  0  0  0  0  0  0  0  0  0  0  0
  197.1840  174.1780  135.9280 C   0  0  0  0  0  2  0  0  0  0  0  0
  196.2980  174.0920  134.8530 O   0  0  0  0  0  0  0  0  0  0  0  0
  196.1280  172.7230  134.6530 C   0  0  0  0  0  2  0  0  0  0  0  0
  194.6500  172.4000  134.5140 C   0  0  0  0  0  2  0  0  0  0  0  0
  193.2380  173.0130  136.1910 O   0  0  0  0  0  0  0  0  0  0  0  0
  192.6760  171.9120  135.6320 C   0  0  1  0  0  3  0  0  0  0  0  0
  194.1040  172.0040  135.8010 N   0  0  0  0  0  0  0  0  0  0  0  0
  192.0900  171.0330  136.7210 C   0  0  0  0  0  2  0  0  0  0  0  0
  190.9930  170.3310  136.2190 O   0  0  0  0  0  0  0  0  0  0  0  0
  190.7950  169.2890  137.1240 C   0  0  0  0  0  2  0  0  0  0  0  0
  189.3040  170.4370  138.5580 F   0  0  0  0  0  0  0  0  0  0  0  0
  190.5580  169.8570  138.5070 C   0  0  0  0  0  2  0  0  0  0  0  0
  197.3140  171.7660  139.0830 C   0  0  0  0  0  2  0  0  0  0  0  0
  197.3880  170.0040  137.3390 C   0  0  0  0  0  1  0  0  0  0  0  0
  197.6370  169.3810  139.7160 C   0  0  0  0  0  1  0  0  0  0  0  0
  196.9490  170.3240  138.7490 C   0  0  0  0  0  3  0  0  0  0  0  0
  1 12  1  1  0  0  0
  1  2  1  0  0  0  0
  2 30  1  6  0  0  0
  3 43  1  6  0  0  0
  3  8  1  0  0  0  0
  3 10  1  0  0  0  0
  5 15  1  0  0  0  0
  6  2  1  0  0  0  0
  8  7  1  0  0  0  0
  8 56  1  0  0  0  0
 11  1  1  0  0  0  0
 11 12  1  1  0  0  0
 13  7  1  6  0  0  0
 13  5  1  0  0  0  0
 14  4  1  6  0  0  0
 14 11  1  0  0  0  0
 15  9  2  0  0  0  0
 15  6  1  0  0  0  0
 16 10  1  1  0  0  0
 16 13  1  0  0  0  0
 16 14  1  0  0  0  0
 17 23  1  0  0  0  0
 17  5  2  0  0  0  0
 18 22  2  0  0  0  0
 19 25  1  0  0  0  0
 20 19  2  0  0  0  0
 21 19  1  0  0  0  0
 22 21  1  0  0  0  0
 23 20  1  0  0  0  0
 24 22  1  0  0  0  0
 24 23  2  0  0  0  0
 25 28  1  0  0  0  0
 28 26  1  0  0  0  0
 28 27  1  6  0  0  0
 30 29  1  1  0  0  0
 31 30  1  0  0  0  0
 31 32  1  0  0  0  0
 33 38  1  0  0  0  0
 34 33  2  0  0  0  0
 34 37  1  0  0  0  0
 35 41  1  0  0  0  0
 36 35  1  0  0  0  0
 36 39  1  0  0  0  0
 37 36  2  0  0  0  0
 38 32  1  0  0  0  0
 38 35  2  0  0  0  0
 40 39  1  0  0  0  0
 42 41  1  0  0  0  0
 44 43  1  0  0  0  0
 45 44  1  0  0  0  0
 46 45  1  0  0  0  0
 47 46  1  0  0  0  0
 47 50  1  0  0  0  0
 49 50  1  0  0  0  0
 49 48  1  0  0  0  0
 49 51  1  1  0  0  0
 50 48  1  0  0  0  0
 52 51  1  0  0  0  0
 52 53  1  0  0  0  0
 53 55  1  0  0  0  0
 55 54  1  0  0  0  0
 57 59  1  0  0  0  0
 59 56  1  0  0  0  0
 59 58  1  0  0  0  0
M  END
>  <MODEL>
7

>  <REMARK>
 VINA RESULT:      -5.3      3.417      9.713
  Name = 
  21 active torsions:
  status: ('A' for Active; 'I' for Inactive)
    1  A    between atoms: C_4  and  C_9
    2  A    between atoms: O_5  and  C_25
    3  A    between atoms: O_5  and  C_41
    4  A    between atoms: C_9  and  O_17
    5  A    between atoms: O_11  and  C_15
    6  A    between atoms: O_11  and  C_26
    7  A    between atoms: C_12  and  C_48
    8  A    between atoms: O_17  and  C_24
    9  A    between atoms: C_18  and  N_38
   10  A    between atoms: C_21  and  C_47
   11  A    between atoms: C_23  and  O_29
   12  A    between atoms: C_23  and  C_56
   13  A    between atoms: C_24  and  C_52
   14  A    between atoms: C_25  and  C_39
   15  A    between atoms: C_26  and  O_29
   16  A    between atoms: N_32  and  C_48
   17  A    between atoms: C_35  and  C_36
   18  A    between atoms: N_38  and  C_58
   19  A    between atoms: C_41  and  C_42
   20  A    between atoms: C_45  and  C_57
   21  A    between atoms: N_50  and  C_56
                            x       y       z     vdW  Elec       q    Type
                         _______ _______ _______ _____ _____    ______ ____

>  <TORSDO>
F 21

$$$$
=
 OpenBabel11042415433D

 59 64  0  0  1  0  0  0  0  0999 V2000
  189.1570  172.1350  141.2560 C   0  0  1  0  0  3  0  0  0  0  0  0
  189.8750  173.3620  140.6360 C   0  0  2  0  0  3  0  0  0  0  0  0
  192.8820  168.5230  142.7910 C   0  0  2  0  0  3  0  0  0  0  0  0
  190.9200  172.2890  144.5430 C   0  0  0  0  0  1  0  0  0  0  0  0
  193.4250  172.4380  141.2180 C   0  0  0  0  0  0  0  0  0  0  0  0
  191.2400  173.0830  140.1960 N   0  0  0  0  0  2  0  0  0  0  0  0
  193.9230  170.0950  141.3370 O   0  0  0  0  0  0  0  0  0  0  0  0
  193.4120  168.8270  141.4540 N   0  0  0  0  0  0  0  0  0  0  0  0
  192.5230  174.6290  141.3870 O   0  0  0  0  0  0  0  0  0  0  0  0
  191.8500  169.5520  143.2410 C   0  0  0  0  0  2  0  0  0  0  0  0
  189.7750  171.4090  142.4700 C   0  0  2  0  0  3  0  0  0  0  0  0
  188.6340  172.3870  142.6580 C   0  0  0  0  0  2  0  0  0  0  0  0
  192.8940  171.0540  141.5010 C   0  0  1  0  0  3  0  0  0  0  0  0
  191.0840  171.9620  143.0660 C   0  0  2  0  0  3  0  0  0  0  0  0
  192.4190  173.4680  140.9070 C   0  0  0  0  0  0  0  0  0  0  0  0
  192.2710  170.9850  142.9040 C   0  0  1  0  0  3  0  0  0  0  0  0
  194.7230  172.7050  141.4370 C   0  0  0  0  0  3  0  0  0  0  0  0
  196.4800  176.7790  143.0110 O   0  0  0  0  0  0  0  0  0  0  0  0
  196.7940  175.3400  139.6480 C   0  0  0  0  0  0  0  0  0  0  0  0
  196.1160  174.2150  139.8860 C   0  0  0  0  0  3  0  0  0  0  0  0
  196.8800  176.4380  140.6840 C   0  0  0  0  0  2  0  0  0  0  0  0
  196.3220  176.0280  142.0150 C   0  0  0  0  0  0  0  0  0  0  0  0
  195.4460  173.9650  141.1780 C   0  0  0  0  0  0  0  0  0  0  0  0
  195.5930  174.8030  142.1580 N   0  0  0  0  0  0  0  0  0  0  0  0
  197.4060  175.5090  138.3690 N   0  0  0  0  0  2  0  0  0  0  0  0
  196.5520  176.0400  136.2690 O   0  0  0  0  0  1  0  0  0  0  0  0
  197.8260  174.0500  136.4800 C   0  0  0  0  0  1  0  0  0  0  0  0
  196.8350  174.9870  137.1370 C   0  0  1  0  0  3  0  0  0  0  0  0
  188.2590  175.2750  140.6870 C   0  0  0  0  0  1  0  0  0  0  0  0
  189.6140  174.7820  141.1740 C   0  0  1  0  0  3  0  0  0  0  0  0
  189.6020  174.7750  142.5720 O   0  0  0  0  0  0  0  0  0  0  0  0
  189.2810  176.0860  142.9380 C   0  0  0  0  0  2  0  0  0  0  0  0
  189.5110  175.6480  145.3740 C   0  0  0  0  0  3  0  0  0  0  0  0
  189.0090  175.6180  146.6760 C   0  0  0  0  0  3  0  0  0  0  0  0
  187.3820  176.4970  144.5620 C   0  0  0  0  0  0  0  0  0  0  0  0
  186.8850  176.4800  145.8820 C   0  0  0  0  0  0  0  0  0  0  0  0
  187.7020  176.0350  146.9270 C   0  0  0  0  0  3  0  0  0  0  0  0
  188.7110  176.0950  144.3170 C   0  0  0  0  0  0  0  0  0  0  0  0
  185.4860  176.9030  146.2000 C   0  0  0  0  0  2  0  0  0  0  0  0
  185.4940  178.2390  146.9170 C   0  0  0  0  0  1  0  0  0  0  0  0
  186.5200  176.9830  143.4340 C   0  0  0  0  0  2  0  0  0  0  0  0
  186.7230  178.3490  143.2410 O   0  0  0  0  0  1  0  0  0  0  0  0
  193.9320  168.4680  143.7110 O   0  0  0  0  0  0  0  0  0  0  0  0
  193.5520  169.3280  144.7420 C   0  0  0  0  0  2  0  0  0  0  0  0
  194.2570  169.0130  145.9040 O   0  0  0  0  0  0  0  0  0  0  0  0
  195.5630  168.7920  145.4680 C   0  0  0  0  0  2  0  0  0  0  0  0
  196.2080  170.1100  145.0740 C   0  0  0  0  0  2  0  0  0  0  0  0
  196.8090  172.0380  146.1240 O   0  0  0  0  0  0  0  0  0  0  0  0
  195.8760  172.4030  145.2100 C   0  0  1  0  0  3  0  0  0  0  0  0
  195.7420  171.1720  145.9480 N   0  0  0  0  0  0  0  0  0  0  0  0
  194.9650  173.4570  145.8070 C   0  0  0  0  0  2  0  0  0  0  0  0
  194.0550  173.8940  144.8430 O   0  0  0  0  0  0  0  0  0  0  0  0
  193.2720  174.8430  145.4990 C   0  0  0  0  0  2  0  0  0  0  0  0
  192.6690  177.1290  145.4130 F   0  0  0  0  0  0  0  0  0  0  0  0
  193.1730  176.0930  144.6500 C   0  0  0  0  0  2  0  0  0  0  0  0
  192.5980  168.4030  140.3000 C   0  0  0  0  0  2  0  0  0  0  0  0
  193.9210  168.2260  138.2090 C   0  0  0  0  0  1  0  0  0  0  0  0
  191.7140  169.3340  138.1690 C   0  0  0  0  0  1  0  0  0  0  0  0
  192.9630  169.0950  138.9920 C   0  0  0  0  0  3  0  0  0  0  0  0
  1 11  1  0  0  0  0
  1 12  1  1  0  0  0
  2 30  1  1  0  0  0
  2  1  1  0  0  0  0
  3 10  1  0  0  0  0
  3 43  1  1  0  0  0
  5 17  2  0  0  0  0
  6  2  1  0  0  0  0
  6 15  1  0  0  0  0
  7  8  1  0  0  0  0
  7 13  1  0  0  0  0
  8  3  1  0  0  0  0
 11 12  1  1  0  0  0
 11 14  1  0  0  0  0
 13  5  1  1  0  0  0
 13 16  1  0  0  0  0
 14  4  1  1  0  0  0
 15  5  1  0  0  0  0
 15  9  2  0  0  0  0
 16 14  1  0  0  0  0
 16 10  1  6  0  0  0
 19 20  2  0  0  0  0
 19 21  1  0  0  0  0
 20 23  1  0  0  0  0
 21 22  1  0  0  0  0
 22 24  1  0  0  0  0
 22 18  2  0  0  0  0
 23 17  1  0  0  0  0
 23 24  2  0  0  0  0
 25 19  1  0  0  0  0
 26 28  1  0  0  0  0
 28 27  1  6  0  0  0
 28 25  1  0  0  0  0
 30 29  1  6  0  0  0
 30 31  1  0  0  0  0
 31 32  1  0  0  0  0
 32 38  1  0  0  0  0
 33 34  1  0  0  0  0
 34 37  2  0  0  0  0
 35 36  2  0  0  0  0
 36 39  1  0  0  0  0
 36 37  1  0  0  0  0
 38 35  1  0  0  0  0
 38 33  2  0  0  0  0
 39 40  1  0  0  0  0
 41 35  1  0  0  0  0
 42 41  1  0  0  0  0
 43 44  1  0  0  0  0
 44 45  1  0  0  0  0
 46 45  1  0  0  0  0
 47 46  1  0  0  0  0
 47 50  1  0  0  0  0
 49 51  1  1  0  0  0
 49 50  1  0  0  0  0
 49 48  1  0  0  0  0
 50 48  1  0  0  0  0
 52 53  1  0  0  0  0
 52 51  1  0  0  0  0
 55 54  1  0  0  0  0
 55 53  1  0  0  0  0
 56  8  1  0  0  0  0
 57 59  1  0  0  0  0
 58 59  1  0  0  0  0
 59 56  1  0  0  0  0
M  END
>  <MODEL>
8

>  <REMARK>
 VINA RESULT:      -5.2      2.656      8.286
  Name = 
  21 active torsions:
  status: ('A' for Active; 'I' for Inactive)
    1  A    between atoms: C_4  and  C_9
    2  A    between atoms: O_5  and  C_25
    3  A    between atoms: O_5  and  C_41
    4  A    between atoms: C_9  and  O_17
    5  A    between atoms: O_11  and  C_15
    6  A    between atoms: O_11  and  C_26
    7  A    between atoms: C_12  and  C_48
    8  A    between atoms: O_17  and  C_24
    9  A    between atoms: C_18  and  N_38
   10  A    between atoms: C_21  and  C_47
   11  A    between atoms: C_23  and  O_29
   12  A    between atoms: C_23  and  C_56
   13  A    between atoms: C_24  and  C_52
   14  A    between atoms: C_25  and  C_39
   15  A    between atoms: C_26  and  O_29
   16  A    between atoms: N_32  and  C_48
   17  A    between atoms: C_35  and  C_36
   18  A    between atoms: N_38  and  C_58
   19  A    between atoms: C_41  and  C_42
   20  A    between atoms: C_45  and  C_57
   21  A    between atoms: N_50  and  C_56
                            x       y       z     vdW  Elec       q    Type
                         _______ _______ _______ _____ _____    ______ ____

>  <TORSDO>
F 21

$$$$
=
 OpenBabel11042415433D

 59 64  0  0  1  0  0  0  0  0999 V2000
  190.5540  170.7880  142.2410 C   0  0  1  0  0  3  0  0  0  0  0  0
  192.0910  170.7450  142.4430 C   0  0  2  0  0  3  0  0  0  0  0  0
  188.8400  175.8720  142.9440 C   0  0  2  0  0  3  0  0  0  0  0  0
  190.6030  173.3540  139.5300 C   0  0  0  0  0  1  0  0  0  0  0  0
  192.8150  174.3580  142.9130 C   0  0  0  0  0  0  0  0  0  0  0  0
  192.6170  171.8850  143.1920 N   0  0  0  0  0  2  0  0  0  0  0  0
  191.0480  175.7020  143.8190 O   0  0  0  0  0  0  0  0  0  0  0  0
  189.7120  175.7710  144.1240 N   0  0  0  0  0  0  0  0  0  0  0  0
  194.1870  172.8170  141.7360 O   0  0  0  0  0  0  0  0  0  0  0  0
  189.0980  174.7440  141.9500 C   0  0  0  0  0  2  0  0  0  0  0  0
  189.8990  172.0000  141.5430 C   0  0  2  0  0  3  0  0  0  0  0  0
  190.1360  170.7100  140.7840 C   0  0  0  0  0  2  0  0  0  0  0  0
  191.3260  174.5080  143.1100 C   0  0  1  0  0  3  0  0  0  0  0  0
  190.8110  173.1250  141.0190 C   0  0  2  0  0  3  0  0  0  0  0  0
  193.2960  173.0000  142.6080 C   0  0  0  0  0  0  0  0  0  0  0  0
  190.5900  174.4630  141.7620 C   0  0  1  0  0  3  0  0  0  0  0  0
  193.5870  175.4560  142.8420 C   0  0  0  0  0  3  0  0  0  0  0  0
  197.8720  174.9010  144.7100 O   0  0  0  0  0  0  0  0  0  0  0  0
  197.0210  175.8070  141.2560 C   0  0  0  0  0  0  0  0  0  0  0  0
  195.6940  175.7670  141.3970 C   0  0  0  0  0  3  0  0  0  0  0  0
  197.9410  175.6440  142.4440 C   0  0  0  0  0  2  0  0  0  0  0  0
  197.2140  175.2350  143.6920 C   0  0  0  0  0  0  0  0  0  0  0  0
  195.0540  175.5260  142.7060 C   0  0  0  0  0  0  0  0  0  0  0  0
  195.7820  175.2420  143.7410 N   0  0  0  0  0  0  0  0  0  0  0  0
  197.5600  176.0540  139.9570 N   0  0  0  0  0  2  0  0  0  0  0  0
  197.8810  173.7790  139.5770 O   0  0  0  0  0  1  0  0  0  0  0  0
  196.5080  174.9770  138.0570 C   0  0  0  0  0  1  0  0  0  0  0  0
  197.7290  175.0160  138.9530 C   0  0  1  0  0  3  0  0  0  0  0  0
  194.0660  169.2730  141.9870 C   0  0  0  0  0  1  0  0  0  0  0  0
  193.0140  170.1710  141.3500 C   0  0  1  0  0  3  0  0  0  0  0  0
  192.2750  169.4050  140.4450 O   0  0  0  0  0  0  0  0  0  0  0  0
  193.1110  169.2460  139.3360 C   0  0  0  0  0  2  0  0  0  0  0  0
  193.4200  171.5460  138.4460 C   0  0  0  0  0  3  0  0  0  0  0  0
  193.1430  172.5640  137.5320 C   0  0  0  0  0  3  0  0  0  0  0  0
  191.8770  170.0690  137.2830 C   0  0  0  0  0  0  0  0  0  0  0  0
  191.6130  171.0970  136.3540 C   0  0  0  0  0  0  0  0  0  0  0  0
  192.2440  172.3380  136.4900 C   0  0  0  0  0  3  0  0  0  0  0  0
  192.8030  170.2970  138.3220 C   0  0  0  0  0  0  0  0  0  0  0  0
  190.6460  170.9070  135.2290 C   0  0  0  0  0  2  0  0  0  0  0  0
  189.3500  171.6380  135.5250 C   0  0  0  0  0  1  0  0  0  0  0  0
  191.2160  168.7300  137.1420 C   0  0  0  0  0  2  0  0  0  0  0  0
  190.0020  168.7300  137.8280 O   0  0  0  0  0  1  0  0  0  0  0  0
  189.0310  177.1090  142.3240 O   0  0  0  0  0  0  0  0  0  0  0  0
  188.1060  177.1320  141.2790 C   0  0  0  0  0  2  0  0  0  0  0  0
  186.8370  176.8170  141.7660 O   0  0  0  0  0  0  0  0  0  0  0  0
  186.0620  177.9360  141.4660 C   0  0  0  0  0  2  0  0  0  0  0  0
  186.1160  178.9270  142.6160 C   0  0  0  0  0  2  0  0  0  0  0  0
  184.9610  177.2240  143.5910 O   0  0  0  0  0  0  0  0  0  0  0  0
  185.7250  177.7540  144.5790 C   0  0  1  0  0  3  0  0  0  0  0  0
  185.0970  178.6030  143.5990 N   0  0  0  0  0  0  0  0  0  0  0  0
  184.9300  177.7900  145.8700 C   0  0  0  0  0  2  0  0  0  0  0  0
  185.6410  177.1400  146.8790 O   0  0  0  0  0  0  0  0  0  0  0  0
  186.8150  177.8790  147.0190 C   0  0  0  0  0  2  0  0  0  0  0  0
  186.7750  179.0980  149.0460 F   0  0  0  0  0  0  0  0  0  0  0  0
  186.5050  179.1990  147.6950 C   0  0  0  0  0  2  0  0  0  0  0  0
  189.2930  174.8390  145.1870 C   0  0  0  0  0  2  0  0  0  0  0  0
  190.3790  176.5520  146.6150 C   0  0  0  0  0  1  0  0  0  0  0  0
  188.9460  174.8270  147.6510 C   0  0  0  0  0  1  0  0  0  0  0  0
  189.9390  175.1080  146.5420 C   0  0  0  0  0  3  0  0  0  0  0  0
  1 12  1  6  0  0  0
  1  2  1  0  0  0  0
  2 30  1  6  0  0  0
  2  6  1  0  0  0  0
  3 43  1  6  0  0  0
  3  8  1  0  0  0  0
  7  8  1  0  0  0  0
  8 56  1  0  0  0  0
  9 15  2  0  0  0  0
 10  3  1  0  0  0  0
 11 12  1  6  0  0  0
 11  1  1  0  0  0  0
 13  5  1  6  0  0  0
 13  7  1  0  0  0  0
 14  4  1  6  0  0  0
 14 11  1  0  0  0  0
 14 16  1  0  0  0  0
 15  5  1  0  0  0  0
 15  6  1  0  0  0  0
 16 10  1  1  0  0  0
 16 13  1  0  0  0  0
 17  5  2  0  0  0  0
 19 20  2  0  0  0  0
 19 21  1  0  0  0  0
 20 23  1  0  0  0  0
 21 22  1  0  0  0  0
 22 24  1  0  0  0  0
 22 18  2  0  0  0  0
 23 17  1  0  0  0  0
 23 24  2  0  0  0  0
 25 19  1  0  0  0  0
 28 27  1  6  0  0  0
 28 26  1  0  0  0  0
 28 25  1  0  0  0  0
 30 29  1  1  0  0  0
 31 30  1  0  0  0  0
 32 31  1  0  0  0  0
 34 33  2  0  0  0  0
 35 38  2  0  0  0  0
 36 37  2  0  0  0  0
 36 35  1  0  0  0  0
 37 34  1  0  0  0  0
 38 33  1  0  0  0  0
 38 32  1  0  0  0  0
 39 40  1  0  0  0  0
 39 36  1  0  0  0  0
 41 35  1  0  0  0  0
 41 42  1  0  0  0  0
 44 45  1  0  0  0  0
 44 43  1  0  0  0  0
 46 45  1  0  0  0  0
 46 47  1  0  0  0  0
 47 50  1  0  0  0  0
 48 50  1  0  0  0  0
 48 49  1  0  0  0  0
 49 51  1  1  0  0  0
 50 49  1  0  0  0  0
 51 52  1  0  0  0  0
 52 53  1  0  0  0  0
 53 55  1  0  0  0  0
 55 54  1  0  0  0  0
 56 59  1  0  0  0  0
 59 57  1  0  0  0  0
 59 58  1  0  0  0  0
M  END
>  <MODEL>
9

>  <REMARK>
 VINA RESULT:      -5.2      1.479      1.944
  Name = 
  21 active torsions:
  status: ('A' for Active; 'I' for Inactive)
    1  A    between atoms: C_4  and  C_9
    2  A    between atoms: O_5  and  C_25
    3  A    between atoms: O_5  and  C_41
    4  A    between atoms: C_9  and  O_17
    5  A    between atoms: O_11  and  C_15
    6  A    between atoms: O_11  and  C_26
    7  A    between atoms: C_12  and  C_48
    8  A    between atoms: O_17  and  C_24
    9  A    between atoms: C_18  and  N_38
   10  A    between atoms: C_21  and  C_47
   11  A    between atoms: C_23  and  O_29
   12  A    between atoms: C_23  and  C_56
   13  A    between atoms: C_24  and  C_52
   14  A    between atoms: C_25  and  C_39
   15  A    between atoms: C_26  and  O_29
   16  A    between atoms: N_32  and  C_48
   17  A    between atoms: C_35  and  C_36
   18  A    between atoms: N_38  and  C_58
   19  A    between atoms: C_41  and  C_42
   20  A    between atoms: C_45  and  C_57
   21  A    between atoms: N_50  and  C_56
                            x       y       z     vdW  Elec       q    Type
                         _______ _______ _______ _____ _____    ______ ____

>  <TORSDO>
F 21

$$$$
