=
 OpenBabel11042416093D

 34 37  0  0  0  0  0  0  0  0999 V2000
  188.3330  175.3230  142.9330 C   0  0  0  0  0  3  0  0  0  0  0  0
  190.2280  172.3190  142.2030 C   0  0  0  0  0  0  0  0  0  0  0  0
  189.5810  174.7650  144.9690 C   0  0  0  0  0  0  0  0  0  0  0  0
  189.6660  172.3330  140.9370 C   0  0  0  0  0  0  0  0  0  0  0  0
  190.8490  170.4030  140.3100 C   0  0  0  0  0  3  0  0  0  0  0  0
  189.7790  173.3750  142.9970 C   0  0  0  0  0  0  0  0  0  0  0  0
  191.1400  171.3200  142.5460 C   0  0  0  0  0  3  0  0  0  0  0  0
  188.6080  173.6350  140.7580 S   0  0  0  0  0  0  0  0  0  0  0  0
  189.9620  171.3940  140.0040 N   0  0  0  0  0  0  0  0  0  0  0  0
  188.8770  174.1950  142.3310 C   0  0  0  0  0  0  0  0  0  0  0  0
  188.6940  175.6320  144.2580 C   0  0  0  0  0  0  0  0  0  0  0  0
  191.4530  170.3490  141.5810 C   0  0  0  0  0  3  0  0  0  0  0  0
  190.1340  173.6440  144.3160 C   0  0  0  0  0  3  0  0  0  0  0  0
  186.8980  176.9160  145.4650 N   0  0  0  0  0  2  0  0  0  0  0  0
  188.8500  177.9650  144.7240 O   0  0  0  0  0  0  0  0  0  0  0  0
  188.1810  176.8960  144.8300 C   0  0  0  0  0  0  0  0  0  0  0  0
  186.3500  178.1290  146.0490 C   0  0  0  0  0  2  0  0  0  0  0  0
  185.1360  178.5680  145.2630 C   0  0  0  0  0  2  0  0  0  0  0  0
  185.5500  179.6020  144.2390 C   0  0  0  0  0  2  0  0  0  0  0  0
  185.5850  179.0160  142.9770 O   0  0  0  0  0  0  0  0  0  0  0  0
  184.3990  178.2840  142.9000 C   0  0  0  0  0  1  0  0  0  0  0  0
  188.9550  174.5840  147.3900 C   0  0  0  0  0  1  0  0  0  0  0  0
  189.9020  174.9800  146.3550 N   0  0  0  0  0  0  0  0  0  0  0  0
  191.2640  175.2760  146.7750 C   0  0  0  0  0  2  0  0  0  0  0  0
  191.7360  176.5740  146.1350 C   0  0  0  0  0  2  0  0  0  0  0  0
  193.0720  176.4270  145.5710 N   0  0  0  0  0  0  0  0  0  0  0  0
  196.3550  173.8990  144.3670 C   0  0  0  0  0  1  0  0  0  0  0  0
  195.1890  175.2510  146.0210 C   0  0  0  0  0  3  0  0  0  0  0  0
  194.6340  175.2610  142.4860 O   0  0  0  0  0  0  0  0  0  0  0  0
  195.3270  174.9100  144.7370 C   0  0  0  0  0  0  0  0  0  0  0  0
  194.2250  176.3140  146.4680 C   0  0  0  0  0  2  0  0  0  0  0  0
  193.2590  176.2500  144.1540 C   0  0  0  0  0  0  0  0  0  0  0  0
  192.1300  176.7650  143.0700 S   0  0  0  0  0  0  0  0  0  0  0  0
  194.4270  175.4760  143.7120 C   0  0  0  0  0  0  0  0  0  0  0  0
  1 11  1  0  0  0  0
  2  7  1  0  0  0  0
  2  6  1  0  0  0  0
  3 23  1  0  0  0  0
  4  2  2  0  0  0  0
  5 12  1  0  0  0  0
  6 13  2  0  0  0  0
  8  4  1  0  0  0  0
  8 10  1  0  0  0  0
  9  5  2  0  0  0  0
  9  4  1  0  0  0  0
 10  1  2  0  0  0  0
 10  6  1  0  0  0  0
 11 16  1  0  0  0  0
 11  3  2  0  0  0  0
 12  7  2  0  0  0  0
 13  3  1  0  0  0  0
 14 17  1  0  0  0  0
 15 16  2  0  0  0  0
 16 14  1  0  0  0  0
 18 17  1  0  0  0  0
 19 18  1  0  0  0  0
 20 19  1  0  0  0  0
 21 20  1  0  0  0  0
 23 24  1  0  0  0  0
 23 22  1  0  0  0  0
 25 24  1  0  0  0  0
 26 25  1  0  0  0  0
 26 31  1  0  0  0  0
 27 30  1  0  0  0  0
 28 31  1  0  0  0  0
 29 34  2  0  0  0  0
 30 28  2  0  0  0  0
 32 26  1  0  0  0  0
 33 32  2  0  0  0  0
 34 32  1  0  0  0  0
 34 30  1  0  0  0  0
M  END
>  <MODEL>
1

>  <REMARK>
 VINA RESULT:      -6.6      0.000      0.000
  Name = 
  9 active torsions:
  status: ('A' for Active; 'I' for Inactive)
    1  A    between atoms: N_1  and  C_26
    2  A    between atoms: C_2  and  C_9
    3  A    between atoms: C_2  and  C_28
    4  A    between atoms: N_8  and  C_28
    5  A    between atoms: C_9  and  O_24
    6  A    between atoms: C_12  and  C_26
    7  A    between atoms: C_12  and  N_29
    8  A    between atoms: C_16  and  N_29
    9  A    between atoms: C_22  and  C_31
                            x       y       z     vdW  Elec       q    Type
                         _______ _______ _______ _____ _____    ______ ____

>  <TORSDO>
F 9

$$$$
=
 OpenBabel11042416093D

 34 37  0  0  0  0  0  0  0  0999 V2000
  189.4040  176.8560  146.8850 C   0  0  0  0  0  3  0  0  0  0  0  0
  186.6590  178.0460  144.8360 C   0  0  0  0  0  0  0  0  0  0  0  0
  190.0650  176.5080  144.5480 C   0  0  0  0  0  0  0  0  0  0  0  0
  185.9850  178.3510  146.0080 C   0  0  0  0  0  0  0  0  0  0  0  0
  184.1390  179.1820  144.8140 C   0  0  0  0  0  3  0  0  0  0  0  0
  187.9140  177.4830  145.0760 C   0  0  0  0  0  0  0  0  0  0  0  0
  186.0660  178.3210  143.6030 C   0  0  0  0  0  3  0  0  0  0  0  0
  186.9040  177.9390  147.3610 S   0  0  0  0  0  0  0  0  0  0  0  0
  184.7460  178.9040  146.0050 N   0  0  0  0  0  0  0  0  0  0  0  0
  188.1930  177.3630  146.4310 C   0  0  0  0  0  0  0  0  0  0  0  0
  190.3650  176.4370  145.9450 C   0  0  0  0  0  0  0  0  0  0  0  0
  184.7870  178.8980  143.5970 C   0  0  0  0  0  3  0  0  0  0  0  0
  188.8360  177.0540  144.1250 C   0  0  0  0  0  3  0  0  0  0  0  0
  192.8540  176.7620  146.1370 N   0  0  0  0  0  2  0  0  0  0  0  0
  191.7840  174.9450  147.1470 O   0  0  0  0  0  0  0  0  0  0  0  0
  191.6820  176.0030  146.4600 C   0  0  0  0  0  0  0  0  0  0  0  0
  194.1700  176.3830  146.6230 C   0  0  0  0  0  2  0  0  0  0  0  0
  194.8110  175.4160  145.6530 C   0  0  0  0  0  2  0  0  0  0  0  0
  195.1920  176.1550  144.3890 C   0  0  0  0  0  2  0  0  0  0  0  0
  196.4700  175.7690  143.9940 O   0  0  0  0  0  0  0  0  0  0  0  0
  196.9150  176.8160  143.1840 C   0  0  0  0  0  1  0  0  0  0  0  0
  191.8930  176.9070  142.8790 C   0  0  0  0  0  1  0  0  0  0  0  0
  190.9710  176.0000  143.5520 N   0  0  0  0  0  0  0  0  0  0  0  0
  191.2260  174.5730  143.4240 C   0  0  0  0  0  2  0  0  0  0  0  0
  189.9420  173.7910  143.6610 C   0  0  0  0  0  2  0  0  0  0  0  0
  189.2900  173.4560  142.4010 N   0  0  0  0  0  0  0  0  0  0  0  0
  189.0290  173.8610  138.1130 C   0  0  0  0  0  1  0  0  0  0  0  0
  188.4370  174.5560  140.3690 C   0  0  0  0  0  3  0  0  0  0  0  0
  189.9450  171.4520  139.4220 O   0  0  0  0  0  0  0  0  0  0  0  0
  188.9720  173.6200  139.5810 C   0  0  0  0  0  0  0  0  0  0  0  0
  188.2770  174.3590  141.8510 C   0  0  0  0  0  2  0  0  0  0  0  0
  189.7280  172.3260  141.6220 C   0  0  0  0  0  0  0  0  0  0  0  0
  190.5250  171.0630  142.3170 S   0  0  0  0  0  0  0  0  0  0  0  0
  189.5580  172.3970  140.1640 C   0  0  0  0  0  0  0  0  0  0  0  0
  2  6  1  0  0  0  0
  2  4  1  0  0  0  0
  3 11  1  0  0  0  0
  4  8  1  0  0  0  0
  5  9  1  0  0  0  0
  6 10  2  0  0  0  0
  7  2  2  0  0  0  0
  9  4  2  0  0  0  0
 10  1  1  0  0  0  0
 10  8  1  0  0  0  0
 11 16  1  0  0  0  0
 11  1  2  0  0  0  0
 12  7  1  0  0  0  0
 12  5  2  0  0  0  0
 13  3  2  0  0  0  0
 13  6  1  0  0  0  0
 14 16  1  0  0  0  0
 14 17  1  0  0  0  0
 16 15  2  0  0  0  0
 18 17  1  0  0  0  0
 19 18  1  0  0  0  0
 20 19  1  0  0  0  0
 21 20  1  0  0  0  0
 22 23  1  0  0  0  0
 23  3  1  0  0  0  0
 24 23  1  0  0  0  0
 24 25  1  0  0  0  0
 26 25  1  0  0  0  0
 27 30  1  0  0  0  0
 28 31  1  0  0  0  0
 29 34  2  0  0  0  0
 30 34  1  0  0  0  0
 30 28  2  0  0  0  0
 31 26  1  0  0  0  0
 32 33  2  0  0  0  0
 32 26  1  0  0  0  0
 34 32  1  0  0  0  0
M  END
>  <MODEL>
2

>  <REMARK>
 VINA RESULT:      -6.6      2.606      7.577
  Name = 
  9 active torsions:
  status: ('A' for Active; 'I' for Inactive)
    1  A    between atoms: N_1  and  C_26
    2  A    between atoms: C_2  and  C_9
    3  A    between atoms: C_2  and  C_28
    4  A    between atoms: N_8  and  C_28
    5  A    between atoms: C_9  and  O_24
    6  A    between atoms: C_12  and  C_26
    7  A    between atoms: C_12  and  N_29
    8  A    between atoms: C_16  and  N_29
    9  A    between atoms: C_22  and  C_31
                            x       y       z     vdW  Elec       q    Type
                         _______ _______ _______ _____ _____    ______ ____

>  <TORSDO>
F 9

$$$$
=
 OpenBabel11042416093D

 34 37  0  0  0  0  0  0  0  0999 V2000
  189.1340  177.2130  142.7840 C   0  0  0  0  0  3  0  0  0  0  0  0
  186.3210  177.4790  145.0570 C   0  0  0  0  0  0  0  0  0  0  0  0
  189.5090  175.5710  144.5670 C   0  0  0  0  0  0  0  0  0  0  0  0
  185.8270  178.4890  144.2460 C   0  0  0  0  0  0  0  0  0  0  0  0
  183.9340  178.7590  145.6120 C   0  0  0  0  0  3  0  0  0  0  0  0
  187.5350  176.9710  144.5930 C   0  0  0  0  0  0  0  0  0  0  0  0
  185.6010  177.0810  146.1840 C   0  0  0  0  0  3  0  0  0  0  0  0
  186.8620  178.7840  142.9470 S   0  0  0  0  0  0  0  0  0  0  0  0
  184.6590  179.1250  144.5140 N   0  0  0  0  0  0  0  0  0  0  0  0
  187.9620  177.5930  143.4280 C   0  0  0  0  0  0  0  0  0  0  0  0
  189.9140  176.1810  143.3390 C   0  0  0  0  0  0  0  0  0  0  0  0
  184.3900  177.7340  146.4620 C   0  0  0  0  0  3  0  0  0  0  0  0
  188.3010  175.9640  145.1770 C   0  0  0  0  0  3  0  0  0  0  0  0
  192.4000  176.1940  142.9440 N   0  0  0  0  0  2  0  0  0  0  0  0
  190.9580  174.9720  141.5690 O   0  0  0  0  0  0  0  0  0  0  0  0
  191.0960  175.7300  142.5720 C   0  0  0  0  0  0  0  0  0  0  0  0
  193.5940  175.7760  142.2290 C   0  0  0  0  0  2  0  0  0  0  0  0
  194.8070  175.9680  143.1100 C   0  0  0  0  0  2  0  0  0  0  0  0
  194.5850  175.2590  144.4280 C   0  0  0  0  0  2  0  0  0  0  0  0
  195.3180  175.8940  145.4260 O   0  0  0  0  0  0  0  0  0  0  0  0
  194.5150  176.9660  145.8180 C   0  0  0  0  0  1  0  0  0  0  0  0
  191.3100  174.9990  146.2150 C   0  0  0  0  0  1  0  0  0  0  0  0
  190.3220  174.5840  145.2270 N   0  0  0  0  0  0  0  0  0  0  0  0
  189.9730  173.1720  145.1860 C   0  0  0  0  0  2  0  0  0  0  0  0
  190.8450  172.4480  144.1700 C   0  0  0  0  0  2  0  0  0  0  0  0
  190.0720  172.0500  143.0010 N   0  0  0  0  0  0  0  0  0  0  0  0
  188.3460  173.0160  139.1650 C   0  0  0  0  0  1  0  0  0  0  0  0
  188.2260  172.8730  141.5920 C   0  0  0  0  0  3  0  0  0  0  0  0
  190.6310  171.2720  139.4790 O   0  0  0  0  0  0  0  0  0  0  0  0
  188.8630  172.5220  140.4710 C   0  0  0  0  0  0  0  0  0  0  0  0
  188.6410  172.3590  142.9420 C   0  0  0  0  0  2  0  0  0  0  0  0
  190.7210  171.4860  141.8450 C   0  0  0  0  0  0  0  0  0  0  0  0
  192.1840  170.7390  141.9630 S   0  0  0  0  0  0  0  0  0  0  0  0
  190.0980  171.7160  140.5330 C   0  0  0  0  0  0  0  0  0  0  0  0
  1 11  2  0  0  0  0
  1 10  1  0  0  0  0
  2  7  1  0  0  0  0
  3 13  2  0  0  0  0
  3 23  1  0  0  0  0
  4  9  1  0  0  0  0
  4  2  2  0  0  0  0
  5 12  1  0  0  0  0
  6  2  1  0  0  0  0
  6 13  1  0  0  0  0
  7 12  2  0  0  0  0
  8 10  1  0  0  0  0
  8  4  1  0  0  0  0
  9  5  2  0  0  0  0
 10  6  2  0  0  0  0
 11  3  1  0  0  0  0
 15 16  2  0  0  0  0
 16 14  1  0  0  0  0
 16 11  1  0  0  0  0
 17 14  1  0  0  0  0
 17 18  1  0  0  0  0
 18 19  1  0  0  0  0
 19 20  1  0  0  0  0
 20 21  1  0  0  0  0
 23 22  1  0  0  0  0
 24 23  1  0  0  0  0
 25 24  1  0  0  0  0
 26 25  1  0  0  0  0
 27 30  1  0  0  0  0
 28 31  1  0  0  0  0
 29 34  2  0  0  0  0
 30 34  1  0  0  0  0
 30 28  2  0  0  0  0
 31 26  1  0  0  0  0
 32 33  2  0  0  0  0
 32 26  1  0  0  0  0
 34 32  1  0  0  0  0
M  END
>  <MODEL>
3

>  <REMARK>
 VINA RESULT:      -6.5      2.505      7.186
  Name = 
  9 active torsions:
  status: ('A' for Active; 'I' for Inactive)
    1  A    between atoms: N_1  and  C_26
    2  A    between atoms: C_2  and  C_9
    3  A    between atoms: C_2  and  C_28
    4  A    between atoms: N_8  and  C_28
    5  A    between atoms: C_9  and  O_24
    6  A    between atoms: C_12  and  C_26
    7  A    between atoms: C_12  and  N_29
    8  A    between atoms: C_16  and  N_29
    9  A    between atoms: C_22  and  C_31
                            x       y       z     vdW  Elec       q    Type
                         _______ _______ _______ _____ _____    ______ ____

>  <TORSDO>
F 9

$$$$
=
 OpenBabel11042416093D

 34 37  0  0  0  0  0  0  0  0999 V2000
  188.9900  175.6140  146.5800 C   0  0  0  0  0  3  0  0  0  0  0  0
  186.5850  177.8780  145.0840 C   0  0  0  0  0  0  0  0  0  0  0  0
  189.8860  176.2460  144.3860 C   0  0  0  0  0  0  0  0  0  0  0  0
  185.8050  177.7170  146.2180 C   0  0  0  0  0  0  0  0  0  0  0  0
  184.1690  179.1860  145.3900 C   0  0  0  0  0  3  0  0  0  0  0  0
  187.7620  177.1300  145.1370 C   0  0  0  0  0  0  0  0  0  0  0  0
  186.1560  178.7260  144.0630 C   0  0  0  0  0  3  0  0  0  0  0  0
  186.5330  176.6560  147.3090 S   0  0  0  0  0  0  0  0  0  0  0  0
  184.6160  178.3510  146.3740 N   0  0  0  0  0  0  0  0  0  0  0  0
  187.8760  176.4010  146.3140 C   0  0  0  0  0  0  0  0  0  0  0  0
  190.0200  175.5410  145.6230 C   0  0  0  0  0  0  0  0  0  0  0  0
  184.9290  179.3890  144.2220 C   0  0  0  0  0  3  0  0  0  0  0  0
  188.7540  177.0560  144.1630 C   0  0  0  0  0  3  0  0  0  0  0  0
  191.7130  173.7510  145.1080 N   0  0  0  0  0  2  0  0  0  0  0  0
  191.8320  175.0060  147.0770 O   0  0  0  0  0  0  0  0  0  0  0  0
  191.2370  174.7800  145.9830 C   0  0  0  0  0  0  0  0  0  0  0  0
  192.9060  172.9790  145.4110 C   0  0  0  0  0  2  0  0  0  0  0  0
  193.3260  172.1920  144.1910 C   0  0  0  0  0  2  0  0  0  0  0  0
  194.6020  171.4390  144.4960 C   0  0  0  0  0  2  0  0  0  0  0  0
  194.5200  170.8840  145.7710 O   0  0  0  0  0  0  0  0  0  0  0  0
  194.5660  169.5060  145.5540 C   0  0  0  0  0  1  0  0  0  0  0  0
  190.5030  175.4670  142.0830 C   0  0  0  0  0  1  0  0  0  0  0  0
  190.8620  176.1240  143.3340 N   0  0  0  0  0  0  0  0  0  0  0  0
  192.0840  176.9130  143.3480 C   0  0  0  0  0  2  0  0  0  0  0  0
  193.1800  176.1890  142.5790 C   0  0  0  0  0  2  0  0  0  0  0  0
  194.3960  176.0790  143.3760 N   0  0  0  0  0  0  0  0  0  0  0  0
  196.8290  173.8820  146.1820 C   0  0  0  0  0  1  0  0  0  0  0  0
  195.1030  175.5190  145.6680 C   0  0  0  0  0  3  0  0  0  0  0  0
  197.5040  174.1650  143.3860 O   0  0  0  0  0  0  0  0  0  0  0  0
  196.1150  174.7680  145.2230 C   0  0  0  0  0  0  0  0  0  0  0  0
  194.3780  176.4920  144.7810 C   0  0  0  0  0  2  0  0  0  0  0  0
  195.5710  175.4390  142.8430 C   0  0  0  0  0  0  0  0  0  0  0  0
  195.8260  175.3310  141.2190 S   0  0  0  0  0  0  0  0  0  0  0  0
  196.4720  174.7680  143.7910 C   0  0  0  0  0  0  0  0  0  0  0  0
  2  6  1  0  0  0  0
  2  4  1  0  0  0  0
  3 11  1  0  0  0  0
  4  9  2  0  0  0  0
  4  8  1  0  0  0  0
  5  9  1  0  0  0  0
  6 10  2  0  0  0  0
  7 12  1  0  0  0  0
  7  2  2  0  0  0  0
 10  1  1  0  0  0  0
 10  8  1  0  0  0  0
 11 16  1  0  0  0  0
 11  1  2  0  0  0  0
 12  5  2  0  0  0  0
 13  3  2  0  0  0  0
 13  6  1  0  0  0  0
 14 17  1  0  0  0  0
 14 16  1  0  0  0  0
 16 15  2  0  0  0  0
 18 19  1  0  0  0  0
 18 17  1  0  0  0  0
 19 20  1  0  0  0  0
 21 20  1  0  0  0  0
 22 23  1  0  0  0  0
 23 24  1  0  0  0  0
 23  3  1  0  0  0  0
 25 24  1  0  0  0  0
 25 26  1  0  0  0  0
 26 31  1  0  0  0  0
 29 34  2  0  0  0  0
 30 28  2  0  0  0  0
 30 27  1  0  0  0  0
 31 28  1  0  0  0  0
 32 26  1  0  0  0  0
 32 34  1  0  0  0  0
 33 32  2  0  0  0  0
 34 30  1  0  0  0  0
M  END
>  <MODEL>
4

>  <REMARK>
 VINA RESULT:      -6.4      3.191      6.873
  Name = 
  9 active torsions:
  status: ('A' for Active; 'I' for Inactive)
    1  A    between atoms: N_1  and  C_26
    2  A    between atoms: C_2  and  C_9
    3  A    between atoms: C_2  and  C_28
    4  A    between atoms: N_8  and  C_28
    5  A    between atoms: C_9  and  O_24
    6  A    between atoms: C_12  and  C_26
    7  A    between atoms: C_12  and  N_29
    8  A    between atoms: C_16  and  N_29
    9  A    between atoms: C_22  and  C_31
                            x       y       z     vdW  Elec       q    Type
                         _______ _______ _______ _____ _____    ______ ____

>  <TORSDO>
F 9

$$$$
=
 OpenBabel11042416093D

 34 37  0  0  0  0  0  0  0  0999 V2000
  187.8090  175.3140  141.5160 C   0  0  0  0  0  3  0  0  0  0  0  0
  190.8950  173.5020  140.9330 C   0  0  0  0  0  0  0  0  0  0  0  0
  189.5250  176.3760  142.9110 C   0  0  0  0  0  0  0  0  0  0  0  0
  190.1890  172.6800  140.0680 C   0  0  0  0  0  0  0  0  0  0  0  0
  192.1140  171.4280  139.5710 C   0  0  0  0  0  3  0  0  0  0  0  0
  190.0890  174.4830  141.5110 C   0  0  0  0  0  0  0  0  0  0  0  0
  192.2610  173.2940  141.1260 C   0  0  0  0  0  3  0  0  0  0  0  0
  188.5660  173.1320  139.9930 S   0  0  0  0  0  0  0  0  0  0  0  0
  190.7790  171.6580  139.4000 N   0  0  0  0  0  0  0  0  0  0  0  0
  188.7700  174.4080  141.0840 C   0  0  0  0  0  0  0  0  0  0  0  0
  188.1810  176.3230  142.4250 C   0  0  0  0  0  0  0  0  0  0  0  0
  192.8760  172.2400  140.4330 C   0  0  0  0  0  3  0  0  0  0  0  0
  190.4780  175.4560  142.4290 C   0  0  0  0  0  3  0  0  0  0  0  0
  186.0420  176.9540  143.5920 N   0  0  0  0  0  2  0  0  0  0  0  0
  187.2500  178.5160  142.3400 O   0  0  0  0  0  0  0  0  0  0  0  0
  187.1610  177.3340  142.7810 C   0  0  0  0  0  0  0  0  0  0  0  0
  185.0160  177.9080  143.9760 C   0  0  0  0  0  2  0  0  0  0  0  0
  184.8100  177.8590  145.4720 C   0  0  0  0  0  2  0  0  0  0  0  0
  185.5150  179.0340  146.1130 C   0  0  0  0  0  2  0  0  0  0  0  0
  186.5090  178.5680  146.9700 O   0  0  0  0  0  0  0  0  0  0  0  0
  185.9320  177.4660  147.6040 C   0  0  0  0  0  1  0  0  0  0  0  0
  190.8550  178.3970  143.5700 C   0  0  0  0  0  1  0  0  0  0  0  0
  189.9310  177.3230  143.9150 N   0  0  0  0  0  0  0  0  0  0  0  0
  189.2070  177.4440  145.1720 C   0  0  0  0  0  2  0  0  0  0  0  0
  190.1300  177.1270  146.3390 C   0  0  0  0  0  2  0  0  0  0  0  0
  190.5150  175.7200  146.3390 N   0  0  0  0  0  0  0  0  0  0  0  0
  191.0580  172.0030  144.2160 C   0  0  0  0  0  1  0  0  0  0  0  0
  189.7010  173.5440  145.5230 C   0  0  0  0  0  3  0  0  0  0  0  0
  193.2590  173.6290  145.1490 O   0  0  0  0  0  0  0  0  0  0  0  0
  190.9180  173.1960  145.0960 C   0  0  0  0  0  0  0  0  0  0  0  0
  189.4830  174.6900  146.4700 C   0  0  0  0  0  2  0  0  0  0  0  0
  191.8750  175.3290  146.0690 C   0  0  0  0  0  0  0  0  0  0  0  0
  193.1310  176.3640  146.3200 S   0  0  0  0  0  0  0  0  0  0  0  0
  192.0940  174.0200  145.4360 C   0  0  0  0  0  0  0  0  0  0  0  0
  1 11  1  0  0  0  0
  2  7  1  0  0  0  0
  2  6  1  0  0  0  0
  3 23  1  0  0  0  0
  4  2  2  0  0  0  0
  5 12  1  0  0  0  0
  6 13  2  0  0  0  0
  8  4  1  0  0  0  0
  8 10  1  0  0  0  0
  9  5  2  0  0  0  0
  9  4  1  0  0  0  0
 10  6  1  0  0  0  0
 10  1  2  0  0  0  0
 11 16  1  0  0  0  0
 11  3  2  0  0  0  0
 12  7  2  0  0  0  0
 13  3  1  0  0  0  0
 14 17  1  0  0  0  0
 15 16  2  0  0  0  0
 16 14  1  0  0  0  0
 17 18  1  0  0  0  0
 18 19  1  0  0  0  0
 19 20  1  0  0  0  0
 20 21  1  0  0  0  0
 22 23  1  0  0  0  0
 23 24  1  0  0  0  0
 24 25  1  0  0  0  0
 25 26  1  0  0  0  0
 26 31  1  0  0  0  0
 27 30  1  0  0  0  0
 28 31  1  0  0  0  0
 29 34  2  0  0  0  0
 30 34  1  0  0  0  0
 30 28  2  0  0  0  0
 32 33  2  0  0  0  0
 32 26  1  0  0  0  0
 34 32  1  0  0  0  0
M  END
>  <MODEL>
5

>  <REMARK>
 VINA RESULT:      -6.4      2.151      3.159
  Name = 
  9 active torsions:
  status: ('A' for Active; 'I' for Inactive)
    1  A    between atoms: N_1  and  C_26
    2  A    between atoms: C_2  and  C_9
    3  A    between atoms: C_2  and  C_28
    4  A    between atoms: N_8  and  C_28
    5  A    between atoms: C_9  and  O_24
    6  A    between atoms: C_12  and  C_26
    7  A    between atoms: C_12  and  N_29
    8  A    between atoms: C_16  and  N_29
    9  A    between atoms: C_22  and  C_31
                            x       y       z     vdW  Elec       q    Type
                         _______ _______ _______ _____ _____    ______ ____

>  <TORSDO>
F 9

$$$$
=
 OpenBabel11042416093D

 34 37  0  0  0  0  0  0  0  0999 V2000
  189.6290  176.9580  146.0260 C   0  0  0  0  0  3  0  0  0  0  0  0
  192.8660  176.0000  144.7030 C   0  0  0  0  0  0  0  0  0  0  0  0
  189.3800  176.8120  143.5900 C   0  0  0  0  0  0  0  0  0  0  0  0
  193.3440  176.0100  146.0040 C   0  0  0  0  0  0  0  0  0  0  0  0
  195.4900  175.3650  145.2980 C   0  0  0  0  0  3  0  0  0  0  0  0
  191.5170  176.3490  144.6290 C   0  0  0  0  0  0  0  0  0  0  0  0
  193.7190  175.6550  143.6540 C   0  0  0  0  0  3  0  0  0  0  0  0
  192.1300  176.4470  147.0910 S   0  0  0  0  0  0  0  0  0  0  0  0
  194.6310  175.7050  146.3040 N   0  0  0  0  0  0  0  0  0  0  0  0
  190.9690  176.6220  145.8750 C   0  0  0  0  0  0  0  0  0  0  0  0
  188.8120  177.0400  144.8830 C   0  0  0  0  0  0  0  0  0  0  0  0
  195.0500  175.3330  143.9610 C   0  0  0  0  0  3  0  0  0  0  0  0
  190.7370  176.4470  143.4790 C   0  0  0  0  0  3  0  0  0  0  0  0
  186.8590  178.6270  144.9500 N   0  0  0  0  0  2  0  0  0  0  0  0
  186.5940  176.3540  145.4260 O   0  0  0  0  0  0  0  0  0  0  0  0
  187.3690  177.2950  145.0890 C   0  0  0  0  0  0  0  0  0  0  0  0
  185.4500  178.9310  145.1360 C   0  0  0  0  0  2  0  0  0  0  0  0
  184.8680  179.4500  143.8410 C   0  0  0  0  0  2  0  0  0  0  0  0
  184.1530  178.3240  143.1270 C   0  0  0  0  0  2  0  0  0  0  0  0
  185.0220  177.7240  142.2190 O   0  0  0  0  0  0  0  0  0  0  0  0
  184.6800  178.2860  140.9880 C   0  0  0  0  0  1  0  0  0  0  0  0
  188.5070  178.3010  141.7710 C   0  0  0  0  0  1  0  0  0  0  0  0
  188.6140  176.9820  142.3840 N   0  0  0  0  0  0  0  0  0  0  0  0
  188.2130  175.8380  141.5800 C   0  0  0  0  0  2  0  0  0  0  0  0
  187.9660  174.6320  142.4750 C   0  0  0  0  0  2  0  0  0  0  0  0
  188.5470  173.4240  141.9030 N   0  0  0  0  0  0  0  0  0  0  0  0
  191.5670  171.5270  139.4740 C   0  0  0  0  0  1  0  0  0  0  0  0
  189.3880  172.5740  139.7490 C   0  0  0  0  0  3  0  0  0  0  0  0
  191.4930  171.3180  142.3560 O   0  0  0  0  0  0  0  0  0  0  0  0
  190.4540  172.0180  140.3310 C   0  0  0  0  0  0  0  0  0  0  0  0
  188.1910  173.0290  140.5380 C   0  0  0  0  0  2  0  0  0  0  0  0
  189.5700  172.6940  142.6060 C   0  0  0  0  0  0  0  0  0  0  0  0
  189.7270  172.7990  144.2420 S   0  0  0  0  0  0  0  0  0  0  0  0
  190.5550  171.9550  141.8030 C   0  0  0  0  0  0  0  0  0  0  0  0
  2  4  1  0  0  0  0
  3 11  1  0  0  0  0
  4  9  2  0  0  0  0
  4  8  1  0  0  0  0
  5  9  1  0  0  0  0
  6  2  1  0  0  0  0
  6 10  2  0  0  0  0
  7 12  1  0  0  0  0
  7  2  2  0  0  0  0
 10  1  1  0  0  0  0
 10  8  1  0  0  0  0
 11 16  1  0  0  0  0
 11  1  2  0  0  0  0
 12  5  2  0  0  0  0
 13  3  2  0  0  0  0
 13  6  1  0  0  0  0
 14 16  1  0  0  0  0
 14 17  1  0  0  0  0
 16 15  2  0  0  0  0
 18 17  1  0  0  0  0
 19 18  1  0  0  0  0
 20 19  1  0  0  0  0
 21 20  1  0  0  0  0
 22 23  1  0  0  0  0
 23  3  1  0  0  0  0
 24 23  1  0  0  0  0
 24 25  1  0  0  0  0
 26 25  1  0  0  0  0
 26 32  1  0  0  0  0
 27 30  1  0  0  0  0
 28 30  2  0  0  0  0
 28 31  1  0  0  0  0
 30 34  1  0  0  0  0
 31 26  1  0  0  0  0
 32 33  2  0  0  0  0
 34 29  2  0  0  0  0
 34 32  1  0  0  0  0
M  END
>  <MODEL>
6

>  <REMARK>
 VINA RESULT:      -6.4      2.100      5.453
  Name = 
  9 active torsions:
  status: ('A' for Active; 'I' for Inactive)
    1  A    between atoms: N_1  and  C_26
    2  A    between atoms: C_2  and  C_9
    3  A    between atoms: C_2  and  C_28
    4  A    between atoms: N_8  and  C_28
    5  A    between atoms: C_9  and  O_24
    6  A    between atoms: C_12  and  C_26
    7  A    between atoms: C_12  and  N_29
    8  A    between atoms: C_16  and  N_29
    9  A    between atoms: C_22  and  C_31
                            x       y       z     vdW  Elec       q    Type
                         _______ _______ _______ _____ _____    ______ ____

>  <TORSDO>
F 9

$$$$
=
 OpenBabel11042416093D

 34 37  0  0  0  0  0  0  0  0999 V2000
  189.4770  174.4950  145.9410 C   0  0  0  0  0  3  0  0  0  0  0  0
  187.2870  177.1980  144.9170 C   0  0  0  0  0  0  0  0  0  0  0  0
  189.5710  174.5900  143.4910 C   0  0  0  0  0  0  0  0  0  0  0  0
  186.9950  177.4010  146.2560 C   0  0  0  0  0  0  0  0  0  0  0  0
  185.5620  179.1920  145.7480 C   0  0  0  0  0  3  0  0  0  0  0  0
  188.1800  176.1430  144.7200 C   0  0  0  0  0  0  0  0  0  0  0  0
  186.7090  178.0200  143.9490 C   0  0  0  0  0  3  0  0  0  0  0  0
  187.8170  176.2950  147.2290 S   0  0  0  0  0  0  0  0  0  0  0  0
  186.1460  178.3730  146.6720 N   0  0  0  0  0  0  0  0  0  0  0  0
  188.5670  175.5450  145.9120 C   0  0  0  0  0  0  0  0  0  0  0  0
  190.0050  174.0150  144.7270 C   0  0  0  0  0  0  0  0  0  0  0  0
  185.8340  179.0320  144.3760 C   0  0  0  0  0  3  0  0  0  0  0  0
  188.6670  175.6720  143.5040 C   0  0  0  0  0  3  0  0  0  0  0  0
  192.4160  173.3480  145.0050 N   0  0  0  0  0  2  0  0  0  0  0  0
  190.7470  171.7510  144.6450 O   0  0  0  0  0  0  0  0  0  0  0  0
  191.0490  172.9700  144.8010 C   0  0  0  0  0  0  0  0  0  0  0  0
  193.4790  172.3620  145.0920 C   0  0  0  0  0  2  0  0  0  0  0  0
  194.7370  173.0150  145.6160 C   0  0  0  0  0  2  0  0  0  0  0  0
  195.9400  172.4070  144.9290 C   0  0  0  0  0  2  0  0  0  0  0  0
  197.0560  172.5290  145.7530 O   0  0  0  0  0  0  0  0  0  0  0  0
  196.9090  173.7810  146.3530 C   0  0  0  0  0  1  0  0  0  0  0  0
  189.3090  172.9330  141.6280 C   0  0  0  0  0  1  0  0  0  0  0  0
  190.0020  174.0700  142.2210 N   0  0  0  0  0  0  0  0  0  0  0  0
  190.8900  174.8340  141.3580 C   0  0  0  0  0  2  0  0  0  0  0  0
  192.3380  174.4570  141.6330 C   0  0  0  0  0  2  0  0  0  0  0  0
  193.0250  175.5080  142.3740 N   0  0  0  0  0  0  0  0  0  0  0  0
  194.5590  177.0520  146.1000 C   0  0  0  0  0  1  0  0  0  0  0  0
  192.7880  176.8160  144.4480 C   0  0  0  0  0  3  0  0  0  0  0  0
  196.2560  176.0720  143.9750 O   0  0  0  0  0  0  0  0  0  0  0  0
  194.0830  176.6740  144.7410 C   0  0  0  0  0  0  0  0  0  0  0  0
  192.2400  176.5250  143.0780 C   0  0  0  0  0  2  0  0  0  0  0  0
  194.4560  175.4780  142.5400 C   0  0  0  0  0  0  0  0  0  0  0  0
  195.4240  174.6630  141.4860 S   0  0  0  0  0  0  0  0  0  0  0  0
  195.0130  176.0880  143.7560 C   0  0  0  0  0  0  0  0  0  0  0  0
  2  4  1  0  0  0  0
  3 13  2  0  0  0  0
  3 11  1  0  0  0  0
  4  9  2  0  0  0  0
  4  8  1  0  0  0  0
  5  9  1  0  0  0  0
  6  2  1  0  0  0  0
  6 10  2  0  0  0  0
  7 12  1  0  0  0  0
  7  2  2  0  0  0  0
 10  1  1  0  0  0  0
 10  8  1  0  0  0  0
 11 16  1  0  0  0  0
 11  1  2  0  0  0  0
 12  5  2  0  0  0  0
 13  6  1  0  0  0  0
 14 17  1  0  0  0  0
 15 16  2  0  0  0  0
 16 14  1  0  0  0  0
 17 18  1  0  0  0  0
 19 18  1  0  0  0  0
 19 20  1  0  0  0  0
 20 21  1  0  0  0  0
 22 23  1  0  0  0  0
 23  3  1  0  0  0  0
 24 25  1  0  0  0  0
 24 23  1  0  0  0  0
 25 26  1  0  0  0  0
 26 32  1  0  0  0  0
 26 31  1  0  0  0  0
 28 30  2  0  0  0  0
 30 27  1  0  0  0  0
 31 28  1  0  0  0  0
 32 34  1  0  0  0  0
 33 32  2  0  0  0  0
 34 29  2  0  0  0  0
 34 30  1  0  0  0  0
M  END
>  <MODEL>
7

>  <REMARK>
 VINA RESULT:      -6.4      2.968      7.009
  Name = 
  9 active torsions:
  status: ('A' for Active; 'I' for Inactive)
    1  A    between atoms: N_1  and  C_26
    2  A    between atoms: C_2  and  C_9
    3  A    between atoms: C_2  and  C_28
    4  A    between atoms: N_8  and  C_28
    5  A    between atoms: C_9  and  O_24
    6  A    between atoms: C_12  and  C_26
    7  A    between atoms: C_12  and  N_29
    8  A    between atoms: C_16  and  N_29
    9  A    between atoms: C_22  and  C_31
                            x       y       z     vdW  Elec       q    Type
                         _______ _______ _______ _____ _____    ______ ____

>  <TORSDO>
F 9

$$$$
=
 OpenBabel11042416093D

 34 37  0  0  0  0  0  0  0  0999 V2000
  187.1230  175.6040  142.4100 C   0  0  0  0  0  3  0  0  0  0  0  0
  186.9260  177.3150  145.6020 C   0  0  0  0  0  0  0  0  0  0  0  0
  189.1050  174.9370  143.6920 C   0  0  0  0  0  0  0  0  0  0  0  0
  185.7490  177.8970  145.1600 C   0  0  0  0  0  0  0  0  0  0  0  0
  185.4730  179.0520  147.1870 C   0  0  0  0  0  3  0  0  0  0  0  0
  187.4950  176.4720  144.6460 C   0  0  0  0  0  0  0  0  0  0  0  0
  187.4010  177.5970  146.8830 C   0  0  0  0  0  3  0  0  0  0  0  0
  185.3780  177.3970  143.5920 S   0  0  0  0  0  0  0  0  0  0  0  0
  185.0330  178.7540  145.9290 N   0  0  0  0  0  0  0  0  0  0  0  0
  186.7480  176.4120  143.4770 C   0  0  0  0  0  0  0  0  0  0  0  0
  188.3010  174.8410  142.5130 C   0  0  0  0  0  0  0  0  0  0  0  0
  186.6600  178.4790  147.6850 C   0  0  0  0  0  3  0  0  0  0  0  0
  188.6770  175.7460  144.7640 C   0  0  0  0  0  3  0  0  0  0  0  0
  189.0530  174.4370  140.1450 N   0  0  0  0  0  2  0  0  0  0  0  0
  188.4560  172.6660  141.5490 O   0  0  0  0  0  0  0  0  0  0  0  0
  188.6130  173.9130  141.4040 C   0  0  0  0  0  0  0  0  0  0  0  0
  189.3790  173.5700  139.0260 C   0  0  0  0  0  2  0  0  0  0  0  0
  188.1920  173.4720  138.0950 C   0  0  0  0  0  2  0  0  0  0  0  0
  188.1650  174.6850  137.1910 C   0  0  0  0  0  2  0  0  0  0  0  0
  187.0660  175.4770  137.5110 O   0  0  0  0  0  0  0  0  0  0  0  0
  186.6810  176.0460  136.2950 C   0  0  0  0  0  1  0  0  0  0  0  0
  190.4680  173.0370  144.5980 C   0  0  0  0  0  1  0  0  0  0  0  0
  190.3680  174.2560  143.8050 N   0  0  0  0  0  0  0  0  0  0  0  0
  191.4670  174.5550  142.9000 C   0  0  0  0  0  2  0  0  0  0  0  0
  191.9060  176.0020  143.0720 C   0  0  0  0  0  2  0  0  0  0  0  0
  193.1240  176.0920  143.8670 N   0  0  0  0  0  0  0  0  0  0  0  0
  196.2470  174.1640  146.1360 C   0  0  0  0  0  1  0  0  0  0  0  0
  194.0670  175.2330  145.9750 C   0  0  0  0  0  3  0  0  0  0  0  0
  196.6800  175.3410  143.5320 O   0  0  0  0  0  0  0  0  0  0  0  0
  195.2470  174.9840  145.4000 C   0  0  0  0  0  0  0  0  0  0  0  0
  193.0320  176.1110  145.3290 C   0  0  0  0  0  2  0  0  0  0  0  0
  194.4200  176.0190  143.2420 C   0  0  0  0  0  0  0  0  0  0  0  0
  194.6290  176.4100  141.6560 S   0  0  0  0  0  0  0  0  0  0  0  0
  195.5270  175.4580  144.0300 C   0  0  0  0  0  0  0  0  0  0  0  0
  1 11  2  0  0  0  0
  1 10  1  0  0  0  0
  2  7  1  0  0  0  0
  3 23  1  0  0  0  0
  3 13  2  0  0  0  0
  4  2  2  0  0  0  0
  4  9  1  0  0  0  0
  5 12  1  0  0  0  0
  6 13  1  0  0  0  0
  6  2  1  0  0  0  0
  7 12  2  0  0  0  0
  8  4  1  0  0  0  0
  9  5  2  0  0  0  0
 10  8  1  0  0  0  0
 10  6  2  0  0  0  0
 11  3  1  0  0  0  0
 14 16  1  0  0  0  0
 16 15  2  0  0  0  0
 16 11  1  0  0  0  0
 17 14  1  0  0  0  0
 18 17  1  0  0  0  0
 19 20  1  0  0  0  0
 19 18  1  0  0  0  0
 21 20  1  0  0  0  0
 23 22  1  0  0  0  0
 24 25  1  0  0  0  0
 24 23  1  0  0  0  0
 25 26  1  0  0  0  0
 26 31  1  0  0  0  0
 29 34  2  0  0  0  0
 30 28  2  0  0  0  0
 30 27  1  0  0  0  0
 31 28  1  0  0  0  0
 32 26  1  0  0  0  0
 32 34  1  0  0  0  0
 33 32  2  0  0  0  0
 34 30  1  0  0  0  0
M  END
>  <MODEL>
8

>  <REMARK>
 VINA RESULT:      -6.3      2.835      5.856
  Name = 
  9 active torsions:
  status: ('A' for Active; 'I' for Inactive)
    1  A    between atoms: N_1  and  C_26
    2  A    between atoms: C_2  and  C_9
    3  A    between atoms: C_2  and  C_28
    4  A    between atoms: N_8  and  C_28
    5  A    between atoms: C_9  and  O_24
    6  A    between atoms: C_12  and  C_26
    7  A    between atoms: C_12  and  N_29
    8  A    between atoms: C_16  and  N_29
    9  A    between atoms: C_22  and  C_31
                            x       y       z     vdW  Elec       q    Type
                         _______ _______ _______ _____ _____    ______ ____

>  <TORSDO>
F 9

$$$$
=
 OpenBabel11042416093D

 34 37  0  0  0  0  0  0  0  0999 V2000
  189.3760  174.3140  142.6910 C   0  0  0  0  0  3  0  0  0  0  0  0
  187.0090  177.0510  142.9190 C   0  0  0  0  0  0  0  0  0  0  0  0
  189.3640  175.0410  145.0330 C   0  0  0  0  0  0  0  0  0  0  0  0
  186.7940  176.9120  141.5580 C   0  0  0  0  0  0  0  0  0  0  0  0
  185.2160  178.6520  141.5550 C   0  0  0  0  0  3  0  0  0  0  0  0
  187.9510  176.1430  143.4050 C   0  0  0  0  0  0  0  0  0  0  0  0
  186.3030  178.0170  143.6370 C   0  0  0  0  0  3  0  0  0  0  0  0
  187.7500  175.6790  140.9170 S   0  0  0  0  0  0  0  0  0  0  0  0
  185.9200  177.6960  140.8800 N   0  0  0  0  0  0  0  0  0  0  0  0
  188.4500  175.3110  142.4110 C   0  0  0  0  0  0  0  0  0  0  0  0
  189.8320  174.1550  144.0130 C   0  0  0  0  0  0  0  0  0  0  0  0
  185.3940  178.8280  142.9410 C   0  0  0  0  0  3  0  0  0  0  0  0
  188.4030  176.0240  144.7170 C   0  0  0  0  0  3  0  0  0  0  0  0
  192.1100  173.0910  143.8980 N   0  0  0  0  0  2  0  0  0  0  0  0
  190.2910  171.9680  144.8420 O   0  0  0  0  0  0  0  0  0  0  0  0
  190.7350  173.0170  144.2940 C   0  0  0  0  0  0  0  0  0  0  0  0
  193.0410  172.0050  144.1560 C   0  0  0  0  0  2  0  0  0  0  0  0
  193.7840  172.2680  145.4450 C   0  0  0  0  0  2  0  0  0  0  0  0
  194.6590  171.0770  145.7690 C   0  0  0  0  0  2  0  0  0  0  0  0
  195.9820  171.4930  145.8900 O   0  0  0  0  0  0  0  0  0  0  0  0
  196.6280  170.9230  144.7910 C   0  0  0  0  0  1  0  0  0  0  0  0
  189.0460  174.4430  147.4470 C   0  0  0  0  0  1  0  0  0  0  0  0
  189.8740  174.9870  146.3780 N   0  0  0  0  0  0  0  0  0  0  0  0
  191.2940  175.1500  146.6500 C   0  0  0  0  0  2  0  0  0  0  0  0
  191.7210  176.5810  146.3550 C   0  0  0  0  0  2  0  0  0  0  0  0
  193.0110  176.6160  145.6780 N   0  0  0  0  0  0  0  0  0  0  0  0
  196.3330  174.5360  143.8720 C   0  0  0  0  0  1  0  0  0  0  0  0
  195.2280  175.5480  145.7900 C   0  0  0  0  0  3  0  0  0  0  0  0
  194.3780  176.0210  142.3460 O   0  0  0  0  0  0  0  0  0  0  0  0
  195.2780  175.4050  144.4630 C   0  0  0  0  0  0  0  0  0  0  0  0
  194.2410  176.4620  146.4600 C   0  0  0  0  0  2  0  0  0  0  0  0
  193.0890  176.6570  144.2400 C   0  0  0  0  0  0  0  0  0  0  0  0
  191.8430  177.2360  143.3310 S   0  0  0  0  0  0  0  0  0  0  0  0
  194.2620  176.0430  143.6030 C   0  0  0  0  0  0  0  0  0  0  0  0
  1 11  1  0  0  0  0
  2  6  1  0  0  0  0
  2  7  1  0  0  0  0
  3 23  1  0  0  0  0
  4  2  2  0  0  0  0
  5 12  1  0  0  0  0
  6 13  2  0  0  0  0
  8  4  1  0  0  0  0
  8 10  1  0  0  0  0
  9  5  2  0  0  0  0
  9  4  1  0  0  0  0
 10  1  2  0  0  0  0
 10  6  1  0  0  0  0
 11 16  1  0  0  0  0
 11  3  2  0  0  0  0
 12  7  2  0  0  0  0
 13  3  1  0  0  0  0
 14 17  1  0  0  0  0
 14 16  1  0  0  0  0
 16 15  2  0  0  0  0
 17 18  1  0  0  0  0
 18 19  1  0  0  0  0
 19 20  1  0  0  0  0
 21 20  1  0  0  0  0
 23 24  1  0  0  0  0
 23 22  1  0  0  0  0
 25 24  1  0  0  0  0
 26 25  1  0  0  0  0
 26 31  1  0  0  0  0
 27 30  1  0  0  0  0
 28 31  1  0  0  0  0
 29 34  2  0  0  0  0
 30 28  2  0  0  0  0
 32 26  1  0  0  0  0
 33 32  2  0  0  0  0
 34 32  1  0  0  0  0
 34 30  1  0  0  0  0
M  END
>  <MODEL>
9

>  <REMARK>
 VINA RESULT:      -6.3      2.583      6.133
  Name = 
  9 active torsions:
  status: ('A' for Active; 'I' for Inactive)
    1  A    between atoms: N_1  and  C_26
    2  A    between atoms: C_2  and  C_9
    3  A    between atoms: C_2  and  C_28
    4  A    between atoms: N_8  and  C_28
    5  A    between atoms: C_9  and  O_24
    6  A    between atoms: C_12  and  C_26
    7  A    between atoms: C_12  and  N_29
    8  A    between atoms: C_16  and  N_29
    9  A    between atoms: C_22  and  C_31
                            x       y       z     vdW  Elec       q    Type
                         _______ _______ _______ _____ _____    ______ ____

>  <TORSDO>
F 9

$$$$
