=
 OpenBabel11042419333D

 32 34  0  0  1  0  0  0  0  0999 V2000
  193.1410  175.2590  145.3210 C   0  0  0  0  0  2  0  0  0  0  0  0
  193.2610  174.8680  143.8590 C   0  0  1  0  0  3  0  0  0  0  0  0
  192.5780  173.5130  143.6200 C   0  0  0  0  0  2  0  0  0  0  0  0
  192.7090  175.9950  142.9720 C   0  0  0  0  0  2  0  0  0  0  0  0
  191.2930  175.6990  142.4850 C   0  0  0  0  0  2  0  0  0  0  0  0
  191.2580  174.4110  141.6490 C   0  0  1  0  0  3  0  0  0  0  0  0
  192.2300  173.3300  142.1450 C   0  0  0  0  0  2  0  0  0  0  0  0
  189.9060  173.8790  141.6270 N   0  0  0  0  0  2  0  0  0  0  0  0
  188.9330  174.8650  142.7240 S   0  0  0  0  0  0  0  0  0  0  0  0
  187.9430  175.5520  141.3570 C   0  0  0  0  0  2  0  0  0  0  0  0
  187.4040  178.0310  141.7520 C   0  0  0  0  0  2  0  0  0  0  0  0
  186.3180  177.5000  140.8340 C   0  0  2  0  0  0  0  0  0  0  0  0
  186.9480  176.5840  141.8700 C   0  0  1  0  0  0  0  0  0  0  0  0
  186.7530  177.3620  139.5140 O   0  0  0  0  0  1  0  0  0  0  0  0
  184.9550  178.1270  141.0690 C   0  0  0  0  0  1  0  0  0  0  0  0
  186.1400  176.2830  143.1210 C   0  0  0  0  0  1  0  0  0  0  0  0
  191.9900  174.6550  145.8920 O   0  0  0  0  0  0  0  0  0  0  0  0
  187.9340  176.4320  146.3030 C   0  0  0  0  0  0  0  0  0  0  0  0
  189.7370  174.7260  146.4190 N   0  0  0  0  0  0  0  0  0  0  0  0
  188.6590  177.3720  145.4310 C   0  0  0  0  0  3  0  0  0  0  0  0
  188.4320  175.2500  146.7130 C   0  0  0  0  0  3  0  0  0  0  0  0
  190.9160  176.8770  146.3600 C   0  0  2  0  0  3  0  0  0  0  0  0
  189.9780  177.5630  145.4240 C   0  0  0  0  0  3  0  0  0  0  0  0
  190.8420  175.3820  146.2150 C   0  0  0  0  0  0  0  0  0  0  0  0
  190.6680  177.2580  147.6840 O   0  0  0  0  0  0  0  0  0  0  0  0
  191.8190  176.8960  148.3880 C   0  0  0  0  0  1  0  0  0  0  0  0
  186.5800  176.7690  146.6270 N   0  0  0  0  0  2  0  0  0  0  0  0
  186.2440  177.6650  147.6540 N   0  0  0  0  0  2  0  0  0  0  0  0
  185.7230  178.8690  147.0260 C   0  0  0  0  0  2  0  0  0  0  0  0
  184.3350  178.6150  146.4610 C   0  0  0  0  0  2  0  0  0  0  0  0
  184.2930  178.8810  144.9640 C   0  0  0  0  0  2  0  0  0  0  0  0
  185.4920  179.7030  144.5320 C   0  0  0  0  0  1  0  0  0  0  0  0
  1 17  1  0  0  0  0
  2  1  1  1  0  0  0
  3  2  1  0  0  0  0
  4  2  1  0  0  0  0
  5  4  1  0  0  0  0
  6  8  1  1  0  0  0
  6  7  1  0  0  0  0
  6  5  1  0  0  0  0
  7  3  1  0  0  0  0
  8  9  1  0  0  0  0
 10 13  1  0  0  0  0
 10  9  1  0  0  0  0
 11 13  1  0  0  0  0
 12 15  1  1  0  0  0
 12 11  1  0  0  0  0
 12 13  1  0  0  0  0
 13 16  1  1  0  0  0
 14 12  1  0  0  0  0
 17 24  1  0  0  0  0
 18 27  1  0  0  0  0
 18 21  2  0  0  0  0
 19 21  1  0  0  0  0
 20 18  1  0  0  0  0
 22 25  1  1  0  0  0
 23 20  2  0  0  0  0
 23 22  1  0  0  0  0
 24 22  1  0  0  0  0
 24 19  2  0  0  0  0
 25 26  1  0  0  0  0
 27 28  1  0  0  0  0
 29 28  1  0  0  0  0
 30 29  1  0  0  0  0
 31 30  1  0  0  0  0
 32 31  1  0  0  0  0
M  END
>  <MODEL>
1

>  <REMARK>
 VINA RESULT:      -6.2      0.000      0.000
  Name = 
  13 active torsions:
  status: ('A' for Active; 'I' for Inactive)
    1  A    between atoms: C_1  and  N_2
    2  A    between atoms: C_1  and  C_19
    3  A    between atoms: N_2  and  N_12
    4  A    between atoms: C_3  and  C_11
    5  A    between atoms: C_6  and  N_12
    6  A    between atoms: C_11  and  O_25
    7  A    between atoms: C_14  and  N_17
    8  A    between atoms: C_15  and  O_20
    9  A    between atoms: C_16  and  S_18
   10  A    between atoms: C_16  and  C_26
   11  A    between atoms: N_17  and  S_18
   12  A    between atoms: C_19  and  C_23
   13  A    between atoms: O_25  and  C_32
                            x       y       z     vdW  Elec       q    Type
                         _______ _______ _______ _____ _____    ______ ____

>  <TORSDO>
F 13

$$$$
=
 OpenBabel11042419333D

 32 34  0  0  1  0  0  0  0  0999 V2000
  191.2010  174.9400  142.6270 C   0  0  0  0  0  2  0  0  0  0  0  0
  191.6510  174.7860  144.0680 C   0  0  1  0  0  3  0  0  0  0  0  0
  191.8170  176.1690  144.7170 C   0  0  0  0  0  2  0  0  0  0  0  0
  190.6770  173.8690  144.8240 C   0  0  0  0  0  2  0  0  0  0  0  0
  189.6880  174.6630  145.6740 C   0  0  0  0  0  2  0  0  0  0  0  0
  190.4220  175.5050  146.7290 C   0  0  1  0  0  3  0  0  0  0  0  0
  191.7650  176.0680  146.2390 C   0  0  0  0  0  2  0  0  0  0  0  0
  189.5670  176.5950  147.1670 N   0  0  0  0  0  2  0  0  0  0  0  0
  187.8940  176.0420  147.0250 S   0  0  0  0  0  0  0  0  0  0  0  0
  187.3630  177.5950  146.2350 C   0  0  0  0  0  2  0  0  0  0  0  0
  185.4550  179.0490  147.1510 C   0  0  0  0  0  2  0  0  0  0  0  0
  185.2530  178.9790  145.6480 C   0  0  2  0  0  0  0  0  0  0  0  0
  185.8610  177.7980  146.3850 C   0  0  1  0  0  0  0  0  0  0  0  0
  186.1300  179.8140  144.9520 O   0  0  0  0  0  1  0  0  0  0  0  0
  183.7960  178.9710  145.2250 C   0  0  0  0  0  1  0  0  0  0  0  0
  184.9680  176.5940  146.6350 C   0  0  0  0  0  1  0  0  0  0  0  0
  190.7020  176.2510  142.4110 O   0  0  0  0  0  0  0  0  0  0  0  0
  186.4830  177.6440  142.2260 C   0  0  0  0  0  0  0  0  0  0  0  0
  188.9630  177.7470  142.1070 N   0  0  0  0  0  0  0  0  0  0  0  0
  186.4100  176.3470  142.9220 C   0  0  0  0  0  3  0  0  0  0  0  0
  187.6350  178.2540  141.8920 C   0  0  0  0  0  3  0  0  0  0  0  0
  188.4240  175.3710  141.8270 C   0  0  2  0  0  3  0  0  0  0  0  0
  187.2730  175.3410  142.7770 C   0  0  0  0  0  3  0  0  0  0  0  0
  189.3580  176.5090  142.1320 C   0  0  0  0  0  0  0  0  0  0  0  0
  187.9770  175.4380  140.5030 O   0  0  0  0  0  0  0  0  0  0  0  0
  188.5730  174.3500  139.8610 C   0  0  0  0  0  1  0  0  0  0  0  0
  185.2430  178.3260  142.0060 N   0  0  0  0  0  2  0  0  0  0  0  0
  184.3050  177.9090  141.0480 N   0  0  0  0  0  2  0  0  0  0  0  0
  182.9870  178.2680  141.5470 C   0  0  0  0  0  2  0  0  0  0  0  0
  181.9470  178.1330  140.4460 C   0  0  0  0  0  2  0  0  0  0  0  0
  180.6700  178.8770  140.8010 C   0  0  0  0  0  2  0  0  0  0  0  0
  179.7660  178.0120  141.6580 C   0  0  0  0  0  1  0  0  0  0  0  0
  2  1  1  6  0  0  0
  2  3  1  0  0  0  0
  2  4  1  0  0  0  0
  3  7  1  0  0  0  0
  4  5  1  0  0  0  0
  5  6  1  0  0  0  0
  6  8  1  6  0  0  0
  7  6  1  0  0  0  0
  9  8  1  0  0  0  0
 10 13  1  0  0  0  0
 10  9  1  0  0  0  0
 12 15  1  6  0  0  0
 12 13  1  0  0  0  0
 12 11  1  0  0  0  0
 13 16  1  1  0  0  0
 13 11  1  0  0  0  0
 14 12  1  0  0  0  0
 17  1  1  0  0  0  0
 18 20  1  0  0  0  0
 19 24  2  0  0  0  0
 21 19  1  0  0  0  0
 21 18  2  0  0  0  0
 22 25  1  6  0  0  0
 22 24  1  0  0  0  0
 22 23  1  0  0  0  0
 23 20  2  0  0  0  0
 24 17  1  0  0  0  0
 26 25  1  0  0  0  0
 27 18  1  0  0  0  0
 28 29  1  0  0  0  0
 28 27  1  0  0  0  0
 30 31  1  0  0  0  0
 30 29  1  0  0  0  0
 31 32  1  0  0  0  0
M  END
>  <MODEL>
2

>  <REMARK>
 VINA RESULT:      -5.8      2.834      5.299
  Name = 
  13 active torsions:
  status: ('A' for Active; 'I' for Inactive)
    1  A    between atoms: C_1  and  N_2
    2  A    between atoms: C_1  and  C_19
    3  A    between atoms: N_2  and  N_12
    4  A    between atoms: C_3  and  C_11
    5  A    between atoms: C_6  and  N_12
    6  A    between atoms: C_11  and  O_25
    7  A    between atoms: C_14  and  N_17
    8  A    between atoms: C_15  and  O_20
    9  A    between atoms: C_16  and  S_18
   10  A    between atoms: C_16  and  C_26
   11  A    between atoms: N_17  and  S_18
   12  A    between atoms: C_19  and  C_23
   13  A    between atoms: O_25  and  C_32
                            x       y       z     vdW  Elec       q    Type
                         _______ _______ _______ _____ _____    ______ ____

>  <TORSDO>
F 13

$$$$
=
 OpenBabel11042419333D

 32 34  0  0  1  0  0  0  0  0999 V2000
  188.6500  173.5180  141.3720 C   0  0  0  0  0  2  0  0  0  0  0  0
  189.5600  172.3990  141.8460 C   0  0  1  0  0  3  0  0  0  0  0  0
  191.0260  172.8560  141.7920 C   0  0  0  0  0  2  0  0  0  0  0  0
  189.1190  171.9240  143.2390 C   0  0  0  0  0  2  0  0  0  0  0  0
  189.9900  172.5120  144.3460 C   0  0  0  0  0  2  0  0  0  0  0  0
  191.4570  172.0930  144.1720 C   0  0  1  0  0  3  0  0  0  0  0  0
  191.8990  171.9970  142.7030 C   0  0  0  0  0  2  0  0  0  0  0  0
  192.3190  173.0230  144.8810 N   0  0  0  0  0  2  0  0  0  0  0  0
  191.3660  174.4730  145.2180 S   0  0  0  0  0  0  0  0  0  0  0  0
  192.7620  175.2950  146.0500 C   0  0  0  0  0  2  0  0  0  0  0  0
  194.5640  177.0780  145.6360 C   0  0  0  0  0  2  0  0  0  0  0  0
  195.1450  175.7630  145.1460 C   0  0  2  0  0  0  0  0  0  0  0  0
  193.6500  176.0150  145.0430 C   0  0  1  0  0  0  0  0  0  0  0  0
  195.5830  174.9490  146.1920 O   0  0  0  0  0  1  0  0  0  0  0  0
  196.0480  175.9060  143.9330 C   0  0  0  0  0  1  0  0  0  0  0  0
  193.0920  176.3650  143.6730 C   0  0  0  0  0  1  0  0  0  0  0  0
  189.1490  174.7700  141.8190 O   0  0  0  0  0  0  0  0  0  0  0  0
  185.9630  177.6460  142.9830 C   0  0  0  0  0  0  0  0  0  0  0  0
  187.0730  175.4610  142.5730 N   0  0  0  0  0  0  0  0  0  0  0  0
  186.9440  178.4640  142.2480 C   0  0  0  0  0  3  0  0  0  0  0  0
  186.0350  176.3070  143.0960 C   0  0  0  0  0  3  0  0  0  0  0  0
  188.9160  177.0590  142.8280 C   0  0  2  0  0  3  0  0  0  0  0  0
  188.2470  178.2060  142.1470 C   0  0  0  0  0  3  0  0  0  0  0  0
  188.3290  175.7440  142.3940 C   0  0  0  0  0  0  0  0  0  0  0  0
  188.8500  177.1960  144.2190 O   0  0  0  0  0  0  0  0  0  0  0  0
  189.9800  177.9410  144.5650 C   0  0  0  0  0  1  0  0  0  0  0  0
  184.8170  178.3300  143.5020 N   0  0  0  0  0  2  0  0  0  0  0  0
  184.8890  179.2270  144.5800 N   0  0  0  0  0  2  0  0  0  0  0  0
  184.1460  178.6390  145.6840 C   0  0  0  0  0  2  0  0  0  0  0  0
  184.9540  178.7180  146.9690 C   0  0  0  0  0  2  0  0  0  0  0  0
  186.3870  178.2570  146.7460 C   0  0  0  0  0  2  0  0  0  0  0  0
  186.4740  176.7430  146.7870 C   0  0  0  0  0  1  0  0  0  0  0  0
  1 17  1  0  0  0  0
  2  1  1  1  0  0  0
  2  4  1  0  0  0  0
  3  2  1  0  0  0  0
  3  7  1  0  0  0  0
  4  5  1  0  0  0  0
  6  5  1  0  0  0  0
  6  8  1  1  0  0  0
  7  6  1  0  0  0  0
  8  9  1  0  0  0  0
  9 10  1  0  0  0  0
 12 15  1  6  0  0  0
 12 11  1  0  0  0  0
 12 14  1  0  0  0  0
 13 16  1  6  0  0  0
 13 12  1  0  0  0  0
 13 11  1  0  0  0  0
 13 10  1  0  0  0  0
 17 24  1  0  0  0  0
 18 21  2  0  0  0  0
 18 27  1  0  0  0  0
 19 21  1  0  0  0  0
 20 18  1  0  0  0  0
 22 25  1  1  0  0  0
 23 20  2  0  0  0  0
 23 22  1  0  0  0  0
 24 19  2  0  0  0  0
 24 22  1  0  0  0  0
 25 26  1  0  0  0  0
 27 28  1  0  0  0  0
 28 29  1  0  0  0  0
 29 30  1  0  0  0  0
 31 32  1  0  0  0  0
 31 30  1  0  0  0  0
M  END
>  <MODEL>
3

>  <REMARK>
 VINA RESULT:      -5.7      2.411      5.529
  Name = 
  13 active torsions:
  status: ('A' for Active; 'I' for Inactive)
    1  A    between atoms: C_1  and  N_2
    2  A    between atoms: C_1  and  C_19
    3  A    between atoms: N_2  and  N_12
    4  A    between atoms: C_3  and  C_11
    5  A    between atoms: C_6  and  N_12
    6  A    between atoms: C_11  and  O_25
    7  A    between atoms: C_14  and  N_17
    8  A    between atoms: C_15  and  O_20
    9  A    between atoms: C_16  and  S_18
   10  A    between atoms: C_16  and  C_26
   11  A    between atoms: N_17  and  S_18
   12  A    between atoms: C_19  and  C_23
   13  A    between atoms: O_25  and  C_32
                            x       y       z     vdW  Elec       q    Type
                         _______ _______ _______ _____ _____    ______ ____

>  <TORSDO>
F 13

$$$$
=
 OpenBabel11042419333D

 32 34  0  0  1  0  0  0  0  0999 V2000
  184.5660  178.5870  142.6980 C   0  0  0  0  0  2  0  0  0  0  0  0
  184.5340  179.2500  144.0630 C   0  0  1  0  0  3  0  0  0  0  0  0
  183.9500  178.2820  145.1030 C   0  0  0  0  0  2  0  0  0  0  0  0
  185.9360  179.7630  144.4250 C   0  0  0  0  0  2  0  0  0  0  0  0
  186.6610  178.8210  145.3830 C   0  0  0  0  0  2  0  0  0  0  0  0
  185.8830  178.6700  146.6990 C   0  0  1  0  0  3  0  0  0  0  0  0
  184.3580  178.6890  146.5170 C   0  0  0  0  0  2  0  0  0  0  0  0
  186.2810  177.4400  147.3630 N   0  0  0  0  0  2  0  0  0  0  0  0
  187.2050  176.4850  146.1970 S   0  0  0  0  0  0  0  0  0  0  0  0
  188.6960  176.5050  147.2430 C   0  0  0  0  0  2  0  0  0  0  0  0
  190.8060  176.8140  145.8120 C   0  0  0  0  0  2  0  0  0  0  0  0
  191.2550  176.1300  147.0910 C   0  0  2  0  0  0  0  0  0  0  0  0
  189.8710  175.8500  146.5290 C   0  0  1  0  0  0  0  0  0  0  0  0
  191.3380  177.0130  148.1690 O   0  0  0  0  0  1  0  0  0  0  0  0
  192.3940  175.1450  146.8930 C   0  0  0  0  0  1  0  0  0  0  0  0
  189.6630  174.5290  145.8080 C   0  0  0  0  0  1  0  0  0  0  0  0
  185.0450  177.2550  142.8160 O   0  0  0  0  0  0  0  0  0  0  0  0
  189.2290  175.8190  142.3590 C   0  0  0  0  0  0  0  0  0  0  0  0
  186.7850  175.7300  142.8050 N   0  0  0  0  0  0  0  0  0  0  0  0
  189.3500  177.2860  142.4280 C   0  0  0  0  0  3  0  0  0  0  0  0
  188.0760  175.1510  142.5500 C   0  0  0  0  0  3  0  0  0  0  0  0
  187.1020  177.7620  141.4670 C   0  0  2  0  0  3  0  0  0  0  0  0
  188.4120  178.1590  142.0630 C   0  0  0  0  0  3  0  0  0  0  0  0
  186.3220  176.8750  142.3980 C   0  0  0  0  0  0  0  0  0  0  0  0
  187.2850  177.1400  140.2270 O   0  0  0  0  0  0  0  0  0  0  0  0
  186.1240  177.4230  139.5030 C   0  0  0  0  0  1  0  0  0  0  0  0
  190.4430  175.0800  142.1900 N   0  0  0  0  0  2  0  0  0  0  0  0
  191.6940  175.5670  142.6040 N   0  0  0  0  0  2  0  0  0  0  0  0
  192.6730  174.5230  142.3420 C   0  0  0  0  0  2  0  0  0  0  0  0
  193.7270  174.4970  143.4380 C   0  0  0  0  0  2  0  0  0  0  0  0
  195.1240  174.6640  142.8610 C   0  0  0  0  0  2  0  0  0  0  0  0
  195.8210  175.8580  143.4850 C   0  0  0  0  0  1  0  0  0  0  0  0
  1 17  1  0  0  0  0
  2  1  1  6  0  0  0
  2  4  1  0  0  0  0
  2  3  1  0  0  0  0
  3  7  1  0  0  0  0
  4  5  1  0  0  0  0
  5  6  1  0  0  0  0
  6  8  1  6  0  0  0
  7  6  1  0  0  0  0
  9 10  1  0  0  0  0
  9  8  1  0  0  0  0
 11 13  1  0  0  0  0
 11 12  1  0  0  0  0
 12 15  1  6  0  0  0
 12 14  1  0  0  0  0
 13 16  1  6  0  0  0
 13 12  1  0  0  0  0
 13 10  1  0  0  0  0
 18 20  1  0  0  0  0
 18 21  2  0  0  0  0
 21 19  1  0  0  0  0
 22 25  1  6  0  0  0
 22 23  1  0  0  0  0
 22 24  1  0  0  0  0
 23 20  2  0  0  0  0
 24 19  2  0  0  0  0
 24 17  1  0  0  0  0
 26 25  1  0  0  0  0
 27 18  1  0  0  0  0
 27 28  1  0  0  0  0
 29 28  1  0  0  0  0
 29 30  1  0  0  0  0
 31 30  1  0  0  0  0
 31 32  1  0  0  0  0
M  END
>  <MODEL>
4

>  <REMARK>
 VINA RESULT:      -5.7      1.781      7.884
  Name = 
  13 active torsions:
  status: ('A' for Active; 'I' for Inactive)
    1  A    between atoms: C_1  and  N_2
    2  A    between atoms: C_1  and  C_19
    3  A    between atoms: N_2  and  N_12
    4  A    between atoms: C_3  and  C_11
    5  A    between atoms: C_6  and  N_12
    6  A    between atoms: C_11  and  O_25
    7  A    between atoms: C_14  and  N_17
    8  A    between atoms: C_15  and  O_20
    9  A    between atoms: C_16  and  S_18
   10  A    between atoms: C_16  and  C_26
   11  A    between atoms: N_17  and  S_18
   12  A    between atoms: C_19  and  C_23
   13  A    between atoms: O_25  and  C_32
                            x       y       z     vdW  Elec       q    Type
                         _______ _______ _______ _____ _____    ______ ____

>  <TORSDO>
F 13

$$$$
=
 OpenBabel11042419333D

 32 34  0  0  1  0  0  0  0  0999 V2000
  187.7250  176.1510  146.9020 C   0  0  0  0  0  2  0  0  0  0  0  0
  186.5120  176.9650  147.3140 C   0  0  1  0  0  3  0  0  0  0  0  0
  186.7590  178.4550  147.0290 C   0  0  0  0  0  2  0  0  0  0  0  0
  185.2550  176.4120  146.6250 C   0  0  0  0  0  2  0  0  0  0  0  0
  184.8570  177.2430  145.4070 C   0  0  0  0  0  2  0  0  0  0  0  0
  184.5480  178.6930  145.8090 C   0  0  1  0  0  3  0  0  0  0  0  0
  185.4400  179.2200  146.9430 C   0  0  0  0  0  2  0  0  0  0  0  0
  184.6710  179.5580  144.6490 N   0  0  0  0  0  2  0  0  0  0  0  0
  184.5820  178.5320  143.2130 S   0  0  0  0  0  0  0  0  0  0  0  0
  186.2230  179.0650  142.6310 C   0  0  0  0  0  2  0  0  0  0  0  0
  188.3530  178.0710  141.5980 C   0  0  0  0  0  2  0  0  0  0  0  0
  187.6720  176.9370  142.3440 C   0  0  2  0  0  0  0  0  0  0  0  0
  186.8350  178.0280  141.6980 C   0  0  1  0  0  0  0  0  0  0  0  0
  187.8640  177.0150  143.7250 O   0  0  0  0  0  1  0  0  0  0  0  0
  187.8360  175.5810  141.6810 C   0  0  0  0  0  1  0  0  0  0  0  0
  186.1310  177.6910  140.3940 C   0  0  0  0  0  1  0  0  0  0  0  0
  188.8940  176.9540  146.9680 O   0  0  0  0  0  0  0  0  0  0  0  0
  193.2020  176.2490  146.1190 C   0  0  0  0  0  0  0  0  0  0  0  0
  191.1480  176.7220  147.4360 N   0  0  0  0  0  0  0  0  0  0  0  0
  192.6030  176.4990  144.7950 C   0  0  0  0  0  3  0  0  0  0  0  0
  192.5340  176.3750  147.2810 C   0  0  0  0  0  3  0  0  0  0  0  0
  190.3400  175.6450  145.3860 C   0  0  2  0  0  3  0  0  0  0  0  0
  191.3350  176.2630  144.4610 C   0  0  0  0  0  3  0  0  0  0  0  0
  190.1590  176.4700  146.6300 C   0  0  0  0  0  0  0  0  0  0  0  0
  190.7050  174.3340  145.7100 O   0  0  0  0  0  0  0  0  0  0  0  0
  190.0160  173.5280  144.8000 C   0  0  0  0  0  1  0  0  0  0  0  0
  194.6050  175.9680  146.1470 N   0  0  0  0  0  2  0  0  0  0  0  0
  195.4030  175.9570  144.9910 N   0  0  0  0  0  2  0  0  0  0  0  0
  196.1270  174.6950  144.9770 C   0  0  0  0  0  2  0  0  0  0  0  0
  195.2030  173.5560  144.5770 C   0  0  0  0  0  2  0  0  0  0  0  0
  195.5290  172.2870  145.3490 C   0  0  0  0  0  2  0  0  0  0  0  0
  196.8610  172.4210  146.0620 C   0  0  0  0  0  1  0  0  0  0  0  0
  1 17  1  0  0  0  0
  2  1  1  6  0  0  0
  3  2  1  0  0  0  0
  4  2  1  0  0  0  0
  5  6  1  0  0  0  0
  5  4  1  0  0  0  0
  6  8  1  6  0  0  0
  6  7  1  0  0  0  0
  7  3  1  0  0  0  0
  9  8  1  0  0  0  0
 10  9  1  0  0  0  0
 11 13  1  0  0  0  0
 11 12  1  0  0  0  0
 12 15  1  6  0  0  0
 12 14  1  0  0  0  0
 13 16  1  6  0  0  0
 13 12  1  0  0  0  0
 13 10  1  0  0  0  0
 18 27  1  0  0  0  0
 18 21  2  0  0  0  0
 20 18  1  0  0  0  0
 21 19  1  0  0  0  0
 22 25  1  1  0  0  0
 22 24  1  0  0  0  0
 23 20  2  0  0  0  0
 23 22  1  0  0  0  0
 24 17  1  0  0  0  0
 24 19  2  0  0  0  0
 26 25  1  0  0  0  0
 28 27  1  0  0  0  0
 29 28  1  0  0  0  0
 30 29  1  0  0  0  0
 30 31  1  0  0  0  0
 31 32  1  0  0  0  0
M  END
>  <MODEL>
5

>  <REMARK>
 VINA RESULT:      -5.6      2.678      6.995
  Name = 
  13 active torsions:
  status: ('A' for Active; 'I' for Inactive)
    1  A    between atoms: C_1  and  N_2
    2  A    between atoms: C_1  and  C_19
    3  A    between atoms: N_2  and  N_12
    4  A    between atoms: C_3  and  C_11
    5  A    between atoms: C_6  and  N_12
    6  A    between atoms: C_11  and  O_25
    7  A    between atoms: C_14  and  N_17
    8  A    between atoms: C_15  and  O_20
    9  A    between atoms: C_16  and  S_18
   10  A    between atoms: C_16  and  C_26
   11  A    between atoms: N_17  and  S_18
   12  A    between atoms: C_19  and  C_23
   13  A    between atoms: O_25  and  C_32
                            x       y       z     vdW  Elec       q    Type
                         _______ _______ _______ _____ _____    ______ ____

>  <TORSDO>
F 13

$$$$
=
 OpenBabel11042419333D

 32 34  0  0  1  0  0  0  0  0999 V2000
  192.9880  176.1470  146.7050 C   0  0  0  0  0  2  0  0  0  0  0  0
  194.4400  176.1900  146.2650 C   0  0  1  0  0  3  0  0  0  0  0  0
  195.0220  174.7680  146.2370 C   0  0  0  0  0  2  0  0  0  0  0  0
  194.5560  176.9240  144.9200 C   0  0  0  0  0  2  0  0  0  0  0  0
  194.6830  175.9540  143.7480 C   0  0  0  0  0  2  0  0  0  0  0  0
  195.9380  175.0790  143.8930 C   0  0  1  0  0  3  0  0  0  0  0  0
  196.2600  174.7020  145.3470 C   0  0  0  0  0  2  0  0  0  0  0  0
  195.7870  173.8720  143.0970 N   0  0  0  0  0  2  0  0  0  0  0  0
  197.0600  172.7510  143.5940 S   0  0  0  0  0  0  0  0  0  0  0  0
  195.8980  171.3520  143.6980 C   0  0  0  0  0  2  0  0  0  0  0  0
  194.3110  171.3380  145.7180 C   0  0  0  0  0  2  0  0  0  0  0  0
  194.6060  169.8830  145.3970 C   0  0  2  0  0  0  0  0  0  0  0  0
  195.6660  170.9430  145.1470 C   0  0  1  0  0  0  0  0  0  0  0  0
  193.8910  169.4230  144.2890 O   0  0  0  0  0  1  0  0  0  0  0  0
  194.6710  168.9860  146.6210 C   0  0  0  0  0  1  0  0  0  0  0  0
  196.8130  171.0340  146.1400 C   0  0  0  0  0  1  0  0  0  0  0  0
  192.1380  176.4040  145.5970 O   0  0  0  0  0  0  0  0  0  0  0  0
  187.7510  176.6230  146.2920 C   0  0  0  0  0  0  0  0  0  0  0  0
  189.9980  177.2750  145.4560 N   0  0  0  0  0  0  0  0  0  0  0  0
  188.2260  175.6200  147.2620 C   0  0  0  0  0  3  0  0  0  0  0  0
  188.5640  177.3590  145.5130 C   0  0  0  0  0  3  0  0  0  0  0  0
  190.1730  174.8700  145.9030 C   0  0  2  0  0  3  0  0  0  0  0  0
  189.3080  174.8560  147.1190 C   0  0  0  0  0  3  0  0  0  0  0  0
  190.7530  176.2350  145.6570 C   0  0  0  0  0  0  0  0  0  0  0  0
  189.4660  174.4220  144.7810 O   0  0  0  0  0  0  0  0  0  0  0  0
  190.4310  173.8560  143.9440 C   0  0  0  0  0  1  0  0  0  0  0  0
  186.3440  176.8880  146.2790 N   0  0  0  0  0  2  0  0  0  0  0  0
  185.7280  177.7740  147.1760 N   0  0  0  0  0  2  0  0  0  0  0  0
  185.3950  178.9800  146.4340 C   0  0  0  0  0  2  0  0  0  0  0  0
  184.0480  178.8250  145.7450 C   0  0  0  0  0  2  0  0  0  0  0  0
  184.1780  179.0000  144.2400 C   0  0  0  0  0  2  0  0  0  0  0  0
  185.5660  179.4910  143.8750 C   0  0  0  0  0  1  0  0  0  0  0  0
  2  1  1  6  0  0  0
  3  2  1  0  0  0  0
  4  2  1  0  0  0  0
  5  6  1  0  0  0  0
  5  4  1  0  0  0  0
  6  8  1  6  0  0  0
  6  7  1  0  0  0  0
  7  3  1  0  0  0  0
  8  9  1  0  0  0  0
  9 10  1  0  0  0  0
 10 13  1  0  0  0  0
 12 11  1  0  0  0  0
 12 15  1  1  0  0  0
 13 12  1  0  0  0  0
 13 11  1  0  0  0  0
 13 16  1  1  0  0  0
 14 12  1  0  0  0  0
 17 24  1  0  0  0  0
 17  1  1  0  0  0  0
 18 20  1  0  0  0  0
 19 21  1  0  0  0  0
 19 24  2  0  0  0  0
 21 18  2  0  0  0  0
 22 25  1  6  0  0  0
 22 23  1  0  0  0  0
 23 20  2  0  0  0  0
 24 22  1  0  0  0  0
 26 25  1  0  0  0  0
 27 18  1  0  0  0  0
 27 28  1  0  0  0  0
 29 28  1  0  0  0  0
 30 29  1  0  0  0  0
 31 30  1  0  0  0  0
 32 31  1  0  0  0  0
M  END
>  <MODEL>
6

>  <REMARK>
 VINA RESULT:      -5.4      3.251      6.273
  Name = 
  13 active torsions:
  status: ('A' for Active; 'I' for Inactive)
    1  A    between atoms: C_1  and  N_2
    2  A    between atoms: C_1  and  C_19
    3  A    between atoms: N_2  and  N_12
    4  A    between atoms: C_3  and  C_11
    5  A    between atoms: C_6  and  N_12
    6  A    between atoms: C_11  and  O_25
    7  A    between atoms: C_14  and  N_17
    8  A    between atoms: C_15  and  O_20
    9  A    between atoms: C_16  and  S_18
   10  A    between atoms: C_16  and  C_26
   11  A    between atoms: N_17  and  S_18
   12  A    between atoms: C_19  and  C_23
   13  A    between atoms: O_25  and  C_32
                            x       y       z     vdW  Elec       q    Type
                         _______ _______ _______ _____ _____    ______ ____

>  <TORSDO>
F 13

$$$$
=
 OpenBabel11042419333D

 32 34  0  0  1  0  0  0  0  0999 V2000
  184.0490  179.0430  143.6440 C   0  0  0  0  0  2  0  0  0  0  0  0
  184.4500  179.3810  145.0690 C   0  0  1  0  0  3  0  0  0  0  0  0
  184.0700  178.2260  146.0080 C   0  0  0  0  0  2  0  0  0  0  0  0
  185.9430  179.7420  145.1180 C   0  0  0  0  0  2  0  0  0  0  0  0
  186.7970  178.5780  145.6150 C   0  0  0  0  0  2  0  0  0  0  0  0
  186.3880  178.1640  147.0360 C   0  0  1  0  0  3  0  0  0  0  0  0
  184.8790  178.2850  147.3010 C   0  0  0  0  0  2  0  0  0  0  0  0
  186.8210  176.8010  147.2920 N   0  0  0  0  0  2  0  0  0  0  0  0
  187.9160  176.3400  145.9830 S   0  0  0  0  0  0  0  0  0  0  0  0
  189.0050  175.4150  147.1120 C   0  0  0  0  0  2  0  0  0  0  0  0
  191.4100  175.3100  148.0050 C   0  0  0  0  0  2  0  0  0  0  0  0
  191.5210  175.5290  146.5060 C   0  0  2  0  0  0  0  0  0  0  0  0
  190.3470  176.1160  147.2710 C   0  0  1  0  0  0  0  0  0  0  0  0
  191.2860  174.3620  145.7770 O   0  0  0  0  0  1  0  0  0  0  0  0
  192.7010  176.3940  146.0980 C   0  0  0  0  0  1  0  0  0  0  0  0
  190.3790  177.6070  147.5660 C   0  0  0  0  0  1  0  0  0  0  0  0
  184.3590  177.6870  143.3610 O   0  0  0  0  0  0  0  0  0  0  0  0
  188.3300  176.1760  142.0500 C   0  0  0  0  0  0  0  0  0  0  0  0
  186.0050  176.1200  142.9260 N   0  0  0  0  0  0  0  0  0  0  0  0
  188.5220  177.6300  142.1980 C   0  0  0  0  0  3  0  0  0  0  0  0
  187.2050  175.5270  142.4000 C   0  0  0  0  0  3  0  0  0  0  0  0
  186.1590  178.2390  141.6990 C   0  0  2  0  0  3  0  0  0  0  0  0
  187.5690  178.5530  142.0720 C   0  0  0  0  0  3  0  0  0  0  0  0
  185.5230  177.3050  142.6910 C   0  0  0  0  0  0  0  0  0  0  0  0
  186.0900  177.7080  140.4060 O   0  0  0  0  0  0  0  0  0  0  0  0
  184.7720  177.9190  139.9950 C   0  0  0  0  0  1  0  0  0  0  0  0
  189.4640  175.4200  141.6110 N   0  0  0  0  0  2  0  0  0  0  0  0
  190.2310  174.6240  142.4780 N   0  0  0  0  0  2  0  0  0  0  0  0
  191.0360  173.7370  141.6530 C   0  0  0  0  0  2  0  0  0  0  0  0
  192.0290  172.9700  142.5120 C   0  0  0  0  0  2  0  0  0  0  0  0
  191.4140  171.6860  143.0480 C   0  0  0  0  0  2  0  0  0  0  0  0
  192.2620  171.1130  144.1670 C   0  0  0  0  0  1  0  0  0  0  0  0
  2  1  1  6  0  0  0
  2  4  1  0  0  0  0
  2  3  1  0  0  0  0
  3  7  1  0  0  0  0
  4  5  1  0  0  0  0
  5  6  1  0  0  0  0
  6  8  1  6  0  0  0
  6  7  1  0  0  0  0
  9 10  1  0  0  0  0
  9  8  1  0  0  0  0
 10 13  1  0  0  0  0
 12 15  1  6  0  0  0
 12 13  1  0  0  0  0
 12 11  1  0  0  0  0
 13 16  1  1  0  0  0
 13 11  1  0  0  0  0
 14 12  1  0  0  0  0
 17  1  1  0  0  0  0
 18 20  1  0  0  0  0
 18 21  2  0  0  0  0
 21 19  1  0  0  0  0
 22 25  1  6  0  0  0
 22 23  1  0  0  0  0
 22 24  1  0  0  0  0
 23 20  2  0  0  0  0
 24 19  2  0  0  0  0
 24 17  1  0  0  0  0
 26 25  1  0  0  0  0
 27 18  1  0  0  0  0
 27 28  1  0  0  0  0
 29 28  1  0  0  0  0
 29 30  1  0  0  0  0
 30 31  1  0  0  0  0
 31 32  1  0  0  0  0
M  END
>  <MODEL>
7

>  <REMARK>
 VINA RESULT:      -5.4      1.752      7.893
  Name = 
  13 active torsions:
  status: ('A' for Active; 'I' for Inactive)
    1  A    between atoms: C_1  and  N_2
    2  A    between atoms: C_1  and  C_19
    3  A    between atoms: N_2  and  N_12
    4  A    between atoms: C_3  and  C_11
    5  A    between atoms: C_6  and  N_12
    6  A    between atoms: C_11  and  O_25
    7  A    between atoms: C_14  and  N_17
    8  A    between atoms: C_15  and  O_20
    9  A    between atoms: C_16  and  S_18
   10  A    between atoms: C_16  and  C_26
   11  A    between atoms: N_17  and  S_18
   12  A    between atoms: C_19  and  C_23
   13  A    between atoms: O_25  and  C_32
                            x       y       z     vdW  Elec       q    Type
                         _______ _______ _______ _____ _____    ______ ____

>  <TORSDO>
F 13

$$$$
=
 OpenBabel11042419333D

 32 34  0  0  1  0  0  0  0  0999 V2000
  190.8870  175.5600  147.0760 C   0  0  0  0  0  2  0  0  0  0  0  0
  192.3680  175.3580  146.8130 C   0  0  1  0  0  3  0  0  0  0  0  0
  192.6030  173.9840  146.1660 C   0  0  0  0  0  2  0  0  0  0  0  0
  192.9140  176.5270  145.9790 C   0  0  0  0  0  2  0  0  0  0  0  0
  193.0470  176.1640  144.5020 C   0  0  0  0  0  2  0  0  0  0  0  0
  194.0130  174.9860  144.3110 C   0  0  1  0  0  3  0  0  0  0  0  0
  193.9450  173.9450  145.4390 C   0  0  0  0  0  2  0  0  0  0  0  0
  193.7520  174.3400  143.0350 N   0  0  0  0  0  2  0  0  0  0  0  0
  192.2640  175.0400  142.3860 S   0  0  0  0  0  0  0  0  0  0  0  0
  191.3910  173.4430  142.4470 C   0  0  0  0  0  2  0  0  0  0  0  0
  190.7470  171.5020  140.8930 C   0  0  0  0  0  2  0  0  0  0  0  0
  189.5580  172.4450  140.9120 C   0  0  2  0  0  0  0  0  0  0  0  0
  190.9650  173.0000  141.0530 C   0  0  1  0  0  0  0  0  0  0  0  0
  188.8000  172.3270  142.0790 O   0  0  0  0  0  1  0  0  0  0  0  0
  188.8160  172.5230  139.5900 C   0  0  0  0  0  1  0  0  0  0  0  0
  191.5770  173.6760  139.8370 C   0  0  0  0  0  1  0  0  0  0  0  0
  190.1240  174.9940  146.0200 O   0  0  0  0  0  0  0  0  0  0  0  0
  188.4980  177.0000  142.4000 C   0  0  0  0  0  0  0  0  0  0  0  0
  188.9710  175.1780  144.0220 N   0  0  0  0  0  0  0  0  0  0  0  0
  189.5050  177.9420  142.9200 C   0  0  0  0  0  3  0  0  0  0  0  0
  188.2940  175.7670  142.8990 C   0  0  0  0  0  3  0  0  0  0  0  0
  189.2820  177.2480  145.3010 C   0  0  2  0  0  3  0  0  0  0  0  0
  189.8820  178.0470  144.1930 C   0  0  0  0  0  3  0  0  0  0  0  0
  189.4580  175.7730  145.0720 C   0  0  0  0  0  0  0  0  0  0  0  0
  187.9290  177.5650  145.4700 O   0  0  0  0  0  0  0  0  0  0  0  0
  187.7000  177.4630  146.8450 C   0  0  0  0  0  1  0  0  0  0  0  0
  187.7860  177.4030  141.2250 N   0  0  0  0  0  2  0  0  0  0  0  0
  186.4050  177.2100  141.0670 N   0  0  0  0  0  2  0  0  0  0  0  0
  185.7320  178.2490  141.8320 C   0  0  0  0  0  2  0  0  0  0  0  0
  184.8900  177.6340  142.9380 C   0  0  0  0  0  2  0  0  0  0  0  0
  184.6690  178.6210  144.0740 C   0  0  0  0  0  2  0  0  0  0  0  0
  185.6290  179.7900  143.9620 C   0  0  0  0  0  1  0  0  0  0  0  0
  2  1  1  6  0  0  0
  3  2  1  0  0  0  0
  4  2  1  0  0  0  0
  5  4  1  0  0  0  0
  6  8  1  6  0  0  0
  6  5  1  0  0  0  0
  6  7  1  0  0  0  0
  7  3  1  0  0  0  0
  9 10  1  0  0  0  0
  9  8  1  0  0  0  0
 11 12  1  0  0  0  0
 11 13  1  0  0  0  0
 12 15  1  6  0  0  0
 12 13  1  0  0  0  0
 12 14  1  0  0  0  0
 13 16  1  6  0  0  0
 13 10  1  0  0  0  0
 17  1  1  0  0  0  0
 18 21  2  0  0  0  0
 18 20  1  0  0  0  0
 19 24  2  0  0  0  0
 20 23  2  0  0  0  0
 21 19  1  0  0  0  0
 22 25  1  6  0  0  0
 23 22  1  0  0  0  0
 24 22  1  0  0  0  0
 24 17  1  0  0  0  0
 25 26  1  0  0  0  0
 27 18  1  0  0  0  0
 28 27  1  0  0  0  0
 28 29  1  0  0  0  0
 29 30  1  0  0  0  0
 30 31  1  0  0  0  0
 32 31  1  0  0  0  0
M  END
>  <MODEL>
8

>  <REMARK>
 VINA RESULT:      -5.4      2.457      4.238
  Name = 
  13 active torsions:
  status: ('A' for Active; 'I' for Inactive)
    1  A    between atoms: C_1  and  N_2
    2  A    between atoms: C_1  and  C_19
    3  A    between atoms: N_2  and  N_12
    4  A    between atoms: C_3  and  C_11
    5  A    between atoms: C_6  and  N_12
    6  A    between atoms: C_11  and  O_25
    7  A    between atoms: C_14  and  N_17
    8  A    between atoms: C_15  and  O_20
    9  A    between atoms: C_16  and  S_18
   10  A    between atoms: C_16  and  C_26
   11  A    between atoms: N_17  and  S_18
   12  A    between atoms: C_19  and  C_23
   13  A    between atoms: O_25  and  C_32
                            x       y       z     vdW  Elec       q    Type
                         _______ _______ _______ _____ _____    ______ ____

>  <TORSDO>
F 13

$$$$
=
 OpenBabel11042419333D

 32 34  0  0  1  0  0  0  0  0999 V2000
  191.5650  174.4190  144.5040 C   0  0  0  0  0  2  0  0  0  0  0  0
  192.7150  175.3800  144.7460 C   0  0  1  0  0  3  0  0  0  0  0  0
  193.3680  175.0840  146.1050 C   0  0  0  0  0  2  0  0  0  0  0  0
  193.7000  175.3210  143.5690 C   0  0  0  0  0  2  0  0  0  0  0  0
  194.9220  174.4640  143.8880 C   0  0  0  0  0  2  0  0  0  0  0  0
  195.6920  175.0310  145.0900 C   0  0  1  0  0  3  0  0  0  0  0  0
  194.7850  175.6500  146.1640 C   0  0  0  0  0  2  0  0  0  0  0  0
  196.5090  173.9860  145.6840 N   0  0  0  0  0  2  0  0  0  0  0  0
  196.5730  172.6470  144.5320 S   0  0  0  0  0  0  0  0  0  0  0  0
  196.8210  171.4170  145.8520 C   0  0  0  0  0  2  0  0  0  0  0  0
  195.8420  169.0910  145.3730 C   0  0  0  0  0  2  0  0  0  0  0  0
  195.7730  169.2810  146.8780 C   0  0  2  0  0  0  0  0  0  0  0  0
  195.6240  170.4800  145.9570 C   0  0  1  0  0  0  0  0  0  0  0  0
  197.0120  169.1030  147.4970 O   0  0  0  0  0  1  0  0  0  0  0  0
  194.5600  168.6340  147.5220 C   0  0  0  0  0  1  0  0  0  0  0  0
  194.2240  171.0330  145.7480 C   0  0  0  0  0  1  0  0  0  0  0  0
  190.9210  174.7330  143.2780 O   0  0  0  0  0  0  0  0  0  0  0  0
  187.1820  176.8990  142.2250 C   0  0  0  0  0  0  0  0  0  0  0  0
  188.6950  174.9840  142.6970 N   0  0  0  0  0  0  0  0  0  0  0  0
  188.2450  177.9090  142.0790 C   0  0  0  0  0  3  0  0  0  0  0  0
  187.4130  175.5980  142.4820 C   0  0  0  0  0  3  0  0  0  0  0  0
  189.7680  176.9080  143.7760 C   0  0  2  0  0  3  0  0  0  0  0  0
  189.4040  177.9150  142.7370 C   0  0  0  0  0  3  0  0  0  0  0  0
  189.7640  175.5130  143.2150 C   0  0  0  0  0  0  0  0  0  0  0  0
  188.9150  177.0000  144.8810 O   0  0  0  0  0  0  0  0  0  0  0  0
  189.7420  177.3470  145.9520 C   0  0  0  0  0  1  0  0  0  0  0  0
  185.8430  177.3320  141.9610 N   0  0  0  0  0  2  0  0  0  0  0  0
  185.3680  178.6010  142.3290 N   0  0  0  0  0  2  0  0  0  0  0  0
  184.4410  178.4130  143.4340 C   0  0  0  0  0  2  0  0  0  0  0  0
  184.8350  179.2890  144.6120 C   0  0  0  0  0  2  0  0  0  0  0  0
  185.9330  178.6380  145.4380 C   0  0  0  0  0  2  0  0  0  0  0  0
  185.5580  177.2130  145.7990 C   0  0  0  0  0  1  0  0  0  0  0  0
  2  1  1  6  0  0  0
  2  3  1  0  0  0  0
  3  7  1  0  0  0  0
  4  5  1  0  0  0  0
  4  2  1  0  0  0  0
  5  6  1  0  0  0  0
  6  8  1  1  0  0  0
  6  7  1  0  0  0  0
  9  8  1  0  0  0  0
  9 10  1  0  0  0  0
 10 13  1  0  0  0  0
 11 13  1  0  0  0  0
 11 12  1  0  0  0  0
 12 14  1  0  0  0  0
 12 15  1  1  0  0  0
 13 16  1  6  0  0  0
 13 12  1  0  0  0  0
 17  1  1  0  0  0  0
 18 21  2  0  0  0  0
 19 24  2  0  0  0  0
 20 18  1  0  0  0  0
 20 23  2  0  0  0  0
 21 19  1  0  0  0  0
 22 25  1  1  0  0  0
 23 22  1  0  0  0  0
 24 17  1  0  0  0  0
 24 22  1  0  0  0  0
 25 26  1  0  0  0  0
 27 18  1  0  0  0  0
 27 28  1  0  0  0  0
 28 29  1  0  0  0  0
 29 30  1  0  0  0  0
 30 31  1  0  0  0  0
 31 32  1  0  0  0  0
M  END
>  <MODEL>
9

>  <REMARK>
 VINA RESULT:      -5.4      3.797      7.036
  Name = 
  13 active torsions:
  status: ('A' for Active; 'I' for Inactive)
    1  A    between atoms: C_1  and  N_2
    2  A    between atoms: C_1  and  C_19
    3  A    between atoms: N_2  and  N_12
    4  A    between atoms: C_3  and  C_11
    5  A    between atoms: C_6  and  N_12
    6  A    between atoms: C_11  and  O_25
    7  A    between atoms: C_14  and  N_17
    8  A    between atoms: C_15  and  O_20
    9  A    between atoms: C_16  and  S_18
   10  A    between atoms: C_16  and  C_26
   11  A    between atoms: N_17  and  S_18
   12  A    between atoms: C_19  and  C_23
   13  A    between atoms: O_25  and  C_32
                            x       y       z     vdW  Elec       q    Type
                         _______ _______ _______ _____ _____    ______ ____

>  <TORSDO>
F 13

$$$$
