=
 OpenBabel11042414543D

 53 59  0  0  1  0  0  0  0  0999 V2000
  187.1410  176.4100  144.1780 C   0  0  1  0  0  3  0  0  0  0  0  0
  191.7370  175.0860  145.8100 C   0  0  0  0  0  2  0  0  0  0  0  0
  188.0910  177.2860  143.3590 C   0  0  1  0  0  3  0  0  0  0  0  0
  189.0480  177.5900  145.6630 C   0  0  2  0  0  3  0  0  0  0  0  0
  190.8810  176.0500  145.0090 C   0  0  2  0  0  3  0  0  0  0  0  0
  192.5970  172.8810  143.4420 C   0  0  0  0  0  2  0  0  0  0  0  0
  190.5320  177.2790  145.8530 C   0  0  0  0  0  2  0  0  0  0  0  0
  189.5690  174.4290  143.4420 C   0  0  0  0  0  2  0  0  0  0  0  0
  192.8090  174.6550  145.0240 O   0  0  0  0  0  0  0  0  0  0  0  0
  188.3890  177.3670  146.8730 O   0  0  0  0  0  1  0  0  0  0  0  0
  192.6580  173.2700  144.9140 C   0  0  2  0  0  3  0  0  0  0  0  0
  190.8230  174.3700  142.8240 O   0  0  0  0  0  0  0  0  0  0  0  0
  189.5570  175.4080  144.6250 C   0  0  2  0  0  3  0  0  0  0  0  0
  188.5880  176.5820  144.6270 C   0  0  1  0  0  0  0  0  0  0  0  0
  191.1850  173.0240  142.8950 C   0  0  0  0  0  2  0  0  0  0  0  0
  188.3870  176.6180  142.0630 C   0  0  0  0  0  3  0  0  0  0  0  0
  187.4050  176.3290  141.2220 C   0  0  0  0  0  3  0  0  0  0  0  0
  187.7080  175.6890  139.9480 C   0  0  0  0  0  3  0  0  0  0  0  0
  188.2740  174.4930  139.9250 C   0  0  0  0  0  3  0  0  0  0  0  0
  188.5730  173.8400  138.6230 C   0  0  0  0  0  2  0  0  0  0  0  0
  188.8060  172.3580  138.8420 C   0  0  0  0  0  2  0  0  0  0  0  0
  189.9640  170.4190  137.6640 C   0  0  0  0  0  2  0  0  0  0  0  0
  189.5420  171.3820  136.7190 O   0  0  0  0  0  0  0  0  0  0  0  0
  189.9480  171.8570  137.9750 C   0  0  1  0  0  0  0  0  0  0  0  0
  191.8150  173.4640  139.4380 O   0  0  0  0  0  1  0  0  0  0  0  0
  191.5540  172.7160  137.9440 P   0  0  0  0  0  0  0  0  0  0  0  0
  192.6670  171.7270  137.6780 O   0  0  0  0  0  1  0  0  0  0  0  0
  191.5480  173.8880  136.7240 O   0  0  0  0  0  0  0  0  0  0  0  0
  186.1700  177.2920  144.9500 C   0  0  0  0  0  2  0  0  0  0  0  0
  184.6990  178.4930  143.2740 C   0  0  0  0  0  0  0  0  0  0  0  0
  185.5880  179.3700  143.0870 O   0  0  0  0  0  0  0  0  0  0  0  0
  184.9250  177.4350  144.2110 N   0  0  0  0  0  2  0  0  0  0  0  0
  183.4280  178.5650  142.5330 C   0  0  0  0  0  0  0  0  0  0  0  0
  179.4920  178.7740  140.2430 Cl  0  0  0  0  0  0  0  0  0  0  0  0
  181.0620  179.1250  142.4520 C   0  0  0  0  0  3  0  0  0  0  0  0
  181.0040  178.6930  141.1240 C   0  0  0  0  0  0  0  0  0  0  0  0
  182.2720  179.0630  143.1540 C   0  0  0  0  0  3  0  0  0  0  0  0
  182.1490  178.1920  140.4990 C   0  0  0  0  0  3  0  0  0  0  0  0
  183.3560  178.1260  141.2020 C   0  0  0  0  0  3  0  0  0  0  0  0
  193.8450  172.5910  145.5770 C   0  0  0  0  0  2  0  0  0  0  0  0
  194.4880  171.7520  144.6640 O   0  0  0  0  0  0  0  0  0  0  0  0
  196.0290  169.8060  143.5760 C   0  0  0  0  0  1  0  0  0  0  0  0
  197.9000  170.6550  145.0180 C   0  0  0  0  0  1  0  0  0  0  0  0
  197.9090  171.9320  142.0400 O   0  0  0  0  0  0  0  0  0  0  0  0
  196.7360  171.0410  144.1240 C   0  0  0  0  0  0  0  0  0  0  0  0
  197.1700  171.9760  143.0100 C   0  0  0  0  0  0  0  0  0  0  0  0
  195.8460  172.0680  144.7820 C   0  0  1  0  0  3  0  0  0  0  0  0
  196.2420  172.9940  143.6680 C   0  0  1  0  0  3  0  0  0  0  0  0
  196.9530  174.2560  144.1970 C   0  0  0  0  0  0  0  0  0  0  0  0
  196.0030  175.4000  144.4860 C   0  0  0  0  0  2  0  0  0  0  0  0
  197.6770  175.1030  143.1640 C   0  0  0  0  0  2  0  0  0  0  0  0
  196.7320  176.2550  143.4630 C   0  0  0  0  0  2  0  0  0  0  0  0
  197.7570  173.9870  145.2890 F   0  0  0  0  0  0  0  0  0  0  0  0
  1 14  1  0  0  0  0
  1 29  1  1  0  0  0
  3 16  1  6  0  0  0
  3  1  1  0  0  0  0
  3 14  1  0  0  0  0
  4  7  1  0  0  0  0
  4 10  1  1  0  0  0
  5  2  1  1  0  0  0
  5  7  1  0  0  0  0
  6 11  1  0  0  0  0
  9  2  1  0  0  0  0
 11  9  1  0  0  0  0
 11 40  1  6  0  0  0
 12 15  1  0  0  0  0
 12  8  1  0  0  0  0
 13  8  1  6  0  0  0
 13 14  1  0  0  0  0
 13  5  1  0  0  0  0
 14  4  1  0  0  0  0
 15  6  1  0  0  0  0
 17 16  2  0  0  0  0
 18 17  1  0  0  0  0
 19 18  2  0  0  0  0
 20 21  1  0  0  0  0
 20 19  1  0  0  0  0
 22 24  1  0  0  0  0
 23 22  1  0  0  0  0
 23 24  1  0  0  0  0
 24 21  1  0  0  0  0
 26 24  1  0  0  0  0
 26 25  1  0  0  0  0
 27 26  1  0  0  0  0
 28 26  2  0  0  0  0
 30 32  1  0  0  0  0
 31 30  2  0  0  0  0
 32 29  1  0  0  0  0
 33 37  1  0  0  0  0
 33 30  1  0  0  0  0
 34 36  1  0  0  0  0
 35 37  2  0  0  0  0
 36 35  1  0  0  0  0
 38 36  2  0  0  0  0
 38 39  1  0  0  0  0
 39 33  2  0  0  0  0
 41 47  1  0  0  0  0
 41 40  1  0  0  0  0
 42 45  1  0  0  0  0
 44 46  2  0  0  0  0
 45 47  1  0  0  0  0
 45 43  1  0  0  0  0
 46 48  1  0  0  0  0
 46 45  1  0  0  0  0
 48 49  1  0  0  0  0
 48 47  1  0  0  0  0
 49 50  1  0  0  0  0
 49 53  1  0  0  0  0
 51 52  1  0  0  0  0
 51 49  1  0  0  0  0
 52 50  1  0  0  0  0
M  END
>  <MODEL>
1

>  <REMARK>
 VINA RESULT:      -6.9      0.000      0.000
  Name = 
  13 active torsions:
  status: ('A' for Active; 'I' for Inactive)
    1  A    between atoms: C_3  and  C_17
    2  A    between atoms: C_4  and  C_10
    3  A    between atoms: C_5  and  C_26
    4  A    between atoms: C_6  and  C_53
    5  A    between atoms: P_8  and  C_48
    6  A    between atoms: C_14  and  C_33
    7  A    between atoms: C_18  and  C_50
    8  A    between atoms: C_26  and  N_43
    9  A    between atoms: C_30  and  C_37
   10  A    between atoms: C_30  and  O_52
   11  A    between atoms: C_47  and  C_48
   12  A    between atoms: C_47  and  C_50
   13  A    between atoms: C_49  and  O_52
                            x       y       z     vdW  Elec       q    Type
                         _______ _______ _______ _____ _____    ______ ____

>  <TORSDO>
F 13

$$$$
=
 OpenBabel11042414543D

 53 59  0  0  1  0  0  0  0  0999 V2000
  189.1960  174.8570  141.1740 C   0  0  1  0  0  3  0  0  0  0  0  0
  191.8000  171.9870  137.9320 C   0  0  0  0  0  2  0  0  0  0  0  0
  189.0050  173.4350  141.7040 C   0  0  1  0  0  3  0  0  0  0  0  0
  188.5510  173.0840  139.2570 C   0  0  2  0  0  3  0  0  0  0  0  0
  190.8050  172.0630  139.0750 C   0  0  2  0  0  3  0  0  0  0  0  0
  194.6760  171.6480  139.6130 C   0  0  0  0  0  2  0  0  0  0  0  0
  189.3720  172.0160  138.5370 C   0  0  0  0  0  2  0  0  0  0  0  0
  192.0980  173.5110  140.8170 C   0  0  0  0  0  2  0  0  0  0  0  0
  192.8040  171.0680  138.2520 O   0  0  0  0  0  0  0  0  0  0  0  0
  188.1840  174.0620  138.3310 O   0  0  0  0  0  1  0  0  0  0  0  0
  193.9930  171.8020  138.2590 C   0  0  2  0  0  3  0  0  0  0  0  0
  192.8040  172.3120  140.9560 O   0  0  0  0  0  0  0  0  0  0  0  0
  190.9360  173.3810  139.8200 C   0  0  2  0  0  3  0  0  0  0  0  0
  189.5120  173.6670  140.2760 C   0  0  1  0  0  0  0  0  0  0  0  0
  194.1200  172.6400  140.6240 C   0  0  0  0  0  2  0  0  0  0  0  0
  190.0350  173.1520  142.7410 C   0  0  0  0  0  3  0  0  0  0  0  0
  190.1440  173.9360  143.8030 C   0  0  0  0  0  3  0  0  0  0  0  0
  191.1450  173.6400  144.8210 C   0  0  0  0  0  3  0  0  0  0  0  0
  192.4020  174.0130  144.6430 C   0  0  0  0  0  3  0  0  0  0  0  0
  193.4170  173.7170  145.6870 C   0  0  0  0  0  2  0  0  0  0  0  0
  194.4110  174.8600  145.7660 C   0  0  0  0  0  2  0  0  0  0  0  0
  196.8200  174.0590  145.5600 C   0  0  0  0  0  2  0  0  0  0  0  0
  195.9630  173.2280  144.8030 O   0  0  0  0  0  0  0  0  0  0  0  0
  195.6200  174.5850  144.8890 C   0  0  1  0  0  0  0  0  0  0  0  0
  194.3940  175.8560  142.6340 O   0  0  0  0  0  1  0  0  0  0  0  0
  195.8900  175.5040  143.3410 P   0  0  0  0  0  0  0  0  0  0  0  0
  196.6250  176.7950  143.6230 O   0  0  0  0  0  1  0  0  0  0  0  0
  196.8050  174.5640  142.2740 O   0  0  0  0  0  0  0  0  0  0  0  0
  187.8380  175.4800  140.8810 C   0  0  0  0  0  2  0  0  0  0  0  0
  187.4370  177.1970  142.6980 C   0  0  0  0  0  0  0  0  0  0  0  0
  188.2470  177.9980  142.1540 O   0  0  0  0  0  0  0  0  0  0  0  0
  187.2040  175.9100  142.1170 N   0  0  0  0  0  2  0  0  0  0  0  0
  186.7390  177.5860  143.9360 C   0  0  0  0  0  0  0  0  0  0  0  0
  184.5680  178.7860  147.7610 Cl  0  0  0  0  0  0  0  0  0  0  0  0
  185.9880  177.0590  146.1890 C   0  0  0  0  0  3  0  0  0  0  0  0
  185.4010  178.3230  146.2910 C   0  0  0  0  0  0  0  0  0  0  0  0
  186.6570  176.6920  145.0160 C   0  0  0  0  0  3  0  0  0  0  0  0
  185.4750  179.2180  145.2200 C   0  0  0  0  0  3  0  0  0  0  0  0
  186.1390  178.8500  144.0460 C   0  0  0  0  0  3  0  0  0  0  0  0
  194.9030  171.2790  137.1620 C   0  0  0  0  0  2  0  0  0  0  0  0
  195.9040  172.2120  136.8830 O   0  0  0  0  0  0  0  0  0  0  0  0
  197.7590  173.9270  137.8670 C   0  0  0  0  0  1  0  0  0  0  0  0
  195.8540  175.2030  138.8880 C   0  0  0  0  0  1  0  0  0  0  0  0
  196.7460  176.3500  135.9910 O   0  0  0  0  0  0  0  0  0  0  0  0
  196.3450  174.4600  137.6590 C   0  0  0  0  0  0  0  0  0  0  0  0
  196.2490  175.3170  136.4100 C   0  0  0  0  0  0  0  0  0  0  0  0
  195.3290  173.4540  137.1750 C   0  0  1  0  0  3  0  0  0  0  0  0
  195.2470  174.2740  135.9190 C   0  0  1  0  0  3  0  0  0  0  0  0
  193.8250  174.8200  135.6830 C   0  0  0  0  0  0  0  0  0  0  0  0
  193.7430  175.7910  134.5220 C   0  0  0  0  0  2  0  0  0  0  0  0
  193.3530  175.9030  136.6370 C   0  0  0  0  0  2  0  0  0  0  0  0
  193.2580  176.8730  135.4710 C   0  0  0  0  0  2  0  0  0  0  0  0
  192.8900  173.8100  135.5550 F   0  0  0  0  0  0  0  0  0  0  0  0
  1 29  1  6  0  0  0
  1  3  1  0  0  0  0
  2  9  1  0  0  0  0
  3 16  1  1  0  0  0
  4 10  1  6  0  0  0
  4 14  1  0  0  0  0
  5  2  1  6  0  0  0
  5 13  1  0  0  0  0
  6 15  1  0  0  0  0
  7  5  1  0  0  0  0
  7  4  1  0  0  0  0
  8 12  1  0  0  0  0
  9 11  1  0  0  0  0
 11 40  1  6  0  0  0
 11  6  1  0  0  0  0
 13 14  1  0  0  0  0
 13  8  1  1  0  0  0
 14  1  1  0  0  0  0
 14  3  1  0  0  0  0
 15 12  1  0  0  0  0
 16 17  2  0  0  0  0
 17 18  1  0  0  0  0
 19 18  2  0  0  0  0
 19 20  1  0  0  0  0
 20 21  1  0  0  0  0
 23 24  1  0  0  0  0
 23 22  1  0  0  0  0
 24 22  1  0  0  0  0
 24 21  1  0  0  0  0
 25 26  1  0  0  0  0
 26 27  1  0  0  0  0
 26 24  1  0  0  0  0
 28 26  2  0  0  0  0
 29 32  1  0  0  0  0
 30 33  1  0  0  0  0
 31 30  2  0  0  0  0
 32 30  1  0  0  0  0
 33 39  2  0  0  0  0
 33 37  1  0  0  0  0
 35 36  1  0  0  0  0
 36 34  1  0  0  0  0
 37 35  2  0  0  0  0
 38 36  2  0  0  0  0
 39 38  1  0  0  0  0
 41 40  1  0  0  0  0
 41 47  1  0  0  0  0
 44 46  2  0  0  0  0
 45 42  1  0  0  0  0
 45 43  1  0  0  0  0
 46 45  1  0  0  0  0
 47 45  1  0  0  0  0
 48 46  1  0  0  0  0
 48 47  1  0  0  0  0
 49 48  1  0  0  0  0
 49 51  1  0  0  0  0
 50 52  1  0  0  0  0
 50 49  1  0  0  0  0
 52 51  1  0  0  0  0
 53 49  1  0  0  0  0
M  END
>  <MODEL>
2

>  <REMARK>
 VINA RESULT:      -6.9      4.015      7.163
  Name = 
  13 active torsions:
  status: ('A' for Active; 'I' for Inactive)
    1  A    between atoms: C_3  and  C_17
    2  A    between atoms: C_4  and  C_10
    3  A    between atoms: C_5  and  C_26
    4  A    between atoms: C_6  and  C_53
    5  A    between atoms: P_8  and  C_48
    6  A    between atoms: C_14  and  C_33
    7  A    between atoms: C_18  and  C_50
    8  A    between atoms: C_26  and  N_43
    9  A    between atoms: C_30  and  C_37
   10  A    between atoms: C_30  and  O_52
   11  A    between atoms: C_47  and  C_48
   12  A    between atoms: C_47  and  C_50
   13  A    between atoms: C_49  and  O_52
                            x       y       z     vdW  Elec       q    Type
                         _______ _______ _______ _____ _____    ______ ____

>  <TORSDO>
F 13

$$$$
=
 OpenBabel11042414543D

 53 59  0  0  1  0  0  0  0  0999 V2000
  190.0190  173.4710  139.7480 C   0  0  1  0  0  3  0  0  0  0  0  0
  192.0690  173.1010  144.3520 C   0  0  0  0  0  2  0  0  0  0  0  0
  188.8200  173.2370  140.6690 C   0  0  1  0  0  3  0  0  0  0  0  0
  190.4020  171.4730  141.5070 C   0  0  2  0  0  3  0  0  0  0  0  0
  190.8490  172.9300  143.4660 C   0  0  2  0  0  3  0  0  0  0  0  0
  191.6190  176.2290  145.4580 C   0  0  0  0  0  2  0  0  0  0  0  0
  190.7280  171.4760  143.0000 C   0  0  0  0  0  2  0  0  0  0  0  0
  190.6750  175.2730  142.3340 C   0  0  0  0  0  2  0  0  0  0  0  0
  191.7200  173.8440  145.4820 O   0  0  0  0  0  0  0  0  0  0  0  0
  191.4870  170.9330  140.8160 O   0  0  0  0  0  1  0  0  0  0  0  0
  192.5130  174.9940  145.4310 C   0  0  2  0  0  3  0  0  0  0  0  0
  190.2190  175.6100  143.6130 O   0  0  0  0  0  0  0  0  0  0  0  0
  190.9720  173.7710  142.2060 C   0  0  2  0  0  3  0  0  0  0  0  0
  190.2420  172.9410  141.1600 C   0  0  1  0  0  0  0  0  0  0  0  0
  191.1220  176.5750  144.0620 C   0  0  0  0  0  2  0  0  0  0  0  0
  188.2360  174.5480  141.0630 C   0  0  0  0  0  3  0  0  0  0  0  0
  187.3840  174.6220  142.0750 C   0  0  0  0  0  3  0  0  0  0  0  0
  186.8310  175.9130  142.4620 C   0  0  0  0  0  3  0  0  0  0  0  0
  186.7800  176.9030  141.5850 C   0  0  0  0  0  3  0  0  0  0  0  0
  186.2060  178.2150  141.9820 C   0  0  0  0  0  2  0  0  0  0  0  0
  186.7320  178.6050  143.3490 C   0  0  0  0  0  2  0  0  0  0  0  0
  184.5660  179.4740  144.3700 C   0  0  0  0  0  2  0  0  0  0  0  0
  184.3830  178.1600  143.8810 O   0  0  0  0  0  0  0  0  0  0  0  0
  185.6460  178.4750  144.4030 C   0  0  1  0  0  0  0  0  0  0  0  0
  184.6500  176.7600  146.4700 O   0  0  0  0  0  1  0  0  0  0  0  0
  185.9840  177.6940  146.0130 P   0  0  0  0  0  0  0  0  0  0  0  0
  187.2050  176.8070  145.9150 O   0  0  0  0  0  0  0  0  0  0  0  0
  186.2550  178.8890  147.1780 O   0  0  0  0  0  1  0  0  0  0  0  0
  190.0700  172.3800  138.6880 C   0  0  0  0  0  2  0  0  0  0  0  0
  191.7160  173.2340  136.9630 C   0  0  0  0  0  0  0  0  0  0  0  0
  190.8560  174.0360  136.5030 O   0  0  0  0  0  0  0  0  0  0  0  0
  191.3750  172.3630  138.0460 N   0  0  0  0  0  2  0  0  0  0  0  0
  193.0670  173.1900  136.3760 C   0  0  0  0  0  0  0  0  0  0  0  0
  197.2510  173.0640  134.5710 Cl  0  0  0  0  0  0  0  0  0  0  0  0
  195.2540  172.1410  136.1920 C   0  0  0  0  0  3  0  0  0  0  0  0
  195.6440  173.1130  135.2660 C   0  0  0  0  0  0  0  0  0  0  0  0
  193.9680  172.1790  136.7440 C   0  0  0  0  0  3  0  0  0  0  0  0
  194.7540  174.1250  134.8970 C   0  0  0  0  0  3  0  0  0  0  0  0
  193.4710  174.1650  135.4520 C   0  0  0  0  0  3  0  0  0  0  0  0
  193.4420  175.0060  146.6330 C   0  0  0  0  0  2  0  0  0  0  0  0
  194.7120  175.4450  146.2530 O   0  0  0  0  0  0  0  0  0  0  0  0
  195.5920  177.2450  144.4270 C   0  0  0  0  0  1  0  0  0  0  0  0
  194.8040  175.6480  142.6580 C   0  0  0  0  0  1  0  0  0  0  0  0
  197.9400  175.2870  143.3920 O   0  0  0  0  0  0  0  0  0  0  0  0
  195.5110  175.7850  143.9950 C   0  0  0  0  0  0  0  0  0  0  0  0
  196.8790  175.1300  143.9750 C   0  0  0  0  0  0  0  0  0  0  0  0
  194.9510  174.8270  145.0200 C   0  0  1  0  0  3  0  0  0  0  0  0
  196.3100  174.1890  145.0350 C   0  0  1  0  0  3  0  0  0  0  0  0
  196.2540  172.7090  144.6070 C   0  0  0  0  0  0  0  0  0  0  0  0
  195.5040  171.8320  145.5890 C   0  0  0  0  0  2  0  0  0  0  0  0
  197.5180  171.8960  144.8290 C   0  0  0  0  0  2  0  0  0  0  0  0
  196.7620  171.0090  145.8040 C   0  0  0  0  0  2  0  0  0  0  0  0
  195.7650  172.5520  143.3230 F   0  0  0  0  0  0  0  0  0  0  0  0
  1 29  1  6  0  0  0
  1  3  1  0  0  0  0
  1 14  1  0  0  0  0
  2  9  1  0  0  0  0
  3 16  1  1  0  0  0
  3 14  1  0  0  0  0
  4 10  1  6  0  0  0
  4  7  1  0  0  0  0
  5  7  1  6  0  0  0
  5  2  1  0  0  0  0
  8 12  1  0  0  0  0
 11  6  1  0  0  0  0
 11  9  1  0  0  0  0
 11 40  1  1  0  0  0
 12 15  1  0  0  0  0
 13  8  1  1  0  0  0
 13  5  1  0  0  0  0
 14  4  1  0  0  0  0
 14 13  1  0  0  0  0
 15  6  1  0  0  0  0
 16 17  2  0  0  0  0
 17 18  1  0  0  0  0
 19 20  1  0  0  0  0
 19 18  2  0  0  0  0
 20 21  1  0  0  0  0
 21 24  1  0  0  0  0
 22 24  1  0  0  0  0
 23 22  1  0  0  0  0
 23 24  1  0  0  0  0
 24 26  1  0  0  0  0
 26 25  1  0  0  0  0
 26 28  1  0  0  0  0
 27 26  2  0  0  0  0
 30 32  1  0  0  0  0
 31 30  2  0  0  0  0
 32 29  1  0  0  0  0
 33 37  1  0  0  0  0
 33 30  1  0  0  0  0
 34 36  1  0  0  0  0
 35 37  2  0  0  0  0
 36 35  1  0  0  0  0
 38 36  2  0  0  0  0
 38 39  1  0  0  0  0
 39 33  2  0  0  0  0
 41 40  1  0  0  0  0
 43 45  1  0  0  0  0
 44 46  2  0  0  0  0
 45 42  1  0  0  0  0
 45 47  1  0  0  0  0
 46 45  1  0  0  0  0
 46 48  1  0  0  0  0
 47 48  1  0  0  0  0
 47 41  1  0  0  0  0
 49 51  1  0  0  0  0
 49 48  1  0  0  0  0
 49 50  1  0  0  0  0
 50 52  1  0  0  0  0
 51 52  1  0  0  0  0
 53 49  1  0  0  0  0
M  END
>  <MODEL>
3

>  <REMARK>
 VINA RESULT:      -6.9      4.157      8.376
  Name = 
  13 active torsions:
  status: ('A' for Active; 'I' for Inactive)
    1  A    between atoms: C_3  and  C_17
    2  A    between atoms: C_4  and  C_10
    3  A    between atoms: C_5  and  C_26
    4  A    between atoms: C_6  and  C_53
    5  A    between atoms: P_8  and  C_48
    6  A    between atoms: C_14  and  C_33
    7  A    between atoms: C_18  and  C_50
    8  A    between atoms: C_26  and  N_43
    9  A    between atoms: C_30  and  C_37
   10  A    between atoms: C_30  and  O_52
   11  A    between atoms: C_47  and  C_48
   12  A    between atoms: C_47  and  C_50
   13  A    between atoms: C_49  and  O_52
                            x       y       z     vdW  Elec       q    Type
                         _______ _______ _______ _____ _____    ______ ____

>  <TORSDO>
F 13

$$$$
=
 OpenBabel11042414543D

 53 59  0  0  1  0  0  0  0  0999 V2000
  186.9620  176.4850  143.3230 C   0  0  1  0  0  3  0  0  0  0  0  0
  191.4470  175.4350  145.4010 C   0  0  0  0  0  2  0  0  0  0  0  0
  187.9690  177.1700  142.3960 C   0  0  1  0  0  3  0  0  0  0  0  0
  188.8290  177.9030  144.6410 C   0  0  2  0  0  3  0  0  0  0  0  0
  190.6510  176.2370  144.3880 C   0  0  2  0  0  3  0  0  0  0  0  0
  192.3580  172.7970  143.5510 C   0  0  0  0  0  2  0  0  0  0  0  0
  190.2950  177.6130  144.9590 C   0  0  0  0  0  2  0  0  0  0  0  0
  189.3720  174.3610  143.1040 C   0  0  0  0  0  2  0  0  0  0  0  0
  192.5420  174.8430  144.7660 O   0  0  0  0  0  0  0  0  0  0  0  0
  188.1120  177.9310  145.8380 O   0  0  0  0  0  1  0  0  0  0  0  0
  192.3630  173.4660  144.9210 C   0  0  2  0  0  3  0  0  0  0  0  0
  190.6490  174.1640  142.5710 O   0  0  0  0  0  0  0  0  0  0  0  0
  189.3310  175.5530  144.0730 C   0  0  2  0  0  3  0  0  0  0  0  0
  188.3910  176.7200  143.7990 C   0  0  1  0  0  0  0  0  0  0  0  0
  190.9750  172.8520  142.9200 C   0  0  0  0  0  2  0  0  0  0  0  0
  188.3060  176.2560  141.2700 C   0  0  0  0  0  3  0  0  0  0  0  0
  187.4890  176.1470  140.2330 C   0  0  0  0  0  3  0  0  0  0  0  0
  187.8370  175.2620  139.1290 C   0  0  0  0  0  3  0  0  0  0  0  0
  188.3330  174.0600  139.3730 C   0  0  0  0  0  3  0  0  0  0  0  0
  188.6770  173.1570  138.2440 C   0  0  0  0  0  2  0  0  0  0  0  0
  189.9050  173.6870  137.5280 C   0  0  0  0  0  2  0  0  0  0  0  0
  192.4030  173.8460  137.9970 C   0  0  0  0  0  2  0  0  0  0  0  0
  191.6880  173.7030  139.2080 O   0  0  0  0  0  0  0  0  0  0  0  0
  191.1680  173.0500  138.0810 C   0  0  1  0  0  0  0  0  0  0  0  0
  190.4220  170.5420  136.9150 O   0  0  0  0  0  0  0  0  0  0  0  0
  191.3670  171.2400  138.1310 P   0  0  0  0  0  0  0  0  0  0  0  0
  192.8170  170.8700  137.9120 O   0  0  0  0  0  1  0  0  0  0  0  0
  190.8640  170.6560  139.6360 O   0  0  0  0  0  1  0  0  0  0  0  0
  185.9790  177.5150  143.8610 C   0  0  0  0  0  2  0  0  0  0  0  0
  183.7360  178.5060  143.2290 C   0  0  0  0  0  0  0  0  0  0  0  0
  183.8020  179.3280  144.1850 O   0  0  0  0  0  0  0  0  0  0  0  0
  184.7890  177.5580  143.0270 N   0  0  0  0  0  2  0  0  0  0  0  0
  182.5690  178.5180  142.3290 C   0  0  0  0  0  0  0  0  0  0  0  0
  178.9640  178.5690  139.5400 Cl  0  0  0  0  0  0  0  0  0  0  0  0
  181.5360  177.9320  140.2070 C   0  0  0  0  0  3  0  0  0  0  0  0
  180.3500  178.5500  140.6110 C   0  0  0  0  0  0  0  0  0  0  0  0
  182.6420  177.9140  141.0640 C   0  0  0  0  0  3  0  0  0  0  0  0
  180.2700  179.1570  141.8670 C   0  0  0  0  0  3  0  0  0  0  0  0
  181.3760  179.1430  142.7230 C   0  0  0  0  0  3  0  0  0  0  0  0
  193.5010  172.9110  145.7600 C   0  0  0  0  0  2  0  0  0  0  0  0
  193.8220  171.6180  145.3390 O   0  0  0  0  0  0  0  0  0  0  0  0
  194.6050  169.0230  145.3210 C   0  0  0  0  0  1  0  0  0  0  0  0
  196.6500  169.7620  146.5750 C   0  0  0  0  0  1  0  0  0  0  0  0
  197.1040  169.6250  143.3690 O   0  0  0  0  0  0  0  0  0  0  0  0
  195.6910  170.0870  145.4440 C   0  0  0  0  0  0  0  0  0  0  0  0
  196.4230  170.2930  144.1310 C   0  0  0  0  0  0  0  0  0  0  0  0
  195.2060  171.5150  145.5190 C   0  0  1  0  0  3  0  0  0  0  0  0
  195.8980  171.7250  144.2030 C   0  0  1  0  0  3  0  0  0  0  0  0
  196.9970  172.8020  144.2990 C   0  0  0  0  0  0  0  0  0  0  0  0
  196.4840  174.2040  144.0410 C   0  0  0  0  0  2  0  0  0  0  0  0
  197.9350  172.9130  143.1100 C   0  0  0  0  0  2  0  0  0  0  0  0
  197.4300  174.3240  142.8580 C   0  0  0  0  0  2  0  0  0  0  0  0
  197.6920  172.7370  145.4930 F   0  0  0  0  0  0  0  0  0  0  0  0
  1 14  1  0  0  0  0
  1 29  1  1  0  0  0
  3 16  1  6  0  0  0
  3  1  1  0  0  0  0
  3 14  1  0  0  0  0
  4  7  1  0  0  0  0
  4 10  1  1  0  0  0
  5  7  1  1  0  0  0
  5  2  1  0  0  0  0
  6 11  1  0  0  0  0
  9 11  1  0  0  0  0
  9  2  1  0  0  0  0
 11 40  1  1  0  0  0
 12 15  1  0  0  0  0
 12  8  1  0  0  0  0
 13  8  1  6  0  0  0
 13  5  1  0  0  0  0
 14 13  1  0  0  0  0
 14  4  1  0  0  0  0
 15  6  1  0  0  0  0
 17 16  2  0  0  0  0
 18 19  2  0  0  0  0
 18 17  1  0  0  0  0
 20 19  1  0  0  0  0
 21 24  1  0  0  0  0
 21 20  1  0  0  0  0
 22 24  1  0  0  0  0
 22 23  1  0  0  0  0
 24 26  1  0  0  0  0
 24 23  1  0  0  0  0
 25 26  2  0  0  0  0
 26 28  1  0  0  0  0
 27 26  1  0  0  0  0
 30 31  2  0  0  0  0
 32 30  1  0  0  0  0
 32 29  1  0  0  0  0
 33 39  1  0  0  0  0
 33 30  1  0  0  0  0
 34 36  1  0  0  0  0
 35 36  2  0  0  0  0
 35 37  1  0  0  0  0
 36 38  1  0  0  0  0
 37 33  2  0  0  0  0
 38 39  2  0  0  0  0
 41 47  1  0  0  0  0
 41 40  1  0  0  0  0
 42 45  1  0  0  0  0
 44 46  2  0  0  0  0
 45 47  1  0  0  0  0
 45 43  1  0  0  0  0
 46 48  1  0  0  0  0
 46 45  1  0  0  0  0
 48 49  1  0  0  0  0
 48 47  1  0  0  0  0
 49 53  1  0  0  0  0
 50 49  1  0  0  0  0
 51 49  1  0  0  0  0
 52 51  1  0  0  0  0
 52 50  1  0  0  0  0
M  END
>  <MODEL>
4

>  <REMARK>
 VINA RESULT:      -6.4      1.246      1.819
  Name = 
  13 active torsions:
  status: ('A' for Active; 'I' for Inactive)
    1  A    between atoms: C_3  and  C_17
    2  A    between atoms: C_4  and  C_10
    3  A    between atoms: C_5  and  C_26
    4  A    between atoms: C_6  and  C_53
    5  A    between atoms: P_8  and  C_48
    6  A    between atoms: C_14  and  C_33
    7  A    between atoms: C_18  and  C_50
    8  A    between atoms: C_26  and  N_43
    9  A    between atoms: C_30  and  C_37
   10  A    between atoms: C_30  and  O_52
   11  A    between atoms: C_47  and  C_48
   12  A    between atoms: C_47  and  C_50
   13  A    between atoms: C_49  and  O_52
                            x       y       z     vdW  Elec       q    Type
                         _______ _______ _______ _____ _____    ______ ____

>  <TORSDO>
F 13

$$$$
=
 OpenBabel11042414543D

 53 59  0  0  1  0  0  0  0  0999 V2000
  190.4260  174.0460  144.6190 C   0  0  1  0  0  3  0  0  0  0  0  0
  194.8960  175.0700  142.4980 C   0  0  0  0  0  2  0  0  0  0  0  0
  190.0780  174.9760  143.4550 C   0  0  1  0  0  3  0  0  0  0  0  0
  192.0140  176.2120  144.4760 C   0  0  2  0  0  3  0  0  0  0  0  0
  193.4160  175.3860  142.6020 C   0  0  2  0  0  3  0  0  0  0  0  0
  194.8980  172.8350  140.0050 C   0  0  0  0  0  2  0  0  0  0  0  0
  193.1870  176.5580  143.5590 C   0  0  0  0  0  2  0  0  0  0  0  0
  192.3390  173.0380  142.2360 C   0  0  0  0  0  2  0  0  0  0  0  0
  195.2410  174.8990  141.1550 O   0  0  0  0  0  0  0  0  0  0  0  0
  192.4950  176.0750  145.7790 O   0  0  0  0  0  1  0  0  0  0  0  0
  195.7100  173.5860  141.0550 C   0  0  2  0  0  3  0  0  0  0  0  0
  192.7340  173.3090  140.9220 O   0  0  0  0  0  0  0  0  0  0  0  0
  192.6500  174.2070  143.1820 C   0  0  2  0  0  3  0  0  0  0  0  0
  191.5230  174.8730  143.9590 C   0  0  1  0  0  0  0  0  0  0  0  0
  193.6160  172.2750  140.6010 C   0  0  0  0  0  2  0  0  0  0  0  0
  189.7270  174.1620  142.2600 C   0  0  0  0  0  3  0  0  0  0  0  0
  188.6970  174.5030  141.5010 C   0  0  0  0  0  3  0  0  0  0  0  0
  188.3710  173.7080  140.3240 C   0  0  0  0  0  3  0  0  0  0  0  0
  189.3360  173.2710  139.5310 C   0  0  0  0  0  3  0  0  0  0  0  0
  189.0010  172.4520  138.3360 C   0  0  0  0  0  2  0  0  0  0  0  0
  189.5570  171.0520  138.5080 C   0  0  0  0  0  2  0  0  0  0  0  0
  191.9150  170.2490  137.9770 C   0  0  0  0  0  2  0  0  0  0  0  0
  190.9620  169.4100  137.3550 O   0  0  0  0  0  0  0  0  0  0  0  0
  190.6330  170.7680  137.4740 C   0  0  1  0  0  0  0  0  0  0  0  0
  189.1480  171.6360  135.1840 O   0  0  0  0  0  1  0  0  0  0  0  0
  190.6820  171.6710  135.8940 P   0  0  0  0  0  0  0  0  0  0  0  0
  191.0940  173.1070  136.1270 O   0  0  0  0  0  1  0  0  0  0  0  0
  191.7960  170.9350  134.8550 O   0  0  0  0  0  0  0  0  0  0  0  0
  189.9280  174.6530  145.9240 C   0  0  0  0  0  2  0  0  0  0  0  0
  188.4000  176.6650  146.0910 C   0  0  0  0  0  0  0  0  0  0  0  0
  189.3070  177.3380  146.6540 O   0  0  0  0  0  0  0  0  0  0  0  0
  188.6450  175.3050  145.7180 N   0  0  0  0  0  2  0  0  0  0  0  0
  187.0870  177.2790  145.8260 C   0  0  0  0  0  0  0  0  0  0  0  0
  183.0290  179.1890  145.0130 Cl  0  0  0  0  0  0  0  0  0  0  0  0
  185.5940  178.5150  144.3560 C   0  0  0  0  0  3  0  0  0  0  0  0
  184.5890  178.4570  145.3250 C   0  0  0  0  0  0  0  0  0  0  0  0
  186.8390  177.9260  144.6050 C   0  0  0  0  0  3  0  0  0  0  0  0
  184.8280  177.8170  146.5450 C   0  0  0  0  0  3  0  0  0  0  0  0
  186.0730  177.2330  146.7950 C   0  0  0  0  0  3  0  0  0  0  0  0
  197.1730  173.6140  140.6500 C   0  0  0  0  0  2  0  0  0  0  0  0
  197.8480  172.5270  141.2100 O   0  0  0  0  0  0  0  0  0  0  0  0
  197.9380  169.8200  141.0960 C   0  0  0  0  0  1  0  0  0  0  0  0
  195.6210  169.8270  142.0610 C   0  0  0  0  0  1  0  0  0  0  0  0
  197.9360  169.5250  144.3100 O   0  0  0  0  0  0  0  0  0  0  0  0
  197.0040  170.4520  142.1220 C   0  0  0  0  0  0  0  0  0  0  0  0
  197.5860  170.3890  143.5220 C   0  0  0  0  0  0  0  0  0  0  0  0
  196.9330  171.9600  142.1050 C   0  0  1  0  0  3  0  0  0  0  0  0
  197.5390  171.9150  143.4780 C   0  0  1  0  0  3  0  0  0  0  0  0
  196.6150  172.5540  144.5340 C   0  0  0  0  0  0  0  0  0  0  0  0
  197.0080  173.9730  144.8900 C   0  0  0  0  0  2  0  0  0  0  0  0
  196.8360  172.1190  145.9730 C   0  0  0  0  0  2  0  0  0  0  0  0
  197.2180  173.5460  146.3330 C   0  0  0  0  0  2  0  0  0  0  0  0
  195.2810  172.4790  144.1780 F   0  0  0  0  0  0  0  0  0  0  0  0
  1 29  1  1  0  0  0
  3 16  1  6  0  0  0
  3 14  1  0  0  0  0
  3  1  1  0  0  0  0
  4 10  1  1  0  0  0
  5  2  1  1  0  0  0
  5 13  1  0  0  0  0
  5  7  1  0  0  0  0
  6 15  1  0  0  0  0
  6 11  1  0  0  0  0
  7  4  1  0  0  0  0
  9  2  1  0  0  0  0
 11 40  1  6  0  0  0
 11  9  1  0  0  0  0
 12  8  1  0  0  0  0
 13  8  1  6  0  0  0
 13 14  1  0  0  0  0
 14  4  1  0  0  0  0
 14  1  1  0  0  0  0
 15 12  1  0  0  0  0
 17 16  2  0  0  0  0
 18 17  1  0  0  0  0
 19 18  2  0  0  0  0
 20 21  1  0  0  0  0
 20 19  1  0  0  0  0
 23 24  1  0  0  0  0
 23 22  1  0  0  0  0
 24 22  1  0  0  0  0
 24 21  1  0  0  0  0
 25 26  1  0  0  0  0
 26 27  1  0  0  0  0
 26 24  1  0  0  0  0
 28 26  2  0  0  0  0
 30 31  2  0  0  0  0
 32 29  1  0  0  0  0
 32 30  1  0  0  0  0
 33 30  1  0  0  0  0
 33 39  1  0  0  0  0
 34 36  1  0  0  0  0
 35 37  1  0  0  0  0
 35 36  2  0  0  0  0
 36 38  1  0  0  0  0
 37 33  2  0  0  0  0
 38 39  2  0  0  0  0
 40 41  1  0  0  0  0
 41 47  1  0  0  0  0
 42 45  1  0  0  0  0
 43 45  1  0  0  0  0
 45 46  1  0  0  0  0
 46 44  2  0  0  0  0
 47 45  1  0  0  0  0
 47 48  1  0  0  0  0
 48 46  1  0  0  0  0
 48 49  1  0  0  0  0
 49 50  1  0  0  0  0
 49 51  1  0  0  0  0
 50 52  1  0  0  0  0
 51 52  1  0  0  0  0
 53 49  1  0  0  0  0
M  END
>  <MODEL>
5

>  <REMARK>
 VINA RESULT:      -6.3      2.536      3.883
  Name = 
  13 active torsions:
  status: ('A' for Active; 'I' for Inactive)
    1  A    between atoms: C_3  and  C_17
    2  A    between atoms: C_4  and  C_10
    3  A    between atoms: C_5  and  C_26
    4  A    between atoms: C_6  and  C_53
    5  A    between atoms: P_8  and  C_48
    6  A    between atoms: C_14  and  C_33
    7  A    between atoms: C_18  and  C_50
    8  A    between atoms: C_26  and  N_43
    9  A    between atoms: C_30  and  C_37
   10  A    between atoms: C_30  and  O_52
   11  A    between atoms: C_47  and  C_48
   12  A    between atoms: C_47  and  C_50
   13  A    between atoms: C_49  and  O_52
                            x       y       z     vdW  Elec       q    Type
                         _______ _______ _______ _____ _____    ______ ____

>  <TORSDO>
F 13

$$$$
=
 OpenBabel11042414543D

 53 59  0  0  1  0  0  0  0  0999 V2000
  187.1900  175.9550  142.8980 C   0  0  1  0  0  3  0  0  0  0  0  0
  192.2100  175.7080  143.4160 C   0  0  0  0  0  2  0  0  0  0  0  0
  187.7260  176.6070  141.6220 C   0  0  1  0  0  3  0  0  0  0  0  0
  189.1470  177.7410  143.3570 C   0  0  2  0  0  3  0  0  0  0  0  0
  191.0180  176.2660  142.6620 C   0  0  2  0  0  3  0  0  0  0  0  0
  192.8580  172.9490  141.6310 C   0  0  0  0  0  2  0  0  0  0  0  0
  190.6630  177.6610  143.1830 C   0  0  0  0  0  2  0  0  0  0  0  0
  189.6880  174.0980  142.0790 C   0  0  0  0  0  2  0  0  0  0  0  0
  193.1160  175.1550  142.5060 O   0  0  0  0  0  0  0  0  0  0  0  0
  188.8620  177.8610  144.7180 O   0  0  0  0  0  1  0  0  0  0  0  0
  193.2060  173.8020  142.8460 C   0  0  2  0  0  3  0  0  0  0  0  0
  190.7380  173.9680  141.1640 O   0  0  0  0  0  0  0  0  0  0  0  0
  189.7850  175.4040  142.8830 C   0  0  2  0  0  3  0  0  0  0  0  0
  188.6430  176.4100  142.8340 C   0  0  1  0  0  0  0  0  0  0  0  0
  191.3530  172.7620  141.5070 C   0  0  0  0  0  2  0  0  0  0  0  0
  187.8120  175.5860  140.5430 C   0  0  0  0  0  3  0  0  0  0  0  0
  187.7090  175.9460  139.2730 C   0  0  0  0  0  3  0  0  0  0  0  0
  187.8110  174.9400  138.2250 C   0  0  0  0  0  3  0  0  0  0  0  0
  188.7440  174.0040  138.2930 C   0  0  0  0  0  3  0  0  0  0  0  0
  188.8400  172.9740  137.2250 C   0  0  0  0  0  2  0  0  0  0  0  0
  189.9710  173.3280  136.2800 C   0  0  0  0  0  2  0  0  0  0  0  0
  192.5170  173.3800  136.3570 C   0  0  0  0  0  2  0  0  0  0  0  0
  191.9870  173.4550  137.6660 O   0  0  0  0  0  0  0  0  0  0  0  0
  191.2730  172.6890  136.7330 C   0  0  1  0  0  0  0  0  0  0  0  0
  191.0400  170.5650  138.6400 O   0  0  0  0  0  1  0  0  0  0  0  0
  191.3920  170.8950  137.0190 P   0  0  0  0  0  0  0  0  0  0  0  0
  190.4100  170.1600  136.1340 O   0  0  0  0  0  0  0  0  0  0  0  0
  192.9600  170.3670  136.6690 O   0  0  0  0  0  1  0  0  0  0  0  0
  186.2910  176.9380  143.6360 C   0  0  0  0  0  2  0  0  0  0  0  0
  184.1700  178.2410  143.1730 C   0  0  0  0  0  0  0  0  0  0  0  0
  184.4060  179.0170  144.1400 O   0  0  0  0  0  0  0  0  0  0  0  0
  185.0690  177.1660  142.8820 N   0  0  0  0  0  2  0  0  0  0  0  0
  182.9630  178.4380  142.3500 C   0  0  0  0  0  0  0  0  0  0  0  0
  179.2270  179.0370  139.8080 Cl  0  0  0  0  0  0  0  0  0  0  0  0
  180.7130  179.3210  142.0840 C   0  0  0  0  0  3  0  0  0  0  0  0
  180.6620  178.8060  140.7860 C   0  0  0  0  0  0  0  0  0  0  0  0
  181.8610  179.1390  142.8630 C   0  0  0  0  0  3  0  0  0  0  0  0
  181.7540  178.1040  140.2680 C   0  0  0  0  0  3  0  0  0  0  0  0
  182.9000  177.9180  141.0480 C   0  0  0  0  0  3  0  0  0  0  0  0
  194.6250  173.5000  143.2960 C   0  0  0  0  0  2  0  0  0  0  0  0
  194.6090  172.8520  144.5330 O   0  0  0  0  0  0  0  0  0  0  0  0
  196.8630  173.1210  146.0150 C   0  0  0  0  0  1  0  0  0  0  0  0
  197.9380  171.4780  144.4510 C   0  0  0  0  0  1  0  0  0  0  0  0
  196.7010  170.0870  147.1040 O   0  0  0  0  0  0  0  0  0  0  0  0
  196.6840  171.8240  145.2330 C   0  0  0  0  0  0  0  0  0  0  0  0
  196.2540  170.6830  146.1360 C   0  0  0  0  0  0  0  0  0  0  0  0
  195.4490  171.7440  144.3680 C   0  0  1  0  0  3  0  0  0  0  0  0
  194.9960  170.6340  145.2730 C   0  0  1  0  0  3  0  0  0  0  0  0
  194.8000  169.3120  144.5050 C   0  0  0  0  0  0  0  0  0  0  0  0
  193.7780  169.4140  143.3910 C   0  0  0  0  0  2  0  0  0  0  0  0
  193.9600  168.2510  145.1950 C   0  0  0  0  0  2  0  0  0  0  0  0
  192.9410  168.3440  144.0720 C   0  0  0  0  0  2  0  0  0  0  0  0
  195.9950  168.7940  144.0400 F   0  0  0  0  0  0  0  0  0  0  0  0
  1 29  1  1  0  0  0
  3 16  1  6  0  0  0
  3 14  1  0  0  0  0
  3  1  1  0  0  0  0
  4 10  1  1  0  0  0
  5 13  1  0  0  0  0
  5  7  1  1  0  0  0
  5  2  1  0  0  0  0
  6 11  1  0  0  0  0
  7  4  1  0  0  0  0
  9 11  1  0  0  0  0
  9  2  1  0  0  0  0
 11 40  1  6  0  0  0
 12 15  1  0  0  0  0
 12  8  1  0  0  0  0
 13  8  1  6  0  0  0
 14 13  1  0  0  0  0
 14  1  1  0  0  0  0
 14  4  1  0  0  0  0
 15  6  1  0  0  0  0
 17 16  2  0  0  0  0
 18 19  2  0  0  0  0
 18 17  1  0  0  0  0
 20 19  1  0  0  0  0
 21 24  1  0  0  0  0
 21 20  1  0  0  0  0
 22 24  1  0  0  0  0
 22 23  1  0  0  0  0
 24 26  1  0  0  0  0
 24 23  1  0  0  0  0
 26 25  1  0  0  0  0
 27 26  2  0  0  0  0
 28 26  1  0  0  0  0
 30 31  2  0  0  0  0
 32 30  1  0  0  0  0
 32 29  1  0  0  0  0
 33 37  1  0  0  0  0
 33 30  1  0  0  0  0
 34 36  1  0  0  0  0
 35 37  2  0  0  0  0
 36 35  1  0  0  0  0
 38 36  2  0  0  0  0
 38 39  1  0  0  0  0
 39 33  2  0  0  0  0
 40 41  1  0  0  0  0
 43 45  1  0  0  0  0
 45 42  1  0  0  0  0
 45 46  1  0  0  0  0
 46 44  2  0  0  0  0
 47 41  1  0  0  0  0
 47 45  1  0  0  0  0
 47 48  1  0  0  0  0
 48 46  1  0  0  0  0
 49 51  1  0  0  0  0
 49 48  1  0  0  0  0
 50 52  1  0  0  0  0
 50 49  1  0  0  0  0
 52 51  1  0  0  0  0
 53 49  1  0  0  0  0
M  END
>  <MODEL>
6

>  <REMARK>
 VINA RESULT:      -6.1      1.938      3.055
  Name = 
  13 active torsions:
  status: ('A' for Active; 'I' for Inactive)
    1  A    between atoms: C_3  and  C_17
    2  A    between atoms: C_4  and  C_10
    3  A    between atoms: C_5  and  C_26
    4  A    between atoms: C_6  and  C_53
    5  A    between atoms: P_8  and  C_48
    6  A    between atoms: C_14  and  C_33
    7  A    between atoms: C_18  and  C_50
    8  A    between atoms: C_26  and  N_43
    9  A    between atoms: C_30  and  C_37
   10  A    between atoms: C_30  and  O_52
   11  A    between atoms: C_47  and  C_48
   12  A    between atoms: C_47  and  C_50
   13  A    between atoms: C_49  and  O_52
                            x       y       z     vdW  Elec       q    Type
                         _______ _______ _______ _____ _____    ______ ____

>  <TORSDO>
F 13

$$$$
=
 OpenBabel11042414543D

 53 59  0  0  1  0  0  0  0  0999 V2000
  193.0020  175.2710  144.0440 C   0  0  1  0  0  3  0  0  0  0  0  0
  192.0290  173.0370  139.6170 C   0  0  0  0  0  2  0  0  0  0  0  0
  192.5140  176.4140  143.1520 C   0  0  1  0  0  3  0  0  0  0  0  0
  194.1470  175.2870  141.6100 C   0  0  2  0  0  3  0  0  0  0  0  0
  192.2050  174.3240  140.4000 C   0  0  2  0  0  3  0  0  0  0  0  0
  188.7260  172.5670  139.9000 C   0  0  0  0  0  2  0  0  0  0  0  0
  193.6320  174.8550  140.2370 C   0  0  0  0  0  2  0  0  0  0  0  0
  190.5630  173.9690  142.3950 C   0  0  0  0  0  2  0  0  0  0  0  0
  190.8290  173.0910  138.9020 O   0  0  0  0  0  0  0  0  0  0  0  0
  195.1900  174.4370  141.9800 O   0  0  0  0  0  1  0  0  0  0  0  0
  190.0580  172.0320  139.3880 C   0  0  2  0  0  3  0  0  0  0  0  0
  189.6320  174.2190  141.3830 O   0  0  0  0  0  0  0  0  0  0  0  0
  192.0090  174.0840  141.8880 C   0  0  2  0  0  3  0  0  0  0  0  0
  192.9590  175.0850  142.5310 C   0  0  1  0  0  0  0  0  0  0  0  0
  188.8500  173.0640  141.3330 C   0  0  0  0  0  2  0  0  0  0  0  0
  191.0510  176.6040  143.3490 C   0  0  0  0  0  3  0  0  0  0  0  0
  190.4730  177.7440  143.0010 C   0  0  0  0  0  3  0  0  0  0  0  0
  189.0380  177.9130  143.1830 C   0  0  0  0  0  3  0  0  0  0  0  0
  188.2570  176.8530  143.3190 C   0  0  0  0  0  3  0  0  0  0  0  0
  186.7940  177.0300  143.5140 C   0  0  0  0  0  2  0  0  0  0  0  0
  186.5230  178.4020  144.0990 C   0  0  0  0  0  2  0  0  0  0  0  0
  184.5610  179.0590  145.5850 C   0  0  0  0  0  2  0  0  0  0  0  0
  184.5520  177.6640  145.3520 O   0  0  0  0  0  0  0  0  0  0  0  0
  185.8050  178.2880  145.4330 C   0  0  1  0  0  0  0  0  0  0  0  0
  186.5920  179.2040  148.0300 O   0  0  0  0  0  1  0  0  0  0  0  0
  186.7150  177.8990  146.9620 P   0  0  0  0  0  0  0  0  0  0  0  0
  186.1350  176.6640  147.6120 O   0  0  0  0  0  1  0  0  0  0  0  0
  188.3440  177.6250  146.5990 O   0  0  0  0  0  0  0  0  0  0  0  0
  194.3970  175.5880  144.5640 C   0  0  0  0  0  2  0  0  0  0  0  0
  194.4380  173.1660  145.3020 C   0  0  0  0  0  0  0  0  0  0  0  0
  193.1840  173.1620  145.4410 O   0  0  0  0  0  0  0  0  0  0  0  0
  195.1070  174.3600  144.8820 N   0  0  0  0  0  2  0  0  0  0  0  0
  195.2120  171.9440  145.5780 C   0  0  0  0  0  0  0  0  0  0  0  0
  197.6110  168.1660  146.4460 Cl  0  0  0  0  0  0  0  0  0  0  0  0
  195.3200  169.6540  146.3930 C   0  0  0  0  0  3  0  0  0  0  0  0
  196.6890  169.6170  146.1140 C   0  0  0  0  0  0  0  0  0  0  0  0
  194.5840  170.8130  146.1240 C   0  0  0  0  0  3  0  0  0  0  0  0
  197.3240  170.7390  145.5730 C   0  0  0  0  0  3  0  0  0  0  0  0
  196.5890  171.8990  145.3090 C   0  0  0  0  0  3  0  0  0  0  0  0
  189.8140  171.0410  138.2630 C   0  0  0  0  0  2  0  0  0  0  0  0
  190.4880  171.4500  137.1090 O   0  0  0  0  0  0  0  0  0  0  0  0
  191.3140  171.6940  134.5390 C   0  0  0  0  0  1  0  0  0  0  0  0
  191.5660  169.1970  134.5140 C   0  0  0  0  0  1  0  0  0  0  0  0
  194.3170  170.7460  135.2470 O   0  0  0  0  0  0  0  0  0  0  0  0
  191.7810  170.4680  135.3160 C   0  0  0  0  0  0  0  0  0  0  0  0
  193.2220  170.6080  135.7690 C   0  0  0  0  0  0  0  0  0  0  0  0
  191.2420  170.3370  136.7210 C   0  0  1  0  0  3  0  0  0  0  0  0
  192.6600  170.5070  137.1850 C   0  0  1  0  0  3  0  0  0  0  0  0
  193.1530  169.2820  137.9800 C   0  0  0  0  0  0  0  0  0  0  0  0
  193.4070  169.5820  139.4430 C   0  0  0  0  0  2  0  0  0  0  0  0
  194.6120  168.9020  137.7930 C   0  0  0  0  0  2  0  0  0  0  0  0
  194.8640  169.1910  139.2640 C   0  0  0  0  0  2  0  0  0  0  0  0
  192.3190  168.1890  137.8320 F   0  0  0  0  0  0  0  0  0  0  0  0
  1 29  1  6  0  0  0
  3 16  1  1  0  0  0
  3  1  1  0  0  0  0
  4 10  1  1  0  0  0
  4 14  1  0  0  0  0
  5  2  1  6  0  0  0
  5 13  1  0  0  0  0
  6 15  1  0  0  0  0
  7  5  1  0  0  0  0
  7  4  1  0  0  0  0
  9 11  1  0  0  0  0
  9  2  1  0  0  0  0
 11 40  1  6  0  0  0
 11  6  1  0  0  0  0
 12  8  1  0  0  0  0
 13  8  1  1  0  0  0
 13 14  1  0  0  0  0
 14  3  1  0  0  0  0
 14  1  1  0  0  0  0
 15 12  1  0  0  0  0
 17 18  1  0  0  0  0
 17 16  2  0  0  0  0
 18 19  2  0  0  0  0
 19 20  1  0  0  0  0
 20 21  1  0  0  0  0
 21 24  1  0  0  0  0
 23 24  1  0  0  0  0
 23 22  1  0  0  0  0
 24 22  1  0  0  0  0
 24 26  1  0  0  0  0
 26 27  1  0  0  0  0
 26 25  1  0  0  0  0
 28 26  2  0  0  0  0
 29 32  1  0  0  0  0
 30 31  2  0  0  0  0
 30 33  1  0  0  0  0
 32 30  1  0  0  0  0
 33 37  1  0  0  0  0
 36 35  1  0  0  0  0
 36 34  1  0  0  0  0
 37 35  2  0  0  0  0
 38 36  2  0  0  0  0
 39 38  1  0  0  0  0
 39 33  2  0  0  0  0
 41 40  1  0  0  0  0
 42 45  1  0  0  0  0
 43 45  1  0  0  0  0
 44 46  2  0  0  0  0
 45 46  1  0  0  0  0
 45 47  1  0  0  0  0
 46 48  1  0  0  0  0
 47 41  1  0  0  0  0
 47 48  1  0  0  0  0
 48 49  1  0  0  0  0
 49 50  1  0  0  0  0
 51 49  1  0  0  0  0
 51 52  1  0  0  0  0
 52 50  1  0  0  0  0
 53 49  1  0  0  0  0
M  END
>  <MODEL>
7

>  <REMARK>
 VINA RESULT:      -6.0      4.650     10.015
  Name = 
  13 active torsions:
  status: ('A' for Active; 'I' for Inactive)
    1  A    between atoms: C_3  and  C_17
    2  A    between atoms: C_4  and  C_10
    3  A    between atoms: C_5  and  C_26
    4  A    between atoms: C_6  and  C_53
    5  A    between atoms: P_8  and  C_48
    6  A    between atoms: C_14  and  C_33
    7  A    between atoms: C_18  and  C_50
    8  A    between atoms: C_26  and  N_43
    9  A    between atoms: C_30  and  C_37
   10  A    between atoms: C_30  and  O_52
   11  A    between atoms: C_47  and  C_48
   12  A    between atoms: C_47  and  C_50
   13  A    between atoms: C_49  and  O_52
                            x       y       z     vdW  Elec       q    Type
                         _______ _______ _______ _____ _____    ______ ____

>  <TORSDO>
F 13

$$$$
=
 OpenBabel11042414543D

 53 59  0  0  1  0  0  0  0  0999 V2000
  187.5060  175.4910  142.9900 C   0  0  1  0  0  3  0  0  0  0  0  0
  191.9240  173.6430  144.6030 C   0  0  0  0  0  2  0  0  0  0  0  0
  188.4840  175.8390  141.8670 C   0  0  1  0  0  3  0  0  0  0  0  0
  189.8070  176.5610  143.8780 C   0  0  2  0  0  3  0  0  0  0  0  0
  191.1740  174.5080  143.6070 C   0  0  2  0  0  3  0  0  0  0  0  0
  191.9640  170.7070  142.9950 C   0  0  0  0  0  2  0  0  0  0  0  0
  191.2090  175.9750  144.0430 C   0  0  0  0  0  2  0  0  0  0  0  0
  189.3470  172.8630  142.7360 C   0  0  0  0  0  2  0  0  0  0  0  0
  192.7600  172.7610  143.9150 O   0  0  0  0  0  0  0  0  0  0  0  0
  189.3010  176.8640  145.1420 O   0  0  0  0  0  1  0  0  0  0  0  0
  192.3170  171.4810  144.2600 C   0  0  2  0  0  3  0  0  0  0  0  0
  190.4590  172.3300  142.0750 O   0  0  0  0  0  0  0  0  0  0  0  0
  189.7060  174.1170  143.5470 C   0  0  2  0  0  3  0  0  0  0  0  0
  189.0070  175.4360  143.2510 C   0  0  1  0  0  0  0  0  0  0  0  0
  190.5460  171.0170  142.5410 C   0  0  0  0  0  2  0  0  0  0  0  0
  188.4460  174.7720  140.8300 C   0  0  0  0  0  3  0  0  0  0  0  0
  188.1990  175.0790  139.5660 C   0  0  0  0  0  3  0  0  0  0  0  0
  188.1800  174.0290  138.5560 C   0  0  0  0  0  3  0  0  0  0  0  0
  189.1860  173.1730  138.4710 C   0  0  0  0  0  3  0  0  0  0  0  0
  189.1580  172.0970  137.4450 C   0  0  0  0  0  2  0  0  0  0  0  0
  190.2660  172.3310  136.4360 C   0  0  0  0  0  2  0  0  0  0  0  0
  191.1880  169.9850  136.0720 C   0  0  0  0  0  2  0  0  0  0  0  0
  192.0160  170.9380  135.4370 O   0  0  0  0  0  0  0  0  0  0  0  0
  191.3930  171.3310  136.6300 C   0  0  1  0  0  0  0  0  0  0  0  0
  192.8710  173.0930  138.3370 O   0  0  0  0  0  1  0  0  0  0  0  0
  192.5370  171.4620  138.0410 P   0  0  0  0  0  0  0  0  0  0  0  0
  191.9160  170.8470  139.2740 O   0  0  0  0  0  1  0  0  0  0  0  0
  193.9770  170.6520  137.6800 O   0  0  0  0  0  0  0  0  0  0  0  0
  186.8560  176.7640  143.5160 C   0  0  0  0  0  2  0  0  0  0  0  0
  184.9250  178.2220  142.7710 C   0  0  0  0  0  0  0  0  0  0  0  0
  185.5120  179.2570  143.1930 O   0  0  0  0  0  0  0  0  0  0  0  0
  185.5400  176.9390  142.9220 N   0  0  0  0  0  2  0  0  0  0  0  0
  183.6020  178.3360  142.1310 C   0  0  0  0  0  0  0  0  0  0  0  0
  179.5130  178.7020  140.1500 Cl  0  0  0  0  0  0  0  0  0  0  0  0
  182.1610  178.0280  140.1960 C   0  0  0  0  0  3  0  0  0  0  0  0
  181.0850  178.5630  140.9100 C   0  0  0  0  0  0  0  0  0  0  0  0
  183.4160  177.9130  140.8060 C   0  0  0  0  0  3  0  0  0  0  0  0
  181.2630  178.9890  142.2290 C   0  0  0  0  0  3  0  0  0  0  0  0
  182.5170  178.8790  142.8370 C   0  0  0  0  0  3  0  0  0  0  0  0
  193.4240  170.7620  145.0110 C   0  0  0  0  0  2  0  0  0  0  0  0
  194.1660  169.9710  144.1310 O   0  0  0  0  0  0  0  0  0  0  0  0
  195.8340  168.4970  142.5840 C   0  0  0  0  0  1  0  0  0  0  0  0
  197.4780  168.5990  144.4770 C   0  0  0  0  0  1  0  0  0  0  0  0
  197.9400  170.9210  142.2640 O   0  0  0  0  0  0  0  0  0  0  0  0
  196.4620  169.3770  143.6590 C   0  0  0  0  0  0  0  0  0  0  0  0
  197.0660  170.6370  143.0680 C   0  0  0  0  0  0  0  0  0  0  0  0
  195.4950  170.1270  144.5420 C   0  0  1  0  0  3  0  0  0  0  0  0
  196.0600  171.3820  143.9410 C   0  0  1  0  0  3  0  0  0  0  0  0
  196.6960  172.2930  145.0100 C   0  0  0  0  0  0  0  0  0  0  0  0
  195.7890  173.4240  145.4480 C   0  0  0  0  0  2  0  0  0  0  0  0
  197.7260  173.2940  144.5140 C   0  0  0  0  0  2  0  0  0  0  0  0
  196.8210  174.4290  144.9650 C   0  0  0  0  0  2  0  0  0  0  0  0
  197.1630  171.5780  146.0980 F   0  0  0  0  0  0  0  0  0  0  0  0
  1 14  1  0  0  0  0
  1 29  1  1  0  0  0
  3 16  1  6  0  0  0
  3  1  1  0  0  0  0
  3 14  1  0  0  0  0
  4  7  1  0  0  0  0
  4 10  1  1  0  0  0
  5  7  1  1  0  0  0
  5  2  1  0  0  0  0
  6 11  1  0  0  0  0
  9 11  1  0  0  0  0
  9  2  1  0  0  0  0
 11 40  1  6  0  0  0
 12 15  1  0  0  0  0
 12  8  1  0  0  0  0
 13  8  1  6  0  0  0
 13  5  1  0  0  0  0
 14 13  1  0  0  0  0
 14  4  1  0  0  0  0
 15  6  1  0  0  0  0
 17 16  2  0  0  0  0
 18 17  1  0  0  0  0
 19 18  2  0  0  0  0
 20 19  1  0  0  0  0
 21 24  1  0  0  0  0
 21 20  1  0  0  0  0
 22 24  1  0  0  0  0
 23 22  1  0  0  0  0
 23 24  1  0  0  0  0
 24 26  1  0  0  0  0
 26 25  1  0  0  0  0
 26 27  1  0  0  0  0
 28 26  2  0  0  0  0
 30 32  1  0  0  0  0
 30 31  2  0  0  0  0
 32 29  1  0  0  0  0
 33 30  1  0  0  0  0
 33 39  1  0  0  0  0
 34 36  1  0  0  0  0
 35 37  1  0  0  0  0
 35 36  2  0  0  0  0
 36 38  1  0  0  0  0
 37 33  2  0  0  0  0
 38 39  2  0  0  0  0
 41 47  1  0  0  0  0
 41 40  1  0  0  0  0
 42 45  1  0  0  0  0
 44 46  2  0  0  0  0
 45 43  1  0  0  0  0
 45 47  1  0  0  0  0
 46 45  1  0  0  0  0
 46 48  1  0  0  0  0
 48 47  1  0  0  0  0
 48 49  1  0  0  0  0
 49 50  1  0  0  0  0
 49 53  1  0  0  0  0
 51 52  1  0  0  0  0
 51 49  1  0  0  0  0
 52 50  1  0  0  0  0
M  END
>  <MODEL>
8

>  <REMARK>
 VINA RESULT:      -5.8      1.471      2.041
  Name = 
  13 active torsions:
  status: ('A' for Active; 'I' for Inactive)
    1  A    between atoms: C_3  and  C_17
    2  A    between atoms: C_4  and  C_10
    3  A    between atoms: C_5  and  C_26
    4  A    between atoms: C_6  and  C_53
    5  A    between atoms: P_8  and  C_48
    6  A    between atoms: C_14  and  C_33
    7  A    between atoms: C_18  and  C_50
    8  A    between atoms: C_26  and  N_43
    9  A    between atoms: C_30  and  C_37
   10  A    between atoms: C_30  and  O_52
   11  A    between atoms: C_47  and  C_48
   12  A    between atoms: C_47  and  C_50
   13  A    between atoms: C_49  and  O_52
                            x       y       z     vdW  Elec       q    Type
                         _______ _______ _______ _____ _____    ______ ____

>  <TORSDO>
F 13

$$$$
=
 OpenBabel11042414543D

 53 59  0  0  1  0  0  0  0  0999 V2000
  189.4100  175.0730  141.2150 C   0  0  1  0  0  3  0  0  0  0  0  0
  191.8210  170.8540  139.8270 C   0  0  0  0  0  2  0  0  0  0  0  0
  189.5090  174.2610  142.5080 C   0  0  1  0  0  3  0  0  0  0  0  0
  188.7130  172.4940  140.9090 C   0  0  2  0  0  3  0  0  0  0  0  0
  191.0260  171.5960  140.8850 C   0  0  2  0  0  3  0  0  0  0  0  0
  194.9530  171.6380  140.7170 C   0  0  0  0  0  2  0  0  0  0  0  0
  189.5450  171.2170  140.8030 C   0  0  0  0  0  2  0  0  0  0  0  0
  192.3730  173.8190  141.1090 C   0  0  0  0  0  2  0  0  0  0  0  0
  192.9820  170.3290  140.4030 O   0  0  0  0  0  0  0  0  0  0  0  0
  188.0670  172.7050  139.6900 O   0  0  0  0  0  1  0  0  0  0  0  0
  194.0420  170.9310  139.7200 C   0  0  2  0  0  3  0  0  0  0  0  0
  193.2530  172.9580  141.7730 O   0  0  0  0  0  0  0  0  0  0  0  0
  191.0930  173.0980  140.6590 C   0  0  2  0  0  3  0  0  0  0  0  0
  189.7370  173.5850  141.1510 C   0  0  1  0  0  0  0  0  0  0  0  0
  194.4370  173.0320  141.0380 C   0  0  0  0  0  2  0  0  0  0  0  0
  190.7240  174.6770  143.2610 C   0  0  0  0  0  3  0  0  0  0  0  0
  190.6080  175.2550  144.4470 C   0  0  0  0  0  3  0  0  0  0  0  0
  191.8040  175.6430  145.1830 C   0  0  0  0  0  3  0  0  0  0  0  0
  192.8200  174.8010  145.2880 C   0  0  0  0  0  3  0  0  0  0  0  0
  194.0420  175.2050  146.0330 C   0  0  0  0  0  2  0  0  0  0  0  0
  194.7550  176.3080  145.2750 C   0  0  0  0  0  2  0  0  0  0  0  0
  195.2780  176.0870  142.7920 C   0  0  0  0  0  2  0  0  0  0  0  0
  196.3620  176.6930  143.4670 O   0  0  0  0  0  0  0  0  0  0  0  0
  195.6290  175.7300  144.1750 C   0  0  1  0  0  0  0  0  0  0  0  0
  195.4530  172.8710  144.1910 O   0  0  0  0  0  1  0  0  0  0  0  0
  196.5240  174.1610  144.4100 P   0  0  0  0  0  0  0  0  0  0  0  0
  197.6510  174.0510  143.4080 O   0  0  0  0  0  0  0  0  0  0  0  0
  197.1620  174.1000  145.9750 O   0  0  0  0  0  1  0  0  0  0  0  0
  187.9490  175.3740  140.9110 C   0  0  0  0  0  2  0  0  0  0  0  0
  187.3410  177.1070  142.6550 C   0  0  0  0  0  0  0  0  0  0  0  0
  188.0660  177.9700  142.0860 O   0  0  0  0  0  0  0  0  0  0  0  0
  187.2570  175.7810  142.1240 N   0  0  0  0  0  2  0  0  0  0  0  0
  186.5890  177.4660  143.8700 C   0  0  0  0  0  0  0  0  0  0  0  0
  184.2690  178.5860  147.6300 Cl  0  0  0  0  0  0  0  0  0  0  0  0
  184.5640  178.2980  144.9290 C   0  0  0  0  0  3  0  0  0  0  0  0
  185.1600  178.1570  146.1850 C   0  0  0  0  0  0  0  0  0  0  0  0
  185.2760  177.9510  143.7750 C   0  0  0  0  0  3  0  0  0  0  0  0
  186.4690  177.6770  146.2890 C   0  0  0  0  0  3  0  0  0  0  0  0
  187.1820  177.3350  145.1360 C   0  0  0  0  0  3  0  0  0  0  0  0
  194.8230  169.8600  138.9790 C   0  0  0  0  0  2  0  0  0  0  0  0
  195.9060  170.4330  138.3090 O   0  0  0  0  0  0  0  0  0  0  0  0
  197.8040  169.8650  136.4580 C   0  0  0  0  0  1  0  0  0  0  0  0
  196.5750  171.4090  134.9070 C   0  0  0  0  0  1  0  0  0  0  0  0
  195.7120  168.3040  134.5590 O   0  0  0  0  0  0  0  0  0  0  0  0
  196.4380  170.3160  135.9520 C   0  0  0  0  0  0  0  0  0  0  0  0
  195.6190  169.1470  135.4370 C   0  0  0  0  0  0  0  0  0  0  0  0
  195.4340  170.6880  137.0160 C   0  0  1  0  0  3  0  0  0  0  0  0
  194.6270  169.5150  136.5380 C   0  0  1  0  0  3  0  0  0  0  0  0
  193.2380  169.9440  136.0270 C   0  0  0  0  0  0  0  0  0  0  0  0
  192.1240  169.0210  136.4780 C   0  0  0  0  0  2  0  0  0  0  0  0
  192.9280  169.6270  134.5740 C   0  0  0  0  0  2  0  0  0  0  0  0
  191.8030  168.7110  135.0260 C   0  0  0  0  0  2  0  0  0  0  0  0
  192.9500  171.2610  136.3340 F   0  0  0  0  0  0  0  0  0  0  0  0
  1 29  1  6  0  0  0
  1  3  1  0  0  0  0
  2  9  1  0  0  0  0
  3 16  1  1  0  0  0
  4 10  1  6  0  0  0
  4 14  1  0  0  0  0
  5  2  1  6  0  0  0
  6 15  1  0  0  0  0
  7  5  1  0  0  0  0
  7  4  1  0  0  0  0
  8 12  1  0  0  0  0
 11 40  1  1  0  0  0
 11  9  1  0  0  0  0
 11  6  1  0  0  0  0
 13  5  1  0  0  0  0
 13  8  1  1  0  0  0
 13 14  1  0  0  0  0
 14  1  1  0  0  0  0
 14  3  1  0  0  0  0
 15 12  1  0  0  0  0
 16 17  2  0  0  0  0
 17 18  1  0  0  0  0
 18 19  2  0  0  0  0
 19 20  1  0  0  0  0
 21 20  1  0  0  0  0
 22 23  1  0  0  0  0
 22 24  1  0  0  0  0
 23 24  1  0  0  0  0
 24 26  1  0  0  0  0
 24 21  1  0  0  0  0
 25 26  1  0  0  0  0
 26 28  1  0  0  0  0
 27 26  2  0  0  0  0
 29 32  1  0  0  0  0
 30 33  1  0  0  0  0
 31 30  2  0  0  0  0
 32 30  1  0  0  0  0
 33 39  1  0  0  0  0
 35 36  2  0  0  0  0
 36 38  1  0  0  0  0
 36 34  1  0  0  0  0
 37 33  2  0  0  0  0
 37 35  1  0  0  0  0
 39 38  2  0  0  0  0
 41 40  1  0  0  0  0
 43 45  1  0  0  0  0
 44 46  2  0  0  0  0
 45 42  1  0  0  0  0
 45 47  1  0  0  0  0
 46 45  1  0  0  0  0
 46 48  1  0  0  0  0
 47 41  1  0  0  0  0
 48 47  1  0  0  0  0
 49 53  1  0  0  0  0
 49 50  1  0  0  0  0
 49 48  1  0  0  0  0
 51 52  1  0  0  0  0
 51 49  1  0  0  0  0
 52 50  1  0  0  0  0
M  END
>  <MODEL>
9

>  <REMARK>
 VINA RESULT:      -5.7      3.934      7.344
  Name = 
  13 active torsions:
  status: ('A' for Active; 'I' for Inactive)
    1  A    between atoms: C_3  and  C_17
    2  A    between atoms: C_4  and  C_10
    3  A    between atoms: C_5  and  C_26
    4  A    between atoms: C_6  and  C_53
    5  A    between atoms: P_8  and  C_48
    6  A    between atoms: C_14  and  C_33
    7  A    between atoms: C_18  and  C_50
    8  A    between atoms: C_26  and  N_43
    9  A    between atoms: C_30  and  C_37
   10  A    between atoms: C_30  and  O_52
   11  A    between atoms: C_47  and  C_48
   12  A    between atoms: C_47  and  C_50
   13  A    between atoms: C_49  and  O_52
                            x       y       z     vdW  Elec       q    Type
                         _______ _______ _______ _____ _____    ______ ____

>  <TORSDO>
F 13

$$$$
