=
 OpenBabel11042414483D

 28 32  0  0  1  0  0  0  0  0999 V2000
  187.4160  177.8410  144.3420 C   0  0  0  0  0  0  0  0  0  0  0  0
  187.7290  176.2410  146.3720 C   0  0  2  0  0  3  0  0  0  0  0  0
  188.3660  177.2800  145.4180 C   0  0  1  0  0  3  0  0  0  0  0  0
  189.7060  176.7360  144.9140 C   0  0  2  0  0  3  0  0  0  0  0  0
  185.2300  178.0560  145.5990 C   0  0  0  0  0  3  0  0  0  0  0  0
  188.9670  177.9210  142.2720 C   0  0  0  0  0  3  0  0  0  0  0  0
  187.7270  178.0920  143.0560 C   0  0  0  0  0  3  0  0  0  0  0  0
  185.3360  176.8100  146.4020 C   0  0  0  0  0  2  0  0  0  0  0  0
  190.2010  177.7890  142.7470 C   0  0  0  0  0  3  0  0  0  0  0  0
  190.5120  177.8030  144.1990 C   0  0  2  0  0  3  0  0  0  0  0  0
  186.6070  176.8230  147.2110 C   0  0  0  0  0  2  0  0  0  0  0  0
  189.5520  175.5750  144.1680 F   0  0  0  0  0  0  0  0  0  0  0  0
  186.1220  178.4600  144.6970 C   0  0  0  0  0  3  0  0  0  0  0  0
  188.7090  175.6500  147.2580 N   0  0  0  0  0  0  0  0  0  0  0  0
  188.8610  174.4660  147.3090 O   0  0  0  0  0  0  0  0  0  0  0  0
  191.9430  177.5750  144.3970 N   0  0  0  0  0  2  0  0  0  0  0  0
  193.3250  175.6700  142.8230 C   0  0  0  0  0  2  0  0  0  0  0  0
  194.4500  175.0010  142.3270 O   0  0  0  0  0  0  0  0  0  0  0  0
  195.7770  175.7400  144.2930 C   0  0  2  0  0  3  0  0  0  0  0  0
  194.4750  175.4900  145.0730 C   0  0  1  0  0  0  0  0  0  0  0  0
  192.2140  176.2910  145.0690 C   0  0  2  0  0  3  0  0  0  0  0  0
  192.8050  176.4870  146.4720 C   0  0  0  0  0  2  0  0  0  0  0  0
  195.2450  173.2840  144.2030 O   0  0  0  0  0  1  0  0  0  0  0  0
  194.3060  176.2440  146.3710 C   0  0  0  0  0  2  0  0  0  0  0  0
  193.1670  175.3550  144.3120 C   0  0  1  0  0  3  0  0  0  0  0  0
  196.2890  174.1790  146.1440 O   0  0  0  0  0  1  0  0  0  0  0  0
  195.5710  175.7360  142.7570 C   0  0  0  0  0  2  0  0  0  0  0  0
  195.5270  174.3990  144.9950 C   0  0  0  0  0  0  0  0  0  0  0  0
  1 13  1  0  0  0  0
  2 11  1  0  0  0  0
  2 14  1  1  0  0  0
  3  1  1  6  0  0  0
  3  2  1  0  0  0  0
  4 12  1  6  0  0  0
  4  3  1  0  0  0  0
  5  8  1  0  0  0  0
  6  9  2  0  0  0  0
  6  7  1  0  0  0  0
  7  1  2  0  0  0  0
  8 11  1  0  0  0  0
  9 10  1  0  0  0  0
 10 16  1  6  0  0  0
 10  4  1  0  0  0  0
 13  5  2  0  0  0  0
 14 15  2  0  0  0  0
 18 27  1  0  0  0  0
 18 17  1  0  0  0  0
 19 27  1  6  0  0  0
 19 28  1  0  0  0  0
 19 20  1  0  0  0  0
 20 24  1  1  0  0  0
 21 16  1  6  0  0  0
 21 22  1  0  0  0  0
 23 28  1  0  0  0  0
 24 22  1  0  0  0  0
 25 17  1  6  0  0  0
 25 21  1  0  0  0  0
 25 20  1  0  0  0  0
 28 20  1  0  0  0  0
 28 26  1  0  0  0  0
M  END
>  <MODEL>
1

>  <REMARK>
 VINA RESULT:      -8.6      0.000      0.000
  Name = 
  3 active torsions:
  status: ('A' for Active; 'I' for Inactive)
    1  A    between atoms: C_4  and  N_9
    2  A    between atoms: C_11  and  N_12
    3  A    between atoms: N_12  and  C_24
                            x       y       z     vdW  Elec       q    Type
                         _______ _______ _______ _____ _____    ______ ____

>  <TORSDO>
F 3

$$$$
=
 OpenBabel11042414483D

 28 32  0  0  1  0  0  0  0  0999 V2000
  192.9910  175.8720  145.5890 C   0  0  0  0  0  0  0  0  0  0  0  0
  192.4760  175.1690  143.1340 C   0  0  2  0  0  3  0  0  0  0  0  0
  191.9580  175.8070  144.4460 C   0  0  1  0  0  3  0  0  0  0  0  0
  190.6030  175.1870  144.7990 C   0  0  2  0  0  3  0  0  0  0  0  0
  195.1330  176.4250  144.3590 C   0  0  0  0  0  3  0  0  0  0  0  0
  191.5370  175.2520  147.6370 C   0  0  0  0  0  3  0  0  0  0  0  0
  192.7530  175.6380  146.8930 C   0  0  0  0  0  3  0  0  0  0  0  0
  194.9010  175.5790  143.1600 C   0  0  0  0  0  2  0  0  0  0  0  0
  190.2780  175.3750  147.2300 C   0  0  0  0  0  3  0  0  0  0  0  0
  189.9090  175.9490  145.9110 C   0  0  2  0  0  3  0  0  0  0  0  0
  193.6020  175.9620  142.4990 C   0  0  0  0  0  2  0  0  0  0  0  0
  190.7010  173.8240  145.0490 F   0  0  0  0  0  0  0  0  0  0  0  0
  194.3120  176.5090  145.4040 C   0  0  0  0  0  3  0  0  0  0  0  0
  191.4180  175.0070  142.1590 N   0  0  0  0  0  0  0  0  0  0  0  0
  191.5720  174.3260  141.1900 O   0  0  0  0  0  0  0  0  0  0  0  0
  188.4580  175.8890  145.7380 N   0  0  0  0  0  2  0  0  0  0  0  0
  187.9490  177.7620  143.6760 C   0  0  0  0  0  2  0  0  0  0  0  0
  187.1930  178.3800  142.6730 O   0  0  0  0  0  0  0  0  0  0  0  0
  185.1020  177.4960  143.6820 C   0  0  2  0  0  3  0  0  0  0  0  0
  185.8010  177.7970  145.0190 C   0  0  1  0  0  0  0  0  0  0  0  0
  187.7950  177.1320  146.1750 C   0  0  2  0  0  3  0  0  0  0  0  0
  186.5840  176.8530  147.0770 C   0  0  0  0  0  2  0  0  0  0  0  0
  185.4350  179.9820  143.8740 O   0  0  0  0  0  1  0  0  0  0  0  0
  185.3330  177.0100  146.2200 C   0  0  0  0  0  2  0  0  0  0  0  0
  187.3010  178.0350  145.0350 C   0  0  1  0  0  3  0  0  0  0  0  0
  183.6100  178.9600  145.0060 O   0  0  0  0  0  1  0  0  0  0  0  0
  186.0640  177.5650  142.4680 C   0  0  0  0  0  2  0  0  0  0  0  0
  184.8650  178.8250  144.4110 C   0  0  0  0  0  0  0  0  0  0  0  0
  1  7  2  0  0  0  0
  2 14  1  6  0  0  0
  2  3  1  0  0  0  0
  3  4  1  0  0  0  0
  3  1  1  1  0  0  0
  4 12  1  1  0  0  0
  4 10  1  0  0  0  0
  5 13  2  0  0  0  0
  7  6  1  0  0  0  0
  8  5  1  0  0  0  0
  9  6  2  0  0  0  0
 10 16  1  6  0  0  0
 10  9  1  0  0  0  0
 11  2  1  0  0  0  0
 11  8  1  0  0  0  0
 13  1  1  0  0  0  0
 15 14  2  0  0  0  0
 18 17  1  0  0  0  0
 19 27  1  6  0  0  0
 19 28  1  0  0  0  0
 19 20  1  0  0  0  0
 20 25  1  0  0  0  0
 20 24  1  1  0  0  0
 21 16  1  6  0  0  0
 21 22  1  0  0  0  0
 23 28  1  0  0  0  0
 24 22  1  0  0  0  0
 25 17  1  6  0  0  0
 25 21  1  0  0  0  0
 27 18  1  0  0  0  0
 28 26  1  0  0  0  0
 28 20  1  0  0  0  0
M  END
>  <MODEL>
2

>  <REMARK>
 VINA RESULT:      -8.4      2.741      7.779
  Name = 
  3 active torsions:
  status: ('A' for Active; 'I' for Inactive)
    1  A    between atoms: C_4  and  N_9
    2  A    between atoms: C_11  and  N_12
    3  A    between atoms: N_12  and  C_24
                            x       y       z     vdW  Elec       q    Type
                         _______ _______ _______ _____ _____    ______ ____

>  <TORSDO>
F 3

$$$$
=
 OpenBabel11042414483D

 28 32  0  0  1  0  0  0  0  0999 V2000
  186.3820  178.5100  143.3800 C   0  0  0  0  0  0  0  0  0  0  0  0
  186.0980  177.2800  145.6590 C   0  0  2  0  0  3  0  0  0  0  0  0
  187.0510  177.7130  144.5180 C   0  0  1  0  0  3  0  0  0  0  0  0
  187.8940  176.5090  144.0900 C   0  0  2  0  0  3  0  0  0  0  0  0
  184.7280  179.9630  144.6280 C   0  0  0  0  0  3  0  0  0  0  0  0
  187.5400  177.5060  141.2950 C   0  0  0  0  0  3  0  0  0  0  0  0
  186.6330  178.3830  142.0640 C   0  0  0  0  0  3  0  0  0  0  0  0
  184.3030  178.9610  145.6400 C   0  0  0  0  0  2  0  0  0  0  0  0
  188.5970  176.8480  141.7580 C   0  0  0  0  0  3  0  0  0  0  0  0
  189.0330  176.9170  143.1760 C   0  0  2  0  0  3  0  0  0  0  0  0
  185.4990  178.4570  146.4040 C   0  0  0  0  0  2  0  0  0  0  0  0
  187.1150  175.4840  143.5690 F   0  0  0  0  0  0  0  0  0  0  0  0
  185.5990  179.7340  143.6480 C   0  0  0  0  0  3  0  0  0  0  0  0
  186.7580  176.4150  146.6130 N   0  0  0  0  0  0  0  0  0  0  0  0
  186.5170  176.4880  147.7810 O   0  0  0  0  0  0  0  0  0  0  0  0
  190.1850  176.0390  143.3790 N   0  0  0  0  0  2  0  0  0  0  0  0
  190.9680  176.6570  146.0290 C   0  0  0  0  0  2  0  0  0  0  0  0
  191.6370  176.4520  147.2410 O   0  0  0  0  0  0  0  0  0  0  0  0
  193.2380  174.9210  146.1180 C   0  0  2  0  0  3  0  0  0  0  0  0
  193.1390  175.9200  144.9520 C   0  0  1  0  0  0  0  0  0  0  0  0
  191.4460  176.7950  143.4960 C   0  0  2  0  0  3  0  0  0  0  0  0
  192.5660  176.1850  142.6410 C   0  0  0  0  0  2  0  0  0  0  0  0
  194.1870  177.1270  146.8660 O   0  0  0  0  0  1  0  0  0  0  0  0
  193.4710  175.3910  143.5760 C   0  0  0  0  0  2  0  0  0  0  0  0
  191.9940  176.9180  144.9250 C   0  0  1  0  0  3  0  0  0  0  0  0
  195.5310  175.6640  145.5570 O   0  0  0  0  0  1  0  0  0  0  0  0
  192.1470  175.1410  147.1970 C   0  0  0  0  0  2  0  0  0  0  0  0
  194.2570  176.0580  145.9690 C   0  0  0  0  0  0  0  0  0  0  0  0
  1 13  1  0  0  0  0
  2 11  1  0  0  0  0
  2 14  1  1  0  0  0
  3  1  1  6  0  0  0
  3  2  1  0  0  0  0
  4 12  1  6  0  0  0
  4  3  1  0  0  0  0
  5  8  1  0  0  0  0
  6  9  2  0  0  0  0
  6  7  1  0  0  0  0
  7  1  2  0  0  0  0
  8 11  1  0  0  0  0
  9 10  1  0  0  0  0
 10 16  1  6  0  0  0
 10  4  1  0  0  0  0
 13  5  2  0  0  0  0
 14 15  2  0  0  0  0
 17 18  1  0  0  0  0
 19 27  1  1  0  0  0
 20 24  1  6  0  0  0
 20 28  1  0  0  0  0
 20 19  1  0  0  0  0
 21 16  1  1  0  0  0
 21 25  1  0  0  0  0
 22 21  1  0  0  0  0
 22 24  1  0  0  0  0
 25 20  1  0  0  0  0
 25 17  1  1  0  0  0
 26 28  1  0  0  0  0
 27 18  1  0  0  0  0
 28 19  1  0  0  0  0
 28 23  1  0  0  0  0
M  END
>  <MODEL>
3

>  <REMARK>
 VINA RESULT:      -8.3      1.855      2.876
  Name = 
  3 active torsions:
  status: ('A' for Active; 'I' for Inactive)
    1  A    between atoms: C_4  and  N_9
    2  A    between atoms: C_11  and  N_12
    3  A    between atoms: N_12  and  C_24
                            x       y       z     vdW  Elec       q    Type
                         _______ _______ _______ _____ _____    ______ ____

>  <TORSDO>
F 3

$$$$
=
 OpenBabel11042414483D

 28 32  0  0  1  0  0  0  0  0999 V2000
  192.3340  175.0360  146.2930 C   0  0  0  0  0  0  0  0  0  0  0  0
  190.9770  173.2310  144.9940 C   0  0  2  0  0  3  0  0  0  0  0  0
  191.1100  174.7160  145.4120 C   0  0  1  0  0  3  0  0  0  0  0  0
  189.7570  175.2070  145.9370 C   0  0  2  0  0  3  0  0  0  0  0  0
  194.1300  173.5620  145.2900 C   0  0  0  0  0  3  0  0  0  0  0  0
  191.3230  176.6960  148.0010 C   0  0  0  0  0  3  0  0  0  0  0  0
  192.3600  175.8710  147.3480 C   0  0  0  0  0  3  0  0  0  0  0  0
  193.2820  172.3740  145.0090 C   0  0  0  0  0  2  0  0  0  0  0  0
  190.1620  177.0780  147.4810 C   0  0  0  0  0  3  0  0  0  0  0  0
  189.7340  176.7140  146.1060 C   0  0  2  0  0  3  0  0  0  0  0  0
  192.1260  172.7600  144.1240 C   0  0  0  0  0  2  0  0  0  0  0  0
  189.3590  174.5230  147.0780 F   0  0  0  0  0  0  0  0  0  0  0  0
  193.7050  174.6820  145.8720 C   0  0  0  0  0  3  0  0  0  0  0  0
  189.7350  172.9760  144.2970 N   0  0  0  0  0  0  0  0  0  0  0  0
  189.3200  171.8640  144.1610 O   0  0  0  0  0  0  0  0  0  0  0  0
  188.3900  177.2320  145.8560 N   0  0  0  0  0  2  0  0  0  0  0  0
  185.5970  177.6250  145.6090 C   0  0  0  0  0  2  0  0  0  0  0  0
  184.4340  178.2800  145.1860 O   0  0  0  0  0  0  0  0  0  0  0  0
  185.7090  179.4170  143.3830 C   0  0  2  0  0  3  0  0  0  0  0  0
  186.4430  178.0700  143.2630 C   0  0  1  0  0  0  0  0  0  0  0  0
  187.7820  176.6420  144.6490 C   0  0  2  0  0  3  0  0  0  0  0  0
  188.5740  176.9820  143.3790 C   0  0  0  0  0  2  0  0  0  0  0  0
  184.0680  177.6720  142.6180 O   0  0  0  0  0  1  0  0  0  0  0  0
  187.8300  178.1040  142.6660 C   0  0  0  0  0  2  0  0  0  0  0  0
  186.3270  177.0580  144.3900 C   0  0  1  0  0  3  0  0  0  0  0  0
  185.5360  178.6640  141.0320 O   0  0  0  0  0  1  0  0  0  0  0  0
  184.8440  179.5220  144.6650 C   0  0  0  0  0  2  0  0  0  0  0  0
  185.2550  178.3630  142.3650 C   0  0  0  0  0  0  0  0  0  0  0  0
  1  7  2  0  0  0  0
  2 14  1  6  0  0  0
  2  3  1  0  0  0  0
  3  4  1  0  0  0  0
  3  1  1  1  0  0  0
  4 10  1  0  0  0  0
  4 12  1  1  0  0  0
  5 13  2  0  0  0  0
  7  6  1  0  0  0  0
  8  5  1  0  0  0  0
  9  6  2  0  0  0  0
 10 16  1  1  0  0  0
 10  9  1  0  0  0  0
 11  2  1  0  0  0  0
 11  8  1  0  0  0  0
 13  1  1  0  0  0  0
 15 14  2  0  0  0  0
 18 17  1  0  0  0  0
 19 27  1  1  0  0  0
 20 24  1  6  0  0  0
 20 19  1  0  0  0  0
 20 25  1  0  0  0  0
 21 16  1  1  0  0  0
 22 21  1  0  0  0  0
 24 22  1  0  0  0  0
 25 21  1  0  0  0  0
 25 17  1  1  0  0  0
 26 28  1  0  0  0  0
 27 18  1  0  0  0  0
 28 23  1  0  0  0  0
 28 20  1  0  0  0  0
 28 19  1  0  0  0  0
M  END
>  <MODEL>
4

>  <REMARK>
 VINA RESULT:      -8.2      3.187      7.716
  Name = 
  3 active torsions:
  status: ('A' for Active; 'I' for Inactive)
    1  A    between atoms: C_4  and  N_9
    2  A    between atoms: C_11  and  N_12
    3  A    between atoms: N_12  and  C_24
                            x       y       z     vdW  Elec       q    Type
                         _______ _______ _______ _____ _____    ______ ____

>  <TORSDO>
F 3

$$$$
=
 OpenBabel11042414483D

 28 32  0  0  1  0  0  0  0  0999 V2000
  192.3540  173.7270  144.5940 C   0  0  0  0  0  0  0  0  0  0  0  0
  193.8640  175.8080  145.0040 C   0  0  2  0  0  3  0  0  0  0  0  0
  192.4470  175.1890  145.0730 C   0  0  1  0  0  3  0  0  0  0  0  0
  191.4460  176.1650  144.4490 C   0  0  2  0  0  3  0  0  0  0  0  0
  194.5070  172.7250  145.4690 C   0  0  0  0  0  3  0  0  0  0  0  0
  190.1270  173.7550  143.2760 C   0  0  0  0  0  3  0  0  0  0  0  0
  191.3620  173.1910  143.8570 C   0  0  0  0  0  3  0  0  0  0  0  0
  195.3910  173.8920  145.2120 C   0  0  0  0  0  2  0  0  0  0  0  0
  189.5160  174.8780  143.6350 C   0  0  0  0  0  3  0  0  0  0  0  0
  190.0130  175.7540  144.7260 C   0  0  2  0  0  3  0  0  0  0  0  0
  194.8560  175.1120  145.9150 C   0  0  0  0  0  2  0  0  0  0  0  0
  191.7010  176.3870  143.1020 F   0  0  0  0  0  0  0  0  0  0  0  0
  193.2120  172.6680  145.1650 C   0  0  0  0  0  3  0  0  0  0  0  0
  193.8520  177.2190  145.3270 N   0  0  0  0  0  0  0  0  0  0  0  0
  194.8300  177.7670  145.7380 O   0  0  0  0  0  0  0  0  0  0  0  0
  189.1580  176.9360  144.8350 N   0  0  0  0  0  2  0  0  0  0  0  0
  187.2840  176.7010  146.9440 C   0  0  0  0  0  2  0  0  0  0  0  0
  186.3160  177.1570  147.8470 O   0  0  0  0  0  0  0  0  0  0  0  0
  185.8500  179.1110  146.3850 C   0  0  2  0  0  3  0  0  0  0  0  0
  186.0460  178.1050  145.2380 C   0  0  1  0  0  0  0  0  0  0  0  0
  187.7730  176.6610  144.4100 C   0  0  2  0  0  3  0  0  0  0  0  0
  187.3220  177.5930  143.2760 C   0  0  0  0  0  2  0  0  0  0  0  0
  184.0240  177.3860  146.5080 O   0  0  0  0  0  1  0  0  0  0  0  0
  186.4470  178.6750  143.8970 C   0  0  0  0  0  2  0  0  0  0  0  0
  186.7220  176.7750  145.5240 C   0  0  1  0  0  3  0  0  0  0  0  0
  183.8280  179.1810  144.9610 O   0  0  0  0  0  1  0  0  0  0  0  0
  186.3200  178.5620  147.7570 C   0  0  0  0  0  2  0  0  0  0  0  0
  184.6500  178.3870  145.7620 C   0  0  0  0  0  0  0  0  0  0  0  0
  1 13  1  0  0  0  0
  2  3  1  0  0  0  0
  2 14  1  1  0  0  0
  2 11  1  0  0  0  0
  3  1  1  6  0  0  0
  4 12  1  6  0  0  0
  4 10  1  0  0  0  0
  4  3  1  0  0  0  0
  6  9  2  0  0  0  0
  6  7  1  0  0  0  0
  7  1  2  0  0  0  0
  8  5  1  0  0  0  0
  8 11  1  0  0  0  0
  9 10  1  0  0  0  0
 10 16  1  6  0  0  0
 13  5  2  0  0  0  0
 14 15  2  0  0  0  0
 17 18  1  0  0  0  0
 19 27  1  1  0  0  0
 20 24  1  6  0  0  0
 20 25  1  0  0  0  0
 20 28  1  0  0  0  0
 20 19  1  0  0  0  0
 21 16  1  1  0  0  0
 21 25  1  0  0  0  0
 22 24  1  0  0  0  0
 22 21  1  0  0  0  0
 25 17  1  1  0  0  0
 26 28  1  0  0  0  0
 27 18  1  0  0  0  0
 28 19  1  0  0  0  0
 28 23  1  0  0  0  0
M  END
>  <MODEL>
5

>  <REMARK>
 VINA RESULT:      -8.0      2.610      7.947
  Name = 
  3 active torsions:
  status: ('A' for Active; 'I' for Inactive)
    1  A    between atoms: C_4  and  N_9
    2  A    between atoms: C_11  and  N_12
    3  A    between atoms: N_12  and  C_24
                            x       y       z     vdW  Elec       q    Type
                         _______ _______ _______ _____ _____    ______ ____

>  <TORSDO>
F 3

$$$$
=
 OpenBabel11042414483D

 28 32  0  0  1  0  0  0  0  0999 V2000
  186.1830  177.4090  143.9610 C   0  0  0  0  0  0  0  0  0  0  0  0
  186.3490  177.9910  146.4940 C   0  0  2  0  0  3  0  0  0  0  0  0
  187.0890  177.7840  145.1500 C   0  0  1  0  0  3  0  0  0  0  0  0
  188.3010  176.8780  145.3840 C   0  0  2  0  0  3  0  0  0  0  0  0
  184.1250  178.8220  144.3730 C   0  0  0  0  0  3  0  0  0  0  0  0
  187.6190  175.6220  142.7600 C   0  0  0  0  0  3  0  0  0  0  0  0
  186.4630  176.5090  142.9990 C   0  0  0  0  0  3  0  0  0  0  0  0
  184.0780  178.6840  145.8510 C   0  0  0  0  0  2  0  0  0  0  0  0
  188.8400  175.7470  143.2680 C   0  0  0  0  0  3  0  0  0  0  0  0
  189.2250  176.8530  144.1820 C   0  0  2  0  0  3  0  0  0  0  0  0
  185.3760  179.1530  146.4560 C   0  0  0  0  0  2  0  0  0  0  0  0
  187.9310  175.6110  145.8160 F   0  0  0  0  0  0  0  0  0  0  0  0
  185.0210  178.2380  143.5800 C   0  0  0  0  0  3  0  0  0  0  0  0
  187.2710  178.1950  147.5910 N   0  0  0  0  0  0  0  0  0  0  0  0
  187.0750  179.0400  148.4120 O   0  0  0  0  0  0  0  0  0  0  0  0
  190.6110  176.6760  144.6110 N   0  0  0  0  0  2  0  0  0  0  0  0
  192.6300  175.9340  142.7690 C   0  0  0  0  0  2  0  0  0  0  0  0
  193.9420  175.6980  142.3420 O   0  0  0  0  0  0  0  0  0  0  0  0
  194.6840  175.4600  144.7010 C   0  0  2  0  0  3  0  0  0  0  0  0
  193.3350  174.7470  144.8930 C   0  0  1  0  0  0  0  0  0  0  0  0
  191.0020  175.2550  144.6550 C   0  0  2  0  0  3  0  0  0  0  0  0
  191.2590  174.7700  146.0880 C   0  0  0  0  0  2  0  0  0  0  0  0
  194.6920  173.3440  143.3410 O   0  0  0  0  0  1  0  0  0  0  0  0
  192.7680  174.7330  146.2940 C   0  0  0  0  0  2  0  0  0  0  0  0
  192.2550  174.9050  143.8370 C   0  0  1  0  0  3  0  0  0  0  0  0
  195.1350  173.2300  145.6750 O   0  0  0  0  0  1  0  0  0  0  0  0
  194.7850  176.2090  143.3470 C   0  0  0  0  0  2  0  0  0  0  0  0
  194.5820  173.9320  144.6040 C   0  0  0  0  0  0  0  0  0  0  0  0
  2 14  1  1  0  0  0
  3  1  1  6  0  0  0
  3  4  1  0  0  0  0
  3  2  1  0  0  0  0
  4 12  1  6  0  0  0
  5  8  1  0  0  0  0
  6  7  1  0  0  0  0
  6  9  2  0  0  0  0
  7  1  2  0  0  0  0
  8 11  1  0  0  0  0
  9 10  1  0  0  0  0
 10 16  1  1  0  0  0
 10  4  1  0  0  0  0
 11  2  1  0  0  0  0
 13  1  1  0  0  0  0
 13  5  2  0  0  0  0
 14 15  2  0  0  0  0
 18 17  1  0  0  0  0
 18 27  1  0  0  0  0
 19 27  1  6  0  0  0
 19 20  1  0  0  0  0
 20 24  1  1  0  0  0
 21 16  1  1  0  0  0
 21 22  1  0  0  0  0
 22 24  1  0  0  0  0
 23 28  1  0  0  0  0
 25 17  1  6  0  0  0
 25 21  1  0  0  0  0
 25 20  1  0  0  0  0
 28 19  1  0  0  0  0
 28 20  1  0  0  0  0
 28 26  1  0  0  0  0
M  END
>  <MODEL>
6

>  <REMARK>
 VINA RESULT:      -8.0      1.801      2.041
  Name = 
  3 active torsions:
  status: ('A' for Active; 'I' for Inactive)
    1  A    between atoms: C_4  and  N_9
    2  A    between atoms: C_11  and  N_12
    3  A    between atoms: N_12  and  C_24
                            x       y       z     vdW  Elec       q    Type
                         _______ _______ _______ _____ _____    ______ ____

>  <TORSDO>
F 3

$$$$
=
 OpenBabel11042414483D

 28 32  0  0  1  0  0  0  0  0999 V2000
  186.6670  176.9830  145.9650 C   0  0  0  0  0  0  0  0  0  0  0  0
  186.0820  178.6950  144.0920 C   0  0  2  0  0  3  0  0  0  0  0  0
  186.7410  177.3460  144.4690 C   0  0  1  0  0  3  0  0  0  0  0  0
  188.1310  177.2750  143.8290 C   0  0  2  0  0  3  0  0  0  0  0  0
  184.3570  177.7910  146.6100 C   0  0  0  0  0  3  0  0  0  0  0  0
  189.0210  175.9890  146.3750 C   0  0  0  0  0  3  0  0  0  0  0  0
  187.6430  176.4150  146.6970 C   0  0  0  0  0  3  0  0  0  0  0  0
  184.3450  179.0360  145.7990 C   0  0  0  0  0  2  0  0  0  0  0  0
  189.5210  175.7520  145.1680 C   0  0  0  0  0  3  0  0  0  0  0  0
  188.7220  175.8820  143.9230 C   0  0  2  0  0  3  0  0  0  0  0  0
  184.5880  178.7110  144.3480 C   0  0  0  0  0  2  0  0  0  0  0  0
  188.9800  178.2630  144.3100 F   0  0  0  0  0  0  0  0  0  0  0  0
  185.3790  176.9410  146.6890 C   0  0  0  0  0  3  0  0  0  0  0  0
  186.3170  179.0410  142.7060 N   0  0  0  0  0  0  0  0  0  0  0  0
  185.5900  178.6530  141.8420 O   0  0  0  0  0  0  0  0  0  0  0  0
  189.5720  175.6130  142.7640 N   0  0  0  0  0  2  0  0  0  0  0  0
  188.3600  173.6710  141.0960 C   0  0  0  0  0  2  0  0  0  0  0  0
  188.1910  172.9230  139.9260 O   0  0  0  0  0  0  0  0  0  0  0  0
  190.5310  173.4160  139.2520 C   0  0  2  0  0  3  0  0  0  0  0  0
  190.8350  173.2520  140.7510 C   0  0  1  0  0  0  0  0  0  0  0  0
  190.1840  174.2720  142.8230 C   0  0  2  0  0  3  0  0  0  0  0  0
  191.7130  174.3300  142.7020 C   0  0  0  0  0  2  0  0  0  0  0  0
  190.0690  171.0330  139.9110 O   0  0  0  0  0  1  0  0  0  0  0  0
  192.0720  173.9450  141.2720 C   0  0  0  0  0  2  0  0  0  0  0  0
  189.6900  173.2900  141.7500 C   0  0  1  0  0  3  0  0  0  0  0  0
  192.3090  171.7110  139.4850 O   0  0  0  0  0  1  0  0  0  0  0  0
  189.0130  173.5180  138.9510 C   0  0  0  0  0  2  0  0  0  0  0  0
  191.0010  172.0690  139.8160 C   0  0  0  0  0  0  0  0  0  0  0  0
  1 13  1  0  0  0  0
  1  7  2  0  0  0  0
  2 14  1  6  0  0  0
  2 11  1  0  0  0  0
  2  3  1  0  0  0  0
  3  1  1  1  0  0  0
  4 10  1  0  0  0  0
  4 12  1  1  0  0  0
  4  3  1  0  0  0  0
  5 13  2  0  0  0  0
  6  7  1  0  0  0  0
  8  5  1  0  0  0  0
  9  6  2  0  0  0  0
 10 16  1  6  0  0  0
 10  9  1  0  0  0  0
 11  8  1  0  0  0  0
 15 14  2  0  0  0  0
 18 17  1  0  0  0  0
 19 27  1  1  0  0  0
 19 28  1  0  0  0  0
 19 20  1  0  0  0  0
 20 24  1  1  0  0  0
 20 25  1  0  0  0  0
 21 16  1  6  0  0  0
 22 21  1  0  0  0  0
 24 22  1  0  0  0  0
 25 17  1  6  0  0  0
 25 21  1  0  0  0  0
 26 28  1  0  0  0  0
 27 18  1  0  0  0  0
 28 23  1  0  0  0  0
 28 20  1  0  0  0  0
M  END
>  <MODEL>
7

>  <REMARK>
 VINA RESULT:      -8.0      3.805      5.094
  Name = 
  3 active torsions:
  status: ('A' for Active; 'I' for Inactive)
    1  A    between atoms: C_4  and  N_9
    2  A    between atoms: C_11  and  N_12
    3  A    between atoms: N_12  and  C_24
                            x       y       z     vdW  Elec       q    Type
                         _______ _______ _______ _____ _____    ______ ____

>  <TORSDO>
F 3

$$$$
=
 OpenBabel11042414483D

 28 32  0  0  1  0  0  0  0  0999 V2000
  186.5450  177.0920  143.8750 C   0  0  0  0  0  0  0  0  0  0  0  0
  186.3810  177.9410  146.3320 C   0  0  2  0  0  3  0  0  0  0  0  0
  187.2910  177.5790  145.1330 C   0  0  1  0  0  3  0  0  0  0  0  0
  188.4310  176.6830  145.6270 C   0  0  2  0  0  3  0  0  0  0  0  0
  184.4950  178.5760  143.8470 C   0  0  0  0  0  3  0  0  0  0  0  0
  188.0750  175.1630  143.0790 C   0  0  0  0  0  3  0  0  0  0  0  0
  186.9250  176.0900  143.0610 C   0  0  0  0  0  3  0  0  0  0  0  0
  184.2420  178.5990  145.3120 C   0  0  0  0  0  2  0  0  0  0  0  0
  189.2180  175.3220  143.7360 C   0  0  0  0  0  3  0  0  0  0  0  0
  189.5090  176.5130  144.5740 C   0  0  2  0  0  3  0  0  0  0  0  0
  185.4590  179.1090  146.0390 C   0  0  0  0  0  2  0  0  0  0  0  0
  187.9660  175.4760  146.1330 F   0  0  0  0  0  0  0  0  0  0  0  0
  185.4720  177.8950  143.2520 C   0  0  0  0  0  3  0  0  0  0  0  0
  187.1500  178.2470  147.5200 N   0  0  0  0  0  0  0  0  0  0  0  0
  186.7640  179.0490  148.3150 O   0  0  0  0  0  0  0  0  0  0  0  0
  190.8170  176.3600  145.2080 N   0  0  0  0  0  2  0  0  0  0  0  0
  193.4600  175.9370  146.1330 C   0  0  0  0  0  2  0  0  0  0  0  0
  194.7410  175.3720  146.1200 O   0  0  0  0  0  0  0  0  0  0  0  0
  194.4800  174.7980  143.7170 C   0  0  2  0  0  3  0  0  0  0  0  0
  193.7630  176.1560  143.6280 C   0  0  1  0  0  0  0  0  0  0  0  0
  191.8400  177.2220  144.5870 C   0  0  2  0  0  3  0  0  0  0  0  0
  191.7140  177.2580  143.0580 C   0  0  0  0  0  2  0  0  0  0  0  0
  196.1400  176.6170  144.2250 O   0  0  0  0  0  1  0  0  0  0  0  0
  192.7850  176.3340  142.4910 C   0  0  0  0  0  2  0  0  0  0  0  0
  193.2910  176.8320  144.9040 C   0  0  1  0  0  3  0  0  0  0  0  0
  195.5990  176.1330  141.9600 O   0  0  0  0  0  1  0  0  0  0  0  0
  194.7040  174.3270  145.1770 C   0  0  0  0  0  2  0  0  0  0  0  0
  195.2440  176.0630  143.3080 C   0  0  0  0  0  0  0  0  0  0  0  0
  2 14  1  1  0  0  0
  3  1  1  6  0  0  0
  3  4  1  0  0  0  0
  3  2  1  0  0  0  0
  4 12  1  6  0  0  0
  5  8  1  0  0  0  0
  6  9  2  0  0  0  0
  7  6  1  0  0  0  0
  7  1  2  0  0  0  0
  8 11  1  0  0  0  0
  9 10  1  0  0  0  0
 10 16  1  1  0  0  0
 10  4  1  0  0  0  0
 11  2  1  0  0  0  0
 13  5  2  0  0  0  0
 13  1  1  0  0  0  0
 14 15  2  0  0  0  0
 18 17  1  0  0  0  0
 19 27  1  1  0  0  0
 20 24  1  6  0  0  0
 20 19  1  0  0  0  0
 20 25  1  0  0  0  0
 21 25  1  0  0  0  0
 21 16  1  6  0  0  0
 22 21  1  0  0  0  0
 24 22  1  0  0  0  0
 25 17  1  1  0  0  0
 26 28  1  0  0  0  0
 27 18  1  0  0  0  0
 28 20  1  0  0  0  0
 28 19  1  0  0  0  0
 28 23  1  0  0  0  0
M  END
>  <MODEL>
8

>  <REMARK>
 VINA RESULT:      -7.9      1.920      2.765
  Name = 
  3 active torsions:
  status: ('A' for Active; 'I' for Inactive)
    1  A    between atoms: C_4  and  N_9
    2  A    between atoms: C_11  and  N_12
    3  A    between atoms: N_12  and  C_24
                            x       y       z     vdW  Elec       q    Type
                         _______ _______ _______ _____ _____    ______ ____

>  <TORSDO>
F 3

$$$$
=
 OpenBabel11042414483D

 28 32  0  0  1  0  0  0  0  0999 V2000
  186.0080  178.4540  143.9470 C   0  0  0  0  0  0  0  0  0  0  0  0
  186.6010  176.8140  145.8810 C   0  0  2  0  0  3  0  0  0  0  0  0
  187.1120  177.7310  144.7440 C   0  0  1  0  0  3  0  0  0  0  0  0
  188.1470  176.9650  143.9140 C   0  0  2  0  0  3  0  0  0  0  0  0
  184.3270  179.0390  145.7470 C   0  0  0  0  0  3  0  0  0  0  0  0
  186.9110  178.2730  141.5290 C   0  0  0  0  0  3  0  0  0  0  0  0
  185.9860  178.6530  142.6160 C   0  0  0  0  0  3  0  0  0  0  0  0
  184.4430  177.7900  146.5440 C   0  0  0  0  0  2  0  0  0  0  0  0
  188.1870  177.9260  141.6510 C   0  0  0  0  0  3  0  0  0  0  0  0
  188.8890  177.8800  142.9590 C   0  0  2  0  0  3  0  0  0  0  0  0
  185.8720  177.5770  146.9700 C   0  0  0  0  0  2  0  0  0  0  0  0
  187.5990  175.8530  143.2910 F   0  0  0  0  0  0  0  0  0  0  0  0
  184.9870  179.2860  144.6170 C   0  0  0  0  0  3  0  0  0  0  0  0
  187.6760  176.0570  146.4870 N   0  0  0  0  0  0  0  0  0  0  0  0
  188.4510  176.5770  147.2330 O   0  0  0  0  0  0  0  0  0  0  0  0
  190.2590  177.4060  142.7650 N   0  0  0  0  0  2  0  0  0  0  0  0
  190.7420  174.7150  142.0290 C   0  0  0  0  0  2  0  0  0  0  0  0
  191.5160  173.6280  141.6050 O   0  0  0  0  0  0  0  0  0  0  0  0
  193.5820  174.7870  142.3540 C   0  0  2  0  0  3  0  0  0  0  0  0
  192.7100  175.2560  143.5300 C   0  0  1  0  0  0  0  0  0  0  0  0
  190.7050  176.5310  143.8640 C   0  0  2  0  0  3  0  0  0  0  0  0
  191.8370  177.1650  144.6850 C   0  0  0  0  0  2  0  0  0  0  0  0
  192.9120  172.7770  143.7090 O   0  0  0  0  0  1  0  0  0  0  0  0
  193.1430  176.5210  144.2330 C   0  0  0  0  0  2  0  0  0  0  0  0
  191.1980  175.1440  143.4250 C   0  0  1  0  0  3  0  0  0  0  0  0
  194.7210  174.1320  144.4510 O   0  0  0  0  0  1  0  0  0  0  0  0
  192.7570  174.1580  141.2020 C   0  0  0  0  0  2  0  0  0  0  0  0
  193.5660  174.0110  143.6770 C   0  0  0  0  0  0  0  0  0  0  0  0
  1 13  1  0  0  0  0
  2 14  1  1  0  0  0
  2 11  1  0  0  0  0
  3  1  1  6  0  0  0
  3  2  1  0  0  0  0
  4 12  1  6  0  0  0
  4  3  1  0  0  0  0
  5  8  1  0  0  0  0
  6  9  2  0  0  0  0
  6  7  1  0  0  0  0
  7  1  2  0  0  0  0
  8 11  1  0  0  0  0
  9 10  1  0  0  0  0
 10 16  1  6  0  0  0
 10  4  1  0  0  0  0
 13  5  2  0  0  0  0
 14 15  2  0  0  0  0
 18 17  1  0  0  0  0
 19 27  1  6  0  0  0
 19 20  1  0  0  0  0
 19 28  1  0  0  0  0
 20 28  1  0  0  0  0
 20 24  1  1  0  0  0
 21 16  1  6  0  0  0
 21 22  1  0  0  0  0
 24 22  1  0  0  0  0
 25 17  1  6  0  0  0
 25 20  1  0  0  0  0
 25 21  1  0  0  0  0
 27 18  1  0  0  0  0
 28 23  1  0  0  0  0
 28 26  1  0  0  0  0
M  END
>  <MODEL>
9

>  <REMARK>
 VINA RESULT:      -7.9      1.692      2.192
  Name = 
  3 active torsions:
  status: ('A' for Active; 'I' for Inactive)
    1  A    between atoms: C_4  and  N_9
    2  A    between atoms: C_11  and  N_12
    3  A    between atoms: N_12  and  C_24
                            x       y       z     vdW  Elec       q    Type
                         _______ _______ _______ _____ _____    ______ ____

>  <TORSDO>
F 3

$$$$
