=
 OpenBabel11042418543D

 27 28  0  0  0  0  0  0  0  0999 V2000
  188.2730  176.8770  145.6930 C   0  0  0  0  0  0  0  0  0  0  0  0
  190.3700  176.4340  146.7640 C   0  0  0  0  0  3  0  0  0  0  0  0
  186.7250  177.3980  144.2560 C   0  0  0  0  0  3  0  0  0  0  0  0
  188.9670  176.4970  146.8420 C   0  0  0  0  0  3  0  0  0  0  0  0
  187.9510  177.5060  143.6040 C   0  0  0  0  0  0  0  0  0  0  0  0
  191.0450  176.7470  145.5630 C   0  0  0  0  0  0  0  0  0  0  0  0
  190.3100  177.1280  144.4190 C   0  0  0  0  0  3  0  0  0  0  0  0
  186.9430  177.0110  145.5350 N   0  0  0  0  0  0  0  0  0  0  0  0
  188.9220  177.1790  144.5270 C   0  0  0  0  0  0  0  0  0  0  0  0
  193.1960  175.4100  145.5440 C   0  0  0  0  0  1  0  0  0  0  0  0
  192.4720  176.6710  145.5300 N   0  0  0  0  0  2  0  0  0  0  0  0
  185.9130  176.7510  146.5300 C   0  0  0  0  0  2  0  0  0  0  0  0
  183.9620  178.1200  146.5280 O   0  0  0  0  0  0  0  0  0  0  0  0
  185.1740  178.0070  146.8460 C   0  0  0  0  0  0  0  0  0  0  0  0
  186.3830  179.9660  148.1390 C   0  0  0  0  0  3  0  0  0  0  0  0
  185.8330  179.0710  147.5490 C   0  0  0  0  0  0  0  0  0  0  0  0
  188.1620  177.9480  142.1940 C   0  0  0  0  0  2  0  0  0  0  0  0
  187.6680  176.8980  141.2090 C   0  0  0  0  0  2  0  0  0  0  0  0
  185.3280  177.8350  141.0570 N   0  0  0  0  0  2  0  0  0  0  0  0
  186.6360  177.4980  139.1500 O   0  0  0  0  0  0  0  0  0  0  0  0
  186.5260  177.4140  140.4020 C   0  0  0  0  0  0  0  0  0  0  0  0
  184.2190  178.3610  140.3340 C   0  0  0  0  0  3  0  0  0  0  0  0
  183.0220  178.3090  140.8480 C   0  0  0  0  0  0  0  0  0  0  0  0
  181.8230  178.2600  141.3640 C   0  0  0  0  0  3  0  0  0  0  0  0
  180.6210  178.8550  140.6940 C   0  0  0  0  0  2  0  0  0  0  0  0
  178.6630  177.8540  140.4900 C   0  0  0  0  0  1  0  0  0  0  0  0
  179.9360  177.9120  139.9230 O   0  0  0  0  0  0  0  0  0  0  0  0
  1  4  1  0  0  0  0
  2  4  2  0  0  0  0
  3  8  1  0  0  0  0
  5  3  2  0  0  0  0
  5  9  1  0  0  0  0
  6  2  1  0  0  0  0
  7  9  1  0  0  0  0
  7  6  2  0  0  0  0
  8  1  1  0  0  0  0
  8 12  1  0  0  0  0
  9  1  2  0  0  0  0
 11 10  1  0  0  0  0
 11  6  1  0  0  0  0
 12 14  1  0  0  0  0
 13 14  2  0  0  0  0
 14 16  1  0  0  0  0
 16 15  3  0  0  0  0
 17  5  1  0  0  0  0
 18 17  1  0  0  0  0
 20 21  2  0  0  0  0
 21 19  1  0  0  0  0
 21 18  1  0  0  0  0
 22 23  2  0  0  0  0
 22 19  1  0  0  0  0
 23 24  2  0  0  0  0
 25 24  1  0  0  0  0
 27 26  1  0  0  0  0
 27 25  1  0  0  0  0
M  END
>  <MODEL>
1

>  <REMARK>
 VINA RESULT:      -6.4      0.000      0.000
  Name = 
  10 active torsions:
  status: ('A' for Active; 'I' for Inactive)
    1  A    between atoms: N_1  and  C_5
    2  A    between atoms: C_6  and  C_7
    3  A    between atoms: C_6  and  C_14
    4  A    between atoms: C_7  and  N_25
    5  A    between atoms: C_10  and  C_24
    6  A    between atoms: C_17  and  C_20
    7  A    between atoms: N_18  and  C_19
    8  A    between atoms: C_20  and  C_23
    9  A    between atoms: C_21  and  C_23
   10  A    between atoms: C_24  and  O_27
                            x       y       z     vdW  Elec       q    Type
                         _______ _______ _______ _____ _____    ______ ____

>  <TORSDO>
F 10

$$$$
=
 OpenBabel11042418543D

 27 28  0  0  0  0  0  0  0  0999 V2000
  188.2810  176.5540  145.6680 C   0  0  0  0  0  0  0  0  0  0  0  0
  186.3870  176.8570  147.1030 C   0  0  0  0  0  3  0  0  0  0  0  0
  189.6550  176.5780  143.9810 C   0  0  0  0  0  3  0  0  0  0  0  0
  187.6830  176.3460  146.9110 C   0  0  0  0  0  3  0  0  0  0  0  0
  188.5030  177.2570  143.5900 C   0  0  0  0  0  0  0  0  0  0  0  0
  185.7200  177.5520  146.0700 C   0  0  0  0  0  0  0  0  0  0  0  0
  186.3560  177.7440  144.8240 C   0  0  0  0  0  3  0  0  0  0  0  0
  189.4990  176.1560  145.2590 N   0  0  0  0  0  0  0  0  0  0  0  0
  187.6400  177.2290  144.6650 C   0  0  0  0  0  0  0  0  0  0  0  0
  183.7170  178.9460  145.3890 C   0  0  0  0  0  1  0  0  0  0  0  0
  184.4020  178.0530  146.3090 N   0  0  0  0  0  2  0  0  0  0  0  0
  190.4960  175.4400  146.0420 C   0  0  0  0  0  2  0  0  0  0  0  0
  192.2720  174.3520  144.8820 O   0  0  0  0  0  0  0  0  0  0  0  0
  191.0680  174.3170  145.2450 C   0  0  0  0  0  0  0  0  0  0  0  0
  189.5750  172.2180  144.6580 C   0  0  0  0  0  3  0  0  0  0  0  0
  190.2560  173.1750  144.9270 C   0  0  0  0  0  0  0  0  0  0  0  0
  188.2440  177.8450  142.2420 C   0  0  0  0  0  2  0  0  0  0  0  0
  187.7060  176.7950  141.2790 C   0  0  0  0  0  2  0  0  0  0  0  0
  185.4430  177.9070  141.1460 N   0  0  0  0  0  2  0  0  0  0  0  0
  186.6210  177.3000  139.2210 O   0  0  0  0  0  0  0  0  0  0  0  0
  186.5690  177.3340  140.4790 C   0  0  0  0  0  0  0  0  0  0  0  0
  184.3430  178.4590  140.4280 C   0  0  0  0  0  3  0  0  0  0  0  0
  183.1360  178.3570  140.9060 C   0  0  0  0  0  0  0  0  0  0  0  0
  181.9250  178.2550  141.3860 C   0  0  0  0  0  3  0  0  0  0  0  0
  180.7300  178.8710  140.7220 C   0  0  0  0  0  2  0  0  0  0  0  0
  178.8030  177.7930  140.7520 C   0  0  0  0  0  1  0  0  0  0  0  0
  179.9810  177.9250  140.0170 O   0  0  0  0  0  0  0  0  0  0  0  0
  1  4  1  0  0  0  0
  3  8  1  0  0  0  0
  4  2  2  0  0  0  0
  5  3  2  0  0  0  0
  5  9  1  0  0  0  0
  6 11  1  0  0  0  0
  6  2  1  0  0  0  0
  7  6  2  0  0  0  0
  8  1  1  0  0  0  0
  8 12  1  0  0  0  0
  9  7  1  0  0  0  0
  9  1  2  0  0  0  0
 10 11  1  0  0  0  0
 13 14  2  0  0  0  0
 14 12  1  0  0  0  0
 15 16  3  0  0  0  0
 16 14  1  0  0  0  0
 17  5  1  0  0  0  0
 18 17  1  0  0  0  0
 20 21  2  0  0  0  0
 21 19  1  0  0  0  0
 21 18  1  0  0  0  0
 22 23  2  0  0  0  0
 22 19  1  0  0  0  0
 23 24  2  0  0  0  0
 25 24  1  0  0  0  0
 27 25  1  0  0  0  0
 27 26  1  0  0  0  0
M  END
>  <MODEL>
2

>  <REMARK>
 VINA RESULT:      -6.3      2.322      4.537
  Name = 
  10 active torsions:
  status: ('A' for Active; 'I' for Inactive)
    1  A    between atoms: N_1  and  C_5
    2  A    between atoms: C_6  and  C_7
    3  A    between atoms: C_6  and  C_14
    4  A    between atoms: C_7  and  N_25
    5  A    between atoms: C_10  and  C_24
    6  A    between atoms: C_17  and  C_20
    7  A    between atoms: N_18  and  C_19
    8  A    between atoms: C_20  and  C_23
    9  A    between atoms: C_21  and  C_23
   10  A    between atoms: C_24  and  O_27
                            x       y       z     vdW  Elec       q    Type
                         _______ _______ _______ _____ _____    ______ ____

>  <TORSDO>
F 10

$$$$
=
 OpenBabel11042418543D

 27 28  0  0  0  0  0  0  0  0999 V2000
  187.5860  176.9640  144.4950 C   0  0  0  0  0  0  0  0  0  0  0  0
  186.2370  176.4800  142.5770 C   0  0  0  0  0  3  0  0  0  0  0  0
  189.2100  177.5510  145.8190 C   0  0  0  0  0  3  0  0  0  0  0  0
  186.3700  176.5180  143.9760 C   0  0  0  0  0  3  0  0  0  0  0  0
  189.6530  177.7330  144.5100 C   0  0  0  0  0  0  0  0  0  0  0  0
  187.2980  176.8770  141.7340 C   0  0  0  0  0  0  0  0  0  0  0  0
  188.5150  177.3230  142.2950 C   0  0  0  0  0  3  0  0  0  0  0  0
  187.9410  177.0800  145.7880 N   0  0  0  0  0  0  0  0  0  0  0  0
  188.6160  177.3530  143.6840 C   0  0  0  0  0  0  0  0  0  0  0  0
  186.0840  177.5700  139.6220 C   0  0  0  0  0  1  0  0  0  0  0  0
  187.1170  176.8200  140.3170 N   0  0  0  0  0  2  0  0  0  0  0  0
  187.1140  176.7960  146.9530 C   0  0  0  0  0  2  0  0  0  0  0  0
  186.8540  178.7920  148.2300 O   0  0  0  0  0  0  0  0  0  0  0  0
  186.3680  178.0200  147.3640 C   0  0  0  0  0  0  0  0  0  0  0  0
  184.0630  178.6100  146.2170 C   0  0  0  0  0  3  0  0  0  0  0  0
  185.1140  178.3410  146.7410 C   0  0  0  0  0  0  0  0  0  0  0  0
  191.0100  178.1970  144.0970 C   0  0  0  0  0  2  0  0  0  0  0  0
  191.7940  177.0750  143.4290 C   0  0  0  0  0  2  0  0  0  0  0  0
  193.6670  176.5730  145.0460 N   0  0  0  0  0  2  0  0  0  0  0  0
  191.8610  175.1150  144.7790 O   0  0  0  0  0  0  0  0  0  0  0  0
  192.4310  176.1870  144.4440 C   0  0  0  0  0  0  0  0  0  0  0  0
  194.3030  175.7750  146.0400 C   0  0  0  0  0  3  0  0  0  0  0  0
  195.3290  175.0360  145.7240 C   0  0  0  0  0  0  0  0  0  0  0  0
  196.3590  174.2970  145.4070 C   0  0  0  0  0  3  0  0  0  0  0  0
  197.1210  173.4860  146.4130 C   0  0  0  0  0  2  0  0  0  0  0  0
  197.3320  171.8250  144.9730 C   0  0  0  0  0  1  0  0  0  0  0  0
  196.8870  172.1170  146.2620 O   0  0  0  0  0  0  0  0  0  0  0  0
  1  8  1  0  0  0  0
  2  4  2  0  0  0  0
  4  1  1  0  0  0  0
  5  3  2  0  0  0  0
  6  7  2  0  0  0  0
  6  2  1  0  0  0  0
  7  9  1  0  0  0  0
  8  3  1  0  0  0  0
  8 12  1  0  0  0  0
  9  1  2  0  0  0  0
  9  5  1  0  0  0  0
 10 11  1  0  0  0  0
 11  6  1  0  0  0  0
 12 14  1  0  0  0  0
 14 13  2  0  0  0  0
 15 16  3  0  0  0  0
 16 14  1  0  0  0  0
 17  5  1  0  0  0  0
 18 17  1  0  0  0  0
 18 21  1  0  0  0  0
 19 22  1  0  0  0  0
 21 20  2  0  0  0  0
 21 19  1  0  0  0  0
 23 22  2  0  0  0  0
 24 23  2  0  0  0  0
 24 25  1  0  0  0  0
 26 27  1  0  0  0  0
 27 25  1  0  0  0  0
M  END
>  <MODEL>
3

>  <REMARK>
 VINA RESULT:      -6.3      3.646      8.995
  Name = 
  10 active torsions:
  status: ('A' for Active; 'I' for Inactive)
    1  A    between atoms: N_1  and  C_5
    2  A    between atoms: C_6  and  C_7
    3  A    between atoms: C_6  and  C_14
    4  A    between atoms: C_7  and  N_25
    5  A    between atoms: C_10  and  C_24
    6  A    between atoms: C_17  and  C_20
    7  A    between atoms: N_18  and  C_19
    8  A    between atoms: C_20  and  C_23
    9  A    between atoms: C_21  and  C_23
   10  A    between atoms: C_24  and  O_27
                            x       y       z     vdW  Elec       q    Type
                         _______ _______ _______ _____ _____    ______ ____

>  <TORSDO>
F 10

$$$$
=
 OpenBabel11042418543D

 27 28  0  0  0  0  0  0  0  0999 V2000
  188.1980  176.2850  145.6460 C   0  0  0  0  0  0  0  0  0  0  0  0
  186.7570  177.6580  146.9780 C   0  0  0  0  0  3  0  0  0  0  0  0
  189.1170  175.1870  144.0080 C   0  0  0  0  0  3  0  0  0  0  0  0
  187.8960  176.8390  146.8910 C   0  0  0  0  0  3  0  0  0  0  0  0
  187.9960  175.8370  143.4960 C   0  0  0  0  0  0  0  0  0  0  0  0
  185.9510  177.9070  145.8450 C   0  0  0  0  0  0  0  0  0  0  0  0
  186.2870  177.3290  144.6010 C   0  0  0  0  0  3  0  0  0  0  0  0
  189.2230  175.4740  145.3270 N   0  0  0  0  0  0  0  0  0  0  0  0
  187.4220  176.5240  144.5450 C   0  0  0  0  0  0  0  0  0  0  0  0
  183.9370  179.0900  144.8650 C   0  0  0  0  0  1  0  0  0  0  0  0
  184.8020  178.7460  145.9820 N   0  0  0  0  0  2  0  0  0  0  0  0
  190.2840  175.0140  146.2120 C   0  0  0  0  0  2  0  0  0  0  0  0
  192.0000  176.4860  145.4570 O   0  0  0  0  0  0  0  0  0  0  0  0
  191.2870  176.0980  146.4180 C   0  0  0  0  0  0  0  0  0  0  0  0
  191.5140  177.2560  148.7810 C   0  0  0  0  0  3  0  0  0  0  0  0
  191.4120  176.7270  147.7030 C   0  0  0  0  0  0  0  0  0  0  0  0
  187.4940  175.7520  142.0930 C   0  0  0  0  0  2  0  0  0  0  0  0
  187.7960  177.0300  141.3220 C   0  0  0  0  0  2  0  0  0  0  0  0
  185.4160  177.8510  141.1240 N   0  0  0  0  0  2  0  0  0  0  0  0
  186.7320  177.4520  139.2350 O   0  0  0  0  0  0  0  0  0  0  0  0
  186.6290  177.4430  140.4910 C   0  0  0  0  0  0  0  0  0  0  0  0
  184.2820  178.2800  140.3770 C   0  0  0  0  0  3  0  0  0  0  0  0
  183.1020  178.2910  140.9300 C   0  0  0  0  0  0  0  0  0  0  0  0
  181.9200  178.3040  141.4850 C   0  0  0  0  0  3  0  0  0  0  0  0
  180.6940  178.8080  140.7830 C   0  0  0  0  0  2  0  0  0  0  0  0
  178.4880  178.7440  140.8320 C   0  0  0  0  0  1  0  0  0  0  0  0
  179.6160  177.9300  140.9230 O   0  0  0  0  0  0  0  0  0  0  0  0
  1  4  1  0  0  0  0
  3  8  1  0  0  0  0
  4  2  2  0  0  0  0
  5  3  2  0  0  0  0
  5  9  1  0  0  0  0
  6 11  1  0  0  0  0
  6  2  1  0  0  0  0
  7  6  2  0  0  0  0
  8  1  1  0  0  0  0
  8 12  1  0  0  0  0
  9  7  1  0  0  0  0
  9  1  2  0  0  0  0
 10 11  1  0  0  0  0
 12 14  1  0  0  0  0
 13 14  2  0  0  0  0
 14 16  1  0  0  0  0
 16 15  3  0  0  0  0
 17  5  1  0  0  0  0
 18 17  1  0  0  0  0
 20 21  2  0  0  0  0
 21 19  1  0  0  0  0
 21 18  1  0  0  0  0
 22 23  2  0  0  0  0
 22 19  1  0  0  0  0
 23 24  2  0  0  0  0
 25 27  1  0  0  0  0
 25 24  1  0  0  0  0
 26 27  1  0  0  0  0
M  END
>  <MODEL>
4

>  <REMARK>
 VINA RESULT:      -6.2      2.108      4.113
  Name = 
  10 active torsions:
  status: ('A' for Active; 'I' for Inactive)
    1  A    between atoms: N_1  and  C_5
    2  A    between atoms: C_6  and  C_7
    3  A    between atoms: C_6  and  C_14
    4  A    between atoms: C_7  and  N_25
    5  A    between atoms: C_10  and  C_24
    6  A    between atoms: C_17  and  C_20
    7  A    between atoms: N_18  and  C_19
    8  A    between atoms: C_20  and  C_23
    9  A    between atoms: C_21  and  C_23
   10  A    between atoms: C_24  and  O_27
                            x       y       z     vdW  Elec       q    Type
                         _______ _______ _______ _____ _____    ______ ____

>  <TORSDO>
F 10

$$$$
=
 OpenBabel11042418543D

 27 28  0  0  0  0  0  0  0  0999 V2000
  187.4890  176.9370  144.5440 C   0  0  0  0  0  0  0  0  0  0  0  0
  186.1550  176.6310  142.5790 C   0  0  0  0  0  3  0  0  0  0  0  0
  189.1220  177.3370  145.9250 C   0  0  0  0  0  3  0  0  0  0  0  0
  186.2530  176.6180  143.9810 C   0  0  0  0  0  3  0  0  0  0  0  0
  189.6150  177.5140  144.6340 C   0  0  0  0  0  0  0  0  0  0  0  0
  187.2710  176.9540  141.7750 C   0  0  0  0  0  0  0  0  0  0  0  0
  188.5070  177.2720  142.3790 C   0  0  0  0  0  3  0  0  0  0  0  0
  187.8170  176.9830  145.8490 N   0  0  0  0  0  0  0  0  0  0  0  0
  188.5720  177.2520  143.7710 C   0  0  0  0  0  0  0  0  0  0  0  0
  185.9970  177.5700  139.6740 C   0  0  0  0  0  1  0  0  0  0  0  0
  187.1250  176.9520  140.3530 N   0  0  0  0  0  2  0  0  0  0  0  0
  186.9360  176.7440  146.9830 C   0  0  0  0  0  2  0  0  0  0  0  0
  186.7720  178.7730  148.2230 O   0  0  0  0  0  0  0  0  0  0  0  0
  186.2470  178.0070  147.3740 C   0  0  0  0  0  0  0  0  0  0  0  0
  183.9620  178.6780  146.2330 C   0  0  0  0  0  3  0  0  0  0  0  0
  185.0050  178.3710  146.7520 C   0  0  0  0  0  0  0  0  0  0  0  0
  191.0200  177.8640  144.2690 C   0  0  0  0  0  2  0  0  0  0  0  0
  191.9490  176.6720  144.4560 C   0  0  0  0  0  2  0  0  0  0  0  0
  190.9520  174.5310  143.5620 N   0  0  0  0  0  2  0  0  0  0  0  0
  192.3400  175.8750  142.2480 O   0  0  0  0  0  0  0  0  0  0  0  0
  191.7760  175.6790  143.3570 C   0  0  0  0  0  0  0  0  0  0  0  0
  190.7340  173.5670  142.5360 C   0  0  0  0  0  3  0  0  0  0  0  0
  189.6650  173.6350  141.7950 C   0  0  0  0  0  0  0  0  0  0  0  0
  188.5930  173.7040  141.0500 C   0  0  0  0  0  3  0  0  0  0  0  0
  188.3320  172.7670  139.9080 C   0  0  0  0  0  2  0  0  0  0  0  0
  189.6880  171.6390  138.5810 C   0  0  0  0  0  1  0  0  0  0  0  0
  189.2600  172.9330  138.8770 O   0  0  0  0  0  0  0  0  0  0  0  0
  1  8  1  0  0  0  0
  2  4  2  0  0  0  0
  4  1  1  0  0  0  0
  5  3  2  0  0  0  0
  6  7  2  0  0  0  0
  6  2  1  0  0  0  0
  7  9  1  0  0  0  0
  8  3  1  0  0  0  0
  8 12  1  0  0  0  0
  9  1  2  0  0  0  0
  9  5  1  0  0  0  0
 10 11  1  0  0  0  0
 11  6  1  0  0  0  0
 12 14  1  0  0  0  0
 14 13  2  0  0  0  0
 15 16  3  0  0  0  0
 16 14  1  0  0  0  0
 17 18  1  0  0  0  0
 17  5  1  0  0  0  0
 20 21  2  0  0  0  0
 21 19  1  0  0  0  0
 21 18  1  0  0  0  0
 22 19  1  0  0  0  0
 23 22  2  0  0  0  0
 24 23  2  0  0  0  0
 25 24  1  0  0  0  0
 26 27  1  0  0  0  0
 27 25  1  0  0  0  0
M  END
>  <MODEL>
5

>  <REMARK>
 VINA RESULT:      -6.2      3.408      6.171
  Name = 
  10 active torsions:
  status: ('A' for Active; 'I' for Inactive)
    1  A    between atoms: N_1  and  C_5
    2  A    between atoms: C_6  and  C_7
    3  A    between atoms: C_6  and  C_14
    4  A    between atoms: C_7  and  N_25
    5  A    between atoms: C_10  and  C_24
    6  A    between atoms: C_17  and  C_20
    7  A    between atoms: N_18  and  C_19
    8  A    between atoms: C_20  and  C_23
    9  A    between atoms: C_21  and  C_23
   10  A    between atoms: C_24  and  O_27
                            x       y       z     vdW  Elec       q    Type
                         _______ _______ _______ _____ _____    ______ ____

>  <TORSDO>
F 10

$$$$
=
 OpenBabel11042418543D

 27 28  0  0  0  0  0  0  0  0999 V2000
  187.1720  176.3050  145.0440 C   0  0  0  0  0  0  0  0  0  0  0  0
  187.3430  176.0050  142.6730 C   0  0  0  0  0  3  0  0  0  0  0  0
  187.5520  176.3130  147.1860 C   0  0  0  0  0  3  0  0  0  0  0  0
  186.6050  176.4630  143.7790 C   0  0  0  0  0  3  0  0  0  0  0  0
  188.6560  175.7290  146.5690 C   0  0  0  0  0  0  0  0  0  0  0  0
  188.6100  175.4040  142.8440 C   0  0  0  0  0  0  0  0  0  0  0  0
  189.1530  175.2600  144.1400 C   0  0  0  0  0  3  0  0  0  0  0  0
  186.6530  176.6590  146.2340 N   0  0  0  0  0  0  0  0  0  0  0  0
  188.4000  175.7260  145.2150 C   0  0  0  0  0  0  0  0  0  0  0  0
  190.6410  174.3410  141.7670 C   0  0  0  0  0  1  0  0  0  0  0  0
  189.3240  174.9510  141.6910 N   0  0  0  0  0  2  0  0  0  0  0  0
  185.3830  177.3290  146.4720 C   0  0  0  0  0  2  0  0  0  0  0  0
  185.7960  179.4170  147.5450 O   0  0  0  0  0  0  0  0  0  0  0  0
  185.5740  178.8080  146.4670 C   0  0  0  0  0  0  0  0  0  0  0  0
  185.5210  180.1430  144.1880 C   0  0  0  0  0  3  0  0  0  0  0  0
  185.5440  179.5330  145.2270 C   0  0  0  0  0  0  0  0  0  0  0  0
  189.8550  175.1670  147.2600 C   0  0  0  0  0  2  0  0  0  0  0  0
  190.8680  176.2590  147.5780 C   0  0  0  0  0  2  0  0  0  0  0  0
  192.3890  174.7200  146.2780 N   0  0  0  0  0  2  0  0  0  0  0  0
  193.1240  176.8000  147.0470 O   0  0  0  0  0  0  0  0  0  0  0  0
  192.1940  175.9550  146.9690 C   0  0  0  0  0  0  0  0  0  0  0  0
  193.6280  174.3920  145.6560 C   0  0  0  0  0  3  0  0  0  0  0  0
  193.9450  174.9270  144.5110 C   0  0  0  0  0  0  0  0  0  0  0  0
  194.2630  175.4650  143.3630 C   0  0  0  0  0  3  0  0  0  0  0  0
  195.5780  175.2210  142.6850 C   0  0  0  0  0  2  0  0  0  0  0  0
  197.0600  176.7930  143.1400 C   0  0  0  0  0  1  0  0  0  0  0  0
  196.6580  175.5140  143.5220 O   0  0  0  0  0  0  0  0  0  0  0  0
  1  9  1  0  0  0  0
  1  8  1  0  0  0  0
  2  6  2  0  0  0  0
  2  4  1  0  0  0  0
  4  1  2  0  0  0  0
  5  3  2  0  0  0  0
  5 17  1  0  0  0  0
  6  7  1  0  0  0  0
  7  9  2  0  0  0  0
  8 12  1  0  0  0  0
  8  3  1  0  0  0  0
  9  5  1  0  0  0  0
 11 10  1  0  0  0  0
 11  6  1  0  0  0  0
 14 12  1  0  0  0  0
 14 13  2  0  0  0  0
 15 16  3  0  0  0  0
 16 14  1  0  0  0  0
 17 18  1  0  0  0  0
 19 21  1  0  0  0  0
 21 20  2  0  0  0  0
 21 18  1  0  0  0  0
 22 19  1  0  0  0  0
 23 22  2  0  0  0  0
 24 23  2  0  0  0  0
 25 24  1  0  0  0  0
 25 27  1  0  0  0  0
 26 27  1  0  0  0  0
M  END
>  <MODEL>
6

>  <REMARK>
 VINA RESULT:      -6.0      3.935      8.288
  Name = 
  10 active torsions:
  status: ('A' for Active; 'I' for Inactive)
    1  A    between atoms: N_1  and  C_5
    2  A    between atoms: C_6  and  C_7
    3  A    between atoms: C_6  and  C_14
    4  A    between atoms: C_7  and  N_25
    5  A    between atoms: C_10  and  C_24
    6  A    between atoms: C_17  and  C_20
    7  A    between atoms: N_18  and  C_19
    8  A    between atoms: C_20  and  C_23
    9  A    between atoms: C_21  and  C_23
   10  A    between atoms: C_24  and  O_27
                            x       y       z     vdW  Elec       q    Type
                         _______ _______ _______ _____ _____    ______ ____

>  <TORSDO>
F 10

$$$$
=
 OpenBabel11042418543D

 27 28  0  0  0  0  0  0  0  0999 V2000
  190.7270  176.1410  146.5720 C   0  0  0  0  0  0  0  0  0  0  0  0
  188.9500  177.5990  147.2470 C   0  0  0  0  0  3  0  0  0  0  0  0
  191.8880  174.5120  145.7170 C   0  0  0  0  0  3  0  0  0  0  0  0
  190.3240  177.3000  147.2370 C   0  0  0  0  0  3  0  0  0  0  0  0
  190.5520  174.2840  145.3970 C   0  0  0  0  0  0  0  0  0  0  0  0
  188.0180  176.7530  146.6070 C   0  0  0  0  0  0  0  0  0  0  0  0
  188.4610  175.5880  145.9430 C   0  0  0  0  0  3  0  0  0  0  0  0
  191.9750  175.6550  146.4380 N   0  0  0  0  0  0  0  0  0  0  0  0
  189.8280  175.3200  145.9490 C   0  0  0  0  0  0  0  0  0  0  0  0
  186.0640  177.9890  147.6420 C   0  0  0  0  0  1  0  0  0  0  0  0
  186.6300  177.0970  146.6440 N   0  0  0  0  0  2  0  0  0  0  0  0
  193.2060  176.2550  146.9300 C   0  0  0  0  0  2  0  0  0  0  0  0
  194.2890  177.1680  145.0130 O   0  0  0  0  0  0  0  0  0  0  0  0
  194.2480  176.2420  145.8630 C   0  0  0  0  0  0  0  0  0  0  0  0
  196.0520  174.3140  145.8020 C   0  0  0  0  0  3  0  0  0  0  0  0
  195.2300  175.1950  145.8300 C   0  0  0  0  0  0  0  0  0  0  0  0
  190.0150  173.1090  144.6490 C   0  0  0  0  0  2  0  0  0  0  0  0
  190.3740  173.1880  143.1710 C   0  0  0  0  0  2  0  0  0  0  0  0
  188.2820  174.4210  142.4800 N   0  0  0  0  0  2  0  0  0  0  0  0
  190.4090  175.2750  142.0280 O   0  0  0  0  0  0  0  0  0  0  0  0
  189.7080  174.3510  142.5190 C   0  0  0  0  0  0  0  0  0  0  0  0
  187.5970  175.5230  141.8920 C   0  0  0  0  0  3  0  0  0  0  0  0
  186.6930  176.1680  142.5740 C   0  0  0  0  0  0  0  0  0  0  0  0
  185.7880  176.8150  143.2590 C   0  0  0  0  0  3  0  0  0  0  0  0
  185.0780  178.0260  142.7310 C   0  0  0  0  0  2  0  0  0  0  0  0
  185.5570  179.7890  143.9720 C   0  0  0  0  0  1  0  0  0  0  0  0
  185.8890  179.1630  142.7700 O   0  0  0  0  0  0  0  0  0  0  0  0
  1  4  1  0  0  0  0
  3  8  1  0  0  0  0
  4  2  2  0  0  0  0
  5  3  2  0  0  0  0
  5  9  1  0  0  0  0
  6 11  1  0  0  0  0
  6  2  1  0  0  0  0
  7  9  1  0  0  0  0
  7  6  2  0  0  0  0
  8  1  1  0  0  0  0
  8 12  1  0  0  0  0
  9  1  2  0  0  0  0
 11 10  1  0  0  0  0
 13 14  2  0  0  0  0
 14 12  1  0  0  0  0
 15 16  3  0  0  0  0
 16 14  1  0  0  0  0
 17  5  1  0  0  0  0
 18 17  1  0  0  0  0
 19 21  1  0  0  0  0
 20 21  2  0  0  0  0
 21 18  1  0  0  0  0
 22 19  1  0  0  0  0
 22 23  2  0  0  0  0
 23 24  2  0  0  0  0
 25 27  1  0  0  0  0
 25 24  1  0  0  0  0
 27 26  1  0  0  0  0
M  END
>  <MODEL>
7

>  <REMARK>
 VINA RESULT:      -6.0      3.094      6.199
  Name = 
  10 active torsions:
  status: ('A' for Active; 'I' for Inactive)
    1  A    between atoms: N_1  and  C_5
    2  A    between atoms: C_6  and  C_7
    3  A    between atoms: C_6  and  C_14
    4  A    between atoms: C_7  and  N_25
    5  A    between atoms: C_10  and  C_24
    6  A    between atoms: C_17  and  C_20
    7  A    between atoms: N_18  and  C_19
    8  A    between atoms: C_20  and  C_23
    9  A    between atoms: C_21  and  C_23
   10  A    between atoms: C_24  and  O_27
                            x       y       z     vdW  Elec       q    Type
                         _______ _______ _______ _____ _____    ______ ____

>  <TORSDO>
F 10

$$$$
=
 OpenBabel11042418543D

 27 28  0  0  0  0  0  0  0  0999 V2000
  185.5680  178.3000  141.8300 C   0  0  0  0  0  0  0  0  0  0  0  0
  183.8700  178.2870  140.1400 C   0  0  0  0  0  3  0  0  0  0  0  0
  186.6350  178.3130  143.7260 C   0  0  0  0  0  3  0  0  0  0  0  0
  185.2360  178.2960  140.4750 C   0  0  0  0  0  3  0  0  0  0  0  0
  185.2720  178.2980  144.0150 C   0  0  0  0  0  0  0  0  0  0  0  0
  182.8770  178.2850  141.1440 C   0  0  0  0  0  0  0  0  0  0  0  0
  183.2490  178.2900  142.5060 C   0  0  0  0  0  3  0  0  0  0  0  0
  186.7960  178.3140  142.3820 N   0  0  0  0  0  0  0  0  0  0  0  0
  184.6100  178.2960  142.8060 C   0  0  0  0  0  0  0  0  0  0  0  0
  180.4260  178.6820  141.6500 C   0  0  0  0  0  1  0  0  0  0  0  0
  181.5000  178.2780  140.7570 N   0  0  0  0  0  2  0  0  0  0  0  0
  188.0710  178.2900  141.6810 C   0  0  0  0  0  2  0  0  0  0  0  0
  188.7800  176.0880  142.2540 O   0  0  0  0  0  0  0  0  0  0  0  0
  189.0000  177.3230  142.3340 C   0  0  0  0  0  0  0  0  0  0  0  0
  191.1470  178.1990  143.5990 C   0  0  0  0  0  3  0  0  0  0  0  0
  190.1680  177.8000  143.0210 C   0  0  0  0  0  0  0  0  0  0  0  0
  184.6610  178.3370  145.3770 C   0  0  0  0  0  2  0  0  0  0  0  0
  185.5130  179.1560  146.3380 C   0  0  0  0  0  2  0  0  0  0  0  0
  186.9610  177.0970  146.5380 N   0  0  0  0  0  2  0  0  0  0  0  0
  186.7220  178.5990  148.3110 O   0  0  0  0  0  0  0  0  0  0  0  0
  186.4200  178.2780  147.1310 C   0  0  0  0  0  0  0  0  0  0  0  0
  187.8520  176.2390  147.2440 C   0  0  0  0  0  3  0  0  0  0  0  0
  189.1090  176.1810  146.9020 C   0  0  0  0  0  0  0  0  0  0  0  0
  190.3680  176.1240  146.5600 C   0  0  0  0  0  3  0  0  0  0  0  0
  191.3780  175.2980  147.3010 C   0  0  0  0  0  2  0  0  0  0  0  0
  193.0810  175.1030  145.9090 C   0  0  0  0  0  1  0  0  0  0  0  0
  192.6820  175.7490  147.0790 O   0  0  0  0  0  0  0  0  0  0  0  0
  1  8  1  0  0  0  0
  1  9  1  0  0  0  0
  2  4  1  0  0  0  0
  2  6  2  0  0  0  0
  3  5  2  0  0  0  0
  4  1  2  0  0  0  0
  5 17  1  0  0  0  0
  6  7  1  0  0  0  0
  7  9  2  0  0  0  0
  8  3  1  0  0  0  0
  9  5  1  0  0  0  0
 11  6  1  0  0  0  0
 11 10  1  0  0  0  0
 12 14  1  0  0  0  0
 12  8  1  0  0  0  0
 13 14  2  0  0  0  0
 14 16  1  0  0  0  0
 16 15  3  0  0  0  0
 17 18  1  0  0  0  0
 18 21  1  0  0  0  0
 19 21  1  0  0  0  0
 19 22  1  0  0  0  0
 21 20  2  0  0  0  0
 23 22  2  0  0  0  0
 24 23  2  0  0  0  0
 24 25  1  0  0  0  0
 26 27  1  0  0  0  0
 27 25  1  0  0  0  0
M  END
>  <MODEL>
8

>  <REMARK>
 VINA RESULT:      -5.9      2.642      8.604
  Name = 
  10 active torsions:
  status: ('A' for Active; 'I' for Inactive)
    1  A    between atoms: N_1  and  C_5
    2  A    between atoms: C_6  and  C_7
    3  A    between atoms: C_6  and  C_14
    4  A    between atoms: C_7  and  N_25
    5  A    between atoms: C_10  and  C_24
    6  A    between atoms: C_17  and  C_20
    7  A    between atoms: N_18  and  C_19
    8  A    between atoms: C_20  and  C_23
    9  A    between atoms: C_21  and  C_23
   10  A    between atoms: C_24  and  O_27
                            x       y       z     vdW  Elec       q    Type
                         _______ _______ _______ _____ _____    ______ ____

>  <TORSDO>
F 10

$$$$
=
 OpenBabel11042418543D

 27 28  0  0  0  0  0  0  0  0999 V2000
  188.7450  176.6010  143.5430 C   0  0  0  0  0  0  0  0  0  0  0  0
  189.5370  177.1120  145.7450 C   0  0  0  0  0  3  0  0  0  0  0  0
  188.1320  175.5770  141.7240 C   0  0  0  0  0  3  0  0  0  0  0  0
  189.0460  177.5640  144.5070 C   0  0  0  0  0  3  0  0  0  0  0  0
  188.5260  174.6030  142.6370 C   0  0  0  0  0  0  0  0  0  0  0  0
  189.7180  175.7340  145.9960 C   0  0  0  0  0  0  0  0  0  0  0  0
  189.4030  174.7880  144.9970 C   0  0  0  0  0  3  0  0  0  0  0  0
  188.2730  176.7960  142.2980 N   0  0  0  0  0  0  0  0  0  0  0  0
  188.9170  175.2650  143.7820 C   0  0  0  0  0  0  0  0  0  0  0  0
  191.2160  176.0810  148.0090 C   0  0  0  0  0  1  0  0  0  0  0  0
  190.2210  175.3220  147.2690 N   0  0  0  0  0  2  0  0  0  0  0  0
  187.9300  178.0690  141.6800 C   0  0  0  0  0  2  0  0  0  0  0  0
  185.6730  177.9830  140.9210 O   0  0  0  0  0  0  0  0  0  0  0  0
  186.4710  178.3360  141.8270 C   0  0  0  0  0  0  0  0  0  0  0  0
  185.5510  179.4830  144.0210 C   0  0  0  0  0  3  0  0  0  0  0  0
  185.9700  178.9580  143.0200 C   0  0  0  0  0  0  0  0  0  0  0  0
  188.5680  173.1310  142.3900 C   0  0  0  0  0  2  0  0  0  0  0  0
  189.6030  172.7810  141.3290 C   0  0  0  0  0  2  0  0  0  0  0  0
  191.4310  172.4870  143.0470 N   0  0  0  0  0  2  0  0  0  0  0  0
  191.7560  173.7760  141.1250 O   0  0  0  0  0  0  0  0  0  0  0  0
  190.9850  173.0590  141.8160 C   0  0  0  0  0  0  0  0  0  0  0  0
  192.7490  172.7000  143.5430 C   0  0  0  0  0  3  0  0  0  0  0  0
  192.9940  173.7080  144.3310 C   0  0  0  0  0  0  0  0  0  0  0  0
  193.2400  174.7180  145.1230 C   0  0  0  0  0  3  0  0  0  0  0  0
  194.5850  174.9630  145.7380 C   0  0  0  0  0  2  0  0  0  0  0  0
  194.4940  177.1690  145.7480 C   0  0  0  0  0  1  0  0  0  0  0  0
  194.5710  176.0660  146.5970 O   0  0  0  0  0  0  0  0  0  0  0  0
  1  9  2  0  0  0  0
  1  4  1  0  0  0  0
  2  6  1  0  0  0  0
  3  8  1  0  0  0  0
  3  5  2  0  0  0  0
  4  2  2  0  0  0  0
  5  9  1  0  0  0  0
  6 11  1  0  0  0  0
  7  6  2  0  0  0  0
  8  1  1  0  0  0  0
  9  7  1  0  0  0  0
 11 10  1  0  0  0  0
 12 14  1  0  0  0  0
 12  8  1  0  0  0  0
 13 14  2  0  0  0  0
 14 16  1  0  0  0  0
 16 15  3  0  0  0  0
 17  5  1  0  0  0  0
 18 21  1  0  0  0  0
 18 17  1  0  0  0  0
 19 22  1  0  0  0  0
 20 21  2  0  0  0  0
 21 19  1  0  0  0  0
 22 23  2  0  0  0  0
 23 24  2  0  0  0  0
 24 25  1  0  0  0  0
 25 27  1  0  0  0  0
 26 27  1  0  0  0  0
M  END
>  <MODEL>
9

>  <REMARK>
 VINA RESULT:      -5.9      3.531      7.676
  Name = 
  10 active torsions:
  status: ('A' for Active; 'I' for Inactive)
    1  A    between atoms: N_1  and  C_5
    2  A    between atoms: C_6  and  C_7
    3  A    between atoms: C_6  and  C_14
    4  A    between atoms: C_7  and  N_25
    5  A    between atoms: C_10  and  C_24
    6  A    between atoms: C_17  and  C_20
    7  A    between atoms: N_18  and  C_19
    8  A    between atoms: C_20  and  C_23
    9  A    between atoms: C_21  and  C_23
   10  A    between atoms: C_24  and  O_27
                            x       y       z     vdW  Elec       q    Type
                         _______ _______ _______ _____ _____    ______ ____

>  <TORSDO>
F 10

$$$$
