=
 OpenBabel11042417573D

 55 59  0  0  1  0  0  0  0  0999 V2000
  190.2380  174.7040  144.0040 O   0  0  0  0  0  0  0  0  0  0  0  0
  189.9760  175.9100  144.6990 C   0  0  2  0  0  3  0  0  0  0  0  0
  188.2570  175.3290  143.1760 N   0  0  0  0  0  0  0  0  0  0  0  0
  188.6370  176.3750  144.1150 C   0  0  1  0  0  3  0  0  0  0  0  0
  189.1910  174.4420  143.1470 C   0  0  0  0  0  0  0  0  0  0  0  0
  190.8830  177.9910  143.6980 C   0  0  0  0  0  2  0  0  0  0  0  0
  191.0810  176.9020  144.4530 C   0  0  0  0  0  0  0  0  0  0  0  0
  192.3760  176.7350  145.1890 C   0  0  0  0  0  2  0  0  0  0  0  0
  193.1580  175.6310  144.6400 N   0  0  0  0  0  2  0  0  0  0  0  0
  194.4980  176.1070  144.3170 C   0  0  0  0  0  2  0  0  0  0  0  0
  195.9730  173.0780  143.0510 O   0  0  0  0  0  0  0  0  0  0  0  0
  194.9480  173.7660  143.7200 C   0  0  0  0  0  2  0  0  0  0  0  0
  195.5190  174.9860  144.4160 C   0  0  2  0  0  3  0  0  0  0  0  0
  196.9600  171.5730  144.7230 C   0  0  0  0  0  2  0  0  0  0  0  0
  196.0330  171.7420  143.5160 C   0  0  1  0  0  3  0  0  0  0  0  0
  196.4440  172.2670  145.9760 C   0  0  0  0  0  2  0  0  0  0  0  0
  196.9530  173.6980  146.0410 C   0  0  0  0  0  2  0  0  0  0  0  0
  195.8040  174.6840  145.8810 C   0  0  0  0  0  2  0  0  0  0  0  0
  194.7660  171.1520  143.7290 O   0  0  0  0  0  0  0  0  0  0  0  0
  194.8950  169.7430  143.7330 C   0  0  2  0  0  3  0  0  0  0  0  0
  194.6450  169.0970  142.3720 C   0  0  0  0  0  1  0  0  0  0  0  0
  194.8850  168.7400  146.0520 N   0  0  0  0  0  2  0  0  0  0  0  0
  192.9260  168.8700  144.7900 O   0  0  0  0  0  0  0  0  0  0  0  0
  194.2260  168.1740  147.2160 C   0  0  0  0  0  1  0  0  0  0  0  0
  194.1670  169.0790  144.8660 C   0  0  0  0  0  0  0  0  0  0  0  0
  187.5830  176.5310  145.1970 C   0  0  0  0  0  2  0  0  0  0  0  0
  185.8070  178.1620  145.8380 C   0  0  0  0  0  0  0  0  0  0  0  0
  184.4320  179.1030  143.9930 N   0  0  1  0  0  0  0  0  0  0  0  0
  183.5560  178.2400  141.8830 C   0  0  0  0  0  1  0  0  0  0  0  0
  185.5740  178.9140  143.0500 C   0  0  2  0  0  3  0  0  0  0  0  0
  186.0570  178.2080  147.0700 O   0  0  0  0  0  0  0  0  0  0  0  0
  184.4740  177.9590  143.0560 C   0  0  1  0  0  3  0  0  0  0  0  0
  186.7800  177.7080  144.9160 N   0  0  0  0  0  0  0  0  0  0  0  0
  186.8990  178.3750  143.6300 C   0  0  0  0  0  2  0  0  0  0  0  0
  184.4520  178.4950  145.3320 C   0  0  0  0  0  2  0  0  0  0  0  0
  189.1320  173.2310  142.2820 C   0  0  0  0  0  2  0  0  0  0  0  0
  190.4750  172.8140  141.9210 N   0  0  0  0  0  2  0  0  0  0  0  0
  190.3410  171.5180  141.2730 C   0  0  1  0  0  3  0  0  0  0  0  0
  193.6970  171.9710  139.0830 C   0  0  2  0  0  3  0  0  0  0  0  0
  192.4360  171.7700  139.8590 N   0  0  0  0  0  0  0  0  0  0  0  0
  191.0320  171.5330  139.9350 C   0  0  0  0  0  0  0  0  0  0  0  0
  193.7780  172.0210  140.4590 C   0  0  0  0  0  2  0  0  0  0  0  0
  190.3780  171.3960  138.8660 O   0  0  0  0  0  0  0  0  0  0  0  0
  193.7310  173.3840  138.5100 C   0  0  1  0  0  3  0  0  0  0  0  0
  195.4400  174.9710  139.4460 C   0  0  0  0  0  0  0  0  0  0  0  0
  196.6070  175.4430  139.4650 O   0  0  0  0  0  0  0  0  0  0  0  0
  195.0950  173.9200  138.5270 N   0  0  0  0  0  0  0  0  0  0  0  0
  194.4320  175.5200  140.4040 C   0  0  0  0  0  1  0  0  0  0  0  0
  196.1250  173.3220  137.6710 C   0  0  0  0  0  2  0  0  0  0  0  0
  197.0460  172.4130  138.4800 C   0  0  0  0  0  2  0  0  0  0  0  0
  197.1890  171.1250  137.8250 N   0  0  0  0  0  1  0  0  0  0  0  0
  192.9840  172.1330  136.6270 O   0  0  0  0  0  1  0  0  0  0  0  0
  193.1450  173.4320  137.1060 C   0  0  0  0  0  2  0  0  0  0  0  0
  190.8860  170.4340  142.1970 C   0  0  0  0  0  2  0  0  0  0  0  0
  190.7860  169.0770  141.5250 C   0  0  0  0  0  1  0  0  0  0  0  0
  1  2  1  0  0  0  0
  2  7  1  6  0  0  0
  3  4  1  0  0  0  0
  4  2  1  0  0  0  0
  4 26  1  1  0  0  0
  5  3  2  0  0  0  0
  5  1  1  0  0  0  0
  6  7  2  0  0  0  0
  7  8  1  0  0  0  0
  9  8  1  0  0  0  0
 10  9  1  0  0  0  0
 11 15  1  0  0  0  0
 11 12  1  0  0  0  0
 12 13  1  0  0  0  0
 13 10  1  1  0  0  0
 13 18  1  0  0  0  0
 14 16  1  0  0  0  0
 15 19  1  1  0  0  0
 15 14  1  0  0  0  0
 16 17  1  0  0  0  0
 18 17  1  0  0  0  0
 19 20  1  0  0  0  0
 20 21  1  6  0  0  0
 20 25  1  0  0  0  0
 22 24  1  0  0  0  0
 23 25  2  0  0  0  0
 25 22  1  0  0  0  0
 27 31  2  0  0  0  0
 28 35  1  1  0  0  0
 30 32  1  0  0  0  0
 30 34  1  1  0  0  0
 30 28  1  0  0  0  0
 32 29  1  6  0  0  0
 32 28  1  0  0  0  0
 33 26  1  0  0  0  0
 33 27  1  0  0  0  0
 34 33  1  0  0  0  0
 35 27  1  0  0  0  0
 36  5  1  0  0  0  0
 37 36  1  0  0  0  0
 38 37  1  0  0  0  0
 38 54  1  1  0  0  0
 39 44  1  6  0  0  0
 39 40  1  0  0  0  0
 39 42  1  0  0  0  0
 40 41  1  0  0  0  0
 40 42  1  0  0  0  0
 41 38  1  0  0  0  0
 43 41  2  0  0  0  0
 44 53  1  6  0  0  0
 44 47  1  0  0  0  0
 45 46  2  0  0  0  0
 45 48  1  0  0  0  0
 47 45  1  0  0  0  0
 49 50  1  0  0  0  0
 49 47  1  0  0  0  0
 51 50  1  0  0  0  0
 52 53  1  0  0  0  0
 55 54  1  0  0  0  0
M  END
>  <MODEL>
1

>  <REMARK>
 VINA RESULT:      -6.0      0.000      0.000
  Name = 
  20 active torsions:
  status: ('A' for Active; 'I' for Inactive)
    1  A    between atoms: C_3  and  C_12
    2  A    between atoms: C_3  and  N_25
    3  A    between atoms: C_5  and  C_37
    4  A    between atoms: C_5  and  O_38
    5  A    between atoms: C_8  and  C_10
    6  A    between atoms: C_8  and  N_31
    7  A    between atoms: C_9  and  N_25
    8  A    between atoms: C_9  and  C_28
    9  A    between atoms: C_9  and  C_41
   10  A    between atoms: C_15  and  N_19
   11  A    between atoms: C_15  and  C_43
   12  A    between atoms: C_18  and  N_33
   13  A    between atoms: C_18  and  C_42
   14  A    between atoms: N_19  and  C_26
   15  A    between atoms: C_22  and  C_26
   16  A    between atoms: C_26  and  C_47
   17  A    between atoms: N_31  and  C_39
   18  A    between atoms: C_34  and  C_35
   19  A    between atoms: C_34  and  C_39
   20  A    between atoms: O_38  and  C_44
                            x       y       z     vdW  Elec       q    Type
                         _______ _______ _______ _____ _____    ______ ____

>  <TORSDO>
F 20

$$$$
=
 OpenBabel11042417573D

 55 59  0  0  1  0  0  0  0  0999 V2000
  190.9020  170.7220  140.6120 O   0  0  0  0  0  0  0  0  0  0  0  0
  190.2680  171.2880  139.4780 C   0  0  2  0  0  3  0  0  0  0  0  0
  192.6220  171.5640  139.4550 N   0  0  0  0  0  0  0  0  0  0  0  0
  191.4300  171.9050  138.6910 C   0  0  1  0  0  3  0  0  0  0  0  0
  192.2620  170.9240  140.5150 C   0  0  0  0  0  0  0  0  0  0  0  0
  188.3190  172.7650  139.0630 C   0  0  0  0  0  2  0  0  0  0  0  0
  189.2580  172.3180  139.9070 C   0  0  0  0  0  0  0  0  0  0  0  0
  189.2210  172.7320  141.3460 C   0  0  0  0  0  2  0  0  0  0  0  0
  188.4000  173.9250  141.5330 N   0  0  0  0  0  2  0  0  0  0  0  0
  189.2090  174.9720  142.1460 C   0  0  0  0  0  2  0  0  0  0  0  0
  187.6710  177.6900  143.9350 O   0  0  0  0  0  0  0  0  0  0  0  0
  187.6660  176.3740  143.4470 C   0  0  0  0  0  2  0  0  0  0  0  0
  188.4690  176.3000  142.1630 C   0  0  2  0  0  3  0  0  0  0  0  0
  185.8160  178.8270  142.7940 C   0  0  0  0  0  2  0  0  0  0  0  0
  186.3400  178.1560  144.0660 C   0  0  1  0  0  3  0  0  0  0  0  0
  185.6440  177.8580  141.6330 C   0  0  0  0  0  2  0  0  0  0  0  0
  186.9240  177.7690  140.8170 C   0  0  0  0  0  2  0  0  0  0  0  0
  187.5520  176.3890  140.9510 C   0  0  0  0  0  2  0  0  0  0  0  0
  185.4410  177.1880  144.5690 O   0  0  0  0  0  0  0  0  0  0  0  0
  184.9210  177.6250  145.8100 C   0  0  2  0  0  3  0  0  0  0  0  0
  183.9700  178.8150  145.6950 C   0  0  0  0  0  1  0  0  0  0  0  0
  186.1050  179.0400  147.5370 N   0  0  0  0  0  2  0  0  0  0  0  0
  186.6830  176.8010  147.2150 O   0  0  0  0  0  0  0  0  0  0  0  0
  187.0390  179.2360  148.6320 C   0  0  0  0  0  1  0  0  0  0  0  0
  185.9680  177.7820  146.8750 C   0  0  0  0  0  0  0  0  0  0  0  0
  191.5140  171.3340  137.2860 C   0  0  0  0  0  2  0  0  0  0  0  0
  192.2560  173.5220  136.3420 C   0  0  0  0  0  0  0  0  0  0  0  0
  190.4870  174.9980  135.4100 N   0  0  1  0  0  0  0  0  0  0  0  0
  188.1660  175.4870  135.9940 C   0  0  0  0  0  1  0  0  0  0  0  0
  189.6570  173.7980  135.0940 C   0  0  2  0  0  3  0  0  0  0  0  0
  193.4950  173.3620  136.5000 O   0  0  0  0  0  0  0  0  0  0  0  0
  189.3580  174.5940  136.2760 C   0  0  1  0  0  3  0  0  0  0  0  0
  191.3780  172.4130  136.3230 N   0  0  0  0  0  0  0  0  0  0  0  0
  190.2660  172.4100  135.3860 C   0  0  0  0  0  2  0  0  0  0  0  0
  191.6780  174.8860  136.2670 C   0  0  0  0  0  2  0  0  0  0  0  0
  193.2320  170.4300  141.5300 C   0  0  0  0  0  2  0  0  0  0  0  0
  193.6680  171.5280  142.3740 N   0  0  0  0  0  2  0  0  0  0  0  0
  194.2870  170.9250  143.5450 C   0  0  1  0  0  3  0  0  0  0  0  0
  192.8190  173.9220  145.8100 C   0  0  2  0  0  3  0  0  0  0  0  0
  193.3950  172.7980  145.0090 N   0  0  0  0  0  0  0  0  0  0  0  0
  194.4810  171.9600  144.6220 C   0  0  0  0  0  0  0  0  0  0  0  0
  191.9780  173.2590  144.9410 C   0  0  0  0  0  2  0  0  0  0  0  0
  195.6100  172.1400  145.1520 O   0  0  0  0  0  0  0  0  0  0  0  0
  193.2410  175.2560  145.2040 C   0  0  1  0  0  3  0  0  0  0  0  0
  191.7660  177.0520  144.2470 C   0  0  0  0  0  0  0  0  0  0  0  0
  190.8670  177.9210  144.3820 O   0  0  0  0  0  0  0  0  0  0  0  0
  192.1880  176.2610  145.3720 N   0  0  0  0  0  0  0  0  0  0  0  0
  192.3740  176.8550  142.8950 C   0  0  0  0  0  1  0  0  0  0  0  0
  191.5060  176.3940  146.6630 C   0  0  0  0  0  2  0  0  0  0  0  0
  190.0240  176.0570  146.5340 C   0  0  0  0  0  2  0  0  0  0  0  0
  189.7110  174.8510  147.2810 N   0  0  0  0  0  1  0  0  0  0  0  0
  194.3040  176.7440  146.7300 O   0  0  0  0  0  1  0  0  0  0  0  0
  194.5580  175.7450  145.7910 C   0  0  0  0  0  2  0  0  0  0  0  0
  193.4370  169.7480  144.0140 C   0  0  0  0  0  2  0  0  0  0  0  0
  194.3300  168.6000  144.4470 C   0  0  0  0  0  1  0  0  0  0  0  0
  2  7  1  1  0  0  0
  2  1  1  0  0  0  0
  3  5  2  0  0  0  0
  4 26  1  6  0  0  0
  4  3  1  0  0  0  0
  4  2  1  0  0  0  0
  5  1  1  0  0  0  0
  5 36  1  0  0  0  0
  6  7  2  0  0  0  0
  7  8  1  0  0  0  0
  8  9  1  0  0  0  0
  9 10  1  0  0  0  0
 11 15  1  0  0  0  0
 12 11  1  0  0  0  0
 13 10  1  6  0  0  0
 13 12  1  0  0  0  0
 14 15  1  0  0  0  0
 15 19  1  6  0  0  0
 16 14  1  0  0  0  0
 17 18  1  0  0  0  0
 17 16  1  0  0  0  0
 18 13  1  0  0  0  0
 19 20  1  0  0  0  0
 20 21  1  6  0  0  0
 20 25  1  0  0  0  0
 22 24  1  0  0  0  0
 25 23  2  0  0  0  0
 25 22  1  0  0  0  0
 27 31  2  0  0  0  0
 28 35  1  1  0  0  0
 28 32  1  0  0  0  0
 30 34  1  1  0  0  0
 30 28  1  0  0  0  0
 30 32  1  0  0  0  0
 32 29  1  6  0  0  0
 33 27  1  0  0  0  0
 33 26  1  0  0  0  0
 34 33  1  0  0  0  0
 35 27  1  0  0  0  0
 36 37  1  0  0  0  0
 37 38  1  0  0  0  0
 38 54  1  1  0  0  0
 38 41  1  0  0  0  0
 39 44  1  6  0  0  0
 40 39  1  0  0  0  0
 41 40  1  0  0  0  0
 41 43  2  0  0  0  0
 42 40  1  0  0  0  0
 42 39  1  0  0  0  0
 44 47  1  0  0  0  0
 44 53  1  1  0  0  0
 45 46  2  0  0  0  0
 45 47  1  0  0  0  0
 47 49  1  0  0  0  0
 48 45  1  0  0  0  0
 50 49  1  0  0  0  0
 50 51  1  0  0  0  0
 53 52  1  0  0  0  0
 54 55  1  0  0  0  0
M  END
>  <MODEL>
2

>  <REMARK>
 VINA RESULT:      -5.9      2.581      9.356
  Name = 
  20 active torsions:
  status: ('A' for Active; 'I' for Inactive)
    1  A    between atoms: C_3  and  C_12
    2  A    between atoms: C_3  and  N_25
    3  A    between atoms: C_5  and  C_37
    4  A    between atoms: C_5  and  O_38
    5  A    between atoms: C_8  and  C_10
    6  A    between atoms: C_8  and  N_31
    7  A    between atoms: C_9  and  N_25
    8  A    between atoms: C_9  and  C_28
    9  A    between atoms: C_9  and  C_41
   10  A    between atoms: C_15  and  N_19
   11  A    between atoms: C_15  and  C_43
   12  A    between atoms: C_18  and  N_33
   13  A    between atoms: C_18  and  C_42
   14  A    between atoms: N_19  and  C_26
   15  A    between atoms: C_22  and  C_26
   16  A    between atoms: C_26  and  C_47
   17  A    between atoms: N_31  and  C_39
   18  A    between atoms: C_34  and  C_35
   19  A    between atoms: C_34  and  C_39
   20  A    between atoms: O_38  and  C_44
                            x       y       z     vdW  Elec       q    Type
                         _______ _______ _______ _____ _____    ______ ____

>  <TORSDO>
F 20

$$$$
=
 OpenBabel11042417573D

 55 59  0  0  1  0  0  0  0  0999 V2000
  190.3810  174.6300  144.6450 O   0  0  0  0  0  0  0  0  0  0  0  0
  190.0010  175.8630  145.2300 C   0  0  2  0  0  3  0  0  0  0  0  0
  188.5450  175.1770  143.4910 N   0  0  0  0  0  0  0  0  0  0  0  0
  188.7630  176.2750  144.4240 C   0  0  1  0  0  3  0  0  0  0  0  0
  189.4820  174.3070  143.6510 C   0  0  0  0  0  0  0  0  0  0  0  0
  190.9940  177.9570  144.3450 C   0  0  0  0  0  2  0  0  0  0  0  0
  191.1200  176.8630  145.1080 C   0  0  0  0  0  0  0  0  0  0  0  0
  192.3310  176.6950  145.9730 C   0  0  0  0  0  2  0  0  0  0  0  0
  193.4570  176.1630  145.2110 N   0  0  0  0  0  2  0  0  0  0  0  0
  194.5260  175.7920  146.1300 C   0  0  0  0  0  2  0  0  0  0  0  0
  196.5440  175.5010  143.1650 O   0  0  0  0  0  0  0  0  0  0  0  0
  195.3890  175.2060  143.9050 C   0  0  0  0  0  2  0  0  0  0  0  0
  195.7140  175.2050  145.3860 C   0  0  2  0  0  3  0  0  0  0  0  0
  197.6870  173.3510  142.8390 C   0  0  0  0  0  2  0  0  0  0  0  0
  196.8040  174.4530  142.2480 C   0  0  1  0  0  3  0  0  0  0  0  0
  197.0030  172.5670  143.9500 C   0  0  0  0  0  2  0  0  0  0  0  0
  197.2620  173.2170  145.3000 C   0  0  0  0  0  2  0  0  0  0  0  0
  195.9740  173.7880  145.8770 C   0  0  0  0  0  2  0  0  0  0  0  0
  195.6440  173.9350  141.6280 O   0  0  0  0  0  0  0  0  0  0  0  0
  195.6610  174.2580  140.2510 C   0  0  2  0  0  3  0  0  0  0  0  0
  194.4880  175.1300  139.8070 C   0  0  0  0  0  1  0  0  0  0  0  0
  196.2070  173.2860  137.9830 N   0  0  0  0  0  2  0  0  0  0  0  0
  195.9020  171.9060  139.8390 O   0  0  0  0  0  0  0  0  0  0  0  0
  196.5400  172.1920  137.0880 C   0  0  0  0  0  1  0  0  0  0  0  0
  195.9080  173.0730  139.3620 C   0  0  0  0  0  0  0  0  0  0  0  0
  187.5530  176.4620  145.3210 C   0  0  0  0  0  2  0  0  0  0  0  0
  185.9500  178.3070  145.8250 C   0  0  0  0  0  0  0  0  0  0  0  0
  184.6430  179.2100  143.9140 N   0  0  1  0  0  0  0  0  0  0  0  0
  183.6550  178.2510  141.8950 C   0  0  0  0  0  1  0  0  0  0  0  0
  185.7460  178.8280  142.9830 C   0  0  2  0  0  3  0  0  0  0  0  0
  186.2230  178.4380  147.0470 O   0  0  0  0  0  0  0  0  0  0  0  0
  184.5600  177.9880  143.0830 C   0  0  1  0  0  3  0  0  0  0  0  0
  186.8610  177.6810  144.9410 N   0  0  0  0  0  0  0  0  0  0  0  0
  187.0230  178.2180  143.6000 C   0  0  0  0  0  2  0  0  0  0  0  0
  184.6260  178.7230  145.3020 C   0  0  0  0  0  2  0  0  0  0  0  0
  189.5710  173.0560  142.8490 C   0  0  0  0  0  2  0  0  0  0  0  0
  190.8550  172.9910  142.1740 N   0  0  0  0  0  2  0  0  0  0  0  0
  191.4370  171.7050  142.5250 C   0  0  1  0  0  3  0  0  0  0  0  0
  191.8700  170.7520  138.6300 C   0  0  2  0  0  3  0  0  0  0  0  0
  191.7140  171.0550  140.0860 N   0  0  0  0  0  0  0  0  0  0  0  0
  191.2560  170.7260  141.3950 C   0  0  0  0  0  0  0  0  0  0  0  0
  192.3840  171.9450  139.0940 C   0  0  0  0  0  2  0  0  0  0  0  0
  190.6510  169.6350  141.5740 O   0  0  0  0  0  0  0  0  0  0  0  0
  190.5510  171.0030  137.9070 C   0  0  1  0  0  3  0  0  0  0  0  0
  190.3650  172.9320  136.3070 C   0  0  0  0  0  0  0  0  0  0  0  0
  190.5560  173.4390  135.1720 O   0  0  0  0  0  0  0  0  0  0  0  0
  190.7850  171.5840  136.5830 N   0  0  0  0  0  0  0  0  0  0  0  0
  189.7050  173.7650  137.3590 C   0  0  0  0  0  1  0  0  0  0  0  0
  191.5270  170.8230  135.5730 C   0  0  0  0  0  2  0  0  0  0  0  0
  192.9660  171.3190  135.4640 C   0  0  0  0  0  2  0  0  0  0  0  0
  193.8920  170.2000  135.4990 N   0  0  0  0  0  1  0  0  0  0  0  0
  190.5180  168.6310  138.1110 O   0  0  0  0  0  1  0  0  0  0  0  0
  189.7190  169.7330  137.8040 C   0  0  0  0  0  2  0  0  0  0  0  0
  192.9040  171.9010  142.8960 C   0  0  0  0  0  2  0  0  0  0  0  0
  193.0240  172.3220  144.3490 C   0  0  0  0  0  1  0  0  0  0  0  0
  1  2  1  0  0  0  0
  2  7  1  6  0  0  0
  3  5  2  0  0  0  0
  3  4  1  0  0  0  0
  4  2  1  0  0  0  0
  4 26  1  1  0  0  0
  5  1  1  0  0  0  0
  6  7  2  0  0  0  0
  7  8  1  0  0  0  0
  9  8  1  0  0  0  0
  9 10  1  0  0  0  0
 11 12  1  0  0  0  0
 12 13  1  0  0  0  0
 13 18  1  0  0  0  0
 13 10  1  1  0  0  0
 14 16  1  0  0  0  0
 15 19  1  1  0  0  0
 15 14  1  0  0  0  0
 15 11  1  0  0  0  0
 16 17  1  0  0  0  0
 17 18  1  0  0  0  0
 20 21  1  6  0  0  0
 20 19  1  0  0  0  0
 22 25  1  0  0  0  0
 24 22  1  0  0  0  0
 25 23  2  0  0  0  0
 25 20  1  0  0  0  0
 27 31  2  0  0  0  0
 28 35  1  1  0  0  0
 30 32  1  0  0  0  0
 30 34  1  1  0  0  0
 30 28  1  0  0  0  0
 32 29  1  6  0  0  0
 32 28  1  0  0  0  0
 33 26  1  0  0  0  0
 33 27  1  0  0  0  0
 34 33  1  0  0  0  0
 35 27  1  0  0  0  0
 36  5  1  0  0  0  0
 37 38  1  0  0  0  0
 37 36  1  0  0  0  0
 38 54  1  6  0  0  0
 39 44  1  6  0  0  0
 39 42  1  0  0  0  0
 39 40  1  0  0  0  0
 40 41  1  0  0  0  0
 41 43  2  0  0  0  0
 41 38  1  0  0  0  0
 42 40  1  0  0  0  0
 44 53  1  6  0  0  0
 45 47  1  0  0  0  0
 45 48  1  0  0  0  0
 46 45  2  0  0  0  0
 47 44  1  0  0  0  0
 49 47  1  0  0  0  0
 50 51  1  0  0  0  0
 50 49  1  0  0  0  0
 53 52  1  0  0  0  0
 54 55  1  0  0  0  0
M  END
>  <MODEL>
3

>  <REMARK>
 VINA RESULT:      -5.7      2.006      3.788
  Name = 
  20 active torsions:
  status: ('A' for Active; 'I' for Inactive)
    1  A    between atoms: C_3  and  C_12
    2  A    between atoms: C_3  and  N_25
    3  A    between atoms: C_5  and  C_37
    4  A    between atoms: C_5  and  O_38
    5  A    between atoms: C_8  and  C_10
    6  A    between atoms: C_8  and  N_31
    7  A    between atoms: C_9  and  N_25
    8  A    between atoms: C_9  and  C_28
    9  A    between atoms: C_9  and  C_41
   10  A    between atoms: C_15  and  N_19
   11  A    between atoms: C_15  and  C_43
   12  A    between atoms: C_18  and  N_33
   13  A    between atoms: C_18  and  C_42
   14  A    between atoms: N_19  and  C_26
   15  A    between atoms: C_22  and  C_26
   16  A    between atoms: C_26  and  C_47
   17  A    between atoms: N_31  and  C_39
   18  A    between atoms: C_34  and  C_35
   19  A    between atoms: C_34  and  C_39
   20  A    between atoms: O_38  and  C_44
                            x       y       z     vdW  Elec       q    Type
                         _______ _______ _______ _____ _____    ______ ____

>  <TORSDO>
F 20

$$$$
=
 OpenBabel11042417573D

 55 59  0  0  1  0  0  0  0  0999 V2000
  192.9170  171.7200  141.2560 O   0  0  0  0  0  0  0  0  0  0  0  0
  192.7750  172.8490  142.1000 C   0  0  2  0  0  3  0  0  0  0  0  0
  195.0100  172.0740  141.9620 N   0  0  0  0  0  0  0  0  0  0  0  0
  194.1960  173.0840  142.6250 C   0  0  1  0  0  3  0  0  0  0  0  0
  194.2420  171.3410  141.2320 C   0  0  0  0  0  0  0  0  0  0  0  0
  192.2160  172.0950  144.3960 C   0  0  0  0  0  2  0  0  0  0  0  0
  191.8000  172.5510  143.2070 C   0  0  0  0  0  0  0  0  0  0  0  0
  190.3590  172.9140  143.0140 C   0  0  0  0  0  2  0  0  0  0  0  0
  190.2230  174.2380  142.4150 N   0  0  0  0  0  2  0  0  0  0  0  0
  190.3810  175.2520  143.4510 C   0  0  0  0  0  2  0  0  0  0  0  0
  186.9100  176.1100  143.8610 O   0  0  0  0  0  0  0  0  0  0  0  0
  188.2630  176.4630  143.7450 C   0  0  0  0  0  2  0  0  0  0  0  0
  189.1330  175.3590  144.3120 C   0  0  2  0  0  3  0  0  0  0  0  0
  186.2300  176.8280  146.1090 C   0  0  0  0  0  2  0  0  0  0  0  0
  186.2200  177.0990  144.6030 C   0  0  1  0  0  3  0  0  0  0  0  0
  187.6140  176.9490  146.7310 C   0  0  0  0  0  2  0  0  0  0  0  0
  188.3360  175.6110  146.6910 C   0  0  0  0  0  2  0  0  0  0  0  0
  189.5290  175.6730  145.7480 C   0  0  0  0  0  2  0  0  0  0  0  0
  186.6120  178.4230  144.2950 O   0  0  0  0  0  0  0  0  0  0  0  0
  185.5610  179.0810  143.6150 C   0  0  2  0  0  3  0  0  0  0  0  0
  184.3430  179.3690  144.4900 C   0  0  0  0  0  1  0  0  0  0  0  0
  186.2460  178.3310  141.3000 N   0  0  0  0  0  2  0  0  0  0  0  0
  184.0680  178.0070  142.0730 O   0  0  0  0  0  0  0  0  0  0  0  0
  186.0110  177.6640  140.0320 C   0  0  0  0  0  1  0  0  0  0  0  0
  185.2250  178.4580  142.2900 C   0  0  0  0  0  0  0  0  0  0  0  0
  194.6910  174.4780  142.2840 C   0  0  0  0  0  2  0  0  0  0  0  0
  195.9670  174.8870  144.3890 C   0  0  0  0  0  0  0  0  0  0  0  0
  194.6700  175.7100  146.3430 N   0  0  1  0  0  0  0  0  0  0  0  0
  192.4210  175.3130  147.2110 C   0  0  0  0  0  1  0  0  0  0  0  0
  193.6860  176.3470  145.4180 C   0  0  2  0  0  3  0  0  0  0  0  0
  197.1140  174.6230  143.9450 O   0  0  0  0  0  0  0  0  0  0  0  0
  193.3660  175.0750  146.0500 C   0  0  1  0  0  3  0  0  0  0  0  0
  194.9080  175.2230  143.5120 N   0  0  0  0  0  0  0  0  0  0  0  0
  193.9710  176.2630  143.9030 C   0  0  0  0  0  2  0  0  0  0  0  0
  195.6740  174.7610  145.8380 C   0  0  0  0  0  2  0  0  0  0  0  0
  194.7460  170.2010  140.4180 C   0  0  0  0  0  2  0  0  0  0  0  0
  195.4790  170.6990  139.2680 N   0  0  0  0  0  2  0  0  0  0  0  0
  195.4290  169.6470  138.2630 C   0  0  1  0  0  3  0  0  0  0  0  0
  192.7940  172.2520  136.6700 C   0  0  2  0  0  3  0  0  0  0  0  0
  193.7810  171.2690  137.2130 N   0  0  0  0  0  0  0  0  0  0  0  0
  194.4440  170.0080  137.1820 C   0  0  0  0  0  0  0  0  0  0  0  0
  193.5080  172.6170  137.7930 C   0  0  0  0  0  2  0  0  0  0  0  0
  194.1500  169.1860  136.2730 O   0  0  0  0  0  0  0  0  0  0  0  0
  191.3810  171.8370  137.0680 C   0  0  1  0  0  3  0  0  0  0  0  0
  189.8270  172.9980  138.6660 C   0  0  0  0  0  0  0  0  0  0  0  0
  189.1310  173.9940  138.9910 O   0  0  0  0  0  0  0  0  0  0  0  0
  190.5800  173.0060  137.4400 N   0  0  0  0  0  0  0  0  0  0  0  0
  189.8600  171.8190  139.5840 C   0  0  0  0  0  1  0  0  0  0  0  0
  190.6200  174.2120  136.6080 C   0  0  0  0  0  2  0  0  0  0  0  0
  189.3810  174.3070  135.7240 C   0  0  0  0  0  2  0  0  0  0  0  0
  189.4270  175.5110  134.9120 N   0  0  0  0  0  1  0  0  0  0  0  0
  190.7470  169.6820  136.2790 O   0  0  0  0  0  1  0  0  0  0  0  0
  190.7010  171.0390  135.9650 C   0  0  0  0  0  2  0  0  0  0  0  0
  196.8320  169.4060  137.7150 C   0  0  0  0  0  2  0  0  0  0  0  0
  197.3370  170.6510  137.0090 C   0  0  0  0  0  1  0  0  0  0  0  0
  1  2  1  0  0  0  0
  2  4  1  0  0  0  0
  2  7  1  1  0  0  0
  3  4  1  0  0  0  0
  4 26  1  6  0  0  0
  5  1  1  0  0  0  0
  5  3  2  0  0  0  0
  7  6  2  0  0  0  0
  8  7  1  0  0  0  0
  9  8  1  0  0  0  0
  9 10  1  0  0  0  0
 11 15  1  0  0  0  0
 12 11  1  0  0  0  0
 12 13  1  0  0  0  0
 13 10  1  6  0  0  0
 13 18  1  0  0  0  0
 14 16  1  0  0  0  0
 15 19  1  1  0  0  0
 15 14  1  0  0  0  0
 17 16  1  0  0  0  0
 18 17  1  0  0  0  0
 20 19  1  0  0  0  0
 20 21  1  1  0  0  0
 22 25  1  0  0  0  0
 23 25  2  0  0  0  0
 24 22  1  0  0  0  0
 25 20  1  0  0  0  0
 26 33  1  0  0  0  0
 27 35  1  0  0  0  0
 28 35  1  6  0  0  0
 30 34  1  6  0  0  0
 30 32  1  0  0  0  0
 30 28  1  0  0  0  0
 31 27  2  0  0  0  0
 32 28  1  0  0  0  0
 32 29  1  1  0  0  0
 33 34  1  0  0  0  0
 33 27  1  0  0  0  0
 36  5  1  0  0  0  0
 37 36  1  0  0  0  0
 38 54  1  6  0  0  0
 38 37  1  0  0  0  0
 39 44  1  1  0  0  0
 39 40  1  0  0  0  0
 39 42  1  0  0  0  0
 40 42  1  0  0  0  0
 41 40  1  0  0  0  0
 41 38  1  0  0  0  0
 43 41  2  0  0  0  0
 44 53  1  6  0  0  0
 44 47  1  0  0  0  0
 45 46  2  0  0  0  0
 45 48  1  0  0  0  0
 47 45  1  0  0  0  0
 49 47  1  0  0  0  0
 50 49  1  0  0  0  0
 51 50  1  0  0  0  0
 53 52  1  0  0  0  0
 55 54  1  0  0  0  0
M  END
>  <MODEL>
4

>  <REMARK>
 VINA RESULT:      -5.6      2.555      8.446
  Name = 
  20 active torsions:
  status: ('A' for Active; 'I' for Inactive)
    1  A    between atoms: C_3  and  C_12
    2  A    between atoms: C_3  and  N_25
    3  A    between atoms: C_5  and  C_37
    4  A    between atoms: C_5  and  O_38
    5  A    between atoms: C_8  and  C_10
    6  A    between atoms: C_8  and  N_31
    7  A    between atoms: C_9  and  N_25
    8  A    between atoms: C_9  and  C_28
    9  A    between atoms: C_9  and  C_41
   10  A    between atoms: C_15  and  N_19
   11  A    between atoms: C_15  and  C_43
   12  A    between atoms: C_18  and  N_33
   13  A    between atoms: C_18  and  C_42
   14  A    between atoms: N_19  and  C_26
   15  A    between atoms: C_22  and  C_26
   16  A    between atoms: C_26  and  C_47
   17  A    between atoms: N_31  and  C_39
   18  A    between atoms: C_34  and  C_35
   19  A    between atoms: C_34  and  C_39
   20  A    between atoms: O_38  and  C_44
                            x       y       z     vdW  Elec       q    Type
                         _______ _______ _______ _____ _____    ______ ____

>  <TORSDO>
F 20

$$$$
=
 OpenBabel11042417573D

 55 59  0  0  1  0  0  0  0  0999 V2000
  193.8650  176.4040  142.5840 O   0  0  0  0  0  0  0  0  0  0  0  0
  194.9130  175.4630  142.4300 C   0  0  2  0  0  3  0  0  0  0  0  0
  193.9140  175.3910  144.5780 N   0  0  0  0  0  0  0  0  0  0  0  0
  194.9880  174.7840  143.8030 C   0  0  1  0  0  3  0  0  0  0  0  0
  193.3420  176.2910  143.8540 C   0  0  0  0  0  0  0  0  0  0  0  0
  196.9210  176.8050  142.9990 C   0  0  0  0  0  2  0  0  0  0  0  0
  196.1950  176.1660  142.0710 C   0  0  0  0  0  0  0  0  0  0  0  0
  196.7320  176.0170  140.6810 C   0  0  0  0  0  2  0  0  0  0  0  0
  196.1290  174.8750  140.0000 N   0  0  0  0  0  2  0  0  0  0  0  0
  195.7140  175.2790  138.6620 C   0  0  0  0  0  2  0  0  0  0  0  0
  192.4780  174.3230  139.9150 O   0  0  0  0  0  0  0  0  0  0  0  0
  193.7440  174.0070  139.3980 C   0  0  0  0  0  2  0  0  0  0  0  0
  194.2140  175.1160  138.4770 C   0  0  2  0  0  3  0  0  0  0  0  0
  190.8620  173.5240  138.2470 C   0  0  0  0  0  2  0  0  0  0  0  0
  191.5600  173.2960  139.5900 C   0  0  1  0  0  3  0  0  0  0  0  0
  191.8070  173.4210  137.0570 C   0  0  0  0  0  2  0  0  0  0  0  0
  192.4180  174.7770  136.7410 C   0  0  0  0  0  2  0  0  0  0  0  0
  193.9130  174.7720  137.0250 C   0  0  0  0  0  2  0  0  0  0  0  0
  192.0950  171.9920  139.7000 O   0  0  0  0  0  0  0  0  0  0  0  0
  191.4590  171.3080  140.7620 C   0  0  2  0  0  3  0  0  0  0  0  0
  190.8410  169.9730  140.3530 C   0  0  0  0  0  1  0  0  0  0  0  0
  189.1690  172.2820  141.2020 N   0  0  0  0  0  2  0  0  0  0  0  0
  190.9740  172.7760  142.5970 O   0  0  0  0  0  0  0  0  0  0  0  0
  188.2130  173.0400  141.9890 C   0  0  0  0  0  1  0  0  0  0  0  0
  190.5440  172.1800  141.5720 C   0  0  0  0  0  0  0  0  0  0  0  0
  194.7830  173.2830  143.6920 C   0  0  0  0  0  2  0  0  0  0  0  0
  196.8240  171.8940  143.3270 C   0  0  0  0  0  0  0  0  0  0  0  0
  197.4510  170.3240  145.1500 N   0  0  1  0  0  0  0  0  0  0  0  0
  196.2110  168.9510  146.7450 C   0  0  0  0  0  1  0  0  0  0  0  0
  196.8020  171.2270  146.1460 C   0  0  2  0  0  3  0  0  0  0  0  0
  197.1640  172.3810  142.2180 O   0  0  0  0  0  0  0  0  0  0  0  0
  196.1040  170.0330  145.6880 C   0  0  1  0  0  3  0  0  0  0  0  0
  195.9620  172.6020  144.1980 N   0  0  0  0  0  0  0  0  0  0  0  0
  196.2140  172.5570  145.6290 C   0  0  0  0  0  2  0  0  0  0  0  0
  197.2450  170.5230  143.7070 C   0  0  0  0  0  2  0  0  0  0  0  0
  192.2030  177.1180  144.3410 C   0  0  0  0  0  2  0  0  0  0  0  0
  191.0700  176.2650  144.6520 N   0  0  0  0  0  2  0  0  0  0  0  0
  190.7900  176.4560  146.0670 C   0  0  1  0  0  3  0  0  0  0  0  0
  186.9560  176.8930  144.8970 C   0  0  2  0  0  3  0  0  0  0  0  0
  188.3630  176.7410  145.3790 N   0  0  0  0  0  0  0  0  0  0  0  0
  189.4360  177.0900  146.2490 C   0  0  0  0  0  0  0  0  0  0  0  0
  187.7560  175.9720  144.2540 C   0  0  0  0  0  2  0  0  0  0  0  0
  189.2480  177.9750  147.1260 O   0  0  0  0  0  0  0  0  0  0  0  0
  186.8350  178.1550  144.0490 C   0  0  1  0  0  3  0  0  0  0  0  0
  187.5390  177.8970  141.6500 C   0  0  0  0  0  0  0  0  0  0  0  0
  187.2750  177.6170  140.4530 O   0  0  0  0  0  0  0  0  0  0  0  0
  186.5160  177.8200  142.6590 N   0  0  0  0  0  0  0  0  0  0  0  0
  188.9370  178.2980  141.9990 C   0  0  0  0  0  1  0  0  0  0  0  0
  185.1810  177.3210  142.3160 C   0  0  0  0  0  2  0  0  0  0  0  0
  184.3560  178.4000  141.6230 C   0  0  0  0  0  2  0  0  0  0  0  0
  183.8840  177.9290  140.3320 N   0  0  0  0  0  1  0  0  0  0  0  0
  185.8180  180.3020  143.8860 O   0  0  0  0  0  1  0  0  0  0  0  0
  185.8080  179.1200  144.6250 C   0  0  0  0  0  2  0  0  0  0  0  0
  190.9060  175.1160  146.7890 C   0  0  0  0  0  2  0  0  0  0  0  0
  192.3350  174.8930  147.2480 C   0  0  0  0  0  1  0  0  0  0  0  0
  1  5  1  0  0  0  0
  2  7  1  1  0  0  0
  2  1  1  0  0  0  0
  2  4  1  0  0  0  0
  4 26  1  6  0  0  0
  4  3  1  0  0  0  0
  5 36  1  0  0  0  0
  5  3  2  0  0  0  0
  7  6  2  0  0  0  0
  8  7  1  0  0  0  0
  9  8  1  0  0  0  0
 10  9  1  0  0  0  0
 12 11  1  0  0  0  0
 13 10  1  6  0  0  0
 13 12  1  0  0  0  0
 14 15  1  0  0  0  0
 15 19  1  6  0  0  0
 15 11  1  0  0  0  0
 16 14  1  0  0  0  0
 17 18  1  0  0  0  0
 17 16  1  0  0  0  0
 18 13  1  0  0  0  0
 19 20  1  0  0  0  0
 20 21  1  6  0  0  0
 20 25  1  0  0  0  0
 22 25  1  0  0  0  0
 22 24  1  0  0  0  0
 25 23  2  0  0  0  0
 26 33  1  0  0  0  0
 27 35  1  0  0  0  0
 27 33  1  0  0  0  0
 28 35  1  6  0  0  0
 28 32  1  0  0  0  0
 28 30  1  0  0  0  0
 30 34  1  6  0  0  0
 31 27  2  0  0  0  0
 32 30  1  0  0  0  0
 32 29  1  1  0  0  0
 33 34  1  0  0  0  0
 36 37  1  0  0  0  0
 37 38  1  0  0  0  0
 38 41  1  0  0  0  0
 38 54  1  1  0  0  0
 39 44  1  6  0  0  0
 39 40  1  0  0  0  0
 40 41  1  0  0  0  0
 41 43  2  0  0  0  0
 42 39  1  0  0  0  0
 42 40  1  0  0  0  0
 44 53  1  1  0  0  0
 45 48  1  0  0  0  0
 45 47  1  0  0  0  0
 46 45  2  0  0  0  0
 47 44  1  0  0  0  0
 49 47  1  0  0  0  0
 50 49  1  0  0  0  0
 51 50  1  0  0  0  0
 52 53  1  0  0  0  0
 54 55  1  0  0  0  0
M  END
>  <MODEL>
5

>  <REMARK>
 VINA RESULT:      -5.5      2.187      9.390
  Name = 
  20 active torsions:
  status: ('A' for Active; 'I' for Inactive)
    1  A    between atoms: C_3  and  C_12
    2  A    between atoms: C_3  and  N_25
    3  A    between atoms: C_5  and  C_37
    4  A    between atoms: C_5  and  O_38
    5  A    between atoms: C_8  and  C_10
    6  A    between atoms: C_8  and  N_31
    7  A    between atoms: C_9  and  N_25
    8  A    between atoms: C_9  and  C_28
    9  A    between atoms: C_9  and  C_41
   10  A    between atoms: C_15  and  N_19
   11  A    between atoms: C_15  and  C_43
   12  A    between atoms: C_18  and  N_33
   13  A    between atoms: C_18  and  C_42
   14  A    between atoms: N_19  and  C_26
   15  A    between atoms: C_22  and  C_26
   16  A    between atoms: C_26  and  C_47
   17  A    between atoms: N_31  and  C_39
   18  A    between atoms: C_34  and  C_35
   19  A    between atoms: C_34  and  C_39
   20  A    between atoms: O_38  and  C_44
                            x       y       z     vdW  Elec       q    Type
                         _______ _______ _______ _____ _____    ______ ____

>  <TORSDO>
F 20

$$$$
=
 OpenBabel11042417573D

 55 59  0  0  1  0  0  0  0  0999 V2000
  194.2580  176.0630  144.1930 O   0  0  0  0  0  0  0  0  0  0  0  0
  193.2400  175.4480  144.9630 C   0  0  2  0  0  3  0  0  0  0  0  0
  194.3520  173.9310  143.5220 N   0  0  0  0  0  0  0  0  0  0  0  0
  193.2630  173.9910  144.4880 C   0  0  1  0  0  3  0  0  0  0  0  0
  194.8510  175.1120  143.3910 C   0  0  0  0  0  0  0  0  0  0  0  0
  191.8420  177.2810  144.0460 C   0  0  0  0  0  2  0  0  0  0  0  0
  191.9160  176.1140  144.6990 C   0  0  0  0  0  0  0  0  0  0  0  0
  190.6590  175.3760  145.0470 C   0  0  0  0  0  2  0  0  0  0  0  0
  189.5640  176.3000  145.3300 N   0  0  0  0  0  2  0  0  0  0  0  0
  188.8450  175.8430  146.5130 C   0  0  0  0  0  2  0  0  0  0  0  0
  185.7480  176.6400  144.8620 O   0  0  0  0  0  0  0  0  0  0  0  0
  187.0940  176.9070  145.1560 C   0  0  0  0  0  2  0  0  0  0  0  0
  187.4280  176.3930  146.5420 C   0  0  2  0  0  3  0  0  0  0  0  0
  184.4790  178.5280  145.7900 C   0  0  0  0  0  2  0  0  0  0  0  0
  185.0770  177.8480  144.5550 C   0  0  1  0  0  3  0  0  0  0  0  0
  185.5340  179.0480  146.7560 C   0  0  0  0  0  2  0  0  0  0  0  0
  185.9020  177.9790  147.7720 C   0  0  0  0  0  2  0  0  0  0  0  0
  187.3370  177.5150  147.5670 C   0  0  0  0  0  2  0  0  0  0  0  0
  185.8390  178.7430  143.7680 O   0  0  0  0  0  0  0  0  0  0  0  0
  185.3540  178.7360  142.4400 C   0  0  2  0  0  3  0  0  0  0  0  0
  183.9280  178.2060  142.3060 C   0  0  0  0  0  1  0  0  0  0  0  0
  185.8200  177.5780  140.2420 N   0  0  0  0  0  2  0  0  0  0  0  0
  187.5600  178.1840  141.6740 O   0  0  0  0  0  0  0  0  0  0  0  0
  186.7030  177.0640  139.2100 C   0  0  0  0  0  1  0  0  0  0  0  0
  186.3190  178.1410  141.4550 C   0  0  0  0  0  0  0  0  0  0  0  0
  193.5170  173.0350  145.6400 C   0  0  0  0  0  2  0  0  0  0  0  0
  193.5180  170.7620  144.6100 C   0  0  0  0  0  0  0  0  0  0  0  0
  195.3160  169.2050  145.3310 N   0  0  1  0  0  0  0  0  0  0  0  0
  196.4920  168.7840  147.4300 C   0  0  0  0  0  1  0  0  0  0  0  0
  196.2050  170.3700  145.6170 C   0  0  2  0  0  3  0  0  0  0  0  0
  192.5500  170.9330  143.8230 O   0  0  0  0  0  0  0  0  0  0  0  0
  195.5190  169.6970  146.7110 C   0  0  1  0  0  3  0  0  0  0  0  0
  194.2230  171.8660  145.1440 N   0  0  0  0  0  0  0  0  0  0  0  0
  195.6670  171.7790  145.2860 C   0  0  0  0  0  2  0  0  0  0  0  0
  193.8820  169.3990  145.0690 C   0  0  0  0  0  2  0  0  0  0  0  0
  195.9820  175.4150  142.4700 C   0  0  0  0  0  2  0  0  0  0  0  0
  195.6070  175.0970  141.1040 N   0  0  0  0  0  2  0  0  0  0  0  0
  196.3850  173.9270  140.7270 C   0  0  1  0  0  3  0  0  0  0  0  0
  193.0160  173.1200  138.6620 C   0  0  2  0  0  3  0  0  0  0  0  0
  194.2900  173.3840  139.4000 N   0  0  0  0  0  0  0  0  0  0  0  0
  195.5240  172.9530  139.9680 C   0  0  0  0  0  0  0  0  0  0  0  0
  193.2570  174.4120  139.0820 C   0  0  0  0  0  2  0  0  0  0  0  0
  195.8490  171.7380  139.8730 O   0  0  0  0  0  0  0  0  0  0  0  0
  192.0090  172.4530  139.5940 C   0  0  1  0  0  3  0  0  0  0  0  0
  189.9340  172.9390  138.2620 C   0  0  0  0  0  0  0  0  0  0  0  0
  188.8050  173.4820  138.1480 O   0  0  0  0  0  0  0  0  0  0  0  0
  190.6930  173.0840  139.4760 N   0  0  0  0  0  0  0  0  0  0  0  0
  190.4600  172.1360  137.1160 C   0  0  0  0  0  1  0  0  0  0  0  0
  190.1130  173.7850  140.6260 C   0  0  0  0  0  2  0  0  0  0  0  0
  190.6000  173.1760  141.9370 C   0  0  0  0  0  2  0  0  0  0  0  0
  189.5840  172.3030  142.5000 N   0  0  0  0  0  1  0  0  0  0  0  0
  191.6640  170.2950  140.5390 O   0  0  0  0  0  1  0  0  0  0  0  0
  191.9190  170.9550  139.3380 C   0  0  0  0  0  2  0  0  0  0  0  0
  197.6060  174.3710  139.9270 C   0  0  0  0  0  2  0  0  0  0  0  0
  197.1830  175.2920  138.7970 C   0  0  0  0  0  1  0  0  0  0  0  0
  1  2  1  0  0  0  0
  2  7  1  6  0  0  0
  3  4  1  0  0  0  0
  4  2  1  0  0  0  0
  4 26  1  1  0  0  0
  5  3  2  0  0  0  0
  5  1  1  0  0  0  0
  6  7  2  0  0  0  0
  7  8  1  0  0  0  0
  8  9  1  0  0  0  0
  9 10  1  0  0  0  0
 11 12  1  0  0  0  0
 12 13  1  0  0  0  0
 13 10  1  6  0  0  0
 13 18  1  0  0  0  0
 14 16  1  0  0  0  0
 15 19  1  1  0  0  0
 15 11  1  0  0  0  0
 15 14  1  0  0  0  0
 16 17  1  0  0  0  0
 18 17  1  0  0  0  0
 20 21  1  1  0  0  0
 20 19  1  0  0  0  0
 22 25  1  0  0  0  0
 24 22  1  0  0  0  0
 25 23  2  0  0  0  0
 25 20  1  0  0  0  0
 27 35  1  0  0  0  0
 27 33  1  0  0  0  0
 28 35  1  6  0  0  0
 28 30  1  0  0  0  0
 28 32  1  0  0  0  0
 30 34  1  6  0  0  0
 30 32  1  0  0  0  0
 31 27  2  0  0  0  0
 32 29  1  1  0  0  0
 33 34  1  0  0  0  0
 33 26  1  0  0  0  0
 36  5  1  0  0  0  0
 37 36  1  0  0  0  0
 38 54  1  6  0  0  0
 38 37  1  0  0  0  0
 39 42  1  0  0  0  0
 39 40  1  0  0  0  0
 39 44  1  1  0  0  0
 40 41  1  0  0  0  0
 41 38  1  0  0  0  0
 42 40  1  0  0  0  0
 43 41  2  0  0  0  0
 44 53  1  6  0  0  0
 45 47  1  0  0  0  0
 46 45  2  0  0  0  0
 47 44  1  0  0  0  0
 47 49  1  0  0  0  0
 48 45  1  0  0  0  0
 49 50  1  0  0  0  0
 50 51  1  0  0  0  0
 53 52  1  0  0  0  0
 55 54  1  0  0  0  0
M  END
>  <MODEL>
6

>  <REMARK>
 VINA RESULT:      -5.5      2.210      9.219
  Name = 
  20 active torsions:
  status: ('A' for Active; 'I' for Inactive)
    1  A    between atoms: C_3  and  C_12
    2  A    between atoms: C_3  and  N_25
    3  A    between atoms: C_5  and  C_37
    4  A    between atoms: C_5  and  O_38
    5  A    between atoms: C_8  and  C_10
    6  A    between atoms: C_8  and  N_31
    7  A    between atoms: C_9  and  N_25
    8  A    between atoms: C_9  and  C_28
    9  A    between atoms: C_9  and  C_41
   10  A    between atoms: C_15  and  N_19
   11  A    between atoms: C_15  and  C_43
   12  A    between atoms: C_18  and  N_33
   13  A    between atoms: C_18  and  C_42
   14  A    between atoms: N_19  and  C_26
   15  A    between atoms: C_22  and  C_26
   16  A    between atoms: C_26  and  C_47
   17  A    between atoms: N_31  and  C_39
   18  A    between atoms: C_34  and  C_35
   19  A    between atoms: C_34  and  C_39
   20  A    between atoms: O_38  and  C_44
                            x       y       z     vdW  Elec       q    Type
                         _______ _______ _______ _____ _____    ______ ____

>  <TORSDO>
F 20

$$$$
=
 OpenBabel11042417573D

 55 59  0  0  1  0  0  0  0  0999 V2000
  190.6010  174.0740  144.9200 O   0  0  0  0  0  0  0  0  0  0  0  0
  190.2160  175.3810  145.3080 C   0  0  2  0  0  3  0  0  0  0  0  0
  188.9900  174.5700  143.4490 N   0  0  0  0  0  0  0  0  0  0  0  0
  189.1370  175.7540  144.2850 C   0  0  1  0  0  3  0  0  0  0  0  0
  189.8390  173.6830  143.8400 C   0  0  0  0  0  0  0  0  0  0  0  0
  191.3710  177.4300  144.5200 C   0  0  0  0  0  2  0  0  0  0  0  0
  191.4000  176.3090  145.2540 C   0  0  0  0  0  0  0  0  0  0  0  0
  192.5660  176.0410  146.1550 C   0  0  0  0  0  2  0  0  0  0  0  0
  193.6540  176.9820  145.9070 N   0  0  0  0  0  2  0  0  0  0  0  0
  194.9210  176.2590  145.9020 C   0  0  0  0  0  2  0  0  0  0  0  0
  195.5490  173.8060  143.3450 O   0  0  0  0  0  0  0  0  0  0  0  0
  195.9140  174.4910  144.5150 C   0  0  0  0  0  2  0  0  0  0  0  0
  195.3410  175.8940  144.4880 C   0  0  2  0  0  3  0  0  0  0  0  0
  197.2540  174.3920  141.6760 C   0  0  0  0  0  2  0  0  0  0  0  0
  196.7120  173.3620  142.6700 C   0  0  1  0  0  3  0  0  0  0  0  0
  197.8010  175.6430  142.3500 C   0  0  0  0  0  2  0  0  0  0  0  0
  196.7040  176.6820  142.5180 C   0  0  0  0  0  2  0  0  0  0  0  0
  196.3810  176.8890  143.9920 C   0  0  0  0  0  2  0  0  0  0  0  0
  197.7200  172.8660  143.5290 O   0  0  0  0  0  0  0  0  0  0  0  0
  197.7290  171.4520  143.4810 C   0  0  2  0  0  3  0  0  0  0  0  0
  196.8320  170.8660  142.3930 C   0  0  0  0  0  1  0  0  0  0  0  0
  197.9190  169.4380  144.9950 N   0  0  0  0  0  2  0  0  0  0  0  0
  197.1410  171.4830  145.8070 O   0  0  0  0  0  0  0  0  0  0  0  0
  197.8560  168.7770  146.2870 C   0  0  0  0  0  1  0  0  0  0  0  0
  197.5550  170.8080  144.8260 C   0  0  0  0  0  0  0  0  0  0  0  0
  187.8220  176.0950  144.9640 C   0  0  0  0  0  2  0  0  0  0  0  0
  186.4770  178.1770  145.2560 C   0  0  0  0  0  0  0  0  0  0  0  0
  185.4850  179.1670  143.2040 N   0  0  1  0  0  0  0  0  0  0  0  0
  184.5390  178.2670  141.1390 C   0  0  0  0  0  1  0  0  0  0  0  0
  186.5930  178.5840  142.3910 C   0  0  2  0  0  3  0  0  0  0  0  0
  186.6620  178.3250  146.4920 O   0  0  0  0  0  0  0  0  0  0  0  0
  185.2910  177.9320  142.4120 C   0  0  1  0  0  3  0  0  0  0  0  0
  187.3550  177.3830  144.4800 N   0  0  0  0  0  0  0  0  0  0  0  0
  187.7080  177.8250  143.1410 C   0  0  0  0  0  2  0  0  0  0  0  0
  185.2780  178.7550  144.6010 C   0  0  0  0  0  2  0  0  0  0  0  0
  189.9680  172.3470  143.1950 C   0  0  0  0  0  2  0  0  0  0  0  0
  191.3510  172.1070  142.8240 N   0  0  0  0  0  2  0  0  0  0  0  0
  191.5630  170.6720  142.9360 C   0  0  1  0  0  3  0  0  0  0  0  0
  191.7610  170.6520  138.9080 C   0  0  2  0  0  3  0  0  0  0  0  0
  191.6900  170.6080  140.4010 N   0  0  0  0  0  0  0  0  0  0  0  0
  191.2720  169.9990  141.6200 C   0  0  0  0  0  0  0  0  0  0  0  0
  192.3660  171.6750  139.6080 C   0  0  0  0  0  2  0  0  0  0  0  0
  190.6110  168.9270  141.5730 O   0  0  0  0  0  0  0  0  0  0  0  0
  190.4280  171.1310  138.3420 C   0  0  1  0  0  3  0  0  0  0  0  0
  190.0830  173.5120  137.6180 C   0  0  0  0  0  0  0  0  0  0  0  0
  190.2470  174.4410  136.7860 O   0  0  0  0  0  0  0  0  0  0  0  0
  190.6320  172.2060  137.3680 N   0  0  0  0  0  0  0  0  0  0  0  0
  189.3160  173.8000  138.8690 C   0  0  0  0  0  1  0  0  0  0  0  0
  191.4710  171.9740  136.1890 C   0  0  0  0  0  2  0  0  0  0  0  0
  190.7180  171.1720  135.1330 C   0  0  0  0  0  2  0  0  0  0  0  0
  191.5950  170.1890  134.5210 N   0  0  0  0  0  1  0  0  0  0  0  0
  190.0410  168.7810  138.3080 O   0  0  0  0  0  1  0  0  0  0  0  0
  189.6380  169.9840  137.7280 C   0  0  0  0  0  2  0  0  0  0  0  0
  192.9850  170.4090  143.4230 C   0  0  0  0  0  2  0  0  0  0  0  0
  193.3650  171.4170  144.4920 C   0  0  0  0  0  1  0  0  0  0  0  0
  1  2  1  0  0  0  0
  2  7  1  6  0  0  0
  3  5  2  0  0  0  0
  3  4  1  0  0  0  0
  4 26  1  1  0  0  0
  4  2  1  0  0  0  0
  5  1  1  0  0  0  0
  6  7  2  0  0  0  0
  7  8  1  0  0  0  0
  9  8  1  0  0  0  0
 10  9  1  0  0  0  0
 11 12  1  0  0  0  0
 13 12  1  0  0  0  0
 13 10  1  1  0  0  0
 14 16  1  0  0  0  0
 14 15  1  0  0  0  0
 15 11  1  0  0  0  0
 15 19  1  1  0  0  0
 16 17  1  0  0  0  0
 17 18  1  0  0  0  0
 18 13  1  0  0  0  0
 20 21  1  6  0  0  0
 20 19  1  0  0  0  0
 20 25  1  0  0  0  0
 22 24  1  0  0  0  0
 25 22  1  0  0  0  0
 25 23  2  0  0  0  0
 27 31  2  0  0  0  0
 28 35  1  1  0  0  0
 30 32  1  0  0  0  0
 30 34  1  1  0  0  0
 30 28  1  0  0  0  0
 32 29  1  6  0  0  0
 32 28  1  0  0  0  0
 33 26  1  0  0  0  0
 33 27  1  0  0  0  0
 34 33  1  0  0  0  0
 35 27  1  0  0  0  0
 36  5  1  0  0  0  0
 37 38  1  0  0  0  0
 37 36  1  0  0  0  0
 38 54  1  6  0  0  0
 39 44  1  6  0  0  0
 39 42  1  0  0  0  0
 39 40  1  0  0  0  0
 40 41  1  0  0  0  0
 41 38  1  0  0  0  0
 42 40  1  0  0  0  0
 43 41  2  0  0  0  0
 44 53  1  6  0  0  0
 45 48  1  0  0  0  0
 46 45  2  0  0  0  0
 47 45  1  0  0  0  0
 47 44  1  0  0  0  0
 49 47  1  0  0  0  0
 50 49  1  0  0  0  0
 51 50  1  0  0  0  0
 53 52  1  0  0  0  0
 54 55  1  0  0  0  0
M  END
>  <MODEL>
7

>  <REMARK>
 VINA RESULT:      -5.5      2.285      3.282
  Name = 
  20 active torsions:
  status: ('A' for Active; 'I' for Inactive)
    1  A    between atoms: C_3  and  C_12
    2  A    between atoms: C_3  and  N_25
    3  A    between atoms: C_5  and  C_37
    4  A    between atoms: C_5  and  O_38
    5  A    between atoms: C_8  and  C_10
    6  A    between atoms: C_8  and  N_31
    7  A    between atoms: C_9  and  N_25
    8  A    between atoms: C_9  and  C_28
    9  A    between atoms: C_9  and  C_41
   10  A    between atoms: C_15  and  N_19
   11  A    between atoms: C_15  and  C_43
   12  A    between atoms: C_18  and  N_33
   13  A    between atoms: C_18  and  C_42
   14  A    between atoms: N_19  and  C_26
   15  A    between atoms: C_22  and  C_26
   16  A    between atoms: C_26  and  C_47
   17  A    between atoms: N_31  and  C_39
   18  A    between atoms: C_34  and  C_35
   19  A    between atoms: C_34  and  C_39
   20  A    between atoms: O_38  and  C_44
                            x       y       z     vdW  Elec       q    Type
                         _______ _______ _______ _____ _____    ______ ____

>  <TORSDO>
F 20

$$$$
=
 OpenBabel11042417573D

 55 59  0  0  1  0  0  0  0  0999 V2000
  193.4970  176.3500  142.5690 O   0  0  0  0  0  0  0  0  0  0  0  0
  194.5770  175.4330  142.5530 C   0  0  2  0  0  3  0  0  0  0  0  0
  193.3940  175.4310  144.6050 N   0  0  0  0  0  0  0  0  0  0  0  0
  194.5470  174.8200  143.9570 C   0  0  1  0  0  3  0  0  0  0  0  0
  192.8660  176.2800  143.7920 C   0  0  0  0  0  0  0  0  0  0  0  0
  196.6320  176.6250  143.2690 C   0  0  0  0  0  2  0  0  0  0  0  0
  195.8680  176.1560  142.2740 C   0  0  0  0  0  0  0  0  0  0  0  0
  196.3690  176.2150  140.8630 C   0  0  0  0  0  2  0  0  0  0  0  0
  196.0240  175.0020  140.1270 N   0  0  0  0  0  2  0  0  0  0  0  0
  196.3580  175.1840  138.7190 C   0  0  0  0  0  2  0  0  0  0  0  0
  192.9250  174.9000  137.6790 O   0  0  0  0  0  0  0  0  0  0  0  0
  193.9720  174.6150  138.5680 C   0  0  0  0  0  2  0  0  0  0  0  0
  195.2890  174.5880  137.8180 C   0  0  2  0  0  3  0  0  0  0  0  0
  192.2560  172.7360  136.7280 C   0  0  0  0  0  2  0  0  0  0  0  0
  191.9640  173.8610  137.7240 C   0  0  1  0  0  3  0  0  0  0  0  0
  193.5140  171.9480  137.0670 C   0  0  0  0  0  2  0  0  0  0  0  0
  194.7310  172.5760  136.4060 C   0  0  0  0  0  2  0  0  0  0  0  0
  195.6690  173.1600  137.4520 C   0  0  0  0  0  2  0  0  0  0  0  0
  191.7110  173.3700  139.0260 O   0  0  0  0  0  0  0  0  0  0  0  0
  190.4170  172.8030  139.0750 C   0  0  2  0  0  3  0  0  0  0  0  0
  189.3020  173.7770  138.7010 C   0  0  0  0  0  1  0  0  0  0  0  0
  189.4620  172.6610  141.4100 N   0  0  0  0  0  2  0  0  0  0  0  0
  190.4900  170.8150  140.4180 O   0  0  0  0  0  0  0  0  0  0  0  0
  189.0990  171.9440  142.6210 C   0  0  0  0  0  1  0  0  0  0  0  0
  190.1520  172.0270  140.3330 C   0  0  0  0  0  0  0  0  0  0  0  0
  194.3910  173.3110  143.9010 C   0  0  0  0  0  2  0  0  0  0  0  0
  196.3530  171.8830  143.3180 C   0  0  0  0  0  0  0  0  0  0  0  0
  197.3340  170.5230  145.1520 N   0  0  1  0  0  0  0  0  0  0  0  0
  196.4350  169.3390  147.0910 C   0  0  0  0  0  1  0  0  0  0  0  0
  196.8640  171.5330  146.1470 C   0  0  2  0  0  3  0  0  0  0  0  0
  196.4730  172.2440  142.1180 O   0  0  0  0  0  0  0  0  0  0  0  0
  196.1150  170.2980  145.9610 C   0  0  1  0  0  3  0  0  0  0  0  0
  195.6550  172.6860  144.2510 N   0  0  0  0  0  0  0  0  0  0  0  0
  196.1670  172.7990  145.6060 C   0  0  0  0  0  2  0  0  0  0  0  0
  196.8610  170.5610  143.7600 C   0  0  0  0  0  2  0  0  0  0  0  0
  191.6690  177.0950  144.1370 C   0  0  0  0  0  2  0  0  0  0  0  0
  190.7070  176.2810  144.8580 N   0  0  0  0  0  2  0  0  0  0  0  0
  189.9990  177.1810  145.7560 C   0  0  1  0  0  3  0  0  0  0  0  0
  186.9100  175.9630  143.4670 C   0  0  2  0  0  3  0  0  0  0  0  0
  188.0240  176.4120  144.3570 N   0  0  0  0  0  0  0  0  0  0  0  0
  188.5170  177.1180  145.4920 C   0  0  0  0  0  0  0  0  0  0  0  0
  188.1900  175.5690  143.1370 C   0  0  0  0  0  2  0  0  0  0  0  0
  187.7010  177.7330  146.2310 O   0  0  0  0  0  0  0  0  0  0  0  0
  186.4740  177.1130  142.5650 C   0  0  1  0  0  3  0  0  0  0  0  0
  184.2190  178.0700  142.0060 C   0  0  0  0  0  0  0  0  0  0  0  0
  183.1050  178.5350  142.3610 O   0  0  0  0  0  0  0  0  0  0  0  0
  185.1780  177.6470  142.9910 N   0  0  0  0  0  0  0  0  0  0  0  0
  184.5140  177.9580  140.5450 C   0  0  0  0  0  1  0  0  0  0  0  0
  184.8280  177.6640  144.4150 C   0  0  0  0  0  2  0  0  0  0  0  0
  184.4500  179.0710  144.8670 C   0  0  0  0  0  2  0  0  0  0  0  0
  185.5990  179.9560  144.7850 N   0  0  0  0  0  1  0  0  0  0  0  0
  187.9600  178.3780  141.2010 O   0  0  0  0  0  1  0  0  0  0  0  0
  187.5260  178.2130  142.5150 C   0  0  0  0  0  2  0  0  0  0  0  0
  190.3490  176.8320  147.1990 C   0  0  0  0  0  2  0  0  0  0  0  0
  190.4480  175.3260  147.3620 C   0  0  0  0  0  1  0  0  0  0  0  0
  1  5  1  0  0  0  0
  2  7  1  1  0  0  0
  2  1  1  0  0  0  0
  2  4  1  0  0  0  0
  4 26  1  6  0  0  0
  4  3  1  0  0  0  0
  5 36  1  0  0  0  0
  5  3  2  0  0  0  0
  7  6  2  0  0  0  0
  8  7  1  0  0  0  0
  9  8  1  0  0  0  0
 10  9  1  0  0  0  0
 11 15  1  0  0  0  0
 11 12  1  0  0  0  0
 13 12  1  0  0  0  0
 13 10  1  1  0  0  0
 14 16  1  0  0  0  0
 14 15  1  0  0  0  0
 15 19  1  1  0  0  0
 17 16  1  0  0  0  0
 17 18  1  0  0  0  0
 18 13  1  0  0  0  0
 19 20  1  0  0  0  0
 20 21  1  1  0  0  0
 20 25  1  0  0  0  0
 22 24  1  0  0  0  0
 25 23  2  0  0  0  0
 25 22  1  0  0  0  0
 26 33  1  0  0  0  0
 27 35  1  0  0  0  0
 27 33  1  0  0  0  0
 28 35  1  6  0  0  0
 28 32  1  0  0  0  0
 28 30  1  0  0  0  0
 30 34  1  6  0  0  0
 31 27  2  0  0  0  0
 32 30  1  0  0  0  0
 32 29  1  1  0  0  0
 33 34  1  0  0  0  0
 36 37  1  0  0  0  0
 37 38  1  0  0  0  0
 38 54  1  1  0  0  0
 39 44  1  6  0  0  0
 39 40  1  0  0  0  0
 40 41  1  0  0  0  0
 41 38  1  0  0  0  0
 41 43  2  0  0  0  0
 42 39  1  0  0  0  0
 42 40  1  0  0  0  0
 44 53  1  1  0  0  0
 44 47  1  0  0  0  0
 45 46  2  0  0  0  0
 45 47  1  0  0  0  0
 47 49  1  0  0  0  0
 48 45  1  0  0  0  0
 49 50  1  0  0  0  0
 51 50  1  0  0  0  0
 52 53  1  0  0  0  0
 54 55  1  0  0  0  0
M  END
>  <MODEL>
8

>  <REMARK>
 VINA RESULT:      -5.4      2.138      9.555
  Name = 
  20 active torsions:
  status: ('A' for Active; 'I' for Inactive)
    1  A    between atoms: C_3  and  C_12
    2  A    between atoms: C_3  and  N_25
    3  A    between atoms: C_5  and  C_37
    4  A    between atoms: C_5  and  O_38
    5  A    between atoms: C_8  and  C_10
    6  A    between atoms: C_8  and  N_31
    7  A    between atoms: C_9  and  N_25
    8  A    between atoms: C_9  and  C_28
    9  A    between atoms: C_9  and  C_41
   10  A    between atoms: C_15  and  N_19
   11  A    between atoms: C_15  and  C_43
   12  A    between atoms: C_18  and  N_33
   13  A    between atoms: C_18  and  C_42
   14  A    between atoms: N_19  and  C_26
   15  A    between atoms: C_22  and  C_26
   16  A    between atoms: C_26  and  C_47
   17  A    between atoms: N_31  and  C_39
   18  A    between atoms: C_34  and  C_35
   19  A    between atoms: C_34  and  C_39
   20  A    between atoms: O_38  and  C_44
                            x       y       z     vdW  Elec       q    Type
                         _______ _______ _______ _____ _____    ______ ____

>  <TORSDO>
F 20

$$$$
=
 OpenBabel11042417573D

 55 59  0  0  1  0  0  0  0  0999 V2000
  190.9590  170.9330  140.3690 O   0  0  0  0  0  0  0  0  0  0  0  0
  190.8800  171.8430  139.2860 C   0  0  2  0  0  3  0  0  0  0  0  0
  193.0120  171.8190  140.3190 N   0  0  0  0  0  0  0  0  0  0  0  0
  192.2700  172.4900  139.2610 C   0  0  1  0  0  3  0  0  0  0  0  0
  192.2270  170.9820  140.9060 C   0  0  0  0  0  0  0  0  0  0  0  0
  189.4340  173.7350  138.5890 C   0  0  0  0  0  2  0  0  0  0  0  0
  189.7870  172.8490  139.5300 C   0  0  0  0  0  0  0  0  0  0  0  0
  188.9890  172.7500  140.7940 C   0  0  0  0  0  2  0  0  0  0  0  0
  188.2920  174.0010  141.0790 N   0  0  0  0  0  2  0  0  0  0  0  0
  188.9660  174.6860  142.1760 C   0  0  0  0  0  2  0  0  0  0  0  0
  187.8180  177.3780  144.2700 O   0  0  0  0  0  0  0  0  0  0  0  0
  187.6230  176.1470  143.6260 C   0  0  0  0  0  2  0  0  0  0  0  0
  188.4390  176.1010  142.3490 C   0  0  2  0  0  3  0  0  0  0  0  0
  186.1900  178.9170  143.2610 C   0  0  0  0  0  2  0  0  0  0  0  0
  186.5710  178.0260  144.4470 C   0  0  1  0  0  3  0  0  0  0  0  0
  185.9020  178.1310  141.9900 C   0  0  0  0  0  2  0  0  0  0  0  0
  187.1730  177.9420  141.1790 C   0  0  0  0  0  2  0  0  0  0  0  0
  187.5780  176.4750  141.1490 C   0  0  0  0  0  2  0  0  0  0  0  0
  185.5210  177.1570  144.8220 O   0  0  0  0  0  0  0  0  0  0  0  0
  184.8900  177.6520  145.9870 C   0  0  2  0  0  3  0  0  0  0  0  0
  183.9590  178.8350  145.7290 C   0  0  0  0  0  1  0  0  0  0  0  0
  186.0890  179.1870  147.5980 N   0  0  0  0  0  2  0  0  0  0  0  0
  186.3590  176.8720  147.7160 O   0  0  0  0  0  0  0  0  0  0  0  0
  186.9250  179.4530  148.7550 C   0  0  0  0  0  1  0  0  0  0  0  0
  185.8350  177.8600  147.1350 C   0  0  0  0  0  0  0  0  0  0  0  0
  192.9520  172.2890  137.9200 C   0  0  0  0  0  2  0  0  0  0  0  0
  195.4090  172.5510  137.5690 C   0  0  0  0  0  0  0  0  0  0  0  0
  196.5530  174.2990  138.9160 N   0  0  1  0  0  0  0  0  0  0  0  0
  196.2930  175.1740  141.1820 C   0  0  0  0  0  1  0  0  0  0  0  0
  195.2810  175.0780  138.9790 C   0  0  2  0  0  3  0  0  0  0  0  0
  195.5400  171.7020  136.6490 O   0  0  0  0  0  0  0  0  0  0  0  0
  195.6940  174.2730  140.1200 C   0  0  1  0  0  3  0  0  0  0  0  0
  194.1450  173.1160  137.8610 N   0  0  0  0  0  0  0  0  0  0  0  0
  194.0650  174.5260  138.2040 C   0  0  0  0  0  2  0  0  0  0  0  0
  196.5630  172.9100  138.4300 C   0  0  0  0  0  2  0  0  0  0  0  0
  192.6600  170.1290  142.0460 C   0  0  0  0  0  2  0  0  0  0  0  0
  192.7770  170.9330  143.2500 N   0  0  0  0  0  2  0  0  0  0  0  0
  194.0290  170.5450  143.8820 C   0  0  1  0  0  3  0  0  0  0  0  0
  193.6290  174.0990  145.7450 C   0  0  2  0  0  3  0  0  0  0  0  0
  193.8190  172.7720  145.0830 N   0  0  0  0  0  0  0  0  0  0  0  0
  194.6480  171.7280  144.5800 C   0  0  0  0  0  0  0  0  0  0  0  0
  192.4990  173.4110  145.3550 C   0  0  0  0  0  2  0  0  0  0  0  0
  195.8990  171.8400  144.6770 O   0  0  0  0  0  0  0  0  0  0  0  0
  193.9210  175.2180  144.7500 C   0  0  1  0  0  3  0  0  0  0  0  0
  192.1850  176.7030  143.7040 C   0  0  0  0  0  0  0  0  0  0  0  0
  191.3340  177.6260  143.7890 O   0  0  0  0  0  0  0  0  0  0  0  0
  192.9280  176.2890  144.8640 N   0  0  0  0  0  0  0  0  0  0  0  0
  192.3960  176.0460  142.3780 C   0  0  0  0  0  1  0  0  0  0  0  0
  192.6290  176.8720  146.1760 C   0  0  0  0  0  2  0  0  0  0  0  0
  191.4050  176.2110  146.8000 C   0  0  0  0  0  2  0  0  0  0  0  0
  191.1760  176.7300  148.1380 N   0  0  0  0  0  1  0  0  0  0  0  0
  196.0750  174.8860  145.7100 O   0  0  0  0  0  1  0  0  0  0  0  0
  195.3320  175.7640  144.9220 C   0  0  0  0  0  2  0  0  0  0  0  0
  193.7740  169.3780  144.8310 C   0  0  0  0  0  2  0  0  0  0  0  0
  194.5780  169.5570  146.1060 C   0  0  0  0  0  1  0  0  0  0  0  0
  1  5  1  0  0  0  0
  2  7  1  1  0  0  0
  2  1  1  0  0  0  0
  3  5  2  0  0  0  0
  4 26  1  6  0  0  0
  4  2  1  0  0  0  0
  4  3  1  0  0  0  0
  5 36  1  0  0  0  0
  6  7  2  0  0  0  0
  7  8  1  0  0  0  0
  8  9  1  0  0  0  0
  9 10  1  0  0  0  0
 11 15  1  0  0  0  0
 12 11  1  0  0  0  0
 13 10  1  6  0  0  0
 13 12  1  0  0  0  0
 14 15  1  0  0  0  0
 15 19  1  6  0  0  0
 16 14  1  0  0  0  0
 17 16  1  0  0  0  0
 18 17  1  0  0  0  0
 18 13  1  0  0  0  0
 19 20  1  0  0  0  0
 20 21  1  6  0  0  0
 20 25  1  0  0  0  0
 22 24  1  0  0  0  0
 25 22  1  0  0  0  0
 25 23  2  0  0  0  0
 27 33  1  0  0  0  0
 27 35  1  0  0  0  0
 28 35  1  6  0  0  0
 28 30  1  0  0  0  0
 28 32  1  0  0  0  0
 30 34  1  6  0  0  0
 30 32  1  0  0  0  0
 31 27  2  0  0  0  0
 32 29  1  1  0  0  0
 33 26  1  0  0  0  0
 33 34  1  0  0  0  0
 36 37  1  0  0  0  0
 37 38  1  0  0  0  0
 38 41  1  0  0  0  0
 38 54  1  1  0  0  0
 39 44  1  6  0  0  0
 40 42  1  0  0  0  0
 40 39  1  0  0  0  0
 41 43  2  0  0  0  0
 41 40  1  0  0  0  0
 42 39  1  0  0  0  0
 44 47  1  0  0  0  0
 44 53  1  1  0  0  0
 45 46  2  0  0  0  0
 45 47  1  0  0  0  0
 47 49  1  0  0  0  0
 48 45  1  0  0  0  0
 49 50  1  0  0  0  0
 50 51  1  0  0  0  0
 53 52  1  0  0  0  0
 54 55  1  0  0  0  0
M  END
>  <MODEL>
9

>  <REMARK>
 VINA RESULT:      -5.4      2.079      9.655
  Name = 
  20 active torsions:
  status: ('A' for Active; 'I' for Inactive)
    1  A    between atoms: C_3  and  C_12
    2  A    between atoms: C_3  and  N_25
    3  A    between atoms: C_5  and  C_37
    4  A    between atoms: C_5  and  O_38
    5  A    between atoms: C_8  and  C_10
    6  A    between atoms: C_8  and  N_31
    7  A    between atoms: C_9  and  N_25
    8  A    between atoms: C_9  and  C_28
    9  A    between atoms: C_9  and  C_41
   10  A    between atoms: C_15  and  N_19
   11  A    between atoms: C_15  and  C_43
   12  A    between atoms: C_18  and  N_33
   13  A    between atoms: C_18  and  C_42
   14  A    between atoms: N_19  and  C_26
   15  A    between atoms: C_22  and  C_26
   16  A    between atoms: C_26  and  C_47
   17  A    between atoms: N_31  and  C_39
   18  A    between atoms: C_34  and  C_35
   19  A    between atoms: C_34  and  C_39
   20  A    between atoms: O_38  and  C_44
                            x       y       z     vdW  Elec       q    Type
                         _______ _______ _______ _____ _____    ______ ____

>  <TORSDO>
F 20

$$$$
