=
 OpenBabel11042418523D

 26 29  0  0  1  0  0  0  0  0999 V2000
  184.3440  178.4590  142.8080 C   0  0  0  0  0  2  0  0  0  0  0  0
  185.5630  176.4390  144.4410 F   0  0  0  0  0  0  0  0  0  0  0  0
  188.9360  177.0690  144.0410 C   0  0  2  0  0  3  0  0  0  0  0  0
  186.1340  177.6670  144.7670 C   0  0  2  0  0  0  0  0  0  0  0  0
  184.0050  178.9950  144.2040 C   0  0  0  0  0  2  0  0  0  0  0  0
  185.0500  178.6320  145.2710 C   0  0  1  0  0  3  0  0  0  0  0  0
  184.3850  178.0960  146.5360 C   0  0  0  0  0  2  0  0  0  0  0  0
  186.8020  178.2810  143.5300 C   0  0  1  0  0  3  0  0  0  0  0  0
  188.3390  176.5620  145.3750 C   0  0  2  0  0  3  0  0  0  0  0  0
  187.8620  177.3390  142.9800 C   0  0  0  0  0  2  0  0  0  0  0  0
  186.5240  176.9070  147.1270 C   0  0  0  0  0  2  0  0  0  0  0  0
  185.4370  177.8630  147.6200 C   0  0  0  0  0  2  0  0  0  0  0  0
  187.1900  177.4660  145.8640 C   0  0  2  0  0  3  0  0  0  0  0  0
  185.8110  178.7070  142.4350 C   0  0  0  0  0  2  0  0  0  0  0  0
  190.8870  175.1110  147.7990 C   0  0  0  0  0  3  0  0  0  0  0  0
  190.9040  177.4760  148.0070 C   0  0  0  0  0  3  0  0  0  0  0  0
  189.4080  176.4360  146.4260 C   0  0  0  0  0  0  0  0  0  0  0  0
  191.3650  176.2490  148.3690 N   0  0  0  0  0  0  0  0  0  0  0  0
  189.8990  175.1830  146.8160 C   0  0  0  0  0  3  0  0  0  0  0  0
  189.9150  177.5910  147.0260 C   0  0  0  0  0  3  0  0  0  0  0  0
  190.0230  176.1240  143.5050 C   0  0  1  0  0  3  0  0  0  0  0  0
  189.4380  174.9840  142.6790 C   0  0  0  0  0  2  0  0  0  0  0  0
  189.5100  173.7420  143.4270 N   0  0  0  0  0  1  0  0  0  0  0  0
  190.9580  176.8410  142.7510 O   0  0  0  0  0  0  0  0  0  0  0  0
  192.4050  177.0230  144.5000 O   0  0  0  0  0  1  0  0  0  0  0  0
  191.5470  177.7250  143.6560 C   0  0  0  0  0  2  0  0  0  0  0  0
  1  5  1  0  0  0  0
  3 21  1  6  0  0  0
  3  9  1  0  0  0  0
  4  2  1  6  0  0  0
  4  6  1  0  0  0  0
  4 13  1  0  0  0  0
  6  5  1  6  0  0  0
  6  7  1  0  0  0  0
  7 12  1  0  0  0  0
  8 14  1  6  0  0  0
  8  4  1  0  0  0  0
  9 13  1  0  0  0  0
  9 17  1  1  0  0  0
 10  8  1  0  0  0  0
 10  3  1  0  0  0  0
 11 12  1  0  0  0  0
 13 11  1  1  0  0  0
 14  1  1  0  0  0  0
 15 18  1  0  0  0  0
 16 18  2  0  0  0  0
 17 19  1  0  0  0  0
 17 20  2  0  0  0  0
 19 15  2  0  0  0  0
 20 16  1  0  0  0  0
 21 22  1  6  0  0  0
 22 23  1  0  0  0  0
 24 21  1  0  0  0  0
 24 26  1  0  0  0  0
 26 25  1  0  0  0  0
M  END
>  <MODEL>
1

>  <REMARK>
 VINA RESULT:      -7.5      0.000      0.000
  Name = 
  5 active torsions:
  status: ('A' for Active; 'I' for Inactive)
    1  A    between atoms: C_4  and  C_18
    2  A    between atoms: C_7  and  C_18
    3  A    between atoms: C_13  and  C_14
    4  A    between atoms: C_18  and  O_22
    5  A    between atoms: C_21  and  O_22
                            x       y       z     vdW  Elec       q    Type
                         _______ _______ _______ _____ _____    ______ ____

>  <TORSDO>
F 5

$$$$
=
 OpenBabel11042418523D

 26 29  0  0  1  0  0  0  0  0999 V2000
  184.0800  178.9390  145.4480 C   0  0  0  0  0  2  0  0  0  0  0  0
  186.6940  179.0980  144.2740 F   0  0  0  0  0  0  0  0  0  0  0  0
  188.2110  176.2040  145.3940 C   0  0  2  0  0  3  0  0  0  0  0  0
  186.1730  177.8350  144.0080 C   0  0  2  0  0  0  0  0  0  0  0  0
  183.7380  178.6620  143.9790 C   0  0  0  0  0  2  0  0  0  0  0  0
  184.8680  177.9640  143.2060 C   0  0  1  0  0  3  0  0  0  0  0  0
  185.1180  178.6400  141.8600 C   0  0  0  0  0  2  0  0  0  0  0  0
  185.8710  177.1020  145.3210 C   0  0  1  0  0  3  0  0  0  0  0  0
  188.4930  176.8010  143.9950 C   0  0  2  0  0  3  0  0  0  0  0  0
  187.1340  176.9830  146.1610 C   0  0  0  0  0  2  0  0  0  0  0  0
  187.4580  177.7120  141.8550 C   0  0  0  0  0  2  0  0  0  0  0  0
  186.1570  177.8500  141.0640 C   0  0  0  0  0  2  0  0  0  0  0  0
  187.1920  177.0200  143.1970 C   0  0  2  0  0  3  0  0  0  0  0  0
  184.7200  177.7240  146.1290 C   0  0  0  0  0  2  0  0  0  0  0  0
  191.6320  175.5100  142.2770 C   0  0  0  0  0  3  0  0  0  0  0  0
  189.9070  173.8990  142.0150 C   0  0  0  0  0  3  0  0  0  0  0  0
  189.4540  175.9340  143.2290 C   0  0  0  0  0  0  0  0  0  0  0  0
  191.1840  174.3160  141.8050 N   0  0  0  0  0  0  0  0  0  0  0  0
  190.7740  176.3420  142.9990 C   0  0  0  0  0  3  0  0  0  0  0  0
  189.0170  174.7030  142.7330 C   0  0  0  0  0  3  0  0  0  0  0  0
  189.4950  176.0630  146.2260 C   0  0  1  0  0  3  0  0  0  0  0  0
  189.7850  177.3130  147.0510 C   0  0  0  0  0  2  0  0  0  0  0  0
  190.8990  177.0660  147.9490 N   0  0  0  0  0  1  0  0  0  0  0  0
  189.4130  174.9420  147.0570 O   0  0  0  0  0  0  0  0  0  0  0  0
  190.9430  173.9960  145.6600 O   0  0  0  0  0  1  0  0  0  0  0  0
  189.6750  173.8560  146.2210 C   0  0  0  0  0  2  0  0  0  0  0  0
  1 14  1  0  0  0  0
  3 10  1  0  0  0  0
  3 21  1  1  0  0  0
  4  2  1  1  0  0  0
  4  8  1  0  0  0  0
  5  1  1  0  0  0  0
  6  7  1  6  0  0  0
  6  5  1  0  0  0  0
  6  4  1  0  0  0  0
  8 14  1  1  0  0  0
  8 10  1  0  0  0  0
  9 17  1  6  0  0  0
  9  3  1  0  0  0  0
 12 11  1  0  0  0  0
 12  7  1  0  0  0  0
 13 11  1  6  0  0  0
 13  9  1  0  0  0  0
 13  4  1  0  0  0  0
 15 19  1  0  0  0  0
 16 20  2  0  0  0  0
 18 16  1  0  0  0  0
 18 15  2  0  0  0  0
 19 17  2  0  0  0  0
 20 17  1  0  0  0  0
 21 22  1  1  0  0  0
 21 24  1  0  0  0  0
 22 23  1  0  0  0  0
 25 26  1  0  0  0  0
 26 24  1  0  0  0  0
M  END
>  <MODEL>
2

>  <REMARK>
 VINA RESULT:      -7.0      1.619      4.259
  Name = 
  5 active torsions:
  status: ('A' for Active; 'I' for Inactive)
    1  A    between atoms: C_4  and  C_18
    2  A    between atoms: C_7  and  C_18
    3  A    between atoms: C_13  and  C_14
    4  A    between atoms: C_18  and  O_22
    5  A    between atoms: C_21  and  O_22
                            x       y       z     vdW  Elec       q    Type
                         _______ _______ _______ _____ _____    ______ ____

>  <TORSDO>
F 5

$$$$
=
 OpenBabel11042418523D

 26 29  0  0  1  0  0  0  0  0999 V2000
  185.2270  178.8340  147.1820 C   0  0  0  0  0  2  0  0  0  0  0  0
  187.0530  178.6850  144.9730 F   0  0  0  0  0  0  0  0  0  0  0  0
  188.4380  175.5420  145.3400 C   0  0  2  0  0  3  0  0  0  0  0  0
  186.2790  177.5270  144.9780 C   0  0  2  0  0  0  0  0  0  0  0  0
  184.2380  178.6960  146.0190 C   0  0  0  0  0  2  0  0  0  0  0  0
  184.7920  177.8890  144.8340 C   0  0  1  0  0  3  0  0  0  0  0  0
  184.5290  178.6000  143.5090 C   0  0  0  0  0  2  0  0  0  0  0  0
  186.4740  176.7700  146.2980 C   0  0  1  0  0  3  0  0  0  0  0  0
  188.1680  176.1730  143.9540 C   0  0  2  0  0  3  0  0  0  0  0  0
  187.9410  176.4220  146.4950 C   0  0  0  0  0  2  0  0  0  0  0  0
  186.4550  177.3480  142.4810 C   0  0  0  0  0  2  0  0  0  0  0  0
  184.9780  177.7170  142.3450 C   0  0  0  0  0  2  0  0  0  0  0  0
  186.7000  176.6240  143.8100 C   0  0  2  0  0  3  0  0  0  0  0  0
  185.9040  177.5020  147.5240 C   0  0  0  0  0  2  0  0  0  0  0  0
  190.0620  174.4760  141.1250 C   0  0  0  0  0  3  0  0  0  0  0  0
  188.0340  173.2970  141.4950 C   0  0  0  0  0  3  0  0  0  0  0  0
  188.5490  175.2240  142.8510 C   0  0  0  0  0  0  0  0  0  0  0  0
  189.2050  173.4630  140.8230 N   0  0  0  0  0  0  0  0  0  0  0  0
  189.7490  175.3760  142.1450 C   0  0  0  0  0  3  0  0  0  0  0  0
  187.6850  174.1760  142.5230 C   0  0  0  0  0  3  0  0  0  0  0  0
  189.9180  175.1700  145.5210 C   0  0  1  0  0  3  0  0  0  0  0  0
  190.6520  176.1530  146.4270 C   0  0  0  0  0  2  0  0  0  0  0  0
  191.2310  175.4490  147.5560 N   0  0  0  0  0  1  0  0  0  0  0  0
  190.0320  173.8700  146.0220 O   0  0  0  0  0  0  0  0  0  0  0  0
  189.5360  172.1040  144.6730 O   0  0  0  0  0  1  0  0  0  0  0  0
  190.4680  173.1040  144.9400 C   0  0  0  0  0  2  0  0  0  0  0  0
  1 14  1  0  0  0  0
  3 21  1  1  0  0  0
  3 10  1  0  0  0  0
  4  2  1  1  0  0  0
  4  8  1  0  0  0  0
  5  1  1  0  0  0  0
  6  7  1  6  0  0  0
  6  4  1  0  0  0  0
  6  5  1  0  0  0  0
  8 10  1  1  0  0  0
  8 14  1  0  0  0  0
  9 17  1  6  0  0  0
  9  3  1  0  0  0  0
 12 11  1  0  0  0  0
 12  7  1  0  0  0  0
 13 11  1  6  0  0  0
 13  9  1  0  0  0  0
 13  4  1  0  0  0  0
 15 19  1  0  0  0  0
 16 20  2  0  0  0  0
 18 15  2  0  0  0  0
 18 16  1  0  0  0  0
 19 17  2  0  0  0  0
 20 17  1  0  0  0  0
 21 24  1  0  0  0  0
 21 22  1  1  0  0  0
 22 23  1  0  0  0  0
 25 26  1  0  0  0  0
 26 24  1  0  0  0  0
M  END
>  <MODEL>
3

>  <REMARK>
 VINA RESULT:      -6.9      1.976      4.524
  Name = 
  5 active torsions:
  status: ('A' for Active; 'I' for Inactive)
    1  A    between atoms: C_4  and  C_18
    2  A    between atoms: C_7  and  C_18
    3  A    between atoms: C_13  and  C_14
    4  A    between atoms: C_18  and  O_22
    5  A    between atoms: C_21  and  O_22
                            x       y       z     vdW  Elec       q    Type
                         _______ _______ _______ _____ _____    ______ ____

>  <TORSDO>
F 5

$$$$
=
 OpenBabel11042418523D

 26 29  0  0  1  0  0  0  0  0999 V2000
  192.6480  175.6440  143.1890 C   0  0  0  0  0  2  0  0  0  0  0  0
  191.0270  177.7550  144.2640 F   0  0  0  0  0  0  0  0  0  0  0  0
  187.8490  176.8730  143.2370 C   0  0  2  0  0  3  0  0  0  0  0  0
  190.4450  176.5380  144.6100 C   0  0  2  0  0  0  0  0  0  0  0  0
  192.6930  175.2920  144.6810 C   0  0  0  0  0  2  0  0  0  0  0  0
  191.4270  175.7060  145.4480 C   0  0  1  0  0  3  0  0  0  0  0  0
  191.7800  176.4220  146.7500 C   0  0  0  0  0  2  0  0  0  0  0  0
  190.0860  175.7480  143.3450 C   0  0  1  0  0  3  0  0  0  0  0  0
  188.1210  177.5640  144.5950 C   0  0  2  0  0  3  0  0  0  0  0  0
  189.1390  176.5530  142.4700 C   0  0  0  0  0  2  0  0  0  0  0  0
  189.5210  177.5330  146.7210 C   0  0  0  0  0  2  0  0  0  0  0  0
  190.5080  176.7080  147.5480 C   0  0  0  0  0  2  0  0  0  0  0  0
  189.1690  176.7940  145.4240 C   0  0  2  0  0  3  0  0  0  0  0  0
  191.3090  175.2640  142.5470 C   0  0  0  0  0  2  0  0  0  0  0  0
  185.1360  179.1320  146.3560 C   0  0  0  0  0  3  0  0  0  0  0  0
  184.9900  176.7720  146.5720 C   0  0  0  0  0  3  0  0  0  0  0  0
  186.8440  177.7400  145.3690 C   0  0  0  0  0  0  0  0  0  0  0  0
  184.5010  178.0180  146.8090 N   0  0  0  0  0  0  0  0  0  0  0  0
  186.3210  179.0130  145.6270 C   0  0  0  0  0  3  0  0  0  0  0  0
  186.1730  176.6110  145.8460 C   0  0  0  0  0  3  0  0  0  0  0  0
  186.8710  177.6810  142.3700 C   0  0  1  0  0  3  0  0  0  0  0  0
  187.4410  177.9800  140.9870 C   0  0  0  0  0  2  0  0  0  0  0  0
  186.7350  177.2060  139.9820 N   0  0  0  0  0  1  0  0  0  0  0  0
  185.6530  177.0050  142.2570 O   0  0  0  0  0  0  0  0  0  0  0  0
  183.7050  177.9700  141.5760 O   0  0  0  0  0  1  0  0  0  0  0  0
  184.6830  177.9590  142.5690 C   0  0  0  0  0  2  0  0  0  0  0  0
  1  5  1  0  0  0  0
  3 21  1  6  0  0  0
  3  9  1  0  0  0  0
  4  2  1  6  0  0  0
  4 13  1  0  0  0  0
  4  6  1  0  0  0  0
  6  5  1  6  0  0  0
  6  7  1  0  0  0  0
  7 12  1  0  0  0  0
  8 10  1  6  0  0  0
  8  4  1  0  0  0  0
  9 17  1  1  0  0  0
  9 13  1  0  0  0  0
 10  3  1  0  0  0  0
 11 12  1  0  0  0  0
 13 11  1  1  0  0  0
 14  1  1  0  0  0  0
 14  8  1  0  0  0  0
 15 18  1  0  0  0  0
 16 18  2  0  0  0  0
 17 19  1  0  0  0  0
 17 20  2  0  0  0  0
 19 15  2  0  0  0  0
 20 16  1  0  0  0  0
 21 22  1  6  0  0  0
 23 22  1  0  0  0  0
 24 21  1  0  0  0  0
 24 26  1  0  0  0  0
 25 26  1  0  0  0  0
M  END
>  <MODEL>
4

>  <REMARK>
 VINA RESULT:      -6.9      3.077      5.719
  Name = 
  5 active torsions:
  status: ('A' for Active; 'I' for Inactive)
    1  A    between atoms: C_4  and  C_18
    2  A    between atoms: C_7  and  C_18
    3  A    between atoms: C_13  and  C_14
    4  A    between atoms: C_18  and  O_22
    5  A    between atoms: C_21  and  O_22
                            x       y       z     vdW  Elec       q    Type
                         _______ _______ _______ _____ _____    ______ ____

>  <TORSDO>
F 5

$$$$
=
 OpenBabel11042418523D

 26 29  0  0  1  0  0  0  0  0999 V2000
  184.0660  178.4060  142.6570 C   0  0  0  0  0  2  0  0  0  0  0  0
  185.2190  176.4070  144.3620 F   0  0  0  0  0  0  0  0  0  0  0  0
  188.6040  176.7550  143.7640 C   0  0  2  0  0  3  0  0  0  0  0  0
  185.8930  177.6060  144.5790 C   0  0  2  0  0  0  0  0  0  0  0  0
  183.8380  179.0520  144.0290 C   0  0  0  0  0  2  0  0  0  0  0  0
  184.9090  178.6800  145.0680 C   0  0  1  0  0  3  0  0  0  0  0  0
  184.2730  178.2760  146.3950 C   0  0  0  0  0  2  0  0  0  0  0  0
  186.5390  178.0900  143.2740 C   0  0  1  0  0  3  0  0  0  0  0  0
  188.0410  176.3800  145.1550 C   0  0  2  0  0  3  0  0  0  0  0  0
  187.4980  177.0380  142.7380 C   0  0  0  0  0  2  0  0  0  0  0  0
  186.3480  176.9690  146.9630 C   0  0  0  0  0  2  0  0  0  0  0  0
  185.3600  178.0340  147.4420 C   0  0  0  0  0  2  0  0  0  0  0  0
  186.9860  177.3970  145.6360 C   0  0  2  0  0  3  0  0  0  0  0  0
  185.5250  178.5190  142.2000 C   0  0  0  0  0  2  0  0  0  0  0  0
  190.4970  174.9160  147.6650 C   0  0  0  0  0  3  0  0  0  0  0  0
  190.9080  177.2460  147.4720 C   0  0  0  0  0  3  0  0  0  0  0  0
  189.1520  176.2400  146.1600 C   0  0  0  0  0  0  0  0  0  0  0  0
  191.1920  176.0310  148.0130 N   0  0  0  0  0  0  0  0  0  0  0  0
  189.4620  175.0000  146.7310 C   0  0  0  0  0  3  0  0  0  0  0  0
  189.8810  177.3720  146.5330 C   0  0  0  0  0  3  0  0  0  0  0  0
  189.5910  175.7000  143.2410 C   0  0  1  0  0  3  0  0  0  0  0  0
  191.0420  176.0930  143.5010 C   0  0  0  0  0  2  0  0  0  0  0  0
  191.2520  177.4820  143.1380 N   0  0  0  0  0  1  0  0  0  0  0  0
  189.3150  174.4550  143.8130 O   0  0  0  0  0  0  0  0  0  0  0  0
  188.2830  173.7630  141.9040 O   0  0  0  0  0  1  0  0  0  0  0  0
  189.3700  173.5520  142.7500 C   0  0  0  0  0  2  0  0  0  0  0  0
  1  5  1  0  0  0  0
  3 21  1  6  0  0  0
  3  9  1  0  0  0  0
  4  2  1  6  0  0  0
  4  6  1  0  0  0  0
  4 13  1  0  0  0  0
  6  5  1  6  0  0  0
  6  7  1  0  0  0  0
  7 12  1  0  0  0  0
  8 14  1  6  0  0  0
  8  4  1  0  0  0  0
  9 13  1  0  0  0  0
  9 17  1  1  0  0  0
 10  8  1  0  0  0  0
 10  3  1  0  0  0  0
 11 12  1  0  0  0  0
 13 11  1  1  0  0  0
 14  1  1  0  0  0  0
 15 18  1  0  0  0  0
 16 18  2  0  0  0  0
 17 20  2  0  0  0  0
 17 19  1  0  0  0  0
 19 15  2  0  0  0  0
 20 16  1  0  0  0  0
 21 22  1  1  0  0  0
 21 24  1  0  0  0  0
 23 22  1  0  0  0  0
 25 26  1  0  0  0  0
 26 24  1  0  0  0  0
M  END
>  <MODEL>
5

>  <REMARK>
 VINA RESULT:      -6.7      1.398      1.883
  Name = 
  5 active torsions:
  status: ('A' for Active; 'I' for Inactive)
    1  A    between atoms: C_4  and  C_18
    2  A    between atoms: C_7  and  C_18
    3  A    between atoms: C_13  and  C_14
    4  A    between atoms: C_18  and  O_22
    5  A    between atoms: C_21  and  O_22
                            x       y       z     vdW  Elec       q    Type
                         _______ _______ _______ _____ _____    ______ ____

>  <TORSDO>
F 5

$$$$
=
 OpenBabel11042418523D

 26 29  0  0  1  0  0  0  0  0999 V2000
  191.2630  175.5380  148.0050 C   0  0  0  0  0  2  0  0  0  0  0  0
  189.2720  174.7500  146.0960 F   0  0  0  0  0  0  0  0  0  0  0  0
  187.6340  177.7180  145.4330 C   0  0  2  0  0  3  0  0  0  0  0  0
  189.9340  175.8690  145.5980 C   0  0  2  0  0  0  0  0  0  0  0  0
  192.1460  175.2910  146.7760 C   0  0  0  0  0  2  0  0  0  0  0  0
  191.4320  175.5660  145.4420 C   0  0  1  0  0  3  0  0  0  0  0  0
  191.6610  174.4310  144.4480 C   0  0  0  0  0  2  0  0  0  0  0  0
  189.7690  177.0500  146.5640 C   0  0  1  0  0  3  0  0  0  0  0  0
  187.8570  176.6340  144.3520 C   0  0  2  0  0  3  0  0  0  0  0  0
  188.2950  177.3610  146.7710 C   0  0  0  0  0  2  0  0  0  0  0  0
  189.5560  175.0980  143.2400 C   0  0  0  0  0  2  0  0  0  0  0  0
  191.0460  174.7900  143.0960 C   0  0  0  0  0  2  0  0  0  0  0  0
  189.3450  176.2480  144.2320 C   0  0  2  0  0  3  0  0  0  0  0  0
  190.4940  176.8600  147.9060 C   0  0  0  0  0  2  0  0  0  0  0  0
  185.5290  177.2030  141.3970 C   0  0  0  0  0  3  0  0  0  0  0  0
  187.6200  178.2240  140.9240 C   0  0  0  0  0  3  0  0  0  0  0  0
  187.3080  177.0820  143.0250 C   0  0  0  0  0  0  0  0  0  0  0  0
  186.3430  177.9140  140.5720 N   0  0  0  0  0  0  0  0  0  0  0  0
  185.9970  176.7730  142.6410 C   0  0  0  0  0  3  0  0  0  0  0  0
  188.1260  177.8120  142.1600 C   0  0  0  0  0  3  0  0  0  0  0  0
  186.1440  178.0440  145.6180 C   0  0  1  0  0  3  0  0  0  0  0  0
  185.5510  177.3510  146.8410 C   0  0  0  0  0  2  0  0  0  0  0  0
  184.8010  178.3060  147.6360 N   0  0  0  0  0  1  0  0  0  0  0  0
  185.9580  179.4270  145.7060 O   0  0  0  0  0  0  0  0  0  0  0  0
  184.2080  179.3560  144.2500 O   0  0  0  0  0  1  0  0  0  0  0  0
  185.5110  179.8100  144.4410 C   0  0  0  0  0  2  0  0  0  0  0  0
  3 21  1  1  0  0  0
  3 10  1  0  0  0  0
  4  2  1  1  0  0  0
  4  8  1  0  0  0  0
  5  1  1  0  0  0  0
  6  7  1  6  0  0  0
  6  4  1  0  0  0  0
  6  5  1  0  0  0  0
  8 10  1  1  0  0  0
  8 14  1  0  0  0  0
  9 17  1  6  0  0  0
  9  3  1  0  0  0  0
 12 11  1  0  0  0  0
 12  7  1  0  0  0  0
 13 11  1  6  0  0  0
 13  9  1  0  0  0  0
 13  4  1  0  0  0  0
 14  1  1  0  0  0  0
 15 19  1  0  0  0  0
 16 20  2  0  0  0  0
 18 16  1  0  0  0  0
 18 15  2  0  0  0  0
 19 17  2  0  0  0  0
 20 17  1  0  0  0  0
 21 24  1  0  0  0  0
 21 22  1  1  0  0  0
 22 23  1  0  0  0  0
 25 26  1  0  0  0  0
 26 24  1  0  0  0  0
M  END
>  <MODEL>
6

>  <REMARK>
 VINA RESULT:      -6.4      3.032      6.506
  Name = 
  5 active torsions:
  status: ('A' for Active; 'I' for Inactive)
    1  A    between atoms: C_4  and  C_18
    2  A    between atoms: C_7  and  C_18
    3  A    between atoms: C_13  and  C_14
    4  A    between atoms: C_18  and  O_22
    5  A    between atoms: C_21  and  O_22
                            x       y       z     vdW  Elec       q    Type
                         _______ _______ _______ _____ _____    ______ ____

>  <TORSDO>
F 5

$$$$
=
 OpenBabel11042418523D

 26 29  0  0  1  0  0  0  0  0999 V2000
  193.2060  174.8770  145.0350 C   0  0  0  0  0  2  0  0  0  0  0  0
  191.4780  177.1680  144.9920 F   0  0  0  0  0  0  0  0  0  0  0  0
  188.4710  175.8350  143.9350 C   0  0  2  0  0  3  0  0  0  0  0  0
  190.8320  176.1480  145.6860 C   0  0  2  0  0  0  0  0  0  0  0  0
  193.0260  175.1130  146.5400 C   0  0  0  0  0  2  0  0  0  0  0  0
  191.6680  175.7320  146.9070 C   0  0  1  0  0  3  0  0  0  0  0  0
  191.8360  176.8990  147.8770 C   0  0  0  0  0  2  0  0  0  0  0  0
  190.6510  174.9260  144.7760 C   0  0  1  0  0  3  0  0  0  0  0  0
  188.5520  176.9960  144.9550 C   0  0  2  0  0  3  0  0  0  0  0  0
  189.8550  175.3040  143.5370 C   0  0  0  0  0  2  0  0  0  0  0  0
  189.6240  177.8240  147.1110 C   0  0  0  0  0  2  0  0  0  0  0  0
  190.4660  177.4110  148.3190 C   0  0  0  0  0  2  0  0  0  0  0  0
  189.4540  176.6380  146.1540 C   0  0  2  0  0  3  0  0  0  0  0  0
  191.9690  174.2290  144.4020 C   0  0  0  0  0  2  0  0  0  0  0  0
  185.3660  178.9870  145.5540 C   0  0  0  0  0  3  0  0  0  0  0  0
  185.1530  176.8750  146.6190 C   0  0  0  0  0  3  0  0  0  0  0  0
  187.1780  177.3970  145.4170 C   0  0  0  0  0  0  0  0  0  0  0  0
  184.6530  178.0990  146.2980 N   0  0  0  0  0  0  0  0  0  0  0  0
  186.6430  178.6520  145.1000 C   0  0  0  0  0  3  0  0  0  0  0  0
  186.4260  176.5020  146.1830 C   0  0  0  0  0  3  0  0  0  0  0  0
  187.6440  176.2170  142.6980 C   0  0  1  0  0  3  0  0  0  0  0  0
  188.3400  177.2720  141.8440 C   0  0  0  0  0  2  0  0  0  0  0  0
  187.4880  178.4400  141.7080 N   0  0  0  0  0  1  0  0  0  0  0  0
  187.3650  175.0810  141.9330 O   0  0  0  0  0  0  0  0  0  0  0  0
  188.5530  174.0710  140.2740 O   0  0  0  0  0  1  0  0  0  0  0  0
  188.0410  175.2840  140.7290 C   0  0  0  0  0  2  0  0  0  0  0  0
  1  5  1  0  0  0  0
  3 21  1  6  0  0  0
  3  9  1  0  0  0  0
  4  2  1  6  0  0  0
  4 13  1  0  0  0  0
  4  6  1  0  0  0  0
  6  5  1  6  0  0  0
  6  7  1  0  0  0  0
  7 12  1  0  0  0  0
  8 10  1  6  0  0  0
  8  4  1  0  0  0  0
  9 17  1  1  0  0  0
  9 13  1  0  0  0  0
 10  3  1  0  0  0  0
 11 12  1  0  0  0  0
 13 11  1  1  0  0  0
 14  8  1  0  0  0  0
 14  1  1  0  0  0  0
 15 18  1  0  0  0  0
 17 20  2  0  0  0  0
 18 16  2  0  0  0  0
 19 17  1  0  0  0  0
 19 15  2  0  0  0  0
 20 16  1  0  0  0  0
 21 22  1  6  0  0  0
 23 22  1  0  0  0  0
 24 21  1  0  0  0  0
 25 26  1  0  0  0  0
 26 24  1  0  0  0  0
M  END
>  <MODEL>
7

>  <REMARK>
 VINA RESULT:      -6.1      2.888      5.643
  Name = 
  5 active torsions:
  status: ('A' for Active; 'I' for Inactive)
    1  A    between atoms: C_4  and  C_18
    2  A    between atoms: C_7  and  C_18
    3  A    between atoms: C_13  and  C_14
    4  A    between atoms: C_18  and  O_22
    5  A    between atoms: C_21  and  O_22
                            x       y       z     vdW  Elec       q    Type
                         _______ _______ _______ _____ _____    ______ ____

>  <TORSDO>
F 5

$$$$
=
 OpenBabel11042418523D

 26 29  0  0  1  0  0  0  0  0999 V2000
  194.4750  176.2940  146.5140 C   0  0  0  0  0  2  0  0  0  0  0  0
  192.0680  174.7830  146.1170 F   0  0  0  0  0  0  0  0  0  0  0  0
  190.6730  176.2890  143.3380 C   0  0  2  0  0  3  0  0  0  0  0  0
  192.7390  174.8630  144.8990 C   0  0  2  0  0  0  0  0  0  0  0  0
  195.0620  174.9760  145.9960 C   0  0  0  0  0  2  0  0  0  0  0  0
  194.1330  174.2290  145.0250 C   0  0  1  0  0  3  0  0  0  0  0  0
  194.0300  172.7490  145.3860 C   0  0  0  0  0  2  0  0  0  0  0  0
  192.9020  176.3310  144.4840 C   0  0  1  0  0  3  0  0  0  0  0  0
  190.5540  174.7700  143.6070 C   0  0  2  0  0  3  0  0  0  0  0  0
  191.5430  177.0050  144.3800 C   0  0  0  0  0  2  0  0  0  0  0  0
  191.8150  172.6380  144.1960 C   0  0  0  0  0  2  0  0  0  0  0  0
  193.2030  172.0120  144.3330 C   0  0  0  0  0  2  0  0  0  0  0  0
  191.9360  174.1200  143.8210 C   0  0  2  0  0  3  0  0  0  0  0  0
  193.8540  177.1300  145.3890 C   0  0  0  0  0  2  0  0  0  0  0  0
  189.5940  173.4000  140.1900 C   0  0  0  0  0  3  0  0  0  0  0  0
  187.8670  172.8730  141.7310 C   0  0  0  0  0  3  0  0  0  0  0  0
  189.8060  174.0880  142.4940 C   0  0  0  0  0  0  0  0  0  0  0  0
  188.3910  172.8360  140.4760 N   0  0  0  0  0  0  0  0  0  0  0  0
  190.3250  174.0380  141.1940 C   0  0  0  0  0  3  0  0  0  0  0  0
  188.5670  173.5010  142.7640 C   0  0  0  0  0  3  0  0  0  0  0  0
  189.2950  176.9570  143.2090 C   0  0  1  0  0  3  0  0  0  0  0  0
  188.8130  177.5400  144.5330 C   0  0  0  0  0  2  0  0  0  0  0  0
  187.7870  176.6880  145.1050 N   0  0  0  0  0  1  0  0  0  0  0  0
  189.3300  177.9500  142.2250 O   0  0  0  0  0  0  0  0  0  0  0  0
  187.7830  176.6190  141.2120 O   0  0  0  0  0  1  0  0  0  0  0  0
  188.0640  177.9160  141.6370 C   0  0  0  0  0  2  0  0  0  0  0  0
  3 21  1  1  0  0  0
  3  9  1  0  0  0  0
  3 10  1  0  0  0  0
  4  6  1  0  0  0  0
  4  2  1  1  0  0  0
  5  1  1  0  0  0  0
  6  7  1  1  0  0  0
  6  5  1  0  0  0  0
  8 10  1  1  0  0  0
  8  4  1  0  0  0  0
  8 14  1  0  0  0  0
  9 17  1  6  0  0  0
  9 13  1  0  0  0  0
 11 12  1  0  0  0  0
 12  7  1  0  0  0  0
 13 11  1  1  0  0  0
 13  4  1  0  0  0  0
 14  1  1  0  0  0  0
 15 18  2  0  0  0  0
 15 19  1  0  0  0  0
 16 20  2  0  0  0  0
 17 20  1  0  0  0  0
 18 16  1  0  0  0  0
 19 17  2  0  0  0  0
 21 22  1  1  0  0  0
 22 23  1  0  0  0  0
 24 21  1  0  0  0  0
 25 26  1  0  0  0  0
 26 24  1  0  0  0  0
M  END
>  <MODEL>
8

>  <REMARK>
 VINA RESULT:      -5.9      3.365      7.122
  Name = 
  5 active torsions:
  status: ('A' for Active; 'I' for Inactive)
    1  A    between atoms: C_4  and  C_18
    2  A    between atoms: C_7  and  C_18
    3  A    between atoms: C_13  and  C_14
    4  A    between atoms: C_18  and  O_22
    5  A    between atoms: C_21  and  O_22
                            x       y       z     vdW  Elec       q    Type
                         _______ _______ _______ _____ _____    ______ ____

>  <TORSDO>
F 5

$$$$
=
 OpenBabel11042418523D

 26 29  0  0  1  0  0  0  0  0999 V2000
  186.0880  178.3370  147.6440 C   0  0  0  0  0  2  0  0  0  0  0  0
  186.7880  179.1320  144.9780 F   0  0  0  0  0  0  0  0  0  0  0  0
  188.4380  176.3510  143.7620 C   0  0  2  0  0  3  0  0  0  0  0  0
  186.1860  177.8790  144.9140 C   0  0  2  0  0  0  0  0  0  0  0  0
  184.7080  178.3010  146.9760 C   0  0  0  0  0  2  0  0  0  0  0  0
  184.7590  177.9530  145.4800 C   0  0  1  0  0  3  0  0  0  0  0  0
  183.8950  178.9090  144.6610 C   0  0  0  0  0  2  0  0  0  0  0  0
  186.9890  176.8660  145.7410 C   0  0  1  0  0  3  0  0  0  0  0  0
  187.5480  177.2460  142.8660 C   0  0  2  0  0  3  0  0  0  0  0  0
  188.4200  176.7870  145.2330 C   0  0  0  0  0  2  0  0  0  0  0  0
  185.2820  178.3810  142.6270 C   0  0  0  0  0  2  0  0  0  0  0  0
  183.8660  178.4630  143.1990 C   0  0  0  0  0  2  0  0  0  0  0  0
  186.1320  177.4080  143.4540 C   0  0  2  0  0  3  0  0  0  0  0  0
  186.9480  177.1290  147.2560 C   0  0  0  0  0  2  0  0  0  0  0  0
  186.9890  176.9560  139.1150 C   0  0  0  0  0  3  0  0  0  0  0  0
  187.8370  174.8880  139.9170 C   0  0  0  0  0  3  0  0  0  0  0  0
  187.4910  176.7070  141.4630 C   0  0  0  0  0  0  0  0  0  0  0  0
  187.3890  175.6730  138.9010 N   0  0  0  0  0  0  0  0  0  0  0  0
  187.0320  177.4970  140.4010 C   0  0  0  0  0  3  0  0  0  0  0  0
  187.8960  175.3930  141.2190 C   0  0  0  0  0  3  0  0  0  0  0  0
  189.8760  176.2560  143.2270 C   0  0  1  0  0  3  0  0  0  0  0  0
  190.5790  177.6090  143.2240 C   0  0  0  0  0  2  0  0  0  0  0  0
  191.7360  177.5690  144.1010 N   0  0  0  0  0  1  0  0  0  0  0  0
  190.6100  175.3300  143.9730 O   0  0  0  0  0  0  0  0  0  0  0  0
  190.0340  173.1390  143.7310 O   0  0  0  0  0  1  0  0  0  0  0  0
  190.7140  174.2080  143.1500 C   0  0  0  0  0  2  0  0  0  0  0  0
  3 21  1  6  0  0  0
  3 10  1  0  0  0  0
  4  2  1  1  0  0  0
  4  6  1  0  0  0  0
  4  8  1  0  0  0  0
  5  1  1  0  0  0  0
  6  7  1  6  0  0  0
  6  5  1  0  0  0  0
  8 10  1  6  0  0  0
  8 14  1  0  0  0  0
  9 17  1  6  0  0  0
  9 13  1  0  0  0  0
  9  3  1  0  0  0  0
 11 12  1  0  0  0  0
 12  7  1  0  0  0  0
 13 11  1  6  0  0  0
 13  4  1  0  0  0  0
 14  1  1  0  0  0  0
 15 19  1  0  0  0  0
 16 20  2  0  0  0  0
 18 15  2  0  0  0  0
 18 16  1  0  0  0  0
 19 17  2  0  0  0  0
 20 17  1  0  0  0  0
 21 22  1  1  0  0  0
 21 24  1  0  0  0  0
 22 23  1  0  0  0  0
 26 25  1  0  0  0  0
 26 24  1  0  0  0  0
M  END
>  <MODEL>
9

>  <REMARK>
 VINA RESULT:      -5.7      2.208      4.901
  Name = 
  5 active torsions:
  status: ('A' for Active; 'I' for Inactive)
    1  A    between atoms: C_4  and  C_18
    2  A    between atoms: C_7  and  C_18
    3  A    between atoms: C_13  and  C_14
    4  A    between atoms: C_18  and  O_22
    5  A    between atoms: C_21  and  O_22
                            x       y       z     vdW  Elec       q    Type
                         _______ _______ _______ _____ _____    ______ ____

>  <TORSDO>
F 5

$$$$
