=
 OpenBabel11042419323D

 32 36  0  0  1  0  0  0  0  0999 V2000
  189.5080  175.3650  145.5820 C   0  0  0  0  0  2  0  0  0  0  0  0
  191.8720  176.3220  145.8440 C   0  0  2  0  0  3  0  0  0  0  0  0
  190.0290  177.7710  144.9800 C   0  0  0  0  0  2  0  0  0  0  0  0
  190.8740  175.2290  146.2590 C   0  0  0  0  0  2  0  0  0  0  0  0
  189.0990  176.7690  145.5190 N   0  0  0  0  0  0  0  0  0  0  0  0
  191.3910  177.1610  144.6600 C   0  0  0  0  0  2  0  0  0  0  0  0
  186.8160  177.4280  144.7660 C   0  0  0  0  0  0  0  0  0  0  0  0
  187.1950  177.3070  143.3810 N   0  0  0  0  0  0  0  0  0  0  0  0
  185.5980  177.6620  148.7370 F   0  0  0  0  0  0  0  0  0  0  0  0
  185.4940  177.8010  145.0890 C   0  0  0  0  0  0  0  0  0  0  0  0
  187.3040  177.2220  147.1340 C   0  0  0  0  0  3  0  0  0  0  0  0
  184.9860  177.9640  142.6820 C   0  0  0  0  0  0  0  0  0  0  0  0
  186.8450  177.4020  140.9820 C   0  0  0  0  0  2  0  0  0  0  0  0
  184.1600  178.2160  141.7140 N   0  0  0  0  0  0  0  0  0  0  0  0
  185.0900  177.8820  146.4220 C   0  0  0  0  0  3  0  0  0  0  0  0
  184.5430  178.1110  140.3340 C   0  0  0  0  0  3  0  0  0  0  0  0
  186.3760  177.5490  142.4000 C   0  0  0  0  0  0  0  0  0  0  0  0
  187.7380  177.1440  145.7990 C   0  0  0  0  0  0  0  0  0  0  0  0
  184.5630  178.0820  144.0420 N   0  0  0  0  0  2  0  0  0  0  0  0
  185.9930  177.5900  147.4430 C   0  0  0  0  0  0  0  0  0  0  0  0
  185.7760  177.7380  139.9770 C   0  0  0  0  0  3  0  0  0  0  0  0
  194.8260  174.6340  144.5680 N   0  0  0  0  0  0  0  0  0  0  0  0
  195.3260  175.1290  145.7150 C   0  0  0  0  0  3  0  0  0  0  0  0
  193.5340  174.9820  144.4590 C   0  0  0  0  0  3  0  0  0  0  0  0
  194.3380  175.8360  146.3770 C   0  0  0  0  0  3  0  0  0  0  0  0
  193.2160  175.7340  145.5680 C   0  0  0  0  0  0  0  0  0  0  0  0
  195.5530  173.8020  143.6260 C   0  0  0  0  0  2  0  0  0  0  0  0
  196.8720  174.3630  143.3930 N   0  0  0  0  0  2  0  0  0  0  0  0
  196.8460  174.9550  142.0680 C   0  0  0  0  0  2  0  0  0  0  0  0
  195.9980  177.0430  141.3020 O   0  0  0  0  0  0  0  0  0  0  0  0
  196.6520  176.4250  142.1810 C   0  0  0  0  0  0  0  0  0  0  0  0
  197.1570  177.1100  143.2780 O   0  0  0  0  0  1  0  0  0  0  0  0
  1  4  1  0  0  0  0
  2 26  1  6  0  0  0
  2  4  1  0  0  0  0
  3  5  1  0  0  0  0
  5  1  1  0  0  0  0
  5 18  1  0  0  0  0
  6  3  1  0  0  0  0
  6  2  1  0  0  0  0
  7 10  2  0  0  0  0
  7 18  1  0  0  0  0
  8  7  1  0  0  0  0
 10 15  1  0  0  0  0
 11 20  1  0  0  0  0
 12 19  1  0  0  0  0
 13 17  1  0  0  0  0
 14 12  2  0  0  0  0
 15 20  2  0  0  0  0
 16 14  1  0  0  0  0
 17 12  1  0  0  0  0
 17  8  2  0  0  0  0
 18 11  2  0  0  0  0
 19 10  1  0  0  0  0
 20  9  1  0  0  0  0
 21 16  2  0  0  0  0
 21 13  1  0  0  0  0
 22 23  1  0  0  0  0
 23 25  2  0  0  0  0
 24 22  1  0  0  0  0
 24 26  2  0  0  0  0
 26 25  1  0  0  0  0
 27 22  1  0  0  0  0
 28 27  1  0  0  0  0
 29 31  1  0  0  0  0
 29 28  1  0  0  0  0
 30 31  2  0  0  0  0
 31 32  1  0  0  0  0
M  END
>  <MODEL>
1

>  <REMARK>
 VINA RESULT:      -8.1      0.000      0.000
  Name = 
  6 active torsions:
  status: ('A' for Active; 'I' for Inactive)
    1  A    between atoms: N_8  and  C_9
    2  A    between atoms: N_8  and  C_14
    3  A    between atoms: C_9  and  C_28
    4  A    between atoms: N_10  and  C_14
    5  A    between atoms: C_17  and  C_31
    6  A    between atoms: C_20  and  N_24
                            x       y       z     vdW  Elec       q    Type
                         _______ _______ _______ _____ _____    ______ ____

>  <TORSDO>
F 6

$$$$
=
 OpenBabel11042419323D

 32 36  0  0  1  0  0  0  0  0999 V2000
  189.5780  177.9010  145.8480 C   0  0  0  0  0  2  0  0  0  0  0  0
  190.9420  175.7520  145.5420 C   0  0  2  0  0  3  0  0  0  0  0  0
  188.7400  175.6750  146.7220 C   0  0  0  0  0  2  0  0  0  0  0  0
  190.6800  177.1880  145.0610 C   0  0  0  0  0  2  0  0  0  0  0  0
  188.4670  176.9890  146.1250 N   0  0  0  0  0  0  0  0  0  0  0  0
  190.2400  175.4180  146.8590 C   0  0  0  0  0  2  0  0  0  0  0  0
  186.4920  177.6080  144.7350 C   0  0  0  0  0  0  0  0  0  0  0  0
  187.1970  177.2880  143.5210 N   0  0  0  0  0  0  0  0  0  0  0  0
  184.3370  178.4190  148.2010 F   0  0  0  0  0  0  0  0  0  0  0  0
  185.1580  178.0620  144.6600 C   0  0  0  0  0  0  0  0  0  0  0  0
  186.3580  177.7120  147.1560 C   0  0  0  0  0  3  0  0  0  0  0  0
  185.2800  177.9110  142.2020 C   0  0  0  0  0  0  0  0  0  0  0  0
  187.4650  177.0660  141.1190 C   0  0  0  0  0  2  0  0  0  0  0  0
  184.7410  178.0530  141.0310 N   0  0  0  0  0  0  0  0  0  0  0  0
  184.4390  178.3360  145.8240 C   0  0  0  0  0  3  0  0  0  0  0  0
  185.4490  177.7490  139.8200 C   0  0  0  0  0  3  0  0  0  0  0  0
  186.6670  177.4190  142.3400 C   0  0  0  0  0  0  0  0  0  0  0  0
  187.1050  177.4390  145.9980 C   0  0  0  0  0  0  0  0  0  0  0  0
  184.5390  178.2260  143.3820 N   0  0  0  0  0  2  0  0  0  0  0  0
  185.0380  178.1580  147.0710 C   0  0  0  0  0  0  0  0  0  0  0  0
  186.7050  177.2940  139.8400 C   0  0  0  0  0  3  0  0  0  0  0  0
  194.3850  174.6320  145.2340 N   0  0  0  0  0  0  0  0  0  0  0  0
  194.5220  175.5080  146.2460 C   0  0  0  0  0  3  0  0  0  0  0  0
  193.0990  174.5920  144.8510 C   0  0  0  0  0  3  0  0  0  0  0  0
  193.2920  176.0740  146.5300 C   0  0  0  0  0  3  0  0  0  0  0  0
  192.4080  175.4860  145.6390 C   0  0  0  0  0  0  0  0  0  0  0  0
  195.4500  173.8120  144.6850 C   0  0  0  0  0  2  0  0  0  0  0  0
  196.5510  174.6590  144.2610 N   0  0  0  0  0  2  0  0  0  0  0  0
  196.3320  174.9540  142.8560 C   0  0  0  0  0  2  0  0  0  0  0  0
  196.8030  177.1770  143.5640 O   0  0  0  0  0  1  0  0  0  0  0  0
  196.4180  176.4220  142.6350 C   0  0  0  0  0  0  0  0  0  0  0  0
  196.1140  176.9560  141.3900 O   0  0  0  0  0  0  0  0  0  0  0  0
  1  5  1  0  0  0  0
  2 26  1  1  0  0  0
  2  6  1  0  0  0  0
  3  6  1  0  0  0  0
  4  2  1  0  0  0  0
  4  1  1  0  0  0  0
  5  3  1  0  0  0  0
  7 18  1  0  0  0  0
  8  7  1  0  0  0  0
 10  7  2  0  0  0  0
 10 15  1  0  0  0  0
 12 17  1  0  0  0  0
 12 19  1  0  0  0  0
 13 17  1  0  0  0  0
 14 12  2  0  0  0  0
 15 20  2  0  0  0  0
 16 21  2  0  0  0  0
 16 14  1  0  0  0  0
 17  8  2  0  0  0  0
 18  5  1  0  0  0  0
 18 11  2  0  0  0  0
 19 10  1  0  0  0  0
 20 11  1  0  0  0  0
 20  9  1  0  0  0  0
 21 13  1  0  0  0  0
 22 23  1  0  0  0  0
 23 25  2  0  0  0  0
 24 22  1  0  0  0  0
 24 26  2  0  0  0  0
 26 25  1  0  0  0  0
 27 22  1  0  0  0  0
 28 27  1  0  0  0  0
 29 28  1  0  0  0  0
 31 29  1  0  0  0  0
 31 30  1  0  0  0  0
 32 31  2  0  0  0  0
M  END
>  <MODEL>
2

>  <REMARK>
 VINA RESULT:      -8.1      0.821      1.386
  Name = 
  6 active torsions:
  status: ('A' for Active; 'I' for Inactive)
    1  A    between atoms: N_8  and  C_9
    2  A    between atoms: N_8  and  C_14
    3  A    between atoms: C_9  and  C_28
    4  A    between atoms: N_10  and  C_14
    5  A    between atoms: C_17  and  C_31
    6  A    between atoms: C_20  and  N_24
                            x       y       z     vdW  Elec       q    Type
                         _______ _______ _______ _____ _____    ______ ____

>  <TORSDO>
F 6

$$$$
=
 OpenBabel11042419323D

 32 36  0  0  1  0  0  0  0  0999 V2000
  189.5050  177.6550  145.8370 C   0  0  0  0  0  2  0  0  0  0  0  0
  190.7400  175.4190  145.6210 C   0  0  2  0  0  3  0  0  0  0  0  0
  188.5240  175.5130  146.7710 C   0  0  0  0  0  2  0  0  0  0  0  0
  190.5720  176.8520  145.0890 C   0  0  0  0  0  2  0  0  0  0  0  0
  188.3380  176.8210  146.1280 N   0  0  0  0  0  0  0  0  0  0  0  0
  190.0030  175.1720  146.9370 C   0  0  0  0  0  2  0  0  0  0  0  0
  186.4360  177.5460  144.6890 C   0  0  0  0  0  0  0  0  0  0  0  0
  187.1500  177.1810  143.4930 N   0  0  0  0  0  0  0  0  0  0  0  0
  184.2470  178.4920  148.0990 F   0  0  0  0  0  0  0  0  0  0  0  0
  185.1320  178.0750  144.5800 C   0  0  0  0  0  0  0  0  0  0  0  0
  186.2490  177.6670  147.1050 C   0  0  0  0  0  3  0  0  0  0  0  0
  185.3040  177.9070  142.1260 C   0  0  0  0  0  0  0  0  0  0  0  0
  187.4620  176.9350  141.0990 C   0  0  0  0  0  2  0  0  0  0  0  0
  184.8020  178.0760  140.9420 N   0  0  0  0  0  0  0  0  0  0  0  0
  184.4020  178.3940  145.7250 C   0  0  0  0  0  3  0  0  0  0  0  0
  185.5200  177.7270  139.7490 C   0  0  0  0  0  3  0  0  0  0  0  0
  186.6570  177.3380  142.2990 C   0  0  0  0  0  0  0  0  0  0  0  0
  187.0080  177.3480  145.9660 C   0  0  0  0  0  0  0  0  0  0  0  0
  184.5540  178.2690  143.2870 N   0  0  0  0  0  2  0  0  0  0  0  0
  184.9590  178.1870  146.9870 C   0  0  0  0  0  0  0  0  0  0  0  0
  186.7480  177.2010  139.8010 C   0  0  0  0  0  3  0  0  0  0  0  0
  194.0520  173.9230  145.6520 N   0  0  0  0  0  0  0  0  0  0  0  0
  194.3440  175.1290  146.1730 C   0  0  0  0  0  3  0  0  0  0  0  0
  192.7370  173.8580  145.3910 C   0  0  0  0  0  3  0  0  0  0  0  0
  193.1880  175.8870  146.2470 C   0  0  0  0  0  3  0  0  0  0  0  0
  192.1860  175.0690  145.7470 C   0  0  0  0  0  0  0  0  0  0  0  0
  195.0010  172.8410  145.4590 C   0  0  0  0  0  2  0  0  0  0  0  0
  194.3320  171.5650  145.6470 N   0  0  0  0  0  2  0  0  0  0  0  0
  195.3660  170.5960  145.9630 C   0  0  0  0  0  2  0  0  0  0  0  0
  194.2350  168.5760  145.4120 O   0  0  0  0  0  0  0  0  0  0  0  0
  194.7390  169.2940  146.3140 C   0  0  0  0  0  0  0  0  0  0  0  0
  194.7470  168.8500  147.6290 O   0  0  0  0  0  1  0  0  0  0  0  0
  1  5  1  0  0  0  0
  2 26  1  1  0  0  0
  2  6  1  0  0  0  0
  3  6  1  0  0  0  0
  4  2  1  0  0  0  0
  4  1  1  0  0  0  0
  5  3  1  0  0  0  0
  7 18  1  0  0  0  0
  8  7  1  0  0  0  0
 10  7  2  0  0  0  0
 10 15  1  0  0  0  0
 12 17  1  0  0  0  0
 12 19  1  0  0  0  0
 13 17  1  0  0  0  0
 14 12  2  0  0  0  0
 15 20  2  0  0  0  0
 16 21  2  0  0  0  0
 16 14  1  0  0  0  0
 17  8  2  0  0  0  0
 18  5  1  0  0  0  0
 18 11  2  0  0  0  0
 19 10  1  0  0  0  0
 20 11  1  0  0  0  0
 20  9  1  0  0  0  0
 21 13  1  0  0  0  0
 22 23  1  0  0  0  0
 23 25  2  0  0  0  0
 24 22  1  0  0  0  0
 24 26  2  0  0  0  0
 26 25  1  0  0  0  0
 27 28  1  0  0  0  0
 27 22  1  0  0  0  0
 28 29  1  0  0  0  0
 29 31  1  0  0  0  0
 30 31  2  0  0  0  0
 31 32  1  0  0  0  0
M  END
>  <MODEL>
3

>  <REMARK>
 VINA RESULT:      -7.8      2.867      3.417
  Name = 
  6 active torsions:
  status: ('A' for Active; 'I' for Inactive)
    1  A    between atoms: N_8  and  C_9
    2  A    between atoms: N_8  and  C_14
    3  A    between atoms: C_9  and  C_28
    4  A    between atoms: N_10  and  C_14
    5  A    between atoms: C_17  and  C_31
    6  A    between atoms: C_20  and  N_24
                            x       y       z     vdW  Elec       q    Type
                         _______ _______ _______ _____ _____    ______ ____

>  <TORSDO>
F 6

$$$$
=
 OpenBabel11042419323D

 32 36  0  0  1  0  0  0  0  0999 V2000
  189.7490  175.4730  143.0240 C   0  0  0  0  0  2  0  0  0  0  0  0
  191.6190  176.4710  144.4670 C   0  0  2  0  0  3  0  0  0  0  0  0
  190.4550  177.8950  142.7760 C   0  0  0  0  0  2  0  0  0  0  0  0
  190.5730  175.3550  144.3080 C   0  0  0  0  0  2  0  0  0  0  0  0
  189.4020  176.8710  142.7580 N   0  0  0  0  0  0  0  0  0  0  0  0
  191.8000  177.3130  143.2040 C   0  0  0  0  0  2  0  0  0  0  0  0
  187.0480  177.5680  143.1920 C   0  0  0  0  0  0  0  0  0  0  0  0
  187.2880  177.6370  144.6110 N   0  0  0  0  0  0  0  0  0  0  0  0
  186.3080  177.5340  139.0980 F   0  0  0  0  0  0  0  0  0  0  0  0
  185.7690  177.8910  142.6920 C   0  0  0  0  0  0  0  0  0  0  0  0
  187.8150  177.2190  140.9160 C   0  0  0  0  0  3  0  0  0  0  0  0
  185.0030  178.2910  145.0010 C   0  0  0  0  0  0  0  0  0  0  0  0
  186.6930  178.0130  146.9320 C   0  0  0  0  0  2  0  0  0  0  0  0
  184.0720  178.6120  145.8460 N   0  0  0  0  0  0  0  0  0  0  0  0
  185.5230  177.8760  141.3190 C   0  0  0  0  0  3  0  0  0  0  0  0
  184.3070  178.6660  147.2610 C   0  0  0  0  0  3  0  0  0  0  0  0
  186.3670  177.9640  145.4680 C   0  0  0  0  0  0  0  0  0  0  0  0
  188.0830  177.2180  142.2960 C   0  0  0  0  0  0  0  0  0  0  0  0
  184.7250  178.2510  143.6010 N   0  0  0  0  0  2  0  0  0  0  0  0
  186.5460  177.5430  140.4320 C   0  0  0  0  0  0  0  0  0  0  0  0
  185.5080  178.3920  147.7810 C   0  0  0  0  0  3  0  0  0  0  0  0
  194.8280  174.8240  144.9080 N   0  0  0  0  0  0  0  0  0  0  0  0
  194.6810  175.3640  146.1320 C   0  0  0  0  0  3  0  0  0  0  0  0
  193.7620  175.1350  144.1540 C   0  0  0  0  0  3  0  0  0  0  0  0
  193.4890  176.0640  146.1820 C   0  0  0  0  0  3  0  0  0  0  0  0
  192.9240  175.9100  144.9250 C   0  0  0  0  0  0  0  0  0  0  0  0
  195.9350  173.9840  144.4900 C   0  0  0  0  0  2  0  0  0  0  0  0
  197.1400  174.7860  144.3680 N   0  0  0  0  0  2  0  0  0  0  0  0
  197.3170  175.0620  142.9540 C   0  0  0  0  0  2  0  0  0  0  0  0
  197.1500  177.3700  143.5130 O   0  0  0  0  0  1  0  0  0  0  0  0
  196.9230  176.4670  142.6670 C   0  0  0  0  0  0  0  0  0  0  0  0
  196.3430  176.7910  141.4480 O   0  0  0  0  0  0  0  0  0  0  0  0
  1  4  1  0  0  0  0
  2 26  1  6  0  0  0
  3  6  1  0  0  0  0
  4  2  1  0  0  0  0
  5  3  1  0  0  0  0
  5  1  1  0  0  0  0
  6  2  1  0  0  0  0
  7  8  1  0  0  0  0
  8 17  2  0  0  0  0
  9 20  1  0  0  0  0
 10  7  1  0  0  0  0
 10 19  1  0  0  0  0
 11 18  1  0  0  0  0
 12 17  1  0  0  0  0
 12 14  2  0  0  0  0
 13 21  1  0  0  0  0
 14 16  1  0  0  0  0
 15 10  2  0  0  0  0
 16 21  2  0  0  0  0
 17 13  1  0  0  0  0
 18  5  1  0  0  0  0
 18  7  2  0  0  0  0
 19 12  1  0  0  0  0
 20 11  2  0  0  0  0
 20 15  1  0  0  0  0
 22 23  1  0  0  0  0
 23 25  2  0  0  0  0
 24 22  1  0  0  0  0
 24 26  2  0  0  0  0
 26 25  1  0  0  0  0
 27 22  1  0  0  0  0
 28 27  1  0  0  0  0
 29 28  1  0  0  0  0
 31 29  1  0  0  0  0
 31 30  1  0  0  0  0
 32 31  2  0  0  0  0
M  END
>  <MODEL>
4

>  <REMARK>
 VINA RESULT:      -7.7      2.096      3.760
  Name = 
  6 active torsions:
  status: ('A' for Active; 'I' for Inactive)
    1  A    between atoms: N_8  and  C_9
    2  A    between atoms: N_8  and  C_14
    3  A    between atoms: C_9  and  C_28
    4  A    between atoms: N_10  and  C_14
    5  A    between atoms: C_17  and  C_31
    6  A    between atoms: C_20  and  N_24
                            x       y       z     vdW  Elec       q    Type
                         _______ _______ _______ _____ _____    ______ ____

>  <TORSDO>
F 6

$$$$
=
 OpenBabel11042419323D

 32 36  0  0  1  0  0  0  0  0999 V2000
  190.0660  175.7010  143.0170 C   0  0  0  0  0  2  0  0  0  0  0  0
  191.8230  176.7470  144.5640 C   0  0  2  0  0  3  0  0  0  0  0  0
  190.4960  178.1990  143.0220 C   0  0  0  0  0  2  0  0  0  0  0  0
  190.9070  175.5440  144.2870 C   0  0  0  0  0  2  0  0  0  0  0  0
  189.5630  177.0710  142.8950 N   0  0  0  0  0  0  0  0  0  0  0  0
  191.9010  177.7300  143.3950 C   0  0  0  0  0  2  0  0  0  0  0  0
  187.1700  177.5630  143.3870 C   0  0  0  0  0  0  0  0  0  0  0  0
  187.4330  177.6280  144.8020 N   0  0  0  0  0  0  0  0  0  0  0  0
  186.3500  177.5340  139.3080 F   0  0  0  0  0  0  0  0  0  0  0  0
  185.8580  177.7860  142.9180 C   0  0  0  0  0  0  0  0  0  0  0  0
  187.9150  177.3160  141.0910 C   0  0  0  0  0  3  0  0  0  0  0  0
  185.1100  178.0840  145.2490 C   0  0  0  0  0  0  0  0  0  0  0  0
  186.8570  177.9160  147.1410 C   0  0  0  0  0  2  0  0  0  0  0  0
  184.1740  178.3130  146.1170 N   0  0  0  0  0  0  0  0  0  0  0  0
  185.5850  177.7730  141.5500 C   0  0  0  0  0  3  0  0  0  0  0  0
  184.4330  178.3630  147.5280 C   0  0  0  0  0  3  0  0  0  0  0  0
  186.5050  177.8640  145.6830 C   0  0  0  0  0  0  0  0  0  0  0  0
  188.2110  177.3150  142.4650 C   0  0  0  0  0  0  0  0  0  0  0  0
  184.8070  178.0430  143.8530 N   0  0  0  0  0  2  0  0  0  0  0  0
  186.6140  177.5410  140.6370 C   0  0  0  0  0  0  0  0  0  0  0  0
  185.6630  178.1810  148.0190 C   0  0  0  0  0  3  0  0  0  0  0  0
  195.2700  175.6280  144.8270 N   0  0  0  0  0  0  0  0  0  0  0  0
  194.9410  175.6560  146.1320 C   0  0  0  0  0  3  0  0  0  0  0  0
  194.2110  176.0030  144.0930 C   0  0  0  0  0  3  0  0  0  0  0  0
  193.6290  176.0760  146.2640 C   0  0  0  0  0  3  0  0  0  0  0  0
  193.1860  176.2920  144.9670 C   0  0  0  0  0  0  0  0  0  0  0  0
  196.5500  175.1980  144.2950 C   0  0  0  0  0  2  0  0  0  0  0  0
  197.1140  174.1650  145.1460 N   0  0  0  0  0  2  0  0  0  0  0  0
  196.8020  172.8930  144.5200 C   0  0  0  0  0  2  0  0  0  0  0  0
  196.8170  171.1460  146.1370 O   0  0  0  0  0  1  0  0  0  0  0  0
  196.1400  171.9990  145.5070 C   0  0  0  0  0  0  0  0  0  0  0  0
  194.7820  172.1320  145.7630 O   0  0  0  0  0  0  0  0  0  0  0  0
  1  4  1  0  0  0  0
  2 26  1  6  0  0  0
  3  6  1  0  0  0  0
  4  2  1  0  0  0  0
  5  1  1  0  0  0  0
  5  3  1  0  0  0  0
  6  2  1  0  0  0  0
  7  8  1  0  0  0  0
  8 17  2  0  0  0  0
  9 20  1  0  0  0  0
 10  7  1  0  0  0  0
 10 19  1  0  0  0  0
 11 18  1  0  0  0  0
 12 17  1  0  0  0  0
 12 14  2  0  0  0  0
 13 21  1  0  0  0  0
 14 16  1  0  0  0  0
 15 10  2  0  0  0  0
 16 21  2  0  0  0  0
 17 13  1  0  0  0  0
 18  5  1  0  0  0  0
 18  7  2  0  0  0  0
 19 12  1  0  0  0  0
 20 11  2  0  0  0  0
 20 15  1  0  0  0  0
 22 23  1  0  0  0  0
 23 25  2  0  0  0  0
 24 22  1  0  0  0  0
 24 26  2  0  0  0  0
 26 25  1  0  0  0  0
 27 22  1  0  0  0  0
 27 28  1  0  0  0  0
 29 28  1  0  0  0  0
 29 31  1  0  0  0  0
 31 32  2  0  0  0  0
 31 30  1  0  0  0  0
M  END
>  <MODEL>
5

>  <REMARK>
 VINA RESULT:      -7.6      2.702      4.271
  Name = 
  6 active torsions:
  status: ('A' for Active; 'I' for Inactive)
    1  A    between atoms: N_8  and  C_9
    2  A    between atoms: N_8  and  C_14
    3  A    between atoms: C_9  and  C_28
    4  A    between atoms: N_10  and  C_14
    5  A    between atoms: C_17  and  C_31
    6  A    between atoms: C_20  and  N_24
                            x       y       z     vdW  Elec       q    Type
                         _______ _______ _______ _____ _____    ______ ____

>  <TORSDO>
F 6

$$$$
=
 OpenBabel11042419323D

 32 36  0  0  1  0  0  0  0  0999 V2000
  189.9520  176.3170  144.8290 C   0  0  0  0  0  2  0  0  0  0  0  0
  188.4440  177.1060  146.7460 C   0  0  2  0  0  3  0  0  0  0  0  0
  189.7550  174.9910  146.9800 C   0  0  0  0  0  2  0  0  0  0  0  0
  189.2180  177.4940  145.4760 C   0  0  0  0  0  2  0  0  0  0  0  0
  190.5650  175.4650  145.8500 N   0  0  0  0  0  0  0  0  0  0  0  0
  188.3520  175.5950  146.9600 C   0  0  0  0  0  2  0  0  0  0  0  0
  192.1290  173.8130  144.8310 C   0  0  0  0  0  0  0  0  0  0  0  0
  191.0550  173.1810  144.1110 N   0  0  0  0  0  0  0  0  0  0  0  0
  195.3120  175.6690  146.7650 F   0  0  0  0  0  0  0  0  0  0  0  0
  193.4440  173.3230  144.6800 C   0  0  0  0  0  0  0  0  0  0  0  0
  192.9790  175.5520  146.2950 C   0  0  0  0  0  3  0  0  0  0  0  0
  192.5860  171.5860  143.1560 C   0  0  0  0  0  0  0  0  0  0  0  0
  190.0630  171.5470  142.6160 C   0  0  0  0  0  2  0  0  0  0  0  0
  192.7790  170.5560  142.3900 N   0  0  0  0  0  0  0  0  0  0  0  0
  194.5090  173.9460  145.3320 C   0  0  0  0  0  3  0  0  0  0  0  0
  191.7050  169.9170  141.6830 C   0  0  0  0  0  3  0  0  0  0  0  0
  191.2330  172.1530  143.3340 C   0  0  0  0  0  0  0  0  0  0  0  0
  191.8900  174.9360  145.6570 C   0  0  0  0  0  0  0  0  0  0  0  0
  193.6840  172.1920  143.8400 N   0  0  0  0  0  2  0  0  0  0  0  0
  194.2770  175.0610  146.1370 C   0  0  0  0  0  0  0  0  0  0  0  0
  190.4460  170.3580  141.7760 C   0  0  0  0  0  3  0  0  0  0  0  0
  185.1420  178.4500  146.0420 N   0  0  0  0  0  0  0  0  0  0  0  0
  185.2290  178.7390  147.3530 C   0  0  0  0  0  3  0  0  0  0  0  0
  186.2700  177.8400  145.6460 C   0  0  0  0  0  3  0  0  0  0  0  0
  186.4450  178.2930  147.8400 C   0  0  0  0  0  3  0  0  0  0  0  0
  187.0860  177.7270  146.7490 C   0  0  0  0  0  0  0  0  0  0  0  0
  184.0290  178.8010  145.1780 C   0  0  0  0  0  2  0  0  0  0  0  0
  184.5320  179.2580  143.8940 N   0  0  0  0  0  2  0  0  0  0  0  0
  184.0670  178.3060  142.9010 C   0  0  0  0  0  2  0  0  0  0  0  0
  185.8240  176.8150  142.3040 O   0  0  0  0  0  1  0  0  0  0  0  0
  185.2060  177.8800  142.0450 C   0  0  0  0  0  0  0  0  0  0  0  0
  185.5630  178.6360  140.9370 O   0  0  0  0  0  0  0  0  0  0  0  0
  1  4  1  0  0  0  0
  1  5  1  0  0  0  0
  2 26  1  6  0  0  0
  2  6  1  0  0  0  0
  4  2  1  0  0  0  0
  5  3  1  0  0  0  0
  6  3  1  0  0  0  0
  7 18  1  0  0  0  0
  8  7  1  0  0  0  0
 10  7  2  0  0  0  0
 10 15  1  0  0  0  0
 12 17  1  0  0  0  0
 12 19  1  0  0  0  0
 13 17  1  0  0  0  0
 14 12  2  0  0  0  0
 15 20  2  0  0  0  0
 16 21  2  0  0  0  0
 16 14  1  0  0  0  0
 17  8  2  0  0  0  0
 18  5  1  0  0  0  0
 18 11  2  0  0  0  0
 19 10  1  0  0  0  0
 20 11  1  0  0  0  0
 20  9  1  0  0  0  0
 21 13  1  0  0  0  0
 22 23  1  0  0  0  0
 23 25  2  0  0  0  0
 24 22  1  0  0  0  0
 24 26  2  0  0  0  0
 26 25  1  0  0  0  0
 27 22  1  0  0  0  0
 28 27  1  0  0  0  0
 29 28  1  0  0  0  0
 31 30  1  0  0  0  0
 31 29  1  0  0  0  0
 32 31  2  0  0  0  0
M  END
>  <MODEL>
6

>  <REMARK>
 VINA RESULT:      -7.5      4.073      8.842
  Name = 
  6 active torsions:
  status: ('A' for Active; 'I' for Inactive)
    1  A    between atoms: N_8  and  C_9
    2  A    between atoms: N_8  and  C_14
    3  A    between atoms: C_9  and  C_28
    4  A    between atoms: N_10  and  C_14
    5  A    between atoms: C_17  and  C_31
    6  A    between atoms: C_20  and  N_24
                            x       y       z     vdW  Elec       q    Type
                         _______ _______ _______ _____ _____    ______ ____

>  <TORSDO>
F 6

$$$$
=
 OpenBabel11042419323D

 32 36  0  0  1  0  0  0  0  0999 V2000
  190.0900  177.9200  144.7640 C   0  0  0  0  0  2  0  0  0  0  0  0
  191.8070  176.0270  144.9610 C   0  0  2  0  0  3  0  0  0  0  0  0
  190.0940  176.3480  146.7520 C   0  0  0  0  0  2  0  0  0  0  0  0
  191.0810  177.0120  144.0310 C   0  0  0  0  0  2  0  0  0  0  0  0
  189.3550  177.1690  145.7830 N   0  0  0  0  0  0  0  0  0  0  0  0
  191.5900  176.3240  146.4450 C   0  0  0  0  0  2  0  0  0  0  0  0
  187.0680  177.5420  144.8660 C   0  0  0  0  0  0  0  0  0  0  0  0
  187.5540  177.4610  143.5130 N   0  0  0  0  0  0  0  0  0  0  0  0
  185.5560  177.6500  148.7400 F   0  0  0  0  0  0  0  0  0  0  0  0
  185.6910  177.7550  145.0930 C   0  0  0  0  0  0  0  0  0  0  0  0
  187.4110  177.4100  147.2640 C   0  0  0  0  0  3  0  0  0  0  0  0
  185.3360  177.8430  142.6540 C   0  0  0  0  0  0  0  0  0  0  0  0
  187.3630  177.4990  141.0940 C   0  0  0  0  0  2  0  0  0  0  0  0
  184.5550  177.9870  141.6280 N   0  0  0  0  0  0  0  0  0  0  0  0
  185.1880  177.7940  146.3930 C   0  0  0  0  0  3  0  0  0  0  0  0
  185.0430  177.9210  140.2800 C   0  0  0  0  0  3  0  0  0  0  0  0
  186.7820  177.5970  142.4740 C   0  0  0  0  0  0  0  0  0  0  0  0
  187.9420  177.3780  145.9640 C   0  0  0  0  0  0  0  0  0  0  0  0
  184.8080  177.9160  143.9800 N   0  0  0  0  0  2  0  0  0  0  0  0
  186.0460  177.6190  147.4780 C   0  0  0  0  0  0  0  0  0  0  0  0
  186.3340  177.6980  140.0130 C   0  0  0  0  0  3  0  0  0  0  0  0
  195.1600  175.3360  143.7420 N   0  0  0  0  0  0  0  0  0  0  0  0
  195.4290  176.3570  144.5770 C   0  0  0  0  0  3  0  0  0  0  0  0
  193.8440  175.0740  143.7690 C   0  0  0  0  0  3  0  0  0  0  0  0
  194.2520  176.7910  145.1610 C   0  0  0  0  0  3  0  0  0  0  0  0
  193.2640  175.9720  144.6380 C   0  0  0  0  0  0  0  0  0  0  0  0
  196.1480  174.5940  142.9800 C   0  0  0  0  0  2  0  0  0  0  0  0
  197.3280  174.3680  143.7970 N   0  0  0  0  0  2  0  0  0  0  0  0
  197.3250  172.9600  144.1530 C   0  0  0  0  0  2  0  0  0  0  0  0
  196.2490  171.7640  145.9080 O   0  0  0  0  0  0  0  0  0  0  0  0
  196.8700  172.8010  145.5610 C   0  0  0  0  0  0  0  0  0  0  0  0
  197.1670  173.7790  146.5010 O   0  0  0  0  0  1  0  0  0  0  0  0
  1  5  1  0  0  0  0
  2 26  1  6  0  0  0
  2  6  1  0  0  0  0
  4  1  1  0  0  0  0
  4  2  1  0  0  0  0
  5 18  1  0  0  0  0
  5  3  1  0  0  0  0
  6  3  1  0  0  0  0
  7 10  2  0  0  0  0
  7 18  1  0  0  0  0
  8  7  1  0  0  0  0
 10 15  1  0  0  0  0
 11 20  1  0  0  0  0
 12 19  1  0  0  0  0
 13 17  1  0  0  0  0
 14 12  2  0  0  0  0
 15 20  2  0  0  0  0
 16 14  1  0  0  0  0
 17 12  1  0  0  0  0
 17  8  2  0  0  0  0
 18 11  2  0  0  0  0
 19 10  1  0  0  0  0
 20  9  1  0  0  0  0
 21 16  2  0  0  0  0
 21 13  1  0  0  0  0
 22 24  1  0  0  0  0
 22 23  1  0  0  0  0
 23 25  2  0  0  0  0
 24 26  2  0  0  0  0
 26 25  1  0  0  0  0
 27 22  1  0  0  0  0
 27 28  1  0  0  0  0
 28 29  1  0  0  0  0
 29 31  1  0  0  0  0
 31 30  2  0  0  0  0
 31 32  1  0  0  0  0
M  END
>  <MODEL>
7

>  <REMARK>
 VINA RESULT:      -7.3      1.624      2.103
  Name = 
  6 active torsions:
  status: ('A' for Active; 'I' for Inactive)
    1  A    between atoms: N_8  and  C_9
    2  A    between atoms: N_8  and  C_14
    3  A    between atoms: C_9  and  C_28
    4  A    between atoms: N_10  and  C_14
    5  A    between atoms: C_17  and  C_31
    6  A    between atoms: C_20  and  N_24
                            x       y       z     vdW  Elec       q    Type
                         _______ _______ _______ _____ _____    ______ ____

>  <TORSDO>
F 6

$$$$
=
 OpenBabel11042419323D

 32 36  0  0  1  0  0  0  0  0999 V2000
  192.3230  175.1490  144.1110 C   0  0  0  0  0  2  0  0  0  0  0  0
  190.8850  176.6370  145.6240 C   0  0  2  0  0  3  0  0  0  0  0  0
  193.0680  175.7510  146.4580 C   0  0  0  0  0  2  0  0  0  0  0  0
  191.2050  176.1920  144.1880 C   0  0  0  0  0  2  0  0  0  0  0  0
  193.3970  175.4710  145.0540 N   0  0  0  0  0  0  0  0  0  0  0  0
  191.5580  175.7720  146.6900 C   0  0  0  0  0  2  0  0  0  0  0  0
  195.4770  174.1140  144.8460 C   0  0  0  0  0  0  0  0  0  0  0  0
  194.8220  172.9530  145.3900 N   0  0  0  0  0  0  0  0  0  0  0  0
  197.4070  177.3790  143.1350 F   0  0  0  0  0  0  0  0  0  0  0  0
  196.8310  174.0240  144.4580 C   0  0  0  0  0  0  0  0  0  0  0  0
  195.4430  176.4160  144.0780 C   0  0  0  0  0  3  0  0  0  0  0  0
  196.8520  171.6710  145.1950 C   0  0  0  0  0  0  0  0  0  0  0  0
  194.6780  170.6490  146.1380 C   0  0  0  0  0  2  0  0  0  0  0  0
  197.4720  170.5450  145.3700 N   0  0  0  0  0  0  0  0  0  0  0  0
  197.4770  175.1210  143.8870 C   0  0  0  0  0  3  0  0  0  0  0  0
  196.8220  169.3920  145.9270 C   0  0  0  0  0  3  0  0  0  0  0  0
  195.4280  171.8150  145.5650 C   0  0  0  0  0  0  0  0  0  0  0  0
  194.7750  175.3270  144.6640 C   0  0  0  0  0  0  0  0  0  0  0  0
  197.5370  172.7940  144.6380 N   0  0  0  0  0  2  0  0  0  0  0  0
  196.7820  176.3150  143.6940 C   0  0  0  0  0  0  0  0  0  0  0  0
  195.5350  169.4210  146.2880 C   0  0  0  0  0  3  0  0  0  0  0  0
  187.4690  177.1900  146.7340 N   0  0  0  0  0  0  0  0  0  0  0  0
  187.2350  176.4160  145.6590 C   0  0  0  0  0  3  0  0  0  0  0  0
  188.7920  177.3680  146.8740 C   0  0  0  0  0  3  0  0  0  0  0  0
  188.4390  176.0850  145.0620 C   0  0  0  0  0  3  0  0  0  0  0  0
  189.4090  176.6970  145.8420 C   0  0  0  0  0  0  0  0  0  0  0  0
  186.4530  177.6990  147.6380 C   0  0  0  0  0  2  0  0  0  0  0  0
  185.9400  178.9620  147.1350 N   0  0  0  0  0  2  0  0  0  0  0  0
  184.6710  178.6690  146.4920 C   0  0  0  0  0  2  0  0  0  0  0  0
  183.6920  179.0410  144.3550 O   0  0  0  0  0  0  0  0  0  0  0  0
  184.7320  179.0720  145.0620 C   0  0  0  0  0  0  0  0  0  0  0  0
  185.9260  179.5210  144.5170 O   0  0  0  0  0  1  0  0  0  0  0  0
  1  4  1  0  0  0  0
  1  5  1  0  0  0  0
  2 26  1  1  0  0  0
  2  6  1  0  0  0  0
  3  6  1  0  0  0  0
  4  2  1  0  0  0  0
  5  3  1  0  0  0  0
  7  8  1  0  0  0  0
  8 17  2  0  0  0  0
  9 20  1  0  0  0  0
 10 19  1  0  0  0  0
 10  7  2  0  0  0  0
 11 18  2  0  0  0  0
 12 14  2  0  0  0  0
 12 17  1  0  0  0  0
 13 21  1  0  0  0  0
 14 16  1  0  0  0  0
 15 10  1  0  0  0  0
 16 21  2  0  0  0  0
 17 13  1  0  0  0  0
 18  7  1  0  0  0  0
 18  5  1  0  0  0  0
 19 12  1  0  0  0  0
 20 15  2  0  0  0  0
 20 11  1  0  0  0  0
 22 24  1  0  0  0  0
 22 27  1  0  0  0  0
 23 22  1  0  0  0  0
 25 23  2  0  0  0  0
 25 26  1  0  0  0  0
 26 24  2  0  0  0  0
 28 27  1  0  0  0  0
 29 28  1  0  0  0  0
 30 31  2  0  0  0  0
 31 29  1  0  0  0  0
 32 31  1  0  0  0  0
M  END
>  <MODEL>
8

>  <REMARK>
 VINA RESULT:      -7.2      4.393     10.380
  Name = 
  6 active torsions:
  status: ('A' for Active; 'I' for Inactive)
    1  A    between atoms: N_8  and  C_9
    2  A    between atoms: N_8  and  C_14
    3  A    between atoms: C_9  and  C_28
    4  A    between atoms: N_10  and  C_14
    5  A    between atoms: C_17  and  C_31
    6  A    between atoms: C_20  and  N_24
                            x       y       z     vdW  Elec       q    Type
                         _______ _______ _______ _____ _____    ______ ____

>  <TORSDO>
F 6

$$$$
=
 OpenBabel11042419323D

 32 36  0  0  1  0  0  0  0  0999 V2000
  188.5790  176.6920  144.7420 C   0  0  0  0  0  2  0  0  0  0  0  0
  187.6360  176.8460  142.3630 C   0  0  2  0  0  3  0  0  0  0  0  0
  190.0730  177.2250  142.7650 C   0  0  0  0  0  2  0  0  0  0  0  0
  187.4410  176.3130  143.7920 C   0  0  0  0  0  2  0  0  0  0  0  0
  189.8740  176.5780  144.0690 N   0  0  0  0  0  0  0  0  0  0  0  0
  188.7810  177.8510  142.2440 C   0  0  0  0  0  2  0  0  0  0  0  0
  191.4310  174.6820  144.5110 C   0  0  0  0  0  0  0  0  0  0  0  0
  190.7770  173.8620  143.5250 N   0  0  0  0  0  0  0  0  0  0  0  0
  193.4680  177.0300  147.2760 F   0  0  0  0  0  0  0  0  0  0  0  0
  192.5370  174.1620  145.2170 C   0  0  0  0  0  0  0  0  0  0  0  0
  191.7100  176.7860  145.6880 C   0  0  0  0  0  3  0  0  0  0  0  0
  192.2830  172.0410  143.9860 C   0  0  0  0  0  0  0  0  0  0  0  0
  190.4110  171.8500  142.2200 C   0  0  0  0  0  2  0  0  0  0  0  0
  192.6560  170.8230  143.7400 N   0  0  0  0  0  0  0  0  0  0  0  0
  193.2170  174.9510  146.1450 C   0  0  0  0  0  3  0  0  0  0  0  0
  191.9940  170.0010  142.7670 C   0  0  0  0  0  3  0  0  0  0  0  0
  191.1440  172.6420  143.2620 C   0  0  0  0  0  0  0  0  0  0  0  0
  191.0040  176.0070  144.7560 C   0  0  0  0  0  0  0  0  0  0  0  0
  192.9710  172.8240  144.9630 N   0  0  0  0  0  2  0  0  0  0  0  0
  192.8050  176.2630  146.3790 C   0  0  0  0  0  0  0  0  0  0  0  0
  190.9570  170.4560  142.0570 C   0  0  0  0  0  3  0  0  0  0  0  0
  184.2820  178.1010  141.7470 N   0  0  0  0  0  0  0  0  0  0  0  0
  184.8330  178.3270  140.5400 C   0  0  0  0  0  3  0  0  0  0  0  0
  185.1950  177.5390  142.5550 C   0  0  0  0  0  3  0  0  0  0  0  0
  186.1540  177.9150  140.5570 C   0  0  0  0  0  3  0  0  0  0  0  0
  186.3640  177.4230  141.8360 C   0  0  0  0  0  0  0  0  0  0  0  0
  182.8980  178.3650  142.0990 C   0  0  0  0  0  2  0  0  0  0  0  0
  182.0460  178.1330  140.9460 N   0  0  0  0  0  2  0  0  0  0  0  0
  180.6770  178.2880  141.4020 C   0  0  0  0  0  2  0  0  0  0  0  0
  179.0090  178.8270  139.7910 O   0  0  0  0  0  0  0  0  0  0  0  0
  179.9570  179.2360  140.5090 C   0  0  0  0  0  0  0  0  0  0  0  0
  180.3050  180.5790  140.4990 O   0  0  0  0  0  1  0  0  0  0  0  0
  2 26  1  1  0  0  0
  2  4  1  0  0  0  0
  3  5  1  0  0  0  0
  4  1  1  0  0  0  0
  5  1  1  0  0  0  0
  5 18  1  0  0  0  0
  6  2  1  0  0  0  0
  6  3  1  0  0  0  0
  7 18  2  0  0  0  0
  7 10  1  0  0  0  0
  8  7  1  0  0  0  0
 10 15  2  0  0  0  0
 11 20  2  0  0  0  0
 12 19  1  0  0  0  0
 13 17  1  0  0  0  0
 14 12  2  0  0  0  0
 15 20  1  0  0  0  0
 16 14  1  0  0  0  0
 17  8  2  0  0  0  0
 17 12  1  0  0  0  0
 18 11  1  0  0  0  0
 19 10  1  0  0  0  0
 20  9  1  0  0  0  0
 21 13  1  0  0  0  0
 21 16  2  0  0  0  0
 22 27  1  0  0  0  0
 22 24  1  0  0  0  0
 23 25  2  0  0  0  0
 23 22  1  0  0  0  0
 25 26  1  0  0  0  0
 26 24  2  0  0  0  0
 28 29  1  0  0  0  0
 28 27  1  0  0  0  0
 30 31  2  0  0  0  0
 31 29  1  0  0  0  0
 32 31  1  0  0  0  0
M  END
>  <MODEL>
9

>  <REMARK>
 VINA RESULT:      -7.1      5.148      9.919
  Name = 
  6 active torsions:
  status: ('A' for Active; 'I' for Inactive)
    1  A    between atoms: N_8  and  C_9
    2  A    between atoms: N_8  and  C_14
    3  A    between atoms: C_9  and  C_28
    4  A    between atoms: N_10  and  C_14
    5  A    between atoms: C_17  and  C_31
    6  A    between atoms: C_20  and  N_24
                            x       y       z     vdW  Elec       q    Type
                         _______ _______ _______ _____ _____    ______ ____

>  <TORSDO>
F 6

$$$$
