=
 OpenBabel11042416383D

 65 68  0  0  1  0  0  0  0  0999 V2000
  195.3390  175.1690  141.0150 C   0  0  1  0  0  3  0  0  0  0  0  0
  194.6630  176.1510  141.9790 C   0  0  0  0  0  2  0  0  0  0  0  0
  193.2390  175.7410  142.3380 C   0  0  0  0  0  2  0  0  0  0  0  0
  192.3090  176.9440  142.4030 C   0  0  0  0  0  2  0  0  0  0  0  0
  192.7430  175.8240  145.3580 C   0  0  0  0  0  3  0  0  0  0  0  0
  189.1900  176.1900  147.6230 O   0  0  0  0  0  1  0  0  0  0  0  0
  190.3390  176.0370  146.8570 C   0  0  0  0  0  0  0  0  0  0  0  0
  189.4200  176.9570  144.7230 N   0  0  0  0  0  0  0  0  0  0  0  0
  191.3410  176.8440  143.5400 C   0  0  0  0  0  0  0  0  0  0  0  0
  192.6960  175.3970  146.6950 C   0  0  0  0  0  3  0  0  0  0  0  0
  191.4950  175.0940  148.7700 O   0  0  0  0  0  1  0  0  0  0  0  0
  186.0810  177.9300  144.9300 C   0  0  0  0  0  0  0  0  0  0  0  0
  190.0070  177.2250  143.5270 C   0  0  0  0  0  0  0  0  0  0  0  0
  190.3940  176.4260  145.5070 C   0  0  0  0  0  0  0  0  0  0  0  0
  188.0230  177.1340  145.0090 C   0  0  0  0  0  0  0  0  0  0  0  0
  186.0370  176.7700  145.6840 C   0  0  0  0  0  3  0  0  0  0  0  0
  191.5070  175.5060  147.4430 C   0  0  0  0  0  0  0  0  0  0  0  0
  187.2870  176.2650  145.7340 N   0  0  0  0  0  0  0  0  0  0  0  0
  187.3120  178.1210  144.5220 O   0  0  0  0  0  0  0  0  0  0  0  0
  191.5750  176.3420  144.8020 C   0  0  0  0  0  0  0  0  0  0  0  0
  183.9540  178.8830  145.7320 C   0  0  0  0  0  1  0  0  0  0  0  0
  185.3890  180.2150  144.2230 C   0  0  0  0  0  1  0  0  0  0  0  0
  184.9190  178.8120  144.5640 C   0  0  0  0  0  0  0  0  0  0  0  0
  184.1870  178.2460  143.3580 C   0  0  0  0  0  1  0  0  0  0  0  0
  189.2820  177.7320  142.3220 C   0  0  0  0  0  2  0  0  0  0  0  0
  187.1630  177.1100  141.2120 C   0  0  0  0  0  1  0  0  0  0  0  0
  188.5160  176.6030  141.6620 C   0  0  0  0  0  2  0  0  0  0  0  0
  195.3260  173.7380  141.5510 C   0  0  0  0  0  2  0  0  0  0  0  0
  194.2000  172.8900  140.9600 C   0  0  0  0  0  2  0  0  0  0  0  0
  193.9820  171.5950  141.7420 C   0  0  2  0  0  3  0  0  0  0  0  0
  193.1550  171.8780  142.9920 C   0  0  0  0  0  1  0  0  0  0  0  0
  195.9910  170.5200  140.9340 O   0  0  0  0  0  1  0  0  0  0  0  0
  195.3010  170.8940  142.0890 C   0  0  2  0  0  3  0  0  0  0  0  0
  195.1040  169.6990  142.9770 C   0  0  0  0  0  0  0  0  0  0  0  0
  195.6710  169.6100  144.2910 N   0  0  0  0  0  2  0  0  0  0  0  0
  194.4230  168.7330  142.5420 O   0  0  0  0  0  0  0  0  0  0  0  0
  196.4620  170.6560  144.9280 C   0  0  2  0  0  3  0  0  0  0  0  0
  197.9290  170.4220  144.6140 C   0  0  0  0  0  1  0  0  0  0  0  0
  196.2700  170.6190  146.3120 O   0  0  0  0  0  0  0  0  0  0  0  0
  196.2690  169.2630  146.6440 C   0  0  0  0  0  1  0  0  0  0  0  0
  194.8300  175.2670  139.5800 C   0  0  0  0  0  2  0  0  0  0  0  0
  195.9530  175.3250  138.6540 N   0  0  0  0  0  2  0  0  0  0  0  0
  197.0670  174.6180  139.2700 C   0  0  0  0  0  2  0  0  0  0  0  0
  197.5210  173.6060  138.4190 O   0  0  0  0  0  0  0  0  0  0  0  0
  196.5830  173.5570  137.3880 C   0  0  0  0  0  2  0  0  0  0  0  0
  195.0070  170.4220  136.8770 N   0  0  0  0  0  2  0  0  0  0  0  0
  193.8610  171.1760  136.3890 C   0  0  2  0  0  3  0  0  0  0  0  0
  193.9720  172.8440  137.0670 S   0  0  0  0  0  0  0  0  0  0  0  0
  196.0610  171.2790  136.8740 O   0  0  0  0  0  0  0  0  0  0  0  0
  195.6370  172.3910  137.6120 C   0  0  1  0  0  3  0  0  0  0  0  0
  192.5440  170.5010  136.7810 C   0  0  2  0  0  3  0  0  0  0  0  0
  189.7250  170.7410  136.5060 O   0  0  0  0  0  0  0  0  0  0  0  0
  191.7020  171.4240  137.5350 N   0  0  0  0  0  2  0  0  0  0  0  0
  190.2800  171.4450  137.3940 C   0  0  0  0  0  0  0  0  0  0  0  0
  189.4600  172.2820  138.3330 C   0  0  2  0  0  3  0  0  0  0  0  0
  189.6830  174.1500  136.7090 C   0  0  0  0  0  1  0  0  0  0  0  0
  188.7060  173.3410  137.5450 C   0  0  0  0  0  2  0  0  0  0  0  0
  190.3290  172.9430  139.4030 C   0  0  0  0  0  2  0  0  0  0  0  0
  190.3040  172.1590  140.7090 C   0  0  0  0  0  2  0  0  0  0  0  0
  190.1740  173.6300  142.5890 O   0  0  0  0  0  1  0  0  0  0  0  0
  189.4100  172.8260  141.7420 C   0  0  0  0  0  2  0  0  0  0  0  0
  192.0210  168.1660  137.1140 O   0  0  0  0  0  1  0  0  0  0  0  0
  192.7970  169.2230  137.5930 C   0  0  2  0  0  3  0  0  0  0  0  0
  191.7140  168.2920  139.6800 C   0  0  0  0  0  1  0  0  0  0  0  0
  192.5490  169.4180  139.0880 C   0  0  0  0  0  2  0  0  0  0  0  0
  1 41  1  6  0  0  0
  1 28  1  0  0  0  0
  1  2  1  0  0  0  0
  2  3  1  0  0  0  0
  3  4  1  0  0  0  0
  4  9  1  0  0  0  0
  5 10  1  0  0  0  0
  7 17  1  0  0  0  0
  7  6  1  0  0  0  0
  8 15  1  0  0  0  0
  8 14  1  0  0  0  0
  9 20  1  0  0  0  0
 10 17  2  0  0  0  0
 12 16  2  0  0  0  0
 13  9  2  0  0  0  0
 13  8  1  0  0  0  0
 14  7  2  0  0  0  0
 15 18  2  0  0  0  0
 16 18  1  0  0  0  0
 17 11  1  0  0  0  0
 19 12  1  0  0  0  0
 19 15  1  0  0  0  0
 20  5  2  0  0  0  0
 20 14  1  0  0  0  0
 22 23  1  0  0  0  0
 23 12  1  0  0  0  0
 23 21  1  0  0  0  0
 24 23  1  0  0  0  0
 25 13  1  0  0  0  0
 26 27  1  0  0  0  0
 27 25  1  0  0  0  0
 29 28  1  0  0  0  0
 29 30  1  0  0  0  0
 30 33  1  0  0  0  0
 30 31  1  1  0  0  0
 33 32  1  6  0  0  0
 33 34  1  0  0  0  0
 34 35  1  0  0  0  0
 35 37  1  0  0  0  0
 36 34  2  0  0  0  0
 37 38  1  1  0  0  0
 37 39  1  0  0  0  0
 39 40  1  0  0  0  0
 42 43  1  0  0  0  0
 42 41  1  0  0  0  0
 44 43  1  0  0  0  0
 45 44  1  0  0  0  0
 47 51  1  1  0  0  0
 47 46  1  0  0  0  0
 47 48  1  0  0  0  0
 48 50  1  0  0  0  0
 49 46  1  0  0  0  0
 49 50  1  0  0  0  0
 50 45  1  6  0  0  0
 51 53  1  1  0  0  0
 51 63  1  0  0  0  0
 52 54  2  0  0  0  0
 54 53  1  0  0  0  0
 54 55  1  0  0  0  0
 55 57  1  6  0  0  0
 55 58  1  0  0  0  0
 56 57  1  0  0  0  0
 58 59  1  0  0  0  0
 59 61  1  0  0  0  0
 61 60  1  0  0  0  0
 63 62  1  6  0  0  0
 63 65  1  0  0  0  0
 65 64  1  0  0  0  0
M  END
>  <MODEL>
1

>  <REMARK>
 VINA RESULT:      -4.9      0.000      0.000
  Name = 
  29 active torsions:
  status: ('A' for Active; 'I' for Inactive)
    1  A    between atoms: N_1  and  C_23
    2  A    between atoms: N_1  and  C_41
    3  A    between atoms: C_2  and  N_15
    4  A    between atoms: C_2  and  O_25
    5  A    between atoms: C_4  and  C_60
    6  A    between atoms: C_5  and  C_6
    7  A    between atoms: C_5  and  C_12
    8  A    between atoms: C_5  and  C_23
    9  A    between atoms: C_6  and  C_14
   10  A    between atoms: C_11  and  C_49
   11  A    between atoms: C_12  and  C_40
   12  A    between atoms: C_14  and  C_43
   13  A    between atoms: C_19  and  C_21
   14  A    between atoms: C_19  and  C_58
   15  A    between atoms: C_21  and  C_26
   16  A    between atoms: N_22  and  C_49
   17  A    between atoms: C_27  and  C_43
   18  A    between atoms: C_29  and  C_40
   19  A    between atoms: C_29  and  C_60
   20  A    between atoms: C_33  and  C_47
   21  A    between atoms: C_36  and  C_56
   22  A    between atoms: C_37  and  O_46
   23  A    between atoms: C_37  and  C_65
   24  A    between atoms: C_41  and  O_46
   25  A    between atoms: C_45  and  C_56
   26  A    between atoms: C_49  and  C_52
   27  A    between atoms: C_52  and  C_64
   28  A    between atoms: C_58  and  C_61
   29  A    between atoms: C_58  and  C_62
                            x       y       z     vdW  Elec       q    Type
                         _______ _______ _______ _____ _____    ______ ____

>  <TORSDO>
F 29

$$$$
=
 OpenBabel11042416383D

 65 68  0  0  1  0  0  0  0  0999 V2000
  190.9430  176.9360  146.3560 C   0  0  1  0  0  3  0  0  0  0  0  0
  190.7480  177.4980  144.9430 C   0  0  0  0  0  2  0  0  0  0  0  0
  189.8060  176.6500  144.0940 C   0  0  0  0  0  2  0  0  0  0  0  0
  190.4490  175.3290  143.6950 C   0  0  0  0  0  2  0  0  0  0  0  0
  188.2620  176.5930  141.7460 C   0  0  0  0  0  3  0  0  0  0  0  0
  187.8580  174.2510  138.2480 O   0  0  0  0  0  1  0  0  0  0  0  0
  187.9700  174.9900  139.4190 C   0  0  0  0  0  0  0  0  0  0  0  0
  189.6730  173.5460  140.5410 N   0  0  0  0  0  0  0  0  0  0  0  0
  189.9540  174.8440  142.3680 C   0  0  0  0  0  0  0  0  0  0  0  0
  187.3550  176.9580  140.7380 C   0  0  0  0  0  3  0  0  0  0  0  0
  186.3220  176.5640  138.5900 O   0  0  0  0  0  1  0  0  0  0  0  0
  190.6140  170.7620  138.6700 C   0  0  0  0  0  0  0  0  0  0  0  0
  190.3590  173.6950  141.7050 C   0  0  0  0  0  0  0  0  0  0  0  0
  188.8460  174.6200  140.4540 C   0  0  0  0  0  0  0  0  0  0  0  0
  189.7770  172.4100  139.6670 C   0  0  0  0  0  0  0  0  0  0  0  0
  189.2550  170.7780  138.4050 C   0  0  0  0  0  3  0  0  0  0  0  0
  187.2120  176.1680  139.5800 C   0  0  0  0  0  0  0  0  0  0  0  0
  188.7250  171.8400  139.0450 N   0  0  0  0  0  0  0  0  0  0  0  0
  190.9010  171.7700  139.4560 O   0  0  0  0  0  0  0  0  0  0  0  0
  188.9970  175.4230  141.5640 C   0  0  0  0  0  0  0  0  0  0  0  0
  192.9200  170.4200  137.8700 C   0  0  0  0  0  1  0  0  0  0  0  0
  191.8580  168.6960  139.2870 C   0  0  0  0  0  1  0  0  0  0  0  0
  191.6100  169.7340  138.2070 C   0  0  0  0  0  0  0  0  0  0  0  0
  191.0960  169.0230  136.9670 C   0  0  0  0  0  1  0  0  0  0  0  0
  191.3170  172.6890  142.2590 C   0  0  0  0  0  2  0  0  0  0  0  0
  189.6870  171.9120  143.9470 C   0  0  0  0  0  1  0  0  0  0  0  0
  190.5610  171.4860  142.7860 C   0  0  0  0  0  2  0  0  0  0  0  0
  189.6290  176.8700  147.1340 C   0  0  0  0  0  2  0  0  0  0  0  0
  188.6070  177.9060  146.6680 C   0  0  0  0  0  2  0  0  0  0  0  0
  187.1690  177.4420  146.8980 C   0  0  2  0  0  3  0  0  0  0  0  0
  186.9140  176.1470  146.1320 C   0  0  0  0  0  1  0  0  0  0  0  0
  185.7440  179.2390  147.6630 O   0  0  0  0  0  1  0  0  0  0  0  0
  186.1410  178.5200  146.5330 C   0  0  2  0  0  3  0  0  0  0  0  0
  184.9370  177.9580  145.8340 C   0  0  0  0  0  0  0  0  0  0  0  0
  184.7070  178.1300  144.4290 N   0  0  0  0  0  2  0  0  0  0  0  0
  184.0900  177.3200  146.5150 O   0  0  0  0  0  0  0  0  0  0  0  0
  185.6080  178.8270  143.5190 C   0  0  2  0  0  3  0  0  0  0  0  0
  185.7450  180.2700  143.9720 C   0  0  0  0  0  1  0  0  0  0  0  0
  185.0900  178.7930  142.2210 O   0  0  0  0  0  0  0  0  0  0  0  0
  183.9420  178.0030  142.3080 C   0  0  0  0  0  1  0  0  0  0  0  0
  191.7190  175.6230  146.3940 C   0  0  0  0  0  2  0  0  0  0  0  0
  193.1460  175.8880  146.5070 N   0  0  0  0  0  2  0  0  0  0  0  0
  193.8370  174.9670  145.6160 C   0  0  0  0  0  2  0  0  0  0  0  0
  195.1630  175.3700  145.4420 O   0  0  0  0  0  0  0  0  0  0  0  0
  195.1140  176.3430  144.4430 C   0  0  0  0  0  2  0  0  0  0  0  0
  197.0000  176.4370  141.4430 N   0  0  0  0  0  2  0  0  0  0  0  0
  195.7530  176.1470  140.7510 C   0  0  2  0  0  3  0  0  0  0  0  0
  194.6320  175.3790  141.9400 S   0  0  0  0  0  0  0  0  0  0  0  0
  196.6620  176.8520  142.6910 O   0  0  0  0  0  0  0  0  0  0  0  0
  195.8390  175.8430  143.2070 C   0  0  1  0  0  3  0  0  0  0  0  0
  195.9860  175.2400  139.5400 C   0  0  2  0  0  3  0  0  0  0  0  0
  196.0680  175.2000  136.6990 O   0  0  0  0  0  0  0  0  0  0  0  0
  194.8180  175.2450  138.6670 N   0  0  0  0  0  2  0  0  0  0  0  0
  194.9310  175.1550  137.2440 C   0  0  0  0  0  0  0  0  0  0  0  0
  193.6900  174.9730  136.4180 C   0  0  2  0  0  3  0  0  0  0  0  0
  193.4630  177.1090  135.1670 C   0  0  0  0  0  1  0  0  0  0  0  0
  192.9360  176.2910  136.3340 C   0  0  0  0  0  2  0  0  0  0  0  0
  192.7840  173.8860  136.9960 C   0  0  0  0  0  2  0  0  0  0  0  0
  191.3210  174.1370  136.6540 C   0  0  0  0  0  2  0  0  0  0  0  0
  190.4510  173.5100  134.5160 O   0  0  0  0  0  1  0  0  0  0  0  0
  190.7520  173.0240  135.7890 C   0  0  0  0  0  2  0  0  0  0  0  0
  197.2850  173.2430  139.1390 O   0  0  0  0  0  1  0  0  0  0  0  0
  196.3220  173.8070  139.9770 C   0  0  2  0  0  3  0  0  0  0  0  0
  195.4400  171.4440  139.8150 C   0  0  0  0  0  1  0  0  0  0  0  0
  195.0890  172.9070  140.0380 C   0  0  0  0  0  2  0  0  0  0  0  0
  1  2  1  6  0  0  0
  1 41  1  0  0  0  0
  1 28  1  0  0  0  0
  3  2  1  0  0  0  0
  4  3  1  0  0  0  0
  6  7  1  0  0  0  0
  7 17  2  0  0  0  0
  7 14  1  0  0  0  0
  8 13  1  0  0  0  0
  9  4  1  0  0  0  0
 10  5  2  0  0  0  0
 11 17  1  0  0  0  0
 12 19  1  0  0  0  0
 13 25  1  0  0  0  0
 13  9  2  0  0  0  0
 14  8  1  0  0  0  0
 14 20  2  0  0  0  0
 15  8  1  0  0  0  0
 16 12  2  0  0  0  0
 16 18  1  0  0  0  0
 17 10  1  0  0  0  0
 18 15  2  0  0  0  0
 19 15  1  0  0  0  0
 20  5  1  0  0  0  0
 20  9  1  0  0  0  0
 21 23  1  0  0  0  0
 23 12  1  0  0  0  0
 23 22  1  0  0  0  0
 24 23  1  0  0  0  0
 25 27  1  0  0  0  0
 27 26  1  0  0  0  0
 29 30  1  0  0  0  0
 29 28  1  0  0  0  0
 30 31  1  6  0  0  0
 33 30  1  0  0  0  0
 33 32  1  1  0  0  0
 34 36  2  0  0  0  0
 34 33  1  0  0  0  0
 35 34  1  0  0  0  0
 37 38  1  1  0  0  0
 37 35  1  0  0  0  0
 39 40  1  0  0  0  0
 39 37  1  0  0  0  0
 41 42  1  0  0  0  0
 43 42  1  0  0  0  0
 44 43  1  0  0  0  0
 45 44  1  0  0  0  0
 46 49  1  0  0  0  0
 47 51  1  6  0  0  0
 47 46  1  0  0  0  0
 47 48  1  0  0  0  0
 48 50  1  0  0  0  0
 49 50  1  0  0  0  0
 50 45  1  1  0  0  0
 51 53  1  6  0  0  0
 51 63  1  0  0  0  0
 52 54  2  0  0  0  0
 54 53  1  0  0  0  0
 55 57  1  1  0  0  0
 55 58  1  0  0  0  0
 55 54  1  0  0  0  0
 56 57  1  0  0  0  0
 59 58  1  0  0  0  0
 60 61  1  0  0  0  0
 61 59  1  0  0  0  0
 63 62  1  6  0  0  0
 63 65  1  0  0  0  0
 64 65  1  0  0  0  0
M  END
>  <MODEL>
2

>  <REMARK>
 VINA RESULT:      -4.8      2.897      8.929
  Name = 
  29 active torsions:
  status: ('A' for Active; 'I' for Inactive)
    1  A    between atoms: N_1  and  C_23
    2  A    between atoms: N_1  and  C_41
    3  A    between atoms: C_2  and  N_15
    4  A    between atoms: C_2  and  O_25
    5  A    between atoms: C_4  and  C_60
    6  A    between atoms: C_5  and  C_6
    7  A    between atoms: C_5  and  C_12
    8  A    between atoms: C_5  and  C_23
    9  A    between atoms: C_6  and  C_14
   10  A    between atoms: C_11  and  C_49
   11  A    between atoms: C_12  and  C_40
   12  A    between atoms: C_14  and  C_43
   13  A    between atoms: C_19  and  C_21
   14  A    between atoms: C_19  and  C_58
   15  A    between atoms: C_21  and  C_26
   16  A    between atoms: N_22  and  C_49
   17  A    between atoms: C_27  and  C_43
   18  A    between atoms: C_29  and  C_40
   19  A    between atoms: C_29  and  C_60
   20  A    between atoms: C_33  and  C_47
   21  A    between atoms: C_36  and  C_56
   22  A    between atoms: C_37  and  O_46
   23  A    between atoms: C_37  and  C_65
   24  A    between atoms: C_41  and  O_46
   25  A    between atoms: C_45  and  C_56
   26  A    between atoms: C_49  and  C_52
   27  A    between atoms: C_52  and  C_64
   28  A    between atoms: C_58  and  C_61
   29  A    between atoms: C_58  and  C_62
                            x       y       z     vdW  Elec       q    Type
                         _______ _______ _______ _____ _____    ______ ____

>  <TORSDO>
F 29

$$$$
=
 OpenBabel11042416383D

 65 68  0  0  1  0  0  0  0  0999 V2000
  189.7040  175.3970  146.4830 C   0  0  1  0  0  3  0  0  0  0  0  0
  189.9780  173.9230  146.1660 C   0  0  0  0  0  2  0  0  0  0  0  0
  190.2140  173.6720  144.6800 C   0  0  0  0  0  2  0  0  0  0  0  0
  189.7660  172.2760  144.2700 C   0  0  0  0  0  2  0  0  0  0  0  0
  192.2410  170.2670  144.3910 C   0  0  0  0  0  3  0  0  0  0  0  0
  193.6730  169.4350  140.5000 O   0  0  0  0  0  1  0  0  0  0  0  0
  193.2200  169.7480  141.7760 C   0  0  0  0  0  0  0  0  0  0  0  0
  191.4270  171.3470  141.0900 N   0  0  0  0  0  0  0  0  0  0  0  0
  190.6050  171.7220  143.1600 C   0  0  0  0  0  0  0  0  0  0  0  0
  193.3290  169.4020  144.1960 C   0  0  0  0  0  3  0  0  0  0  0  0
  194.8790  168.2600  142.7350 O   0  0  0  0  0  1  0  0  0  0  0  0
  191.2050  171.8250  137.6460 C   0  0  0  0  0  0  0  0  0  0  0  0
  190.4710  171.9950  141.8060 C   0  0  0  0  0  0  0  0  0  0  0  0
  192.1560  170.6400  141.9920 C   0  0  0  0  0  0  0  0  0  0  0  0
  191.6340  171.4950  139.6760 C   0  0  0  0  0  0  0  0  0  0  0  0
  192.5820  171.7830  137.7920 C   0  0  0  0  0  3  0  0  0  0  0  0
  193.8140  169.1380  142.9000 C   0  0  0  0  0  0  0  0  0  0  0  0
  192.8500  171.5670  139.0960 N   0  0  0  0  0  0  0  0  0  0  0  0
  190.6520  171.6560  138.8220 O   0  0  0  0  0  0  0  0  0  0  0  0
  191.6740  170.8590  143.2640 C   0  0  0  0  0  0  0  0  0  0  0  0
  190.0820  170.7670  135.7240 C   0  0  0  0  0  1  0  0  0  0  0  0
  189.1660  172.8620  136.6640 C   0  0  0  0  0  1  0  0  0  0  0  0
  190.4410  172.0880  136.3780 C   0  0  0  0  0  0  0  0  0  0  0  0
  191.2870  172.8990  135.4110 C   0  0  0  0  0  1  0  0  0  0  0  0
  189.4970  172.9730  141.2310 C   0  0  0  0  0  2  0  0  0  0  0  0
  189.2740  175.3390  141.9100 C   0  0  0  0  0  1  0  0  0  0  0  0
  190.1290  174.3480  141.1500 C   0  0  0  0  0  2  0  0  0  0  0  0
  188.2390  175.6450  146.8420 C   0  0  0  0  0  2  0  0  0  0  0  0
  187.5140  176.5200  145.8200 C   0  0  0  0  0  2  0  0  0  0  0  0
  186.4100  177.3610  146.4610 C   0  0  2  0  0  3  0  0  0  0  0  0
  185.0980  176.5840  146.4560 C   0  0  0  0  0  1  0  0  0  0  0  0
  186.1510  179.7500  146.7370 O   0  0  0  0  0  1  0  0  0  0  0  0
  186.2530  178.7300  145.7870 C   0  0  2  0  0  3  0  0  0  0  0  0
  185.0800  178.7830  144.8520 C   0  0  0  0  0  0  0  0  0  0  0  0
  185.1530  178.3320  143.4920 N   0  0  0  0  0  2  0  0  0  0  0  0
  183.9920  179.2540  145.2780 O   0  0  0  0  0  0  0  0  0  0  0  0
  186.3380  177.7500  142.8730 C   0  0  2  0  0  3  0  0  0  0  0  0
  187.4150  178.8150  142.7760 C   0  0  0  0  0  1  0  0  0  0  0  0
  186.0230  177.2880  141.5910 O   0  0  0  0  0  0  0  0  0  0  0  0
  184.9430  178.0690  141.1770 C   0  0  0  0  0  1  0  0  0  0  0  0
  190.6710  175.9980  147.5000 C   0  0  0  0  0  2  0  0  0  0  0  0
  192.0430  175.8260  147.0470 N   0  0  0  0  0  2  0  0  0  0  0  0
  192.0360  175.8860  145.5920 C   0  0  0  0  0  2  0  0  0  0  0  0
  192.7680  176.9930  145.1540 O   0  0  0  0  0  0  0  0  0  0  0  0
  193.9110  177.0060  145.9540 C   0  0  0  0  0  2  0  0  0  0  0  0
  195.8490  176.0070  143.1590 N   0  0  0  0  0  2  0  0  0  0  0  0
  195.6130  174.6380  143.5930 C   0  0  2  0  0  3  0  0  0  0  0  0
  195.2020  174.6830  145.3500 S   0  0  0  0  0  0  0  0  0  0  0  0
  194.9380  176.7800  143.8050 O   0  0  0  0  0  0  0  0  0  0  0  0
  195.0950  176.4800  145.1640 C   0  0  1  0  0  3  0  0  0  0  0  0
  196.8330  173.7520  143.3290 C   0  0  2  0  0  3  0  0  0  0  0  0
  195.0940  173.5410  141.0900 O   0  0  0  0  0  0  0  0  0  0  0  0
  197.2450  173.8540  141.9330 N   0  0  0  0  0  2  0  0  0  0  0  0
  196.3060  173.8060  140.8570 C   0  0  0  0  0  0  0  0  0  0  0  0
  196.7710  174.1080  139.4610 C   0  0  2  0  0  3  0  0  0  0  0  0
  194.9460  174.6380  137.8580 C   0  0  0  0  0  1  0  0  0  0  0  0
  195.9190  175.2200  138.8700 C   0  0  0  0  0  2  0  0  0  0  0  0
  196.7090  172.8690  138.5670 C   0  0  0  0  0  2  0  0  0  0  0  0
  197.9290  172.7720  137.6600 C   0  0  0  0  0  2  0  0  0  0  0  0
  196.1970  171.9510  136.2300 O   0  0  0  0  0  1  0  0  0  0  0  0
  197.5740  172.1610  136.3130 C   0  0  0  0  0  2  0  0  0  0  0  0
  195.1910  172.1050  143.9830 O   0  0  0  0  0  1  0  0  0  0  0  0
  196.5440  172.2890  143.6950 C   0  0  2  0  0  3  0  0  0  0  0  0
  197.2880  170.2910  145.0530 C   0  0  0  0  0  1  0  0  0  0  0  0
  197.3990  171.7960  144.8610 C   0  0  0  0  0  2  0  0  0  0  0  0
  1  2  1  1  0  0  0
  1 28  1  0  0  0  0
  1 41  1  0  0  0  0
  3  2  1  0  0  0  0
  4  3  1  0  0  0  0
  6  7  1  0  0  0  0
  7 14  2  0  0  0  0
  7 17  1  0  0  0  0
  8 13  1  0  0  0  0
  8 14  1  0  0  0  0
  9 20  1  0  0  0  0
  9  4  1  0  0  0  0
 10  5  1  0  0  0  0
 11 17  1  0  0  0  0
 12 16  2  0  0  0  0
 12 19  1  0  0  0  0
 13  9  2  0  0  0  0
 14 20  1  0  0  0  0
 15  8  1  0  0  0  0
 16 18  1  0  0  0  0
 17 10  2  0  0  0  0
 18 15  2  0  0  0  0
 19 15  1  0  0  0  0
 20  5  2  0  0  0  0
 21 23  1  0  0  0  0
 23 22  1  0  0  0  0
 23 12  1  0  0  0  0
 24 23  1  0  0  0  0
 25 13  1  0  0  0  0
 27 25  1  0  0  0  0
 27 26  1  0  0  0  0
 29 30  1  0  0  0  0
 29 28  1  0  0  0  0
 30 31  1  6  0  0  0
 33 30  1  0  0  0  0
 33 32  1  1  0  0  0
 34 36  2  0  0  0  0
 34 33  1  0  0  0  0
 35 34  1  0  0  0  0
 37 38  1  6  0  0  0
 37 35  1  0  0  0  0
 39 37  1  0  0  0  0
 40 39  1  0  0  0  0
 42 41  1  0  0  0  0
 43 42  1  0  0  0  0
 44 43  1  0  0  0  0
 44 45  1  0  0  0  0
 46 47  1  0  0  0  0
 46 49  1  0  0  0  0
 47 51  1  1  0  0  0
 47 48  1  0  0  0  0
 49 50  1  0  0  0  0
 50 48  1  0  0  0  0
 50 45  1  1  0  0  0
 51 53  1  6  0  0  0
 51 63  1  0  0  0  0
 54 52  2  0  0  0  0
 54 53  1  0  0  0  0
 55 58  1  6  0  0  0
 55 54  1  0  0  0  0
 56 57  1  0  0  0  0
 57 55  1  0  0  0  0
 59 58  1  0  0  0  0
 60 61  1  0  0  0  0
 61 59  1  0  0  0  0
 63 62  1  1  0  0  0
 63 65  1  0  0  0  0
 65 64  1  0  0  0  0
M  END
>  <MODEL>
3

>  <REMARK>
 VINA RESULT:      -4.2      2.529      9.384
  Name = 
  29 active torsions:
  status: ('A' for Active; 'I' for Inactive)
    1  A    between atoms: N_1  and  C_23
    2  A    between atoms: N_1  and  C_41
    3  A    between atoms: C_2  and  N_15
    4  A    between atoms: C_2  and  O_25
    5  A    between atoms: C_4  and  C_60
    6  A    between atoms: C_5  and  C_6
    7  A    between atoms: C_5  and  C_12
    8  A    between atoms: C_5  and  C_23
    9  A    between atoms: C_6  and  C_14
   10  A    between atoms: C_11  and  C_49
   11  A    between atoms: C_12  and  C_40
   12  A    between atoms: C_14  and  C_43
   13  A    between atoms: C_19  and  C_21
   14  A    between atoms: C_19  and  C_58
   15  A    between atoms: C_21  and  C_26
   16  A    between atoms: N_22  and  C_49
   17  A    between atoms: C_27  and  C_43
   18  A    between atoms: C_29  and  C_40
   19  A    between atoms: C_29  and  C_60
   20  A    between atoms: C_33  and  C_47
   21  A    between atoms: C_36  and  C_56
   22  A    between atoms: C_37  and  O_46
   23  A    between atoms: C_37  and  C_65
   24  A    between atoms: C_41  and  O_46
   25  A    between atoms: C_45  and  C_56
   26  A    between atoms: C_49  and  C_52
   27  A    between atoms: C_52  and  C_64
   28  A    between atoms: C_58  and  C_61
   29  A    between atoms: C_58  and  C_62
                            x       y       z     vdW  Elec       q    Type
                         _______ _______ _______ _____ _____    ______ ____

>  <TORSDO>
F 29

$$$$
=
 OpenBabel11042416383D

 65 68  0  0  1  0  0  0  0  0999 V2000
  194.1960  170.2150  142.5940 C   0  0  1  0  0  3  0  0  0  0  0  0
  193.0560  171.2000  142.8740 C   0  0  0  0  0  2  0  0  0  0  0  0
  192.5980  171.9450  141.6240 C   0  0  0  0  0  2  0  0  0  0  0  0
  191.1010  171.7860  141.3950 C   0  0  0  0  0  2  0  0  0  0  0  0
  191.5820  169.6000  139.1220 C   0  0  0  0  0  3  0  0  0  0  0  0
  190.0270  170.9360  135.4230 O   0  0  0  0  0  1  0  0  0  0  0  0
  190.5700  170.5250  136.6330 C   0  0  0  0  0  0  0  0  0  0  0  0
  189.9990  172.5730  137.9460 N   0  0  0  0  0  0  0  0  0  0  0  0
  190.7500  171.8240  139.9400 C   0  0  0  0  0  0  0  0  0  0  0  0
  191.6760  168.8000  137.9720 C   0  0  0  0  0  3  0  0  0  0  0  0
  191.2590  168.4310  135.6210 O   0  0  0  0  0  1  0  0  0  0  0  0
  188.3750  175.0310  136.0860 C   0  0  0  0  0  0  0  0  0  0  0  0
  190.1300  172.8670  139.2660 C   0  0  0  0  0  0  0  0  0  0  0  0
  190.5170  171.3280  137.7860 C   0  0  0  0  0  0  0  0  0  0  0  0
  189.4950  173.4790  136.9500 C   0  0  0  0  0  0  0  0  0  0  0  0
  189.3030  174.6020  135.1530 C   0  0  0  0  0  3  0  0  0  0  0  0
  191.1700  169.2530  136.7370 C   0  0  0  0  0  0  0  0  0  0  0  0
  190.0150  173.6020  135.7120 N   0  0  0  0  0  0  0  0  0  0  0  0
  188.5260  174.3300  137.1830 O   0  0  0  0  0  0  0  0  0  0  0  0
  190.9870  170.8530  138.9920 C   0  0  0  0  0  0  0  0  0  0  0  0
  186.4420  176.1690  137.1090 C   0  0  0  0  0  1  0  0  0  0  0  0
  188.1080  177.4960  135.8560 C   0  0  0  0  0  1  0  0  0  0  0  0
  187.3920  176.1580  135.9270 C   0  0  0  0  0  0  0  0  0  0  0  0
  186.5860  175.9790  134.6520 C   0  0  0  0  0  1  0  0  0  0  0  0
  189.7800  174.1840  139.8810 C   0  0  0  0  0  2  0  0  0  0  0  0
  188.1270  173.2100  141.4400 C   0  0  0  0  0  1  0  0  0  0  0  0
  188.3240  174.1900  140.3030 C   0  0  0  0  0  2  0  0  0  0  0  0
  194.4640  170.0570  141.0980 C   0  0  0  0  0  2  0  0  0  0  0  0
  195.4860  171.0620  140.5660 C   0  0  0  0  0  2  0  0  0  0  0  0
  195.5010  171.1170  139.0390 C   0  0  2  0  0  3  0  0  0  0  0  0
  196.7770  170.4710  138.5100 C   0  0  0  0  0  1  0  0  0  0  0  0
  193.9850  172.9150  138.4750 O   0  0  0  0  0  1  0  0  0  0  0  0
  195.3320  172.5440  138.5040 C   0  0  2  0  0  3  0  0  0  0  0  0
  195.9430  172.7280  137.1440 C   0  0  0  0  0  0  0  0  0  0  0  0
  195.3700  172.1650  135.9570 N   0  0  0  0  0  2  0  0  0  0  0  0
  197.0070  173.3940  137.0490 O   0  0  0  0  0  0  0  0  0  0  0  0
  194.1360  171.3900  135.9160 C   0  0  2  0  0  3  0  0  0  0  0  0
  194.4560  169.9780  135.4620 C   0  0  0  0  0  1  0  0  0  0  0  0
  193.2370  171.9760  135.0190 O   0  0  0  0  0  0  0  0  0  0  0  0
  193.8690  173.1410  134.5800 C   0  0  0  0  0  1  0  0  0  0  0  0
  195.4640  170.4970  143.3950 C   0  0  0  0  0  2  0  0  0  0  0  0
  195.2930  171.7010  144.1950 N   0  0  0  0  0  2  0  0  0  0  0  0
  196.2520  172.6860  143.7160 C   0  0  0  0  0  2  0  0  0  0  0  0
  195.8380  173.9720  144.0740 O   0  0  0  0  0  0  0  0  0  0  0  0
  195.1760  174.4620  142.9480 C   0  0  0  0  0  2  0  0  0  0  0  0
  193.1010  176.8010  144.6190 N   0  0  0  0  0  2  0  0  0  0  0  0
  192.6650  175.6900  145.4520 C   0  0  2  0  0  3  0  0  0  0  0  0
  192.9850  174.1650  144.5420 S   0  0  0  0  0  0  0  0  0  0  0  0
  194.2410  176.3970  144.0010 O   0  0  0  0  0  0  0  0  0  0  0  0
  193.9130  175.1890  143.3730 C   0  0  1  0  0  3  0  0  0  0  0  0
  191.1860  175.8190  145.8220 C   0  0  2  0  0  3  0  0  0  0  0  0
  188.8230  174.6960  144.7100 O   0  0  0  0  0  0  0  0  0  0  0  0
  190.4290  176.3860  144.7110 N   0  0  0  0  0  2  0  0  0  0  0  0
  189.2100  175.8030  144.2450 C   0  0  0  0  0  0  0  0  0  0  0  0
  188.3840  176.5390  143.2290 C   0  0  2  0  0  3  0  0  0  0  0  0
  188.5220  178.4320  141.6240 C   0  0  0  0  0  1  0  0  0  0  0  0
  189.3000  177.3100  142.2910 C   0  0  0  0  0  2  0  0  0  0  0  0
  187.3920  177.4930  143.8940 C   0  0  0  0  0  2  0  0  0  0  0  0
  185.9510  177.0560  143.6570 C   0  0  0  0  0  2  0  0  0  0  0  0
  184.8030  178.0270  141.7970 O   0  0  0  0  0  1  0  0  0  0  0  0
  185.6330  176.9690  142.1720 C   0  0  0  0  0  2  0  0  0  0  0  0
  190.7860  175.8680  148.2040 O   0  0  0  0  0  1  0  0  0  0  0  0
  191.0030  176.6730  147.0840 C   0  0  2  0  0  3  0  0  0  0  0  0
  188.5390  177.1310  147.4130 C   0  0  0  0  0  1  0  0  0  0  0  0
  189.8730  177.6920  146.9460 C   0  0  0  0  0  2  0  0  0  0  0  0
  1 28  1  6  0  0  0
  1  2  1  0  0  0  0
  1 41  1  0  0  0  0
  3  2  1  0  0  0  0
  4  3  1  0  0  0  0
  6  7  1  0  0  0  0
  7 17  2  0  0  0  0
  7 14  1  0  0  0  0
  8 13  1  0  0  0  0
  9  4  1  0  0  0  0
 10  5  2  0  0  0  0
 11 17  1  0  0  0  0
 12 19  1  0  0  0  0
 13 25  1  0  0  0  0
 13  9  2  0  0  0  0
 14  8  1  0  0  0  0
 14 20  2  0  0  0  0
 15 19  1  0  0  0  0
 15  8  1  0  0  0  0
 16 18  1  0  0  0  0
 16 12  2  0  0  0  0
 17 10  1  0  0  0  0
 18 15  2  0  0  0  0
 20  5  1  0  0  0  0
 20  9  1  0  0  0  0
 22 23  1  0  0  0  0
 23 12  1  0  0  0  0
 23 21  1  0  0  0  0
 24 23  1  0  0  0  0
 25 27  1  0  0  0  0
 27 26  1  0  0  0  0
 29 28  1  0  0  0  0
 30 31  1  1  0  0  0
 30 29  1  0  0  0  0
 33 32  1  6  0  0  0
 33 30  1  0  0  0  0
 34 33  1  0  0  0  0
 35 34  1  0  0  0  0
 36 34  2  0  0  0  0
 37 38  1  6  0  0  0
 37 35  1  0  0  0  0
 39 37  1  0  0  0  0
 40 39  1  0  0  0  0
 41 42  1  0  0  0  0
 43 44  1  0  0  0  0
 43 42  1  0  0  0  0
 45 44  1  0  0  0  0
 46 47  1  0  0  0  0
 47 51  1  6  0  0  0
 48 47  1  0  0  0  0
 49 46  1  0  0  0  0
 50 45  1  1  0  0  0
 50 49  1  0  0  0  0
 50 48  1  0  0  0  0
 51 53  1  6  0  0  0
 51 63  1  0  0  0  0
 54 52  2  0  0  0  0
 54 53  1  0  0  0  0
 55 57  1  6  0  0  0
 55 58  1  0  0  0  0
 55 54  1  0  0  0  0
 56 57  1  0  0  0  0
 59 58  1  0  0  0  0
 60 61  1  0  0  0  0
 61 59  1  0  0  0  0
 63 62  1  1  0  0  0
 65 63  1  0  0  0  0
 65 64  1  0  0  0  0
M  END
>  <MODEL>
4

>  <REMARK>
 VINA RESULT:      -4.1      2.332      8.541
  Name = 
  29 active torsions:
  status: ('A' for Active; 'I' for Inactive)
    1  A    between atoms: N_1  and  C_23
    2  A    between atoms: N_1  and  C_41
    3  A    between atoms: C_2  and  N_15
    4  A    between atoms: C_2  and  O_25
    5  A    between atoms: C_4  and  C_60
    6  A    between atoms: C_5  and  C_6
    7  A    between atoms: C_5  and  C_12
    8  A    between atoms: C_5  and  C_23
    9  A    between atoms: C_6  and  C_14
   10  A    between atoms: C_11  and  C_49
   11  A    between atoms: C_12  and  C_40
   12  A    between atoms: C_14  and  C_43
   13  A    between atoms: C_19  and  C_21
   14  A    between atoms: C_19  and  C_58
   15  A    between atoms: C_21  and  C_26
   16  A    between atoms: N_22  and  C_49
   17  A    between atoms: C_27  and  C_43
   18  A    between atoms: C_29  and  C_40
   19  A    between atoms: C_29  and  C_60
   20  A    between atoms: C_33  and  C_47
   21  A    between atoms: C_36  and  C_56
   22  A    between atoms: C_37  and  O_46
   23  A    between atoms: C_37  and  C_65
   24  A    between atoms: C_41  and  O_46
   25  A    between atoms: C_45  and  C_56
   26  A    between atoms: C_49  and  C_52
   27  A    between atoms: C_52  and  C_64
   28  A    between atoms: C_58  and  C_61
   29  A    between atoms: C_58  and  C_62
                            x       y       z     vdW  Elec       q    Type
                         _______ _______ _______ _____ _____    ______ ____

>  <TORSDO>
F 29

$$$$
=
 OpenBabel11042416383D

 65 68  0  0  1  0  0  0  0  0999 V2000
  193.8020  170.2990  143.0170 C   0  0  1  0  0  3  0  0  0  0  0  0
  192.3280  170.7200  143.0310 C   0  0  0  0  0  2  0  0  0  0  0  0
  191.8820  171.3520  141.7160 C   0  0  0  0  0  2  0  0  0  0  0  0
  190.7320  170.5790  141.0860 C   0  0  0  0  0  2  0  0  0  0  0  0
  191.5670  169.0270  138.4270 C   0  0  0  0  0  3  0  0  0  0  0  0
  190.3030  171.1590  135.0010 O   0  0  0  0  0  1  0  0  0  0  0  0
  190.7490  170.4880  136.1320 C   0  0  0  0  0  0  0  0  0  0  0  0
  189.9270  172.1360  137.8210 N   0  0  0  0  0  0  0  0  0  0  0  0
  190.5230  170.9550  139.6520 C   0  0  0  0  0  0  0  0  0  0  0  0
  191.8230  168.5320  137.1380 C   0  0  0  0  0  3  0  0  0  0  0  0
  191.6620  168.7280  134.7350 O   0  0  0  0  0  1  0  0  0  0  0  0
  188.3450  174.9100  136.4290 C   0  0  0  0  0  0  0  0  0  0  0  0
  189.9090  172.1060  139.1790 C   0  0  0  0  0  0  0  0  0  0  0  0
  190.5340  170.9860  137.4290 C   0  0  0  0  0  0  0  0  0  0  0  0
  189.4680  173.2360  137.0190 C   0  0  0  0  0  0  0  0  0  0  0  0
  189.3840  174.7530  135.5280 C   0  0  0  0  0  3  0  0  0  0  0  0
  191.4140  169.2520  135.9980 C   0  0  0  0  0  0  0  0  0  0  0  0
  190.0990  173.6750  135.9100 N   0  0  0  0  0  0  0  0  0  0  0  0
  188.4300  173.9700  137.3380 O   0  0  0  0  0  0  0  0  0  0  0  0
  190.9110  170.2510  138.5320 C   0  0  0  0  0  0  0  0  0  0  0  0
  187.9850  177.3290  136.1200 C   0  0  0  0  0  1  0  0  0  0  0  0
  186.2360  175.7390  135.3970 C   0  0  0  0  0  1  0  0  0  0  0  0
  187.3140  176.0060  136.4330 C   0  0  0  0  0  0  0  0  0  0  0  0
  186.6540  176.1030  137.7980 C   0  0  0  0  0  1  0  0  0  0  0  0
  189.4200  173.2220  140.0460 C   0  0  0  0  0  2  0  0  0  0  0  0
  191.5310  174.1120  140.9760 C   0  0  0  0  0  1  0  0  0  0  0  0
  190.3990  174.3790  140.0060 C   0  0  0  0  0  2  0  0  0  0  0  0
  194.4040  170.3600  141.6140 C   0  0  0  0  0  2  0  0  0  0  0  0
  195.5140  171.4030  141.4870 C   0  0  0  0  0  2  0  0  0  0  0  0
  195.4280  172.1800  140.1730 C   0  0  2  0  0  3  0  0  0  0  0  0
  195.8100  171.2710  139.0090 C   0  0  0  0  0  1  0  0  0  0  0  0
  196.8750  173.6450  141.4420 O   0  0  0  0  0  1  0  0  0  0  0  0
  196.2820  173.4540  140.1910 C   0  0  2  0  0  3  0  0  0  0  0  0
  195.5020  174.6770  139.8020 C   0  0  0  0  0  0  0  0  0  0  0  0
  195.4820  175.1880  138.4630 N   0  0  0  0  0  2  0  0  0  0  0  0
  194.8510  175.2830  140.6940 O   0  0  0  0  0  0  0  0  0  0  0  0
  196.1710  174.5800  137.3310 C   0  0  2  0  0  3  0  0  0  0  0  0
  197.0570  175.6250  136.6770 C   0  0  0  0  0  1  0  0  0  0  0  0
  195.2360  174.1130  136.4020 O   0  0  0  0  0  0  0  0  0  0  0  0
  194.3110  175.1500  136.2640 C   0  0  0  0  0  1  0  0  0  0  0  0
  194.6570  171.0150  144.0590 C   0  0  0  0  0  2  0  0  0  0  0  0
  193.8080  171.5880  145.0950 N   0  0  0  0  0  2  0  0  0  0  0  0
  194.0560  173.0220  145.1230 C   0  0  0  0  0  2  0  0  0  0  0  0
  193.0050  173.6780  145.7690 O   0  0  0  0  0  0  0  0  0  0  0  0
  192.7370  174.7940  144.9760 C   0  0  0  0  0  2  0  0  0  0  0  0
  189.2760  174.4240  144.3050 N   0  0  0  0  0  2  0  0  0  0  0  0
  189.4220  175.5440  143.3870 C   0  0  2  0  0  3  0  0  0  0  0  0
  190.8880  176.4720  143.8840 S   0  0  0  0  0  0  0  0  0  0  0  0
  190.5290  173.9690  144.5610 O   0  0  0  0  0  0  0  0  0  0  0  0
  191.2490  175.0900  144.9950 C   0  0  1  0  0  3  0  0  0  0  0  0
  188.1750  176.4320  143.3890 C   0  0  2  0  0  3  0  0  0  0  0  0
  186.8730  178.7180  144.4650 O   0  0  0  0  0  0  0  0  0  0  0  0
  187.6160  176.5240  144.7330 N   0  0  0  0  0  2  0  0  0  0  0  0
  186.9140  177.6840  145.1870 C   0  0  0  0  0  0  0  0  0  0  0  0
  186.2020  177.6430  146.5090 C   0  0  2  0  0  3  0  0  0  0  0  0
  184.0150  178.5700  145.7740 C   0  0  0  0  0  1  0  0  0  0  0  0
  185.2550  178.8280  146.6140 C   0  0  0  0  0  2  0  0  0  0  0  0
  187.1850  177.6510  147.6790 C   0  0  0  0  0  2  0  0  0  0  0  0
  188.4890  178.3470  147.3090 C   0  0  0  0  0  2  0  0  0  0  0  0
  190.5500  177.8380  148.4090 O   0  0  0  0  0  1  0  0  0  0  0  0
  189.6740  177.4010  147.4140 C   0  0  0  0  0  2  0  0  0  0  0  0
  187.1870  174.5140  142.3000 O   0  0  0  0  0  1  0  0  0  0  0  0
  187.1190  175.9040  142.4070 C   0  0  2  0  0  3  0  0  0  0  0  0
  187.0770  178.0530  141.0760 C   0  0  0  0  0  1  0  0  0  0  0  0
  187.2340  176.5410  141.0230 C   0  0  0  0  0  2  0  0  0  0  0  0
  1 28  1  6  0  0  0
  1  2  1  0  0  0  0
  1 41  1  0  0  0  0
  3  2  1  0  0  0  0
  4  3  1  0  0  0  0
  5 20  1  0  0  0  0
  6  7  1  0  0  0  0
  7 14  1  0  0  0  0
  8 13  1  0  0  0  0
  9  4  1  0  0  0  0
 10  5  2  0  0  0  0
 11 17  1  0  0  0  0
 12 23  1  0  0  0  0
 12 19  1  0  0  0  0
 13  9  2  0  0  0  0
 13 25  1  0  0  0  0
 14  8  1  0  0  0  0
 14 20  2  0  0  0  0
 15 19  1  0  0  0  0
 15  8  1  0  0  0  0
 16 18  1  0  0  0  0
 16 12  2  0  0  0  0
 17  7  2  0  0  0  0
 17 10  1  0  0  0  0
 18 15  2  0  0  0  0
 20  9  1  0  0  0  0
 21 23  1  0  0  0  0
 22 23  1  0  0  0  0
 23 24  1  0  0  0  0
 27 25  1  0  0  0  0
 27 26  1  0  0  0  0
 29 28  1  0  0  0  0
 30 31  1  6  0  0  0
 30 33  1  0  0  0  0
 30 29  1  0  0  0  0
 33 32  1  1  0  0  0
 34 33  1  0  0  0  0
 34 36  2  0  0  0  0
 35 34  1  0  0  0  0
 37 38  1  6  0  0  0
 37 35  1  0  0  0  0
 39 37  1  0  0  0  0
 40 39  1  0  0  0  0
 41 42  1  0  0  0  0
 42 43  1  0  0  0  0
 43 44  1  0  0  0  0
 45 44  1  0  0  0  0
 46 49  1  0  0  0  0
 47 51  1  1  0  0  0
 47 48  1  0  0  0  0
 47 46  1  0  0  0  0
 48 50  1  0  0  0  0
 49 50  1  0  0  0  0
 50 45  1  6  0  0  0
 51 53  1  1  0  0  0
 52 54  2  0  0  0  0
 53 54  1  0  0  0  0
 54 55  1  0  0  0  0
 55 57  1  1  0  0  0
 55 58  1  0  0  0  0
 56 57  1  0  0  0  0
 59 61  1  0  0  0  0
 59 58  1  0  0  0  0
 61 60  1  0  0  0  0
 63 62  1  6  0  0  0
 63 51  1  0  0  0  0
 65 64  1  0  0  0  0
 65 63  1  0  0  0  0
M  END
>  <MODEL>
5

>  <REMARK>
 VINA RESULT:      -4.1      2.401      8.910
  Name = 
  29 active torsions:
  status: ('A' for Active; 'I' for Inactive)
    1  A    between atoms: N_1  and  C_23
    2  A    between atoms: N_1  and  C_41
    3  A    between atoms: C_2  and  N_15
    4  A    between atoms: C_2  and  O_25
    5  A    between atoms: C_4  and  C_60
    6  A    between atoms: C_5  and  C_6
    7  A    between atoms: C_5  and  C_12
    8  A    between atoms: C_5  and  C_23
    9  A    between atoms: C_6  and  C_14
   10  A    between atoms: C_11  and  C_49
   11  A    between atoms: C_12  and  C_40
   12  A    between atoms: C_14  and  C_43
   13  A    between atoms: C_19  and  C_21
   14  A    between atoms: C_19  and  C_58
   15  A    between atoms: C_21  and  C_26
   16  A    between atoms: N_22  and  C_49
   17  A    between atoms: C_27  and  C_43
   18  A    between atoms: C_29  and  C_40
   19  A    between atoms: C_29  and  C_60
   20  A    between atoms: C_33  and  C_47
   21  A    between atoms: C_36  and  C_56
   22  A    between atoms: C_37  and  O_46
   23  A    between atoms: C_37  and  C_65
   24  A    between atoms: C_41  and  O_46
   25  A    between atoms: C_45  and  C_56
   26  A    between atoms: C_49  and  C_52
   27  A    between atoms: C_52  and  C_64
   28  A    between atoms: C_58  and  C_61
   29  A    between atoms: C_58  and  C_62
                            x       y       z     vdW  Elec       q    Type
                         _______ _______ _______ _____ _____    ______ ____

>  <TORSDO>
F 29

$$$$
=
 OpenBabel11042416383D

 65 68  0  0  1  0  0  0  0  0999 V2000
  188.6550  175.6400  143.5990 C   0  0  1  0  0  3  0  0  0  0  0  0
  188.9820  174.2850  142.9590 C   0  0  0  0  0  2  0  0  0  0  0  0
  189.6610  174.4230  141.6000 C   0  0  0  0  0  2  0  0  0  0  0  0
  189.3620  173.2310  140.7020 C   0  0  0  0  0  2  0  0  0  0  0  0
  188.0380  174.5750  138.1290 C   0  0  0  0  0  3  0  0  0  0  0  0
  190.7320  174.5170  134.8700 O   0  0  0  0  0  1  0  0  0  0  0  0
  189.8410  174.4940  135.9350 C   0  0  0  0  0  0  0  0  0  0  0  0
  191.3220  173.3050  137.5580 N   0  0  0  0  0  0  0  0  0  0  0  0
  189.9180  173.4140  139.3240 C   0  0  0  0  0  0  0  0  0  0  0  0
  187.6740  175.1170  136.8860 C   0  0  0  0  0  3  0  0  0  0  0  0
  188.1870  175.6450  134.5850 O   0  0  0  0  0  1  0  0  0  0  0  0
  194.4390  172.4490  136.2580 C   0  0  0  0  0  0  0  0  0  0  0  0
  191.1670  173.0080  138.8750 C   0  0  0  0  0  0  0  0  0  0  0  0
  190.1760  173.9240  137.1760 C   0  0  0  0  0  0  0  0  0  0  0  0
  192.4570  172.9260  136.7620 C   0  0  0  0  0  0  0  0  0  0  0  0
  193.6400  172.1730  135.1610 C   0  0  0  0  0  3  0  0  0  0  0  0
  188.5680  175.0830  135.7970 C   0  0  0  0  0  0  0  0  0  0  0  0
  192.3700  172.4850  135.4890 N   0  0  0  0  0  0  0  0  0  0  0  0
  193.6820  172.9000  137.2270 O   0  0  0  0  0  0  0  0  0  0  0  0
  189.3010  173.9970  138.2380 C   0  0  0  0  0  0  0  0  0  0  0  0
  196.5480  173.3530  137.1590 C   0  0  0  0  0  1  0  0  0  0  0  0
  196.2080  170.9060  137.0870 C   0  0  0  0  0  1  0  0  0  0  0  0
  195.9200  172.2170  136.3750 C   0  0  0  0  0  0  0  0  0  0  0  0
  196.5570  172.1630  134.9960 C   0  0  0  0  0  1  0  0  0  0  0  0
  192.1480  172.2300  139.6920 C   0  0  0  0  0  2  0  0  0  0  0  0
  190.8610  170.1200  139.6780 C   0  0  0  0  0  1  0  0  0  0  0  0
  192.1560  170.7790  139.2530 C   0  0  0  0  0  2  0  0  0  0  0  0
  187.1820  176.0110  143.4360 C   0  0  0  0  0  2  0  0  0  0  0  0
  186.8110  176.3630  141.9960 C   0  0  0  0  0  2  0  0  0  0  0  0
  187.0600  177.8370  141.6800 C   0  0  2  0  0  3  0  0  0  0  0  0
  188.5580  178.1240  141.6920 C   0  0  0  0  0  1  0  0  0  0  0  0
  186.9720  178.8980  143.8520 O   0  0  0  0  0  1  0  0  0  0  0  0
  186.3040  178.7740  142.6310 C   0  0  2  0  0  3  0  0  0  0  0  0
  184.8860  178.3380  142.8660 C   0  0  0  0  0  0  0  0  0  0  0  0
  184.3760  178.0380  144.1720 N   0  0  0  0  0  2  0  0  0  0  0  0
  184.1210  178.2220  141.8720 O   0  0  0  0  0  0  0  0  0  0  0  0
  185.1400  178.1470  145.4080 C   0  0  2  0  0  3  0  0  0  0  0  0
  185.0920  176.8160  146.1350 C   0  0  0  0  0  1  0  0  0  0  0  0
  184.5880  179.1420  146.2200 O   0  0  0  0  0  0  0  0  0  0  0  0
  185.2450  179.0180  147.4460 C   0  0  0  0  0  1  0  0  0  0  0  0
  189.1420  175.7730  145.0400 C   0  0  0  0  0  2  0  0  0  0  0  0
  190.4800  175.2150  145.1690 N   0  0  0  0  0  2  0  0  0  0  0  0
  191.4270  176.2520  144.7820 C   0  0  0  0  0  2  0  0  0  0  0  0
  192.3650  176.4480  145.7990 O   0  0  0  0  0  0  0  0  0  0  0  0
  192.6940  175.1650  146.2350 C   0  0  0  0  0  2  0  0  0  0  0  0
  195.7770  175.4380  144.5050 N   0  0  0  0  0  2  0  0  0  0  0  0
  195.1840  174.5790  143.4900 C   0  0  2  0  0  3  0  0  0  0  0  0
  193.8340  173.6660  144.2650 S   0  0  0  0  0  0  0  0  0  0  0  0
  194.7500  175.9070  145.2610 O   0  0  0  0  0  0  0  0  0  0  0  0
  194.0520  174.7690  145.6830 C   0  0  1  0  0  3  0  0  0  0  0  0
  196.2250  173.6320  142.8870 C   0  0  2  0  0  3  0  0  0  0  0  0
  195.1790  171.1790  141.9000 O   0  0  0  0  0  0  0  0  0  0  0  0
  196.2370  172.3630  143.6070 N   0  0  0  0  0  2  0  0  0  0  0  0
  195.7540  171.1510  143.0220 C   0  0  0  0  0  0  0  0  0  0  0  0
  195.9700  169.8510  143.7420 C   0  0  2  0  0  3  0  0  0  0  0  0
  197.9390  168.3510  143.5050 C   0  0  0  0  0  1  0  0  0  0  0  0
  196.6860  168.8730  142.8230 C   0  0  0  0  0  2  0  0  0  0  0  0
  194.6510  169.2480  144.2230 C   0  0  0  0  0  2  0  0  0  0  0  0
  194.1900  169.8810  145.5300 C   0  0  0  0  0  2  0  0  0  0  0  0
  194.7240  168.7780  147.5830 O   0  0  0  0  0  1  0  0  0  0  0  0
  195.2120  169.6800  146.6370 C   0  0  0  0  0  2  0  0  0  0  0  0
  197.9410  174.7530  144.1650 O   0  0  0  0  0  1  0  0  0  0  0  0
  197.6220  174.2660  142.8960 C   0  0  2  0  0  3  0  0  0  0  0  0
  197.7350  174.8370  140.4360 C   0  0  0  0  0  1  0  0  0  0  0  0
  197.7700  175.3770  141.8580 C   0  0  0  0  0  2  0  0  0  0  0  0
  1  2  1  1  0  0  0
  1 41  1  0  0  0  0
  3  2  1  0  0  0  0
  4  3  1  0  0  0  0
  5 20  1  0  0  0  0
  6  7  1  0  0  0  0
  7 14  1  0  0  0  0
  8 13  1  0  0  0  0
  9  4  1  0  0  0  0
 10  5  2  0  0  0  0
 11 17  1  0  0  0  0
 12 23  1  0  0  0  0
 12 19  1  0  0  0  0
 13  9  2  0  0  0  0
 13 25  1  0  0  0  0
 14  8  1  0  0  0  0
 14 20  2  0  0  0  0
 15 19  1  0  0  0  0
 15  8  1  0  0  0  0
 16 18  1  0  0  0  0
 16 12  2  0  0  0  0
 17  7  2  0  0  0  0
 17 10  1  0  0  0  0
 18 15  2  0  0  0  0
 20  9  1  0  0  0  0
 23 22  1  0  0  0  0
 23 21  1  0  0  0  0
 24 23  1  0  0  0  0
 27 26  1  0  0  0  0
 27 25  1  0  0  0  0
 28  1  1  0  0  0  0
 29 28  1  0  0  0  0
 30 31  1  1  0  0  0
 30 29  1  0  0  0  0
 30 33  1  0  0  0  0
 33 34  1  0  0  0  0
 33 32  1  1  0  0  0
 34 35  1  0  0  0  0
 35 37  1  0  0  0  0
 36 34  2  0  0  0  0
 37 38  1  1  0  0  0
 37 39  1  0  0  0  0
 39 40  1  0  0  0  0
 41 42  1  0  0  0  0
 43 42  1  0  0  0  0
 43 44  1  0  0  0  0
 44 45  1  0  0  0  0
 46 49  1  0  0  0  0
 47 51  1  1  0  0  0
 47 48  1  0  0  0  0
 47 46  1  0  0  0  0
 48 50  1  0  0  0  0
 49 50  1  0  0  0  0
 50 45  1  6  0  0  0
 51 63  1  0  0  0  0
 51 53  1  1  0  0  0
 52 54  2  0  0  0  0
 54 53  1  0  0  0  0
 54 55  1  0  0  0  0
 55 57  1  6  0  0  0
 55 58  1  0  0  0  0
 57 56  1  0  0  0  0
 58 59  1  0  0  0  0
 59 61  1  0  0  0  0
 61 60  1  0  0  0  0
 63 62  1  1  0  0  0
 64 65  1  0  0  0  0
 65 63  1  0  0  0  0
M  END
>  <MODEL>
6

>  <REMARK>
 VINA RESULT:      -3.9      2.495     10.421
  Name = 
  29 active torsions:
  status: ('A' for Active; 'I' for Inactive)
    1  A    between atoms: N_1  and  C_23
    2  A    between atoms: N_1  and  C_41
    3  A    between atoms: C_2  and  N_15
    4  A    between atoms: C_2  and  O_25
    5  A    between atoms: C_4  and  C_60
    6  A    between atoms: C_5  and  C_6
    7  A    between atoms: C_5  and  C_12
    8  A    between atoms: C_5  and  C_23
    9  A    between atoms: C_6  and  C_14
   10  A    between atoms: C_11  and  C_49
   11  A    between atoms: C_12  and  C_40
   12  A    between atoms: C_14  and  C_43
   13  A    between atoms: C_19  and  C_21
   14  A    between atoms: C_19  and  C_58
   15  A    between atoms: C_21  and  C_26
   16  A    between atoms: N_22  and  C_49
   17  A    between atoms: C_27  and  C_43
   18  A    between atoms: C_29  and  C_40
   19  A    between atoms: C_29  and  C_60
   20  A    between atoms: C_33  and  C_47
   21  A    between atoms: C_36  and  C_56
   22  A    between atoms: C_37  and  O_46
   23  A    between atoms: C_37  and  C_65
   24  A    between atoms: C_41  and  O_46
   25  A    between atoms: C_45  and  C_56
   26  A    between atoms: C_49  and  C_52
   27  A    between atoms: C_52  and  C_64
   28  A    between atoms: C_58  and  C_61
   29  A    between atoms: C_58  and  C_62
                            x       y       z     vdW  Elec       q    Type
                         _______ _______ _______ _____ _____    ______ ____

>  <TORSDO>
F 29

$$$$
=
 OpenBabel11042416383D

 65 68  0  0  1  0  0  0  0  0999 V2000
  195.1810  171.5290  140.9950 C   0  0  1  0  0  3  0  0  0  0  0  0
  194.7370  170.7720  142.2530 C   0  0  0  0  0  2  0  0  0  0  0  0
  193.9030  171.6330  143.1970 C   0  0  0  0  0  2  0  0  0  0  0  0
  193.1030  172.6820  142.4380 C   0  0  0  0  0  2  0  0  0  0  0  0
  195.1370  174.9220  143.4480 C   0  0  0  0  0  3  0  0  0  0  0  0
  193.0980  177.8930  145.6610 O   0  0  0  0  0  1  0  0  0  0  0  0
  193.7640  176.8910  144.9670 C   0  0  0  0  0  0  0  0  0  0  0  0
  191.7760  175.4420  144.5240 N   0  0  0  0  0  0  0  0  0  0  0  0
  192.8490  173.9020  143.2680 C   0  0  0  0  0  0  0  0  0  0  0  0
  195.8310  176.0150  143.9920 C   0  0  0  0  0  3  0  0  0  0  0  0
  195.8600  178.0770  145.2510 O   0  0  0  0  0  1  0  0  0  0  0  0
  188.8040  176.6830  145.8520 C   0  0  0  0  0  0  0  0  0  0  0  0
  191.6300  174.3070  143.7910 C   0  0  0  0  0  0  0  0  0  0  0  0
  193.0910  175.7710  144.4460 C   0  0  0  0  0  0  0  0  0  0  0  0
  190.7300  176.0670  145.2870 C   0  0  0  0  0  0  0  0  0  0  0  0
  189.6730  176.9950  146.8830 C   0  0  0  0  0  3  0  0  0  0  0  0
  195.1510  176.9960  144.7420 C   0  0  0  0  0  0  0  0  0  0  0  0
  190.9080  176.6000  146.5130 N   0  0  0  0  0  0  0  0  0  0  0  0
  189.4810  176.1050  144.8910 O   0  0  0  0  0  0  0  0  0  0  0  0
  193.7670  174.8400  143.6870 C   0  0  0  0  0  0  0  0  0  0  0  0
  187.0170  178.3810  145.8720 C   0  0  0  0  0  1  0  0  0  0  0  0
  186.6990  176.3000  144.5780 C   0  0  0  0  0  1  0  0  0  0  0  0
  187.3150  176.8950  145.8320 C   0  0  0  0  0  0  0  0  0  0  0  0
  186.6720  176.2350  147.0400 C   0  0  0  0  0  1  0  0  0  0  0  0
  190.3580  173.5290  143.6770 C   0  0  0  0  0  2  0  0  0  0  0  0
  189.8280  172.0630  145.5960 C   0  0  0  0  0  1  0  0  0  0  0  0
  190.5420  172.1440  144.2640 C   0  0  0  0  0  2  0  0  0  0  0  0
  196.7010  171.6620  140.9120 C   0  0  0  0  0  2  0  0  0  0  0  0
  197.1630  173.1040  140.7080 C   0  0  0  0  0  2  0  0  0  0  0  0
  196.7750  173.6450  139.3320 C   0  0  2  0  0  3  0  0  0  0  0  0
  197.9410  173.4800  138.3630 C   0  0  0  0  0  1  0  0  0  0  0  0
  196.6930  175.7130  140.5840 O   0  0  0  0  0  1  0  0  0  0  0  0
  196.2980  175.1020  139.3910 C   0  0  2  0  0  3  0  0  0  0  0  0
  194.8120  175.2310  139.2160 C   0  0  0  0  0  0  0  0  0  0  0  0
  194.1990  175.4420  137.9380 N   0  0  0  0  0  2  0  0  0  0  0  0
  194.0790  175.1630  140.2390 O   0  0  0  0  0  0  0  0  0  0  0  0
  194.9200  175.5230  136.6730 C   0  0  2  0  0  3  0  0  0  0  0  0
  194.3890  176.7020  135.8790 C   0  0  0  0  0  1  0  0  0  0  0  0
  194.7300  174.3450  135.9440 O   0  0  0  0  0  0  0  0  0  0  0  0
  195.4790  174.5150  134.7780 C   0  0  0  0  0  1  0  0  0  0  0  0
  194.5630  170.9960  139.7060 C   0  0  0  0  0  2  0  0  0  0  0  0
  194.5020  169.5420  139.7440 N   0  0  0  0  0  2  0  0  0  0  0  0
  193.1140  169.1650  139.9720 C   0  0  0  0  0  2  0  0  0  0  0  0
  192.7000  168.2480  139.0030 O   0  0  0  0  0  0  0  0  0  0  0  0
  192.5270  169.0060  137.8440 C   0  0  0  0  0  2  0  0  0  0  0  0
  189.8870  171.3710  137.9350 N   0  0  0  0  0  2  0  0  0  0  0  0
  190.6690  172.1500  136.9860 C   0  0  2  0  0  3  0  0  0  0  0  0
  192.3920  171.6350  137.1400 S   0  0  0  0  0  0  0  0  0  0  0  0
  190.4100  170.1170  137.9270 O   0  0  0  0  0  0  0  0  0  0  0  0
  191.7780  170.2830  138.1750 C   0  0  1  0  0  3  0  0  0  0  0  0
  190.5120  173.6520  137.2370 C   0  0  2  0  0  3  0  0  0  0  0  0
  191.1280  173.7510  140.0100 O   0  0  0  0  0  0  0  0  0  0  0  0
  189.5460  173.8930  138.3030 N   0  0  0  0  0  2  0  0  0  0  0  0
  189.9370  173.9960  139.6750 C   0  0  0  0  0  0  0  0  0  0  0  0
  188.9260  174.4330  140.6960 C   0  0  2  0  0  3  0  0  0  0  0  0
  187.5100  173.2330  142.3490 C   0  0  0  0  0  1  0  0  0  0  0  0
  187.8840  173.3420  140.8810 C   0  0  0  0  0  2  0  0  0  0  0  0
  188.2480  175.7430  140.2930 C   0  0  0  0  0  2  0  0  0  0  0  0
  187.5790  176.4160  141.4850 C   0  0  0  0  0  2  0  0  0  0  0  0
  188.7900  178.3260  142.2650 O   0  0  0  0  0  1  0  0  0  0  0  0
  187.7420  177.9270  141.4340 C   0  0  0  0  0  2  0  0  0  0  0  0
  189.9930  173.5000  134.8820 O   0  0  0  0  0  1  0  0  0  0  0  0
  190.0890  174.3860  135.9570 C   0  0  2  0  0  3  0  0  0  0  0  0
  190.3650  176.5510  134.6810 C   0  0  0  0  0  1  0  0  0  0  0  0
  191.0280  175.5380  135.6020 C   0  0  0  0  0  2  0  0  0  0  0  0
  1 41  1  6  0  0  0
  1  2  1  0  0  0  0
  2  3  1  0  0  0  0
  4  3  1  0  0  0  0
  4  9  1  0  0  0  0
  5 20  2  0  0  0  0
  5 10  1  0  0  0  0
  7  6  1  0  0  0  0
  8 15  1  0  0  0  0
  9 20  1  0  0  0  0
  9 13  2  0  0  0  0
 10 17  2  0  0  0  0
 12 16  2  0  0  0  0
 13  8  1  0  0  0  0
 14  8  1  0  0  0  0
 14  7  2  0  0  0  0
 15 18  2  0  0  0  0
 17  7  1  0  0  0  0
 17 11  1  0  0  0  0
 18 16  1  0  0  0  0
 19 15  1  0  0  0  0
 19 12  1  0  0  0  0
 20 14  1  0  0  0  0
 22 23  1  0  0  0  0
 23 12  1  0  0  0  0
 23 21  1  0  0  0  0
 23 24  1  0  0  0  0
 25 13  1  0  0  0  0
 25 27  1  0  0  0  0
 27 26  1  0  0  0  0
 28  1  1  0  0  0  0
 29 28  1  0  0  0  0
 30 31  1  6  0  0  0
 30 33  1  0  0  0  0
 30 29  1  0  0  0  0
 33 32  1  1  0  0  0
 34 33  1  0  0  0  0
 34 36  2  0  0  0  0
 35 34  1  0  0  0  0
 37 38  1  6  0  0  0
 37 35  1  0  0  0  0
 39 37  1  0  0  0  0
 40 39  1  0  0  0  0
 41 42  1  0  0  0  0
 42 43  1  0  0  0  0
 44 43  1  0  0  0  0
 45 44  1  0  0  0  0
 47 48  1  0  0  0  0
 47 51  1  1  0  0  0
 47 46  1  0  0  0  0
 48 50  1  0  0  0  0
 49 46  1  0  0  0  0
 49 50  1  0  0  0  0
 50 45  1  6  0  0  0
 51 53  1  1  0  0  0
 53 54  1  0  0  0  0
 54 52  2  0  0  0  0
 54 55  1  0  0  0  0
 55 58  1  6  0  0  0
 55 57  1  0  0  0  0
 57 56  1  0  0  0  0
 58 59  1  0  0  0  0
 61 59  1  0  0  0  0
 61 60  1  0  0  0  0
 63 62  1  6  0  0  0
 63 51  1  0  0  0  0
 64 65  1  0  0  0  0
 65 63  1  0  0  0  0
M  END
>  <MODEL>
7

>  <REMARK>
 VINA RESULT:      -3.5      2.525      5.568
  Name = 
  29 active torsions:
  status: ('A' for Active; 'I' for Inactive)
    1  A    between atoms: N_1  and  C_23
    2  A    between atoms: N_1  and  C_41
    3  A    between atoms: C_2  and  N_15
    4  A    between atoms: C_2  and  O_25
    5  A    between atoms: C_4  and  C_60
    6  A    between atoms: C_5  and  C_6
    7  A    between atoms: C_5  and  C_12
    8  A    between atoms: C_5  and  C_23
    9  A    between atoms: C_6  and  C_14
   10  A    between atoms: C_11  and  C_49
   11  A    between atoms: C_12  and  C_40
   12  A    between atoms: C_14  and  C_43
   13  A    between atoms: C_19  and  C_21
   14  A    between atoms: C_19  and  C_58
   15  A    between atoms: C_21  and  C_26
   16  A    between atoms: N_22  and  C_49
   17  A    between atoms: C_27  and  C_43
   18  A    between atoms: C_29  and  C_40
   19  A    between atoms: C_29  and  C_60
   20  A    between atoms: C_33  and  C_47
   21  A    between atoms: C_36  and  C_56
   22  A    between atoms: C_37  and  O_46
   23  A    between atoms: C_37  and  C_65
   24  A    between atoms: C_41  and  O_46
   25  A    between atoms: C_45  and  C_56
   26  A    between atoms: C_49  and  C_52
   27  A    between atoms: C_52  and  C_64
   28  A    between atoms: C_58  and  C_61
   29  A    between atoms: C_58  and  C_62
                            x       y       z     vdW  Elec       q    Type
                         _______ _______ _______ _____ _____    ______ ____

>  <TORSDO>
F 29

$$$$
=
 OpenBabel11042416383D

 65 68  0  0  1  0  0  0  0  0999 V2000
  195.1340  175.4750  140.8820 C   0  0  1  0  0  3  0  0  0  0  0  0
  194.7550  176.6520  141.7890 C   0  0  0  0  0  2  0  0  0  0  0  0
  193.7510  176.2650  142.8700 C   0  0  0  0  0  2  0  0  0  0  0  0
  192.3270  176.6180  142.4630 C   0  0  0  0  0  2  0  0  0  0  0  0
  192.9550  176.2160  145.5650 C   0  0  0  0  0  3  0  0  0  0  0  0
  189.5060  176.9740  147.8900 O   0  0  0  0  0  1  0  0  0  0  0  0
  190.6210  176.6880  147.1140 C   0  0  0  0  0  0  0  0  0  0  0  0
  189.5580  177.0670  144.8840 N   0  0  0  0  0  0  0  0  0  0  0  0
  191.4220  176.7490  143.6480 C   0  0  0  0  0  0  0  0  0  0  0  0
  192.9930  176.1040  146.9640 C   0  0  0  0  0  3  0  0  0  0  0  0
  191.9110  176.2440  149.1200 O   0  0  0  0  0  1  0  0  0  0  0  0
  186.1930  177.9530  145.0590 C   0  0  0  0  0  0  0  0  0  0  0  0
  190.0730  177.0740  143.6270 C   0  0  0  0  0  0  0  0  0  0  0  0
  190.5920  176.7610  145.7100 C   0  0  0  0  0  0  0  0  0  0  0  0
  188.1700  177.2590  145.2030 C   0  0  0  0  0  0  0  0  0  0  0  0
  186.2380  176.9940  146.0570 C   0  0  0  0  0  3  0  0  0  0  0  0
  191.8390  176.3420  147.7350 C   0  0  0  0  0  0  0  0  0  0  0  0
  187.5100  176.5550  146.1470 N   0  0  0  0  0  0  0  0  0  0  0  0
  187.3920  178.0850  144.5480 O   0  0  0  0  0  0  0  0  0  0  0  0
  191.7390  176.5570  144.9750 C   0  0  0  0  0  0  0  0  0  0  0  0
  183.9120  178.6740  145.6520 C   0  0  0  0  0  1  0  0  0  0  0  0
  185.3150  180.1300  144.2310 C   0  0  0  0  0  1  0  0  0  0  0  0
  184.9760  178.6900  144.5710 C   0  0  0  0  0  0  0  0  0  0  0  0
  184.4190  178.0210  143.3260 C   0  0  0  0  0  1  0  0  0  0  0  0
  189.2680  177.2690  142.3820 C   0  0  0  0  0  2  0  0  0  0  0  0
  187.4100  176.3710  141.0200 C   0  0  0  0  0  1  0  0  0  0  0  0
  188.3750  176.0670  142.1470 C   0  0  0  0  0  2  0  0  0  0  0  0
  194.9900  174.1310  141.5960 C   0  0  0  0  0  2  0  0  0  0  0  0
  196.2380  173.7380  142.3850 C   0  0  0  0  0  2  0  0  0  0  0  0
  195.9360  173.5120  143.8660 C   0  0  2  0  0  3  0  0  0  0  0  0
  196.3810  174.7250  144.6770 C   0  0  0  0  0  1  0  0  0  0  0  0
  197.9410  172.3770  144.6020 O   0  0  0  0  0  1  0  0  0  0  0  0
  196.5670  172.2200  144.4010 C   0  0  2  0  0  3  0  0  0  0  0  0
  196.3130  171.0400  143.5070 C   0  0  0  0  0  0  0  0  0  0  0  0
  195.0670  170.3310  143.4980 N   0  0  0  0  0  2  0  0  0  0  0  0
  197.2390  170.6520  142.7460 O   0  0  0  0  0  0  0  0  0  0  0  0
  193.9070  170.6790  144.3100 C   0  0  2  0  0  3  0  0  0  0  0  0
  194.2530  170.4760  145.7740 C   0  0  0  0  0  1  0  0  0  0  0  0
  192.8260  169.8600  143.9680 O   0  0  0  0  0  0  0  0  0  0  0  0
  192.9140  169.7010  142.5840 C   0  0  0  0  0  1  0  0  0  0  0  0
  194.4420  175.4980  139.5220 C   0  0  0  0  0  2  0  0  0  0  0  0
  195.3080  174.9070  138.5110 N   0  0  0  0  0  2  0  0  0  0  0  0
  196.6830  175.0750  138.9570 C   0  0  0  0  0  2  0  0  0  0  0  0
  197.5650  174.7820  137.9140 O   0  0  0  0  0  0  0  0  0  0  0  0
  196.7510  174.3460  136.8690 C   0  0  0  0  0  2  0  0  0  0  0  0
  196.4610  170.8310  136.5030 N   0  0  0  0  0  2  0  0  0  0  0  0
  195.1430  171.0850  135.9420 C   0  0  2  0  0  3  0  0  0  0  0  0
  194.6020  172.7060  136.5240 S   0  0  0  0  0  0  0  0  0  0  0  0
  197.1260  172.0150  136.4770 O   0  0  0  0  0  0  0  0  0  0  0  0
  196.2910  172.9250  137.1370 C   0  0  1  0  0  3  0  0  0  0  0  0
  194.1490  169.9910  136.3400 C   0  0  2  0  0  3  0  0  0  0  0  0
  191.7380  168.7340  135.5080 O   0  0  0  0  0  0  0  0  0  0  0  0
  192.8120  170.5500  136.5020 N   0  0  0  0  0  2  0  0  0  0  0  0
  191.6350  169.8320  136.1210 C   0  0  0  0  0  0  0  0  0  0  0  0
  190.2870  170.3820  136.4890 C   0  0  2  0  0  3  0  0  0  0  0  0
  189.8370  171.9350  134.6010 C   0  0  0  0  0  1  0  0  0  0  0  0
  190.2020  171.8420  136.0730 C   0  0  0  0  0  2  0  0  0  0  0  0
  190.0130  170.2470  137.9870 C   0  0  0  0  0  2  0  0  0  0  0  0
  190.4660  171.4840  138.7520 C   0  0  0  0  0  2  0  0  0  0  0  0
  189.9040  170.3370  140.7740 O   0  0  0  0  0  1  0  0  0  0  0  0
  190.8770  171.1390  140.1750 C   0  0  0  0  0  2  0  0  0  0  0  0
  193.7900  168.1680  137.8840 O   0  0  0  0  0  1  0  0  0  0  0  0
  194.5920  169.2810  137.6270 C   0  0  2  0  0  3  0  0  0  0  0  0
  195.8040  169.9720  139.7350 C   0  0  0  0  0  1  0  0  0  0  0  0
  194.5990  170.2120  138.8380 C   0  0  0  0  0  2  0  0  0  0  0  0
  1 41  1  6  0  0  0
  1 28  1  0  0  0  0
  1  2  1  0  0  0  0
  2  3  1  0  0  0  0
  4  3  1  0  0  0  0
  4  9  1  0  0  0  0
  5 10  1  0  0  0  0
  7 17  1  0  0  0  0
  7  6  1  0  0  0  0
  8 15  1  0  0  0  0
  8 14  1  0  0  0  0
  9 20  1  0  0  0  0
 10 17  2  0  0  0  0
 12 16  2  0  0  0  0
 13  9  2  0  0  0  0
 13  8  1  0  0  0  0
 14  7  2  0  0  0  0
 15 18  2  0  0  0  0
 16 18  1  0  0  0  0
 17 11  1  0  0  0  0
 19 12  1  0  0  0  0
 19 15  1  0  0  0  0
 20  5  2  0  0  0  0
 20 14  1  0  0  0  0
 22 23  1  0  0  0  0
 23 12  1  0  0  0  0
 23 21  1  0  0  0  0
 24 23  1  0  0  0  0
 25 13  1  0  0  0  0
 26 27  1  0  0  0  0
 27 25  1  0  0  0  0
 28 29  1  0  0  0  0
 29 30  1  0  0  0  0
 30 33  1  0  0  0  0
 30 31  1  1  0  0  0
 33 32  1  6  0  0  0
 34 33  1  0  0  0  0
 35 34  1  0  0  0  0
 35 37  1  0  0  0  0
 36 34  2  0  0  0  0
 37 38  1  1  0  0  0
 39 37  1  0  0  0  0
 40 39  1  0  0  0  0
 42 43  1  0  0  0  0
 42 41  1  0  0  0  0
 44 43  1  0  0  0  0
 45 44  1  0  0  0  0
 47 51  1  1  0  0  0
 47 46  1  0  0  0  0
 47 48  1  0  0  0  0
 48 50  1  0  0  0  0
 49 46  1  0  0  0  0
 49 50  1  0  0  0  0
 50 45  1  6  0  0  0
 51 53  1  1  0  0  0
 51 63  1  0  0  0  0
 52 54  2  0  0  0  0
 54 55  1  0  0  0  0
 54 53  1  0  0  0  0
 55 57  1  1  0  0  0
 55 58  1  0  0  0  0
 56 57  1  0  0  0  0
 58 59  1  0  0  0  0
 59 61  1  0  0  0  0
 61 60  1  0  0  0  0
 63 62  1  1  0  0  0
 63 65  1  0  0  0  0
 65 64  1  0  0  0  0
M  END
>  <MODEL>
8

>  <REMARK>
 VINA RESULT:      -3.5      1.510      2.099
  Name = 
  29 active torsions:
  status: ('A' for Active; 'I' for Inactive)
    1  A    between atoms: N_1  and  C_23
    2  A    between atoms: N_1  and  C_41
    3  A    between atoms: C_2  and  N_15
    4  A    between atoms: C_2  and  O_25
    5  A    between atoms: C_4  and  C_60
    6  A    between atoms: C_5  and  C_6
    7  A    between atoms: C_5  and  C_12
    8  A    between atoms: C_5  and  C_23
    9  A    between atoms: C_6  and  C_14
   10  A    between atoms: C_11  and  C_49
   11  A    between atoms: C_12  and  C_40
   12  A    between atoms: C_14  and  C_43
   13  A    between atoms: C_19  and  C_21
   14  A    between atoms: C_19  and  C_58
   15  A    between atoms: C_21  and  C_26
   16  A    between atoms: N_22  and  C_49
   17  A    between atoms: C_27  and  C_43
   18  A    between atoms: C_29  and  C_40
   19  A    between atoms: C_29  and  C_60
   20  A    between atoms: C_33  and  C_47
   21  A    between atoms: C_36  and  C_56
   22  A    between atoms: C_37  and  O_46
   23  A    between atoms: C_37  and  C_65
   24  A    between atoms: C_41  and  O_46
   25  A    between atoms: C_45  and  C_56
   26  A    between atoms: C_49  and  C_52
   27  A    between atoms: C_52  and  C_64
   28  A    between atoms: C_58  and  C_61
   29  A    between atoms: C_58  and  C_62
                            x       y       z     vdW  Elec       q    Type
                         _______ _______ _______ _____ _____    ______ ____

>  <TORSDO>
F 29

$$$$
=
 OpenBabel11042416383D

 65 68  0  0  1  0  0  0  0  0999 V2000
  192.7560  175.5490  143.0530 C   0  0  1  0  0  3  0  0  0  0  0  0
  194.0330  176.0930  143.7040 C   0  0  0  0  0  2  0  0  0  0  0  0
  194.7020  175.0830  144.6300 C   0  0  0  0  0  2  0  0  0  0  0  0
  196.1640  174.8690  144.2640 C   0  0  0  0  0  2  0  0  0  0  0  0
  196.6270  172.0340  145.6500 C   0  0  0  0  0  3  0  0  0  0  0  0
  197.0820  169.0090  142.7300 O   0  0  0  0  0  1  0  0  0  0  0  0
  196.9710  170.0160  143.6800 C   0  0  0  0  0  0  0  0  0  0  0  0
  196.7270  171.9250  142.0860 N   0  0  0  0  0  0  0  0  0  0  0  0
  196.3960  173.5270  143.6430 C   0  0  0  0  0  0  0  0  0  0  0  0
  196.8400  170.6980  146.0270 C   0  0  0  0  0  3  0  0  0  0  0  0
  197.1950  168.3780  145.4540 O   0  0  0  0  0  1  0  0  0  0  0  0
  196.8560  170.9870  138.7330 C   0  0  0  0  0  0  0  0  0  0  0  0
  196.4690  173.2440  142.2870 C   0  0  0  0  0  0  0  0  0  0  0  0
  196.7940  171.3640  143.3200 C   0  0  0  0  0  0  0  0  0  0  0  0
  196.9670  171.3230  140.8030 C   0  0  0  0  0  0  0  0  0  0  0  0
  197.8420  170.1630  139.2480 C   0  0  0  0  0  3  0  0  0  0  0  0
  197.0060  169.6940  145.0520 C   0  0  0  0  0  0  0  0  0  0  0  0
  197.9060  170.3800  140.5770 N   0  0  0  0  0  0  0  0  0  0  0  0
  196.3450  171.6940  139.7100 O   0  0  0  0  0  0  0  0  0  0  0  0
  196.6000  172.3260  144.2880 C   0  0  0  0  0  0  0  0  0  0  0  0
  194.9510  171.0260  137.1690 C   0  0  0  0  0  1  0  0  0  0  0  0
  196.9150  172.4580  136.7260 C   0  0  0  0  0  1  0  0  0  0  0  0
  196.4600  171.1230  137.2890 C   0  0  0  0  0  0  0  0  0  0  0  0
  197.0890  170.0150  136.4610 C   0  0  0  0  0  1  0  0  0  0  0  0
  196.4090  174.2720  141.2020 C   0  0  0  0  0  2  0  0  0  0  0  0
  197.7340  175.7310  139.7100 C   0  0  0  0  0  1  0  0  0  0  0  0
  197.8070  174.7460  140.8570 C   0  0  0  0  0  2  0  0  0  0  0  0
  193.0150  175.0060  141.6480 C   0  0  0  0  0  2  0  0  0  0  0  0
  191.9550  174.0030  141.1920 C   0  0  0  0  0  2  0  0  0  0  0  0
  192.4640  173.0950  140.0730 C   0  0  2  0  0  3  0  0  0  0  0  0
  192.7790  173.9260  138.8340 C   0  0  0  0  0  1  0  0  0  0  0  0
  190.5810  172.3410  138.7570 O   0  0  0  0  0  1  0  0  0  0  0  0
  191.4850  171.9590  139.7520 C   0  0  2  0  0  3  0  0  0  0  0  0
  190.7400  171.4780  140.9630 C   0  0  0  0  0  0  0  0  0  0  0  0
  191.1990  170.3850  141.7710 N   0  0  0  0  0  2  0  0  0  0  0  0
  189.6620  172.0510  141.2720 O   0  0  0  0  0  0  0  0  0  0  0  0
  192.4340  169.6450  141.5420 C   0  0  2  0  0  3  0  0  0  0  0  0
  192.1890  168.1770  141.8380 C   0  0  0  0  0  1  0  0  0  0  0  0
  193.4390  170.1290  142.3850 O   0  0  0  0  0  0  0  0  0  0  0  0
  193.4010  169.3020  143.5090 C   0  0  0  0  0  1  0  0  0  0  0  0
  191.9870  174.5670  143.9330 C   0  0  0  0  0  2  0  0  0  0  0  0
  192.6470  174.4290  145.2230 N   0  0  0  0  0  2  0  0  0  0  0  0
  191.6200  174.5100  146.2530 C   0  0  0  0  0  2  0  0  0  0  0  0
  192.1250  175.1560  147.3840 O   0  0  0  0  0  0  0  0  0  0  0  0
  191.6800  176.4730  147.2730 C   0  0  0  0  0  2  0  0  0  0  0  0
  188.3260  175.3230  147.2410 N   0  0  0  0  0  2  0  0  0  0  0  0
  188.1960  176.0030  145.9610 C   0  0  2  0  0  3  0  0  0  0  0  0
  189.4770  177.2720  145.8810 S   0  0  0  0  0  0  0  0  0  0  0  0
  189.6580  175.2120  147.4850 O   0  0  0  0  0  0  0  0  0  0  0  0
  190.1660  176.5120  147.3720 C   0  0  1  0  0  3  0  0  0  0  0  0
  186.8010  176.6090  145.7910 C   0  0  2  0  0  3  0  0  0  0  0  0
  188.2600  177.5990  143.5620 O   0  0  0  0  0  0  0  0  0  0  0  0
  186.3710  176.5200  144.4000 N   0  0  0  0  0  2  0  0  0  0  0  0
  187.1880  176.9800  143.3210 C   0  0  0  0  0  0  0  0  0  0  0  0
  186.7720  176.6860  141.9070 C   0  0  2  0  0  3  0  0  0  0  0  0
  188.0330  175.2210  140.3450 C   0  0  0  0  0  1  0  0  0  0  0  0
  188.0060  176.5790  141.0260 C   0  0  0  0  0  2  0  0  0  0  0  0
  185.8300  177.7600  141.3630 C   0  0  0  0  0  2  0  0  0  0  0  0
  184.5840  177.9020  142.2270 C   0  0  0  0  0  2  0  0  0  0  0  0
  183.5270  177.8600  140.0830 O   0  0  0  0  0  1  0  0  0  0  0  0
  183.3740  178.3020  141.3980 C   0  0  0  0  0  2  0  0  0  0  0  0
  186.3830  178.1460  147.6080 O   0  0  0  0  0  1  0  0  0  0  0  0
  186.7690  178.0680  146.2680 C   0  0  2  0  0  3  0  0  0  0  0  0
  184.5790  179.3240  146.1380 C   0  0  0  0  0  1  0  0  0  0  0  0
  185.8600  178.9470  145.4100 C   0  0  0  0  0  2  0  0  0  0  0  0
  1 28  1  6  0  0  0
  1  2  1  0  0  0  0
  1 41  1  0  0  0  0
  2  3  1  0  0  0  0
  4  3  1  0  0  0  0
  5 10  1  0  0  0  0
  6  7  1  0  0  0  0
  7 17  1  0  0  0  0
  8 13  1  0  0  0  0
  8 14  1  0  0  0  0
  9  4  1  0  0  0  0
  9 20  1  0  0  0  0
 12 16  2  0  0  0  0
 12 19  1  0  0  0  0
 13  9  2  0  0  0  0
 14  7  2  0  0  0  0
 14 20  1  0  0  0  0
 15  8  1  0  0  0  0
 16 18  1  0  0  0  0
 17 11  1  0  0  0  0
 17 10  2  0  0  0  0
 18 15  2  0  0  0  0
 19 15  1  0  0  0  0
 20  5  2  0  0  0  0
 21 23  1  0  0  0  0
 22 23  1  0  0  0  0
 23 12  1  0  0  0  0
 24 23  1  0  0  0  0
 25 13  1  0  0  0  0
 26 27  1  0  0  0  0
 27 25  1  0  0  0  0
 29 28  1  0  0  0  0
 30 31  1  6  0  0  0
 30 29  1  0  0  0  0
 33 32  1  6  0  0  0
 33 30  1  0  0  0  0
 33 34  1  0  0  0  0
 34 36  2  0  0  0  0
 34 35  1  0  0  0  0
 37 35  1  0  0  0  0
 37 38  1  1  0  0  0
 37 39  1  0  0  0  0
 39 40  1  0  0  0  0
 41 42  1  0  0  0  0
 42 43  1  0  0  0  0
 43 44  1  0  0  0  0
 45 44  1  0  0  0  0
 46 49  1  0  0  0  0
 47 51  1  1  0  0  0
 47 46  1  0  0  0  0
 48 47  1  0  0  0  0
 48 50  1  0  0  0  0
 50 45  1  6  0  0  0
 50 49  1  0  0  0  0
 51 53  1  6  0  0  0
 51 63  1  0  0  0  0
 54 52  2  0  0  0  0
 54 53  1  0  0  0  0
 55 57  1  6  0  0  0
 55 54  1  0  0  0  0
 56 57  1  0  0  0  0
 58 55  1  0  0  0  0
 58 59  1  0  0  0  0
 60 61  1  0  0  0  0
 61 59  1  0  0  0  0
 63 62  1  1  0  0  0
 65 64  1  0  0  0  0
 65 63  1  0  0  0  0
M  END
>  <MODEL>
9

>  <REMARK>
 VINA RESULT:      -3.4      2.617      9.619
  Name = 
  29 active torsions:
  status: ('A' for Active; 'I' for Inactive)
    1  A    between atoms: N_1  and  C_23
    2  A    between atoms: N_1  and  C_41
    3  A    between atoms: C_2  and  N_15
    4  A    between atoms: C_2  and  O_25
    5  A    between atoms: C_4  and  C_60
    6  A    between atoms: C_5  and  C_6
    7  A    between atoms: C_5  and  C_12
    8  A    between atoms: C_5  and  C_23
    9  A    between atoms: C_6  and  C_14
   10  A    between atoms: C_11  and  C_49
   11  A    between atoms: C_12  and  C_40
   12  A    between atoms: C_14  and  C_43
   13  A    between atoms: C_19  and  C_21
   14  A    between atoms: C_19  and  C_58
   15  A    between atoms: C_21  and  C_26
   16  A    between atoms: N_22  and  C_49
   17  A    between atoms: C_27  and  C_43
   18  A    between atoms: C_29  and  C_40
   19  A    between atoms: C_29  and  C_60
   20  A    between atoms: C_33  and  C_47
   21  A    between atoms: C_36  and  C_56
   22  A    between atoms: C_37  and  O_46
   23  A    between atoms: C_37  and  C_65
   24  A    between atoms: C_41  and  O_46
   25  A    between atoms: C_45  and  C_56
   26  A    between atoms: C_49  and  C_52
   27  A    between atoms: C_52  and  C_64
   28  A    between atoms: C_58  and  C_61
   29  A    between atoms: C_58  and  C_62
                            x       y       z     vdW  Elec       q    Type
                         _______ _______ _______ _____ _____    ______ ____

>  <TORSDO>
F 29

$$$$
