=
 OpenBabel11042415473D

 54 61  0  0  1  0  0  0  0  0999 V2000
  188.9220  175.9160  144.2360 C   0  0  0  0  0  2  0  0  0  0  0  0
  187.1920  177.0920  142.0370 C   0  0  0  0  0  0  0  0  0  0  0  0
  189.3360  176.0790  142.8140 C   0  0  0  0  0  0  0  0  0  0  0  0
  188.5370  177.2690  144.7620 C   0  0  1  0  0  3  0  0  0  0  0  0
  185.2090  177.7020  140.7950 N   0  0  0  0  0  0  0  0  0  0  0  0
  186.4850  177.2310  140.8270 C   0  0  0  0  0  3  0  0  0  0  0  0
  182.9670  178.8450  143.6480 S   0  0  0  0  0  0  0  0  0  0  0  0
  183.2980  178.5390  142.0270 C   0  0  0  0  0  0  0  0  0  0  0  0
  188.5350  176.5850  141.9200 N   0  0  0  0  0  0  0  0  0  0  0  0
  185.2310  177.9470  143.1820 C   0  0  0  0  0  0  0  0  0  0  0  0
  184.5850  178.0490  141.9450 C   0  0  0  0  0  0  0  0  0  0  0  0
  184.4630  178.3570  144.2740 C   0  0  0  0  0  3  0  0  0  0  0  0
  186.5540  177.4910  143.2540 C   0  0  0  0  0  0  0  0  0  0  0  0
  187.1590  177.4790  144.5200 O   0  0  0  0  0  0  0  0  0  0  0  0
  190.6970  175.6620  142.4070 C   0  0  0  0  0  0  0  0  0  0  0  0
  191.8200  176.4120  142.7850 C   0  0  0  0  0  3  0  0  0  0  0  0
  190.8810  174.5150  141.6170 C   0  0  0  0  0  3  0  0  0  0  0  0
  193.1010  176.0300  142.3790 C   0  0  0  0  0  3  0  0  0  0  0  0
  192.1610  174.1270  141.2150 C   0  0  0  0  0  3  0  0  0  0  0  0
  193.2780  174.8780  141.5970 C   0  0  0  0  0  0  0  0  0  0  0  0
  194.5750  173.1000  140.4540 C   0  0  0  0  0  2  0  0  0  0  0  0
  195.6730  173.0970  139.4150 C   0  0  0  0  0  2  0  0  0  0  0  0
  196.6990  175.4370  140.0860 C   0  0  0  0  0  2  0  0  0  0  0  0
  195.1810  175.4230  140.0510 C   0  0  1  0  0  3  0  0  0  0  0  0
  195.9700  174.5520  139.0910 C   0  0  2  0  0  0  0  0  0  0  0  0
  194.6310  174.4690  141.0990 C   0  0  1  0  0  3  0  0  0  0  0  0
  195.8060  175.0050  137.7700 O   0  0  0  0  0  0  0  0  0  0  0  0
  197.9410  174.2380  137.3450 O   0  0  0  0  0  0  0  0  0  0  0  0
  197.6390  174.8550  136.1150 C   0  0  0  0  0  2  0  0  0  0  0  0
  196.5950  174.1930  136.9350 C   0  0  2  0  0  0  0  0  0  0  0  0
  194.9660  172.7240  135.9060 O   0  0  0  0  0  1  0  0  0  0  0  0
  196.1380  172.7540  136.6670 C   0  0  1  0  0  3  0  0  0  0  0  0
  197.1830  172.0120  135.9810 N   0  0  0  0  0  2  0  0  0  0  0  0
  196.5810  171.4170  134.8010 C   0  0  0  0  0  1  0  0  0  0  0  0
  182.4360  178.8000  140.9200 N   0  0  0  0  0  2  0  0  0  0  0  0
  181.0450  178.3830  140.9190 C   0  0  0  0  0  2  0  0  0  0  0  0
  180.1770  179.5260  141.4030 C   0  0  0  0  0  2  0  0  0  0  0  0
  179.9240  180.4860  140.2590 C   0  0  0  0  0  1  0  0  0  0  0  0
  188.8130  177.3370  146.2550 C   0  0  0  0  0  2  0  0  0  0  0  0
  191.8360  175.2520  147.3460 N   0  0  0  0  0  2  0  0  0  0  0  0
  190.1760  176.9070  146.5390 N   0  0  0  0  0  2  0  0  0  0  0  0
  189.5540  174.9250  147.6110 O   0  0  0  0  0  0  0  0  0  0  0  0
  190.4810  175.6660  147.1870 C   0  0  0  0  0  0  0  0  0  0  0  0
  192.9660  176.0930  146.9740 C   0  0  0  0  0  2  0  0  0  0  0  0
  194.9940  176.9830  145.1750 O   0  0  0  0  0  0  0  0  0  0  0  0
  194.0500  175.2710  146.4560 N   0  0  0  0  0  2  0  0  0  0  0  0
  195.0350  175.7780  145.5530 C   0  0  0  0  0  0  0  0  0  0  0  0
  197.9390  174.5940  143.3330 C   0  0  0  0  0  2  0  0  0  0  0  0
  195.4630  173.6140  144.5660 N   0  0  0  0  0  2  0  0  0  0  0  0
  197.3930  173.2130  143.1560 C   0  0  0  0  0  0  0  0  0  0  0  0
  196.5080  172.6490  144.2270 C   0  0  0  0  0  2  0  0  0  0  0  0
  196.0850  174.8580  145.0230 C   0  0  1  0  0  3  0  0  0  0  0  0
  196.8490  175.5230  143.8690 C   0  0  0  0  0  2  0  0  0  0  0  0
  197.7050  172.5380  142.1880 O   0  0  0  0  0  0  0  0  0  0  0  0
  1  4  1  0  0  0  0
  2 13  2  0  0  0  0
  3  1  1  0  0  0  0
  4 39  1  1  0  0  0
  5  6  2  0  0  0  0
  5 11  1  0  0  0  0
  6  2  1  0  0  0  0
  7 12  1  0  0  0  0
  8  7  1  0  0  0  0
  9  2  1  0  0  0  0
  9  3  2  0  0  0  0
 10 13  1  0  0  0  0
 10 12  2  0  0  0  0
 11  8  2  0  0  0  0
 11 10  1  0  0  0  0
 13 14  1  0  0  0  0
 14  4  1  0  0  0  0
 15 16  1  0  0  0  0
 15  3  1  0  0  0  0
 17 15  2  0  0  0  0
 18 16  2  0  0  0  0
 19 20  2  0  0  0  0
 19 17  1  0  0  0  0
 20 18  1  0  0  0  0
 21 26  1  0  0  0  0
 22 21  1  0  0  0  0
 24 23  1  1  0  0  0
 24 26  1  0  0  0  0
 25 27  1  6  0  0  0
 25 22  1  0  0  0  0
 25 24  1  0  0  0  0
 25 23  1  0  0  0  0
 26 20  1  6  0  0  0
 29 30  1  0  0  0  0
 29 28  1  0  0  0  0
 30 28  1  0  0  0  0
 30 27  1  1  0  0  0
 32 31  1  6  0  0  0
 32 30  1  0  0  0  0
 33 32  1  0  0  0  0
 34 33  1  0  0  0  0
 35  8  1  0  0  0  0
 36 35  1  0  0  0  0
 36 37  1  0  0  0  0
 38 37  1  0  0  0  0
 39 41  1  0  0  0  0
 41 43  1  0  0  0  0
 43 40  1  0  0  0  0
 43 42  2  0  0  0  0
 44 40  1  0  0  0  0
 45 47  2  0  0  0  0
 46 44  1  0  0  0  0
 47 46  1  0  0  0  0
 48 53  1  0  0  0  0
 49 52  1  0  0  0  0
 50 48  1  0  0  0  0
 50 51  1  0  0  0  0
 51 49  1  0  0  0  0
 52 47  1  6  0  0  0
 53 52  1  0  0  0  0
 54 50  2  0  0  0  0
M  END
>  <MODEL>
1

>  <REMARK>
 VINA RESULT:      -6.7      0.000      0.000
  Name = 
  14 active torsions:
  status: ('A' for Active; 'I' for Inactive)
    1  A    between atoms: N_5  and  C_6
    2  A    between atoms: C_6  and  N_25
    3  A    between atoms: O_7  and  C_43
    4  A    between atoms: O_7  and  C_48
    5  A    between atoms: N_10  and  C_23
    6  A    between atoms: C_12  and  C_13
    7  A    between atoms: C_15  and  N_20
    8  A    between atoms: C_15  and  C_31
    9  A    between atoms: C_16  and  C_50
   10  A    between atoms: N_20  and  C_30
   11  A    between atoms: C_23  and  C_43
   12  A    between atoms: N_24  and  C_50
   13  A    between atoms: C_28  and  C_39
   14  A    between atoms: C_52  and  C_54
                            x       y       z     vdW  Elec       q    Type
                         _______ _______ _______ _____ _____    ______ ____

>  <TORSDO>
F 14

$$$$
=
 OpenBabel11042415473D

 54 61  0  0  1  0  0  0  0  0999 V2000
  190.9400  174.5350  141.7570 C   0  0  0  0  0  2  0  0  0  0  0  0
  189.2550  176.1620  143.6880 C   0  0  0  0  0  0  0  0  0  0  0  0
  191.1460  174.5980  143.2310 C   0  0  0  0  0  0  0  0  0  0  0  0
  189.5370  174.0570  141.5070 C   0  0  1  0  0  3  0  0  0  0  0  0
  187.8350  177.9340  144.5190 N   0  0  0  0  0  0  0  0  0  0  0  0
  188.8880  177.0880  144.6840 C   0  0  0  0  0  3  0  0  0  0  0  0
  185.4440  178.2980  141.5820 S   0  0  0  0  0  0  0  0  0  0  0  0
  186.0270  178.7100  143.1070 C   0  0  0  0  0  0  0  0  0  0  0  0
  190.3870  175.3270  144.0000 N   0  0  0  0  0  0  0  0  0  0  0  0
  187.4150  177.0010  142.3490 C   0  0  0  0  0  0  0  0  0  0  0  0
  187.1120  177.9020  143.3760 C   0  0  0  0  0  0  0  0  0  0  0  0
  186.5690  177.0790  141.2400 C   0  0  0  0  0  3  0  0  0  0  0  0
  188.4740  176.0950  142.4920 C   0  0  0  0  0  0  0  0  0  0  0  0
  188.6760  175.1770  141.4500 O   0  0  0  0  0  0  0  0  0  0  0  0
  192.2360  173.8050  143.8420 C   0  0  0  0  0  0  0  0  0  0  0  0
  193.4650  174.4010  144.1600 C   0  0  0  0  0  3  0  0  0  0  0  0
  192.0600  172.4340  144.0960 C   0  0  0  0  0  3  0  0  0  0  0  0
  194.5010  173.6430  144.7140 C   0  0  0  0  0  3  0  0  0  0  0  0
  193.0920  171.6770  144.6550 C   0  0  0  0  0  3  0  0  0  0  0  0
  194.3150  172.2770  144.9720 C   0  0  0  0  0  0  0  0  0  0  0  0
  194.8700  170.1470  146.1140 C   0  0  0  0  0  2  0  0  0  0  0  0
  195.9680  169.1200  145.9560 C   0  0  0  0  0  2  0  0  0  0  0  0
  197.7950  170.8000  145.0520 C   0  0  0  0  0  2  0  0  0  0  0  0
  196.4190  171.0100  144.4450 C   0  0  1  0  0  3  0  0  0  0  0  0
  196.8710  169.6160  144.8370 C   0  0  2  0  0  0  0  0  0  0  0  0
  195.4210  171.4240  145.5150 C   0  0  1  0  0  3  0  0  0  0  0  0
  197.0430  168.8170  143.6930 O   0  0  0  0  0  0  0  0  0  0  0  0
  196.8470  168.9410  141.3970 O   0  0  0  0  0  0  0  0  0  0  0  0
  197.1830  170.2760  141.7000 C   0  0  0  0  0  2  0  0  0  0  0  0
  196.3760  169.4430  142.6260 C   0  0  2  0  0  0  0  0  0  0  0  0
  194.3510  170.3580  141.6600 O   0  0  0  0  0  1  0  0  0  0  0  0
  194.8430  169.5060  142.6530 C   0  0  1  0  0  3  0  0  0  0  0  0
  194.2790  168.1790  142.4790 N   0  0  0  0  0  2  0  0  0  0  0  0
  192.8400  168.3010  142.6360 C   0  0  0  0  0  1  0  0  0  0  0  0
  185.4670  179.6740  143.9980 N   0  0  0  0  0  2  0  0  0  0  0  0
  184.5660  179.2930  145.0700 C   0  0  0  0  0  2  0  0  0  0  0  0
  185.3280  179.2510  146.3780 C   0  0  0  0  0  2  0  0  0  0  0  0
  184.9350  178.0080  147.1500 C   0  0  0  0  0  1  0  0  0  0  0  0
  189.4810  173.2960  140.1930 C   0  0  0  0  0  2  0  0  0  0  0  0
  192.6430  173.0570  138.0430 N   0  0  0  0  0  2  0  0  0  0  0  0
  190.8260  172.9840  139.7290 N   0  0  0  0  0  2  0  0  0  0  0  0
  190.4940  173.7880  137.5590 O   0  0  0  0  0  0  0  0  0  0  0  0
  191.2850  173.2940  138.4070 C   0  0  0  0  0  0  0  0  0  0  0  0
  193.5930  172.3990  138.9300 C   0  0  0  0  0  2  0  0  0  0  0  0
  196.4180  172.7990  138.9560 O   0  0  0  0  0  0  0  0  0  0  0  0
  194.2950  173.3920  139.7320 N   0  0  0  0  0  2  0  0  0  0  0  0
  195.7160  173.5390  139.7020 C   0  0  0  0  0  0  0  0  0  0  0  0
  197.3120  174.9580  142.8960 C   0  0  0  0  0  2  0  0  0  0  0  0
  195.5140  175.7270  140.7070 N   0  0  0  0  0  2  0  0  0  0  0  0
  196.6330  176.2860  142.7830 C   0  0  0  0  0  0  0  0  0  0  0  0
  196.2400  176.7770  141.4220 C   0  0  0  0  0  2  0  0  0  0  0  0
  196.3680  174.5430  140.5940 C   0  0  1  0  0  3  0  0  0  0  0  0
  196.6260  173.9410  141.9820 C   0  0  0  0  0  2  0  0  0  0  0  0
  196.4540  176.9820  143.7700 O   0  0  0  0  0  0  0  0  0  0  0  0
  1  3  1  0  0  0  0
  2  9  1  0  0  0  0
  2  6  1  0  0  0  0
  3 15  1  0  0  0  0
  3  9  2  0  0  0  0
  4 39  1  6  0  0  0
  4  1  1  0  0  0  0
  5  6  2  0  0  0  0
  7  8  1  0  0  0  0
  8 11  2  0  0  0  0
  8 35  1  0  0  0  0
 10 13  1  0  0  0  0
 10 11  1  0  0  0  0
 11  5  1  0  0  0  0
 12  7  1  0  0  0  0
 12 10  2  0  0  0  0
 13  2  2  0  0  0  0
 14  4  1  0  0  0  0
 14 13  1  0  0  0  0
 15 17  2  0  0  0  0
 15 16  1  0  0  0  0
 16 18  2  0  0  0  0
 17 19  1  0  0  0  0
 18 20  1  0  0  0  0
 19 20  2  0  0  0  0
 22 21  1  0  0  0  0
 24 25  1  0  0  0  0
 24 23  1  1  0  0  0
 24 26  1  0  0  0  0
 25 27  1  6  0  0  0
 25 23  1  0  0  0  0
 25 22  1  0  0  0  0
 26 20  1  6  0  0  0
 26 21  1  0  0  0  0
 28 29  1  0  0  0  0
 28 30  1  0  0  0  0
 29 30  1  0  0  0  0
 30 32  1  0  0  0  0
 30 27  1  1  0  0  0
 32 31  1  6  0  0  0
 33 34  1  0  0  0  0
 33 32  1  0  0  0  0
 35 36  1  0  0  0  0
 36 37  1  0  0  0  0
 37 38  1  0  0  0  0
 40 43  1  0  0  0  0
 40 44  1  0  0  0  0
 41 39  1  0  0  0  0
 42 43  2  0  0  0  0
 43 41  1  0  0  0  0
 44 46  1  0  0  0  0
 45 47  2  0  0  0  0
 47 46  1  0  0  0  0
 49 51  1  0  0  0  0
 50 48  1  0  0  0  0
 50 54  2  0  0  0  0
 51 50  1  0  0  0  0
 52 47  1  6  0  0  0
 52 49  1  0  0  0  0
 52 53  1  0  0  0  0
 53 48  1  0  0  0  0
M  END
>  <MODEL>
2

>  <REMARK>
 VINA RESULT:      -6.6      3.036      5.925
  Name = 
  14 active torsions:
  status: ('A' for Active; 'I' for Inactive)
    1  A    between atoms: N_5  and  C_6
    2  A    between atoms: C_6  and  N_25
    3  A    between atoms: O_7  and  C_43
    4  A    between atoms: O_7  and  C_48
    5  A    between atoms: N_10  and  C_23
    6  A    between atoms: C_12  and  C_13
    7  A    between atoms: C_15  and  N_20
    8  A    between atoms: C_15  and  C_31
    9  A    between atoms: C_16  and  C_50
   10  A    between atoms: N_20  and  C_30
   11  A    between atoms: C_23  and  C_43
   12  A    between atoms: N_24  and  C_50
   13  A    between atoms: C_28  and  C_39
   14  A    between atoms: C_52  and  C_54
                            x       y       z     vdW  Elec       q    Type
                         _______ _______ _______ _____ _____    ______ ____

>  <TORSDO>
F 14

$$$$
=
 OpenBabel11042415473D

 54 61  0  0  1  0  0  0  0  0999 V2000
  190.5500  173.6340  141.4200 C   0  0  0  0  0  2  0  0  0  0  0  0
  192.4430  173.5690  143.7920 C   0  0  0  0  0  0  0  0  0  0  0  0
  190.4520  174.5130  142.6190 C   0  0  0  0  0  0  0  0  0  0  0  0
  191.9070  173.8390  140.8080 C   0  0  1  0  0  3  0  0  0  0  0  0
  194.0000  172.7010  145.4260 N   0  0  0  0  0  0  0  0  0  0  0  0
  192.9230  173.4710  145.1130 C   0  0  0  0  0  3  0  0  0  0  0  0
  196.1930  170.5570  143.1750 S   0  0  0  0  0  0  0  0  0  0  0  0
  195.7400  171.1970  144.6640 C   0  0  0  0  0  0  0  0  0  0  0  0
  191.2970  174.4220  143.6070 N   0  0  0  0  0  0  0  0  0  0  0  0
  194.2220  172.0610  143.1240 C   0  0  0  0  0  0  0  0  0  0  0  0
  194.6390  172.0030  144.4590 C   0  0  0  0  0  0  0  0  0  0  0  0
  194.9910  171.2980  142.2410 C   0  0  0  0  0  3  0  0  0  0  0  0
  193.1340  172.8630  142.7570 C   0  0  0  0  0  0  0  0  0  0  0  0
  192.8150  172.9250  141.3920 O   0  0  0  0  0  0  0  0  0  0  0  0
  189.3710  175.5210  142.6880 C   0  0  0  0  0  0  0  0  0  0  0  0
  189.6690  176.8910  142.7190 C   0  0  0  0  0  3  0  0  0  0  0  0
  188.0270  175.1170  142.7410 C   0  0  0  0  0  3  0  0  0  0  0  0
  188.6470  177.8400  142.8080 C   0  0  0  0  0  3  0  0  0  0  0  0
  187.0030  176.0630  142.8240 C   0  0  0  0  0  3  0  0  0  0  0  0
  187.3060  177.4290  142.8530 C   0  0  0  0  0  0  0  0  0  0  0  0
  184.8450  177.7400  142.8160 C   0  0  0  0  0  2  0  0  0  0  0  0
  183.8710  178.5400  143.6500 C   0  0  0  0  0  2  0  0  0  0  0  0
  185.5670  180.4600  144.2970 C   0  0  0  0  0  2  0  0  0  0  0  0
  186.1630  179.0660  144.3770 C   0  0  1  0  0  3  0  0  0  0  0  0
  184.6940  179.2820  144.6910 C   0  0  2  0  0  0  0  0  0  0  0  0
  186.1880  178.4160  143.0030 C   0  0  1  0  0  3  0  0  0  0  0  0
  184.4440  179.0470  146.0540 O   0  0  0  0  0  0  0  0  0  0  0  0
  184.9100  176.8280  145.6190 O   0  0  0  0  0  0  0  0  0  0  0  0
  184.4760  176.7430  146.9570 C   0  0  0  0  0  2  0  0  0  0  0  0
  185.2050  177.9300  146.4450 C   0  0  2  0  0  0  0  0  0  0  0  0
  187.0170  178.6690  147.8740 O   0  0  0  0  0  1  0  0  0  0  0  0
  186.7180  178.1010  146.6320 C   0  0  1  0  0  3  0  0  0  0  0  0
  187.3900  176.8190  146.5090 N   0  0  0  0  0  2  0  0  0  0  0  0
  188.8160  177.0870  146.4490 C   0  0  0  0  0  1  0  0  0  0  0  0
  196.4070  171.0030  145.9100 N   0  0  0  0  0  2  0  0  0  0  0  0
  197.1760  169.8040  146.1880 C   0  0  0  0  0  2  0  0  0  0  0  0
  196.4990  169.0130  147.2870 C   0  0  0  0  0  2  0  0  0  0  0  0
  195.0010  169.2280  147.2120 C   0  0  0  0  0  1  0  0  0  0  0  0
  191.8340  173.6050  139.3080 C   0  0  0  0  0  2  0  0  0  0  0  0
  195.0550  173.5920  137.2340 N   0  0  0  0  0  2  0  0  0  0  0  0
  193.0780  174.0140  138.6690 N   0  0  0  0  0  2  0  0  0  0  0  0
  193.6090  171.8870  137.8570 O   0  0  0  0  0  0  0  0  0  0  0  0
  193.9020  173.1110  137.9220 C   0  0  0  0  0  0  0  0  0  0  0  0
  195.5180  174.9690  137.3390 C   0  0  0  0  0  2  0  0  0  0  0  0
  197.9410  174.3820  138.7250 O   0  0  0  0  0  0  0  0  0  0  0  0
  195.7920  175.2980  138.7310 N   0  0  0  0  0  2  0  0  0  0  0  0
  197.0280  174.9730  139.3670 C   0  0  0  0  0  0  0  0  0  0  0  0
  197.4610  174.3290  143.1310 C   0  0  0  0  0  2  0  0  0  0  0  0
  196.1260  176.1620  141.2680 N   0  0  0  0  0  2  0  0  0  0  0  0
  196.5630  175.4510  143.5440 C   0  0  0  0  0  0  0  0  0  0  0  0
  196.4150  176.6260  142.6250 C   0  0  0  0  0  2  0  0  0  0  0  0
  197.2150  175.2940  140.8140 C   0  0  1  0  0  3  0  0  0  0  0  0
  197.2510  174.0080  141.6510 C   0  0  0  0  0  2  0  0  0  0  0  0
  196.0050  175.4370  144.6300 O   0  0  0  0  0  0  0  0  0  0  0  0
  1  3  1  0  0  0  0
  2  6  1  0  0  0  0
  3 15  1  0  0  0  0
  3  9  2  0  0  0  0
  4 39  1  6  0  0  0
  4 14  1  0  0  0  0
  4  1  1  0  0  0  0
  6  5  2  0  0  0  0
  7  8  1  0  0  0  0
  8 35  1  0  0  0  0
  9  2  1  0  0  0  0
 10 11  1  0  0  0  0
 11  8  2  0  0  0  0
 11  5  1  0  0  0  0
 12 10  2  0  0  0  0
 12  7  1  0  0  0  0
 13 10  1  0  0  0  0
 13  2  2  0  0  0  0
 14 13  1  0  0  0  0
 15 16  2  0  0  0  0
 15 17  1  0  0  0  0
 16 18  1  0  0  0  0
 17 19  2  0  0  0  0
 18 20  2  0  0  0  0
 19 20  1  0  0  0  0
 21 26  1  0  0  0  0
 21 22  1  0  0  0  0
 22 25  1  0  0  0  0
 23 25  1  0  0  0  0
 24 23  1  6  0  0  0
 24 25  1  0  0  0  0
 25 27  1  1  0  0  0
 26 20  1  1  0  0  0
 26 24  1  0  0  0  0
 28 30  1  0  0  0  0
 28 29  1  0  0  0  0
 30 27  1  6  0  0  0
 30 32  1  0  0  0  0
 30 29  1  0  0  0  0
 32 31  1  1  0  0  0
 33 32  1  0  0  0  0
 34 33  1  0  0  0  0
 35 36  1  0  0  0  0
 36 37  1  0  0  0  0
 38 37  1  0  0  0  0
 40 44  1  0  0  0  0
 40 43  1  0  0  0  0
 41 39  1  0  0  0  0
 42 43  2  0  0  0  0
 43 41  1  0  0  0  0
 44 46  1  0  0  0  0
 45 47  2  0  0  0  0
 46 47  1  0  0  0  0
 48 50  1  0  0  0  0
 49 51  1  0  0  0  0
 50 54  2  0  0  0  0
 51 50  1  0  0  0  0
 52 47  1  6  0  0  0
 52 49  1  0  0  0  0
 52 53  1  0  0  0  0
 53 48  1  0  0  0  0
M  END
>  <MODEL>
3

>  <REMARK>
 VINA RESULT:      -6.2      3.474     10.973
  Name = 
  14 active torsions:
  status: ('A' for Active; 'I' for Inactive)
    1  A    between atoms: N_5  and  C_6
    2  A    between atoms: C_6  and  N_25
    3  A    between atoms: O_7  and  C_43
    4  A    between atoms: O_7  and  C_48
    5  A    between atoms: N_10  and  C_23
    6  A    between atoms: C_12  and  C_13
    7  A    between atoms: C_15  and  N_20
    8  A    between atoms: C_15  and  C_31
    9  A    between atoms: C_16  and  C_50
   10  A    between atoms: N_20  and  C_30
   11  A    between atoms: C_23  and  C_43
   12  A    between atoms: N_24  and  C_50
   13  A    between atoms: C_28  and  C_39
   14  A    between atoms: C_52  and  C_54
                            x       y       z     vdW  Elec       q    Type
                         _______ _______ _______ _____ _____    ______ ____

>  <TORSDO>
F 14

$$$$
=
 OpenBabel11042415473D

 54 61  0  0  1  0  0  0  0  0999 V2000
  192.6120  171.7730  143.0000 C   0  0  0  0  0  2  0  0  0  0  0  0
  191.4090  171.5590  140.2210 C   0  0  0  0  0  0  0  0  0  0  0  0
  191.3720  172.4640  142.5470 C   0  0  0  0  0  0  0  0  0  0  0  0
  192.4150  170.2960  142.8010 C   0  0  1  0  0  3  0  0  0  0  0  0
  191.2780  171.2640  137.8250 N   0  0  0  0  0  0  0  0  0  0  0  0
  190.9000  171.9160  138.9570 C   0  0  0  0  0  3  0  0  0  0  0  0
  193.6860  168.3510  137.3840 S   0  0  0  0  0  0  0  0  0  0  0  0
  192.6140  169.5160  136.8110 C   0  0  0  0  0  0  0  0  0  0  0  0
  190.9180  172.3330  141.3320 N   0  0  0  0  0  0  0  0  0  0  0  0
  192.7050  169.8310  139.1160 C   0  0  0  0  0  0  0  0  0  0  0  0
  192.1660  170.2450  137.8930 C   0  0  0  0  0  0  0  0  0  0  0  0
  193.5960  168.7580  139.0260 C   0  0  0  0  0  3  0  0  0  0  0  0
  192.3200  170.4600  140.3080 C   0  0  0  0  0  0  0  0  0  0  0  0
  192.8500  169.9470  141.5020 O   0  0  0  0  0  0  0  0  0  0  0  0
  190.6320  173.3170  143.5030 C   0  0  0  0  0  0  0  0  0  0  0  0
  190.2840  174.6350  143.1690 C   0  0  0  0  0  3  0  0  0  0  0  0
  190.2800  172.8230  144.7690 C   0  0  0  0  0  3  0  0  0  0  0  0
  189.6060  175.4450  144.0830 C   0  0  0  0  0  3  0  0  0  0  0  0
  189.5970  173.6290  145.6830 C   0  0  0  0  0  3  0  0  0  0  0  0
  189.2520  174.9410  145.3440 C   0  0  0  0  0  0  0  0  0  0  0  0
  189.4500  176.9690  146.7590 C   0  0  0  0  0  2  0  0  0  0  0  0
  188.4980  178.0730  147.1580 C   0  0  0  0  0  2  0  0  0  0  0  0
  186.3000  176.6140  147.0150 C   0  0  0  0  0  2  0  0  0  0  0  0
  187.2630  176.3840  145.8620 C   0  0  1  0  0  3  0  0  0  0  0  0
  187.1620  177.7550  146.5060 C   0  0  2  0  0  0  0  0  0  0  0  0
  188.5720  175.7980  146.3680 C   0  0  1  0  0  3  0  0  0  0  0  0
  186.6040  178.6800  145.6050 O   0  0  0  0  0  0  0  0  0  0  0  0
  184.3900  179.3300  145.5850 O   0  0  0  0  0  0  0  0  0  0  0  0
  184.3280  178.2300  146.4640 C   0  0  0  0  0  2  0  0  0  0  0  0
  185.2860  178.2730  145.3320 C   0  0  2  0  0  0  0  0  0  0  0  0
  183.9690  178.2600  143.2980 O   0  0  0  0  0  1  0  0  0  0  0  0
  184.9900  177.5980  143.9870 C   0  0  1  0  0  3  0  0  0  0  0  0
  186.1870  177.5620  143.1650 N   0  0  0  0  0  2  0  0  0  0  0  0
  186.0690  178.6300  142.1880 C   0  0  0  0  0  1  0  0  0  0  0  0
  192.1870  169.6850  135.4600 N   0  0  0  0  0  2  0  0  0  0  0  0
  192.8530  170.6040  134.5560 C   0  0  0  0  0  2  0  0  0  0  0  0
  194.0370  171.2340  135.2590 C   0  0  0  0  0  2  0  0  0  0  0  0
  195.3210  170.6940  134.6650 C   0  0  0  0  0  1  0  0  0  0  0  0
  193.2190  169.5280  143.8380 C   0  0  0  0  0  2  0  0  0  0  0  0
  196.8580  170.1410  144.8640 N   0  0  0  0  0  2  0  0  0  0  0  0
  194.5250  170.1450  144.0270 N   0  0  0  0  0  2  0  0  0  0  0  0
  195.3570  168.4600  145.4170 O   0  0  0  0  0  0  0  0  0  0  0  0
  195.5680  169.5380  144.7990 C   0  0  0  0  0  0  0  0  0  0  0  0
  197.1550  171.4330  144.2610 C   0  0  0  0  0  2  0  0  0  0  0  0
  197.7500  174.1120  145.0440 O   0  0  0  0  0  0  0  0  0  0  0  0
  196.1760  172.4210  144.6930 N   0  0  0  0  0  2  0  0  0  0  0  0
  196.5400  173.7480  145.0760 C   0  0  0  0  0  0  0  0  0  0  0  0
  193.0050  175.0420  145.8430 C   0  0  0  0  0  2  0  0  0  0  0  0
  195.6100  175.9670  144.8590 N   0  0  0  0  0  2  0  0  0  0  0  0
  193.2920  176.4380  145.3910 C   0  0  0  0  0  0  0  0  0  0  0  0
  194.7030  176.9400  145.4680 C   0  0  0  0  0  2  0  0  0  0  0  0
  195.4850  174.6880  145.5600 C   0  0  1  0  0  3  0  0  0  0  0  0
  194.0890  174.0930  145.3320 C   0  0  0  0  0  2  0  0  0  0  0  0
  192.3900  177.1720  145.0200 O   0  0  0  0  0  0  0  0  0  0  0  0
  2 13  2  0  0  0  0
  2  9  1  0  0  0  0
  3  1  1  0  0  0  0
  3 15  1  0  0  0  0
  4  1  1  0  0  0  0
  4 39  1  1  0  0  0
  5 11  1  0  0  0  0
  5  6  2  0  0  0  0
  6  2  1  0  0  0  0
  7 12  1  0  0  0  0
  8  7  1  0  0  0  0
  8 11  2  0  0  0  0
  9  3  2  0  0  0  0
 10 13  1  0  0  0  0
 11 10  1  0  0  0  0
 12 10  2  0  0  0  0
 13 14  1  0  0  0  0
 14  4  1  0  0  0  0
 15 17  1  0  0  0  0
 16 15  2  0  0  0  0
 16 18  1  0  0  0  0
 17 19  2  0  0  0  0
 18 20  2  0  0  0  0
 20 19  1  0  0  0  0
 21 22  1  0  0  0  0
 24 26  1  0  0  0  0
 24 25  1  0  0  0  0
 24 23  1  1  0  0  0
 25 27  1  6  0  0  0
 25 23  1  0  0  0  0
 25 22  1  0  0  0  0
 26 20  1  6  0  0  0
 26 21  1  0  0  0  0
 28 29  1  0  0  0  0
 30 28  1  0  0  0  0
 30 27  1  1  0  0  0
 30 29  1  0  0  0  0
 32 31  1  6  0  0  0
 32 30  1  0  0  0  0
 33 32  1  0  0  0  0
 34 33  1  0  0  0  0
 35  8  1  0  0  0  0
 36 37  1  0  0  0  0
 36 35  1  0  0  0  0
 38 37  1  0  0  0  0
 39 41  1  0  0  0  0
 41 43  1  0  0  0  0
 43 40  1  0  0  0  0
 43 42  2  0  0  0  0
 44 46  1  0  0  0  0
 44 40  1  0  0  0  0
 45 47  2  0  0  0  0
 46 47  1  0  0  0  0
 49 51  1  0  0  0  0
 49 52  1  0  0  0  0
 50 51  1  0  0  0  0
 50 48  1  0  0  0  0
 52 47  1  6  0  0  0
 53 52  1  0  0  0  0
 53 48  1  0  0  0  0
 54 50  2  0  0  0  0
M  END
>  <MODEL>
4

>  <REMARK>
 VINA RESULT:      -6.1      4.207     10.305
  Name = 
  14 active torsions:
  status: ('A' for Active; 'I' for Inactive)
    1  A    between atoms: N_5  and  C_6
    2  A    between atoms: C_6  and  N_25
    3  A    between atoms: O_7  and  C_43
    4  A    between atoms: O_7  and  C_48
    5  A    between atoms: N_10  and  C_23
    6  A    between atoms: C_12  and  C_13
    7  A    between atoms: C_15  and  N_20
    8  A    between atoms: C_15  and  C_31
    9  A    between atoms: C_16  and  C_50
   10  A    between atoms: N_20  and  C_30
   11  A    between atoms: C_23  and  C_43
   12  A    between atoms: N_24  and  C_50
   13  A    between atoms: C_28  and  C_39
   14  A    between atoms: C_52  and  C_54
                            x       y       z     vdW  Elec       q    Type
                         _______ _______ _______ _____ _____    ______ ____

>  <TORSDO>
F 14

$$$$
=
 OpenBabel11042415473D

 54 61  0  0  1  0  0  0  0  0999 V2000
  189.4140  175.1560  143.8890 C   0  0  0  0  0  2  0  0  0  0  0  0
  187.6850  176.5630  141.8280 C   0  0  0  0  0  0  0  0  0  0  0  0
  189.7510  175.3050  142.4450 C   0  0  0  0  0  0  0  0  0  0  0  0
  189.2140  176.5310  144.4600 C   0  0  1  0  0  3  0  0  0  0  0  0
  185.7050  177.4120  140.7300 N   0  0  0  0  0  0  0  0  0  0  0  0
  186.9210  176.8050  140.6700 C   0  0  0  0  0  3  0  0  0  0  0  0
  183.7910  178.7270  143.7430 S   0  0  0  0  0  0  0  0  0  0  0  0
  183.9810  178.4240  142.0990 C   0  0  0  0  0  0  0  0  0  0  0  0
  188.9540  175.9150  141.6140 N   0  0  0  0  0  0  0  0  0  0  0  0
  185.9080  177.5990  143.1140 C   0  0  0  0  0  0  0  0  0  0  0  0
  185.1990  177.7990  141.9240 C   0  0  0  0  0  0  0  0  0  0  0  0
  185.2610  178.0650  144.2610 C   0  0  0  0  0  3  0  0  0  0  0  0
  187.1740  177.0010  143.0910 C   0  0  0  0  0  0  0  0  0  0  0  0
  187.8550  176.8950  144.3130 O   0  0  0  0  0  0  0  0  0  0  0  0
  191.0280  174.7520  141.9420 C   0  0  0  0  0  0  0  0  0  0  0  0
  192.2540  175.1910  142.4630 C   0  0  0  0  0  3  0  0  0  0  0  0
  191.0310  173.7890  140.9200 C   0  0  0  0  0  3  0  0  0  0  0  0
  193.4590  174.6850  141.9690 C   0  0  0  0  0  3  0  0  0  0  0  0
  192.2340  173.2770  140.4280 C   0  0  0  0  0  3  0  0  0  0  0  0
  193.4530  173.7180  140.9530 C   0  0  0  0  0  0  0  0  0  0  0  0
  194.6230  171.7070  140.0930 C   0  0  0  0  0  2  0  0  0  0  0  0
  195.5460  171.4410  138.9260 C   0  0  0  0  0  2  0  0  0  0  0  0
  196.5770  173.8720  138.8270 C   0  0  0  0  0  2  0  0  0  0  0  0
  195.0730  173.8540  139.0380 C   0  0  1  0  0  3  0  0  0  0  0  0
  195.7360  172.7690  138.2100 C   0  0  2  0  0  0  0  0  0  0  0  0
  194.7270  173.1930  140.3630 C   0  0  1  0  0  3  0  0  0  0  0  0
  195.3540  172.8790  136.8610 O   0  0  0  0  0  0  0  0  0  0  0  0
  193.4400  173.4200  135.6900 O   0  0  0  0  0  0  0  0  0  0  0  0
  193.1140  173.9260  136.9640 C   0  0  0  0  0  2  0  0  0  0  0  0
  193.9580  172.7170  136.7950 C   0  0  2  0  0  0  0  0  0  0  0  0
  192.1440  171.2920  137.5350 O   0  0  0  0  0  1  0  0  0  0  0  0
  193.3780  171.2990  136.8780 C   0  0  1  0  0  3  0  0  0  0  0  0
  193.2250  170.7370  135.5470 N   0  0  0  0  0  2  0  0  0  0  0  0
  194.3900  169.9060  135.2970 C   0  0  0  0  0  1  0  0  0  0  0  0
  183.0830  178.8010  141.0560 N   0  0  0  0  0  2  0  0  0  0  0  0
  182.0310  177.9150  140.5950 C   0  0  0  0  0  2  0  0  0  0  0  0
  180.7250  178.2900  141.2650 C   0  0  0  0  0  2  0  0  0  0  0  0
  180.2800  179.6520  140.7730 C   0  0  0  0  0  1  0  0  0  0  0  0
  189.5920  176.5350  145.9330 C   0  0  0  0  0  2  0  0  0  0  0  0
  193.1050  175.7530  147.2440 N   0  0  0  0  0  2  0  0  0  0  0  0
  191.0390  176.4860  146.0850 N   0  0  0  0  0  2  0  0  0  0  0  0
  190.9990  175.3850  148.1470 O   0  0  0  0  0  0  0  0  0  0  0  0
  191.6840  175.8590  147.2010 C   0  0  0  0  0  0  0  0  0  0  0  0
  193.9710  176.3590  146.2420 C   0  0  0  0  0  2  0  0  0  0  0  0
  195.8430  176.7970  144.1340 O   0  0  0  0  0  0  0  0  0  0  0  0
  194.9220  175.3750  145.7440 N   0  0  0  0  0  2  0  0  0  0  0  0
  195.8330  175.6580  144.6810 C   0  0  0  0  0  0  0  0  0  0  0  0
  197.9390  173.6460  142.1750 C   0  0  0  0  0  2  0  0  0  0  0  0
  196.1460  173.2710  144.4670 N   0  0  0  0  0  2  0  0  0  0  0  0
  197.5240  172.3150  142.7170 C   0  0  0  0  0  0  0  0  0  0  0  0
  197.1190  172.2230  144.1580 C   0  0  0  0  0  2  0  0  0  0  0  0
  196.7410  174.5790  144.1880 C   0  0  1  0  0  3  0  0  0  0  0  0
  196.9950  174.7360  142.6820 C   0  0  0  0  0  2  0  0  0  0  0  0
  197.5680  171.3150  142.0190 O   0  0  0  0  0  0  0  0  0  0  0  0
  1  4  1  0  0  0  0
  2 13  2  0  0  0  0
  3  1  1  0  0  0  0
  4 39  1  1  0  0  0
  5 11  1  0  0  0  0
  6  5  2  0  0  0  0
  6  2  1  0  0  0  0
  7 12  1  0  0  0  0
  8  7  1  0  0  0  0
  9  2  1  0  0  0  0
  9  3  2  0  0  0  0
 10 12  2  0  0  0  0
 11  8  2  0  0  0  0
 11 10  1  0  0  0  0
 13 10  1  0  0  0  0
 13 14  1  0  0  0  0
 14  4  1  0  0  0  0
 15  3  1  0  0  0  0
 15 16  1  0  0  0  0
 17 15  2  0  0  0  0
 18 16  2  0  0  0  0
 19 17  1  0  0  0  0
 19 20  2  0  0  0  0
 20 18  1  0  0  0  0
 21 26  1  0  0  0  0
 22 21  1  0  0  0  0
 24 23  1  1  0  0  0
 24 26  1  0  0  0  0
 25 27  1  6  0  0  0
 25 23  1  0  0  0  0
 25 22  1  0  0  0  0
 25 24  1  0  0  0  0
 26 20  1  6  0  0  0
 28 30  1  0  0  0  0
 28 29  1  0  0  0  0
 30 27  1  1  0  0  0
 30 32  1  0  0  0  0
 30 29  1  0  0  0  0
 32 31  1  6  0  0  0
 33 32  1  0  0  0  0
 34 33  1  0  0  0  0
 35  8  1  0  0  0  0
 36 35  1  0  0  0  0
 36 37  1  0  0  0  0
 38 37  1  0  0  0  0
 39 41  1  0  0  0  0
 41 43  1  0  0  0  0
 43 40  1  0  0  0  0
 43 42  2  0  0  0  0
 44 40  1  0  0  0  0
 45 47  2  0  0  0  0
 46 44  1  0  0  0  0
 47 46  1  0  0  0  0
 48 53  1  0  0  0  0
 48 50  1  0  0  0  0
 50 51  1  0  0  0  0
 51 49  1  0  0  0  0
 52 49  1  0  0  0  0
 52 47  1  6  0  0  0
 53 52  1  0  0  0  0
 54 50  2  0  0  0  0
M  END
>  <MODEL>
5

>  <REMARK>
 VINA RESULT:      -6.0      1.451      1.793
  Name = 
  14 active torsions:
  status: ('A' for Active; 'I' for Inactive)
    1  A    between atoms: N_5  and  C_6
    2  A    between atoms: C_6  and  N_25
    3  A    between atoms: O_7  and  C_43
    4  A    between atoms: O_7  and  C_48
    5  A    between atoms: N_10  and  C_23
    6  A    between atoms: C_12  and  C_13
    7  A    between atoms: C_15  and  N_20
    8  A    between atoms: C_15  and  C_31
    9  A    between atoms: C_16  and  C_50
   10  A    between atoms: N_20  and  C_30
   11  A    between atoms: C_23  and  C_43
   12  A    between atoms: N_24  and  C_50
   13  A    between atoms: C_28  and  C_39
   14  A    between atoms: C_52  and  C_54
                            x       y       z     vdW  Elec       q    Type
                         _______ _______ _______ _____ _____    ______ ____

>  <TORSDO>
F 14

$$$$
=
 OpenBabel11042415473D

 54 61  0  0  1  0  0  0  0  0999 V2000
  188.1340  174.4710  142.2100 C   0  0  0  0  0  2  0  0  0  0  0  0
  190.5110  176.1690  143.0350 C   0  0  0  0  0  0  0  0  0  0  0  0
  188.1020  175.9460  142.4220 C   0  0  0  0  0  0  0  0  0  0  0  0
  189.1710  174.1780  141.1630 C   0  0  1  0  0  3  0  0  0  0  0  0
  192.6180  176.7750  144.0560 N   0  0  0  0  0  0  0  0  0  0  0  0
  191.3230  177.0670  143.7560 C   0  0  0  0  0  3  0  0  0  0  0  0
  194.6730  173.6850  143.2190 S   0  0  0  0  0  0  0  0  0  0  0  0
  194.4550  175.2040  143.9110 C   0  0  0  0  0  0  0  0  0  0  0  0
  189.1620  176.6100  142.7860 N   0  0  0  0  0  0  0  0  0  0  0  0
  192.4110  174.6640  142.9360 C   0  0  0  0  0  0  0  0  0  0  0  0
  193.1570  175.5980  143.6640 C   0  0  0  0  0  0  0  0  0  0  0  0
  193.1110  173.5040  142.5910 C   0  0  0  0  0  3  0  0  0  0  0  0
  191.0830  174.9370  142.5840 C   0  0  0  0  0  0  0  0  0  0  0  0
  190.4200  173.9840  141.7970 O   0  0  0  0  0  0  0  0  0  0  0  0
  186.8350  176.6780  142.2060 C   0  0  0  0  0  0  0  0  0  0  0  0
  185.9270  176.8690  143.2590 C   0  0  0  0  0  3  0  0  0  0  0  0
  186.5130  177.1800  140.9340 C   0  0  0  0  0  3  0  0  0  0  0  0
  184.7210  177.5400  143.0460 C   0  0  0  0  0  3  0  0  0  0  0  0
  185.3100  177.8560  140.7200 C   0  0  0  0  0  3  0  0  0  0  0  0
  184.4100  178.0440  141.7740 C   0  0  0  0  0  0  0  0  0  0  0  0
  182.5700  178.3290  140.1360 C   0  0  0  0  0  2  0  0  0  0  0  0
  181.0650  178.4260  140.2450 C   0  0  0  0  0  2  0  0  0  0  0  0
  181.0300  179.4870  142.6650 C   0  0  0  0  0  2  0  0  0  0  0  0
  182.0280  178.3530  142.5100 C   0  0  1  0  0  3  0  0  0  0  0  0
  180.7290  178.3340  141.7250 C   0  0  2  0  0  0  0  0  0  0  0  0
  183.1020  178.7220  141.4980 C   0  0  1  0  0  3  0  0  0  0  0  0
  179.9020  177.2880  142.1740 O   0  0  0  0  0  0  0  0  0  0  0  0
  178.6300  179.0350  142.9860 O   0  0  0  0  0  0  0  0  0  0  0  0
  178.0590  177.9530  143.6850 C   0  0  0  0  0  2  0  0  0  0  0  0
  178.5990  177.7990  142.3110 C   0  0  2  0  0  0  0  0  0  0  0  0
  177.8110  179.0960  140.4220 O   0  0  0  0  0  1  0  0  0  0  0  0
  177.6990  177.8620  141.0700 C   0  0  1  0  0  3  0  0  0  0  0  0
  178.0390  176.7940  140.1460 N   0  0  0  0  0  2  0  0  0  0  0  0
  177.8640  177.3190  138.8030 C   0  0  0  0  0  1  0  0  0  0  0  0
  195.4480  175.9830  144.5770 N   0  0  0  0  0  2  0  0  0  0  0  0
  196.3600  176.8470  143.8490 C   0  0  0  0  0  2  0  0  0  0  0  0
  196.9140  176.1000  142.6530 C   0  0  0  0  0  2  0  0  0  0  0  0
  196.4710  176.7910  141.3800 C   0  0  0  0  0  1  0  0  0  0  0  0
  188.7830  172.9260  140.3940 C   0  0  0  0  0  2  0  0  0  0  0  0
  191.3770  170.1160  140.6190 N   0  0  0  0  0  2  0  0  0  0  0  0
  189.5590  171.7840  140.8590 N   0  0  0  0  0  2  0  0  0  0  0  0
  190.7970  171.5510  138.8900 O   0  0  0  0  0  0  0  0  0  0  0  0
  190.5830  171.1650  140.0700 C   0  0  0  0  0  0  0  0  0  0  0  0
  191.1290  169.5460  141.9360 C   0  0  0  0  0  2  0  0  0  0  0  0
  192.2780  170.7320  144.2630 O   0  0  0  0  0  0  0  0  0  0  0  0
  192.3870  169.1450  142.5510 N   0  0  0  0  0  2  0  0  0  0  0  0
  192.9100  169.7840  143.7170 C   0  0  0  0  0  0  0  0  0  0  0  0
  195.7620  169.4000  146.2630 C   0  0  0  0  0  2  0  0  0  0  0  0
  195.3040  169.8700  143.4030 N   0  0  0  0  0  2  0  0  0  0  0  0
  196.8450  169.6340  145.2590 C   0  0  0  0  0  0  0  0  0  0  0  0
  196.5800  169.2890  143.8240 C   0  0  0  0  0  2  0  0  0  0  0  0
  194.2340  169.3530  144.2580 C   0  0  1  0  0  3  0  0  0  0  0  0
  194.4160  169.8540  145.6970 C   0  0  0  0  0  2  0  0  0  0  0  0
  197.9410  170.0440  145.6070 O   0  0  0  0  0  0  0  0  0  0  0  0
  1  3  1  0  0  0  0
  2  6  1  0  0  0  0
  3  9  2  0  0  0  0
  4 39  1  1  0  0  0
  4 14  1  0  0  0  0
  4  1  1  0  0  0  0
  6  5  2  0  0  0  0
  7  8  1  0  0  0  0
  8 35  1  0  0  0  0
  9  2  1  0  0  0  0
 10 11  1  0  0  0  0
 11  8  2  0  0  0  0
 11  5  1  0  0  0  0
 12 10  2  0  0  0  0
 12  7  1  0  0  0  0
 13 10  1  0  0  0  0
 13  2  2  0  0  0  0
 14 13  1  0  0  0  0
 15  3  1  0  0  0  0
 15 16  1  0  0  0  0
 17 15  2  0  0  0  0
 18 16  2  0  0  0  0
 19 17  1  0  0  0  0
 19 20  2  0  0  0  0
 20 18  1  0  0  0  0
 21 22  1  0  0  0  0
 21 26  1  0  0  0  0
 22 25  1  0  0  0  0
 24 23  1  1  0  0  0
 25 27  1  1  0  0  0
 25 24  1  0  0  0  0
 25 23  1  0  0  0  0
 26 20  1  1  0  0  0
 26 24  1  0  0  0  0
 28 29  1  0  0  0  0
 30 27  1  6  0  0  0
 30 28  1  0  0  0  0
 30 29  1  0  0  0  0
 32 31  1  6  0  0  0
 32 30  1  0  0  0  0
 33 32  1  0  0  0  0
 34 33  1  0  0  0  0
 36 35  1  0  0  0  0
 37 36  1  0  0  0  0
 38 37  1  0  0  0  0
 39 41  1  0  0  0  0
 40 44  1  0  0  0  0
 42 43  2  0  0  0  0
 43 40  1  0  0  0  0
 43 41  1  0  0  0  0
 44 46  1  0  0  0  0
 46 47  1  0  0  0  0
 47 45  2  0  0  0  0
 49 51  1  0  0  0  0
 49 52  1  0  0  0  0
 50 54  2  0  0  0  0
 50 48  1  0  0  0  0
 51 50  1  0  0  0  0
 52 47  1  6  0  0  0
 52 53  1  0  0  0  0
 53 48  1  0  0  0  0
M  END
>  <MODEL>
6

>  <REMARK>
 VINA RESULT:      -5.9      4.073     11.511
  Name = 
  14 active torsions:
  status: ('A' for Active; 'I' for Inactive)
    1  A    between atoms: N_5  and  C_6
    2  A    between atoms: C_6  and  N_25
    3  A    between atoms: O_7  and  C_43
    4  A    between atoms: O_7  and  C_48
    5  A    between atoms: N_10  and  C_23
    6  A    between atoms: C_12  and  C_13
    7  A    between atoms: C_15  and  N_20
    8  A    between atoms: C_15  and  C_31
    9  A    between atoms: C_16  and  C_50
   10  A    between atoms: N_20  and  C_30
   11  A    between atoms: C_23  and  C_43
   12  A    between atoms: N_24  and  C_50
   13  A    between atoms: C_28  and  C_39
   14  A    between atoms: C_52  and  C_54
                            x       y       z     vdW  Elec       q    Type
                         _______ _______ _______ _____ _____    ______ ____

>  <TORSDO>
F 14

$$$$
=
 OpenBabel11042415473D

 54 61  0  0  1  0  0  0  0  0999 V2000
  190.7870  174.8810  141.4480 C   0  0  0  0  0  2  0  0  0  0  0  0
  189.4900  176.3470  143.7690 C   0  0  0  0  0  0  0  0  0  0  0  0
  191.3620  174.9970  142.8180 C   0  0  0  0  0  0  0  0  0  0  0  0
  189.4320  174.2420  141.5700 C   0  0  1  0  0  3  0  0  0  0  0  0
  188.1440  177.9640  144.9590 N   0  0  0  0  0  0  0  0  0  0  0  0
  189.2920  177.2460  144.8350 C   0  0  0  0  0  3  0  0  0  0  0  0
  185.0440  177.9950  142.7550 S   0  0  0  0  0  0  0  0  0  0  0  0
  185.9530  178.5020  144.0770 C   0  0  0  0  0  0  0  0  0  0  0  0
  190.7520  175.6520  143.7650 N   0  0  0  0  0  0  0  0  0  0  0  0
  187.2810  176.9440  142.9660 C   0  0  0  0  0  0  0  0  0  0  0  0
  187.1550  177.8270  144.0450 C   0  0  0  0  0  0  0  0  0  0  0  0
  186.1710  176.9030  142.1180 C   0  0  0  0  0  3  0  0  0  0  0  0
  188.4370  176.1680  142.8180 C   0  0  0  0  0  0  0  0  0  0  0  0
  188.4630  175.2560  141.7510 O   0  0  0  0  0  0  0  0  0  0  0  0
  192.6570  174.3450  143.1140 C   0  0  0  0  0  0  0  0  0  0  0  0
  193.0970  173.2460  142.3600 C   0  0  0  0  0  3  0  0  0  0  0  0
  193.4600  174.8090  144.1690 C   0  0  0  0  0  3  0  0  0  0  0  0
  194.3090  172.6180  142.6580 C   0  0  0  0  0  3  0  0  0  0  0  0
  194.6750  174.1860  144.4650 C   0  0  0  0  0  3  0  0  0  0  0  0
  195.1080  173.0920  143.7090 C   0  0  0  0  0  0  0  0  0  0  0  0
  196.5040  172.2840  145.5940 C   0  0  0  0  0  2  0  0  0  0  0  0
  197.3390  171.0480  145.8340 C   0  0  0  0  0  2  0  0  0  0  0  0
  197.9410  170.6200  143.2970 C   0  0  0  0  0  2  0  0  0  0  0  0
  196.4880  171.0010  143.5240 C   0  0  1  0  0  3  0  0  0  0  0  0
  197.2370  170.2020  144.5750 C   0  0  2  0  0  0  0  0  0  0  0  0
  196.3870  172.4100  144.0890 C   0  0  1  0  0  3  0  0  0  0  0  0
  196.7110  168.9000  144.6670 O   0  0  0  0  0  0  0  0  0  0  0  0
  196.5870  169.5710  146.8720 O   0  0  0  0  0  0  0  0  0  0  0  0
  196.5990  168.1700  147.0280 C   0  0  0  0  0  2  0  0  0  0  0  0
  195.9640  168.8210  145.8550 C   0  0  2  0  0  0  0  0  0  0  0  0
  194.1730  170.4310  146.1260 O   0  0  0  0  0  1  0  0  0  0  0  0
  194.4570  169.1020  145.7960 C   0  0  1  0  0  3  0  0  0  0  0  0
  193.9410  168.8080  144.4700 N   0  0  0  0  0  2  0  0  0  0  0  0
  192.8810  169.7660  144.2020 C   0  0  0  0  0  1  0  0  0  0  0  0
  185.5380  179.4140  145.0930 N   0  0  0  0  0  2  0  0  0  0  0  0
  185.1810  178.9650  146.4260 C   0  0  0  0  0  2  0  0  0  0  0  0
  184.9010  177.4770  146.3980 C   0  0  0  0  0  2  0  0  0  0  0  0
  185.8410  176.7700  147.3540 C   0  0  0  0  0  1  0  0  0  0  0  0
  189.1220  173.4530  140.3080 C   0  0  0  0  0  2  0  0  0  0  0  0
  192.2180  172.1080  138.4950 N   0  0  0  0  0  2  0  0  0  0  0  0
  190.3070  173.3550  139.4670 N   0  0  0  0  0  2  0  0  0  0  0  0
  190.8910  171.2030  140.1700 O   0  0  0  0  0  0  0  0  0  0  0  0
  191.1290  172.1830  139.4130 C   0  0  0  0  0  0  0  0  0  0  0  0
  192.6200  173.2310  137.6580 C   0  0  0  0  0  2  0  0  0  0  0  0
  195.3630  172.7790  138.3000 O   0  0  0  0  0  0  0  0  0  0  0  0
  193.4670  174.1400  138.4180 N   0  0  0  0  0  2  0  0  0  0  0  0
  194.8360  173.8520  138.7080 C   0  0  0  0  0  0  0  0  0  0  0  0
  197.5200  175.0390  141.1880 C   0  0  0  0  0  2  0  0  0  0  0  0
  194.7270  175.5350  140.4390 N   0  0  0  0  0  2  0  0  0  0  0  0
  196.6170  176.0090  141.8810 C   0  0  0  0  0  0  0  0  0  0  0  0
  195.4740  176.5990  141.1100 C   0  0  0  0  0  2  0  0  0  0  0  0
  195.6260  174.8090  139.5400 C   0  0  1  0  0  3  0  0  0  0  0  0
  196.6950  174.0620  140.3490 C   0  0  0  0  0  2  0  0  0  0  0  0
  196.8370  176.3560  143.0300 O   0  0  0  0  0  0  0  0  0  0  0  0
  1  4  1  0  0  0  0
  1  3  1  0  0  0  0
  2  6  1  0  0  0  0
  3 15  1  0  0  0  0
  3  9  2  0  0  0  0
  4 39  1  6  0  0  0
  4 14  1  0  0  0  0
  6  5  2  0  0  0  0
  7  8  1  0  0  0  0
  8 35  1  0  0  0  0
  9  2  1  0  0  0  0
 10 11  1  0  0  0  0
 11  8  2  0  0  0  0
 11  5  1  0  0  0  0
 12  7  1  0  0  0  0
 12 10  2  0  0  0  0
 13 10  1  0  0  0  0
 13  2  2  0  0  0  0
 14 13  1  0  0  0  0
 15 17  1  0  0  0  0
 16 18  1  0  0  0  0
 16 15  2  0  0  0  0
 17 19  2  0  0  0  0
 18 20  2  0  0  0  0
 20 19  1  0  0  0  0
 21 22  1  0  0  0  0
 23 25  1  0  0  0  0
 24 23  1  6  0  0  0
 24 26  1  0  0  0  0
 24 25  1  0  0  0  0
 25 27  1  1  0  0  0
 25 22  1  0  0  0  0
 26 20  1  1  0  0  0
 26 21  1  0  0  0  0
 28 29  1  0  0  0  0
 30 27  1  6  0  0  0
 30 28  1  0  0  0  0
 30 29  1  0  0  0  0
 32 30  1  0  0  0  0
 32 31  1  6  0  0  0
 33 32  1  0  0  0  0
 34 33  1  0  0  0  0
 35 36  1  0  0  0  0
 37 36  1  0  0  0  0
 37 38  1  0  0  0  0
 40 43  1  0  0  0  0
 41 39  1  0  0  0  0
 43 41  1  0  0  0  0
 43 42  2  0  0  0  0
 44 46  1  0  0  0  0
 44 40  1  0  0  0  0
 45 47  2  0  0  0  0
 46 47  1  0  0  0  0
 48 50  1  0  0  0  0
 49 51  1  0  0  0  0
 50 54  2  0  0  0  0
 51 50  1  0  0  0  0
 52 47  1  1  0  0  0
 52 53  1  0  0  0  0
 52 49  1  0  0  0  0
 53 48  1  0  0  0  0
M  END
>  <MODEL>
7

>  <REMARK>
 VINA RESULT:      -5.9      3.096      6.538
  Name = 
  14 active torsions:
  status: ('A' for Active; 'I' for Inactive)
    1  A    between atoms: N_5  and  C_6
    2  A    between atoms: C_6  and  N_25
    3  A    between atoms: O_7  and  C_43
    4  A    between atoms: O_7  and  C_48
    5  A    between atoms: N_10  and  C_23
    6  A    between atoms: C_12  and  C_13
    7  A    between atoms: C_15  and  N_20
    8  A    between atoms: C_15  and  C_31
    9  A    between atoms: C_16  and  C_50
   10  A    between atoms: N_20  and  C_30
   11  A    between atoms: C_23  and  C_43
   12  A    between atoms: N_24  and  C_50
   13  A    between atoms: C_28  and  C_39
   14  A    between atoms: C_52  and  C_54
                            x       y       z     vdW  Elec       q    Type
                         _______ _______ _______ _____ _____    ______ ____

>  <TORSDO>
F 14

$$$$
=
 OpenBabel11042415473D

 54 61  0  0  1  0  0  0  0  0999 V2000
  191.4090  174.3690  143.2830 C   0  0  0  0  0  2  0  0  0  0  0  0
  188.6040  175.5180  143.1170 C   0  0  0  0  0  0  0  0  0  0  0  0
  190.5750  174.4200  142.0490 C   0  0  0  0  0  0  0  0  0  0  0  0
  191.5600  175.7730  143.7960 C   0  0  1  0  0  3  0  0  0  0  0  0
  186.3800  176.1740  143.8010 N   0  0  0  0  0  0  0  0  0  0  0  0
  187.2200  175.6280  142.8810 C   0  0  0  0  0  3  0  0  0  0  0  0
  187.1440  177.6230  147.2350 S   0  0  0  0  0  0  0  0  0  0  0  0
  186.1070  177.2010  145.9780 C   0  0  0  0  0  0  0  0  0  0  0  0
  189.3720  174.9210  142.0540 N   0  0  0  0  0  0  0  0  0  0  0  0
  188.2320  176.5590  145.2760 C   0  0  0  0  0  0  0  0  0  0  0  0
  186.8660  176.6280  144.9790 C   0  0  0  0  0  0  0  0  0  0  0  0
  188.5820  177.0800  146.5240 C   0  0  0  0  0  3  0  0  0  0  0  0
  189.1330  176.0270  144.3440 C   0  0  0  0  0  0  0  0  0  0  0  0
  190.4950  176.0530  144.6830 O   0  0  0  0  0  0  0  0  0  0  0  0
  191.1300  173.8970  140.7810 C   0  0  0  0  0  0  0  0  0  0  0  0
  192.4500  174.1840  140.4030 C   0  0  0  0  0  3  0  0  0  0  0  0
  190.3340  173.1160  139.9270 C   0  0  0  0  0  3  0  0  0  0  0  0
  192.9630  173.7080  139.1930 C   0  0  0  0  0  3  0  0  0  0  0  0
  190.8470  172.6340  138.7200 C   0  0  0  0  0  3  0  0  0  0  0  0
  192.1640  172.9220  138.3490 C   0  0  0  0  0  0  0  0  0  0  0  0
  192.9170  173.6040  136.0860 C   0  0  0  0  0  2  0  0  0  0  0  0
  194.0200  173.1470  135.1590 C   0  0  0  0  0  2  0  0  0  0  0  0
  194.0930  170.6510  136.0210 C   0  0  0  0  0  2  0  0  0  0  0  0
  193.9760  171.6780  137.1340 C   0  0  1  0  0  3  0  0  0  0  0  0
  194.7430  172.0130  135.8690 C   0  0  2  0  0  0  0  0  0  0  0  0
  192.6650  172.4400  137.0220 C   0  0  1  0  0  3  0  0  0  0  0  0
  196.1150  172.1470  136.1480 O   0  0  0  0  0  0  0  0  0  0  0  0
  197.4860  172.9770  137.8100 O   0  0  0  0  0  0  0  0  0  0  0  0
  196.3220  172.6950  138.5530 C   0  0  0  0  0  2  0  0  0  0  0  0
  196.2580  173.1370  137.1370 C   0  0  2  0  0  0  0  0  0  0  0  0
  195.3860  175.3030  137.7830 O   0  0  0  0  0  1  0  0  0  0  0  0
  196.0180  174.6020  136.7510 C   0  0  1  0  0  3  0  0  0  0  0  0
  197.2760  175.2500  136.4210 N   0  0  0  0  0  2  0  0  0  0  0  0
  196.9640  176.3700  135.5500 C   0  0  0  0  0  1  0  0  0  0  0  0
  184.7030  177.4480  145.9170 N   0  0  0  0  0  2  0  0  0  0  0  0
  184.1690  178.7810  145.7070 C   0  0  0  0  0  2  0  0  0  0  0  0
  184.4100  179.2000  144.2720 C   0  0  0  0  0  2  0  0  0  0  0  0
  185.5690  180.1750  144.2200 C   0  0  0  0  0  1  0  0  0  0  0  0
  192.8870  175.9120  144.5250 C   0  0  0  0  0  2  0  0  0  0  0  0
  196.0570  173.8650  143.8620 N   0  0  0  0  0  2  0  0  0  0  0  0
  193.7930  174.8390  144.1380 N   0  0  0  0  0  2  0  0  0  0  0  0
  195.7440  176.0920  144.4340 O   0  0  0  0  0  0  0  0  0  0  0  0
  195.2190  174.9820  144.1530 C   0  0  0  0  0  0  0  0  0  0  0  0
  195.5300  172.5760  143.4330 C   0  0  0  0  0  2  0  0  0  0  0  0
  195.5710  169.7630  142.9600 O   0  0  0  0  0  0  0  0  0  0  0  0
  195.8240  171.5590  144.4330 N   0  0  0  0  0  2  0  0  0  0  0  0
  195.8250  170.1630  144.1310 C   0  0  0  0  0  0  0  0  0  0  0  0
  195.3150  168.3400  147.4750 C   0  0  0  0  0  2  0  0  0  0  0  0
  197.4460  169.3490  145.7280 N   0  0  0  0  0  2  0  0  0  0  0  0
  196.7750  168.2710  147.7920 C   0  0  0  0  0  0  0  0  0  0  0  0
  197.7560  168.2630  146.6580 C   0  0  0  0  0  2  0  0  0  0  0  0
  196.0820  169.1770  145.2230 C   0  0  1  0  0  3  0  0  0  0  0  0
  195.0690  169.3590  146.3620 C   0  0  0  0  0  2  0  0  0  0  0  0
  197.1590  168.1670  148.9470 O   0  0  0  0  0  0  0  0  0  0  0  0
  1  4  1  0  0  0  0
  2 13  2  0  0  0  0
  3  9  2  0  0  0  0
  3  1  1  0  0  0  0
  4 39  1  1  0  0  0
  4 14  1  0  0  0  0
  5 11  1  0  0  0  0
  6  2  1  0  0  0  0
  6  5  2  0  0  0  0
  8  7  1  0  0  0  0
  9  2  1  0  0  0  0
 10 12  2  0  0  0  0
 11 10  1  0  0  0  0
 11  8  2  0  0  0  0
 12  7  1  0  0  0  0
 13 14  1  0  0  0  0
 13 10  1  0  0  0  0
 15  3  1  0  0  0  0
 16 15  1  0  0  0  0
 17 15  2  0  0  0  0
 18 16  2  0  0  0  0
 19 17  1  0  0  0  0
 20 19  2  0  0  0  0
 20 18  1  0  0  0  0
 21 26  1  0  0  0  0
 22 25  1  0  0  0  0
 22 21  1  0  0  0  0
 24 23  1  6  0  0  0
 25 23  1  0  0  0  0
 25 27  1  1  0  0  0
 25 24  1  0  0  0  0
 26 24  1  0  0  0  0
 26 20  1  1  0  0  0
 28 29  1  0  0  0  0
 30 27  1  6  0  0  0
 30 28  1  0  0  0  0
 30 29  1  0  0  0  0
 32 30  1  0  0  0  0
 32 31  1  1  0  0  0
 33 32  1  0  0  0  0
 34 33  1  0  0  0  0
 35  8  1  0  0  0  0
 36 35  1  0  0  0  0
 37 36  1  0  0  0  0
 38 37  1  0  0  0  0
 40 43  1  0  0  0  0
 41 43  1  0  0  0  0
 41 39  1  0  0  0  0
 43 42  2  0  0  0  0
 44 40  1  0  0  0  0
 44 46  1  0  0  0  0
 45 47  2  0  0  0  0
 47 46  1  0  0  0  0
 48 50  1  0  0  0  0
 49 51  1  0  0  0  0
 50 54  2  0  0  0  0
 51 50  1  0  0  0  0
 52 47  1  6  0  0  0
 52 49  1  0  0  0  0
 52 53  1  0  0  0  0
 53 48  1  0  0  0  0
M  END
>  <MODEL>
8

>  <REMARK>
 VINA RESULT:      -5.9      2.903      4.778
  Name = 
  14 active torsions:
  status: ('A' for Active; 'I' for Inactive)
    1  A    between atoms: N_5  and  C_6
    2  A    between atoms: C_6  and  N_25
    3  A    between atoms: O_7  and  C_43
    4  A    between atoms: O_7  and  C_48
    5  A    between atoms: N_10  and  C_23
    6  A    between atoms: C_12  and  C_13
    7  A    between atoms: C_15  and  N_20
    8  A    between atoms: C_15  and  C_31
    9  A    between atoms: C_16  and  C_50
   10  A    between atoms: N_20  and  C_30
   11  A    between atoms: C_23  and  C_43
   12  A    between atoms: N_24  and  C_50
   13  A    between atoms: C_28  and  C_39
   14  A    between atoms: C_52  and  C_54
                            x       y       z     vdW  Elec       q    Type
                         _______ _______ _______ _____ _____    ______ ____

>  <TORSDO>
F 14

$$$$
=
 OpenBabel11042415473D

 54 61  0  0  1  0  0  0  0  0999 V2000
  193.2790  174.4970  145.6230 C   0  0  0  0  0  2  0  0  0  0  0  0
  193.7890  175.5180  142.8100 C   0  0  0  0  0  0  0  0  0  0  0  0
  192.3470  175.3580  144.8410 C   0  0  0  0  0  0  0  0  0  0  0  0
  193.5340  173.2500  144.8240 C   0  0  1  0  0  3  0  0  0  0  0  0
  195.0000  176.2670  140.8560 N   0  0  0  0  0  0  0  0  0  0  0  0
  193.9550  176.3930  141.7190 C   0  0  0  0  0  3  0  0  0  0  0  0
  197.8360  173.7320  140.8230 S   0  0  0  0  0  0  0  0  0  0  0  0
  197.0050  175.0660  140.2210 C   0  0  0  0  0  0  0  0  0  0  0  0
  192.6370  175.7670  143.6380 N   0  0  0  0  0  0  0  0  0  0  0  0
  195.8040  174.3750  142.0920 C   0  0  0  0  0  0  0  0  0  0  0  0
  195.9130  175.2850  141.0340 C   0  0  0  0  0  0  0  0  0  0  0  0
  196.8140  173.4100  142.1350 C   0  0  0  0  0  3  0  0  0  0  0  0
  194.7290  174.4540  142.9860 C   0  0  0  0  0  0  0  0  0  0  0  0
  194.6480  173.4670  143.9800 O   0  0  0  0  0  0  0  0  0  0  0  0
  191.0540  175.7520  145.4420 C   0  0  0  0  0  0  0  0  0  0  0  0
  190.1950  174.7890  145.9930 C   0  0  0  0  0  3  0  0  0  0  0  0
  190.6580  177.1000  145.4550 C   0  0  0  0  0  3  0  0  0  0  0  0
  188.9640  175.1620  146.5380 C   0  0  0  0  0  3  0  0  0  0  0  0
  189.4300  177.4760  146.0040 C   0  0  0  0  0  3  0  0  0  0  0  0
  188.5790  176.5110  146.5530 C   0  0  0  0  0  0  0  0  0  0  0  0
  187.2120  178.4360  147.3140 C   0  0  0  0  0  2  0  0  0  0  0  0
  185.7690  178.8440  147.1270 C   0  0  0  0  0  2  0  0  0  0  0  0
  184.8140  176.3930  146.8840 C   0  0  0  0  0  2  0  0  0  0  0  0
  186.1080  176.6230  146.1220 C   0  0  1  0  0  3  0  0  0  0  0  0
  185.1140  177.7570  146.2900 C   0  0  2  0  0  0  0  0  0  0  0  0
  187.2440  176.9390  147.0810 C   0  0  1  0  0  3  0  0  0  0  0  0
  184.5450  178.0990  145.0500 O   0  0  0  0  0  0  0  0  0  0  0  0
  186.2940  179.6020  144.9410 O   0  0  0  0  0  0  0  0  0  0  0  0
  185.4940  180.0590  143.8750 C   0  0  0  0  0  2  0  0  0  0  0  0
  185.5670  178.6220  144.2380 C   0  0  2  0  0  0  0  0  0  0  0  0
  185.7810  176.6320  142.8720 O   0  0  0  0  0  1  0  0  0  0  0  0
  186.5010  177.6450  143.5130 C   0  0  1  0  0  3  0  0  0  0  0  0
  187.3160  178.3530  142.5400 N   0  0  0  0  0  2  0  0  0  0  0  0
  188.5930  177.6650  142.4700 C   0  0  0  0  0  1  0  0  0  0  0  0
  197.3250  175.8040  139.0420 N   0  0  0  0  0  2  0  0  0  0  0  0
  197.2760  175.1990  137.7230 C   0  0  0  0  0  2  0  0  0  0  0  0
  196.0070  174.3840  137.5890 C   0  0  0  0  0  2  0  0  0  0  0  0
  194.8730  175.2880  137.1500 C   0  0  0  0  0  1  0  0  0  0  0  0
  193.8180  172.0880  145.7630 C   0  0  0  0  0  2  0  0  0  0  0  0
  195.5810  168.9940  144.3510 N   0  0  0  0  0  2  0  0  0  0  0  0
  194.1100  170.8810  145.0030 N   0  0  0  0  0  2  0  0  0  0  0  0
  196.3420  170.7370  145.6800 O   0  0  0  0  0  0  0  0  0  0  0  0
  195.3850  170.2290  145.0360 C   0  0  0  0  0  0  0  0  0  0  0  0
  194.5580  168.3920  143.5050 C   0  0  0  0  0  2  0  0  0  0  0  0
  191.9420  168.8610  142.4670 O   0  0  0  0  0  0  0  0  0  0  0  0
  194.2390  169.2840  142.3980 N   0  0  0  0  0  2  0  0  0  0  0  0
  192.9050  169.4730  141.9240 C   0  0  0  0  0  0  0  0  0  0  0  0
  193.0680  172.6510  139.7720 C   0  0  0  0  0  2  0  0  0  0  0  0
  191.2230  170.4960  140.5230 N   0  0  0  0  0  2  0  0  0  0  0  0
  191.6450  172.5590  139.3220 C   0  0  0  0  0  0  0  0  0  0  0  0
  190.9970  171.2070  139.2650 C   0  0  0  0  0  2  0  0  0  0  0  0
  192.6640  170.3620  140.7490 C   0  0  1  0  0  3  0  0  0  0  0  0
  193.2950  171.7420  140.9800 C   0  0  0  0  0  2  0  0  0  0  0  0
  191.0400  173.5540  138.9550 O   0  0  0  0  0  0  0  0  0  0  0  0
  2 13  2  0  0  0  0
  2  9  1  0  0  0  0
  3 15  1  0  0  0  0
  3  1  1  0  0  0  0
  4  1  1  0  0  0  0
  4 39  1  1  0  0  0
  5 11  1  0  0  0  0
  5  6  2  0  0  0  0
  6  2  1  0  0  0  0
  7 12  1  0  0  0  0
  8  7  1  0  0  0  0
  8 11  2  0  0  0  0
  9  3  2  0  0  0  0
 10 12  2  0  0  0  0
 10 13  1  0  0  0  0
 11 10  1  0  0  0  0
 13 14  1  0  0  0  0
 14  4  1  0  0  0  0
 15 17  2  0  0  0  0
 15 16  1  0  0  0  0
 16 18  2  0  0  0  0
 17 19  1  0  0  0  0
 18 20  1  0  0  0  0
 19 20  2  0  0  0  0
 22 21  1  0  0  0  0
 24 25  1  0  0  0  0
 24 23  1  1  0  0  0
 24 26  1  0  0  0  0
 25 27  1  6  0  0  0
 25 23  1  0  0  0  0
 25 22  1  0  0  0  0
 26 20  1  6  0  0  0
 26 21  1  0  0  0  0
 29 30  1  0  0  0  0
 29 28  1  0  0  0  0
 30 28  1  0  0  0  0
 30 27  1  1  0  0  0
 32 31  1  6  0  0  0
 32 30  1  0  0  0  0
 33 32  1  0  0  0  0
 34 33  1  0  0  0  0
 35  8  1  0  0  0  0
 36 35  1  0  0  0  0
 37 36  1  0  0  0  0
 38 37  1  0  0  0  0
 40 43  1  0  0  0  0
 41 43  1  0  0  0  0
 41 39  1  0  0  0  0
 43 42  2  0  0  0  0
 44 40  1  0  0  0  0
 46 44  1  0  0  0  0
 47 46  1  0  0  0  0
 47 45  2  0  0  0  0
 48 53  1  0  0  0  0
 49 52  1  0  0  0  0
 50 48  1  0  0  0  0
 51 50  1  0  0  0  0
 51 49  1  0  0  0  0
 52 53  1  0  0  0  0
 52 47  1  1  0  0  0
 54 50  2  0  0  0  0
M  END
>  <MODEL>
9

>  <REMARK>
 VINA RESULT:      -5.9      3.844     10.440
  Name = 
  14 active torsions:
  status: ('A' for Active; 'I' for Inactive)
    1  A    between atoms: N_5  and  C_6
    2  A    between atoms: C_6  and  N_25
    3  A    between atoms: O_7  and  C_43
    4  A    between atoms: O_7  and  C_48
    5  A    between atoms: N_10  and  C_23
    6  A    between atoms: C_12  and  C_13
    7  A    between atoms: C_15  and  N_20
    8  A    between atoms: C_15  and  C_31
    9  A    between atoms: C_16  and  C_50
   10  A    between atoms: N_20  and  C_30
   11  A    between atoms: C_23  and  C_43
   12  A    between atoms: N_24  and  C_50
   13  A    between atoms: C_28  and  C_39
   14  A    between atoms: C_52  and  C_54
                            x       y       z     vdW  Elec       q    Type
                         _______ _______ _______ _____ _____    ______ ____

>  <TORSDO>
F 14

$$$$
