=
 OpenBabel11042413503D

 25 28  0  0  1  0  0  0  0  0999 V2000
  187.7460  177.0310  141.6840 C   0  0  0  0  0  0  0  0  0  0  0  0
  188.0400  175.8510  141.5730 O   0  0  0  0  0  0  0  0  0  0  0  0
  186.3390  177.4880  141.4400 C   0  0  2  0  0  3  0  0  0  0  0  0
  186.1610  177.7500  140.0820 O   0  0  0  0  0  1  0  0  0  0  0  0
  186.0340  178.7440  142.2440 C   0  0  0  0  0  2  0  0  0  0  0  0
  183.7480  178.0870  142.2960 O   0  0  0  0  0  1  0  0  0  0  0  0
  184.7930  178.5490  143.0970 C   0  0  1  0  0  3  0  0  0  0  0  0
  185.0690  177.5730  144.1420 N   0  0  0  0  0  2  0  0  0  0  0  0
  185.6460  177.2790  146.3930 C   0  0  0  0  0  2  0  0  0  0  0  0
  184.1100  179.0130  145.6290 O   0  0  0  0  0  0  0  0  0  0  0  0
  185.2870  178.3090  145.3750 C   0  0  1  0  0  0  0  0  0  0  0  0
  184.4010  178.5440  147.7350 F   0  0  0  0  0  0  0  0  0  0  0  0
  184.3010  177.9350  146.5000 C   0  0  2  0  0  0  0  0  0  0  0  0
  188.8030  178.0200  142.0590 C   0  0  0  0  0  2  0  0  0  0  0  0
  190.8370  176.8820  145.6350 C   0  0  0  0  0  0  0  0  0  0  0  0
  192.9470  176.0630  146.7020 N   0  0  0  0  0  0  0  0  0  0  0  0
  190.8180  177.2930  143.2810 N   0  0  0  0  0  0  0  0  0  0  0  0
  191.5000  176.9240  144.3990 C   0  0  0  0  0  0  0  0  0  0  0  0
  189.4990  177.6210  143.3180 C   0  0  0  0  0  0  0  0  0  0  0  0
  189.4820  177.2250  145.6960 C   0  0  0  0  0  3  0  0  0  0  0  0
  193.5870  176.1030  145.5720 C   0  0  0  0  0  3  0  0  0  0  0  0
  188.8080  177.6010  144.5350 C   0  0  0  0  0  3  0  0  0  0  0  0
  191.0230  176.4320  147.9590 O   0  0  0  0  0  0  0  0  0  0  0  0
  191.5800  176.4630  146.8290 C   0  0  0  0  0  0  0  0  0  0  0  0
  192.9670  176.6030  144.2900 C   0  0  0  0  0  2  0  0  0  0  0  0
  1 14  1  0  0  0  0
  2  1  2  0  0  0  0
  3  4  1  6  0  0  0
  3  1  1  0  0  0  0
  3  5  1  0  0  0  0
  5  7  1  0  0  0  0
  7  6  1  6  0  0  0
  7  8  1  0  0  0  0
  9 13  1  0  0  0  0
 10 13  1  0  0  0  0
 11  8  1  6  0  0  0
 11 10  1  0  0  0  0
 11  9  1  0  0  0  0
 11 13  1  0  0  0  0
 13 12  1  1  0  0  0
 14 19  1  0  0  0  0
 15 20  1  0  0  0  0
 15 24  1  0  0  0  0
 16 24  1  0  0  0  0
 17 19  2  0  0  0  0
 17 18  1  0  0  0  0
 18 15  2  0  0  0  0
 19 22  1  0  0  0  0
 21 16  2  0  0  0  0
 22 20  2  0  0  0  0
 24 23  2  0  0  0  0
 25 18  1  0  0  0  0
 25 21  1  0  0  0  0
M  END
>  <MODEL>
1

>  <REMARK>
 VINA RESULT:      -6.9      0.000      0.000
  Name = 
  7 active torsions:
  status: ('A' for Active; 'I' for Inactive)
    1  A    between atoms: C_2  and  C_6
    2  A    between atoms: C_2  and  C_25
    3  A    between atoms: C_6  and  C_13
    4  A    between atoms: C_9  and  N_24
    5  A    between atoms: C_13  and  C_22
    6  A    between atoms: C_14  and  C_25
    7  A    between atoms: C_22  and  N_24
                            x       y       z     vdW  Elec       q    Type
                         _______ _______ _______ _____ _____    ______ ____

>  <TORSDO>
F 7

$$$$
=
 OpenBabel11042413503D

 25 28  0  0  1  0  0  0  0  0999 V2000
  185.8970  177.2690  146.5410 C   0  0  0  0  0  0  0  0  0  0  0  0
  185.2390  176.3760  146.0300 O   0  0  0  0  0  0  0  0  0  0  0  0
  185.5580  178.7050  146.2760 C   0  0  2  0  0  3  0  0  0  0  0  0
  185.5630  179.4160  147.4760 O   0  0  0  0  0  1  0  0  0  0  0  0
  184.1880  178.8240  145.6230 C   0  0  0  0  0  2  0  0  0  0  0  0
  185.4220  180.1930  144.1190 O   0  0  0  0  0  1  0  0  0  0  0  0
  184.3120  179.3510  144.2050 C   0  0  1  0  0  3  0  0  0  0  0  0
  184.4800  178.2360  143.2830 N   0  0  0  0  0  2  0  0  0  0  0  0
  185.3620  178.3010  141.1140 C   0  0  0  0  0  2  0  0  0  0  0  0
  186.6390  177.5370  143.0460 O   0  0  0  0  0  0  0  0  0  0  0  0
  185.7160  178.4600  142.5540 C   0  0  1  0  0  0  0  0  0  0  0  0
  187.3480  177.3050  141.0010 F   0  0  0  0  0  0  0  0  0  0  0  0
  186.1930  177.2310  141.7550 C   0  0  2  0  0  0  0  0  0  0  0  0
  187.0480  176.9190  147.4280 C   0  0  0  0  0  2  0  0  0  0  0  0
  190.4540  175.7500  145.1360 C   0  0  0  0  0  0  0  0  0  0  0  0
  192.0860  176.3190  143.3250 N   0  0  0  0  0  0  0  0  0  0  0  0
  188.7830  177.3510  145.7280 N   0  0  0  0  0  0  0  0  0  0  0  0
  189.8670  177.0140  144.9780 C   0  0  0  0  0  0  0  0  0  0  0  0
  188.2380  176.4930  146.6320 C   0  0  0  0  0  0  0  0  0  0  0  0
  189.9140  174.8560  146.0660 C   0  0  0  0  0  3  0  0  0  0  0  0
  191.5670  177.5000  143.1680 C   0  0  0  0  0  3  0  0  0  0  0  0
  188.8030  175.2270  146.8230 C   0  0  0  0  0  3  0  0  0  0  0  0
  192.1760  174.2740  144.4320 O   0  0  0  0  0  0  0  0  0  0  0  0
  191.6100  175.3920  144.3060 C   0  0  0  0  0  0  0  0  0  0  0  0
  190.4370  178.0250  144.0200 C   0  0  0  0  0  2  0  0  0  0  0  0
  1 14  1  0  0  0  0
  2  1  2  0  0  0  0
  3  1  1  0  0  0  0
  3  4  1  1  0  0  0
  5  3  1  0  0  0  0
  7  6  1  1  0  0  0
  7  5  1  0  0  0  0
  8  7  1  0  0  0  0
  9 13  1  0  0  0  0
  9 11  1  0  0  0  0
 11 10  1  0  0  0  0
 11  8  1  1  0  0  0
 13 12  1  6  0  0  0
 13 11  1  0  0  0  0
 13 10  1  0  0  0  0
 15 20  1  0  0  0  0
 16 24  1  0  0  0  0
 17 19  2  0  0  0  0
 18 15  2  0  0  0  0
 18 17  1  0  0  0  0
 19 22  1  0  0  0  0
 19 14  1  0  0  0  0
 20 22  2  0  0  0  0
 21 16  2  0  0  0  0
 21 25  1  0  0  0  0
 24 23  2  0  0  0  0
 24 15  1  0  0  0  0
 25 18  1  0  0  0  0
M  END
>  <MODEL>
2

>  <REMARK>
 VINA RESULT:      -6.8      2.493      4.190
  Name = 
  7 active torsions:
  status: ('A' for Active; 'I' for Inactive)
    1  A    between atoms: C_2  and  C_6
    2  A    between atoms: C_2  and  C_25
    3  A    between atoms: C_6  and  C_13
    4  A    between atoms: C_9  and  N_24
    5  A    between atoms: C_13  and  C_22
    6  A    between atoms: C_14  and  C_25
    7  A    between atoms: C_22  and  N_24
                            x       y       z     vdW  Elec       q    Type
                         _______ _______ _______ _____ _____    ______ ____

>  <TORSDO>
F 7

$$$$
=
 OpenBabel11042413503D

 25 28  0  0  1  0  0  0  0  0999 V2000
  187.7690  177.1110  141.4390 C   0  0  0  0  0  0  0  0  0  0  0  0
  188.1060  176.0050  141.0480 O   0  0  0  0  0  0  0  0  0  0  0  0
  186.3210  177.4960  141.4690 C   0  0  2  0  0  3  0  0  0  0  0  0
  185.8870  177.7870  140.1760 O   0  0  0  0  0  1  0  0  0  0  0  0
  186.1050  178.7110  142.3610 C   0  0  0  0  0  2  0  0  0  0  0  0
  183.8820  177.9360  142.7000 O   0  0  0  0  0  1  0  0  0  0  0  0
  184.9960  178.4510  143.3650 C   0  0  1  0  0  3  0  0  0  0  0  0
  185.4530  177.4900  144.3590 N   0  0  0  0  0  2  0  0  0  0  0  0
  185.7300  179.0020  146.1250 C   0  0  0  0  0  2  0  0  0  0  0  0
  184.8780  176.7380  146.4350 O   0  0  0  0  0  0  0  0  0  0  0  0
  184.8790  177.8800  145.6340 C   0  0  1  0  0  0  0  0  0  0  0  0
  185.4260  178.0270  148.1010 F   0  0  0  0  0  0  0  0  0  0  0  0
  185.8340  177.6820  146.8280 C   0  0  2  0  0  0  0  0  0  0  0  0
  188.8150  178.0830  141.8840 C   0  0  0  0  0  2  0  0  0  0  0  0
  190.9360  176.5760  145.2680 C   0  0  0  0  0  0  0  0  0  0  0  0
  190.8440  175.3820  147.4660 N   0  0  0  0  0  0  0  0  0  0  0  0
  188.9170  176.8600  144.0240 N   0  0  0  0  0  0  0  0  0  0  0  0
  189.5570  176.3650  145.1170 C   0  0  0  0  0  0  0  0  0  0  0  0
  189.5720  177.5660  143.0630 C   0  0  0  0  0  0  0  0  0  0  0  0
  191.6300  177.2910  144.2870 C   0  0  0  0  0  3  0  0  0  0  0  0
  189.5690  175.1640  147.3440 C   0  0  0  0  0  3  0  0  0  0  0  0
  190.9490  177.7870  143.1750 C   0  0  0  0  0  3  0  0  0  0  0  0
  192.8510  176.2060  146.6230 O   0  0  0  0  0  0  0  0  0  0  0  0
  191.6110  176.0540  146.4620 C   0  0  0  0  0  0  0  0  0  0  0  0
  188.7760  175.5660  146.1250 C   0  0  0  0  0  2  0  0  0  0  0  0
  1  3  1  0  0  0  0
  1 14  1  0  0  0  0
  2  1  2  0  0  0  0
  3  4  1  6  0  0  0
  3  5  1  0  0  0  0
  5  7  1  0  0  0  0
  7  6  1  6  0  0  0
  7  8  1  0  0  0  0
  9 13  1  0  0  0  0
 10 13  1  0  0  0  0
 11  8  1  6  0  0  0
 11  9  1  0  0  0  0
 11 10  1  0  0  0  0
 11 13  1  0  0  0  0
 13 12  1  1  0  0  0
 14 19  1  0  0  0  0
 15 24  1  0  0  0  0
 17 18  2  0  0  0  0
 18 15  1  0  0  0  0
 18 25  1  0  0  0  0
 19 22  2  0  0  0  0
 19 17  1  0  0  0  0
 20 15  2  0  0  0  0
 21 16  2  0  0  0  0
 22 20  1  0  0  0  0
 24 23  2  0  0  0  0
 24 16  1  0  0  0  0
 25 21  1  0  0  0  0
M  END
>  <MODEL>
3

>  <REMARK>
 VINA RESULT:      -6.8      1.255      1.901
  Name = 
  7 active torsions:
  status: ('A' for Active; 'I' for Inactive)
    1  A    between atoms: C_2  and  C_6
    2  A    between atoms: C_2  and  C_25
    3  A    between atoms: C_6  and  C_13
    4  A    between atoms: C_9  and  N_24
    5  A    between atoms: C_13  and  C_22
    6  A    between atoms: C_14  and  C_25
    7  A    between atoms: C_22  and  N_24
                            x       y       z     vdW  Elec       q    Type
                         _______ _______ _______ _____ _____    ______ ____

>  <TORSDO>
F 7

$$$$
=
 OpenBabel11042413503D

 25 28  0  0  1  0  0  0  0  0999 V2000
  189.3410  176.0680  142.3320 C   0  0  0  0  0  0  0  0  0  0  0  0
  188.4100  175.2840  142.2390 O   0  0  0  0  0  0  0  0  0  0  0  0
  190.7520  175.5660  142.3880 C   0  0  2  0  0  3  0  0  0  0  0  0
  190.7580  174.2330  142.7980 O   0  0  0  0  0  1  0  0  0  0  0  0
  191.5820  176.3980  143.3560 C   0  0  0  0  0  2  0  0  0  0  0  0
  193.2730  175.7470  144.8960 O   0  0  0  0  0  1  0  0  0  0  0  0
  191.9170  175.5990  144.6020 C   0  0  1  0  0  3  0  0  0  0  0  0
  191.1240  176.0880  145.7220 N   0  0  0  0  0  2  0  0  0  0  0  0
  189.3250  174.5980  145.8910 C   0  0  0  0  0  2  0  0  0  0  0  0
  190.6590  175.2940  147.8100 O   0  0  0  0  0  0  0  0  0  0  0  0
  190.6620  174.9290  146.4640 C   0  0  1  0  0  0  0  0  0  0  0  0
  188.8100  174.1640  148.0110 F   0  0  0  0  0  0  0  0  0  0  0  0
  189.3730  175.1840  147.2700 C   0  0  2  0  0  0  0  0  0  0  0  0
  189.0620  177.5360  142.3960 C   0  0  0  0  0  2  0  0  0  0  0  0
  185.7400  178.3680  144.9450 C   0  0  0  0  0  0  0  0  0  0  0  0
  184.7910  178.3540  147.2610 N   0  0  0  0  0  0  0  0  0  0  0  0
  187.9990  177.6640  144.6190 N   0  0  0  0  0  0  0  0  0  0  0  0
  186.9630  177.9170  145.4630 C   0  0  0  0  0  0  0  0  0  0  0  0
  187.8890  177.8290  143.2730 C   0  0  0  0  0  0  0  0  0  0  0  0
  185.6080  178.5520  143.5640 C   0  0  0  0  0  3  0  0  0  0  0  0
  185.9170  177.9480  147.7670 C   0  0  0  0  0  3  0  0  0  0  0  0
  186.6870  178.2860  142.7220 C   0  0  0  0  0  3  0  0  0  0  0  0
  183.5170  179.0410  145.4390 O   0  0  0  0  0  0  0  0  0  0  0  0
  184.6230  178.6170  145.8650 C   0  0  0  0  0  0  0  0  0  0  0  0
  187.1660  177.7430  146.9440 C   0  0  0  0  0  2  0  0  0  0  0  0
  1  3  1  0  0  0  0
  1 14  1  0  0  0  0
  2  1  2  0  0  0  0
  3  4  1  1  0  0  0
  3  5  1  0  0  0  0
  5  7  1  0  0  0  0
  7  6  1  1  0  0  0
  7  8  1  0  0  0  0
  9 11  1  0  0  0  0
  9 13  1  0  0  0  0
 11  8  1  6  0  0  0
 11 13  1  0  0  0  0
 11 10  1  0  0  0  0
 13 10  1  0  0  0  0
 13 12  1  1  0  0  0
 14 19  1  0  0  0  0
 15 18  1  0  0  0  0
 15 24  1  0  0  0  0
 16 21  2  0  0  0  0
 17 18  2  0  0  0  0
 18 25  1  0  0  0  0
 19 17  1  0  0  0  0
 20 15  2  0  0  0  0
 22 19  2  0  0  0  0
 22 20  1  0  0  0  0
 23 24  2  0  0  0  0
 24 16  1  0  0  0  0
 25 21  1  0  0  0  0
M  END
>  <MODEL>
4

>  <REMARK>
 VINA RESULT:      -6.6      2.327      6.028
  Name = 
  7 active torsions:
  status: ('A' for Active; 'I' for Inactive)
    1  A    between atoms: C_2  and  C_6
    2  A    between atoms: C_2  and  C_25
    3  A    between atoms: C_6  and  C_13
    4  A    between atoms: C_9  and  N_24
    5  A    between atoms: C_13  and  C_22
    6  A    between atoms: C_14  and  C_25
    7  A    between atoms: C_22  and  N_24
                            x       y       z     vdW  Elec       q    Type
                         _______ _______ _______ _____ _____    ______ ____

>  <TORSDO>
F 7

$$$$
=
 OpenBabel11042413503D

 25 28  0  0  1  0  0  0  0  0999 V2000
  187.0190  177.9200  141.2790 C   0  0  0  0  0  0  0  0  0  0  0  0
  187.0370  177.5410  140.1180 O   0  0  0  0  0  0  0  0  0  0  0  0
  185.7210  178.0440  142.0160 C   0  0  2  0  0  3  0  0  0  0  0  0
  184.6730  178.1660  141.1020 O   0  0  0  0  0  1  0  0  0  0  0  0
  185.7370  179.2580  142.9340 C   0  0  0  0  0  2  0  0  0  0  0  0
  183.5410  179.0850  143.8320 O   0  0  0  0  0  1  0  0  0  0  0  0
  184.8930  179.0080  144.1710 C   0  0  1  0  0  3  0  0  0  0  0  0
  185.1830  177.6830  144.7000 N   0  0  0  0  0  2  0  0  0  0  0  0
  185.6630  178.8350  146.6820 C   0  0  0  0  0  2  0  0  0  0  0  0
  185.1940  176.4430  146.6150 O   0  0  0  0  0  0  0  0  0  0  0  0
  184.8700  177.7050  146.1180 C   0  0  1  0  0  0  0  0  0  0  0  0
  185.9400  177.4460  148.3970 F   0  0  0  0  0  0  0  0  0  0  0  0
  186.0880  177.4380  147.0240 C   0  0  2  0  0  0  0  0  0  0  0  0
  188.3060  178.2650  141.9580 C   0  0  0  0  0  2  0  0  0  0  0  0
  189.3350  175.3310  144.8820 C   0  0  0  0  0  0  0  0  0  0  0  0
  189.8040  172.9260  145.3970 N   0  0  0  0  0  0  0  0  0  0  0  0
  188.8710  175.9580  142.6250 N   0  0  0  0  0  0  0  0  0  0  0  0
  189.1980  174.9940  143.5270 C   0  0  0  0  0  0  0  0  0  0  0  0
  188.6620  177.2500  142.9940 C   0  0  0  0  0  0  0  0  0  0  0  0
  189.1350  176.6560  145.2820 C   0  0  0  0  0  3  0  0  0  0  0  0
  189.6930  172.5910  144.1470 C   0  0  0  0  0  3  0  0  0  0  0  0
  188.8000  177.6240  144.3360 C   0  0  0  0  0  3  0  0  0  0  0  0
  189.8200  174.5440  147.0700 O   0  0  0  0  0  0  0  0  0  0  0  0
  189.6700  174.2770  145.8490 C   0  0  0  0  0  0  0  0  0  0  0  0
  189.4450  173.5910  143.0430 C   0  0  0  0  0  2  0  0  0  0  0  0
  1 14  1  0  0  0  0
  1  3  1  0  0  0  0
  2  1  2  0  0  0  0
  3  4  1  6  0  0  0
  3  5  1  0  0  0  0
  5  7  1  0  0  0  0
  7  6  1  6  0  0  0
  7  8  1  0  0  0  0
  9 13  1  0  0  0  0
 10 13  1  0  0  0  0
 11  8  1  6  0  0  0
 11 10  1  0  0  0  0
 11  9  1  0  0  0  0
 11 13  1  0  0  0  0
 13 12  1  1  0  0  0
 14 19  1  0  0  0  0
 15 20  1  0  0  0  0
 15 24  1  0  0  0  0
 16 24  1  0  0  0  0
 17 19  2  0  0  0  0
 17 18  1  0  0  0  0
 18 15  2  0  0  0  0
 19 22  1  0  0  0  0
 21 16  2  0  0  0  0
 22 20  2  0  0  0  0
 24 23  2  0  0  0  0
 25 18  1  0  0  0  0
 25 21  1  0  0  0  0
M  END
>  <MODEL>
5

>  <REMARK>
 VINA RESULT:      -6.5      2.184      2.450
  Name = 
  7 active torsions:
  status: ('A' for Active; 'I' for Inactive)
    1  A    between atoms: C_2  and  C_6
    2  A    between atoms: C_2  and  C_25
    3  A    between atoms: C_6  and  C_13
    4  A    between atoms: C_9  and  N_24
    5  A    between atoms: C_13  and  C_22
    6  A    between atoms: C_14  and  C_25
    7  A    between atoms: C_22  and  N_24
                            x       y       z     vdW  Elec       q    Type
                         _______ _______ _______ _____ _____    ______ ____

>  <TORSDO>
F 7

$$$$
=
 OpenBabel11042413503D

 25 28  0  0  1  0  0  0  0  0999 V2000
  189.8280  174.9590  146.9000 C   0  0  0  0  0  0  0  0  0  0  0  0
  189.9930  174.2620  145.9110 O   0  0  0  0  0  0  0  0  0  0  0  0
  191.0060  175.4860  147.6610 C   0  0  2  0  0  3  0  0  0  0  0  0
  190.8390  176.8510  147.8960 O   0  0  0  0  0  1  0  0  0  0  0  0
  192.2950  175.2590  146.8830 C   0  0  0  0  0  2  0  0  0  0  0  0
  193.9800  176.8160  146.2570 O   0  0  0  0  0  1  0  0  0  0  0  0
  192.6420  176.4790  146.0490 C   0  0  1  0  0  3  0  0  0  0  0  0
  192.4330  176.1800  144.6390 N   0  0  0  0  0  2  0  0  0  0  0  0
  190.6170  177.6580  144.6070 C   0  0  0  0  0  2  0  0  0  0  0  0
  191.9540  177.1530  142.6320 O   0  0  0  0  0  0  0  0  0  0  0  0
  191.9560  177.3960  144.0050 C   0  0  1  0  0  0  0  0  0  0  0  0
  190.0920  178.2750  142.5350 F   0  0  0  0  0  0  0  0  0  0  0  0
  190.6690  177.1990  143.1810 C   0  0  2  0  0  0  0  0  0  0  0  0
  188.4380  175.2770  147.3490 C   0  0  0  0  0  2  0  0  0  0  0  0
  186.5820  178.0940  144.7340 C   0  0  0  0  0  0  0  0  0  0  0  0
  185.8660  178.6710  142.4050 N   0  0  0  0  0  0  0  0  0  0  0  0
  187.5990  175.9700  145.1360 N   0  0  0  0  0  0  0  0  0  0  0  0
  187.0130  176.8410  144.2710 C   0  0  0  0  0  0  0  0  0  0  0  0
  187.7900  176.2760  146.4480 C   0  0  0  0  0  0  0  0  0  0  0  0
  186.7610  178.4250  146.0810 C   0  0  0  0  0  3  0  0  0  0  0  0
  186.2470  177.5130  141.9540 C   0  0  0  0  0  3  0  0  0  0  0  0
  187.3640  177.5120  146.9460 C   0  0  0  0  0  3  0  0  0  0  0  0
  185.5540  180.1590  144.1680 O   0  0  0  0  0  0  0  0  0  0  0  0
  185.9700  179.0330  143.7860 C   0  0  0  0  0  0  0  0  0  0  0  0
  186.8050  176.4250  142.8400 C   0  0  0  0  0  2  0  0  0  0  0  0
  1 14  1  0  0  0  0
  1  3  1  0  0  0  0
  2  1  2  0  0  0  0
  3  4  1  6  0  0  0
  5  3  1  0  0  0  0
  7  6  1  6  0  0  0
  7  5  1  0  0  0  0
  8  7  1  0  0  0  0
 10 13  1  0  0  0  0
 10 11  1  0  0  0  0
 11  9  1  0  0  0  0
 11  8  1  1  0  0  0
 13 12  1  6  0  0  0
 13 11  1  0  0  0  0
 13  9  1  0  0  0  0
 15 20  1  0  0  0  0
 16 24  1  0  0  0  0
 17 19  2  0  0  0  0
 18 15  2  0  0  0  0
 18 17  1  0  0  0  0
 19 22  1  0  0  0  0
 19 14  1  0  0  0  0
 20 22  2  0  0  0  0
 21 16  2  0  0  0  0
 21 25  1  0  0  0  0
 24 23  2  0  0  0  0
 24 15  1  0  0  0  0
 25 18  1  0  0  0  0
M  END
>  <MODEL>
6

>  <REMARK>
 VINA RESULT:      -6.5      2.609      6.954
  Name = 
  7 active torsions:
  status: ('A' for Active; 'I' for Inactive)
    1  A    between atoms: C_2  and  C_6
    2  A    between atoms: C_2  and  C_25
    3  A    between atoms: C_6  and  C_13
    4  A    between atoms: C_9  and  N_24
    5  A    between atoms: C_13  and  C_22
    6  A    between atoms: C_14  and  C_25
    7  A    between atoms: C_22  and  N_24
                            x       y       z     vdW  Elec       q    Type
                         _______ _______ _______ _____ _____    ______ ____

>  <TORSDO>
F 7

$$$$
=
 OpenBabel11042413503D

 25 28  0  0  1  0  0  0  0  0999 V2000
  189.8120  175.1350  146.8830 C   0  0  0  0  0  0  0  0  0  0  0  0
  189.0560  174.5400  147.6350 O   0  0  0  0  0  0  0  0  0  0  0  0
  190.7370  174.3750  145.9820 C   0  0  2  0  0  3  0  0  0  0  0  0
  191.4540  175.2690  145.1850 O   0  0  0  0  0  1  0  0  0  0  0  0
  189.9570  173.4170  145.0930 C   0  0  0  0  0  2  0  0  0  0  0  0
  191.3350  171.8360  143.9690 O   0  0  0  0  0  1  0  0  0  0  0  0
  190.7400  173.0920  143.8340 C   0  0  1  0  0  3  0  0  0  0  0  0
  189.8390  173.0780  142.6890 N   0  0  0  0  0  2  0  0  0  0  0  0
  187.8100  174.0240  142.0010 C   0  0  0  0  0  2  0  0  0  0  0  0
  189.8920  175.2880  142.1240 O   0  0  0  0  0  0  0  0  0  0  0  0
  189.0850  174.3180  142.7180 C   0  0  1  0  0  0  0  0  0  0  0  0
  188.0900  176.0790  141.1950 F   0  0  0  0  0  0  0  0  0  0  0  0
  188.8120  174.9090  141.3200 C   0  0  2  0  0  0  0  0  0  0  0  0
  189.8120  176.6310  146.8720 C   0  0  0  0  0  2  0  0  0  0  0  0
  186.4680  178.1770  144.7150 C   0  0  0  0  0  0  0  0  0  0  0  0
  184.0670  178.8820  144.7510 N   0  0  0  0  0  0  0  0  0  0  0  0
  187.4840  177.4380  146.7470 N   0  0  0  0  0  0  0  0  0  0  0  0
  186.3970  177.9300  146.0950 C   0  0  0  0  0  0  0  0  0  0  0  0
  188.6510  177.1680  146.1010 C   0  0  0  0  0  0  0  0  0  0  0  0
  187.6610  177.9140  144.0340 C   0  0  0  0  0  3  0  0  0  0  0  0
  183.9780  178.6720  146.0300 C   0  0  0  0  0  3  0  0  0  0  0  0
  188.7610  177.4110  144.7280 C   0  0  0  0  0  3  0  0  0  0  0  0
  185.3130  178.9410  142.7860 O   0  0  0  0  0  0  0  0  0  0  0  0
  185.2810  178.6890  144.0200 C   0  0  0  0  0  0  0  0  0  0  0  0
  185.1490  178.2350  146.8780 C   0  0  0  0  0  2  0  0  0  0  0  0
  1  2  2  0  0  0  0
  3  4  1  6  0  0  0
  3  1  1  0  0  0  0
  5  3  1  0  0  0  0
  7  6  1  1  0  0  0
  7  5  1  0  0  0  0
  8  7  1  0  0  0  0
  9 11  1  0  0  0  0
 10 11  1  0  0  0  0
 11  8  1  6  0  0  0
 13 12  1  1  0  0  0
 13  9  1  0  0  0  0
 13 10  1  0  0  0  0
 13 11  1  0  0  0  0
 14  1  1  0  0  0  0
 15 18  1  0  0  0  0
 16 21  2  0  0  0  0
 18 17  2  0  0  0  0
 18 25  1  0  0  0  0
 19 17  1  0  0  0  0
 19 14  1  0  0  0  0
 20 15  2  0  0  0  0
 20 22  1  0  0  0  0
 21 25  1  0  0  0  0
 22 19  2  0  0  0  0
 23 24  2  0  0  0  0
 24 15  1  0  0  0  0
 24 16  1  0  0  0  0
M  END
>  <MODEL>
7

>  <REMARK>
 VINA RESULT:      -6.5      3.027      6.903
  Name = 
  7 active torsions:
  status: ('A' for Active; 'I' for Inactive)
    1  A    between atoms: C_2  and  C_6
    2  A    between atoms: C_2  and  C_25
    3  A    between atoms: C_6  and  C_13
    4  A    between atoms: C_9  and  N_24
    5  A    between atoms: C_13  and  C_22
    6  A    between atoms: C_14  and  C_25
    7  A    between atoms: C_22  and  N_24
                            x       y       z     vdW  Elec       q    Type
                         _______ _______ _______ _____ _____    ______ ____

>  <TORSDO>
F 7

$$$$
=
 OpenBabel11042413503D

 25 28  0  0  1  0  0  0  0  0999 V2000
  185.1460  178.1810  143.1930 C   0  0  0  0  0  0  0  0  0  0  0  0
  184.2420  177.5830  142.6320 O   0  0  0  0  0  0  0  0  0  0  0  0
  185.0620  178.4780  144.6600 C   0  0  2  0  0  3  0  0  0  0  0  0
  185.9300  179.5230  144.9760 O   0  0  0  0  0  1  0  0  0  0  0  0
  185.4270  177.2500  145.4810 C   0  0  0  0  0  2  0  0  0  0  0  0
  185.5790  178.0100  147.7300 O   0  0  0  0  0  1  0  0  0  0  0  0
  186.3460  177.6240  146.6300 C   0  0  1  0  0  3  0  0  0  0  0  0
  187.1650  176.4750  146.9920 N   0  0  0  0  0  2  0  0  0  0  0  0
  188.9510  175.1300  146.2930 C   0  0  0  0  0  2  0  0  0  0  0  0
  189.1030  177.5580  146.4650 O   0  0  0  0  0  0  0  0  0  0  0  0
  188.3140  176.4660  146.1040 C   0  0  1  0  0  0  0  0  0  0  0  0
  190.8400  176.2920  146.1190 F   0  0  0  0  0  0  0  0  0  0  0  0
  189.6620  176.3320  146.8400 C   0  0  2  0  0  0  0  0  0  0  0  0
  186.3390  178.6190  142.4040 C   0  0  0  0  0  2  0  0  0  0  0  0
  189.5640  175.8430  142.7380 C   0  0  0  0  0  0  0  0  0  0  0  0
  192.0250  175.4770  143.0130 N   0  0  0  0  0  0  0  0  0  0  0  0
  188.7210  178.0780  142.7470 N   0  0  0  0  0  0  0  0  0  0  0  0
  189.7740  177.2250  142.8580 C   0  0  0  0  0  0  0  0  0  0  0  0
  187.4560  177.6340  142.5150 C   0  0  0  0  0  0  0  0  0  0  0  0
  188.2690  175.3650  142.5080 C   0  0  0  0  0  3  0  0  0  0  0  0
  192.2450  176.7520  143.1390 C   0  0  0  0  0  3  0  0  0  0  0  0
  187.2070  176.2620  142.4000 C   0  0  0  0  0  3  0  0  0  0  0  0
  190.5600  173.6870  142.7560 O   0  0  0  0  0  0  0  0  0  0  0  0
  190.7120  174.9340  142.8400 C   0  0  0  0  0  0  0  0  0  0  0  0
  191.1420  177.7830  143.1460 C   0  0  0  0  0  2  0  0  0  0  0  0
  1  3  1  0  0  0  0
  2  1  2  0  0  0  0
  3  4  1  6  0  0  0
  3  5  1  0  0  0  0
  5  7  1  0  0  0  0
  7  8  1  0  0  0  0
  7  6  1  1  0  0  0
  9 13  1  0  0  0  0
 10 13  1  0  0  0  0
 11  9  1  0  0  0  0
 11 10  1  0  0  0  0
 11 13  1  0  0  0  0
 11  8  1  1  0  0  0
 13 12  1  6  0  0  0
 14 19  1  0  0  0  0
 14  1  1  0  0  0  0
 15 24  1  0  0  0  0
 15 18  1  0  0  0  0
 16 21  2  0  0  0  0
 17 18  2  0  0  0  0
 18 25  1  0  0  0  0
 19 17  1  0  0  0  0
 20 15  2  0  0  0  0
 21 25  1  0  0  0  0
 22 20  1  0  0  0  0
 22 19  2  0  0  0  0
 23 24  2  0  0  0  0
 24 16  1  0  0  0  0
M  END
>  <MODEL>
8

>  <REMARK>
 VINA RESULT:      -6.4      2.468      4.106
  Name = 
  7 active torsions:
  status: ('A' for Active; 'I' for Inactive)
    1  A    between atoms: C_2  and  C_6
    2  A    between atoms: C_2  and  C_25
    3  A    between atoms: C_6  and  C_13
    4  A    between atoms: C_9  and  N_24
    5  A    between atoms: C_13  and  C_22
    6  A    between atoms: C_14  and  C_25
    7  A    between atoms: C_22  and  N_24
                            x       y       z     vdW  Elec       q    Type
                         _______ _______ _______ _____ _____    ______ ____

>  <TORSDO>
F 7

$$$$
=
 OpenBabel11042413503D

 25 28  0  0  1  0  0  0  0  0999 V2000
  190.2960  176.0090  146.9850 C   0  0  0  0  0  0  0  0  0  0  0  0
  190.4380  177.0200  147.6540 O   0  0  0  0  0  0  0  0  0  0  0  0
  191.4220  175.4960  146.1390 C   0  0  2  0  0  3  0  0  0  0  0  0
  192.6020  175.4900  146.8840 O   0  0  0  0  0  1  0  0  0  0  0  0
  191.6080  176.3650  144.9040 C   0  0  0  0  0  2  0  0  0  0  0  0
  191.8770  175.9780  142.5720 O   0  0  0  0  0  1  0  0  0  0  0  0
  191.0700  175.6660  143.6680 C   0  0  1  0  0  3  0  0  0  0  0  0
  191.0800  174.2250  143.8800 N   0  0  0  0  0  2  0  0  0  0  0  0
  189.6880  172.4240  144.4310 C   0  0  0  0  0  2  0  0  0  0  0  0
  189.3940  173.7630  142.4140 O   0  0  0  0  0  0  0  0  0  0  0  0
  189.7080  173.7630  143.7730 C   0  0  1  0  0  0  0  0  0  0  0  0
  188.3040  171.9120  142.7670 F   0  0  0  0  0  0  0  0  0  0  0  0
  189.5520  172.4760  142.9390 C   0  0  2  0  0  0  0  0  0  0  0  0
  188.9860  175.2880  147.0100 C   0  0  0  0  0  2  0  0  0  0  0  0
  185.8280  177.7970  145.6120 C   0  0  0  0  0  0  0  0  0  0  0  0
  184.9460  179.2810  143.7990 N   0  0  0  0  0  0  0  0  0  0  0  0
  187.9340  176.7140  145.2940 N   0  0  0  0  0  0  0  0  0  0  0  0
  186.9480  177.5200  144.8140 C   0  0  0  0  0  0  0  0  0  0  0  0
  187.8740  176.1660  146.5370 C   0  0  0  0  0  0  0  0  0  0  0  0
  185.7430  177.2360  146.8900 C   0  0  0  0  0  3  0  0  0  0  0  0
  185.9680  179.0320  143.0370 C   0  0  0  0  0  3  0  0  0  0  0  0
  186.7670  176.4130  147.3570 C   0  0  0  0  0  3  0  0  0  0  0  0
  183.7520  178.9400  145.7680 O   0  0  0  0  0  0  0  0  0  0  0  0
  184.7820  178.6840  145.0890 C   0  0  0  0  0  0  0  0  0  0  0  0
  187.0650  178.0670  143.4160 C   0  0  0  0  0  2  0  0  0  0  0  0
  1 14  1  0  0  0  0
  1  2  2  0  0  0  0
  3  4  1  1  0  0  0
  3  1  1  0  0  0  0
  5  3  1  0  0  0  0
  7  6  1  6  0  0  0
  7  8  1  0  0  0  0
  7  5  1  0  0  0  0
 10 13  1  0  0  0  0
 10 11  1  0  0  0  0
 11  8  1  6  0  0  0
 11  9  1  0  0  0  0
 13 12  1  1  0  0  0
 13 11  1  0  0  0  0
 13  9  1  0  0  0  0
 15 20  1  0  0  0  0
 16 24  1  0  0  0  0
 17 19  2  0  0  0  0
 18 17  1  0  0  0  0
 18 15  2  0  0  0  0
 19 14  1  0  0  0  0
 19 22  1  0  0  0  0
 20 22  2  0  0  0  0
 21 25  1  0  0  0  0
 21 16  2  0  0  0  0
 24 15  1  0  0  0  0
 24 23  2  0  0  0  0
 25 18  1  0  0  0  0
M  END
>  <MODEL>
9

>  <REMARK>
 VINA RESULT:      -6.2      2.998      6.894
  Name = 
  7 active torsions:
  status: ('A' for Active; 'I' for Inactive)
    1  A    between atoms: C_2  and  C_6
    2  A    between atoms: C_2  and  C_25
    3  A    between atoms: C_6  and  C_13
    4  A    between atoms: C_9  and  N_24
    5  A    between atoms: C_13  and  C_22
    6  A    between atoms: C_14  and  C_25
    7  A    between atoms: C_22  and  N_24
                            x       y       z     vdW  Elec       q    Type
                         _______ _______ _______ _____ _____    ______ ____

>  <TORSDO>
F 7

$$$$
