=
 OpenBabel11042418263D

 28 30  0  0  1  0  0  0  0  0999 V2000
  187.2000  177.5510  145.0070 C   0  0  0  0  0  0  0  0  0  0  0  0
  185.9340  178.1950  144.9390 C   0  0  0  0  0  0  0  0  0  0  0  0
  185.2490  177.0860  146.9860 C   0  0  0  0  0  3  0  0  0  0  0  0
  186.4750  176.4190  147.0410 C   0  0  0  0  0  3  0  0  0  0  0  0
  184.9800  177.9580  145.9390 C   0  0  0  0  0  3  0  0  0  0  0  0
  187.4500  176.6240  146.0540 C   0  0  0  0  0  0  0  0  0  0  0  0
  189.4710  176.1810  143.0060 C   0  0  0  0  0  0  0  0  0  0  0  0
  188.1960  177.7620  143.8860 C   0  0  2  0  0  3  0  0  0  0  0  0
  188.2440  176.5960  143.0070 N   0  0  0  0  0  0  0  0  0  0  0  0
  190.3520  176.9670  143.8090 N   0  0  0  0  0  0  0  0  0  0  0  0
  189.6230  177.8990  144.3420 C   0  0  0  0  0  3  0  0  0  0  0  0
  191.3950  174.6810  142.5120 C   0  0  0  0  0  1  0  0  0  0  0  0
  189.9370  175.0060  142.1930 C   0  0  1  0  0  3  0  0  0  0  0  0
  189.0370  173.8020  142.4750 C   0  0  0  0  0  2  0  0  0  0  0  0
  188.6570  172.6950  140.2480 C   0  0  0  0  0  0  0  0  0  0  0  0
  188.1930  173.5150  141.3230 N   0  0  0  0  0  2  0  0  0  0  0  0
  187.9670  172.5990  139.1950 O   0  0  0  0  0  0  0  0  0  0  0  0
  189.8660  172.0070  140.3540 O   0  0  0  0  0  1  0  0  0  0  0  0
  185.7600  180.3730  143.9940 O   0  0  0  0  0  0  0  0  0  0  0  0
  185.5730  179.1330  143.8430 C   0  0  0  0  0  0  0  0  0  0  0  0
  184.8010  178.0800  140.5340 N   0  0  0  0  0  0  0  0  0  0  0  0
  184.9930  178.6450  142.5790 C   0  0  0  0  0  0  0  0  0  0  0  0
  185.6740  178.5030  141.4300 N   0  0  0  0  0  2  0  0  0  0  0  0
  183.5920  177.9530  141.0660 N   0  0  0  0  0  0  0  0  0  0  0  0
  183.6720  178.3070  142.3610 C   0  0  0  0  0  3  0  0  0  0  0  0
  188.6620  175.8950  146.0990 O   0  0  0  0  0  0  0  0  0  0  0  0
  190.2010  175.1920  147.5810 N   0  0  0  0  0  1  0  0  0  0  0  0
  188.9120  174.9400  147.0620 N   0  0  0  0  0  2  0  0  0  0  0  0
  1  6  1  0  0  0  0
  2  1  2  0  0  0  0
  2  5  1  0  0  0  0
  3  4  1  0  0  0  0
  5  3  2  0  0  0  0
  6 26  1  0  0  0  0
  6  4  2  0  0  0  0
  7  9  2  0  0  0  0
  7 10  1  0  0  0  0
  8 11  1  0  0  0  0
  8  1  1  1  0  0  0
  9  8  1  0  0  0  0
 10 11  2  0  0  0  0
 13 14  1  0  0  0  0
 13 12  1  1  0  0  0
 13  7  1  0  0  0  0
 15 18  1  0  0  0  0
 15 16  1  0  0  0  0
 16 14  1  0  0  0  0
 17 15  2  0  0  0  0
 20 19  2  0  0  0  0
 20  2  1  0  0  0  0
 21 24  2  0  0  0  0
 21 23  1  0  0  0  0
 22 20  1  0  0  0  0
 23 22  1  0  0  0  0
 24 25  1  0  0  0  0
 25 22  2  0  0  0  0
 26 28  1  0  0  0  0
 28 27  1  0  0  0  0
M  END
>  <MODEL>
1

>  <REMARK>
 VINA RESULT:      -6.7      0.000      0.000
  Name = 
  8 active torsions:
  status: ('A' for Active; 'I' for Inactive)
    1  A    between atoms: C_4  and  C_8
    2  A    between atoms: C_4  and  C_12
    3  A    between atoms: C_6  and  C_10
    4  A    between atoms: C_7  and  C_9
    5  A    between atoms: C_9  and  C_27
    6  A    between atoms: N_14  and  O_26
    7  A    between atoms: N_17  and  C_27
    8  A    between atoms: O_26  and  C_28
                            x       y       z     vdW  Elec       q    Type
                         _______ _______ _______ _____ _____    ______ ____

>  <TORSDO>
F 8

$$$$
=
 OpenBabel11042418263D

 28 30  0  0  1  0  0  0  0  0999 V2000
  187.2300  177.6120  144.9740 C   0  0  0  0  0  0  0  0  0  0  0  0
  185.9360  178.1900  144.8500 C   0  0  0  0  0  0  0  0  0  0  0  0
  185.2110  177.0200  146.8490 C   0  0  0  0  0  3  0  0  0  0  0  0
  186.4660  176.4180  146.9580 C   0  0  0  0  0  3  0  0  0  0  0  0
  184.9490  177.8910  145.7980 C   0  0  0  0  0  3  0  0  0  0  0  0
  187.4770  176.6850  146.0230 C   0  0  0  0  0  0  0  0  0  0  0  0
  189.5060  176.3470  142.9100 C   0  0  0  0  0  0  0  0  0  0  0  0
  188.2680  177.8880  143.9070 C   0  0  2  0  0  3  0  0  0  0  0  0
  188.2970  176.8120  142.9190 N   0  0  0  0  0  0  0  0  0  0  0  0
  190.3920  177.0140  143.8100 N   0  0  0  0  0  0  0  0  0  0  0  0
  189.6850  177.9200  144.4130 C   0  0  0  0  0  3  0  0  0  0  0  0
  191.4300  174.9270  142.2200 C   0  0  0  0  0  1  0  0  0  0  0  0
  189.9500  175.2380  141.9990 C   0  0  1  0  0  3  0  0  0  0  0  0
  189.0900  173.9990  142.2480 C   0  0  0  0  0  2  0  0  0  0  0  0
  189.6290  172.3080  144.0300 C   0  0  0  0  0  0  0  0  0  0  0  0
  189.1600  173.6020  143.6470 N   0  0  0  0  0  2  0  0  0  0  0  0
  189.5240  171.9380  145.2330 O   0  0  0  0  0  1  0  0  0  0  0  0
  190.1930  171.4510  143.0840 O   0  0  0  0  0  0  0  0  0  0  0  0
  185.7650  180.3630  143.8940 O   0  0  0  0  0  0  0  0  0  0  0  0
  185.5820  179.1210  143.7470 C   0  0  0  0  0  0  0  0  0  0  0  0
  184.8380  178.0520  140.4370 N   0  0  0  0  0  0  0  0  0  0  0  0
  185.0120  178.6260  142.4810 C   0  0  0  0  0  0  0  0  0  0  0  0
  185.7020  178.4800  141.3380 N   0  0  0  0  0  2  0  0  0  0  0  0
  183.6240  177.9230  140.9600 N   0  0  0  0  0  0  0  0  0  0  0  0
  183.6940  178.2830  142.2550 C   0  0  0  0  0  3  0  0  0  0  0  0
  188.7220  176.0200  146.1210 O   0  0  0  0  0  0  0  0  0  0  0  0
  190.3240  174.9400  147.2730 N   0  0  0  0  0  1  0  0  0  0  0  0
  188.9370  174.9880  147.0110 N   0  0  0  0  0  2  0  0  0  0  0  0
  1  6  1  0  0  0  0
  2  1  2  0  0  0  0
  2  5  1  0  0  0  0
  3  4  1  0  0  0  0
  5  3  2  0  0  0  0
  6 26  1  0  0  0  0
  6  4  2  0  0  0  0
  7  9  2  0  0  0  0
  7 10  1  0  0  0  0
  8 11  1  0  0  0  0
  8  1  1  1  0  0  0
  9  8  1  0  0  0  0
 10 11  2  0  0  0  0
 13 12  1  1  0  0  0
 13 14  1  0  0  0  0
 13  7  1  0  0  0  0
 14 16  1  0  0  0  0
 15 17  1  0  0  0  0
 16 15  1  0  0  0  0
 18 15  2  0  0  0  0
 20 19  2  0  0  0  0
 20  2  1  0  0  0  0
 21 24  2  0  0  0  0
 21 23  1  0  0  0  0
 22 20  1  0  0  0  0
 23 22  1  0  0  0  0
 24 25  1  0  0  0  0
 25 22  2  0  0  0  0
 26 28  1  0  0  0  0
 28 27  1  0  0  0  0
M  END
>  <MODEL>
2

>  <REMARK>
 VINA RESULT:      -6.6      1.229      1.578
  Name = 
  8 active torsions:
  status: ('A' for Active; 'I' for Inactive)
    1  A    between atoms: C_4  and  C_8
    2  A    between atoms: C_4  and  C_12
    3  A    between atoms: C_6  and  C_10
    4  A    between atoms: C_7  and  C_9
    5  A    between atoms: C_9  and  C_27
    6  A    between atoms: N_14  and  O_26
    7  A    between atoms: N_17  and  C_27
    8  A    between atoms: O_26  and  C_28
                            x       y       z     vdW  Elec       q    Type
                         _______ _______ _______ _____ _____    ______ ____

>  <TORSDO>
F 8

$$$$
=
 OpenBabel11042418263D

 28 30  0  0  1  0  0  0  0  0999 V2000
  189.3120  176.3470  144.6720 C   0  0  0  0  0  0  0  0  0  0  0  0
  188.9780  176.1440  146.0400 C   0  0  0  0  0  0  0  0  0  0  0  0
  189.6840  173.8270  145.8790 C   0  0  0  0  0  3  0  0  0  0  0  0
  189.9800  174.0060  144.5260 C   0  0  0  0  0  3  0  0  0  0  0  0
  189.1790  174.8860  146.6240 C   0  0  0  0  0  3  0  0  0  0  0  0
  189.7830  175.2480  143.9040 C   0  0  0  0  0  0  0  0  0  0  0  0
  187.6870  178.0150  142.3020 C   0  0  0  0  0  0  0  0  0  0  0  0
  189.0270  177.6910  144.0340 C   0  0  2  0  0  3  0  0  0  0  0  0
  187.6430  177.7630  143.5720 N   0  0  0  0  0  0  0  0  0  0  0  0
  189.0100  178.1550  141.7820 N   0  0  0  0  0  0  0  0  0  0  0  0
  189.8150  177.9610  142.7810 C   0  0  0  0  0  3  0  0  0  0  0  0
  186.6610  177.5750  140.0780 C   0  0  0  0  0  1  0  0  0  0  0  0
  186.4560  178.1920  141.4600 C   0  0  1  0  0  3  0  0  0  0  0  0
  185.2580  177.5570  142.1670 C   0  0  0  0  0  2  0  0  0  0  0  0
  182.9290  178.5070  142.1710 C   0  0  0  0  0  0  0  0  0  0  0  0
  184.0200  177.8980  141.4790 N   0  0  0  0  0  2  0  0  0  0  0  0
  181.8170  178.6400  141.5870 O   0  0  0  0  0  0  0  0  0  0  0  0
  183.0820  178.9490  143.4860 O   0  0  0  0  0  1  0  0  0  0  0  0
  189.2080  177.9570  147.5650 O   0  0  0  0  0  0  0  0  0  0  0  0
  188.4240  177.2270  146.8940 C   0  0  0  0  0  0  0  0  0  0  0  0
  184.8740  177.2670  146.6750 N   0  0  0  0  0  0  0  0  0  0  0  0
  186.9720  177.4670  146.9820 C   0  0  0  0  0  0  0  0  0  0  0  0
  186.0360  176.7100  146.3880 N   0  0  0  0  0  0  0  0  0  0  0  0
  185.0350  178.3500  147.4260 N   0  0  0  0  0  2  0  0  0  0  0  0
  186.3540  178.5120  147.6370 C   0  0  0  0  0  3  0  0  0  0  0  0
  190.0360  175.3910  142.5190 O   0  0  0  0  0  0  0  0  0  0  0  0
  188.3640  174.6380  141.2160 N   0  0  0  0  0  1  0  0  0  0  0  0
  189.7030  174.4120  141.6050 N   0  0  0  0  0  2  0  0  0  0  0  0
  1  2  1  0  0  0  0
  2  5  2  0  0  0  0
  2 20  1  0  0  0  0
  3  5  1  0  0  0  0
  4  3  2  0  0  0  0
  6  4  1  0  0  0  0
  6  1  2  0  0  0  0
  7  9  2  0  0  0  0
  8  1  1  6  0  0  0
  9  8  1  0  0  0  0
 10  7  1  0  0  0  0
 10 11  2  0  0  0  0
 11  8  1  0  0  0  0
 13 12  1  6  0  0  0
 13 14  1  0  0  0  0
 13  7  1  0  0  0  0
 15 18  1  0  0  0  0
 16 14  1  0  0  0  0
 16 15  1  0  0  0  0
 17 15  2  0  0  0  0
 20 22  1  0  0  0  0
 20 19  2  0  0  0  0
 21 24  1  0  0  0  0
 22 25  2  0  0  0  0
 23 21  2  0  0  0  0
 23 22  1  0  0  0  0
 24 25  1  0  0  0  0
 26  6  1  0  0  0  0
 27 28  1  0  0  0  0
 28 26  1  0  0  0  0
M  END
>  <MODEL>
3

>  <REMARK>
 VINA RESULT:      -6.5      2.581      5.428
  Name = 
  8 active torsions:
  status: ('A' for Active; 'I' for Inactive)
    1  A    between atoms: C_4  and  C_8
    2  A    between atoms: C_4  and  C_12
    3  A    between atoms: C_6  and  C_10
    4  A    between atoms: C_7  and  C_9
    5  A    between atoms: C_9  and  C_27
    6  A    between atoms: N_14  and  O_26
    7  A    between atoms: N_17  and  C_27
    8  A    between atoms: O_26  and  C_28
                            x       y       z     vdW  Elec       q    Type
                         _______ _______ _______ _____ _____    ______ ____

>  <TORSDO>
F 8

$$$$
=
 OpenBabel11042418263D

 28 30  0  0  1  0  0  0  0  0999 V2000
  189.3350  175.3370  143.8940 C   0  0  0  0  0  0  0  0  0  0  0  0
  190.0450  174.6700  144.9300 C   0  0  0  0  0  0  0  0  0  0  0  0
  189.6210  172.5330  143.8600 C   0  0  0  0  0  3  0  0  0  0  0  0
  188.8890  173.1750  142.8580 C   0  0  0  0  0  3  0  0  0  0  0  0
  190.1840  173.2760  144.8900 C   0  0  0  0  0  3  0  0  0  0  0  0
  188.7210  174.5670  142.8690 C   0  0  0  0  0  0  0  0  0  0  0  0
  187.5100  177.9590  142.9820 C   0  0  0  0  0  0  0  0  0  0  0  0
  189.1330  176.8350  143.9830 C   0  0  2  0  0  3  0  0  0  0  0  0
  187.7100  177.1680  143.9870 N   0  0  0  0  0  0  0  0  0  0  0  0
  188.6880  178.2580  142.2320 N   0  0  0  0  0  0  0  0  0  0  0  0
  189.6550  177.6030  142.7980 C   0  0  0  0  0  3  0  0  0  0  0  0
  185.1300  177.4430  142.4680 C   0  0  0  0  0  1  0  0  0  0  0  0
  186.1660  178.5490  142.6590 C   0  0  1  0  0  3  0  0  0  0  0  0
  185.7450  179.5010  143.7800 C   0  0  0  0  0  2  0  0  0  0  0  0
  184.8200  178.6680  145.9660 C   0  0  0  0  0  0  0  0  0  0  0  0
  184.6680  178.9170  144.5670 N   0  0  0  0  0  2  0  0  0  0  0  0
  183.9320  178.0150  146.5820 O   0  0  0  0  0  0  0  0  0  0  0  0
  185.9430  179.1350  146.6500 O   0  0  0  0  0  1  0  0  0  0  0  0
  190.0050  175.5740  147.1310 O   0  0  0  0  0  0  0  0  0  0  0  0
  190.6650  175.3980  146.0680 C   0  0  0  0  0  0  0  0  0  0  0  0
  193.9060  176.7880  146.5370 N   0  0  0  0  0  0  0  0  0  0  0  0
  192.0370  175.9290  145.9810 C   0  0  0  0  0  0  0  0  0  0  0  0
  192.7560  176.3660  147.0280 N   0  0  0  0  0  2  0  0  0  0  0  0
  193.9460  176.6420  145.2180 N   0  0  0  0  0  0  0  0  0  0  0  0
  192.7760  176.1030  144.8280 C   0  0  0  0  0  3  0  0  0  0  0  0
  187.9280  175.1890  141.8750 O   0  0  0  0  0  0  0  0  0  0  0  0
  187.4290  176.0450  139.8550 N   0  0  0  0  0  1  0  0  0  0  0  0
  188.2210  175.0900  140.5300 N   0  0  0  0  0  2  0  0  0  0  0  0
  1  2  1  0  0  0  0
  2 20  1  0  0  0  0
  3  5  1  0  0  0  0
  4  6  1  0  0  0  0
  4  3  2  0  0  0  0
  5  2  2  0  0  0  0
  6  1  2  0  0  0  0
  7  9  2  0  0  0  0
  8  1  1  6  0  0  0
  8  9  1  0  0  0  0
 10 11  2  0  0  0  0
 10  7  1  0  0  0  0
 11  8  1  0  0  0  0
 13 12  1  1  0  0  0
 13  7  1  0  0  0  0
 13 14  1  0  0  0  0
 14 16  1  0  0  0  0
 15 17  2  0  0  0  0
 15 18  1  0  0  0  0
 16 15  1  0  0  0  0
 20 19  2  0  0  0  0
 21 23  1  0  0  0  0
 22 20  1  0  0  0  0
 22 23  1  0  0  0  0
 24 21  2  0  0  0  0
 25 24  1  0  0  0  0
 25 22  2  0  0  0  0
 26  6  1  0  0  0  0
 27 28  1  0  0  0  0
 28 26  1  0  0  0  0
M  END
>  <MODEL>
4

>  <REMARK>
 VINA RESULT:      -6.3      2.472      7.047
  Name = 
  8 active torsions:
  status: ('A' for Active; 'I' for Inactive)
    1  A    between atoms: C_4  and  C_8
    2  A    between atoms: C_4  and  C_12
    3  A    between atoms: C_6  and  C_10
    4  A    between atoms: C_7  and  C_9
    5  A    between atoms: C_9  and  C_27
    6  A    between atoms: N_14  and  O_26
    7  A    between atoms: N_17  and  C_27
    8  A    between atoms: O_26  and  C_28
                            x       y       z     vdW  Elec       q    Type
                         _______ _______ _______ _____ _____    ______ ____

>  <TORSDO>
F 8

$$$$
=
 OpenBabel11042418263D

 28 30  0  0  1  0  0  0  0  0999 V2000
  188.1930  177.0560  144.8150 C   0  0  0  0  0  0  0  0  0  0  0  0
  186.8460  176.7520  144.4760 C   0  0  0  0  0  0  0  0  0  0  0  0
  186.1790  177.0910  146.7850 C   0  0  0  0  0  3  0  0  0  0  0  0
  187.5050  177.3540  147.1350 C   0  0  0  0  0  3  0  0  0  0  0  0
  185.8570  176.7830  145.4690 C   0  0  0  0  0  3  0  0  0  0  0  0
  188.5240  177.3220  146.1710 C   0  0  0  0  0  0  0  0  0  0  0  0
  191.1800  175.8660  143.9750 C   0  0  0  0  0  0  0  0  0  0  0  0
  189.2640  176.9520  143.7490 C   0  0  2  0  0  3  0  0  0  0  0  0
  189.9170  175.6450  143.7930 N   0  0  0  0  0  0  0  0  0  0  0  0
  191.5240  177.2510  144.0510 N   0  0  0  0  0  0  0  0  0  0  0  0
  190.4120  177.9080  143.9270 C   0  0  0  0  0  3  0  0  0  0  0  0
  192.8280  174.5260  142.6790 C   0  0  0  0  0  1  0  0  0  0  0  0
  192.2010  174.7670  144.0500 C   0  0  1  0  0  3  0  0  0  0  0  0
  193.2700  175.1330  145.0810 C   0  0  0  0  0  2  0  0  0  0  0  0
  195.2800  176.5660  144.6000 C   0  0  0  0  0  0  0  0  0  0  0  0
  194.5540  175.3470  144.4290 N   0  0  0  0  0  2  0  0  0  0  0  0
  196.3060  176.7840  143.8960 O   0  0  0  0  0  0  0  0  0  0  0  0
  194.8600  177.5150  145.5320 O   0  0  0  0  0  1  0  0  0  0  0  0
  186.7290  175.2730  142.6140 O   0  0  0  0  0  0  0  0  0  0  0  0
  186.4310  176.4050  143.0920 C   0  0  0  0  0  0  0  0  0  0  0  0
  184.1420  178.6640  141.5720 N   0  0  0  0  0  0  0  0  0  0  0  0
  185.6800  177.3580  142.2560 C   0  0  0  0  0  0  0  0  0  0  0  0
  184.4960  177.8980  142.5870 N   0  0  0  0  0  2  0  0  0  0  0  0
  185.0520  178.6290  140.6060 N   0  0  0  0  0  0  0  0  0  0  0  0
  186.0410  177.8080  141.0010 C   0  0  0  0  0  3  0  0  0  0  0  0
  189.8680  177.5360  146.5580 O   0  0  0  0  0  0  0  0  0  0  0  0
  190.3580  175.4760  147.3190 N   0  0  0  0  0  1  0  0  0  0  0  0
  190.4480  176.8560  147.6100 N   0  0  0  0  0  2  0  0  0  0  0  0
  1  6  1  0  0  0  0
  2  1  2  0  0  0  0
  2  5  1  0  0  0  0
  3  4  1  0  0  0  0
  5  3  2  0  0  0  0
  6 26  1  0  0  0  0
  6  4  2  0  0  0  0
  7 13  1  0  0  0  0
  7 10  1  0  0  0  0
  8  9  1  0  0  0  0
  8 11  1  0  0  0  0
  8  1  1  1  0  0  0
  9  7  2  0  0  0  0
 11 10  2  0  0  0  0
 13 12  1  6  0  0  0
 13 14  1  0  0  0  0
 15 18  1  0  0  0  0
 16 15  1  0  0  0  0
 16 14  1  0  0  0  0
 17 15  2  0  0  0  0
 19 20  2  0  0  0  0
 20  2  1  0  0  0  0
 21 23  1  0  0  0  0
 22 23  1  0  0  0  0
 22 20  1  0  0  0  0
 24 25  1  0  0  0  0
 24 21  2  0  0  0  0
 25 22  2  0  0  0  0
 26 28  1  0  0  0  0
 27 28  1  0  0  0  0
M  END
>  <MODEL>
5

>  <REMARK>
 VINA RESULT:      -6.3      2.818      4.007
  Name = 
  8 active torsions:
  status: ('A' for Active; 'I' for Inactive)
    1  A    between atoms: C_4  and  C_8
    2  A    between atoms: C_4  and  C_12
    3  A    between atoms: C_6  and  C_10
    4  A    between atoms: C_7  and  C_9
    5  A    between atoms: C_9  and  C_27
    6  A    between atoms: N_14  and  O_26
    7  A    between atoms: N_17  and  C_27
    8  A    between atoms: O_26  and  C_28
                            x       y       z     vdW  Elec       q    Type
                         _______ _______ _______ _____ _____    ______ ____

>  <TORSDO>
F 8

$$$$
=
 OpenBabel11042418263D

 28 30  0  0  1  0  0  0  0  0999 V2000
  188.3390  176.9540  144.7160 C   0  0  0  0  0  0  0  0  0  0  0  0
  187.0000  176.6530  144.3420 C   0  0  0  0  0  0  0  0  0  0  0  0
  186.2400  177.2010  146.5810 C   0  0  0  0  0  3  0  0  0  0  0  0
  187.5570  177.4630  146.9680 C   0  0  0  0  0  3  0  0  0  0  0  0
  185.9690  176.7910  145.2810 C   0  0  0  0  0  3  0  0  0  0  0  0
  188.6160  177.3270  146.0590 C   0  0  0  0  0  0  0  0  0  0  0  0
  191.3180  175.6130  144.1110 C   0  0  0  0  0  0  0  0  0  0  0  0
  189.4520  176.7360  143.7130 C   0  0  2  0  0  3  0  0  0  0  0  0
  190.0580  175.4170  143.8870 N   0  0  0  0  0  0  0  0  0  0  0  0
  191.7050  176.9890  144.0990 N   0  0  0  0  0  0  0  0  0  0  0  0
  190.6230  177.6680  143.8730 C   0  0  0  0  0  3  0  0  0  0  0  0
  193.2700  174.8340  145.4450 C   0  0  0  0  0  1  0  0  0  0  0  0
  192.2970  174.4920  144.3180 C   0  0  1  0  0  3  0  0  0  0  0  0
  191.5360  173.2030  144.6290 C   0  0  0  0  0  2  0  0  0  0  0  0
  190.3700  171.6470  143.0330 C   0  0  0  0  0  0  0  0  0  0  0  0
  191.5550  172.3100  143.4780 N   0  0  0  0  0  2  0  0  0  0  0  0
  190.4520  170.7580  142.1390 O   0  0  0  0  0  0  0  0  0  0  0  0
  189.1290  171.9690  143.5830 O   0  0  0  0  0  1  0  0  0  0  0  0
  186.8880  175.0110  142.6220 O   0  0  0  0  0  0  0  0  0  0  0  0
  186.6370  176.1990  142.9730 C   0  0  0  0  0  0  0  0  0  0  0  0
  184.5590  178.3890  141.0930 N   0  0  0  0  0  0  0  0  0  0  0  0
  185.9950  177.1110  142.0100 C   0  0  0  0  0  0  0  0  0  0  0  0
  184.7900  177.6780  142.1810 N   0  0  0  0  0  2  0  0  0  0  0  0
  185.5660  178.2920  140.2340 N   0  0  0  0  0  0  0  0  0  0  0  0
  186.4950  177.4850  140.7790 C   0  0  0  0  0  3  0  0  0  0  0  0
  189.9460  177.5420  146.4890 O   0  0  0  0  0  0  0  0  0  0  0  0
  190.4040  175.5690  147.4670 N   0  0  0  0  0  1  0  0  0  0  0  0
  190.4500  176.9700  147.6390 N   0  0  0  0  0  2  0  0  0  0  0  0
  1  6  1  0  0  0  0
  2  1  2  0  0  0  0
  2  5  1  0  0  0  0
  3  4  1  0  0  0  0
  5  3  2  0  0  0  0
  6 26  1  0  0  0  0
  6  4  2  0  0  0  0
  7 13  1  0  0  0  0
  8 11  1  0  0  0  0
  8  9  1  0  0  0  0
  8  1  1  1  0  0  0
  9  7  2  0  0  0  0
 10  7  1  0  0  0  0
 11 10  2  0  0  0  0
 13 14  1  0  0  0  0
 13 12  1  1  0  0  0
 15 16  1  0  0  0  0
 15 18  1  0  0  0  0
 16 14  1  0  0  0  0
 17 15  2  0  0  0  0
 19 20  2  0  0  0  0
 20  2  1  0  0  0  0
 21 23  1  0  0  0  0
 22 23  1  0  0  0  0
 22 20  1  0  0  0  0
 24 25  1  0  0  0  0
 24 21  2  0  0  0  0
 25 22  2  0  0  0  0
 26 28  1  0  0  0  0
 27 28  1  0  0  0  0
M  END
>  <MODEL>
6

>  <REMARK>
 VINA RESULT:      -6.2      2.278      2.659
  Name = 
  8 active torsions:
  status: ('A' for Active; 'I' for Inactive)
    1  A    between atoms: C_4  and  C_8
    2  A    between atoms: C_4  and  C_12
    3  A    between atoms: C_6  and  C_10
    4  A    between atoms: C_7  and  C_9
    5  A    between atoms: C_9  and  C_27
    6  A    between atoms: N_14  and  O_26
    7  A    between atoms: N_17  and  C_27
    8  A    between atoms: O_26  and  C_28
                            x       y       z     vdW  Elec       q    Type
                         _______ _______ _______ _____ _____    ______ ____

>  <TORSDO>
F 8

$$$$
=
 OpenBabel11042418263D

 28 30  0  0  1  0  0  0  0  0999 V2000
  187.5970  177.6040  143.2600 C   0  0  0  0  0  0  0  0  0  0  0  0
  186.4290  178.3930  143.0750 C   0  0  0  0  0  0  0  0  0  0  0  0
  186.2760  177.6470  140.7710 C   0  0  0  0  0  3  0  0  0  0  0  0
  187.4440  176.8980  140.9310 C   0  0  0  0  0  3  0  0  0  0  0  0
  185.7810  178.3940  141.8320 C   0  0  0  0  0  3  0  0  0  0  0  0
  188.1250  176.8800  142.1570 C   0  0  0  0  0  0  0  0  0  0  0  0
  190.3720  176.8950  144.9440 C   0  0  0  0  0  0  0  0  0  0  0  0
  188.3280  177.6640  144.5850 C   0  0  2  0  0  3  0  0  0  0  0  0
  189.7570  177.8860  144.3810 N   0  0  0  0  0  0  0  0  0  0  0  0
  189.5020  175.9530  145.5740 N   0  0  0  0  0  0  0  0  0  0  0  0
  188.2950  176.3810  145.3700 C   0  0  0  0  0  3  0  0  0  0  0  0
  192.3440  176.3860  146.3750 C   0  0  0  0  0  1  0  0  0  0  0  0
  191.8690  176.7710  144.9750 C   0  0  1  0  0  3  0  0  0  0  0  0
  192.3170  175.7350  143.9440 C   0  0  0  0  0  2  0  0  0  0  0  0
  194.7670  175.1650  143.9140 C   0  0  0  0  0  0  0  0  0  0  0  0
  193.4540  174.9750  144.4450 N   0  0  0  0  0  2  0  0  0  0  0  0
  195.6960  174.3810  144.2540 O   0  0  0  0  0  1  0  0  0  0  0  0
  195.0250  176.2050  143.0200 O   0  0  0  0  0  0  0  0  0  0  0  0
  185.7120  180.4700  143.9910 O   0  0  0  0  0  0  0  0  0  0  0  0
  185.8490  179.2250  144.1620 C   0  0  0  0  0  0  0  0  0  0  0  0
  184.5620  177.2980  146.8600 N   0  0  0  0  0  0  0  0  0  0  0  0
  185.4350  178.6280  145.4440 C   0  0  0  0  0  0  0  0  0  0  0  0
  184.7780  177.4640  145.5690 N   0  0  0  0  0  0  0  0  0  0  0  0
  185.0510  178.3130  147.5620 N   0  0  0  0  0  2  0  0  0  0  0  0
  185.6090  179.1800  146.6980 C   0  0  0  0  0  3  0  0  0  0  0  0
  189.3370  176.1600  142.2790 O   0  0  0  0  0  0  0  0  0  0  0  0
  188.9120  173.9880  142.6820 N   0  0  0  0  0  1  0  0  0  0  0  0
  189.4940  174.8890  141.7640 N   0  0  0  0  0  2  0  0  0  0  0  0
  2  1  1  0  0  0  0
  2 20  1  0  0  0  0
  3  4  2  0  0  0  0
  3  5  1  0  0  0  0
  4  6  1  0  0  0  0
  5  2  2  0  0  0  0
  6 26  1  0  0  0  0
  6  1  2  0  0  0  0
  7 13  1  0  0  0  0
  7 10  1  0  0  0  0
  8  1  1  6  0  0  0
  8 11  1  0  0  0  0
  9  8  1  0  0  0  0
  9  7  2  0  0  0  0
 11 10  2  0  0  0  0
 13 12  1  1  0  0  0
 14 16  1  0  0  0  0
 14 13  1  0  0  0  0
 15 17  1  0  0  0  0
 15 16  1  0  0  0  0
 18 15  2  0  0  0  0
 19 20  2  0  0  0  0
 20 22  1  0  0  0  0
 21 24  1  0  0  0  0
 22 23  1  0  0  0  0
 22 25  2  0  0  0  0
 23 21  2  0  0  0  0
 25 24  1  0  0  0  0
 28 26  1  0  0  0  0
 28 27  1  0  0  0  0
M  END
>  <MODEL>
7

>  <REMARK>
 VINA RESULT:      -6.1      3.176      4.756
  Name = 
  8 active torsions:
  status: ('A' for Active; 'I' for Inactive)
    1  A    between atoms: C_4  and  C_8
    2  A    between atoms: C_4  and  C_12
    3  A    between atoms: C_6  and  C_10
    4  A    between atoms: C_7  and  C_9
    5  A    between atoms: C_9  and  C_27
    6  A    between atoms: N_14  and  O_26
    7  A    between atoms: N_17  and  C_27
    8  A    between atoms: O_26  and  C_28
                            x       y       z     vdW  Elec       q    Type
                         _______ _______ _______ _____ _____    ______ ____

>  <TORSDO>
F 8

$$$$
=
 OpenBabel11042418263D

 28 30  0  0  1  0  0  0  0  0999 V2000
  187.1030  177.6010  142.9860 C   0  0  0  0  0  0  0  0  0  0  0  0
  186.0110  178.5110  142.9550 C   0  0  0  0  0  0  0  0  0  0  0  0
  185.5750  177.9250  140.6400 C   0  0  0  0  0  3  0  0  0  0  0  0
  186.6690  177.0560  140.6500 C   0  0  0  0  0  3  0  0  0  0  0  0
  185.2580  178.6510  141.7810 C   0  0  0  0  0  3  0  0  0  0  0  0
  187.4520  176.8960  141.8020 C   0  0  0  0  0  0  0  0  0  0  0  0
  189.9280  176.5190  144.3610 C   0  0  0  0  0  0  0  0  0  0  0  0
  187.9510  177.5080  144.2380 C   0  0  2  0  0  3  0  0  0  0  0  0
  189.3720  177.5980  143.9100 N   0  0  0  0  0  0  0  0  0  0  0  0
  189.0250  175.6320  145.0220 N   0  0  0  0  0  0  0  0  0  0  0  0
  187.8550  176.1890  144.9560 C   0  0  0  0  0  3  0  0  0  0  0  0
  192.1770  177.5540  144.1020 C   0  0  0  0  0  1  0  0  0  0  0  0
  191.4010  176.2460  144.2430 C   0  0  1  0  0  3  0  0  0  0  0  0
  191.8740  175.4620  145.4670 C   0  0  0  0  0  2  0  0  0  0  0  0
  191.4020  176.3160  147.7860 C   0  0  0  0  0  0  0  0  0  0  0  0
  192.1570  176.3660  146.5740 N   0  0  0  0  0  2  0  0  0  0  0  0
  191.5630  177.2160  148.6570 O   0  0  0  0  0  1  0  0  0  0  0  0
  190.4860  175.2870  148.0080 O   0  0  0  0  0  0  0  0  0  0  0  0
  185.5670  180.5870  144.0320 O   0  0  0  0  0  0  0  0  0  0  0  0
  185.6200  179.3280  144.1340 C   0  0  0  0  0  0  0  0  0  0  0  0
  184.4560  177.3860  146.8770 N   0  0  0  0  0  0  0  0  0  0  0  0
  185.2990  178.7000  145.4280 C   0  0  0  0  0  0  0  0  0  0  0  0
  184.5320  177.6090  145.5780 N   0  0  0  0  0  0  0  0  0  0  0  0
  185.1410  178.2950  147.5590 N   0  0  0  0  0  2  0  0  0  0  0  0
  185.6860  179.1500  146.6740 C   0  0  0  0  0  3  0  0  0  0  0  0
  188.5890  176.0550  141.7710 O   0  0  0  0  0  0  0  0  0  0  0  0
  189.1550  174.2900  140.4960 N   0  0  0  0  0  1  0  0  0  0  0  0
  188.4860  174.6820  141.6770 N   0  0  0  0  0  2  0  0  0  0  0  0
  2  1  1  0  0  0  0
  2 20  1  0  0  0  0
  3  4  2  0  0  0  0
  3  5  1  0  0  0  0
  4  6  1  0  0  0  0
  5  2  2  0  0  0  0
  6  1  2  0  0  0  0
  7 10  1  0  0  0  0
  8  1  1  6  0  0  0
  8 11  1  0  0  0  0
  9  8  1  0  0  0  0
  9  7  2  0  0  0  0
 11 10  2  0  0  0  0
 13 12  1  1  0  0  0
 13  7  1  0  0  0  0
 13 14  1  0  0  0  0
 14 16  1  0  0  0  0
 15 18  2  0  0  0  0
 15 17  1  0  0  0  0
 16 15  1  0  0  0  0
 19 20  2  0  0  0  0
 20 22  1  0  0  0  0
 21 24  1  0  0  0  0
 22 23  1  0  0  0  0
 22 25  2  0  0  0  0
 23 21  2  0  0  0  0
 25 24  1  0  0  0  0
 26  6  1  0  0  0  0
 27 28  1  0  0  0  0
 28 26  1  0  0  0  0
M  END
>  <MODEL>
8

>  <REMARK>
 VINA RESULT:      -6.1      2.668      5.146
  Name = 
  8 active torsions:
  status: ('A' for Active; 'I' for Inactive)
    1  A    between atoms: C_4  and  C_8
    2  A    between atoms: C_4  and  C_12
    3  A    between atoms: C_6  and  C_10
    4  A    between atoms: C_7  and  C_9
    5  A    between atoms: C_9  and  C_27
    6  A    between atoms: N_14  and  O_26
    7  A    between atoms: N_17  and  C_27
    8  A    between atoms: O_26  and  C_28
                            x       y       z     vdW  Elec       q    Type
                         _______ _______ _______ _____ _____    ______ ____

>  <TORSDO>
F 8

$$$$
=
 OpenBabel11042418263D

 28 30  0  0  1  0  0  0  0  0999 V2000
  189.0940  176.4460  144.5480 C   0  0  0  0  0  0  0  0  0  0  0  0
  188.0040  176.4810  143.6360 C   0  0  0  0  0  0  0  0  0  0  0  0
  186.4570  176.7910  145.4800 C   0  0  0  0  0  3  0  0  0  0  0  0
  187.5170  176.7210  146.3870 C   0  0  0  0  0  3  0  0  0  0  0  0
  186.7010  176.6630  144.1180 C   0  0  0  0  0  3  0  0  0  0  0  0
  188.8330  176.5300  145.9430 C   0  0  0  0  0  0  0  0  0  0  0  0
  192.2290  175.6100  145.2670 C   0  0  0  0  0  0  0  0  0  0  0  0
  190.4890  176.1810  144.0220 C   0  0  2  0  0  3  0  0  0  0  0  0
  191.1360  175.1120  144.7800 N   0  0  0  0  0  0  0  0  0  0  0  0
  192.4560  176.9740  144.9100 N   0  0  0  0  0  0  0  0  0  0  0  0
  191.4430  177.3340  144.1840 C   0  0  0  0  0  3  0  0  0  0  0  0
  193.4260  173.4370  145.4640 C   0  0  0  0  0  1  0  0  0  0  0  0
  193.1960  174.8100  146.0930 C   0  0  1  0  0  3  0  0  0  0  0  0
  194.5120  175.5770  146.2220 C   0  0  0  0  0  2  0  0  0  0  0  0
  196.1990  175.4630  144.3590 C   0  0  0  0  0  0  0  0  0  0  0  0
  195.5770  174.8860  145.5090 N   0  0  0  0  0  2  0  0  0  0  0  0
  197.0000  174.7710  143.6710 O   0  0  0  0  0  0  0  0  0  0  0  0
  195.9200  176.7800  143.9900 O   0  0  0  0  0  1  0  0  0  0  0  0
  188.2810  177.3740  141.4470 O   0  0  0  0  0  0  0  0  0  0  0  0
  188.1880  176.3390  142.1670 C   0  0  0  0  0  0  0  0  0  0  0  0
  188.3540  173.4970  140.0350 N   0  0  0  0  0  0  0  0  0  0  0  0
  188.2590  175.0130  141.5290 C   0  0  0  0  0  0  0  0  0  0  0  0
  188.3510  174.8060  140.2050 N   0  0  0  0  0  0  0  0  0  0  0  0
  188.2630  172.8630  141.1980 N   0  0  0  0  0  2  0  0  0  0  0  0
  188.1960  173.7920  142.1690 C   0  0  0  0  0  3  0  0  0  0  0  0
  189.8840  176.4040  146.8830 O   0  0  0  0  0  0  0  0  0  0  0  0
  191.4000  177.0130  148.4290 N   0  0  0  0  0  1  0  0  0  0  0  0
  190.2830  177.4540  147.6850 N   0  0  0  0  0  2  0  0  0  0  0  0
  1  6  1  0  0  0  0
  2  5  1  0  0  0  0
  2  1  2  0  0  0  0
  3  4  1  0  0  0  0
  5  3  2  0  0  0  0
  6  4  2  0  0  0  0
  6 26  1  0  0  0  0
  7 13  1  0  0  0  0
  8 11  1  0  0  0  0
  8  1  1  1  0  0  0
  8  9  1  0  0  0  0
  9  7  2  0  0  0  0
 10  7  1  0  0  0  0
 11 10  2  0  0  0  0
 13 12  1  6  0  0  0
 13 14  1  0  0  0  0
 15 16  1  0  0  0  0
 16 14  1  0  0  0  0
 17 15  2  0  0  0  0
 18 15  1  0  0  0  0
 19 20  2  0  0  0  0
 20  2  1  0  0  0  0
 21 23  2  0  0  0  0
 21 24  1  0  0  0  0
 22 20  1  0  0  0  0
 22 25  2  0  0  0  0
 23 22  1  0  0  0  0
 24 25  1  0  0  0  0
 26 28  1  0  0  0  0
 28 27  1  0  0  0  0
M  END
>  <MODEL>
9

>  <REMARK>
 VINA RESULT:      -6.0      3.399      5.072
  Name = 
  8 active torsions:
  status: ('A' for Active; 'I' for Inactive)
    1  A    between atoms: C_4  and  C_8
    2  A    between atoms: C_4  and  C_12
    3  A    between atoms: C_6  and  C_10
    4  A    between atoms: C_7  and  C_9
    5  A    between atoms: C_9  and  C_27
    6  A    between atoms: N_14  and  O_26
    7  A    between atoms: N_17  and  C_27
    8  A    between atoms: O_26  and  C_28
                            x       y       z     vdW  Elec       q    Type
                         _______ _______ _______ _____ _____    ______ ____

>  <TORSDO>
F 8

$$$$
