=
 OpenBabel11042415553D

 50 54  0  0  1  0  0  0  0  0999 V2000
  195.5150  173.8750  144.2380 C   0  0  0  0  0  2  0  0  0  0  0  0
  194.2730  176.0750  143.8690 C   0  0  0  0  0  3  0  0  0  0  0  0
  190.7990  176.2250  144.8220 N   0  0  0  0  0  2  0  0  0  0  0  0
  194.3230  174.7600  144.3130 C   0  0  0  0  0  0  0  0  0  0  0  0
  192.1490  175.8260  144.5630 C   0  0  0  0  0  0  0  0  0  0  0  0
  193.0570  176.6640  144.0170 N   0  0  0  0  0  0  0  0  0  0  0  0
  192.8090  174.3100  144.8930 S   0  0  0  0  0  0  0  0  0  0  0  0
  189.7480  175.3630  145.3570 C   0  0  1  0  0  3  0  0  0  0  0  0
  190.2570  176.4250  147.4530 O   0  0  0  0  0  0  0  0  0  0  0  0
  188.8520  174.6200  147.5640 O   0  0  0  0  0  1  0  0  0  0  0  0
  189.6320  175.5150  146.8450 C   0  0  0  0  0  0  0  0  0  0  0  0
  188.4820  175.6190  144.6890 N   0  0  0  0  0  2  0  0  0  0  0  0
  188.0970  176.9840  145.0150 C   0  0  0  0  0  2  0  0  0  0  0  0
  186.7750  178.6300  142.7520 C   0  0  0  0  0  2  0  0  0  0  0  0
  186.6620  177.2800  144.5590 C   0  0  2  0  0  0  0  0  0  0  0  0
  186.2840  177.3160  142.1990 C   0  0  2  0  0  3  0  0  0  0  0  0
  186.3260  176.3860  143.3730 C   0  0  0  0  0  2  0  0  0  0  0  0
  186.5870  178.6260  144.1440 O   0  0  0  0  0  0  0  0  0  0  0  0
  187.1830  176.8370  141.1080 C   0  0  0  0  0  0  0  0  0  0  0  0
  188.4310  176.3000  141.4030 O   0  0  0  0  0  1  0  0  0  0  0  0
  186.8140  176.9380  139.9110 O   0  0  0  0  0  0  0  0  0  0  0  0
  186.3570  176.7610  146.8990 O   0  0  0  0  0  1  0  0  0  0  0  0
  185.6710  177.0360  145.7120 C   0  0  1  0  0  3  0  0  0  0  0  0
  183.7720  178.0920  146.6420 O   0  0  0  0  0  0  0  0  0  0  0  0
  184.7520  178.2030  145.9260 C   0  0  0  0  0  3  0  0  0  0  0  0
  195.1650  172.5970  143.5010 C   0  0  0  0  0  2  0  0  0  0  0  0
  194.2240  170.4530  144.5670 C   0  0  0  0  0  0  0  0  0  0  0  0
  195.1840  171.4450  144.4450 C   0  0  0  0  0  0  0  0  0  0  0  0
  194.6990  169.5950  145.5410 C   0  0  0  0  0  3  0  0  0  0  0  0
  196.1970  171.1940  145.2940 N   0  0  0  0  0  0  0  0  0  0  0  0
  195.8870  170.0850  145.9450 N   0  0  0  0  0  0  0  0  0  0  0  0
  196.7360  169.4830  146.9570 C   0  0  0  0  0  1  0  0  0  0  0  0
  192.2720  171.4940  143.3830 N   0  0  0  0  0  2  0  0  0  0  0  0
  192.4890  169.1680  143.5960 O   0  0  0  0  0  0  0  0  0  0  0  0
  192.9560  170.3140  143.8310 C   0  0  0  0  0  0  0  0  0  0  0  0
  188.7180  174.2720  138.8590 O   0  0  0  0  0  0  0  0  0  0  0  0
  189.1470  173.0900  138.9600 C   0  0  0  0  0  0  0  0  0  0  0  0
  190.5220  170.5690  138.9630 C   0  0  2  0  0  3  0  0  0  0  0  0
  188.6120  172.8730  141.3160 C   0  0  0  0  0  3  0  0  0  0  0  0
  189.5700  170.9290  137.9050 N   0  0  0  0  0  2  0  0  0  0  0  0
  188.6000  172.1690  142.6290 C   0  0  0  0  0  2  0  0  0  0  0  0
  190.5390  169.0560  139.1080 C   0  0  0  0  0  1  0  0  0  0  0  0
  191.0240  171.5650  142.6770 C   0  0  0  0  0  0  0  0  0  0  0  0
  189.3120  172.4410  140.2630 C   0  0  0  0  0  0  0  0  0  0  0  0
  189.9570  172.1400  143.2420 C   0  0  0  0  0  3  0  0  0  0  0  0
  189.4940  172.3300  137.8010 N   0  0  0  0  0  0  0  0  0  0  0  0
  190.9880  170.9390  141.3360 C   0  0  0  0  0  3  0  0  0  0  0  0
  190.2040  171.2470  140.2870 C   0  0  0  0  0  0  0  0  0  0  0  0
  189.7710  171.5210  135.3560 C   0  0  0  0  0  1  0  0  0  0  0  0
  189.7580  173.1090  136.2350 S   0  0  0  0  0  0  0  0  0  0  0  0
  1  4  1  0  0  0  0
  2  6  1  0  0  0  0
  2  4  2  0  0  0  0
  3  8  1  0  0  0  0
  4  7  1  0  0  0  0
  5  3  1  0  0  0  0
  5  7  1  0  0  0  0
  6  5  2  0  0  0  0
  8 12  1  6  0  0  0
  8 11  1  0  0  0  0
 11  9  2  0  0  0  0
 11 10  1  0  0  0  0
 12 13  1  0  0  0  0
 14 18  1  0  0  0  0
 15 13  1  1  0  0  0
 15 23  1  0  0  0  0
 16 19  1  6  0  0  0
 16 14  1  0  0  0  0
 16 17  1  0  0  0  0
 17 15  1  0  0  0  0
 18 15  1  0  0  0  0
 19 20  1  0  0  0  0
 21 19  2  0  0  0  0
 23 25  1  0  0  0  0
 23 22  1  1  0  0  0
 25 24  2  0  0  0  0
 26  1  1  0  0  0  0
 26 28  1  0  0  0  0
 27 29  2  0  0  0  0
 28 27  1  0  0  0  0
 28 30  2  0  0  0  0
 29 31  1  0  0  0  0
 30 31  1  0  0  0  0
 31 32  1  0  0  0  0
 33 35  1  0  0  0  0
 34 35  2  0  0  0  0
 35 27  1  0  0  0  0
 36 37  2  0  0  0  0
 37 44  1  0  0  0  0
 38 42  1  1  0  0  0
 38 48  1  0  0  0  0
 39 41  1  0  0  0  0
 40 38  1  0  0  0  0
 41 45  1  0  0  0  0
 43 45  2  0  0  0  0
 43 33  1  0  0  0  0
 44 48  1  0  0  0  0
 44 39  2  0  0  0  0
 46 40  1  0  0  0  0
 46 37  1  0  0  0  0
 47 43  1  0  0  0  0
 48 47  2  0  0  0  0
 49 50  1  0  0  0  0
 50 46  1  0  0  0  0
M  END
>  <MODEL>
1

>  <REMARK>
 VINA RESULT:      -7.1      0.000      0.000
  Name = 
  14 active torsions:
  status: ('A' for Active; 'I' for Inactive)
    1  A    between atoms: N_2  and  C_36
    2  A    between atoms: C_7  and  C_44
    3  A    between atoms: C_8  and  C_14
    4  A    between atoms: C_9  and  C_21
    5  A    between atoms: C_9  and  C_33
    6  A    between atoms: C_10  and  C_11
    7  A    between atoms: C_10  and  C_25
    8  A    between atoms: C_11  and  C_19
    9  A    between atoms: N_13  and  C_29
   10  A    between atoms: C_21  and  N_38
   11  A    between atoms: C_22  and  C_29
   12  A    between atoms: C_29  and  N_38
   13  A    between atoms: C_32  and  C_33
   14  A    between atoms: N_42  and  S_46
                            x       y       z     vdW  Elec       q    Type
                         _______ _______ _______ _____ _____    ______ ____

>  <TORSDO>
F 14

$$$$
=
 OpenBabel11042415553D

 50 54  0  0  1  0  0  0  0  0999 V2000
  195.7560  173.9830  144.0450 C   0  0  0  0  0  2  0  0  0  0  0  0
  194.9990  176.3080  144.7810 C   0  0  0  0  0  3  0  0  0  0  0  0
  191.5580  176.7170  145.7780 N   0  0  0  0  0  2  0  0  0  0  0  0
  194.7570  174.9590  144.5550 C   0  0  0  0  0  0  0  0  0  0  0  0
  192.8200  176.2130  145.3290 C   0  0  0  0  0  0  0  0  0  0  0  0
  193.9130  176.9990  145.2180 N   0  0  0  0  0  0  0  0  0  0  0  0
  193.1450  174.6170  144.8930 S   0  0  0  0  0  0  0  0  0  0  0  0
  190.3220  175.9460  145.8720 C   0  0  1  0  0  3  0  0  0  0  0  0
  189.1950  174.5760  147.4940 O   0  0  0  0  0  0  0  0  0  0  0  0
  191.1550  175.5350  148.1870 O   0  0  0  0  0  1  0  0  0  0  0  0
  190.1890  175.3020  147.2200 C   0  0  0  0  0  0  0  0  0  0  0  0
  189.1700  176.7770  145.5560 N   0  0  0  0  0  2  0  0  0  0  0  0
  188.4000  176.0700  144.5440 C   0  0  0  0  0  2  0  0  0  0  0  0
  185.4050  176.7850  144.8570 C   0  0  0  0  0  2  0  0  0  0  0  0
  187.4100  177.0100  143.8430 C   0  0  2  0  0  0  0  0  0  0  0  0
  185.8630  178.1670  145.2520 C   0  0  2  0  0  3  0  0  0  0  0  0
  187.2450  178.2700  144.6820 C   0  0  0  0  0  2  0  0  0  0  0  0
  186.1600  176.3640  143.7490 O   0  0  0  0  0  0  0  0  0  0  0  0
  185.8880  178.3060  146.7370 C   0  0  0  0  0  0  0  0  0  0  0  0
  187.0240  177.9660  147.4630 O   0  0  0  0  0  1  0  0  0  0  0  0
  184.8630  178.7170  147.3390 O   0  0  0  0  0  0  0  0  0  0  0  0
  189.0150  176.5740  142.0900 O   0  0  0  0  0  1  0  0  0  0  0  0
  187.9170  177.3680  142.4330 C   0  0  1  0  0  3  0  0  0  0  0  0
  186.9920  177.7050  140.2850 O   0  0  0  0  0  0  0  0  0  0  0  0
  186.8460  177.2170  141.3920 C   0  0  0  0  0  3  0  0  0  0  0  0
  195.0480  172.8030  143.4100 C   0  0  0  0  0  2  0  0  0  0  0  0
  194.1060  170.6460  144.4500 C   0  0  0  0  0  0  0  0  0  0  0  0
  195.0660  171.6390  144.3400 C   0  0  0  0  0  0  0  0  0  0  0  0
  194.5800  169.7760  145.4140 C   0  0  0  0  0  3  0  0  0  0  0  0
  196.0780  171.3790  145.1870 N   0  0  0  0  0  0  0  0  0  0  0  0
  195.7680  170.2620  145.8250 N   0  0  0  0  0  0  0  0  0  0  0  0
  196.6160  169.6480  146.8300 C   0  0  0  0  0  1  0  0  0  0  0  0
  192.0750  171.6940  143.4140 N   0  0  0  0  0  2  0  0  0  0  0  0
  192.4410  169.3780  143.3420 O   0  0  0  0  0  0  0  0  0  0  0  0
  192.8390  170.5150  143.7110 C   0  0  0  0  0  0  0  0  0  0  0  0
  188.2800  174.7740  139.3010 O   0  0  0  0  0  0  0  0  0  0  0  0
  188.7870  173.6210  139.2490 C   0  0  0  0  0  0  0  0  0  0  0  0
  190.3250  171.2170  138.9240 C   0  0  2  0  0  3  0  0  0  0  0  0
  188.3020  173.0730  141.5610 C   0  0  0  0  0  3  0  0  0  0  0  0
  189.3360  171.6420  137.9260 N   0  0  0  0  0  2  0  0  0  0  0  0
  188.3560  172.2100  142.7740 C   0  0  0  0  0  2  0  0  0  0  0  0
  190.4440  169.7030  138.8760 C   0  0  0  0  0  1  0  0  0  0  0  0
  190.8150  171.7690  142.7310 C   0  0  0  0  0  0  0  0  0  0  0  0
  189.0140  172.8250  140.4580 C   0  0  0  0  0  0  0  0  0  0  0  0
  189.7200  172.1960  143.3710 C   0  0  0  0  0  3  0  0  0  0  0  0
  189.1670  173.0370  138.0000 N   0  0  0  0  0  0  0  0  0  0  0  0
  190.8010  171.3170  141.3220 C   0  0  0  0  0  3  0  0  0  0  0  0
  189.9820  171.7000  140.3250 C   0  0  0  0  0  0  0  0  0  0  0  0
  189.7850  172.5830  135.5270 C   0  0  0  0  0  1  0  0  0  0  0  0
  189.3560  174.0230  136.5440 S   0  0  0  0  0  0  0  0  0  0  0  0
  1  4  1  0  0  0  0
  2  6  1  0  0  0  0
  3  8  1  0  0  0  0
  4  2  2  0  0  0  0
  4  7  1  0  0  0  0
  5  3  1  0  0  0  0
  6  5  2  0  0  0  0
  7  5  1  0  0  0  0
  8 12  1  1  0  0  0
  8 11  1  0  0  0  0
 11  9  2  0  0  0  0
 11 10  1  0  0  0  0
 13 12  1  0  0  0  0
 14 16  1  0  0  0  0
 15 13  1  1  0  0  0
 15 17  1  0  0  0  0
 16 19  1  1  0  0  0
 17 16  1  0  0  0  0
 18 15  1  0  0  0  0
 18 14  1  0  0  0  0
 19 21  2  0  0  0  0
 19 20  1  0  0  0  0
 23 22  1  6  0  0  0
 23 15  1  0  0  0  0
 24 25  2  0  0  0  0
 25 23  1  0  0  0  0
 26  1  1  0  0  0  0
 26 28  1  0  0  0  0
 27 29  2  0  0  0  0
 28 27  1  0  0  0  0
 28 30  2  0  0  0  0
 29 31  1  0  0  0  0
 30 31  1  0  0  0  0
 31 32  1  0  0  0  0
 33 35  1  0  0  0  0
 34 35  2  0  0  0  0
 35 27  1  0  0  0  0
 37 36  2  0  0  0  0
 37 44  1  0  0  0  0
 38 42  1  1  0  0  0
 38 48  1  0  0  0  0
 39 41  1  0  0  0  0
 40 46  1  0  0  0  0
 40 38  1  0  0  0  0
 41 45  1  0  0  0  0
 43 45  2  0  0  0  0
 43 33  1  0  0  0  0
 44 39  2  0  0  0  0
 46 37  1  0  0  0  0
 47 43  1  0  0  0  0
 48 44  1  0  0  0  0
 48 47  2  0  0  0  0
 49 50  1  0  0  0  0
 50 46  1  0  0  0  0
M  END
>  <MODEL>
2

>  <REMARK>
 VINA RESULT:      -7.1      0.928      2.552
  Name = 
  14 active torsions:
  status: ('A' for Active; 'I' for Inactive)
    1  A    between atoms: N_2  and  C_36
    2  A    between atoms: C_7  and  C_44
    3  A    between atoms: C_8  and  C_14
    4  A    between atoms: C_9  and  C_21
    5  A    between atoms: C_9  and  C_33
    6  A    between atoms: C_10  and  C_11
    7  A    between atoms: C_10  and  C_25
    8  A    between atoms: C_11  and  C_19
    9  A    between atoms: N_13  and  C_29
   10  A    between atoms: C_21  and  N_38
   11  A    between atoms: C_22  and  C_29
   12  A    between atoms: C_29  and  N_38
   13  A    between atoms: C_32  and  C_33
   14  A    between atoms: N_42  and  S_46
                            x       y       z     vdW  Elec       q    Type
                         _______ _______ _______ _____ _____    ______ ____

>  <TORSDO>
F 14

$$$$
=
 OpenBabel11042415553D

 50 54  0  0  1  0  0  0  0  0999 V2000
  186.9160  176.8120  140.6080 C   0  0  0  0  0  2  0  0  0  0  0  0
  187.0660  176.0150  138.1870 C   0  0  0  0  0  3  0  0  0  0  0  0
  188.8460  172.9470  137.5340 N   0  0  0  0  0  2  0  0  0  0  0  0
  187.3250  175.8590  139.5420 C   0  0  0  0  0  0  0  0  0  0  0  0
  188.2320  174.0930  138.1340 C   0  0  0  0  0  0  0  0  0  0  0  0
  187.5720  175.0220  137.4080 N   0  0  0  0  0  0  0  0  0  0  0  0
  188.2200  174.4550  139.7810 S   0  0  0  0  0  0  0  0  0  0  0  0
  189.6210  171.9320  138.2420 C   0  0  1  0  0  3  0  0  0  0  0  0
  189.6890  169.5490  137.9410 O   0  0  0  0  0  1  0  0  0  0  0  0
  190.0290  170.8030  136.0560 O   0  0  0  0  0  0  0  0  0  0  0  0
  189.7690  170.6910  137.4140 C   0  0  0  0  0  0  0  0  0  0  0  0
  190.9120  172.4630  138.6530 N   0  0  0  0  0  2  0  0  0  0  0  0
  191.3780  171.6400  139.7590 C   0  0  0  0  0  2  0  0  0  0  0  0
  193.7760  172.7640  141.3610 C   0  0  0  0  0  2  0  0  0  0  0  0
  191.5600  172.4750  141.0330 C   0  0  2  0  0  0  0  0  0  0  0  0
  193.2790  174.1360  140.9790 C   0  0  2  0  0  3  0  0  0  0  0  0
  191.8340  173.9210  140.6420 C   0  0  0  0  0  2  0  0  0  0  0  0
  192.6740  171.9810  141.7440 O   0  0  0  0  0  0  0  0  0  0  0  0
  194.0290  174.6550  139.7980 C   0  0  0  0  0  0  0  0  0  0  0  0
  195.2690  175.2640  139.9570 O   0  0  0  0  0  1  0  0  0  0  0  0
  193.5240  174.5580  138.6500 O   0  0  0  0  0  0  0  0  0  0  0  0
  190.1570  171.1020  142.4410 O   0  0  0  0  0  1  0  0  0  0  0  0
  190.3010  172.3890  141.9160 C   0  0  1  0  0  3  0  0  0  0  0  0
  189.3600  174.0970  143.2510 O   0  0  0  0  0  0  0  0  0  0  0  0
  190.3270  173.3860  143.0380 C   0  0  0  0  0  3  0  0  0  0  0  0
  186.0930  177.9350  140.0090 C   0  0  0  0  0  2  0  0  0  0  0  0
  184.6140  178.3620  142.0720 C   0  0  0  0  0  0  0  0  0  0  0  0
  184.7960  178.0540  140.7330 C   0  0  0  0  0  0  0  0  0  0  0  0
  183.2460  178.3920  142.2640 C   0  0  0  0  0  3  0  0  0  0  0  0
  183.5970  177.9160  140.1400 N   0  0  0  0  0  0  0  0  0  0  0  0
  182.6810  178.1170  141.0730 N   0  0  0  0  0  0  0  0  0  0  0  0
  181.2520  178.0540  140.8230 C   0  0  0  0  0  1  0  0  0  0  0  0
  186.3840  177.5040  143.6300 N   0  0  0  0  0  2  0  0  0  0  0  0
  185.8610  179.7870  143.4940 O   0  0  0  0  0  0  0  0  0  0  0  0
  185.6410  178.6110  143.0980 C   0  0  0  0  0  0  0  0  0  0  0  0
  191.1070  174.5180  146.7260 O   0  0  0  0  0  0  0  0  0  0  0  0
  191.1220  175.5440  145.9930 C   0  0  0  0  0  0  0  0  0  0  0  0
  191.2160  177.5660  143.9560 C   0  0  2  0  0  3  0  0  0  0  0  0
  189.1250  176.5220  146.9610 C   0  0  0  0  0  3  0  0  0  0  0  0
  192.4150  177.1660  144.7030 N   0  0  0  0  0  2  0  0  0  0  0  0
  188.0440  177.5420  147.0580 C   0  0  0  0  0  2  0  0  0  0  0  0
  191.3780  179.0110  143.5130 C   0  0  0  0  0  1  0  0  0  0  0  0
  187.3990  177.5420  144.6440 C   0  0  0  0  0  0  0  0  0  0  0  0
  189.9860  176.4690  145.9410 C   0  0  0  0  0  0  0  0  0  0  0  0
  187.0740  177.4150  145.9360 C   0  0  0  0  0  3  0  0  0  0  0  0
  192.2540  175.8500  145.1750 N   0  0  0  0  0  0  0  0  0  0  0  0
  188.7880  177.7630  144.1810 C   0  0  0  0  0  3  0  0  0  0  0  0
  189.9390  177.3750  144.7590 C   0  0  0  0  0  0  0  0  0  0  0  0
  194.7210  175.4490  145.8540 C   0  0  0  0  0  1  0  0  0  0  0  0
  193.4810  174.6310  144.8100 S   0  0  0  0  0  0  0  0  0  0  0  0
  2  4  2  0  0  0  0
  3  5  1  0  0  0  0
  3  8  1  0  0  0  0
  4  7  1  0  0  0  0
  4  1  1  0  0  0  0
  5  7  1  0  0  0  0
  6  5  2  0  0  0  0
  6  2  1  0  0  0  0
  8 11  1  6  0  0  0
  8 12  1  0  0  0  0
 10 11  2  0  0  0  0
 11  9  1  0  0  0  0
 12 13  1  0  0  0  0
 14 18  1  0  0  0  0
 15 13  1  6  0  0  0
 15 18  1  0  0  0  0
 15 23  1  0  0  0  0
 16 19  1  6  0  0  0
 16 14  1  0  0  0  0
 17 16  1  0  0  0  0
 17 15  1  0  0  0  0
 19 20  1  0  0  0  0
 21 19  2  0  0  0  0
 23 22  1  1  0  0  0
 23 25  1  0  0  0  0
 25 24  2  0  0  0  0
 26  1  1  0  0  0  0
 26 28  1  0  0  0  0
 27 29  2  0  0  0  0
 27 35  1  0  0  0  0
 28 27  1  0  0  0  0
 30 28  2  0  0  0  0
 30 31  1  0  0  0  0
 31 29  1  0  0  0  0
 32 31  1  0  0  0  0
 33 43  1  0  0  0  0
 35 34  2  0  0  0  0
 35 33  1  0  0  0  0
 37 36  2  0  0  0  0
 38 42  1  1  0  0  0
 38 40  1  0  0  0  0
 38 48  1  0  0  0  0
 39 41  1  0  0  0  0
 40 46  1  0  0  0  0
 43 45  2  0  0  0  0
 44 37  1  0  0  0  0
 44 39  2  0  0  0  0
 45 41  1  0  0  0  0
 46 37  1  0  0  0  0
 47 43  1  0  0  0  0
 47 48  2  0  0  0  0
 48 44  1  0  0  0  0
 50 46  1  0  0  0  0
 50 49  1  0  0  0  0
M  END
>  <MODEL>
3

>  <REMARK>
 VINA RESULT:      -6.9      3.044      9.766
  Name = 
  14 active torsions:
  status: ('A' for Active; 'I' for Inactive)
    1  A    between atoms: N_2  and  C_36
    2  A    between atoms: C_7  and  C_44
    3  A    between atoms: C_8  and  C_14
    4  A    between atoms: C_9  and  C_21
    5  A    between atoms: C_9  and  C_33
    6  A    between atoms: C_10  and  C_11
    7  A    between atoms: C_10  and  C_25
    8  A    between atoms: C_11  and  C_19
    9  A    between atoms: N_13  and  C_29
   10  A    between atoms: C_21  and  N_38
   11  A    between atoms: C_22  and  C_29
   12  A    between atoms: C_29  and  N_38
   13  A    between atoms: C_32  and  C_33
   14  A    between atoms: N_42  and  S_46
                            x       y       z     vdW  Elec       q    Type
                         _______ _______ _______ _____ _____    ______ ____

>  <TORSDO>
F 14

$$$$
=
 OpenBabel11042415553D

 50 54  0  0  1  0  0  0  0  0999 V2000
  195.9780  174.5740  146.1260 C   0  0  0  0  0  2  0  0  0  0  0  0
  194.6960  176.5270  145.0950 C   0  0  0  0  0  3  0  0  0  0  0  0
  191.1020  176.2820  144.9370 N   0  0  0  0  0  2  0  0  0  0  0  0
  194.7380  175.2850  145.7150 C   0  0  0  0  0  0  0  0  0  0  0  0
  192.4990  176.0530  145.1520 C   0  0  0  0  0  0  0  0  0  0  0  0
  193.4410  176.9510  144.7890 N   0  0  0  0  0  0  0  0  0  0  0  0
  193.1740  174.6880  145.8750 S   0  0  0  0  0  0  0  0  0  0  0  0
  190.0310  175.3400  145.2510 C   0  0  1  0  0  3  0  0  0  0  0  0
  188.9840  174.4450  147.2200 O   0  0  0  0  0  0  0  0  0  0  0  0
  190.3030  176.2890  147.5420 O   0  0  0  0  0  1  0  0  0  0  0  0
  189.7460  175.3170  146.7230 C   0  0  0  0  0  0  0  0  0  0  0  0
  188.8370  175.6420  144.4760 N   0  0  0  0  0  2  0  0  0  0  0  0
  188.4130  176.9820  144.8520 C   0  0  0  0  0  2  0  0  0  0  0  0
  186.6380  178.5830  142.8850 C   0  0  0  0  0  2  0  0  0  0  0  0
  186.9070  177.1710  144.6280 C   0  0  2  0  0  0  0  0  0  0  0  0
  186.1730  177.2500  142.3540 C   0  0  2  0  0  3  0  0  0  0  0  0
  186.4650  176.2900  143.4670 C   0  0  0  0  0  2  0  0  0  0  0  0
  186.6650  178.5190  144.2880 O   0  0  0  0  0  0  0  0  0  0  0  0
  186.9300  176.8830  141.1220 C   0  0  0  0  0  0  0  0  0  0  0  0
  186.7610  177.6030  139.9450 O   0  0  0  0  0  0  0  0  0  0  0  0
  187.7140  175.9000  141.1450 O   0  0  0  0  0  1  0  0  0  0  0  0
  186.8990  177.0560  147.0410 O   0  0  0  0  0  1  0  0  0  0  0  0
  186.1250  176.8090  145.9040 C   0  0  1  0  0  3  0  0  0  0  0  0
  184.6560  178.3650  146.9070 O   0  0  0  0  0  0  0  0  0  0  0  0
  184.8310  177.5610  146.0070 C   0  0  0  0  0  3  0  0  0  0  0  0
  196.5470  173.8050  144.9510 C   0  0  0  0  0  2  0  0  0  0  0  0
  195.7560  171.4520  144.2730 C   0  0  0  0  0  0  0  0  0  0  0  0
  196.3460  172.3430  145.1550 C   0  0  0  0  0  0  0  0  0  0  0  0
  195.8330  170.2160  144.8870 C   0  0  0  0  0  3  0  0  0  0  0  0
  196.7710  171.6790  146.2450 N   0  0  0  0  0  0  0  0  0  0  0  0
  196.4510  170.4070  146.0680 N   0  0  0  0  0  0  0  0  0  0  0  0
  196.7450  169.3630  147.0330 C   0  0  0  0  0  1  0  0  0  0  0  0
  194.3540  172.9040  142.7820 N   0  0  0  0  0  2  0  0  0  0  0  0
  195.3750  170.9450  141.9910 O   0  0  0  0  0  0  0  0  0  0  0  0
  195.1630  171.7310  142.9540 C   0  0  0  0  0  0  0  0  0  0  0  0
  192.2990  171.5280  136.8920 O   0  0  0  0  0  0  0  0  0  0  0  0
  191.6610  171.8230  137.9400 C   0  0  0  0  0  0  0  0  0  0  0  0
  190.2220  172.0150  140.4180 C   0  0  2  0  0  3  0  0  0  0  0  0
  193.1460  173.6280  138.5880 C   0  0  0  0  0  3  0  0  0  0  0  0
  189.5290  171.9070  139.1280 N   0  0  0  0  0  2  0  0  0  0  0  0
  193.6350  174.6990  139.5010 C   0  0  0  0  0  2  0  0  0  0  0  0
  189.3280  172.7670  141.3890 C   0  0  0  0  0  1  0  0  0  0  0  0
  193.6770  173.3310  141.5910 C   0  0  0  0  0  0  0  0  0  0  0  0
  192.2090  172.7430  138.9400 C   0  0  0  0  0  0  0  0  0  0  0  0
  194.2910  174.1270  140.7090 C   0  0  0  0  0  3  0  0  0  0  0  0
  190.3690  171.2680  138.1980 N   0  0  0  0  0  0  0  0  0  0  0  0
  192.2780  172.8750  141.4290 C   0  0  0  0  0  3  0  0  0  0  0  0
  191.5840  172.6810  140.2920 C   0  0  0  0  0  0  0  0  0  0  0  0
  190.4160  168.7080  138.5900 C   0  0  0  0  0  1  0  0  0  0  0  0
  189.7880  169.8460  137.3220 S   0  0  0  0  0  0  0  0  0  0  0  0
  2  4  2  0  0  0  0
  3  5  1  0  0  0  0
  3  8  1  0  0  0  0
  4  7  1  0  0  0  0
  4  1  1  0  0  0  0
  5  7  1  0  0  0  0
  6  2  1  0  0  0  0
  6  5  2  0  0  0  0
  8 12  1  6  0  0  0
  8 11  1  0  0  0  0
 11  9  2  0  0  0  0
 11 10  1  0  0  0  0
 12 13  1  0  0  0  0
 14 18  1  0  0  0  0
 15 13  1  1  0  0  0
 15 23  1  0  0  0  0
 16 19  1  6  0  0  0
 16 14  1  0  0  0  0
 16 17  1  0  0  0  0
 17 15  1  0  0  0  0
 18 15  1  0  0  0  0
 19 21  1  0  0  0  0
 20 19  2  0  0  0  0
 23 25  1  0  0  0  0
 23 22  1  1  0  0  0
 25 24  2  0  0  0  0
 26 28  1  0  0  0  0
 26  1  1  0  0  0  0
 27 29  2  0  0  0  0
 27 28  1  0  0  0  0
 28 30  2  0  0  0  0
 29 31  1  0  0  0  0
 31 30  1  0  0  0  0
 31 32  1  0  0  0  0
 33 35  1  0  0  0  0
 34 35  2  0  0  0  0
 35 27  1  0  0  0  0
 36 37  2  0  0  0  0
 37 46  1  0  0  0  0
 37 44  1  0  0  0  0
 38 42  1  1  0  0  0
 39 44  2  0  0  0  0
 39 41  1  0  0  0  0
 40 38  1  0  0  0  0
 41 45  1  0  0  0  0
 43 33  1  0  0  0  0
 44 48  1  0  0  0  0
 45 43  2  0  0  0  0
 46 40  1  0  0  0  0
 47 43  1  0  0  0  0
 48 38  1  0  0  0  0
 48 47  2  0  0  0  0
 50 46  1  0  0  0  0
 50 49  1  0  0  0  0
M  END
>  <MODEL>
4

>  <REMARK>
 VINA RESULT:      -6.9      1.798      2.457
  Name = 
  14 active torsions:
  status: ('A' for Active; 'I' for Inactive)
    1  A    between atoms: N_2  and  C_36
    2  A    between atoms: C_7  and  C_44
    3  A    between atoms: C_8  and  C_14
    4  A    between atoms: C_9  and  C_21
    5  A    between atoms: C_9  and  C_33
    6  A    between atoms: C_10  and  C_11
    7  A    between atoms: C_10  and  C_25
    8  A    between atoms: C_11  and  C_19
    9  A    between atoms: N_13  and  C_29
   10  A    between atoms: C_21  and  N_38
   11  A    between atoms: C_22  and  C_29
   12  A    between atoms: C_29  and  N_38
   13  A    between atoms: C_32  and  C_33
   14  A    between atoms: N_42  and  S_46
                            x       y       z     vdW  Elec       q    Type
                         _______ _______ _______ _____ _____    ______ ____

>  <TORSDO>
F 14

$$$$
=
 OpenBabel11042415553D

 50 54  0  0  1  0  0  0  0  0999 V2000
  192.3060  174.4220  146.3800 C   0  0  0  0  0  2  0  0  0  0  0  0
  191.5790  176.7220  145.5420 C   0  0  0  0  0  3  0  0  0  0  0  0
  188.0970  177.6030  145.8590 N   0  0  0  0  0  2  0  0  0  0  0  0
  191.3080  175.4990  146.1420 C   0  0  0  0  0  0  0  0  0  0  0  0
  189.3680  176.9450  145.8850 C   0  0  0  0  0  0  0  0  0  0  0  0
  190.4910  177.5250  145.4080 N   0  0  0  0  0  0  0  0  0  0  0  0
  189.6680  175.4050  146.5030 S   0  0  0  0  0  0  0  0  0  0  0  0
  186.8330  177.0230  146.3050 C   0  0  1  0  0  3  0  0  0  0  0  0
  185.7230  177.2900  148.4200 O   0  0  0  0  0  1  0  0  0  0  0  0
  186.1710  179.2230  147.2780 O   0  0  0  0  0  0  0  0  0  0  0  0
  186.2210  177.8420  147.4020 C   0  0  0  0  0  0  0  0  0  0  0  0
  185.9200  176.8540  145.1840 N   0  0  0  0  0  2  0  0  0  0  0  0
  185.9720  178.0820  144.4050 C   0  0  0  0  0  2  0  0  0  0  0  0
  187.9080  178.0870  141.9910 C   0  0  0  0  0  2  0  0  0  0  0  0
  185.8640  177.7910  142.9030 C   0  0  2  0  0  0  0  0  0  0  0  0
  187.6850  176.5970  141.9180 C   0  0  2  0  0  3  0  0  0  0  0  0
  186.3850  176.3860  142.6320 C   0  0  0  0  0  2  0  0  0  0  0  0
  186.6690  178.7130  142.2030 O   0  0  0  0  0  0  0  0  0  0  0  0
  188.7930  175.8670  142.6010 C   0  0  0  0  0  0  0  0  0  0  0  0
  188.5200  174.8310  143.4870 O   0  0  0  0  0  1  0  0  0  0  0  0
  189.9850  176.2070  142.3870 O   0  0  0  0  0  0  0  0  0  0  0  0
  183.6640  178.6910  143.3360 O   0  0  0  0  0  1  0  0  0  0  0  0
  184.4020  177.9180  142.4350 C   0  0  1  0  0  3  0  0  0  0  0  0
  184.4230  177.8110  140.0750 O   0  0  0  0  0  0  0  0  0  0  0  0
  184.2960  178.5140  141.0620 C   0  0  0  0  0  3  0  0  0  0  0  0
  193.3360  174.4160  145.2690 C   0  0  0  0  0  2  0  0  0  0  0  0
  193.4190  172.2170  143.9340 C   0  0  0  0  0  0  0  0  0  0  0  0
  193.7860  173.0210  145.0020 C   0  0  0  0  0  0  0  0  0  0  0  0
  194.1180  171.0360  144.1010 C   0  0  0  0  0  3  0  0  0  0  0  0
  194.6730  172.3650  145.7710 N   0  0  0  0  0  0  0  0  0  0  0  0
  194.8560  171.1770  145.2180 N   0  0  0  0  0  0  0  0  0  0  0  0
  195.7500  170.1690  145.7580 C   0  0  0  0  0  1  0  0  0  0  0  0
  191.3540  171.6690  142.6180 N   0  0  0  0  0  2  0  0  0  0  0  0
  192.6810  173.5370  142.1120 O   0  0  0  0  0  0  0  0  0  0  0  0
  192.4840  172.5260  142.8380 C   0  0  0  0  0  0  0  0  0  0  0  0
  189.5430  174.1980  137.0380 O   0  0  0  0  0  0  0  0  0  0  0  0
  189.7470  172.9990  137.3710 C   0  0  0  0  0  0  0  0  0  0  0  0
  190.6760  170.3570  138.0050 C   0  0  2  0  0  3  0  0  0  0  0  0
  188.5990  173.1750  139.5010 C   0  0  0  0  0  3  0  0  0  0  0  0
  190.0930  170.6770  136.6970 N   0  0  0  0  0  2  0  0  0  0  0  0
  188.1440  172.6660  140.8250 C   0  0  0  0  0  2  0  0  0  0  0  0
  190.4260  168.8870  138.3020 C   0  0  0  0  0  1  0  0  0  0  0  0
  190.3540  171.7900  141.5950 C   0  0  0  0  0  0  0  0  0  0  0  0
  189.4710  172.5210  138.7290 C   0  0  0  0  0  0  0  0  0  0  0  0
  189.2780  172.5610  141.7850 C   0  0  0  0  0  3  0  0  0  0  0  0
  190.2600  172.0490  136.4340 N   0  0  0  0  0  0  0  0  0  0  0  0
  190.5690  170.9940  140.3650 C   0  0  0  0  0  3  0  0  0  0  0  0
  190.1360  171.2440  139.1160 C   0  0  0  0  0  0  0  0  0  0  0  0
  192.6240  172.8600  135.7520 C   0  0  0  0  0  1  0  0  0  0  0  0
  191.0320  172.5680  134.9300 S   0  0  0  0  0  0  0  0  0  0  0  0
  2  4  2  0  0  0  0
  3  5  1  0  0  0  0
  3  8  1  0  0  0  0
  4  1  1  0  0  0  0
  4  7  1  0  0  0  0
  5  7  1  0  0  0  0
  6  2  1  0  0  0  0
  6  5  2  0  0  0  0
  8 12  1  6  0  0  0
  8 11  1  0  0  0  0
 10 11  2  0  0  0  0
 11  9  1  0  0  0  0
 13 12  1  0  0  0  0
 14 18  1  0  0  0  0
 15 13  1  1  0  0  0
 16 14  1  0  0  0  0
 16 19  1  1  0  0  0
 16 17  1  0  0  0  0
 17 15  1  0  0  0  0
 18 15  1  0  0  0  0
 19 20  1  0  0  0  0
 21 19  2  0  0  0  0
 23 15  1  0  0  0  0
 23 22  1  1  0  0  0
 24 25  2  0  0  0  0
 25 23  1  0  0  0  0
 26  1  1  0  0  0  0
 27 29  2  0  0  0  0
 27 28  1  0  0  0  0
 28 26  1  0  0  0  0
 28 30  2  0  0  0  0
 29 31  1  0  0  0  0
 31 32  1  0  0  0  0
 31 30  1  0  0  0  0
 33 35  1  0  0  0  0
 34 35  2  0  0  0  0
 35 27  1  0  0  0  0
 36 37  2  0  0  0  0
 37 44  1  0  0  0  0
 38 42  1  1  0  0  0
 38 48  1  0  0  0  0
 39 41  1  0  0  0  0
 40 38  1  0  0  0  0
 41 45  1  0  0  0  0
 43 45  2  0  0  0  0
 43 33  1  0  0  0  0
 44 48  1  0  0  0  0
 44 39  2  0  0  0  0
 46 40  1  0  0  0  0
 46 37  1  0  0  0  0
 47 43  1  0  0  0  0
 48 47  2  0  0  0  0
 50 49  1  0  0  0  0
 50 46  1  0  0  0  0
M  END
>  <MODEL>
5

>  <REMARK>
 VINA RESULT:      -6.9      1.969      2.925
  Name = 
  14 active torsions:
  status: ('A' for Active; 'I' for Inactive)
    1  A    between atoms: N_2  and  C_36
    2  A    between atoms: C_7  and  C_44
    3  A    between atoms: C_8  and  C_14
    4  A    between atoms: C_9  and  C_21
    5  A    between atoms: C_9  and  C_33
    6  A    between atoms: C_10  and  C_11
    7  A    between atoms: C_10  and  C_25
    8  A    between atoms: C_11  and  C_19
    9  A    between atoms: N_13  and  C_29
   10  A    between atoms: C_21  and  N_38
   11  A    between atoms: C_22  and  C_29
   12  A    between atoms: C_29  and  N_38
   13  A    between atoms: C_32  and  C_33
   14  A    between atoms: N_42  and  S_46
                            x       y       z     vdW  Elec       q    Type
                         _______ _______ _______ _____ _____    ______ ____

>  <TORSDO>
F 14

$$$$
=
 OpenBabel11042415553D

 50 54  0  0  1  0  0  0  0  0999 V2000
  191.4870  169.9670  139.9770 C   0  0  0  0  0  2  0  0  0  0  0  0
  193.9190  170.7190  139.7730 C   0  0  0  0  0  3  0  0  0  0  0  0
  195.6450  171.6630  142.7960 N   0  0  0  0  0  2  0  0  0  0  0  0
  192.7880  170.4320  140.5270 C   0  0  0  0  0  0  0  0  0  0  0  0
  194.6860  171.2320  141.8240 C   0  0  0  0  0  0  0  0  0  0  0  0
  194.9750  171.1600  140.5060 N   0  0  0  0  0  0  0  0  0  0  0  0
  193.1040  170.7480  142.1490 S   0  0  0  0  0  0  0  0  0  0  0  0
  195.3920  171.8180  144.2250 C   0  0  1  0  0  3  0  0  0  0  0  0
  197.2060  171.6380  145.7920 O   0  0  0  0  0  1  0  0  0  0  0  0
  196.4320  169.6620  144.9300 O   0  0  0  0  0  0  0  0  0  0  0  0
  196.3880  171.0450  145.0370 C   0  0  0  0  0  0  0  0  0  0  0  0
  195.3720  173.2250  144.5950 N   0  0  0  0  0  2  0  0  0  0  0  0
  195.8550  173.9740  143.4450 C   0  0  0  0  0  2  0  0  0  0  0  0
  194.3420  175.5790  141.2730 C   0  0  0  0  0  2  0  0  0  0  0  0
  195.1830  175.3510  143.3570 C   0  0  2  0  0  0  0  0  0  0  0  0
  193.1220  175.4520  142.1510 C   0  0  2  0  0  3  0  0  0  0  0  0
  193.6780  175.1780  143.5140 C   0  0  0  0  0  2  0  0  0  0  0  0
  195.4430  175.9020  142.0850 O   0  0  0  0  0  0  0  0  0  0  0  0
  192.2610  174.3230  141.6900 C   0  0  0  0  0  0  0  0  0  0  0  0
  192.2760  173.9160  140.3610 O   0  0  0  0  0  0  0  0  0  0  0  0
  191.5000  173.7490  142.5100 O   0  0  0  0  0  1  0  0  0  0  0  0
  196.4770  177.3230  143.8800 O   0  0  0  0  0  1  0  0  0  0  0  0
  195.7320  176.2870  144.4500 C   0  0  1  0  0  3  0  0  0  0  0  0
  194.8300  177.8890  145.9350 O   0  0  0  0  0  0  0  0  0  0  0  0
  194.6390  176.8660  145.3000 C   0  0  0  0  0  3  0  0  0  0  0  0
  190.3620  170.8310  140.5100 C   0  0  0  0  0  2  0  0  0  0  0  0
  189.0060  172.7860  139.5290 C   0  0  0  0  0  0  0  0  0  0  0  0
  189.7770  171.6400  139.4050 C   0  0  0  0  0  0  0  0  0  0  0  0
  188.7330  173.1920  138.2360 C   0  0  0  0  0  3  0  0  0  0  0  0
  189.9710  171.3720  138.1010 N   0  0  0  0  0  0  0  0  0  0  0  0
  189.3350  172.3080  137.4170 N   0  0  0  0  0  0  0  0  0  0  0  0
  189.3090  172.3650  135.9670 C   0  0  0  0  0  1  0  0  0  0  0  0
  188.5890  174.8870  140.8350 N   0  0  0  0  0  2  0  0  0  0  0  0
  188.1450  172.7670  141.7350 O   0  0  0  0  0  0  0  0  0  0  0  0
  188.5570  173.4540  140.7620 C   0  0  0  0  0  0  0  0  0  0  0  0
  188.2220  175.6530  147.1670 O   0  0  0  0  0  0  0  0  0  0  0  0
  188.8800  176.2860  146.2970 C   0  0  0  0  0  0  0  0  0  0  0  0
  190.7240  177.3880  144.3910 C   0  0  2  0  0  3  0  0  0  0  0  0
  187.0590  176.4030  144.6990 C   0  0  0  0  0  3  0  0  0  0  0  0
  190.6700  177.8660  145.7780 N   0  0  0  0  0  2  0  0  0  0  0  0
  186.4510  176.7440  143.3830 C   0  0  0  0  0  2  0  0  0  0  0  0
  191.2120  178.5230  143.5050 C   0  0  0  0  0  1  0  0  0  0  0  0
  188.2190  175.7130  141.9490 C   0  0  0  0  0  0  0  0  0  0  0  0
  188.3720  176.4770  144.9360 C   0  0  0  0  0  0  0  0  0  0  0  0
  186.9360  175.8340  142.3090 C   0  0  0  0  0  3  0  0  0  0  0  0
  190.1590  176.8470  146.6030 N   0  0  0  0  0  0  0  0  0  0  0  0
  189.3180  176.4340  142.6300 C   0  0  0  0  0  3  0  0  0  0  0  0
  189.3870  176.8480  143.9090 C   0  0  0  0  0  0  0  0  0  0  0  0
  191.9400  175.0350  147.1090 C   0  0  0  0  0  1  0  0  0  0  0  0
  191.0700  176.3350  148.0300 S   0  0  0  0  0  0  0  0  0  0  0  0
  1 26  1  0  0  0  0
  1  4  1  0  0  0  0
  2  6  1  0  0  0  0
  2  4  2  0  0  0  0
  4  7  1  0  0  0  0
  5  7  1  0  0  0  0
  5  3  1  0  0  0  0
  6  5  2  0  0  0  0
  8  3  1  6  0  0  0
  8 12  1  0  0  0  0
  8 11  1  0  0  0  0
 10 11  2  0  0  0  0
 11  9  1  0  0  0  0
 13 12  1  0  0  0  0
 14 18  1  0  0  0  0
 14 16  1  0  0  0  0
 15 13  1  1  0  0  0
 15 17  1  0  0  0  0
 15 23  1  0  0  0  0
 16 19  1  6  0  0  0
 16 17  1  0  0  0  0
 18 15  1  0  0  0  0
 19 21  1  0  0  0  0
 20 19  2  0  0  0  0
 23 22  1  6  0  0  0
 23 25  1  0  0  0  0
 25 24  2  0  0  0  0
 27 35  1  0  0  0  0
 28 27  1  0  0  0  0
 28 26  1  0  0  0  0
 29 27  2  0  0  0  0
 30 28  2  0  0  0  0
 31 30  1  0  0  0  0
 31 29  1  0  0  0  0
 32 31  1  0  0  0  0
 33 43  1  0  0  0  0
 35 33  1  0  0  0  0
 35 34  2  0  0  0  0
 37 46  1  0  0  0  0
 37 36  2  0  0  0  0
 38 42  1  6  0  0  0
 38 40  1  0  0  0  0
 39 44  2  0  0  0  0
 40 46  1  0  0  0  0
 41 39  1  0  0  0  0
 43 45  2  0  0  0  0
 43 47  1  0  0  0  0
 44 37  1  0  0  0  0
 45 41  1  0  0  0  0
 46 50  1  0  0  0  0
 47 48  2  0  0  0  0
 48 38  1  0  0  0  0
 48 44  1  0  0  0  0
 49 50  1  0  0  0  0
M  END
>  <MODEL>
6

>  <REMARK>
 VINA RESULT:      -6.8      2.858      8.203
  Name = 
  14 active torsions:
  status: ('A' for Active; 'I' for Inactive)
    1  A    between atoms: N_2  and  C_36
    2  A    between atoms: C_7  and  C_44
    3  A    between atoms: C_8  and  C_14
    4  A    between atoms: C_9  and  C_21
    5  A    between atoms: C_9  and  C_33
    6  A    between atoms: C_10  and  C_11
    7  A    between atoms: C_10  and  C_25
    8  A    between atoms: C_11  and  C_19
    9  A    between atoms: N_13  and  C_29
   10  A    between atoms: C_21  and  N_38
   11  A    between atoms: C_22  and  C_29
   12  A    between atoms: C_29  and  N_38
   13  A    between atoms: C_32  and  C_33
   14  A    between atoms: N_42  and  S_46
                            x       y       z     vdW  Elec       q    Type
                         _______ _______ _______ _____ _____    ______ ____

>  <TORSDO>
F 14

$$$$
=
 OpenBabel11042415553D

 50 54  0  0  1  0  0  0  0  0999 V2000
  186.7030  176.7920  140.7130 C   0  0  0  0  0  2  0  0  0  0  0  0
  186.9650  176.0120  138.2960 C   0  0  0  0  0  3  0  0  0  0  0  0
  188.9850  173.0890  137.6830 N   0  0  0  0  0  2  0  0  0  0  0  0
  187.2050  175.8740  139.6570 C   0  0  0  0  0  0  0  0  0  0  0  0
  188.2740  174.1840  138.2690 C   0  0  0  0  0  0  0  0  0  0  0  0
  187.5610  175.0610  137.5290 N   0  0  0  0  0  0  0  0  0  0  0  0
  188.1990  174.5410  139.9150 S   0  0  0  0  0  0  0  0  0  0  0  0
  189.8190  172.1340  138.4080 C   0  0  1  0  0  3  0  0  0  0  0  0
  190.7790  171.0640  136.4820 O   0  0  0  0  0  0  0  0  0  0  0  0
  189.6830  169.6860  137.9460 O   0  0  0  0  0  1  0  0  0  0  0  0
  190.1350  170.9400  137.5580 C   0  0  0  0  0  0  0  0  0  0  0  0
  191.0270  172.7770  138.9030 N   0  0  0  0  0  2  0  0  0  0  0  0
  191.5800  171.9090  139.9310 C   0  0  0  0  0  2  0  0  0  0  0  0
  190.4160  171.2200  142.7150 C   0  0  0  0  0  2  0  0  0  0  0  0
  191.5400  172.5840  141.3080 C   0  0  2  0  0  0  0  0  0  0  0  0
  191.8430  171.1560  143.2010 C   0  0  2  0  0  3  0  0  0  0  0  0
  192.6080  171.9610  142.1960 C   0  0  0  0  0  2  0  0  0  0  0  0
  190.2770  172.3500  141.8910 O   0  0  0  0  0  0  0  0  0  0  0  0
  192.3230  169.7430  143.2290 C   0  0  0  0  0  0  0  0  0  0  0  0
  192.1330  168.9080  142.1340 O   0  0  0  0  0  0  0  0  0  0  0  0
  192.8880  169.3010  144.2610 O   0  0  0  0  0  1  0  0  0  0  0  0
  190.9420  174.8070  142.0420 O   0  0  0  0  0  1  0  0  0  0  0  0
  191.7750  174.1000  141.1700 C   0  0  1  0  0  3  0  0  0  0  0  0
  193.4710  175.5070  142.0220 O   0  0  0  0  0  0  0  0  0  0  0  0
  193.2040  174.4770  141.4270 C   0  0  0  0  0  3  0  0  0  0  0  0
  185.9140  177.9230  140.0840 C   0  0  0  0  0  2  0  0  0  0  0  0
  184.3760  178.4020  142.0910 C   0  0  0  0  0  0  0  0  0  0  0  0
  184.5960  178.0630  140.7650 C   0  0  0  0  0  0  0  0  0  0  0  0
  183.0030  178.4410  142.2410 C   0  0  0  0  0  3  0  0  0  0  0  0
  183.4150  177.9150  140.1400 N   0  0  0  0  0  0  0  0  0  0  0  0
  182.4720  178.1410  141.0400 N   0  0  0  0  0  0  0  0  0  0  0  0
  181.0520  178.0780  140.7490 C   0  0  0  0  0  1  0  0  0  0  0  0
  186.0890  177.5720  143.7270 N   0  0  0  0  0  2  0  0  0  0  0  0
  185.5910  179.8550  143.5120 O   0  0  0  0  0  0  0  0  0  0  0  0
  185.3730  178.6700  143.1420 C   0  0  0  0  0  0  0  0  0  0  0  0
  190.4570  174.5420  147.2690 O   0  0  0  0  0  0  0  0  0  0  0  0
  190.5770  175.4870  146.4440 C   0  0  0  0  0  0  0  0  0  0  0  0
  190.8970  177.2880  144.2290 C   0  0  2  0  0  3  0  0  0  0  0  0
  188.6380  176.7080  147.2380 C   0  0  0  0  0  3  0  0  0  0  0  0
  192.0360  176.8700  145.0570 N   0  0  0  0  0  2  0  0  0  0  0  0
  187.6410  177.8140  147.1970 C   0  0  0  0  0  2  0  0  0  0  0  0
  191.1900  178.6660  143.6590 C   0  0  0  0  0  1  0  0  0  0  0  0
  187.0720  177.6290  144.7710 C   0  0  0  0  0  0  0  0  0  0  0  0
  189.5230  176.4880  146.2620 C   0  0  0  0  0  0  0  0  0  0  0  0
  186.6980  177.6540  146.0550 C   0  0  0  0  0  3  0  0  0  0  0  0
  191.7540  175.6240  145.6450 N   0  0  0  0  0  0  0  0  0  0  0  0
  188.4870  177.6950  144.3420 C   0  0  0  0  0  3  0  0  0  0  0  0
  189.5850  177.2760  144.9980 C   0  0  0  0  0  0  0  0  0  0  0  0
  194.3310  175.3820  145.5320 C   0  0  0  0  0  1  0  0  0  0  0  0
  192.8890  174.2820  145.4440 S   0  0  0  0  0  0  0  0  0  0  0  0
  2  4  2  0  0  0  0
  3  5  1  0  0  0  0
  3  8  1  0  0  0  0
  4  7  1  0  0  0  0
  4  1  1  0  0  0  0
  5  7  1  0  0  0  0
  6  5  2  0  0  0  0
  6  2  1  0  0  0  0
  8 11  1  6  0  0  0
  8 12  1  0  0  0  0
  9 11  2  0  0  0  0
 11 10  1  0  0  0  0
 12 13  1  0  0  0  0
 14 16  1  0  0  0  0
 15 13  1  6  0  0  0
 15 18  1  0  0  0  0
 15 17  1  0  0  0  0
 16 19  1  6  0  0  0
 17 16  1  0  0  0  0
 18 14  1  0  0  0  0
 19 21  1  0  0  0  0
 20 19  2  0  0  0  0
 23 15  1  0  0  0  0
 23 25  1  0  0  0  0
 23 22  1  1  0  0  0
 25 24  2  0  0  0  0
 26  1  1  0  0  0  0
 26 28  1  0  0  0  0
 27 29  2  0  0  0  0
 27 35  1  0  0  0  0
 28 27  1  0  0  0  0
 30 28  2  0  0  0  0
 30 31  1  0  0  0  0
 31 29  1  0  0  0  0
 32 31  1  0  0  0  0
 33 43  1  0  0  0  0
 35 34  2  0  0  0  0
 35 33  1  0  0  0  0
 37 36  2  0  0  0  0
 38 42  1  1  0  0  0
 38 48  1  0  0  0  0
 38 40  1  0  0  0  0
 40 46  1  0  0  0  0
 41 39  1  0  0  0  0
 43 45  2  0  0  0  0
 44 37  1  0  0  0  0
 44 39  2  0  0  0  0
 45 41  1  0  0  0  0
 46 37  1  0  0  0  0
 47 43  1  0  0  0  0
 47 48  2  0  0  0  0
 48 44  1  0  0  0  0
 50 49  1  0  0  0  0
 50 46  1  0  0  0  0
M  END
>  <MODEL>
7

>  <REMARK>
 VINA RESULT:      -6.8      2.815      9.989
  Name = 
  14 active torsions:
  status: ('A' for Active; 'I' for Inactive)
    1  A    between atoms: N_2  and  C_36
    2  A    between atoms: C_7  and  C_44
    3  A    between atoms: C_8  and  C_14
    4  A    between atoms: C_9  and  C_21
    5  A    between atoms: C_9  and  C_33
    6  A    between atoms: C_10  and  C_11
    7  A    between atoms: C_10  and  C_25
    8  A    between atoms: C_11  and  C_19
    9  A    between atoms: N_13  and  C_29
   10  A    between atoms: C_21  and  N_38
   11  A    between atoms: C_22  and  C_29
   12  A    between atoms: C_29  and  N_38
   13  A    between atoms: C_32  and  C_33
   14  A    between atoms: N_42  and  S_46
                            x       y       z     vdW  Elec       q    Type
                         _______ _______ _______ _____ _____    ______ ____

>  <TORSDO>
F 14

$$$$
=
 OpenBabel11042415553D

 50 54  0  0  1  0  0  0  0  0999 V2000
  195.6790  174.5640  146.1870 C   0  0  0  0  0  2  0  0  0  0  0  0
  194.6110  176.6520  145.1760 C   0  0  0  0  0  3  0  0  0  0  0  0
  191.0140  176.7540  144.9410 N   0  0  0  0  0  2  0  0  0  0  0  0
  194.5210  175.3990  145.7680 C   0  0  0  0  0  0  0  0  0  0  0  0
  192.3780  176.3890  145.1780 C   0  0  0  0  0  0  0  0  0  0  0  0
  193.4090  177.1990  144.8550 N   0  0  0  0  0  0  0  0  0  0  0  0
  192.9040  174.9500  145.8830 S   0  0  0  0  0  0  0  0  0  0  0  0
  189.8520  175.9120  145.2110 C   0  0  1  0  0  3  0  0  0  0  0  0
  188.6080  175.2890  147.1710 O   0  0  0  0  0  0  0  0  0  0  0  0
  189.5910  177.3560  147.2290 O   0  0  0  0  0  1  0  0  0  0  0  0
  189.3210  176.1530  146.5930 C   0  0  0  0  0  0  0  0  0  0  0  0
  188.8260  176.1100  144.1980 N   0  0  0  0  0  2  0  0  0  0  0  0
  188.5180  177.5310  144.1760 C   0  0  0  0  0  2  0  0  0  0  0  0
  185.7750  176.5550  145.2260 C   0  0  0  0  0  2  0  0  0  0  0  0
  187.0470  177.7750  143.8140 C   0  0  2  0  0  0  0  0  0  0  0  0
  185.5220  177.9820  145.6430 C   0  0  2  0  0  3  0  0  0  0  0  0
  186.4580  178.7840  144.7900 C   0  0  0  0  0  2  0  0  0  0  0  0
  186.3420  176.5600  143.9410 O   0  0  0  0  0  0  0  0  0  0  0  0
  185.8310  178.1680  147.0910 C   0  0  0  0  0  0  0  0  0  0  0  0
  185.9370  179.4430  147.6360 O   0  0  0  0  0  0  0  0  0  0  0  0
  186.0160  177.1600  147.8200 O   0  0  0  0  0  1  0  0  0  0  0  0
  188.1220  178.0810  141.6720 O   0  0  0  0  0  1  0  0  0  0  0  0
  186.9300  178.2950  142.3690 C   0  0  1  0  0  3  0  0  0  0  0  0
  185.7830  177.6440  140.4080 O   0  0  0  0  0  0  0  0  0  0  0  0
  185.7940  177.6520  141.6270 C   0  0  0  0  0  3  0  0  0  0  0  0
  196.2660  173.8530  144.9850 C   0  0  0  0  0  2  0  0  0  0  0  0
  195.3900  171.6300  144.0290 C   0  0  0  0  0  0  0  0  0  0  0  0
  195.9360  172.4010  145.0430 C   0  0  0  0  0  0  0  0  0  0  0  0
  195.3040  170.3490  144.5420 C   0  0  0  0  0  3  0  0  0  0  0  0
  196.1810  171.6240  146.1130 N   0  0  0  0  0  0  0  0  0  0  0  0
  195.7920  170.4000  145.7960 N   0  0  0  0  0  0  0  0  0  0  0  0
  195.8940  169.2670  146.6970 C   0  0  0  0  0  1  0  0  0  0  0  0
  194.3170  173.3180  142.5140 N   0  0  0  0  0  2  0  0  0  0  0  0
  195.2120  171.3130  141.6890 O   0  0  0  0  0  0  0  0  0  0  0  0
  194.9770  172.0550  142.6800 C   0  0  0  0  0  0  0  0  0  0  0  0
  192.4960  172.4850  136.4480 O   0  0  0  0  0  0  0  0  0  0  0  0
  191.8460  172.8690  137.4580 C   0  0  0  0  0  0  0  0  0  0  0  0
  190.2830  173.2690  139.8340 C   0  0  2  0  0  3  0  0  0  0  0  0
  193.5840  174.3500  138.2750 C   0  0  0  0  0  3  0  0  0  0  0  0
  189.6820  173.3220  138.4960 N   0  0  0  0  0  2  0  0  0  0  0  0
  194.1910  175.2910  139.2580 C   0  0  0  0  0  2  0  0  0  0  0  0
  189.4720  174.1530  140.7670 C   0  0  0  0  0  1  0  0  0  0  0  0
  193.8220  173.8910  141.2950 C   0  0  0  0  0  0  0  0  0  0  0  0
  192.4760  173.6480  138.5280 C   0  0  0  0  0  0  0  0  0  0  0  0
  194.6370  174.5790  140.4870 C   0  0  0  0  0  3  0  0  0  0  0  0
  190.4580  172.5590  137.6040 N   0  0  0  0  0  0  0  0  0  0  0  0
  192.3790  173.7080  141.0180 C   0  0  0  0  0  3  0  0  0  0  0  0
  191.7500  173.6720  139.8290 C   0  0  0  0  0  0  0  0  0  0  0  0
  189.9620  170.0370  137.9250 C   0  0  0  0  0  1  0  0  0  0  0  0
  189.6930  171.2900  136.6390 S   0  0  0  0  0  0  0  0  0  0  0  0
  2  4  2  0  0  0  0
  3  5  1  0  0  0  0
  3  8  1  0  0  0  0
  4  7  1  0  0  0  0
  4  1  1  0  0  0  0
  5  7  1  0  0  0  0
  6  2  1  0  0  0  0
  6  5  2  0  0  0  0
  8 12  1  6  0  0  0
  8 11  1  0  0  0  0
 11  9  2  0  0  0  0
 11 10  1  0  0  0  0
 13 12  1  0  0  0  0
 14 16  1  0  0  0  0
 15 18  1  0  0  0  0
 15 13  1  1  0  0  0
 15 17  1  0  0  0  0
 16 19  1  1  0  0  0
 17 16  1  0  0  0  0
 18 14  1  0  0  0  0
 19 20  2  0  0  0  0
 19 21  1  0  0  0  0
 23 22  1  6  0  0  0
 23 15  1  0  0  0  0
 24 25  2  0  0  0  0
 25 23  1  0  0  0  0
 26 28  1  0  0  0  0
 26  1  1  0  0  0  0
 27 29  2  0  0  0  0
 27 28  1  0  0  0  0
 28 30  2  0  0  0  0
 29 31  1  0  0  0  0
 31 30  1  0  0  0  0
 31 32  1  0  0  0  0
 33 35  1  0  0  0  0
 34 35  2  0  0  0  0
 35 27  1  0  0  0  0
 36 37  2  0  0  0  0
 37 46  1  0  0  0  0
 37 44  1  0  0  0  0
 38 42  1  1  0  0  0
 39 44  2  0  0  0  0
 39 41  1  0  0  0  0
 40 38  1  0  0  0  0
 41 45  1  0  0  0  0
 43 33  1  0  0  0  0
 44 48  1  0  0  0  0
 45 43  2  0  0  0  0
 46 40  1  0  0  0  0
 47 43  1  0  0  0  0
 48 38  1  0  0  0  0
 48 47  2  0  0  0  0
 50 46  1  0  0  0  0
 50 49  1  0  0  0  0
M  END
>  <MODEL>
8

>  <REMARK>
 VINA RESULT:      -6.7      2.064      3.578
  Name = 
  14 active torsions:
  status: ('A' for Active; 'I' for Inactive)
    1  A    between atoms: N_2  and  C_36
    2  A    between atoms: C_7  and  C_44
    3  A    between atoms: C_8  and  C_14
    4  A    between atoms: C_9  and  C_21
    5  A    between atoms: C_9  and  C_33
    6  A    between atoms: C_10  and  C_11
    7  A    between atoms: C_10  and  C_25
    8  A    between atoms: C_11  and  C_19
    9  A    between atoms: N_13  and  C_29
   10  A    between atoms: C_21  and  N_38
   11  A    between atoms: C_22  and  C_29
   12  A    between atoms: C_29  and  N_38
   13  A    between atoms: C_32  and  C_33
   14  A    between atoms: N_42  and  S_46
                            x       y       z     vdW  Elec       q    Type
                         _______ _______ _______ _____ _____    ______ ____

>  <TORSDO>
F 14

$$$$
=
 OpenBabel11042415553D

 50 54  0  0  1  0  0  0  0  0999 V2000
  191.1740  169.8400  142.1640 C   0  0  0  0  0  2  0  0  0  0  0  0
  193.6840  169.4790  141.8710 C   0  0  0  0  0  3  0  0  0  0  0  0
  195.9180  171.6560  143.6800 N   0  0  0  0  0  2  0  0  0  0  0  0
  192.6040  170.1380  142.4420 C   0  0  0  0  0  0  0  0  0  0  0  0
  194.7780  170.9920  143.1250 C   0  0  0  0  0  0  0  0  0  0  0  0
  194.8950  169.9590  142.2620 N   0  0  0  0  0  0  0  0  0  0  0  0
  193.1660  171.3620  143.4500 S   0  0  0  0  0  0  0  0  0  0  0  0
  195.8740  172.8110  144.5730 C   0  0  1  0  0  3  0  0  0  0  0  0
  197.1860  173.4830  146.4720 O   0  0  0  0  0  1  0  0  0  0  0  0
  196.7520  171.2410  146.3020 O   0  0  0  0  0  0  0  0  0  0  0  0
  196.6310  172.5430  145.8390 C   0  0  0  0  0  0  0  0  0  0  0  0
  196.3590  174.0040  143.8970 N   0  0  0  0  0  2  0  0  0  0  0  0
  195.7130  174.0480  142.5940 C   0  0  0  0  0  2  0  0  0  0  0  0
  192.8990  175.1430  143.2760 C   0  0  0  0  0  2  0  0  0  0  0  0
  194.9640  175.3710  142.3910 C   0  0  2  0  0  0  0  0  0  0  0  0
  193.5930  176.1070  144.2050 C   0  0  2  0  0  3  0  0  0  0  0  0
  194.9990  176.1650  143.6900 C   0  0  0  0  0  2  0  0  0  0  0  0
  193.6190  175.0880  142.0720 O   0  0  0  0  0  0  0  0  0  0  0  0
  193.5600  175.5990  145.6080 C   0  0  0  0  0  0  0  0  0  0  0  0
  194.6920  175.6670  146.4130 O   0  0  0  0  0  1  0  0  0  0  0  0
  192.5040  175.0880  146.0590 O   0  0  0  0  0  0  0  0  0  0  0  0
  196.5990  177.0310  141.7510 O   0  0  0  0  0  1  0  0  0  0  0  0
  195.6080  176.1820  141.2510 C   0  0  1  0  0  3  0  0  0  0  0  0
  195.7320  175.2980  139.0620 O   0  0  0  0  0  0  0  0  0  0  0  0
  196.1960  175.2980  140.1900 C   0  0  0  0  0  3  0  0  0  0  0  0
  190.3910  171.1320  142.0370 C   0  0  0  0  0  2  0  0  0  0  0  0
  189.1540  172.3380  140.1300 C   0  0  0  0  0  0  0  0  0  0  0  0
  189.9800  171.3390  140.6200 C   0  0  0  0  0  0  0  0  0  0  0  0
  189.0990  172.1380  138.7630 C   0  0  0  0  0  3  0  0  0  0  0  0
  190.4150  170.5790  139.6000 N   0  0  0  0  0  0  0  0  0  0  0  0
  189.8740  171.0690  138.4960 N   0  0  0  0  0  0  0  0  0  0  0  0
  190.1050  170.5170  137.1740 C   0  0  0  0  0  1  0  0  0  0  0  0
  188.7130  174.7740  140.5390 N   0  0  0  0  0  2  0  0  0  0  0  0
  187.6630  173.1000  141.8040 O   0  0  0  0  0  0  0  0  0  0  0  0
  188.4640  173.4020  140.8800 C   0  0  0  0  0  0  0  0  0  0  0  0
  184.8190  177.2730  144.9450 O   0  0  0  0  0  0  0  0  0  0  0  0
  186.0720  177.3420  144.8180 C   0  0  0  0  0  0  0  0  0  0  0  0
  188.9320  177.0860  144.7890 C   0  0  2  0  0  3  0  0  0  0  0  0
  186.0190  177.7340  142.4250 C   0  0  0  0  0  3  0  0  0  0  0  0
  188.2390  177.8960  145.7990 N   0  0  0  0  0  2  0  0  0  0  0  0
  186.6390  177.9230  141.0830 C   0  0  0  0  0  2  0  0  0  0  0  0
  190.3230  177.6600  144.5770 C   0  0  0  0  0  1  0  0  0  0  0  0
  188.1600  175.9420  141.1650 C   0  0  0  0  0  0  0  0  0  0  0  0
  186.7120  177.3480  143.5000 C   0  0  0  0  0  0  0  0  0  0  0  0
  187.1970  176.6460  140.5590 C   0  0  0  0  0  3  0  0  0  0  0  0
  186.9260  177.4170  145.9610 N   0  0  0  0  0  0  0  0  0  0  0  0
  188.7410  176.3280  142.4710 C   0  0  0  0  0  3  0  0  0  0  0  0
  188.1620  177.0050  143.4800 C   0  0  0  0  0  0  0  0  0  0  0  0
  185.7430  178.6720  147.8940 C   0  0  0  0  0  1  0  0  0  0  0  0
  186.3420  176.9880  147.5750 S   0  0  0  0  0  0  0  0  0  0  0  0
  1  4  1  0  0  0  0
  2  6  1  0  0  0  0
  2  4  2  0  0  0  0
  4  7  1  0  0  0  0
  5  7  1  0  0  0  0
  5  3  1  0  0  0  0
  6  5  2  0  0  0  0
  8  3  1  6  0  0  0
  8 11  1  0  0  0  0
 11 10  2  0  0  0  0
 11  9  1  0  0  0  0
 12  8  1  0  0  0  0
 13 12  1  0  0  0  0
 14 16  1  0  0  0  0
 15 13  1  1  0  0  0
 15 17  1  0  0  0  0
 16 19  1  1  0  0  0
 17 16  1  0  0  0  0
 18 15  1  0  0  0  0
 18 14  1  0  0  0  0
 19 21  2  0  0  0  0
 19 20  1  0  0  0  0
 23 22  1  1  0  0  0
 23 15  1  0  0  0  0
 24 25  2  0  0  0  0
 25 23  1  0  0  0  0
 26  1  1  0  0  0  0
 27 28  1  0  0  0  0
 27 35  1  0  0  0  0
 28 26  1  0  0  0  0
 29 27  2  0  0  0  0
 30 28  2  0  0  0  0
 31 29  1  0  0  0  0
 31 30  1  0  0  0  0
 32 31  1  0  0  0  0
 33 35  1  0  0  0  0
 33 43  1  0  0  0  0
 35 34  2  0  0  0  0
 37 36  2  0  0  0  0
 37 46  1  0  0  0  0
 38 42  1  6  0  0  0
 38 40  1  0  0  0  0
 39 44  2  0  0  0  0
 40 46  1  0  0  0  0
 41 39  1  0  0  0  0
 43 47  1  0  0  0  0
 44 37  1  0  0  0  0
 45 41  1  0  0  0  0
 45 43  2  0  0  0  0
 46 50  1  0  0  0  0
 47 48  2  0  0  0  0
 48 44  1  0  0  0  0
 48 38  1  0  0  0  0
 50 49  1  0  0  0  0
M  END
>  <MODEL>
9

>  <REMARK>
 VINA RESULT:      -6.7      3.098      8.441
  Name = 
  14 active torsions:
  status: ('A' for Active; 'I' for Inactive)
    1  A    between atoms: N_2  and  C_36
    2  A    between atoms: C_7  and  C_44
    3  A    between atoms: C_8  and  C_14
    4  A    between atoms: C_9  and  C_21
    5  A    between atoms: C_9  and  C_33
    6  A    between atoms: C_10  and  C_11
    7  A    between atoms: C_10  and  C_25
    8  A    between atoms: C_11  and  C_19
    9  A    between atoms: N_13  and  C_29
   10  A    between atoms: C_21  and  N_38
   11  A    between atoms: C_22  and  C_29
   12  A    between atoms: C_29  and  N_38
   13  A    between atoms: C_32  and  C_33
   14  A    between atoms: N_42  and  S_46
                            x       y       z     vdW  Elec       q    Type
                         _______ _______ _______ _____ _____    ______ ____

>  <TORSDO>
F 14

$$$$
