=
 OpenBabel11042416323D

 54 60  0  0  1  0  0  0  0  0999 V2000
  192.0350  170.8260  140.3360 C   0  0  0  0  0  0  0  0  0  0  0  0
  192.9720  170.6510  138.1050 C   0  0  0  0  0  3  0  0  0  0  0  0
  193.7450  172.3900  139.6100 C   0  0  0  0  0  0  0  0  0  0  0  0
  192.8630  171.9270  140.5900 C   0  0  0  0  0  3  0  0  0  0  0  0
  192.0990  170.1800  139.0900 C   0  0  0  0  0  0  0  0  0  0  0  0
  194.6550  172.2060  137.3650 O   0  0  0  0  0  1  0  0  0  0  0  0
  193.7920  171.7540  138.3570 C   0  0  0  0  0  0  0  0  0  0  0  0
  191.3070  169.0690  138.8240 O   0  0  0  0  0  1  0  0  0  0  0  0
  194.6250  173.5560  139.9100 C   0  0  0  0  0  2  0  0  0  0  0  0
  193.8280  174.7710  139.9690 N   0  0  0  0  0  2  0  0  0  0  0  0
  194.0630  174.8950  142.4010 C   0  0  0  0  0  2  0  0  0  0  0  0
  195.2260  174.9310  143.2950 N   0  0  0  0  0  0  0  0  0  0  0  0
  196.1690  176.6880  141.8310 C   0  0  0  0  0  2  0  0  0  0  0  0
  195.7550  175.7250  140.8880 O   0  0  0  0  0  0  0  0  0  0  0  0
  194.3680  175.5710  141.0550 C   0  0  1  0  0  3  0  0  0  0  0  0
  195.8240  176.2670  143.2740 C   0  0  0  0  0  2  0  0  0  0  0  0
  194.6540  174.6220  144.9040 S   0  0  0  0  0  0  0  0  0  0  0  0
  195.7180  175.0090  145.8920 O   0  0  0  0  0  0  0  0  0  0  0  0
  194.3380  173.1600  145.0660 O   0  0  0  0  0  0  0  0  0  0  0  0
  193.1800  175.5760  145.2320 C   0  0  0  0  0  2  0  0  0  0  0  0
  189.0370  174.7560  147.2520 C   0  0  0  0  0  1  0  0  0  0  0  0
  192.3590  175.7130  147.4200 C   0  0  0  0  0  2  0  0  0  0  0  0
  189.7220  176.8820  146.4230 O   0  0  0  0  0  1  0  0  0  0  0  0
  190.2000  175.6410  146.8520 C   0  0  2  0  0  0  0  0  0  0  0  0
  190.9850  174.9860  145.7430 C   0  0  0  0  0  2  0  0  0  0  0  0
  191.0550  175.8170  147.9460 O   0  0  0  0  0  0  0  0  0  0  0  0
  192.3480  174.8960  146.2150 N   0  0  0  0  0  0  0  0  0  0  0  0
  190.9440  170.2400  141.6370 S   0  0  0  0  0  0  0  0  0  0  0  0
  189.7610  172.4050  142.9410 C   0  0  0  0  0  0  0  0  0  0  0  0
  190.0120  171.7720  141.7130 C   0  0  0  0  0  0  0  0  0  0  0  0
  188.8550  173.5760  140.5550 C   0  0  0  0  0  0  0  0  0  0  0  0
  189.5630  172.3620  140.5280 C   0  0  0  0  0  3  0  0  0  0  0  0
  189.0580  173.6140  142.9720 C   0  0  0  0  0  3  0  0  0  0  0  0
  188.6030  174.2060  141.7840 C   0  0  0  0  0  0  0  0  0  0  0  0
  190.2190  171.8510  144.1300 O   0  0  0  0  0  1  0  0  0  0  0  0
  187.9010  175.4160  141.7990 O   0  0  0  0  0  0  0  0  0  0  0  0
  188.3180  176.5410  142.5660 C   0  0  0  0  0  2  0  0  0  0  0  0
  187.5170  176.6110  143.8510 C   0  0  0  0  0  2  0  0  0  0  0  0
  186.7060  177.8220  143.8610 N   0  0  0  0  0  0  0  0  0  0  0  0
  185.3710  177.4180  143.3660 C   0  0  1  0  0  3  0  0  0  0  0  0
  185.5060  176.5650  145.7720 C   0  0  0  0  0  2  0  0  0  0  0  0
  185.4100  178.2080  147.5940 N   0  0  0  0  0  2  0  0  0  0  0  0
  185.5450  177.7420  144.7860 C   0  0  0  0  0  0  0  0  0  0  0  0
  186.0960  177.0100  147.1110 C   0  0  0  0  0  2  0  0  0  0  0  0
  185.1340  179.1140  145.3270 C   0  0  0  0  0  2  0  0  0  0  0  0
  185.7550  179.3210  146.7100 C   0  0  0  0  0  2  0  0  0  0  0  0
  184.7820  178.5470  142.5320 C   0  0  0  0  0  2  0  0  0  0  0  0
  184.1490  178.0160  141.4080 O   0  0  0  0  0  1  0  0  0  0  0  0
  188.3960  174.1740  139.3760 O   0  0  0  0  0  0  0  0  0  0  0  0
  188.3690  173.4960  138.1250 C   0  0  0  0  0  2  0  0  0  0  0  0
  189.3430  174.1490  137.1530 C   0  0  0  0  0  2  0  0  0  0  0  0
  191.2990  173.4700  135.8060 C   0  0  0  0  0  2  0  0  0  0  0  0
  191.7740  174.4510  136.8600 C   0  0  0  0  0  2  0  0  0  0  0  0
  190.6880  173.4480  137.1960 C   0  0  0  0  0  3  0  0  0  0  0  0
  1  4  1  0  0  0  0
  1 28  1  0  0  0  0
  2  7  2  0  0  0  0
  2  5  1  0  0  0  0
  3  9  1  0  0  0  0
  3  4  2  0  0  0  0
  5  1  2  0  0  0  0
  6  7  1  0  0  0  0
  7  3  1  0  0  0  0
  8  5  1  0  0  0  0
  9 10  1  0  0  0  0
 11 12  1  0  0  0  0
 12 17  1  0  0  0  0
 13 16  1  0  0  0  0
 14 15  1  0  0  0  0
 14 13  1  0  0  0  0
 15 10  1  6  0  0  0
 15 11  1  0  0  0  0
 16 12  1  0  0  0  0
 17 19  2  0  0  0  0
 17 20  1  0  0  0  0
 17 18  2  0  0  0  0
 20 27  1  0  0  0  0
 22 26  1  0  0  0  0
 23 24  1  0  0  0  0
 24 21  1  1  0  0  0
 24 26  1  0  0  0  0
 25 27  1  0  0  0  0
 25 24  1  0  0  0  0
 27 22  1  0  0  0  0
 28 30  1  0  0  0  0
 29 33  1  0  0  0  0
 29 35  1  0  0  0  0
 30 29  2  0  0  0  0
 31 34  1  0  0  0  0
 32 31  2  0  0  0  0
 32 30  1  0  0  0  0
 34 36  1  0  0  0  0
 34 33  2  0  0  0  0
 36 37  1  0  0  0  0
 37 38  1  0  0  0  0
 38 39  1  0  0  0  0
 39 43  1  0  0  0  0
 40 47  1  6  0  0  0
 40 39  1  0  0  0  0
 40 43  1  0  0  0  0
 41 44  1  0  0  0  0
 43 45  1  0  0  0  0
 43 41  1  0  0  0  0
 44 42  1  0  0  0  0
 45 46  1  0  0  0  0
 46 42  1  0  0  0  0
 48 47  1  0  0  0  0
 49 31  1  0  0  0  0
 50 49  1  0  0  0  0
 51 54  1  0  0  0  0
 51 50  1  0  0  0  0
 52 53  1  0  0  0  0
 52 54  1  0  0  0  0
 53 54  1  0  0  0  0
M  END
>  <MODEL>
1

>  <REMARK>
 VINA RESULT:      -6.9      0.000      0.000
  Name = 
  17 active torsions:
  status: ('A' for Active; 'I' for Inactive)
    1  A    between atoms: C_1  and  O_6
    2  A    between atoms: C_1  and  C_24
    3  A    between atoms: C_3  and  C_27
    4  A    between atoms: C_5  and  S_45
    5  A    between atoms: O_6  and  C_39
    6  A    between atoms: C_8  and  C_18
    7  A    between atoms: C_8  and  O_20
    8  A    between atoms: C_9  and  S_45
    9  A    between atoms: C_10  and  O_20
   10  A    between atoms: N_11  and  C_24
   11  A    between atoms: C_14  and  C_23
   12  A    between atoms: N_15  and  S_26
   13  A    between atoms: C_18  and  C_22
   14  A    between atoms: N_19  and  C_23
   15  A    between atoms: N_19  and  C_50
   16  A    between atoms: S_26  and  C_53
   17  A    between atoms: N_47  and  C_53
                            x       y       z     vdW  Elec       q    Type
                         _______ _______ _______ _____ _____    ______ ____

>  <TORSDO>
F 17

$$$$
=
 OpenBabel11042416323D

 54 60  0  0  1  0  0  0  0  0999 V2000
  190.5200  174.7520  144.7450 C   0  0  0  0  0  0  0  0  0  0  0  0
  191.8760  176.7580  144.8990 C   0  0  0  0  0  3  0  0  0  0  0  0
  190.0160  176.6690  143.3430 C   0  0  0  0  0  0  0  0  0  0  0  0
  189.7370  175.3650  143.7590 C   0  0  0  0  0  3  0  0  0  0  0  0
  191.5880  175.4580  145.3240 C   0  0  0  0  0  0  0  0  0  0  0  0
  191.3980  178.6610  143.5020 O   0  0  0  0  0  1  0  0  0  0  0  0
  191.0980  177.3660  143.9090 C   0  0  0  0  0  0  0  0  0  0  0  0
  192.3630  174.8810  146.3230 O   0  0  0  0  0  1  0  0  0  0  0  0
  189.1590  177.3030  142.3010 C   0  0  0  0  0  2  0  0  0  0  0  0
  188.5590  176.2750  141.4650 N   0  0  0  0  0  2  0  0  0  0  0  0
  186.6230  177.3290  142.5270 C   0  0  0  0  0  2  0  0  0  0  0  0
  185.8300  178.5210  142.2060 N   0  0  0  0  0  0  0  0  0  0  0  0
  185.7160  177.6960  139.8770 C   0  0  0  0  0  2  0  0  0  0  0  0
  187.0880  177.5450  140.1650 O   0  0  0  0  0  0  0  0  0  0  0  0
  187.1750  176.6630  141.2560 C   0  0  1  0  0  3  0  0  0  0  0  0
  184.9280  178.2300  141.0900 C   0  0  0  0  0  2  0  0  0  0  0  0
  184.8630  178.8910  143.5980 S   0  0  0  0  0  0  0  0  0  0  0  0
  183.4080  178.7940  143.2330 O   0  0  0  0  0  0  0  0  0  0  0  0
  185.1590  180.2870  144.0750 O   0  0  0  0  0  0  0  0  0  0  0  0
  185.2090  177.7390  144.9190 C   0  0  0  0  0  2  0  0  0  0  0  0
  189.2290  177.7030  147.3170 C   0  0  0  0  0  1  0  0  0  0  0  0
  185.7730  177.8170  147.1890 C   0  0  0  0  0  2  0  0  0  0  0  0
  187.9780  175.7490  146.7770 O   0  0  0  0  0  1  0  0  0  0  0  0
  187.8820  177.1360  146.9190 C   0  0  2  0  0  0  0  0  0  0  0  0
  187.4320  177.7510  145.6180 C   0  0  0  0  0  2  0  0  0  0  0  0
  186.9320  177.4460  147.8990 O   0  0  0  0  0  0  0  0  0  0  0  0
  186.1340  178.3310  145.8750 N   0  0  0  0  0  0  0  0  0  0  0  0
  190.1040  173.0880  145.2780 S   0  0  0  0  0  0  0  0  0  0  0  0
  189.9190  171.7850  142.8170 C   0  0  0  0  0  0  0  0  0  0  0  0
  190.7690  172.3170  143.8000 C   0  0  0  0  0  0  0  0  0  0  0  0
  192.7010  171.7080  142.4480 C   0  0  0  0  0  0  0  0  0  0  0  0
  192.1530  172.2800  143.6080 C   0  0  0  0  0  3  0  0  0  0  0  0
  190.4600  171.2160  141.6600 C   0  0  0  0  0  3  0  0  0  0  0  0
  191.8500  171.1750  141.4670 C   0  0  0  0  0  0  0  0  0  0  0  0
  188.5390  171.8330  142.9730 O   0  0  0  0  0  1  0  0  0  0  0  0
  192.4060  170.6120  140.3130 O   0  0  0  0  0  0  0  0  0  0  0  0
  192.7900  171.3870  139.1830 C   0  0  0  0  0  2  0  0  0  0  0  0
  191.7710  172.4830  138.9420 C   0  0  0  0  0  2  0  0  0  0  0  0
  191.3990  172.5090  137.5330 N   0  0  0  0  0  0  0  0  0  0  0  0
  190.7310  171.2150  137.2680 C   0  0  1  0  0  3  0  0  0  0  0  0
  189.0230  172.6310  138.5370 C   0  0  0  0  0  2  0  0  0  0  0  0
  187.9800  174.5210  137.3670 N   0  0  0  0  0  2  0  0  0  0  0  0
  189.9300  172.4440  137.3130 C   0  0  0  0  0  0  0  0  0  0  0  0
  188.5920  174.0960  138.6260 C   0  0  0  0  0  2  0  0  0  0  0  0
  189.5020  173.1410  136.0190 C   0  0  0  0  0  2  0  0  0  0  0  0
  189.0220  174.5590  136.3420 C   0  0  0  0  0  2  0  0  0  0  0  0
  191.0820  170.7460  135.8630 C   0  0  0  0  0  2  0  0  0  0  0  0
  192.4450  170.4580  135.7940 O   0  0  0  0  0  1  0  0  0  0  0  0
  194.0850  171.6620  142.2460 O   0  0  0  0  0  0  0  0  0  0  0  0
  194.9830  172.5980  142.8320 C   0  0  0  0  0  2  0  0  0  0  0  0
  195.1410  173.8110  141.9240 C   0  0  0  0  0  2  0  0  0  0  0  0
  194.3770  176.1150  141.4640 C   0  0  0  0  0  2  0  0  0  0  0  0
  193.1520  175.2520  141.6880 C   0  0  0  0  0  2  0  0  0  0  0  0
  194.4070  175.0070  142.5020 C   0  0  0  0  0  3  0  0  0  0  0  0
  1 28  1  0  0  0  0
  1  5  1  0  0  0  0
  2  5  2  0  0  0  0
  3  4  1  0  0  0  0
  3  7  2  0  0  0  0
  4  1  2  0  0  0  0
  5  8  1  0  0  0  0
  6  7  1  0  0  0  0
  7  2  1  0  0  0  0
  9  3  1  0  0  0  0
 10  9  1  0  0  0  0
 12 11  1  0  0  0  0
 12 17  1  0  0  0  0
 13 14  1  0  0  0  0
 13 16  1  0  0  0  0
 14 15  1  0  0  0  0
 15 10  1  1  0  0  0
 15 11  1  0  0  0  0
 16 12  1  0  0  0  0
 17 19  2  0  0  0  0
 17 20  1  0  0  0  0
 18 17  2  0  0  0  0
 20 27  1  0  0  0  0
 22 26  1  0  0  0  0
 23 24  1  0  0  0  0
 24 21  1  1  0  0  0
 24 26  1  0  0  0  0
 25 27  1  0  0  0  0
 25 24  1  0  0  0  0
 27 22  1  0  0  0  0
 29 35  1  0  0  0  0
 29 30  1  0  0  0  0
 30 28  1  0  0  0  0
 31 32  1  0  0  0  0
 32 30  2  0  0  0  0
 33 29  2  0  0  0  0
 34 33  1  0  0  0  0
 34 31  2  0  0  0  0
 36 34  1  0  0  0  0
 37 36  1  0  0  0  0
 38 37  1  0  0  0  0
 39 38  1  0  0  0  0
 40 47  1  6  0  0  0
 40 43  1  0  0  0  0
 40 39  1  0  0  0  0
 41 44  1  0  0  0  0
 42 44  1  0  0  0  0
 43 39  1  0  0  0  0
 43 41  1  0  0  0  0
 45 46  1  0  0  0  0
 45 43  1  0  0  0  0
 46 42  1  0  0  0  0
 48 47  1  0  0  0  0
 49 31  1  0  0  0  0
 49 50  1  0  0  0  0
 51 54  1  0  0  0  0
 51 50  1  0  0  0  0
 52 53  1  0  0  0  0
 52 54  1  0  0  0  0
 53 54  1  0  0  0  0
M  END
>  <MODEL>
2

>  <REMARK>
 VINA RESULT:      -6.6      2.751      8.066
  Name = 
  17 active torsions:
  status: ('A' for Active; 'I' for Inactive)
    1  A    between atoms: C_1  and  O_6
    2  A    between atoms: C_1  and  C_24
    3  A    between atoms: C_3  and  C_27
    4  A    between atoms: C_5  and  S_45
    5  A    between atoms: O_6  and  C_39
    6  A    between atoms: C_8  and  C_18
    7  A    between atoms: C_8  and  O_20
    8  A    between atoms: C_9  and  S_45
    9  A    between atoms: C_10  and  O_20
   10  A    between atoms: N_11  and  C_24
   11  A    between atoms: C_14  and  C_23
   12  A    between atoms: N_15  and  S_26
   13  A    between atoms: C_18  and  C_22
   14  A    between atoms: N_19  and  C_23
   15  A    between atoms: N_19  and  C_50
   16  A    between atoms: S_26  and  C_53
   17  A    between atoms: N_47  and  C_53
                            x       y       z     vdW  Elec       q    Type
                         _______ _______ _______ _____ _____    ______ ____

>  <TORSDO>
F 17

$$$$
=
 OpenBabel11042416323D

 54 60  0  0  1  0  0  0  0  0999 V2000
  194.5300  171.1670  140.2080 C   0  0  0  0  0  0  0  0  0  0  0  0
  193.0840  169.5040  141.2240 C   0  0  0  0  0  3  0  0  0  0  0  0
  192.1170  171.4140  140.0800 C   0  0  0  0  0  0  0  0  0  0  0  0
  193.4010  171.8820  139.7880 C   0  0  0  0  0  3  0  0  0  0  0  0
  194.3670  169.9670  140.9210 C   0  0  0  0  0  0  0  0  0  0  0  0
  190.6900  169.7460  141.1200 O   0  0  0  0  0  1  0  0  0  0  0  0
  191.9580  170.2230  140.8100 C   0  0  0  0  0  0  0  0  0  0  0  0
  195.4710  169.2260  141.3240 O   0  0  0  0  0  1  0  0  0  0  0  0
  190.9330  172.1870  139.6100 C   0  0  0  0  0  2  0  0  0  0  0  0
  190.9890  173.5420  140.1360 N   0  0  0  0  0  2  0  0  0  0  0  0
  189.4410  175.1000  141.2130 C   0  0  0  0  0  2  0  0  0  0  0  0
  187.9780  175.1640  141.2920 N   0  0  0  0  0  0  0  0  0  0  0  0
  188.0060  172.7680  141.9040 C   0  0  0  0  0  2  0  0  0  0  0  0
  188.8760  172.7880  140.7940 O   0  0  0  0  0  0  0  0  0  0  0  0
  189.9360  173.6470  141.1310 C   0  0  1  0  0  3  0  0  0  0  0  0
  187.4910  174.1770  142.2570 C   0  0  0  0  0  2  0  0  0  0  0  0
  187.5580  176.7430  141.8780 S   0  0  0  0  0  0  0  0  0  0  0  0
  186.9220  177.5320  140.7680 O   0  0  0  0  0  0  0  0  0  0  0  0
  188.7930  177.4620  142.3490 O   0  0  0  0  0  0  0  0  0  0  0  0
  186.4050  176.6150  143.2360 C   0  0  0  0  0  2  0  0  0  0  0  0
  185.6410  179.1450  147.0990 C   0  0  0  0  0  1  0  0  0  0  0  0
  184.9130  178.3210  143.8180 C   0  0  0  0  0  2  0  0  0  0  0  0
  184.5110  177.1100  146.5900 O   0  0  0  0  0  1  0  0  0  0  0  0
  185.2380  178.1600  146.0210 C   0  0  2  0  0  0  0  0  0  0  0  0
  186.4680  177.6170  145.3380 C   0  0  0  0  0  2  0  0  0  0  0  0
  184.4560  178.8090  145.0590 O   0  0  0  0  0  0  0  0  0  0  0  0
  186.2990  177.8910  143.9300 N   0  0  0  0  0  0  0  0  0  0  0  0
  196.1610  171.7850  139.7790 S   0  0  0  0  0  0  0  0  0  0  0  0
  195.9450  174.3120  140.9420 C   0  0  0  0  0  0  0  0  0  0  0  0
  196.2130  172.9490  141.1440 C   0  0  0  0  0  0  0  0  0  0  0  0
  196.5080  173.3680  143.5250 C   0  0  0  0  0  0  0  0  0  0  0  0
  196.4880  172.4830  142.4330 C   0  0  0  0  0  3  0  0  0  0  0  0
  195.9620  175.1950  142.0260 C   0  0  0  0  0  3  0  0  0  0  0  0
  196.2420  174.7300  143.3210 C   0  0  0  0  0  0  0  0  0  0  0  0
  195.6430  174.7950  139.6740 O   0  0  0  0  0  1  0  0  0  0  0  0
  196.2600  175.6010  144.4160 O   0  0  0  0  0  0  0  0  0  0  0  0
  195.2860  176.6220  144.6080 C   0  0  0  0  0  2  0  0  0  0  0  0
  194.1790  176.1110  145.5080 C   0  0  0  0  0  2  0  0  0  0  0  0
  193.0840  175.5910  144.6960 N   0  0  0  0  0  0  0  0  0  0  0  0
  193.0890  174.1260  144.9030 C   0  0  1  0  0  3  0  0  0  0  0  0
  192.0660  175.1220  147.0230 C   0  0  0  0  0  2  0  0  0  0  0  0
  189.8080  176.0760  146.8860 N   0  0  0  0  0  2  0  0  0  0  0  0
  192.0200  174.9350  145.5000 C   0  0  0  0  0  0  0  0  0  0  0  0
  191.1550  176.2860  147.4140 C   0  0  0  0  0  2  0  0  0  0  0  0
  190.6460  175.0210  144.8310 C   0  0  0  0  0  2  0  0  0  0  0  0
  189.8640  176.1940  145.4290 C   0  0  0  0  0  2  0  0  0  0  0  0
  192.7030  173.4340  143.6040 C   0  0  0  0  0  2  0  0  0  0  0  0
  193.1430  172.1110  143.6310 O   0  0  0  0  0  1  0  0  0  0  0  0
  196.7870  172.9140  144.8200 O   0  0  0  0  0  0  0  0  0  0  0  0
  197.5590  171.7480  145.0810 C   0  0  0  0  0  2  0  0  0  0  0  0
  196.8220  170.8380  146.0560 C   0  0  0  0  0  2  0  0  0  0  0  0
  195.5830  168.7830  145.4670 C   0  0  0  0  0  2  0  0  0  0  0  0
  194.7580  169.5540  146.4780 C   0  0  0  0  0  2  0  0  0  0  0  0
  195.5510  170.3010  145.4240 C   0  0  0  0  0  3  0  0  0  0  0  0
  1  5  1  0  0  0  0
  3  7  2  0  0  0  0
  4  3  1  0  0  0  0
  4  1  2  0  0  0  0
  5  2  2  0  0  0  0
  5  8  1  0  0  0  0
  7  6  1  0  0  0  0
  7  2  1  0  0  0  0
  9  3  1  0  0  0  0
  9 10  1  0  0  0  0
 11 12  1  0  0  0  0
 12 17  1  0  0  0  0
 12 16  1  0  0  0  0
 13 16  1  0  0  0  0
 14 15  1  0  0  0  0
 14 13  1  0  0  0  0
 15 10  1  6  0  0  0
 15 11  1  0  0  0  0
 17 19  2  0  0  0  0
 17 20  1  0  0  0  0
 18 17  2  0  0  0  0
 20 27  1  0  0  0  0
 22 27  1  0  0  0  0
 22 26  1  0  0  0  0
 24 23  1  0  0  0  0
 24 21  1  1  0  0  0
 25 24  1  0  0  0  0
 26 24  1  0  0  0  0
 27 25  1  0  0  0  0
 28  1  1  0  0  0  0
 28 30  1  0  0  0  0
 29 30  2  0  0  0  0
 29 33  1  0  0  0  0
 30 32  1  0  0  0  0
 31 49  1  0  0  0  0
 32 31  2  0  0  0  0
 33 34  2  0  0  0  0
 34 31  1  0  0  0  0
 34 36  1  0  0  0  0
 35 29  1  0  0  0  0
 36 37  1  0  0  0  0
 37 38  1  0  0  0  0
 39 40  1  0  0  0  0
 39 43  1  0  0  0  0
 39 38  1  0  0  0  0
 40 47  1  6  0  0  0
 40 43  1  0  0  0  0
 41 44  1  0  0  0  0
 42 44  1  0  0  0  0
 43 41  1  0  0  0  0
 45 46  1  0  0  0  0
 45 43  1  0  0  0  0
 46 42  1  0  0  0  0
 47 48  1  0  0  0  0
 49 50  1  0  0  0  0
 50 51  1  0  0  0  0
 52 53  1  0  0  0  0
 54 52  1  0  0  0  0
 54 51  1  0  0  0  0
 54 53  1  0  0  0  0
M  END
>  <MODEL>
3

>  <REMARK>
 VINA RESULT:      -6.4      2.991      7.341
  Name = 
  17 active torsions:
  status: ('A' for Active; 'I' for Inactive)
    1  A    between atoms: C_1  and  O_6
    2  A    between atoms: C_1  and  C_24
    3  A    between atoms: C_3  and  C_27
    4  A    between atoms: C_5  and  S_45
    5  A    between atoms: O_6  and  C_39
    6  A    between atoms: C_8  and  C_18
    7  A    between atoms: C_8  and  O_20
    8  A    between atoms: C_9  and  S_45
    9  A    between atoms: C_10  and  O_20
   10  A    between atoms: N_11  and  C_24
   11  A    between atoms: C_14  and  C_23
   12  A    between atoms: N_15  and  S_26
   13  A    between atoms: C_18  and  C_22
   14  A    between atoms: N_19  and  C_23
   15  A    between atoms: N_19  and  C_50
   16  A    between atoms: S_26  and  C_53
   17  A    between atoms: N_47  and  C_53
                            x       y       z     vdW  Elec       q    Type
                         _______ _______ _______ _____ _____    ______ ____

>  <TORSDO>
F 17

$$$$
=
 OpenBabel11042416323D

 54 60  0  0  1  0  0  0  0  0999 V2000
  191.3290  171.5690  138.6140 C   0  0  0  0  0  0  0  0  0  0  0  0
  193.2940  172.7350  137.7970 C   0  0  0  0  0  3  0  0  0  0  0  0
  193.5390  170.9000  139.3670 C   0  0  0  0  0  0  0  0  0  0  0  0
  192.1510  170.7390  139.3870 C   0  0  0  0  0  3  0  0  0  0  0  0
  191.9070  172.5650  137.8080 C   0  0  0  0  0  0  0  0  0  0  0  0
  195.4900  172.0940  138.5480 O   0  0  0  0  0  1  0  0  0  0  0  0
  194.1130  171.9100  138.5750 C   0  0  0  0  0  0  0  0  0  0  0  0
  191.1140  173.3830  137.0120 O   0  0  0  0  0  1  0  0  0  0  0  0
  194.3910  169.9950  140.1880 C   0  0  0  0  0  2  0  0  0  0  0  0
  193.5530  169.0550  140.9160 N   0  0  0  0  0  2  0  0  0  0  0  0
  194.9100  170.3340  142.4990 C   0  0  0  0  0  2  0  0  0  0  0  0
  194.5760  171.1870  143.6450 N   0  0  0  0  0  0  0  0  0  0  0  0
  193.0720  169.3830  144.4210 C   0  0  0  0  0  2  0  0  0  0  0  0
  192.7200  169.4800  143.0580 O   0  0  0  0  0  0  0  0  0  0  0  0
  193.8840  169.2030  142.3220 C   0  0  1  0  0  3  0  0  0  0  0  0
  194.2100  170.3540  144.7920 C   0  0  0  0  0  2  0  0  0  0  0  0
  196.0030  172.0810  144.0610 S   0  0  0  0  0  0  0  0  0  0  0  0
  197.2010  171.4270  143.4320 O   0  0  0  0  0  0  0  0  0  0  0  0
  196.1800  172.1010  145.5560 O   0  0  0  0  0  0  0  0  0  0  0  0
  195.8790  173.7610  143.4670 C   0  0  0  0  0  2  0  0  0  0  0  0
  194.0340  176.7560  146.5570 C   0  0  0  0  0  1  0  0  0  0  0  0
  196.2370  176.0140  143.9930 C   0  0  0  0  0  2  0  0  0  0  0  0
  193.2390  176.4770  144.3280 O   0  0  0  0  0  1  0  0  0  0  0  0
  194.3480  176.2740  145.1550 C   0  0  2  0  0  0  0  0  0  0  0  0
  194.7020  174.8090  145.1830 C   0  0  0  0  0  2  0  0  0  0  0  0
  195.4470  176.9780  144.6510 O   0  0  0  0  0  0  0  0  0  0  0  0
  196.0070  174.6990  144.5740 N   0  0  0  0  0  0  0  0  0  0  0  0
  189.5530  171.3040  138.6400 S   0  0  0  0  0  0  0  0  0  0  0  0
  188.5620  173.7600  139.5170 C   0  0  0  0  0  0  0  0  0  0  0  0
  189.2560  172.5880  139.8580 C   0  0  0  0  0  0  0  0  0  0  0  0
  189.4470  173.3780  142.1540 C   0  0  0  0  0  0  0  0  0  0  0  0
  189.6900  172.4020  141.1730 C   0  0  0  0  0  3  0  0  0  0  0  0
  188.3170  174.7340  140.4900 C   0  0  0  0  0  3  0  0  0  0  0  0
  188.7550  174.5500  141.8110 C   0  0  0  0  0  0  0  0  0  0  0  0
  188.0980  173.9580  138.2220 O   0  0  0  0  0  1  0  0  0  0  0  0
  188.5140  175.5140  142.7960 O   0  0  0  0  0  0  0  0  0  0  0  0
  187.8980  176.7670  142.5170 C   0  0  0  0  0  2  0  0  0  0  0  0
  187.9490  177.6490  143.7480 C   0  0  0  0  0  2  0  0  0  0  0  0
  186.6690  178.3260  143.9220 N   0  0  0  0  0  0  0  0  0  0  0  0
  185.6330  177.3240  143.5830 C   0  0  1  0  0  3  0  0  0  0  0  0
  186.4840  176.6830  145.9070 C   0  0  0  0  0  2  0  0  0  0  0  0
  185.8690  178.1130  147.8060 N   0  0  0  0  0  2  0  0  0  0  0  0
  185.8250  177.7170  144.9840 C   0  0  0  0  0  0  0  0  0  0  0  0
  186.9680  177.3800  147.1790 C   0  0  0  0  0  2  0  0  0  0  0  0
  184.8880  178.7350  145.6400 C   0  0  0  0  0  2  0  0  0  0  0  0
  185.5190  179.2400  146.9410 C   0  0  0  0  0  2  0  0  0  0  0  0
  184.4700  178.0180  142.8890 C   0  0  0  0  0  2  0  0  0  0  0  0
  184.7990  178.2590  141.5550 O   0  0  0  0  0  1  0  0  0  0  0  0
  189.8800  173.2040  143.4730 O   0  0  0  0  0  0  0  0  0  0  0  0
  191.1610  173.6270  143.9280 C   0  0  0  0  0  2  0  0  0  0  0  0
  191.1380  173.8350  145.4370 C   0  0  0  0  0  2  0  0  0  0  0  0
  189.2590  174.4860  146.9020 C   0  0  0  0  0  2  0  0  0  0  0  0
  190.4450  175.3660  147.2440 C   0  0  0  0  0  2  0  0  0  0  0  0
  190.1930  174.9640  145.8040 C   0  0  0  0  0  3  0  0  0  0  0  0
  1 28  1  0  0  0  0
  1  4  1  0  0  0  0
  2  5  1  0  0  0  0
  2  7  2  0  0  0  0
  3  4  2  0  0  0  0
  3  9  1  0  0  0  0
  5  1  2  0  0  0  0
  6  7  1  0  0  0  0
  7  3  1  0  0  0  0
  8  5  1  0  0  0  0
  9 10  1  0  0  0  0
 11 12  1  0  0  0  0
 12 17  1  0  0  0  0
 12 16  1  0  0  0  0
 13 16  1  0  0  0  0
 14 13  1  0  0  0  0
 15 10  1  6  0  0  0
 15 11  1  0  0  0  0
 15 14  1  0  0  0  0
 17 19  2  0  0  0  0
 18 17  2  0  0  0  0
 20 17  1  0  0  0  0
 20 27  1  0  0  0  0
 22 27  1  0  0  0  0
 22 26  1  0  0  0  0
 23 24  1  0  0  0  0
 24 25  1  0  0  0  0
 24 21  1  1  0  0  0
 26 24  1  0  0  0  0
 27 25  1  0  0  0  0
 28 30  1  0  0  0  0
 29 30  2  0  0  0  0
 29 33  1  0  0  0  0
 30 32  1  0  0  0  0
 31 49  1  0  0  0  0
 32 31  2  0  0  0  0
 33 34  2  0  0  0  0
 34 31  1  0  0  0  0
 34 36  1  0  0  0  0
 35 29  1  0  0  0  0
 37 36  1  0  0  0  0
 37 38  1  0  0  0  0
 38 39  1  0  0  0  0
 39 43  1  0  0  0  0
 40 47  1  6  0  0  0
 40 39  1  0  0  0  0
 40 43  1  0  0  0  0
 41 44  1  0  0  0  0
 43 45  1  0  0  0  0
 43 41  1  0  0  0  0
 44 42  1  0  0  0  0
 45 46  1  0  0  0  0
 46 42  1  0  0  0  0
 48 47  1  0  0  0  0
 49 50  1  0  0  0  0
 50 51  1  0  0  0  0
 51 54  1  0  0  0  0
 52 53  1  0  0  0  0
 54 52  1  0  0  0  0
 54 53  1  0  0  0  0
M  END
>  <MODEL>
4

>  <REMARK>
 VINA RESULT:      -6.4      2.154      4.472
  Name = 
  17 active torsions:
  status: ('A' for Active; 'I' for Inactive)
    1  A    between atoms: C_1  and  O_6
    2  A    between atoms: C_1  and  C_24
    3  A    between atoms: C_3  and  C_27
    4  A    between atoms: C_5  and  S_45
    5  A    between atoms: O_6  and  C_39
    6  A    between atoms: C_8  and  C_18
    7  A    between atoms: C_8  and  O_20
    8  A    between atoms: C_9  and  S_45
    9  A    between atoms: C_10  and  O_20
   10  A    between atoms: N_11  and  C_24
   11  A    between atoms: C_14  and  C_23
   12  A    between atoms: N_15  and  S_26
   13  A    between atoms: C_18  and  C_22
   14  A    between atoms: N_19  and  C_23
   15  A    between atoms: N_19  and  C_50
   16  A    between atoms: S_26  and  C_53
   17  A    between atoms: N_47  and  C_53
                            x       y       z     vdW  Elec       q    Type
                         _______ _______ _______ _____ _____    ______ ____

>  <TORSDO>
F 17

$$$$
=
 OpenBabel11042416323D

 54 60  0  0  1  0  0  0  0  0999 V2000
  194.8540  175.9930  142.5690 C   0  0  0  0  0  0  0  0  0  0  0  0
  195.6970  176.8050  144.6950 C   0  0  0  0  0  3  0  0  0  0  0  0
  193.4250  175.9660  144.5330 C   0  0  0  0  0  0  0  0  0  0  0  0
  193.6230  175.7080  143.1730 C   0  0  0  0  0  3  0  0  0  0  0  0
  195.8980  176.5350  143.3380 C   0  0  0  0  0  0  0  0  0  0  0  0
  194.2850  176.8010  146.6460 O   0  0  0  0  0  1  0  0  0  0  0  0
  194.4650  176.5270  145.2950 C   0  0  0  0  0  0  0  0  0  0  0  0
  197.1360  176.8010  142.7670 O   0  0  0  0  0  1  0  0  0  0  0  0
  192.1100  175.6420  145.1540 C   0  0  0  0  0  2  0  0  0  0  0  0
  191.3410  176.8610  145.3450 N   0  0  0  0  0  2  0  0  0  0  0  0
  189.0040  177.3070  145.9140 C   0  0  0  0  0  2  0  0  0  0  0  0
  187.8180  176.4490  146.0240 N   0  0  0  0  0  0  0  0  0  0  0  0
  189.1890  174.9000  147.3810 C   0  0  0  0  0  2  0  0  0  0  0  0
  190.0470  175.1600  146.2920 O   0  0  0  0  0  0  0  0  0  0  0  0
  190.2850  176.5450  146.2910 C   0  0  1  0  0  3  0  0  0  0  0  0
  187.8700  175.6920  147.2760 C   0  0  0  0  0  2  0  0  0  0  0  0
  186.4300  177.4880  146.0800 S   0  0  0  0  0  0  0  0  0  0  0  0
  186.5030  178.3510  147.3080 O   0  0  0  0  0  0  0  0  0  0  0  0
  185.1720  176.6640  146.1310 O   0  0  0  0  0  0  0  0  0  0  0  0
  186.3810  178.5370  144.6340 C   0  0  0  0  0  2  0  0  0  0  0  0
  187.4530  176.3160  140.6550 C   0  0  0  0  0  1  0  0  0  0  0  0
  185.6750  178.7120  142.4090 C   0  0  0  0  0  2  0  0  0  0  0  0
  188.5290  178.3040  141.4070 O   0  0  0  0  0  1  0  0  0  0  0  0
  187.3680  177.5380  141.5460 C   0  0  2  0  0  0  0  0  0  0  0  0
  187.2060  177.1140  142.9840 C   0  0  0  0  0  2  0  0  0  0  0  0
  186.2520  178.3050  141.1890 O   0  0  0  0  0  0  0  0  0  0  0  0
  186.0050  177.7610  143.4610 N   0  0  0  0  0  0  0  0  0  0  0  0
  195.0780  175.6110  140.8290 S   0  0  0  0  0  0  0  0  0  0  0  0
  196.6940  173.3520  141.0970 C   0  0  0  0  0  0  0  0  0  0  0  0
  195.3890  173.8680  141.1260 C   0  0  0  0  0  0  0  0  0  0  0  0
  194.5360  171.6580  141.6920 C   0  0  0  0  0  0  0  0  0  0  0  0
  194.3190  173.0210  141.4280 C   0  0  0  0  0  3  0  0  0  0  0  0
  196.9150  171.9970  141.3610 C   0  0  0  0  0  3  0  0  0  0  0  0
  195.8410  171.1440  141.6610 C   0  0  0  0  0  0  0  0  0  0  0  0
  197.7770  174.1790  140.8240 O   0  0  0  0  0  1  0  0  0  0  0  0
  196.0470  169.7860  141.9310 O   0  0  0  0  0  0  0  0  0  0  0  0
  197.2980  169.2660  142.3690 C   0  0  0  0  0  2  0  0  0  0  0  0
  197.4790  169.5440  143.8470 C   0  0  0  0  0  2  0  0  0  0  0  0
  196.1870  169.4900  144.5200 N   0  0  0  0  0  0  0  0  0  0  0  0
  196.4760  169.0990  145.9180 C   0  0  1  0  0  3  0  0  0  0  0  0
  197.1430  171.5600  145.7350 C   0  0  0  0  0  2  0  0  0  0  0  0
  195.3600  173.2370  145.5440 N   0  0  0  0  0  2  0  0  0  0  0  0
  196.0610  170.4760  145.6260 C   0  0  0  0  0  0  0  0  0  0  0  0
  196.6620  172.8250  145.0220 C   0  0  0  0  0  2  0  0  0  0  0  0
  194.6130  170.9160  145.8540 C   0  0  0  0  0  2  0  0  0  0  0  0
  194.3670  172.2440  145.1330 C   0  0  0  0  0  2  0  0  0  0  0  0
  195.3580  168.2020  146.4310 C   0  0  0  0  0  2  0  0  0  0  0  0
  195.2460  168.3390  147.8130 O   0  0  0  0  0  1  0  0  0  0  0  0
  193.4720  170.7990  141.9920 O   0  0  0  0  0  0  0  0  0  0  0  0
  192.1080  171.1810  141.8540 C   0  0  0  0  0  2  0  0  0  0  0  0
  191.6170  171.8460  143.1330 C   0  0  0  0  0  2  0  0  0  0  0  0
  189.6550  172.2220  144.5860 C   0  0  0  0  0  2  0  0  0  0  0  0
  189.6240  173.2590  143.4810 C   0  0  0  0  0  2  0  0  0  0  0  0
  190.1000  171.8500  143.1820 C   0  0  0  0  0  3  0  0  0  0  0  0
  1  4  2  0  0  0  0
  1  5  1  0  0  0  0
  2  7  1  0  0  0  0
  3  9  1  0  0  0  0
  3  7  2  0  0  0  0
  4  3  1  0  0  0  0
  5  2  2  0  0  0  0
  7  6  1  0  0  0  0
  8  5  1  0  0  0  0
  9 10  1  0  0  0  0
 11 12  1  0  0  0  0
 11 15  1  0  0  0  0
 12 17  1  0  0  0  0
 12 16  1  0  0  0  0
 14 13  1  0  0  0  0
 15 10  1  6  0  0  0
 15 14  1  0  0  0  0
 16 13  1  0  0  0  0
 17 19  2  0  0  0  0
 17 18  2  0  0  0  0
 20 17  1  0  0  0  0
 22 27  1  0  0  0  0
 23 24  1  0  0  0  0
 24 21  1  6  0  0  0
 24 25  1  0  0  0  0
 25 27  1  0  0  0  0
 26 24  1  0  0  0  0
 26 22  1  0  0  0  0
 27 20  1  0  0  0  0
 28 30  1  0  0  0  0
 28  1  1  0  0  0  0
 29 30  2  0  0  0  0
 29 33  1  0  0  0  0
 30 32  1  0  0  0  0
 31 49  1  0  0  0  0
 32 31  2  0  0  0  0
 33 34  2  0  0  0  0
 34 31  1  0  0  0  0
 34 36  1  0  0  0  0
 35 29  1  0  0  0  0
 36 37  1  0  0  0  0
 37 38  1  0  0  0  0
 38 39  1  0  0  0  0
 39 43  1  0  0  0  0
 39 40  1  0  0  0  0
 40 47  1  1  0  0  0
 43 41  1  0  0  0  0
 43 45  1  0  0  0  0
 43 40  1  0  0  0  0
 44 42  1  0  0  0  0
 44 41  1  0  0  0  0
 46 42  1  0  0  0  0
 46 45  1  0  0  0  0
 47 48  1  0  0  0  0
 50 49  1  0  0  0  0
 50 51  1  0  0  0  0
 51 54  1  0  0  0  0
 53 52  1  0  0  0  0
 54 53  1  0  0  0  0
 54 52  1  0  0  0  0
M  END
>  <MODEL>
5

>  <REMARK>
 VINA RESULT:      -6.3      3.473      9.104
  Name = 
  17 active torsions:
  status: ('A' for Active; 'I' for Inactive)
    1  A    between atoms: C_1  and  O_6
    2  A    between atoms: C_1  and  C_24
    3  A    between atoms: C_3  and  C_27
    4  A    between atoms: C_5  and  S_45
    5  A    between atoms: O_6  and  C_39
    6  A    between atoms: C_8  and  C_18
    7  A    between atoms: C_8  and  O_20
    8  A    between atoms: C_9  and  S_45
    9  A    between atoms: C_10  and  O_20
   10  A    between atoms: N_11  and  C_24
   11  A    between atoms: C_14  and  C_23
   12  A    between atoms: N_15  and  S_26
   13  A    between atoms: C_18  and  C_22
   14  A    between atoms: N_19  and  C_23
   15  A    between atoms: N_19  and  C_50
   16  A    between atoms: S_26  and  C_53
   17  A    between atoms: N_47  and  C_53
                            x       y       z     vdW  Elec       q    Type
                         _______ _______ _______ _____ _____    ______ ____

>  <TORSDO>
F 17

$$$$
=
 OpenBabel11042416323D

 54 60  0  0  1  0  0  0  0  0999 V2000
  191.1160  173.7020  136.7250 C   0  0  0  0  0  0  0  0  0  0  0  0
  192.3530  175.6270  135.9190 C   0  0  0  0  0  3  0  0  0  0  0  0
  193.5090  173.8560  137.1100 C   0  0  0  0  0  0  0  0  0  0  0  0
  192.3000  173.1680  137.2490 C   0  0  0  0  0  3  0  0  0  0  0  0
  191.1470  174.9330  136.0480 C   0  0  0  0  0  0  0  0  0  0  0  0
  194.7230  175.8020  136.3090 O   0  0  0  0  0  1  0  0  0  0  0  0
  193.5330  175.0970  136.4500 C   0  0  0  0  0  0  0  0  0  0  0  0
  189.9900  175.4690  135.4960 O   0  0  0  0  0  1  0  0  0  0  0  0
  194.7570  173.2600  137.6650 C   0  0  0  0  0  2  0  0  0  0  0  0
  194.7390  173.3460  139.1170 N   0  0  0  0  0  2  0  0  0  0  0  0
  195.6350  174.6160  141.0060 C   0  0  0  0  0  2  0  0  0  0  0  0
  196.9880  174.7890  141.5460 N   0  0  0  0  0  0  0  0  0  0  0  0
  197.7440  175.2380  139.2340 C   0  0  0  0  0  2  0  0  0  0  0  0
  196.9580  174.0810  139.0560 O   0  0  0  0  0  0  0  0  0  0  0  0
  195.6600  174.4080  139.4830 C   0  0  1  0  0  3  0  0  0  0  0  0
  197.7430  175.7150  140.7000 C   0  0  0  0  0  2  0  0  0  0  0  0
  196.8320  175.5020  143.1200 S   0  0  0  0  0  0  0  0  0  0  0  0
  197.5670  176.8120  143.1480 O   0  0  0  0  0  0  0  0  0  0  0  0
  197.4180  174.5860  144.1600 O   0  0  0  0  0  0  0  0  0  0  0  0
  195.1110  175.7920  143.5020 C   0  0  0  0  0  2  0  0  0  0  0  0
  192.1890  175.2900  147.1250 C   0  0  0  0  0  1  0  0  0  0  0  0
  194.9330  176.7690  145.6210 C   0  0  0  0  0  2  0  0  0  0  0  0
  191.8930  176.8860  145.3800 O   0  0  0  0  0  1  0  0  0  0  0  0
  192.8450  176.0790  146.0100 C   0  0  2  0  0  0  0  0  0  0  0  0
  193.4570  175.1350  145.0060 C   0  0  0  0  0  2  0  0  0  0  0  0
  193.8660  176.8780  146.5370 O   0  0  0  0  0  0  0  0  0  0  0  0
  194.8510  175.5040  144.9060 N   0  0  0  0  0  0  0  0  0  0  0  0
  189.5920  172.7670  136.8930 S   0  0  0  0  0  0  0  0  0  0  0  0
  188.1600  174.4200  138.6250 C   0  0  0  0  0  0  0  0  0  0  0  0
  189.1900  173.4760  138.4920 C   0  0  0  0  0  0  0  0  0  0  0  0
  189.5780  173.5710  140.8950 C   0  0  0  0  0  0  0  0  0  0  0  0
  189.8900  173.0530  139.6260 C   0  0  0  0  0  3  0  0  0  0  0  0
  187.8460  174.9360  139.8870 C   0  0  0  0  0  3  0  0  0  0  0  0
  188.5490  174.5160  141.0260 C   0  0  0  0  0  0  0  0  0  0  0  0
  187.4330  174.8370  137.5170 O   0  0  0  0  0  1  0  0  0  0  0  0
  188.2430  175.0210  142.2950 O   0  0  0  0  0  0  0  0  0  0  0  0
  188.1420  176.4150  142.5670 C   0  0  0  0  0  2  0  0  0  0  0  0
  186.7680  176.7300  143.1220 C   0  0  0  0  0  2  0  0  0  0  0  0
  186.7690  176.5570  144.5700 N   0  0  0  0  0  0  0  0  0  0  0  0
  187.8760  177.3990  145.0750 C   0  0  1  0  0  3  0  0  0  0  0  0
  185.9830  179.0160  144.4990 C   0  0  0  0  0  2  0  0  0  0  0  0
  184.0000  179.0480  145.9450 N   0  0  0  0  0  2  0  0  0  0  0  0
  186.4890  177.8150  145.3100 C   0  0  0  0  0  0  0  0  0  0  0  0
  184.4550  179.0550  144.5560 C   0  0  0  0  0  2  0  0  0  0  0  0
  185.8190  177.5600  146.6630 C   0  0  0  0  0  2  0  0  0  0  0  0
  184.3050  177.7380  146.5200 C   0  0  0  0  0  2  0  0  0  0  0  0
  188.5340  176.7060  146.2610 C   0  0  0  0  0  2  0  0  0  0  0  0
  188.9500  175.4300  145.8840 O   0  0  0  0  0  1  0  0  0  0  0  0
  190.2740  173.1580  142.0370 O   0  0  0  0  0  0  0  0  0  0  0  0
  189.9630  171.9600  142.7400 C   0  0  0  0  0  2  0  0  0  0  0  0
  191.1910  171.4600  143.4910 C   0  0  0  0  0  2  0  0  0  0  0  0
  193.5330  171.9660  142.8920 C   0  0  0  0  0  2  0  0  0  0  0  0
  193.4570  170.5050  143.2880 C   0  0  0  0  0  2  0  0  0  0  0  0
  192.3140  171.1410  142.5210 C   0  0  0  0  0  3  0  0  0  0  0  0
  1 28  1  0  0  0  0
  1  4  1  0  0  0  0
  2  5  1  0  0  0  0
  2  7  2  0  0  0  0
  3  4  2  0  0  0  0
  3  9  1  0  0  0  0
  5  1  2  0  0  0  0
  6  7  1  0  0  0  0
  7  3  1  0  0  0  0
  8  5  1  0  0  0  0
  9 10  1  0  0  0  0
 11 12  1  0  0  0  0
 12 17  1  0  0  0  0
 13 16  1  0  0  0  0
 14 13  1  0  0  0  0
 14 15  1  0  0  0  0
 15 10  1  1  0  0  0
 15 11  1  0  0  0  0
 16 12  1  0  0  0  0
 17 18  2  0  0  0  0
 17 20  1  0  0  0  0
 17 19  2  0  0  0  0
 20 27  1  0  0  0  0
 22 26  1  0  0  0  0
 23 24  1  0  0  0  0
 24 26  1  0  0  0  0
 24 21  1  1  0  0  0
 25 24  1  0  0  0  0
 27 25  1  0  0  0  0
 27 22  1  0  0  0  0
 28 30  1  0  0  0  0
 29 33  1  0  0  0  0
 30 29  2  0  0  0  0
 30 32  1  0  0  0  0
 31 34  1  0  0  0  0
 31 49  1  0  0  0  0
 32 31  2  0  0  0  0
 33 34  2  0  0  0  0
 34 36  1  0  0  0  0
 35 29  1  0  0  0  0
 36 37  1  0  0  0  0
 37 38  1  0  0  0  0
 38 39  1  0  0  0  0
 39 40  1  0  0  0  0
 39 43  1  0  0  0  0
 40 43  1  0  0  0  0
 40 47  1  1  0  0  0
 41 44  1  0  0  0  0
 41 43  1  0  0  0  0
 42 46  1  0  0  0  0
 43 45  1  0  0  0  0
 44 42  1  0  0  0  0
 46 45  1  0  0  0  0
 48 47  1  0  0  0  0
 49 50  1  0  0  0  0
 50 51  1  0  0  0  0
 52 53  1  0  0  0  0
 54 52  1  0  0  0  0
 54 53  1  0  0  0  0
 54 51  1  0  0  0  0
M  END
>  <MODEL>
6

>  <REMARK>
 VINA RESULT:      -6.2      2.241      4.003
  Name = 
  17 active torsions:
  status: ('A' for Active; 'I' for Inactive)
    1  A    between atoms: C_1  and  O_6
    2  A    between atoms: C_1  and  C_24
    3  A    between atoms: C_3  and  C_27
    4  A    between atoms: C_5  and  S_45
    5  A    between atoms: O_6  and  C_39
    6  A    between atoms: C_8  and  C_18
    7  A    between atoms: C_8  and  O_20
    8  A    between atoms: C_9  and  S_45
    9  A    between atoms: C_10  and  O_20
   10  A    between atoms: N_11  and  C_24
   11  A    between atoms: C_14  and  C_23
   12  A    between atoms: N_15  and  S_26
   13  A    between atoms: C_18  and  C_22
   14  A    between atoms: N_19  and  C_23
   15  A    between atoms: N_19  and  C_50
   16  A    between atoms: S_26  and  C_53
   17  A    between atoms: N_47  and  C_53
                            x       y       z     vdW  Elec       q    Type
                         _______ _______ _______ _____ _____    ______ ____

>  <TORSDO>
F 17

$$$$
=
 OpenBabel11042416323D

 54 60  0  0  1  0  0  0  0  0999 V2000
  192.1180  170.7330  140.5150 C   0  0  0  0  0  0  0  0  0  0  0  0
  192.9050  170.2960  138.2620 C   0  0  0  0  0  3  0  0  0  0  0  0
  193.8960  172.0870  139.5650 C   0  0  0  0  0  0  0  0  0  0  0  0
  193.0410  171.7810  140.6270 C   0  0  0  0  0  3  0  0  0  0  0  0
  192.0590  169.9820  139.3290 C   0  0  0  0  0  0  0  0  0  0  0  0
  194.6550  171.6420  137.3000 O   0  0  0  0  0  1  0  0  0  0  0  0
  193.8210  171.3470  138.3720 C   0  0  0  0  0  0  0  0  0  0  0  0
  191.1700  168.9210  139.2040 O   0  0  0  0  0  1  0  0  0  0  0  0
  194.8780  173.1980  139.7150 C   0  0  0  0  0  2  0  0  0  0  0  0
  194.2480  174.4620  139.3700 N   0  0  0  0  0  2  0  0  0  0  0  0
  194.0890  175.1260  141.7190 C   0  0  0  0  0  2  0  0  0  0  0  0
  195.0810  175.2550  142.7930 N   0  0  0  0  0  0  0  0  0  0  0  0
  196.4890  176.5220  141.2020 C   0  0  0  0  0  2  0  0  0  0  0  0
  196.1080  175.4110  140.4220 O   0  0  0  0  0  0  0  0  0  0  0  0
  194.7050  175.4370  140.3450 C   0  0  1  0  0  3  0  0  0  0  0  0
  195.8540  176.4850  142.6060 C   0  0  0  0  0  2  0  0  0  0  0  0
  194.2120  175.3870  144.2890 S   0  0  0  0  0  0  0  0  0  0  0  0
  192.8830  174.6980  144.1550 O   0  0  0  0  0  0  0  0  0  0  0  0
  193.9850  176.8360  144.6260 O   0  0  0  0  0  0  0  0  0  0  0  0
  195.1340  174.6190  145.6120 C   0  0  0  0  0  2  0  0  0  0  0  0
  196.1840  170.2510  144.2950 C   0  0  0  0  0  1  0  0  0  0  0  0
  196.7890  173.0730  146.2040 C   0  0  0  0  0  2  0  0  0  0  0  0
  194.7680  170.7880  146.1340 O   0  0  0  0  0  1  0  0  0  0  0  0
  195.7700  171.3010  145.3060 C   0  0  2  0  0  0  0  0  0  0  0  0
  195.2630  172.5280  144.5920 C   0  0  0  0  0  2  0  0  0  0  0  0
  196.8770  171.6720  146.0780 O   0  0  0  0  0  0  0  0  0  0  0  0
  196.0610  173.6320  145.0740 N   0  0  0  0  0  0  0  0  0  0  0  0
  191.0640  170.3490  141.9170 S   0  0  0  0  0  0  0  0  0  0  0  0
  190.0060  172.6760  143.0350 C   0  0  0  0  0  0  0  0  0  0  0  0
  190.2120  171.9280  141.8650 C   0  0  0  0  0  0  0  0  0  0  0  0
  189.1360  173.6810  140.5620 C   0  0  0  0  0  0  0  0  0  0  0  0
  189.7810  172.4350  140.6360 C   0  0  0  0  0  3  0  0  0  0  0  0
  189.3650  173.9180  142.9650 C   0  0  0  0  0  3  0  0  0  0  0  0
  188.9290  174.4270  141.7320 C   0  0  0  0  0  0  0  0  0  0  0  0
  190.4480  172.2050  144.2650 O   0  0  0  0  0  1  0  0  0  0  0  0
  188.2890  175.6690  141.6460 O   0  0  0  0  0  0  0  0  0  0  0  0
  187.0410  175.9400  142.2740 C   0  0  0  0  0  2  0  0  0  0  0  0
  187.1740  177.1450  143.1830 C   0  0  0  0  0  2  0  0  0  0  0  0
  187.1170  176.7190  144.5760 N   0  0  0  0  0  0  0  0  0  0  0  0
  188.1060  177.5530  145.2940 C   0  0  1  0  0  3  0  0  0  0  0  0
  186.0950  179.0740  144.8730 C   0  0  0  0  0  2  0  0  0  0  0  0
  184.0450  178.6730  146.1620 N   0  0  0  0  0  2  0  0  0  0  0  0
  186.6740  177.7980  145.5000 C   0  0  0  0  0  0  0  0  0  0  0  0
  184.5700  178.9660  144.8290 C   0  0  0  0  0  2  0  0  0  0  0  0
  185.9620  177.2490  146.7390 C   0  0  0  0  0  2  0  0  0  0  0  0
  184.4480  177.3140  146.5240 C   0  0  0  0  0  2  0  0  0  0  0  0
  188.7660  176.7230  146.3860 C   0  0  0  0  0  2  0  0  0  0  0  0
  189.6830  177.5090  147.0810 O   0  0  0  0  0  1  0  0  0  0  0  0
  188.6960  174.1980  139.3380 O   0  0  0  0  0  0  0  0  0  0  0  0
  188.2110  173.3760  138.2810 C   0  0  0  0  0  2  0  0  0  0  0  0
  189.2560  173.2730  137.1770 C   0  0  0  0  0  2  0  0  0  0  0  0
  189.4390  171.6510  135.3220 C   0  0  0  0  0  2  0  0  0  0  0  0
  190.7890  171.7370  136.0040 C   0  0  0  0  0  2  0  0  0  0  0  0
  189.5200  171.8190  136.8300 C   0  0  0  0  0  3  0  0  0  0  0  0
  1  4  1  0  0  0  0
  1 28  1  0  0  0  0
  2  7  2  0  0  0  0
  2  5  1  0  0  0  0
  3  9  1  0  0  0  0
  3  4  2  0  0  0  0
  5  1  2  0  0  0  0
  6  7  1  0  0  0  0
  7  3  1  0  0  0  0
  8  5  1  0  0  0  0
 10  9  1  0  0  0  0
 11 12  1  0  0  0  0
 12 17  1  0  0  0  0
 13 16  1  0  0  0  0
 14 13  1  0  0  0  0
 15 10  1  6  0  0  0
 15 14  1  0  0  0  0
 15 11  1  0  0  0  0
 16 12  1  0  0  0  0
 17 19  2  0  0  0  0
 17 20  1  0  0  0  0
 18 17  2  0  0  0  0
 24 21  1  6  0  0  0
 24 26  1  0  0  0  0
 24 23  1  0  0  0  0
 25 27  1  0  0  0  0
 25 24  1  0  0  0  0
 26 22  1  0  0  0  0
 27 20  1  0  0  0  0
 27 22  1  0  0  0  0
 29 35  1  0  0  0  0
 30 28  1  0  0  0  0
 30 29  2  0  0  0  0
 31 32  2  0  0  0  0
 31 34  1  0  0  0  0
 32 30  1  0  0  0  0
 33 29  1  0  0  0  0
 34 33  2  0  0  0  0
 36 34  1  0  0  0  0
 36 37  1  0  0  0  0
 37 38  1  0  0  0  0
 38 39  1  0  0  0  0
 39 40  1  0  0  0  0
 39 43  1  0  0  0  0
 40 43  1  0  0  0  0
 40 47  1  1  0  0  0
 41 43  1  0  0  0  0
 42 46  1  0  0  0  0
 43 45  1  0  0  0  0
 44 41  1  0  0  0  0
 44 42  1  0  0  0  0
 46 45  1  0  0  0  0
 47 48  1  0  0  0  0
 49 31  1  0  0  0  0
 50 49  1  0  0  0  0
 51 50  1  0  0  0  0
 52 53  1  0  0  0  0
 52 54  1  0  0  0  0
 53 54  1  0  0  0  0
 54 51  1  0  0  0  0
M  END
>  <MODEL>
7

>  <REMARK>
 VINA RESULT:      -6.1      1.769      3.128
  Name = 
  17 active torsions:
  status: ('A' for Active; 'I' for Inactive)
    1  A    between atoms: C_1  and  O_6
    2  A    between atoms: C_1  and  C_24
    3  A    between atoms: C_3  and  C_27
    4  A    between atoms: C_5  and  S_45
    5  A    between atoms: O_6  and  C_39
    6  A    between atoms: C_8  and  C_18
    7  A    between atoms: C_8  and  O_20
    8  A    between atoms: C_9  and  S_45
    9  A    between atoms: C_10  and  O_20
   10  A    between atoms: N_11  and  C_24
   11  A    between atoms: C_14  and  C_23
   12  A    between atoms: N_15  and  S_26
   13  A    between atoms: C_18  and  C_22
   14  A    between atoms: N_19  and  C_23
   15  A    between atoms: N_19  and  C_50
   16  A    between atoms: S_26  and  C_53
   17  A    between atoms: N_47  and  C_53
                            x       y       z     vdW  Elec       q    Type
                         _______ _______ _______ _____ _____    ______ ____

>  <TORSDO>
F 17

$$$$
=
 OpenBabel11042416323D

 54 60  0  0  1  0  0  0  0  0999 V2000
  192.3410  172.5780  138.0770 C   0  0  0  0  0  0  0  0  0  0  0  0
  194.6180  171.7420  138.0070 C   0  0  0  0  0  3  0  0  0  0  0  0
  194.1500  173.9000  139.0130 C   0  0  0  0  0  0  0  0  0  0  0  0
  192.7930  173.7360  138.7220 C   0  0  0  0  0  3  0  0  0  0  0  0
  193.2580  171.5730  137.7280 C   0  0  0  0  0  0  0  0  0  0  0  0
  196.4240  173.0500  138.9150 O   0  0  0  0  0  1  0  0  0  0  0  0
  195.0680  172.9010  138.6440 C   0  0  0  0  0  0  0  0  0  0  0  0
  192.8300  170.4030  137.1110 O   0  0  0  0  0  1  0  0  0  0  0  0
  194.6040  175.1360  139.7120 C   0  0  0  0  0  2  0  0  0  0  0  0
  193.8110  175.3400  140.9140 N   0  0  0  0  0  2  0  0  0  0  0  0
  194.6660  174.9550  143.1730 C   0  0  0  0  0  2  0  0  0  0  0  0
  196.0090  174.7030  143.7070 N   0  0  0  0  0  0  0  0  0  0  0  0
  196.7950  176.6210  142.3560 C   0  0  0  0  0  2  0  0  0  0  0  0
  196.0230  175.9070  141.4150 O   0  0  0  0  0  0  0  0  0  0  0  0
  194.7160  175.8540  141.9280 C   0  0  1  0  0  3  0  0  0  0  0  0
  196.7680  175.9550  143.7460 C   0  0  0  0  0  2  0  0  0  0  0  0
  195.8230  174.1340  145.3350 S   0  0  0  0  0  0  0  0  0  0  0  0
  195.3240  175.2570  146.2000 O   0  0  0  0  0  0  0  0  0  0  0  0
  197.1460  173.6530  145.8670 O   0  0  0  0  0  0  0  0  0  0  0  0
  194.6490  172.7900  145.3930 C   0  0  0  0  0  2  0  0  0  0  0  0
  195.4200  168.6420  143.3630 C   0  0  0  0  0  1  0  0  0  0  0  0
  194.5750  170.5640  146.1150 C   0  0  0  0  0  2  0  0  0  0  0  0
  193.2840  169.6900  143.4910 O   0  0  0  0  0  1  0  0  0  0  0  0
  194.5570  169.6670  144.0690 C   0  0  2  0  0  0  0  0  0  0  0  0
  195.1900  171.0310  143.9630 C   0  0  0  0  0  2  0  0  0  0  0  0
  194.4520  169.3400  145.4260 O   0  0  0  0  0  0  0  0  0  0  0  0
  195.3420  171.5110  145.3170 N   0  0  0  0  0  0  0  0  0  0  0  0
  190.5840  172.3900  137.7570 S   0  0  0  0  0  0  0  0  0  0  0  0
  190.2840  171.5430  140.3980 C   0  0  0  0  0  0  0  0  0  0  0  0
  190.1240  172.5930  139.4800 C   0  0  0  0  0  0  0  0  0  0  0  0
  189.2910  174.0210  141.2680 C   0  0  0  0  0  0  0  0  0  0  0  0
  189.6330  173.8260  139.9200 C   0  0  0  0  0  3  0  0  0  0  0  0
  189.9460  171.7340  141.7420 C   0  0  0  0  0  3  0  0  0  0  0  0
  189.4510  172.9700  142.1850 C   0  0  0  0  0  0  0  0  0  0  0  0
  190.7940  170.3160  139.9910 O   0  0  0  0  0  1  0  0  0  0  0  0
  189.1110  173.1770  143.5270 O   0  0  0  0  0  0  0  0  0  0  0  0
  190.0130  172.9230  144.6000 C   0  0  0  0  0  2  0  0  0  0  0  0
  190.3330  174.2190  145.3170 C   0  0  0  0  0  2  0  0  0  0  0  0
  189.3780  175.2480  144.9240 N   0  0  0  0  0  0  0  0  0  0  0  0
  188.9980  175.9430  146.1750 C   0  0  1  0  0  3  0  0  0  0  0  0
  191.3330  176.8010  145.5870 C   0  0  0  0  0  2  0  0  0  0  0  0
  191.5670  178.3130  143.6680 N   0  0  0  0  0  2  0  0  0  0  0  0
  189.8570  176.6280  145.2020 C   0  0  0  0  0  0  0  0  0  0  0  0
  192.1430  177.1470  144.3370 C   0  0  0  0  0  2  0  0  0  0  0  0
  189.2680  177.6570  144.2330 C   0  0  0  0  0  2  0  0  0  0  0  0
  190.2720  177.9270  143.1090 C   0  0  0  0  0  2  0  0  0  0  0  0
  187.5290  176.3390  146.1030 C   0  0  0  0  0  2  0  0  0  0  0  0
  186.9930  176.3740  147.3900 O   0  0  0  0  0  1  0  0  0  0  0  0
  188.7960  175.2500  141.7200 O   0  0  0  0  0  0  0  0  0  0  0  0
  187.4090  175.5730  141.7150 C   0  0  0  0  0  2  0  0  0  0  0  0
  187.1650  176.8190  140.8750 C   0  0  0  0  0  2  0  0  0  0  0  0
  185.2120  178.2500  141.3690 C   0  0  0  0  0  2  0  0  0  0  0  0
  185.5220  177.4360  142.6090 C   0  0  0  0  0  2  0  0  0  0  0  0
  186.6540  177.9540  141.7430 C   0  0  0  0  0  3  0  0  0  0  0  0
  1  4  1  0  0  0  0
  2  7  2  0  0  0  0
  3  9  1  0  0  0  0
  4  3  2  0  0  0  0
  5  2  1  0  0  0  0
  5  1  2  0  0  0  0
  7  6  1  0  0  0  0
  7  3  1  0  0  0  0
  8  5  1  0  0  0  0
  9 10  1  0  0  0  0
 11 12  1  0  0  0  0
 12 16  1  0  0  0  0
 12 17  1  0  0  0  0
 13 16  1  0  0  0  0
 14 15  1  0  0  0  0
 14 13  1  0  0  0  0
 15 10  1  6  0  0  0
 15 11  1  0  0  0  0
 17 20  1  0  0  0  0
 17 19  2  0  0  0  0
 17 18  2  0  0  0  0
 23 24  1  0  0  0  0
 24 21  1  6  0  0  0
 24 26  1  0  0  0  0
 25 24  1  0  0  0  0
 25 27  1  0  0  0  0
 26 22  1  0  0  0  0
 27 20  1  0  0  0  0
 27 22  1  0  0  0  0
 28  1  1  0  0  0  0
 28 30  1  0  0  0  0
 29 33  1  0  0  0  0
 30 32  1  0  0  0  0
 30 29  2  0  0  0  0
 31 49  1  0  0  0  0
 31 34  1  0  0  0  0
 32 31  2  0  0  0  0
 33 34  2  0  0  0  0
 34 36  1  0  0  0  0
 35 29  1  0  0  0  0
 36 37  1  0  0  0  0
 37 38  1  0  0  0  0
 39 43  1  0  0  0  0
 39 38  1  0  0  0  0
 39 40  1  0  0  0  0
 40 47  1  6  0  0  0
 42 44  1  0  0  0  0
 43 41  1  0  0  0  0
 43 40  1  0  0  0  0
 44 41  1  0  0  0  0
 45 43  1  0  0  0  0
 46 42  1  0  0  0  0
 46 45  1  0  0  0  0
 47 48  1  0  0  0  0
 50 49  1  0  0  0  0
 51 50  1  0  0  0  0
 51 54  1  0  0  0  0
 52 54  1  0  0  0  0
 52 53  1  0  0  0  0
 54 53  1  0  0  0  0
M  END
>  <MODEL>
8

>  <REMARK>
 VINA RESULT:      -6.0      2.356      4.633
  Name = 
  17 active torsions:
  status: ('A' for Active; 'I' for Inactive)
    1  A    between atoms: C_1  and  O_6
    2  A    between atoms: C_1  and  C_24
    3  A    between atoms: C_3  and  C_27
    4  A    between atoms: C_5  and  S_45
    5  A    between atoms: O_6  and  C_39
    6  A    between atoms: C_8  and  C_18
    7  A    between atoms: C_8  and  O_20
    8  A    between atoms: C_9  and  S_45
    9  A    between atoms: C_10  and  O_20
   10  A    between atoms: N_11  and  C_24
   11  A    between atoms: C_14  and  C_23
   12  A    between atoms: N_15  and  S_26
   13  A    between atoms: C_18  and  C_22
   14  A    between atoms: N_19  and  C_23
   15  A    between atoms: N_19  and  C_50
   16  A    between atoms: S_26  and  C_53
   17  A    between atoms: N_47  and  C_53
                            x       y       z     vdW  Elec       q    Type
                         _______ _______ _______ _____ _____    ______ ____

>  <TORSDO>
F 17

$$$$
=
 OpenBabel11042416323D

 54 60  0  0  1  0  0  0  0  0999 V2000
  196.1130  173.8280  143.8800 C   0  0  0  0  0  0  0  0  0  0  0  0
  196.6570  171.9430  142.4530 C   0  0  0  0  0  3  0  0  0  0  0  0
  196.5420  174.1780  141.5150 C   0  0  0  0  0  0  0  0  0  0  0  0
  196.2170  174.6850  142.7770 C   0  0  0  0  0  3  0  0  0  0  0  0
  196.3450  172.4520  143.7170 C   0  0  0  0  0  0  0  0  0  0  0  0
  197.0670  172.2720  140.1030 O   0  0  0  0  0  1  0  0  0  0  0  0
  196.7530  172.7980  141.3520 C   0  0  0  0  0  0  0  0  0  0  0  0
  196.2740  171.5860  144.8020 O   0  0  0  0  0  1  0  0  0  0  0  0
  196.6590  175.1130  140.3610 C   0  0  0  0  0  2  0  0  0  0  0  0
  195.3440  175.6180  140.0010 N   0  0  0  0  0  2  0  0  0  0  0  0
  193.3910  174.2150  139.5500 C   0  0  0  0  0  2  0  0  0  0  0  0
  192.4200  174.1730  138.4510 N   0  0  0  0  0  0  0  0  0  0  0  0
  194.3380  174.2290  136.8890 C   0  0  0  0  0  2  0  0  0  0  0  0
  194.6740  175.2610  137.7900 O   0  0  0  0  0  0  0  0  0  0  0  0
  194.7750  174.6690  139.0600 C   0  0  1  0  0  3  0  0  0  0  0  0
  193.0240  173.5270  137.2830 C   0  0  0  0  0  2  0  0  0  0  0  0
  191.0840  173.1980  138.9750 S   0  0  0  0  0  0  0  0  0  0  0  0
  190.0150  173.2110  137.9200 O   0  0  0  0  0  0  0  0  0  0  0  0
  190.5190  173.7470  140.2570 O   0  0  0  0  0  0  0  0  0  0  0  0
  191.6130  171.5140  139.2460 C   0  0  0  0  0  2  0  0  0  0  0  0
  193.3770  169.5490  143.1120 C   0  0  0  0  0  1  0  0  0  0  0  0
  190.8590  169.8980  140.7630 C   0  0  0  0  0  2  0  0  0  0  0  0
  193.6430  168.6560  140.9190 O   0  0  0  0  0  1  0  0  0  0  0  0
  192.8550  169.5160  141.6900 C   0  0  2  0  0  0  0  0  0  0  0  0
  192.8850  170.9030  141.1000 C   0  0  0  0  0  2  0  0  0  0  0  0
  191.5280  169.0700  141.6870 O   0  0  0  0  0  0  0  0  0  0  0  0
  191.5370  171.1830  140.6630 N   0  0  0  0  0  0  0  0  0  0  0  0
  195.7310  174.5260  145.4900 S   0  0  0  0  0  0  0  0  0  0  0  0
  193.9660  176.6210  144.9600 C   0  0  0  0  0  0  0  0  0  0  0  0
  194.1720  175.2320  144.9500 C   0  0  0  0  0  0  0  0  0  0  0  0
  191.9430  174.9150  144.0230 C   0  0  0  0  0  0  0  0  0  0  0  0
  193.1630  174.3880  144.4780 C   0  0  0  0  0  3  0  0  0  0  0  0
  192.7530  177.1490  144.5060 C   0  0  0  0  0  3  0  0  0  0  0  0
  191.7380  176.3040  144.0350 C   0  0  0  0  0  0  0  0  0  0  0  0
  194.9630  177.4830  145.4010 O   0  0  0  0  0  1  0  0  0  0  0  0
  190.5200  176.8180  143.5750 O   0  0  0  0  0  0  0  0  0  0  0  0
  189.9770  178.0490  144.0400 C   0  0  0  0  0  2  0  0  0  0  0  0
  188.6500  177.7960  144.7280 C   0  0  0  0  0  2  0  0  0  0  0  0
  187.5640  177.9220  143.7640 N   0  0  0  0  0  0  0  0  0  0  0  0
  187.1050  176.5420  143.4910 C   0  0  1  0  0  3  0  0  0  0  0  0
  186.1640  177.1440  145.7910 C   0  0  0  0  0  2  0  0  0  0  0  0
  184.3300  178.7730  145.9070 N   0  0  0  0  0  2  0  0  0  0  0  0
  186.2580  177.4390  144.2870 C   0  0  0  0  0  0  0  0  0  0  0  0
  185.6010  178.3700  146.5100 C   0  0  0  0  0  2  0  0  0  0  0  0
  185.0700  178.1590  143.6450 C   0  0  0  0  0  2  0  0  0  0  0  0
  184.6040  179.2900  144.5660 C   0  0  0  0  0  2  0  0  0  0  0  0
  186.6970  176.4270  142.0290 C   0  0  0  0  0  2  0  0  0  0  0  0
  187.8010  176.0510  141.2650 O   0  0  0  0  0  1  0  0  0  0  0  0
  190.9230  174.0800  143.5510 O   0  0  0  0  0  0  0  0  0  0  0  0
  190.3240  173.0660  144.3490 C   0  0  0  0  0  2  0  0  0  0  0  0
  190.3470  173.4730  145.8170 C   0  0  0  0  0  2  0  0  0  0  0  0
  188.9310  174.5410  147.5360 C   0  0  0  0  0  2  0  0  0  0  0  0
  189.9490  175.5620  147.0690 C   0  0  0  0  0  2  0  0  0  0  0  0
  189.3480  174.5850  146.0770 C   0  0  0  0  0  3  0  0  0  0  0  0
  1 28  1  0  0  0  0
  2  5  2  0  0  0  0
  3  4  1  0  0  0  0
  4  1  2  0  0  0  0
  5  1  1  0  0  0  0
  5  8  1  0  0  0  0
  6  7  1  0  0  0  0
  7  3  2  0  0  0  0
  7  2  1  0  0  0  0
  9  3  1  0  0  0  0
 10  9  1  0  0  0  0
 12 17  1  0  0  0  0
 12 11  1  0  0  0  0
 13 16  1  0  0  0  0
 13 14  1  0  0  0  0
 14 15  1  0  0  0  0
 15 11  1  0  0  0  0
 15 10  1  1  0  0  0
 16 12  1  0  0  0  0
 17 20  1  0  0  0  0
 17 19  2  0  0  0  0
 18 17  2  0  0  0  0
 20 27  1  0  0  0  0
 22 26  1  0  0  0  0
 23 24  1  0  0  0  0
 24 21  1  1  0  0  0
 25 24  1  0  0  0  0
 26 24  1  0  0  0  0
 27 22  1  0  0  0  0
 27 25  1  0  0  0  0
 29 35  1  0  0  0  0
 30 29  1  0  0  0  0
 30 28  1  0  0  0  0
 31 34  2  0  0  0  0
 31 32  1  0  0  0  0
 32 30  2  0  0  0  0
 33 29  2  0  0  0  0
 34 33  1  0  0  0  0
 36 34  1  0  0  0  0
 36 37  1  0  0  0  0
 37 38  1  0  0  0  0
 39 43  1  0  0  0  0
 39 38  1  0  0  0  0
 40 47  1  6  0  0  0
 40 39  1  0  0  0  0
 40 43  1  0  0  0  0
 41 44  1  0  0  0  0
 42 44  1  0  0  0  0
 43 41  1  0  0  0  0
 45 43  1  0  0  0  0
 45 46  1  0  0  0  0
 46 42  1  0  0  0  0
 48 47  1  0  0  0  0
 49 31  1  0  0  0  0
 49 50  1  0  0  0  0
 50 51  1  0  0  0  0
 51 54  1  0  0  0  0
 53 52  1  0  0  0  0
 54 53  1  0  0  0  0
 54 52  1  0  0  0  0
M  END
>  <MODEL>
9

>  <REMARK>
 VINA RESULT:      -6.0      2.416      6.074
  Name = 
  17 active torsions:
  status: ('A' for Active; 'I' for Inactive)
    1  A    between atoms: C_1  and  O_6
    2  A    between atoms: C_1  and  C_24
    3  A    between atoms: C_3  and  C_27
    4  A    between atoms: C_5  and  S_45
    5  A    between atoms: O_6  and  C_39
    6  A    between atoms: C_8  and  C_18
    7  A    between atoms: C_8  and  O_20
    8  A    between atoms: C_9  and  S_45
    9  A    between atoms: C_10  and  O_20
   10  A    between atoms: N_11  and  C_24
   11  A    between atoms: C_14  and  C_23
   12  A    between atoms: N_15  and  S_26
   13  A    between atoms: C_18  and  C_22
   14  A    between atoms: N_19  and  C_23
   15  A    between atoms: N_19  and  C_50
   16  A    between atoms: S_26  and  C_53
   17  A    between atoms: N_47  and  C_53
                            x       y       z     vdW  Elec       q    Type
                         _______ _______ _______ _____ _____    ______ ____

>  <TORSDO>
F 17

$$$$
