=
 OpenBabel11042414243D

 48 51  0  0  1  0  0  0  0  0999 V2000
  192.0630  173.3310  141.0030 C   0  0  2  0  0  3  0  0  0  0  0  0
  195.7120  175.0840  143.3190 C   0  0  1  0  0  3  0  0  0  0  0  0
  194.7870  173.8650  143.3700 C   0  0  0  0  0  2  0  0  0  0  0  0
  193.9600  173.7110  139.6280 C   0  0  0  0  0  2  0  0  0  0  0  0
  195.1250  175.5410  140.9170 C   0  0  0  0  0  2  0  0  0  0  0  0
  192.9450  174.3760  140.4800 N   0  0  0  0  0  0  0  0  0  0  0  0
  195.1680  176.1180  142.3290 C   0  0  0  0  0  2  0  0  0  0  0  0
  194.6940  173.1880  142.0040 C   0  0  0  0  0  2  0  0  0  0  0  0
  194.3520  174.2290  140.9260 C   0  0  1  0  0  0  0  0  0  0  0  0
  195.7980  175.6500  144.5920 O   0  0  0  0  0  0  0  0  0  0  0  0
  193.9060  175.5520  146.4590 C   0  0  0  0  0  1  0  0  0  0  0  0
  194.9050  177.8520  145.5630 O   0  0  0  0  0  1  0  0  0  0  0  0
  194.2560  176.4080  144.8450 P   0  0  1  0  0  0  0  0  0  0  0  0
  189.7210  172.9450  138.2680 C   0  0  0  0  0  0  0  0  0  0  0  0
  189.6620  171.5200  138.7430 C   0  0  2  0  0  3  0  0  0  0  0  0
  191.0070  170.5670  140.7040 O   0  0  0  0  0  1  0  0  0  0  0  0
  190.5350  173.6800  138.9550 N   0  0  0  0  0  0  0  0  0  0  0  0
  190.6610  171.6060  139.8500 C   0  0  0  0  0  0  0  0  0  0  0  0
  191.1330  172.8380  139.9300 C   0  0  0  0  0  0  0  0  0  0  0  0
  190.0960  170.5180  137.6640 C   0  0  0  0  0  0  0  0  0  0  0  0
  191.4250  170.7330  137.3550 F   0  0  0  0  0  0  0  0  0  0  0  0
  189.9580  169.2290  138.1480 F   0  0  0  0  0  0  0  0  0  0  0  0
  189.3310  170.6580  136.5140 F   0  0  0  0  0  0  0  0  0  0  0  0
  188.8640  173.5050  137.1800 C   0  0  0  0  0  2  0  0  0  0  0  0
  187.8980  174.5310  137.7560 C   0  0  0  0  0  2  0  0  0  0  0  0
  186.4510  175.9760  136.6490 C   0  0  0  0  0  1  0  0  0  0  0  0
  187.8510  175.6990  136.8950 N   0  0  0  0  0  0  0  0  0  0  0  0
  188.4270  175.3050  135.6210 C   0  0  0  0  0  1  0  0  0  0  0  0
  189.9700  173.3150  144.2970 C   0  0  0  0  0  0  0  0  0  0  0  0
  191.0730  175.1050  142.2450 O   0  0  0  0  0  0  0  0  0  0  0  0
  190.7430  172.9540  143.1450 N   0  0  0  0  0  2  0  0  0  0  0  0
  189.6210  172.4150  145.1050 O   0  0  0  0  0  0  0  0  0  0  0  0
  191.2600  173.8600  142.1530 C   0  0  0  0  0  0  0  0  0  0  0  0
  189.5500  174.7230  144.5560 C   0  0  0  0  0  2  0  0  0  0  0  0
  189.2250  174.9140  146.0270 C   0  0  0  0  0  2  0  0  0  0  0  0
  189.1050  176.3950  146.3460 C   0  0  0  0  0  2  0  0  0  0  0  0
  185.3410  176.7970  146.6380 C   0  0  0  0  0  3  0  0  0  0  0  0
  185.1120  177.5440  145.5540 C   0  0  0  0  0  3  0  0  0  0  0  0
  186.7340  176.5700  147.1550 C   0  0  0  0  0  2  0  0  0  0  0  0
  186.2160  178.1240  144.7650 C   0  0  0  0  0  0  0  0  0  0  0  0
  187.7440  176.8590  146.1290 N   0  0  0  0  0  0  0  0  0  0  0  0
  187.4730  177.7730  145.0570 C   0  0  0  0  0  3  0  0  0  0  0  0
  185.4980  180.2500  144.0160 O   0  0  0  0  0  0  0  0  0  0  0  0
  186.2180  178.8730  142.2970 N   0  0  0  0  0  2  0  0  0  0  0  0
  185.9710  179.1210  143.6930 C   0  0  0  0  0  0  0  0  0  0  0  0
  186.9420  177.7740  141.6630 C   0  0  0  0  0  3  0  0  0  0  0  0
  188.4410  178.0030  141.6800 C   0  0  0  0  0  1  0  0  0  0  0  0
  186.4230  177.4670  140.2670 C   0  0  0  0  0  1  0  0  0  0  0  0
  1 33  1  1  0  0  0
  2  3  1  0  0  0  0
  2 10  1  1  0  0  0
  4  6  1  0  0  0  0
  5  9  1  0  0  0  0
  5  7  1  0  0  0  0
  6  9  1  0  0  0  0
  6  1  1  0  0  0  0
  7  2  1  0  0  0  0
  8  3  1  0  0  0  0
  9  4  1  6  0  0  0
  9  8  1  0  0  0  0
 10 13  1  0  0  0  0
 13 12  1  0  0  0  0
 13 11  1  1  0  0  0
 14 15  1  0  0  0  0
 14 17  2  0  0  0  0
 15 20  1  6  0  0  0
 15 18  1  0  0  0  0
 17 19  1  0  0  0  0
 18 19  2  0  0  0  0
 18 16  1  0  0  0  0
 19  1  1  0  0  0  0
 20 22  1  0  0  0  0
 21 20  1  0  0  0  0
 23 20  1  0  0  0  0
 24 25  1  0  0  0  0
 24 14  1  0  0  0  0
 26 27  1  0  0  0  0
 27 25  1  0  0  0  0
 28 27  1  0  0  0  0
 29 34  1  0  0  0  0
 29 32  2  0  0  0  0
 31 29  1  0  0  0  0
 33 30  2  0  0  0  0
 33 31  1  0  0  0  0
 34 35  1  0  0  0  0
 35 36  1  0  0  0  0
 37 39  1  0  0  0  0
 38 37  2  0  0  0  0
 40 42  2  0  0  0  0
 40 38  1  0  0  0  0
 41 36  1  0  0  0  0
 41 39  1  0  0  0  0
 42 41  1  0  0  0  0
 44 45  1  0  0  0  0
 45 43  2  0  0  0  0
 45 40  1  0  0  0  0
 46 47  1  0  0  0  0
 46 44  1  0  0  0  0
 48 46  1  0  0  0  0
M  END
>  <MODEL>
1

>  <REMARK>
 VINA RESULT:      -7.0      0.000      0.000
  Name = 
  15 active torsions:
  status: ('A' for Active; 'I' for Inactive)
    1  A    between atoms: C_1  and  O_36
    2  A    between atoms: C_2  and  N_22
    3  A    between atoms: C_2  and  C_39
    4  A    between atoms: C_2  and  C_42
    5  A    between atoms: C_4  and  C_5
    6  A    between atoms: C_5  and  C_33
    7  A    between atoms: C_9  and  C_13
    8  A    between atoms: C_10  and  C_14
    9  A    between atoms: C_14  and  C_26
   10  A    between atoms: C_17  and  C_26
   11  A    between atoms: C_17  and  N_29
   12  A    between atoms: C_19  and  N_35
   13  A    between atoms: N_25  and  C_33
   14  A    between atoms: C_28  and  C_44
   15  A    between atoms: O_36  and  P_43
                            x       y       z     vdW  Elec       q    Type
                         _______ _______ _______ _____ _____    ______ ____

>  <TORSDO>
F 15

$$$$
=
 OpenBabel11042414243D

 48 51  0  0  1  0  0  0  0  0999 V2000
  189.0750  175.5110  144.0150 C   0  0  2  0  0  3  0  0  0  0  0  0
  190.5060  172.1200  141.1490 C   0  0  1  0  0  3  0  0  0  0  0  0
  190.3200  172.3660  142.6490 C   0  0  0  0  0  2  0  0  0  0  0  0
  187.4560  174.9030  142.3880 C   0  0  0  0  0  2  0  0  0  0  0  0
  188.9370  173.9960  140.5580 C   0  0  0  0  0  2  0  0  0  0  0  0
  188.8080  175.4830  142.5750 N   0  0  0  0  0  0  0  0  0  0  0  0
  190.3450  173.4330  140.3760 C   0  0  0  0  0  2  0  0  0  0  0  0
  188.9230  172.9060  142.9480 C   0  0  0  0  0  2  0  0  0  0  0  0
  188.6220  174.1110  142.0420 C   0  0  1  0  0  0  0  0  0  0  0  0
  191.7790  171.5950  140.9230 O   0  0  0  0  0  0  0  0  0  0  0  0
  192.4430  170.4810  138.6000 C   0  0  0  0  0  1  0  0  0  0  0  0
  192.8140  169.2460  140.9300 O   0  0  0  0  0  1  0  0  0  0  0  0
  191.4970  170.0670  140.1480 P   0  0  1  0  0  0  0  0  0  0  0  0
  186.8340  178.1900  144.9740 C   0  0  0  0  0  0  0  0  0  0  0  0
  187.0240  177.6260  146.3540 C   0  0  2  0  0  3  0  0  0  0  0  0
  188.4560  175.5790  146.9230 O   0  0  0  0  0  1  0  0  0  0  0  0
  187.4770  177.5350  144.0610 N   0  0  0  0  0  0  0  0  0  0  0  0
  187.9060  176.4710  146.0110 C   0  0  0  0  0  0  0  0  0  0  0  0
  188.1310  176.4530  144.7080 C   0  0  0  0  0  0  0  0  0  0  0  0
  185.7060  177.1630  146.9910 C   0  0  0  0  0  0  0  0  0  0  0  0
  184.9250  178.2680  147.2690 F   0  0  0  0  0  0  0  0  0  0  0  0
  185.0220  176.3520  146.1020 F   0  0  0  0  0  0  0  0  0  0  0  0
  185.9370  176.4600  148.1650 F   0  0  0  0  0  0  0  0  0  0  0  0
  186.0670  179.4350  144.6720 C   0  0  0  0  0  2  0  0  0  0  0  0
  185.5440  179.3890  143.2430 C   0  0  0  0  0  2  0  0  0  0  0  0
  184.1460  178.2930  141.7420 C   0  0  0  0  0  1  0  0  0  0  0  0
  184.4520  178.4370  143.1510 N   0  0  0  0  0  0  0  0  0  0  0  0
  183.2950  179.0640  143.7660 C   0  0  0  0  0  1  0  0  0  0  0  0
  192.5650  175.7090  145.7490 C   0  0  0  0  0  0  0  0  0  0  0  0
  191.0270  176.7640  143.4790 O   0  0  0  0  0  0  0  0  0  0  0  0
  191.2130  175.3970  145.3880 N   0  0  0  0  0  2  0  0  0  0  0  0
  193.0850  175.1190  146.7320 O   0  0  0  0  0  0  0  0  0  0  0  0
  190.4860  175.9430  144.2720 C   0  0  0  0  0  0  0  0  0  0  0  0
  193.3650  176.7260  145.0080 C   0  0  0  0  0  2  0  0  0  0  0  0
  194.8250  176.6490  145.4190 C   0  0  0  0  0  2  0  0  0  0  0  0
  195.7160  176.7120  144.1890 C   0  0  0  0  0  2  0  0  0  0  0  0
  194.3460  174.5250  141.4050 C   0  0  0  0  0  3  0  0  0  0  0  0
  194.8050  173.3380  141.8080 C   0  0  0  0  0  3  0  0  0  0  0  0
  194.8370  175.8060  142.0180 C   0  0  0  0  0  2  0  0  0  0  0  0
  195.7630  173.2150  142.9250 C   0  0  0  0  0  0  0  0  0  0  0  0
  195.4740  175.5720  143.3200 N   0  0  0  0  0  0  0  0  0  0  0  0
  196.0630  174.3030  143.6410 C   0  0  0  0  0  3  0  0  0  0  0  0
  197.5740  171.7060  142.7320 O   0  0  0  0  0  0  0  0  0  0  0  0
  195.8610  170.9080  144.0730 N   0  0  0  0  0  2  0  0  0  0  0  0
  196.4360  171.9300  143.2390 C   0  0  0  0  0  0  0  0  0  0  0  0
  194.6910  170.9700  144.9460 C   0  0  0  0  0  3  0  0  0  0  0  0
  194.8520  170.0870  146.1680 C   0  0  0  0  0  1  0  0  0  0  0  0
  193.3960  170.6900  144.2000 C   0  0  0  0  0  1  0  0  0  0  0  0
  1 33  1  6  0  0  0
  1 19  1  0  0  0  0
  2 10  1  1  0  0  0
  2  3  1  0  0  0  0
  3  8  1  0  0  0  0
  4  6  1  0  0  0  0
  6  1  1  0  0  0  0
  7  5  1  0  0  0  0
  7  2  1  0  0  0  0
  9  5  1  6  0  0  0
  9  4  1  0  0  0  0
  9  6  1  0  0  0  0
  9  8  1  0  0  0  0
 13 11  1  6  0  0  0
 13 10  1  0  0  0  0
 13 12  1  0  0  0  0
 14 15  1  0  0  0  0
 15 20  1  6  0  0  0
 17 19  1  0  0  0  0
 17 14  2  0  0  0  0
 18 15  1  0  0  0  0
 18 16  1  0  0  0  0
 19 18  2  0  0  0  0
 20 21  1  0  0  0  0
 20 23  1  0  0  0  0
 22 20  1  0  0  0  0
 24 14  1  0  0  0  0
 25 24  1  0  0  0  0
 26 27  1  0  0  0  0
 27 25  1  0  0  0  0
 27 28  1  0  0  0  0
 29 32  2  0  0  0  0
 30 33  2  0  0  0  0
 31 29  1  0  0  0  0
 33 31  1  0  0  0  0
 34 35  1  0  0  0  0
 34 29  1  0  0  0  0
 36 35  1  0  0  0  0
 37 38  2  0  0  0  0
 37 39  1  0  0  0  0
 38 40  1  0  0  0  0
 39 41  1  0  0  0  0
 40 45  1  0  0  0  0
 40 42  2  0  0  0  0
 41 42  1  0  0  0  0
 41 36  1  0  0  0  0
 43 45  2  0  0  0  0
 44 46  1  0  0  0  0
 45 44  1  0  0  0  0
 46 47  1  0  0  0  0
 48 46  1  0  0  0  0
M  END
>  <MODEL>
2

>  <REMARK>
 VINA RESULT:      -6.9      4.177      8.800
  Name = 
  15 active torsions:
  status: ('A' for Active; 'I' for Inactive)
    1  A    between atoms: C_1  and  O_36
    2  A    between atoms: C_2  and  N_22
    3  A    between atoms: C_2  and  C_39
    4  A    between atoms: C_2  and  C_42
    5  A    between atoms: C_4  and  C_5
    6  A    between atoms: C_5  and  C_33
    7  A    between atoms: C_9  and  C_13
    8  A    between atoms: C_10  and  C_14
    9  A    between atoms: C_14  and  C_26
   10  A    between atoms: C_17  and  C_26
   11  A    between atoms: C_17  and  N_29
   12  A    between atoms: C_19  and  N_35
   13  A    between atoms: N_25  and  C_33
   14  A    between atoms: C_28  and  C_44
   15  A    between atoms: O_36  and  P_43
                            x       y       z     vdW  Elec       q    Type
                         _______ _______ _______ _____ _____    ______ ____

>  <TORSDO>
F 15

$$$$
=
 OpenBabel11042414243D

 48 51  0  0  1  0  0  0  0  0999 V2000
  190.0010  174.1560  142.7850 C   0  0  2  0  0  3  0  0  0  0  0  0
  192.5450  170.2960  143.4040 C   0  0  1  0  0  3  0  0  0  0  0  0
  192.2930  171.6380  144.0950 C   0  0  0  0  0  2  0  0  0  0  0  0
  188.7010  172.1700  142.8570 C   0  0  0  0  0  2  0  0  0  0  0  0
  190.3990  170.4630  142.1020 C   0  0  0  0  0  2  0  0  0  0  0  0
  189.7520  172.8870  142.0960 N   0  0  0  0  0  0  0  0  0  0  0  0
  191.9130  170.2950  142.0080 C   0  0  0  0  0  2  0  0  0  0  0  0
  190.7970  171.8950  144.2680 C   0  0  0  0  0  2  0  0  0  0  0  0
  190.0730  171.7010  142.9260 C   0  0  1  0  0  0  0  0  0  0  0  0
  193.9200  170.0840  143.2970 O   0  0  0  0  0  0  0  0  0  0  0  0
  195.5660  171.2990  141.5980 C   0  0  0  0  0  1  0  0  0  0  0  0
  195.3080  168.6500  141.6830 O   0  0  0  0  0  1  0  0  0  0  0  0
  194.2270  170.0070  141.5900 P   0  0  1  0  0  0  0  0  0  0  0  0
  187.1270  176.3320  143.1430 C   0  0  0  0  0  0  0  0  0  0  0  0
  187.0770  176.2310  141.6440 C   0  0  2  0  0  3  0  0  0  0  0  0
  188.7320  174.9090  140.2030 O   0  0  0  0  0  1  0  0  0  0  0  0
  188.1100  175.6730  143.6680 N   0  0  0  0  0  0  0  0  0  0  0  0
  188.2850  175.3790  141.4310 C   0  0  0  0  0  0  0  0  0  0  0  0
  188.8410  175.0940  142.5960 C   0  0  0  0  0  0  0  0  0  0  0  0
  187.2150  177.5940  140.9540 C   0  0  0  0  0  0  0  0  0  0  0  0
  188.4680  178.1110  141.2200 F   0  0  0  0  0  0  0  0  0  0  0  0
  187.0850  177.4350  139.5850 F   0  0  0  0  0  0  0  0  0  0  0  0
  186.2490  178.4830  141.4030 F   0  0  0  0  0  0  0  0  0  0  0  0
  186.1040  177.0340  143.9740 C   0  0  0  0  0  2  0  0  0  0  0  0
  186.4090  176.8330  145.4520 C   0  0  0  0  0  2  0  0  0  0  0  0
  185.8710  179.0780  145.7360 C   0  0  0  0  0  1  0  0  0  0  0  0
  185.6090  177.7480  146.2460 N   0  0  0  0  0  0  0  0  0  0  0  0
  186.1410  177.7070  147.5970 C   0  0  0  0  0  1  0  0  0  0  0  0
  193.2510  174.6040  140.6730 C   0  0  0  0  0  0  0  0  0  0  0  0
  191.5690  175.9450  142.6740 O   0  0  0  0  0  0  0  0  0  0  0  0
  192.0430  174.1140  141.2710 N   0  0  0  0  0  2  0  0  0  0  0  0
  193.8180  173.9130  139.7870 O   0  0  0  0  0  0  0  0  0  0  0  0
  191.2490  174.7960  142.2580 C   0  0  0  0  0  0  0  0  0  0  0  0
  193.8650  175.9000  141.0830 C   0  0  0  0  0  2  0  0  0  0  0  0
  195.3720  175.8500  140.9030 C   0  0  0  0  0  2  0  0  0  0  0  0
  196.0630  176.3970  142.1410 C   0  0  0  0  0  2  0  0  0  0  0  0
  195.1610  173.6870  144.6430 C   0  0  0  0  0  3  0  0  0  0  0  0
  194.4350  174.4080  145.4990 C   0  0  0  0  0  3  0  0  0  0  0  0
  196.0020  174.3410  143.5820 C   0  0  0  0  0  2  0  0  0  0  0  0
  194.3590  175.8800  145.4070 C   0  0  0  0  0  0  0  0  0  0  0  0
  195.5810  175.7260  143.3380 N   0  0  0  0  0  0  0  0  0  0  0  0
  194.9120  176.4890  144.3530 C   0  0  0  0  0  3  0  0  0  0  0  0
  194.4780  177.4140  147.2030 O   0  0  0  0  0  0  0  0  0  0  0  0
  192.3170  176.7140  146.7430 N   0  0  0  0  0  2  0  0  0  0  0  0
  193.7310  176.6990  146.4720 C   0  0  0  0  0  0  0  0  0  0  0  0
  191.2150  176.1740  145.9510 C   0  0  0  0  0  3  0  0  0  0  0  0
  190.1280  177.2060  145.7210 C   0  0  0  0  0  1  0  0  0  0  0  0
  190.6650  174.8800  146.5300 C   0  0  0  0  0  1  0  0  0  0  0  0
  1 33  1  6  0  0  0
  2 10  1  6  0  0  0
  2  3  1  0  0  0  0
  3  8  1  0  0  0  0
  4  9  1  0  0  0  0
  6  1  1  0  0  0  0
  6  4  1  0  0  0  0
  6  9  1  0  0  0  0
  7  5  1  0  0  0  0
  7  2  1  0  0  0  0
  9  5  1  6  0  0  0
  9  8  1  0  0  0  0
 13 11  1  1  0  0  0
 13 12  1  0  0  0  0
 13 10  1  0  0  0  0
 14 17  2  0  0  0  0
 14 24  1  0  0  0  0
 15 20  1  6  0  0  0
 15 14  1  0  0  0  0
 16 18  1  0  0  0  0
 18 15  1  0  0  0  0
 18 19  2  0  0  0  0
 19  1  1  0  0  0  0
 19 17  1  0  0  0  0
 20 21  1  0  0  0  0
 20 23  1  0  0  0  0
 22 20  1  0  0  0  0
 24 25  1  0  0  0  0
 25 27  1  0  0  0  0
 26 27  1  0  0  0  0
 27 28  1  0  0  0  0
 29 34  1  0  0  0  0
 29 31  1  0  0  0  0
 31 33  1  0  0  0  0
 32 29  2  0  0  0  0
 33 30  2  0  0  0  0
 35 34  1  0  0  0  0
 35 36  1  0  0  0  0
 36 41  1  0  0  0  0
 37 38  2  0  0  0  0
 39 37  1  0  0  0  0
 40 38  1  0  0  0  0
 40 45  1  0  0  0  0
 41 39  1  0  0  0  0
 41 42  1  0  0  0  0
 42 40  2  0  0  0  0
 45 44  1  0  0  0  0
 45 43  2  0  0  0  0
 46 48  1  0  0  0  0
 46 44  1  0  0  0  0
 47 46  1  0  0  0  0
M  END
>  <MODEL>
3

>  <REMARK>
 VINA RESULT:      -6.9      3.652      7.317
  Name = 
  15 active torsions:
  status: ('A' for Active; 'I' for Inactive)
    1  A    between atoms: C_1  and  O_36
    2  A    between atoms: C_2  and  N_22
    3  A    between atoms: C_2  and  C_39
    4  A    between atoms: C_2  and  C_42
    5  A    between atoms: C_4  and  C_5
    6  A    between atoms: C_5  and  C_33
    7  A    between atoms: C_9  and  C_13
    8  A    between atoms: C_10  and  C_14
    9  A    between atoms: C_14  and  C_26
   10  A    between atoms: C_17  and  C_26
   11  A    between atoms: C_17  and  N_29
   12  A    between atoms: C_19  and  N_35
   13  A    between atoms: N_25  and  C_33
   14  A    between atoms: C_28  and  C_44
   15  A    between atoms: O_36  and  P_43
                            x       y       z     vdW  Elec       q    Type
                         _______ _______ _______ _____ _____    ______ ____

>  <TORSDO>
F 15

$$$$
=
 OpenBabel11042414243D

 48 51  0  0  1  0  0  0  0  0999 V2000
  189.6760  176.0420  143.3860 C   0  0  2  0  0  3  0  0  0  0  0  0
  194.3290  175.7360  143.4850 C   0  0  1  0  0  3  0  0  0  0  0  0
  193.1930  175.7540  142.4600 C   0  0  0  0  0  2  0  0  0  0  0  0
  190.7190  177.8650  144.4940 C   0  0  0  0  0  2  0  0  0  0  0  0
  192.8770  176.7940  145.2450 C   0  0  0  0  0  2  0  0  0  0  0  0
  190.5000  176.3990  144.5430 N   0  0  0  0  0  0  0  0  0  0  0  0
  193.7600  175.5970  144.9000 C   0  0  0  0  0  2  0  0  0  0  0  0
  192.2580  176.9390  142.6960 C   0  0  0  0  0  2  0  0  0  0  0  0
  191.8160  176.9720  144.1680 C   0  0  1  0  0  0  0  0  0  0  0  0
  195.1780  174.6620  143.2120 O   0  0  0  0  0  0  0  0  0  0  0  0
  197.5750  174.6700  142.0600 C   0  0  0  0  0  1  0  0  0  0  0  0
  196.4930  176.8650  143.1100 O   0  0  0  0  0  1  0  0  0  0  0  0
  196.7630  175.2310  143.6370 P   0  0  1  0  0  0  0  0  0  0  0  0
  186.3610  176.7630  144.6540 C   0  0  0  0  0  0  0  0  0  0  0  0
  186.0510  177.0340  143.2080 C   0  0  2  0  0  3  0  0  0  0  0  0
  187.7380  176.8710  141.2870 O   0  0  0  0  0  1  0  0  0  0  0  0
  187.5940  176.4280  144.8590 N   0  0  0  0  0  0  0  0  0  0  0  0
  187.4110  176.8020  142.6350 C   0  0  0  0  0  0  0  0  0  0  0  0
  188.2510  176.4710  143.6010 C   0  0  0  0  0  0  0  0  0  0  0  0
  185.5700  178.4700  142.9640 C   0  0  0  0  0  0  0  0  0  0  0  0
  185.7570  178.7910  141.6340 F   0  0  0  0  0  0  0  0  0  0  0  0
  184.2200  178.5620  143.2540 F   0  0  0  0  0  0  0  0  0  0  0  0
  186.2680  179.3730  143.7540 F   0  0  0  0  0  0  0  0  0  0  0  0
  185.3450  176.7770  145.7490 C   0  0  0  0  0  2  0  0  0  0  0  0
  186.0410  176.7630  147.1020 C   0  0  0  0  0  2  0  0  0  0  0  0
  184.5290  178.5300  147.1490 C   0  0  0  0  0  1  0  0  0  0  0  0
  185.6030  177.9010  147.8910 N   0  0  0  0  0  0  0  0  0  0  0  0
  186.7050  178.8460  147.9120 C   0  0  0  0  0  1  0  0  0  0  0  0
  189.3920  172.6410  141.4950 C   0  0  0  0  0  0  0  0  0  0  0  0
  190.0840  173.8080  144.1000 O   0  0  0  0  0  0  0  0  0  0  0  0
  189.3850  174.0270  141.8630 N   0  0  0  0  0  2  0  0  0  0  0  0
  189.1140  172.3220  140.3090 O   0  0  0  0  0  0  0  0  0  0  0  0
  189.7210  174.5620  143.1550 C   0  0  0  0  0  0  0  0  0  0  0  0
  189.6990  171.5640  142.4810 C   0  0  0  0  0  2  0  0  0  0  0  0
  190.7570  170.6270  141.9260 C   0  0  0  0  0  2  0  0  0  0  0  0
  192.1370  171.0750  142.3760 C   0  0  0  0  0  2  0  0  0  0  0  0
  194.9220  172.5900  140.2870 C   0  0  0  0  0  3  0  0  0  0  0  0
  194.3480  172.5420  139.0830 C   0  0  0  0  0  3  0  0  0  0  0  0
  194.3430  171.8530  141.4620 C   0  0  0  0  0  2  0  0  0  0  0  0
  193.0770  171.8260  138.8560 C   0  0  0  0  0  0  0  0  0  0  0  0
  192.9360  171.4990  141.2370 N   0  0  0  0  0  0  0  0  0  0  0  0
  192.4130  171.3390  139.9100 C   0  0  0  0  0  3  0  0  0  0  0  0
  192.6850  170.4400  136.9800 O   0  0  0  0  0  0  0  0  0  0  0  0
  191.8950  172.6000  136.6990 N   0  0  0  0  0  2  0  0  0  0  0  0
  192.5450  171.5900  137.4910 C   0  0  0  0  0  0  0  0  0  0  0  0
  191.4110  173.9210  137.0940 C   0  0  0  0  0  3  0  0  0  0  0  0
  190.0200  174.1960  136.5570 C   0  0  0  0  0  1  0  0  0  0  0  0
  192.3930  175.0270  136.7400 C   0  0  0  0  0  1  0  0  0  0  0  0
  1 33  1  1  0  0  0
  1 19  1  0  0  0  0
  1  6  1  0  0  0  0
  2 10  1  6  0  0  0
  2  7  1  0  0  0  0
  3  8  1  0  0  0  0
  3  2  1  0  0  0  0
  4  6  1  0  0  0  0
  7  5  1  0  0  0  0
  9  8  1  6  0  0  0
  9  4  1  0  0  0  0
  9  6  1  0  0  0  0
  9  5  1  0  0  0  0
 10 13  1  0  0  0  0
 12 13  1  0  0  0  0
 13 11  1  6  0  0  0
 14 17  2  0  0  0  0
 14 24  1  0  0  0  0
 15 20  1  1  0  0  0
 15 14  1  0  0  0  0
 16 18  1  0  0  0  0
 18 15  1  0  0  0  0
 18 19  2  0  0  0  0
 19 17  1  0  0  0  0
 20 22  1  0  0  0  0
 20 23  1  0  0  0  0
 21 20  1  0  0  0  0
 24 25  1  0  0  0  0
 25 27  1  0  0  0  0
 26 27  1  0  0  0  0
 27 28  1  0  0  0  0
 29 31  1  0  0  0  0
 29 34  1  0  0  0  0
 31 33  1  0  0  0  0
 32 29  2  0  0  0  0
 33 30  2  0  0  0  0
 35 36  1  0  0  0  0
 35 34  1  0  0  0  0
 37 39  1  0  0  0  0
 38 37  2  0  0  0  0
 40 38  1  0  0  0  0
 40 42  2  0  0  0  0
 41 39  1  0  0  0  0
 41 36  1  0  0  0  0
 42 41  1  0  0  0  0
 43 45  2  0  0  0  0
 44 46  1  0  0  0  0
 44 45  1  0  0  0  0
 45 40  1  0  0  0  0
 47 46  1  0  0  0  0
 48 46  1  0  0  0  0
M  END
>  <MODEL>
4

>  <REMARK>
 VINA RESULT:      -6.7      3.590      8.069
  Name = 
  15 active torsions:
  status: ('A' for Active; 'I' for Inactive)
    1  A    between atoms: C_1  and  O_36
    2  A    between atoms: C_2  and  N_22
    3  A    between atoms: C_2  and  C_39
    4  A    between atoms: C_2  and  C_42
    5  A    between atoms: C_4  and  C_5
    6  A    between atoms: C_5  and  C_33
    7  A    between atoms: C_9  and  C_13
    8  A    between atoms: C_10  and  C_14
    9  A    between atoms: C_14  and  C_26
   10  A    between atoms: C_17  and  C_26
   11  A    between atoms: C_17  and  N_29
   12  A    between atoms: C_19  and  N_35
   13  A    between atoms: N_25  and  C_33
   14  A    between atoms: C_28  and  C_44
   15  A    between atoms: O_36  and  P_43
                            x       y       z     vdW  Elec       q    Type
                         _______ _______ _______ _____ _____    ______ ____

>  <TORSDO>
F 15

$$$$
=
 OpenBabel11042414243D

 48 51  0  0  1  0  0  0  0  0999 V2000
  192.6220  175.0750  143.9600 C   0  0  2  0  0  3  0  0  0  0  0  0
  194.9060  171.1130  144.8750 C   0  0  1  0  0  3  0  0  0  0  0  0
  194.8680  172.5640  145.3600 C   0  0  0  0  0  2  0  0  0  0  0  0
  191.1900  173.2700  144.5310 C   0  0  0  0  0  2  0  0  0  0  0  0
  192.6140  171.3000  143.8560 C   0  0  0  0  0  2  0  0  0  0  0  0
  192.1740  173.7480  143.5300 N   0  0  0  0  0  0  0  0  0  0  0  0
  194.0800  170.9620  143.5940 C   0  0  0  0  0  2  0  0  0  0  0  0
  193.4390  172.9980  145.6820 C   0  0  0  0  0  2  0  0  0  0  0  0
  192.5140  172.6760  144.4970 C   0  0  1  0  0  0  0  0  0  0  0  0
  196.2290  170.7450  144.6270 O   0  0  0  0  0  0  0  0  0  0  0  0
  195.4420  168.9410  146.4160 C   0  0  0  0  0  1  0  0  0  0  0  0
  197.9270  169.0110  145.4630 O   0  0  0  0  0  1  0  0  0  0  0  0
  196.8210  170.1610  146.1510 P   0  0  1  0  0  0  0  0  0  0  0  0
  189.8250  177.2660  143.2570 C   0  0  0  0  0  0  0  0  0  0  0  0
  190.0470  177.7230  144.6720 C   0  0  2  0  0  3  0  0  0  0  0  0
  191.8350  176.7950  146.2550 O   0  0  0  0  0  1  0  0  0  0  0  0
  190.6420  176.3320  142.8870 N   0  0  0  0  0  0  0  0  0  0  0  0
  191.1670  176.8050  145.0360 C   0  0  0  0  0  0  0  0  0  0  0  0
  191.4660  176.0340  144.0050 C   0  0  0  0  0  0  0  0  0  0  0  0
  188.8180  177.5010  145.5640 C   0  0  0  0  0  0  0  0  0  0  0  0
  188.4360  176.1760  145.4870 F   0  0  0  0  0  0  0  0  0  0  0  0
  189.1420  177.7910  146.8780 F   0  0  0  0  0  0  0  0  0  0  0  0
  187.7590  178.3060  145.1680 F   0  0  0  0  0  0  0  0  0  0  0  0
  188.8370  177.8790  142.3200 C   0  0  0  0  0  2  0  0  0  0  0  0
  187.9920  176.7910  141.6720 C   0  0  0  0  0  2  0  0  0  0  0  0
  186.5340  177.5450  140.0240 C   0  0  0  0  0  1  0  0  0  0  0  0
  186.6460  177.2850  141.4450 N   0  0  0  0  0  0  0  0  0  0  0  0
  186.5530  178.5720  142.1120 C   0  0  0  0  0  1  0  0  0  0  0  0
  196.0480  176.4970  142.7470 C   0  0  0  0  0  0  0  0  0  0  0  0
  193.4010  175.6600  141.7860 O   0  0  0  0  0  0  0  0  0  0  0  0
  194.9550  175.9900  143.5240 N   0  0  0  0  0  2  0  0  0  0  0  0
  197.1360  176.7600  143.3220 O   0  0  0  0  0  0  0  0  0  0  0  0
  193.6660  175.5980  143.0200 C   0  0  0  0  0  0  0  0  0  0  0  0
  195.9270  176.7410  141.2800 C   0  0  0  0  0  2  0  0  0  0  0  0
  196.6590  175.6620  140.5040 C   0  0  0  0  0  2  0  0  0  0  0  0
  195.8730  175.2920  139.2570 C   0  0  0  0  0  2  0  0  0  0  0  0
  195.2560  171.6690  140.2110 C   0  0  0  0  0  3  0  0  0  0  0  0
  194.1440  171.4410  139.5070 C   0  0  0  0  0  3  0  0  0  0  0  0
  195.7870  173.0620  140.4070 C   0  0  0  0  0  2  0  0  0  0  0  0
  193.4190  172.5310  138.8250 C   0  0  0  0  0  0  0  0  0  0  0  0
  195.2360  173.9950  139.4170 N   0  0  0  0  0  0  0  0  0  0  0  0
  193.9690  173.7490  138.7890 C   0  0  0  0  0  3  0  0  0  0  0  0
  192.0100  171.9740  137.0080 O   0  0  0  0  0  0  0  0  0  0  0  0
  190.8420  172.5130  138.9360 N   0  0  0  0  0  2  0  0  0  0  0  0
  192.0780  172.3220  138.2240 C   0  0  0  0  0  0  0  0  0  0  0  0
  190.6150  172.6970  140.3670 C   0  0  0  0  0  3  0  0  0  0  0  0
  190.4410  171.3730  141.0860 C   0  0  0  0  0  1  0  0  0  0  0  0
  189.4730  173.6600  140.6530 C   0  0  0  0  0  1  0  0  0  0  0  0
  1 33  1  6  0  0  0
  1 19  1  0  0  0  0
  2 10  1  6  0  0  0
  2  3  1  0  0  0  0
  3  8  1  0  0  0  0
  6  1  1  0  0  0  0
  6  9  1  0  0  0  0
  6  4  1  0  0  0  0
  7  5  1  0  0  0  0
  7  2  1  0  0  0  0
  9  5  1  6  0  0  0
  9  4  1  0  0  0  0
  9  8  1  0  0  0  0
 10 13  1  0  0  0  0
 12 13  1  0  0  0  0
 13 11  1  1  0  0  0
 14 15  1  0  0  0  0
 15 18  1  0  0  0  0
 15 20  1  1  0  0  0
 17 14  2  0  0  0  0
 17 19  1  0  0  0  0
 18 16  1  0  0  0  0
 19 18  2  0  0  0  0
 20 22  1  0  0  0  0
 21 20  1  0  0  0  0
 23 20  1  0  0  0  0
 24 14  1  0  0  0  0
 25 24  1  0  0  0  0
 26 27  1  0  0  0  0
 27 25  1  0  0  0  0
 27 28  1  0  0  0  0
 29 32  2  0  0  0  0
 29 31  1  0  0  0  0
 30 33  2  0  0  0  0
 33 31  1  0  0  0  0
 34 29  1  0  0  0  0
 35 34  1  0  0  0  0
 36 41  1  0  0  0  0
 36 35  1  0  0  0  0
 37 39  1  0  0  0  0
 38 37  2  0  0  0  0
 40 38  1  0  0  0  0
 41 39  1  0  0  0  0
 42 40  2  0  0  0  0
 42 41  1  0  0  0  0
 43 45  2  0  0  0  0
 44 46  1  0  0  0  0
 45 40  1  0  0  0  0
 45 44  1  0  0  0  0
 46 48  1  0  0  0  0
 46 47  1  0  0  0  0
M  END
>  <MODEL>
5

>  <REMARK>
 VINA RESULT:      -6.7      3.929      7.894
  Name = 
  15 active torsions:
  status: ('A' for Active; 'I' for Inactive)
    1  A    between atoms: C_1  and  O_36
    2  A    between atoms: C_2  and  N_22
    3  A    between atoms: C_2  and  C_39
    4  A    between atoms: C_2  and  C_42
    5  A    between atoms: C_4  and  C_5
    6  A    between atoms: C_5  and  C_33
    7  A    between atoms: C_9  and  C_13
    8  A    between atoms: C_10  and  C_14
    9  A    between atoms: C_14  and  C_26
   10  A    between atoms: C_17  and  C_26
   11  A    between atoms: C_17  and  N_29
   12  A    between atoms: C_19  and  N_35
   13  A    between atoms: N_25  and  C_33
   14  A    between atoms: C_28  and  C_44
   15  A    between atoms: O_36  and  P_43
                            x       y       z     vdW  Elec       q    Type
                         _______ _______ _______ _____ _____    ______ ____

>  <TORSDO>
F 15

$$$$
=
 OpenBabel11042414243D

 48 51  0  0  1  0  0  0  0  0999 V2000
  189.6620  176.0970  143.2520 C   0  0  2  0  0  3  0  0  0  0  0  0
  194.2470  175.5330  143.8930 C   0  0  1  0  0  3  0  0  0  0  0  0
  193.2310  175.5320  142.7490 C   0  0  0  0  0  2  0  0  0  0  0  0
  190.6990  177.9410  144.3300 C   0  0  0  0  0  2  0  0  0  0  0  0
  192.6880  176.8130  145.3960 C   0  0  0  0  0  2  0  0  0  0  0  0
  190.3790  176.4990  144.4650 N   0  0  0  0  0  0  0  0  0  0  0  0
  193.5230  175.5440  145.2430 C   0  0  0  0  0  2  0  0  0  0  0  0
  192.3560  176.7840  142.7900 C   0  0  0  0  0  2  0  0  0  0  0  0
  191.7630  176.9630  144.1970 C   0  0  1  0  0  0  0  0  0  0  0  0
  195.0480  174.3940  143.7990 O   0  0  0  0  0  0  0  0  0  0  0  0
  195.9530  172.4600  145.3850 C   0  0  0  0  0  1  0  0  0  0  0  0
  197.4760  174.5070  144.6230 O   0  0  0  0  0  1  0  0  0  0  0  0
  195.8920  174.3180  145.3140 P   0  0  1  0  0  0  0  0  0  0  0  0
  186.2790  176.9710  144.2070 C   0  0  0  0  0  0  0  0  0  0  0  0
  186.0500  177.0060  142.7220 C   0  0  2  0  0  3  0  0  0  0  0  0
  187.8420  176.5610  140.9460 O   0  0  0  0  0  1  0  0  0  0  0  0
  187.5000  176.6870  144.5300 N   0  0  0  0  0  0  0  0  0  0  0  0
  187.4400  176.7030  142.2680 C   0  0  0  0  0  0  0  0  0  0  0  0
  188.2260  176.5370  143.3190 C   0  0  0  0  0  0  0  0  0  0  0  0
  185.5790  178.3800  142.2280 C   0  0  0  0  0  0  0  0  0  0  0  0
  185.7030  178.4340  140.8530 F   0  0  0  0  0  0  0  0  0  0  0  0
  184.2470  178.5600  142.5580 F   0  0  0  0  0  0  0  0  0  0  0  0
  186.3310  179.4010  142.7940 F   0  0  0  0  0  0  0  0  0  0  0  0
  185.2040  177.1460  145.2290 C   0  0  0  0  0  2  0  0  0  0  0  0
  185.3160  178.5220  145.8700 C   0  0  0  0  0  2  0  0  0  0  0  0
  186.0600  179.4810  147.8540 C   0  0  0  0  0  1  0  0  0  0  0  0
  185.2660  178.3950  147.3160 N   0  0  0  0  0  0  0  0  0  0  0  0
  185.9600  177.1650  147.6540 C   0  0  0  0  0  1  0  0  0  0  0  0
  189.6450  172.6270  141.4680 C   0  0  0  0  0  0  0  0  0  0  0  0
  189.8990  173.8870  144.1090 O   0  0  0  0  0  0  0  0  0  0  0  0
  189.6000  174.0260  141.7780 N   0  0  0  0  0  2  0  0  0  0  0  0
  189.5700  172.2650  140.2650 O   0  0  0  0  0  0  0  0  0  0  0  0
  189.7180  174.6090  143.0880 C   0  0  0  0  0  0  0  0  0  0  0  0
  189.7570  171.5860  142.5310 C   0  0  0  0  0  2  0  0  0  0  0  0
  191.0370  170.7890  142.3560 C   0  0  0  0  0  2  0  0  0  0  0  0
  192.2430  171.7010  142.5080 C   0  0  0  0  0  2  0  0  0  0  0  0
  194.5370  170.6090  139.6860 C   0  0  0  0  0  3  0  0  0  0  0  0
  194.7550  171.7930  139.1070 C   0  0  0  0  0  3  0  0  0  0  0  0
  193.4580  170.4270  140.7160 C   0  0  0  0  0  2  0  0  0  0  0  0
  194.0010  173.0000  139.4980 C   0  0  0  0  0  0  0  0  0  0  0  0
  193.0360  171.7120  141.2890 N   0  0  0  0  0  0  0  0  0  0  0  0
  193.1850  172.9370  140.5560 C   0  0  0  0  0  3  0  0  0  0  0  0
  193.0690  174.6360  138.0670 O   0  0  0  0  0  0  0  0  0  0  0  0
  195.2690  175.0780  138.6470 N   0  0  0  0  0  2  0  0  0  0  0  0
  194.0860  174.2610  138.7210 C   0  0  0  0  0  0  0  0  0  0  0  0
  196.4920  175.0150  139.4440 C   0  0  0  0  0  3  0  0  0  0  0  0
  196.3660  175.8050  140.7330 C   0  0  0  0  0  1  0  0  0  0  0  0
  197.7250  175.4100  138.6460 C   0  0  0  0  0  1  0  0  0  0  0  0
  1 33  1  1  0  0  0
  1 19  1  0  0  0  0
  1  6  1  0  0  0  0
  2 10  1  1  0  0  0
  2  7  1  0  0  0  0
  3  8  1  0  0  0  0
  3  2  1  0  0  0  0
  4  6  1  0  0  0  0
  7  5  1  0  0  0  0
  9  8  1  6  0  0  0
  9  4  1  0  0  0  0
  9  6  1  0  0  0  0
  9  5  1  0  0  0  0
 10 13  1  0  0  0  0
 12 13  1  0  0  0  0
 13 11  1  6  0  0  0
 14 17  2  0  0  0  0
 14 24  1  0  0  0  0
 15 20  1  6  0  0  0
 15 14  1  0  0  0  0
 16 18  1  0  0  0  0
 18 15  1  0  0  0  0
 18 19  2  0  0  0  0
 19 17  1  0  0  0  0
 20 22  1  0  0  0  0
 20 23  1  0  0  0  0
 21 20  1  0  0  0  0
 24 25  1  0  0  0  0
 25 27  1  0  0  0  0
 27 28  1  0  0  0  0
 27 26  1  0  0  0  0
 29 31  1  0  0  0  0
 29 34  1  0  0  0  0
 31 33  1  0  0  0  0
 32 29  2  0  0  0  0
 33 30  2  0  0  0  0
 35 36  1  0  0  0  0
 35 34  1  0  0  0  0
 37 39  1  0  0  0  0
 38 40  1  0  0  0  0
 38 37  2  0  0  0  0
 39 41  1  0  0  0  0
 40 42  2  0  0  0  0
 41 36  1  0  0  0  0
 42 41  1  0  0  0  0
 43 45  2  0  0  0  0
 44 45  1  0  0  0  0
 44 46  1  0  0  0  0
 45 40  1  0  0  0  0
 46 47  1  0  0  0  0
 48 46  1  0  0  0  0
M  END
>  <MODEL>
6

>  <REMARK>
 VINA RESULT:      -6.7      3.747      8.060
  Name = 
  15 active torsions:
  status: ('A' for Active; 'I' for Inactive)
    1  A    between atoms: C_1  and  O_36
    2  A    between atoms: C_2  and  N_22
    3  A    between atoms: C_2  and  C_39
    4  A    between atoms: C_2  and  C_42
    5  A    between atoms: C_4  and  C_5
    6  A    between atoms: C_5  and  C_33
    7  A    between atoms: C_9  and  C_13
    8  A    between atoms: C_10  and  C_14
    9  A    between atoms: C_14  and  C_26
   10  A    between atoms: C_17  and  C_26
   11  A    between atoms: C_17  and  N_29
   12  A    between atoms: C_19  and  N_35
   13  A    between atoms: N_25  and  C_33
   14  A    between atoms: C_28  and  C_44
   15  A    between atoms: O_36  and  P_43
                            x       y       z     vdW  Elec       q    Type
                         _______ _______ _______ _____ _____    ______ ____

>  <TORSDO>
F 15

$$$$
=
 OpenBabel11042414243D

 48 51  0  0  1  0  0  0  0  0999 V2000
  191.8730  173.1560  141.9200 C   0  0  2  0  0  3  0  0  0  0  0  0
  195.0640  174.2770  145.1320 C   0  0  1  0  0  3  0  0  0  0  0  0
  193.6980  173.5920  145.0480 C   0  0  0  0  0  2  0  0  0  0  0  0
  194.0250  172.2610  141.4660 C   0  0  0  0  0  2  0  0  0  0  0  0
  195.4940  173.9140  142.6800 C   0  0  0  0  0  2  0  0  0  0  0  0
  193.2580  173.5220  141.6120 N   0  0  0  0  0  0  0  0  0  0  0  0
  195.3990  174.9510  143.7970 C   0  0  0  0  0  2  0  0  0  0  0  0
  193.6920  172.5070  143.9730 C   0  0  0  0  0  2  0  0  0  0  0  0
  194.2220  173.0790  142.6490 C   0  0  1  0  0  0  0  0  0  0  0  0
  195.0380  175.2340  146.1470 O   0  0  0  0  0  0  0  0  0  0  0  0
  192.9150  176.4890  147.1420 C   0  0  0  0  0  1  0  0  0  0  0  0
  194.9420  177.7960  146.0150 O   0  0  0  0  0  1  0  0  0  0  0  0
  193.9320  176.4480  145.5850 P   0  0  1  0  0  0  0  0  0  0  0  0
  190.4190  172.2720  138.7230 C   0  0  0  0  0  0  0  0  0  0  0  0
  189.9620  171.0450  139.4620 C   0  0  2  0  0  3  0  0  0  0  0  0
  190.4650  170.5370  141.9220 O   0  0  0  0  0  1  0  0  0  0  0  0
  191.1120  173.0820  139.4560 N   0  0  0  0  0  0  0  0  0  0  0  0
  190.5850  171.3310  140.7880 C   0  0  0  0  0  0  0  0  0  0  0  0
  191.2300  172.4840  140.7390 C   0  0  0  0  0  0  0  0  0  0  0  0
  190.5040  169.7480  138.8480 C   0  0  0  0  0  0  0  0  0  0  0  0
  191.8450  169.9090  138.5600 F   0  0  0  0  0  0  0  0  0  0  0  0
  190.3700  168.7130  139.7580 F   0  0  0  0  0  0  0  0  0  0  0  0
  189.8230  169.4220  137.6830 F   0  0  0  0  0  0  0  0  0  0  0  0
  190.0410  172.5950  137.3140 C   0  0  0  0  0  2  0  0  0  0  0  0
  191.2740  172.5430  136.4220 C   0  0  0  0  0  2  0  0  0  0  0  0
  190.5800  174.2490  135.0020 C   0  0  0  0  0  1  0  0  0  0  0  0
  190.8990  172.8370  135.0510 N   0  0  0  0  0  0  0  0  0  0  0  0
  189.6630  172.1210  134.7900 C   0  0  0  0  0  1  0  0  0  0  0  0
  191.1370  176.8820  142.8160 C   0  0  0  0  0  0  0  0  0  0  0  0
  189.8310  174.2840  142.4000 O   0  0  0  0  0  0  0  0  0  0  0  0
  191.7570  175.6360  142.4740 N   0  0  0  0  0  2  0  0  0  0  0  0
  191.8500  177.9150  142.9060 O   0  0  0  0  0  0  0  0  0  0  0  0
  191.0850  174.3770  142.2870 C   0  0  0  0  0  0  0  0  0  0  0  0
  189.6740  176.9860  143.0900 C   0  0  0  0  0  2  0  0  0  0  0  0
  188.9910  177.8000  142.0050 C   0  0  0  0  0  2  0  0  0  0  0  0
  187.5390  177.3710  141.8680 C   0  0  0  0  0  2  0  0  0  0  0  0
  185.3480  179.7190  143.8930 C   0  0  0  0  0  3  0  0  0  0  0  0
  185.4120  179.1130  145.0810 C   0  0  0  0  0  3  0  0  0  0  0  0
  185.8320  179.0430  142.6410 C   0  0  0  0  0  2  0  0  0  0  0  0
  186.0280  177.7810  145.2420 C   0  0  0  0  0  0  0  0  0  0  0  0
  186.7360  177.9260  142.9450 N   0  0  0  0  0  0  0  0  0  0  0  0
  186.6650  177.2350  144.2010 C   0  0  0  0  0  3  0  0  0  0  0  0
  184.7750  176.9030  147.0450 O   0  0  0  0  0  0  0  0  0  0  0  0
  187.0350  176.4080  147.1790 N   0  0  0  0  0  2  0  0  0  0  0  0
  185.9150  177.0150  146.5080 C   0  0  0  0  0  0  0  0  0  0  0  0
  188.3980  176.1930  146.7010 C   0  0  0  0  0  3  0  0  0  0  0  0
  188.9970  174.9170  147.2610 C   0  0  0  0  0  1  0  0  0  0  0  0
  189.2920  177.4000  146.9370 C   0  0  0  0  0  1  0  0  0  0  0  0
  1 33  1  6  0  0  0
  2 10  1  1  0  0  0
  3  2  1  0  0  0  0
  4  6  1  0  0  0  0
  5  7  1  0  0  0  0
  6  1  1  0  0  0  0
  6  9  1  0  0  0  0
  7  2  1  0  0  0  0
  8  3  1  0  0  0  0
  9  4  1  6  0  0  0
  9  5  1  0  0  0  0
  9  8  1  0  0  0  0
 13 12  1  0  0  0  0
 13 10  1  0  0  0  0
 13 11  1  1  0  0  0
 14 17  2  0  0  0  0
 14 15  1  0  0  0  0
 15 20  1  6  0  0  0
 15 18  1  0  0  0  0
 17 19  1  0  0  0  0
 18 16  1  0  0  0  0
 19 18  2  0  0  0  0
 19  1  1  0  0  0  0
 20 22  1  0  0  0  0
 21 20  1  0  0  0  0
 23 20  1  0  0  0  0
 24 14  1  0  0  0  0
 25 24  1  0  0  0  0
 26 27  1  0  0  0  0
 27 25  1  0  0  0  0
 28 27  1  0  0  0  0
 29 32  2  0  0  0  0
 29 34  1  0  0  0  0
 31 29  1  0  0  0  0
 33 30  2  0  0  0  0
 33 31  1  0  0  0  0
 35 34  1  0  0  0  0
 36 35  1  0  0  0  0
 36 41  1  0  0  0  0
 37 38  2  0  0  0  0
 38 40  1  0  0  0  0
 39 41  1  0  0  0  0
 39 37  1  0  0  0  0
 40 45  1  0  0  0  0
 41 42  1  0  0  0  0
 42 40  2  0  0  0  0
 45 43  2  0  0  0  0
 45 44  1  0  0  0  0
 46 48  1  0  0  0  0
 46 44  1  0  0  0  0
 46 47  1  0  0  0  0
M  END
>  <MODEL>
7

>  <REMARK>
 VINA RESULT:      -6.6      1.926      3.246
  Name = 
  15 active torsions:
  status: ('A' for Active; 'I' for Inactive)
    1  A    between atoms: C_1  and  O_36
    2  A    between atoms: C_2  and  N_22
    3  A    between atoms: C_2  and  C_39
    4  A    between atoms: C_2  and  C_42
    5  A    between atoms: C_4  and  C_5
    6  A    between atoms: C_5  and  C_33
    7  A    between atoms: C_9  and  C_13
    8  A    between atoms: C_10  and  C_14
    9  A    between atoms: C_14  and  C_26
   10  A    between atoms: C_17  and  C_26
   11  A    between atoms: C_17  and  N_29
   12  A    between atoms: C_19  and  N_35
   13  A    between atoms: N_25  and  C_33
   14  A    between atoms: C_28  and  C_44
   15  A    between atoms: O_36  and  P_43
                            x       y       z     vdW  Elec       q    Type
                         _______ _______ _______ _____ _____    ______ ____

>  <TORSDO>
F 15

$$$$
=
 OpenBabel11042414243D

 48 51  0  0  1  0  0  0  0  0999 V2000
  192.1320  174.0540  141.7960 C   0  0  2  0  0  3  0  0  0  0  0  0
  192.1630  172.0950  137.5630 C   0  0  1  0  0  3  0  0  0  0  0  0
  192.5300  173.4250  138.2240 C   0  0  0  0  0  2  0  0  0  0  0  0
  193.3830  172.0380  141.6970 C   0  0  0  0  0  2  0  0  0  0  0  0
  192.2590  170.8740  139.7600 C   0  0  0  0  0  2  0  0  0  0  0  0
  192.0230  172.6130  141.5550 N   0  0  0  0  0  0  0  0  0  0  0  0
  191.3930  171.2100  138.5490 C   0  0  0  0  0  2  0  0  0  0  0  0
  193.4280  173.2050  139.4410 C   0  0  0  0  0  2  0  0  0  0  0  0
  192.7980  172.1590  140.3740 C   0  0  1  0  0  0  0  0  0  0  0  0
  191.3750  172.3410  136.4390 O   0  0  0  0  0  0  0  0  0  0  0  0
  189.2030  173.8430  136.7600 C   0  0  0  0  0  1  0  0  0  0  0  0
  189.1560  171.5380  135.4280 O   0  0  0  0  0  1  0  0  0  0  0  0
  189.7440  172.0760  136.9720 P   0  0  1  0  0  0  0  0  0  0  0  0
  194.4810  174.8330  144.4400 C   0  0  0  0  0  0  0  0  0  0  0  0
  193.4050  174.2720  145.3290 C   0  0  2  0  0  3  0  0  0  0  0  0
  191.1400  173.3920  144.5200 O   0  0  0  0  0  1  0  0  0  0  0  0
  194.1590  174.8350  143.1860 N   0  0  0  0  0  0  0  0  0  0  0  0
  192.3760  173.9800  144.2870 C   0  0  0  0  0  0  0  0  0  0  0  0
  192.8390  174.3190  143.0950 C   0  0  0  0  0  0  0  0  0  0  0  0
  192.8970  175.2910  146.3580 C   0  0  0  0  0  0  0  0  0  0  0  0
  192.2570  174.6190  147.3820 F   0  0  0  0  0  0  0  0  0  0  0  0
  193.9700  175.9860  146.8900 F   0  0  0  0  0  0  0  0  0  0  0  0
  192.0130  176.1900  145.7790 F   0  0  0  0  0  0  0  0  0  0  0  0
  195.8300  175.2590  144.9180 C   0  0  0  0  0  2  0  0  0  0  0  0
  196.4450  174.1650  145.7800 C   0  0  0  0  0  2  0  0  0  0  0  0
  197.9260  174.5500  144.0290 C   0  0  0  0  0  1  0  0  0  0  0  0
  197.6750  173.6930  145.1700 N   0  0  0  0  0  0  0  0  0  0  0  0
  197.4010  172.3680  144.6430 C   0  0  0  0  0  1  0  0  0  0  0  0
  189.3510  176.6880  142.5390 C   0  0  0  0  0  0  0  0  0  0  0  0
  189.8010  174.0600  141.3060 O   0  0  0  0  0  0  0  0  0  0  0  0
  190.5870  175.9690  142.4380 N   0  0  0  0  0  2  0  0  0  0  0  0
  189.3510  177.8340  143.0590 O   0  0  0  0  0  0  0  0  0  0  0  0
  190.7690  174.6760  141.8340 C   0  0  0  0  0  0  0  0  0  0  0  0
  188.0600  176.1090  142.0650 C   0  0  0  0  0  2  0  0  0  0  0  0
  187.3040  177.1220  141.2240 C   0  0  0  0  0  2  0  0  0  0  0  0
  185.8520  177.1860  141.6660 C   0  0  0  0  0  2  0  0  0  0  0  0
  185.5670  179.9470  144.2570 C   0  0  0  0  0  3  0  0  0  0  0  0
  185.7620  179.2310  145.3670 C   0  0  0  0  0  3  0  0  0  0  0  0
  185.3080  179.2850  142.9320 C   0  0  0  0  0  2  0  0  0  0  0  0
  185.8080  177.7560  145.3420 C   0  0  0  0  0  0  0  0  0  0  0  0
  185.7330  177.8800  142.9390 N   0  0  0  0  0  0  0  0  0  0  0  0
  185.7990  177.1300  144.1600 C   0  0  0  0  0  3  0  0  0  0  0  0
  184.7170  176.7830  147.2020 O   0  0  0  0  0  0  0  0  0  0  0  0
  186.9970  176.3680  147.1610 N   0  0  0  0  0  2  0  0  0  0  0  0
  185.8120  176.9520  146.5890 C   0  0  0  0  0  0  0  0  0  0  0  0
  188.3290  176.2160  146.5830 C   0  0  0  0  0  3  0  0  0  0  0  0
  189.0080  174.9450  147.0550 C   0  0  0  0  0  1  0  0  0  0  0  0
  189.1990  177.4450  146.7980 C   0  0  0  0  0  1  0  0  0  0  0  0
  1 33  1  1  0  0  0
  1 19  1  0  0  0  0
  2 10  1  6  0  0  0
  2  3  1  0  0  0  0
  2  7  1  0  0  0  0
  3  8  1  0  0  0  0
  5  9  1  0  0  0  0
  6  4  1  0  0  0  0
  6  1  1  0  0  0  0
  7  5  1  0  0  0  0
  9  8  1  6  0  0  0
  9  6  1  0  0  0  0
  9  4  1  0  0  0  0
 10 13  1  0  0  0  0
 12 13  1  0  0  0  0
 13 11  1  6  0  0  0
 14 24  1  0  0  0  0
 14 15  1  0  0  0  0
 15 20  1  1  0  0  0
 17 14  2  0  0  0  0
 18 16  1  0  0  0  0
 18 15  1  0  0  0  0
 19 17  1  0  0  0  0
 19 18  2  0  0  0  0
 20 22  1  0  0  0  0
 20 21  1  0  0  0  0
 23 20  1  0  0  0  0
 24 25  1  0  0  0  0
 26 27  1  0  0  0  0
 27 25  1  0  0  0  0
 28 27  1  0  0  0  0
 29 32  2  0  0  0  0
 30 33  2  0  0  0  0
 31 29  1  0  0  0  0
 33 31  1  0  0  0  0
 34 29  1  0  0  0  0
 35 36  1  0  0  0  0
 35 34  1  0  0  0  0
 36 41  1  0  0  0  0
 37 38  2  0  0  0  0
 39 41  1  0  0  0  0
 39 37  1  0  0  0  0
 40 38  1  0  0  0  0
 40 45  1  0  0  0  0
 41 42  1  0  0  0  0
 42 40  2  0  0  0  0
 45 44  1  0  0  0  0
 45 43  2  0  0  0  0
 46 48  1  0  0  0  0
 46 47  1  0  0  0  0
 46 44  1  0  0  0  0
M  END
>  <MODEL>
8

>  <REMARK>
 VINA RESULT:      -6.6      3.810      7.315
  Name = 
  15 active torsions:
  status: ('A' for Active; 'I' for Inactive)
    1  A    between atoms: C_1  and  O_36
    2  A    between atoms: C_2  and  N_22
    3  A    between atoms: C_2  and  C_39
    4  A    between atoms: C_2  and  C_42
    5  A    between atoms: C_4  and  C_5
    6  A    between atoms: C_5  and  C_33
    7  A    between atoms: C_9  and  C_13
    8  A    between atoms: C_10  and  C_14
    9  A    between atoms: C_14  and  C_26
   10  A    between atoms: C_17  and  C_26
   11  A    between atoms: C_17  and  N_29
   12  A    between atoms: C_19  and  N_35
   13  A    between atoms: N_25  and  C_33
   14  A    between atoms: C_28  and  C_44
   15  A    between atoms: O_36  and  P_43
                            x       y       z     vdW  Elec       q    Type
                         _______ _______ _______ _____ _____    ______ ____

>  <TORSDO>
F 15

$$$$
=
 OpenBabel11042414243D

 48 51  0  0  1  0  0  0  0  0999 V2000
  194.0480  174.4600  142.6900 C   0  0  2  0  0  3  0  0  0  0  0  0
  192.9020  175.8190  147.0020 C   0  0  1  0  0  3  0  0  0  0  0  0
  193.0340  174.5260  146.1940 C   0  0  0  0  0  2  0  0  0  0  0  0
  195.7430  175.7330  143.7610 C   0  0  0  0  0  2  0  0  0  0  0  0
  194.3670  177.0800  145.3920 C   0  0  0  0  0  2  0  0  0  0  0  0
  194.3530  175.7810  143.2450 N   0  0  0  0  0  0  0  0  0  0  0  0
  193.0020  177.0340  146.0740 C   0  0  0  0  0  2  0  0  0  0  0  0
  194.3870  174.4540  145.4880 C   0  0  0  0  0  2  0  0  0  0  0  0
  194.6370  175.7510  144.7010 C   0  0  1  0  0  0  0  0  0  0  0  0
  191.6700  175.8290  147.6580 O   0  0  0  0  0  0  0  0  0  0  0  0
  189.3130  174.8270  146.9380 C   0  0  0  0  0  1  0  0  0  0  0  0
  189.7100  177.4400  147.2670 O   0  0  0  0  0  1  0  0  0  0  0  0
  190.5060  176.1540  146.4110 P   0  0  1  0  0  0  0  0  0  0  0  0
  194.2470  174.5890  139.0760 C   0  0  0  0  0  0  0  0  0  0  0  0
  195.4890  173.7670  139.2850 C   0  0  2  0  0  3  0  0  0  0  0  0
  196.4120  173.0490  141.5640 O   0  0  0  0  0  1  0  0  0  0  0  0
  193.6590  174.9160  140.1810 N   0  0  0  0  0  0  0  0  0  0  0  0
  195.4890  173.7270  140.7770 C   0  0  0  0  0  0  0  0  0  0  0  0
  194.4450  174.3920  141.2420 C   0  0  0  0  0  0  0  0  0  0  0  0
  196.7490  174.4490  138.7360 C   0  0  0  0  0  0  0  0  0  0  0  0
  196.8160  174.2470  137.3710 F   0  0  0  0  0  0  0  0  0  0  0  0
  196.6810  175.8110  138.9770 F   0  0  0  0  0  0  0  0  0  0  0  0
  197.8940  173.9380  139.3290 F   0  0  0  0  0  0  0  0  0  0  0  0
  193.6750  174.9240  137.7380 C   0  0  0  0  0  2  0  0  0  0  0  0
  192.3250  174.2420  137.5660 C   0  0  0  0  0  2  0  0  0  0  0  0
  192.2680  172.4250  136.1150 C   0  0  0  0  0  1  0  0  0  0  0  0
  192.5060  172.8040  137.4930 N   0  0  0  0  0  0  0  0  0  0  0  0
  191.4420  172.2050  138.2790 C   0  0  0  0  0  1  0  0  0  0  0  0
  190.7390  172.3940  142.7800 C   0  0  0  0  0  0  0  0  0  0  0  0
  191.7940  175.1190  143.0820 O   0  0  0  0  0  0  0  0  0  0  0  0
  192.1040  172.8210  142.6750 N   0  0  0  0  0  2  0  0  0  0  0  0
  190.4720  171.1690  142.6720 O   0  0  0  0  0  0  0  0  0  0  0  0
  192.5840  174.1700  142.8190 C   0  0  0  0  0  0  0  0  0  0  0  0
  189.6240  173.3620  142.9950 C   0  0  0  0  0  2  0  0  0  0  0  0
  188.8490  173.5680  141.7050 C   0  0  0  0  0  2  0  0  0  0  0  0
  187.4430  174.0510  142.0150 C   0  0  0  0  0  2  0  0  0  0  0  0
  188.5370  177.6790  142.2610 C   0  0  0  0  0  3  0  0  0  0  0  0
  187.5440  178.1600  143.0140 C   0  0  0  0  0  3  0  0  0  0  0  0
  188.4540  176.3180  141.6290 C   0  0  0  0  0  2  0  0  0  0  0  0
  186.3460  177.3550  143.3250 C   0  0  0  0  0  0  0  0  0  0  0  0
  187.4380  175.4810  142.2800 N   0  0  0  0  0  0  0  0  0  0  0  0
  186.3220  176.0670  142.9670 C   0  0  0  0  0  3  0  0  0  0  0  0
  184.0920  178.0700  143.2970 O   0  0  0  0  0  0  0  0  0  0  0  0
  185.1350  178.4210  145.3370 N   0  0  0  0  0  2  0  0  0  0  0  0
  185.1530  177.9500  143.9770 C   0  0  0  0  0  0  0  0  0  0  0  0
  186.1150  178.2240  146.4010 C   0  0  0  0  0  3  0  0  0  0  0  0
  186.1300  176.7900  146.8940 C   0  0  0  0  0  1  0  0  0  0  0  0
  185.9460  179.2200  147.5370 C   0  0  0  0  0  1  0  0  0  0  0  0
  1 33  1  6  0  0  0
  1  6  1  0  0  0  0
  2 10  1  6  0  0  0
  3  2  1  0  0  0  0
  5  7  1  0  0  0  0
  6  4  1  0  0  0  0
  6  9  1  0  0  0  0
  7  2  1  0  0  0  0
  8  3  1  0  0  0  0
  9  4  1  6  0  0  0
  9  5  1  0  0  0  0
  9  8  1  0  0  0  0
 13 11  1  1  0  0  0
 13 12  1  0  0  0  0
 13 10  1  0  0  0  0
 14 15  1  0  0  0  0
 14 17  2  0  0  0  0
 15 20  1  1  0  0  0
 15 18  1  0  0  0  0
 17 19  1  0  0  0  0
 18 19  2  0  0  0  0
 18 16  1  0  0  0  0
 19  1  1  0  0  0  0
 20 22  1  0  0  0  0
 20 23  1  0  0  0  0
 21 20  1  0  0  0  0
 24 14  1  0  0  0  0
 25 24  1  0  0  0  0
 26 27  1  0  0  0  0
 27 25  1  0  0  0  0
 27 28  1  0  0  0  0
 29 34  1  0  0  0  0
 31 29  1  0  0  0  0
 31 33  1  0  0  0  0
 32 29  2  0  0  0  0
 33 30  2  0  0  0  0
 35 36  1  0  0  0  0
 35 34  1  0  0  0  0
 36 41  1  0  0  0  0
 37 38  2  0  0  0  0
 38 40  1  0  0  0  0
 39 37  1  0  0  0  0
 39 41  1  0  0  0  0
 40 45  1  0  0  0  0
 41 42  1  0  0  0  0
 42 40  2  0  0  0  0
 43 45  2  0  0  0  0
 44 46  1  0  0  0  0
 45 44  1  0  0  0  0
 46 47  1  0  0  0  0
 46 48  1  0  0  0  0
M  END
>  <MODEL>
9

>  <REMARK>
 VINA RESULT:      -6.4      3.096      4.874
  Name = 
  15 active torsions:
  status: ('A' for Active; 'I' for Inactive)
    1  A    between atoms: C_1  and  O_36
    2  A    between atoms: C_2  and  N_22
    3  A    between atoms: C_2  and  C_39
    4  A    between atoms: C_2  and  C_42
    5  A    between atoms: C_4  and  C_5
    6  A    between atoms: C_5  and  C_33
    7  A    between atoms: C_9  and  C_13
    8  A    between atoms: C_10  and  C_14
    9  A    between atoms: C_14  and  C_26
   10  A    between atoms: C_17  and  C_26
   11  A    between atoms: C_17  and  N_29
   12  A    between atoms: C_19  and  N_35
   13  A    between atoms: N_25  and  C_33
   14  A    between atoms: C_28  and  C_44
   15  A    between atoms: O_36  and  P_43
                            x       y       z     vdW  Elec       q    Type
                         _______ _______ _______ _____ _____    ______ ____

>  <TORSDO>
F 15

$$$$
