=
 OpenBabel11042415423D

 46 50  0  0  1  0  0  0  0  0999 V2000
  193.5950  173.1620  145.3590 C   0  0  0  0  0  0  0  0  0  0  0  0
  192.7430  171.3780  143.9590 C   0  0  0  0  0  3  0  0  0  0  0  0
  191.5830  173.5470  144.5060 C   0  0  0  0  0  0  0  0  0  0  0  0
  191.9890  174.6170  145.3020 C   0  0  0  0  0  0  0  0  0  0  0  0
  194.9370  171.1990  145.0250 C   0  0  0  0  0  3  0  0  0  0  0  0
  192.6150  172.6310  144.5550 C   0  0  0  0  0  0  0  0  0  0  0  0
  194.7790  172.4660  145.6160 C   0  0  0  0  0  3  0  0  0  0  0  0
  193.2170  174.3740  145.8170 N   0  0  0  0  0  0  0  0  0  0  0  0
  193.9240  170.6540  144.2070 C   0  0  0  0  0  0  0  0  0  0  0  0
  194.4970  168.3920  144.5500 O   0  0  0  0  0  1  0  0  0  0  0  0
  194.1190  169.3190  143.5800 C   0  0  0  0  0  2  0  0  0  0  0  0
  193.9110  175.2390  146.6820 N   0  0  0  0  0  2  0  0  0  0  0  0
  195.0850  176.0000  146.2810 C   0  0  0  0  0  2  0  0  0  0  0  0
  194.7980  176.7800  145.0060 C   0  0  0  0  0  2  0  0  0  0  0  0
  195.7160  176.3610  143.9020 C   0  0  0  0  0  0  0  0  0  0  0  0
  196.6550  177.0730  143.5830 O   0  0  0  0  0  0  0  0  0  0  0  0
  195.4420  175.0880  143.1530 C   0  0  0  0  0  2  0  0  0  0  0  0
  195.7360  175.1150  139.7640 O   0  0  0  0  0  0  0  0  0  0  0  0
  193.3820  173.9570  140.0260 C   0  0  0  0  0  2  0  0  0  0  0  0
  193.3630  176.1220  142.2450 C   0  0  0  0  0  1  0  0  0  0  0  0
  195.1090  172.7940  141.4050 C   0  0  0  0  0  1  0  0  0  0  0  0
  195.3650  175.9940  140.7890 C   0  0  0  0  0  2  0  0  0  0  0  0
  194.3180  174.9520  138.7940 S   0  0  0  0  0  0  0  0  0  0  0  0
  194.5720  175.2680  141.8930 C   0  0  1  0  0  0  0  0  0  0  0  0
  194.0480  173.8900  141.4060 C   0  0  1  0  0  3  0  0  0  0  0  0
  191.1730  175.8330  145.6130 C   0  0  0  0  0  2  0  0  0  0  0  0
  188.9290  176.3580  146.5730 C   0  0  0  0  0  1  0  0  0  0  0  0
  190.8090  175.9370  147.9620 O   0  0  0  0  0  1  0  0  0  0  0  0
  190.2100  175.5630  146.7590 C   0  0  2  0  0  3  0  0  0  0  0  0
  190.2860  173.3940  143.7820 C   0  0  0  0  0  2  0  0  0  0  0  0
  190.4390  173.8360  142.3380 C   0  0  0  0  0  2  0  0  0  0  0  0
  187.5760  175.7840  140.9500 N   0  0  0  0  0  0  0  0  0  0  0  0
  188.0380  176.9830  141.6300 C   0  0  2  0  0  3  0  0  0  0  0  0
  189.5210  176.5470  142.6100 S   0  0  0  0  0  0  0  0  0  0  0  0
  188.1210  173.3470  140.5290 C   0  0  0  0  0  1  0  0  0  0  0  0
  188.3930  174.6530  141.1910 C   0  0  0  0  0  0  0  0  0  0  0  0
  189.4150  174.8690  142.0020 C   0  0  1  0  0  3  0  0  0  0  0  0
  185.7210  177.9890  141.9740 N   0  0  0  0  0  0  0  0  0  0  0  0
  181.8520  178.2610  140.5190 C   0  0  0  0  0  1  0  0  0  0  0  0
  185.5540  178.1170  140.5270 C   0  0  0  0  0  2  0  0  0  0  0  0
  184.7160  178.5930  142.8470 C   0  0  0  0  0  2  0  0  0  0  0  0
  186.9650  177.5270  142.5240 C   0  0  0  0  0  0  0  0  0  0  0  0
  183.1960  178.6240  140.9290 N   0  0  0  0  0  0  0  0  0  0  0  0
  183.3220  178.2450  142.3350 C   0  0  0  0  0  2  0  0  0  0  0  0
  184.1110  177.7960  140.1470 C   0  0  0  0  0  2  0  0  0  0  0  0
  187.1700  177.5960  143.7670 O   0  0  0  0  0  0  0  0  0  0  0  0
  1  7  1  0  0  0  0
  1  8  1  0  0  0  0
  2  9  2  0  0  0  0
  2  6  1  0  0  0  0
  3  6  1  0  0  0  0
  3  4  2  0  0  0  0
  4 26  1  0  0  0  0
  4  8  1  0  0  0  0
  5  7  2  0  0  0  0
  6  1  2  0  0  0  0
  8 12  1  0  0  0  0
  9  5  1  0  0  0  0
 11  9  1  0  0  0  0
 11 10  1  0  0  0  0
 13 12  1  0  0  0  0
 14 13  1  0  0  0  0
 15 14  1  0  0  0  0
 16 15  2  0  0  0  0
 17 15  1  0  0  0  0
 18 22  1  0  0  0  0
 19 25  1  0  0  0  0
 22 24  1  0  0  0  0
 23 18  1  0  0  0  0
 23 19  1  0  0  0  0
 24 20  1  1  0  0  0
 24 17  1  0  0  0  0
 25 21  1  6  0  0  0
 25 24  1  0  0  0  0
 26 29  1  0  0  0  0
 29 27  1  6  0  0  0
 29 28  1  0  0  0  0
 30  3  1  0  0  0  0
 31 30  1  0  0  0  0
 32 36  2  0  0  0  0
 32 33  1  0  0  0  0
 33 42  1  1  0  0  0
 33 34  1  0  0  0  0
 35 36  1  0  0  0  0
 36 37  1  0  0  0  0
 37 31  1  6  0  0  0
 37 34  1  0  0  0  0
 38 42  1  0  0  0  0
 38 41  1  0  0  0  0
 39 43  1  0  0  0  0
 40 38  1  0  0  0  0
 42 46  2  0  0  0  0
 43 44  1  0  0  0  0
 44 41  1  0  0  0  0
 45 40  1  0  0  0  0
 45 43  1  0  0  0  0
M  END
>  <MODEL>
1

>  <REMARK>
 VINA RESULT:      -6.3      0.000      0.000
  Name = 
  13 active torsions:
  status: ('A' for Active; 'I' for Inactive)
    1  A    between atoms: N_9  and  N_34
    2  A    between atoms: N_9  and  C_36
    3  A    between atoms: C_10  and  C_29
    4  A    between atoms: C_12  and  C_40
    5  A    between atoms: C_15  and  C_17
    6  A    between atoms: C_15  and  C_32
    7  A    between atoms: C_23  and  C_27
    8  A    between atoms: C_23  and  C_36
    9  A    between atoms: C_24  and  C_38
   10  A    between atoms: C_27  and  C_45
   11  A    between atoms: C_39  and  C_43
   12  A    between atoms: C_40  and  C_43
   13  A    between atoms: C_44  and  C_45
                            x       y       z     vdW  Elec       q    Type
                         _______ _______ _______ _____ _____    ______ ____

>  <TORSDO>
F 13

$$$$
=
 OpenBabel11042415423D

 46 50  0  0  1  0  0  0  0  0999 V2000
  187.7050  177.7150  143.8320 C   0  0  0  0  0  0  0  0  0  0  0  0
  189.9920  177.1080  144.3520 C   0  0  0  0  0  3  0  0  0  0  0  0
  187.9710  176.7540  145.8150 C   0  0  0  0  0  0  0  0  0  0  0  0
  186.6310  177.0760  145.6040 C   0  0  0  0  0  0  0  0  0  0  0  0
  189.4290  178.1870  142.2300 C   0  0  0  0  0  3  0  0  0  0  0  0
  188.6380  177.1680  144.6800 C   0  0  0  0  0  0  0  0  0  0  0  0
  188.0700  178.2360  142.5890 C   0  0  0  0  0  3  0  0  0  0  0  0
  186.4780  177.6600  144.3930 N   0  0  0  0  0  0  0  0  0  0  0  0
  190.3870  177.6330  143.1080 C   0  0  0  0  0  0  0  0  0  0  0  0
  192.1990  176.2530  142.4980 O   0  0  0  0  0  1  0  0  0  0  0  0
  191.8170  177.5770  142.7020 C   0  0  0  0  0  2  0  0  0  0  0  0
  185.2570  178.1290  143.8750 N   0  0  0  0  0  2  0  0  0  0  0  0
  184.6940  177.6710  142.6140 C   0  0  0  0  0  2  0  0  0  0  0  0
  183.2490  178.1300  142.4850 C   0  0  0  0  0  2  0  0  0  0  0  0
  182.8790  178.3410  141.0510 C   0  0  0  0  0  0  0  0  0  0  0  0
  183.6820  178.8390  140.2770 O   0  0  0  0  0  0  0  0  0  0  0  0
  181.4950  177.9900  140.5830 C   0  0  0  0  0  2  0  0  0  0  0  0
  179.3590  180.3940  139.4760 O   0  0  0  0  0  0  0  0  0  0  0  0
  177.8330  179.1900  141.2580 C   0  0  0  0  0  2  0  0  0  0  0  0
  180.6320  179.1850  142.5930 C   0  0  0  0  0  1  0  0  0  0  0  0
  178.7860  177.5450  139.6380 C   0  0  0  0  0  1  0  0  0  0  0  0
  180.4240  180.2750  140.3760 C   0  0  0  0  0  2  0  0  0  0  0  0
  178.0070  180.8350  140.4530 S   0  0  0  0  0  0  0  0  0  0  0  0
  180.3890  178.9230  141.1140 C   0  0  1  0  0  0  0  0  0  0  0  0
  179.0030  178.2360  140.9800 C   0  0  1  0  0  3  0  0  0  0  0  0
  185.5210  176.8790  146.5880 C   0  0  0  0  0  2  0  0  0  0  0  0
  183.9900  178.8480  146.7000 C   0  0  0  0  0  1  0  0  0  0  0  0
  186.2980  179.0350  147.2280 O   0  0  0  0  0  1  0  0  0  0  0  0
  185.2040  178.1760  147.3180 C   0  0  2  0  0  3  0  0  0  0  0  0
  188.5750  176.1300  147.0300 C   0  0  0  0  0  2  0  0  0  0  0  0
  188.9480  174.6870  146.7450 C   0  0  0  0  0  2  0  0  0  0  0  0
  192.1870  173.9050  145.0660 N   0  0  0  0  0  0  0  0  0  0  0  0
  192.9170  174.6230  146.0980 C   0  0  2  0  0  3  0  0  0  0  0  0
  191.7000  175.3400  147.2630 S   0  0  0  0  0  0  0  0  0  0  0  0
  189.8700  173.1840  144.3420 C   0  0  0  0  0  1  0  0  0  0  0  0
  190.7840  173.9210  145.2570 C   0  0  0  0  0  0  0  0  0  0  0  0
  190.3760  174.5970  146.3180 C   0  0  1  0  0  3  0  0  0  0  0  0
  194.9210  175.3800  144.7180 N   0  0  0  0  0  0  0  0  0  0  0  0
  197.5460  174.4030  141.6660 C   0  0  0  0  0  1  0  0  0  0  0  0
  195.4170  174.0050  144.6710 C   0  0  0  0  0  2  0  0  0  0  0  0
  195.7780  176.4460  144.2010 C   0  0  0  0  0  2  0  0  0  0  0  0
  193.7560  175.7060  145.4910 C   0  0  0  0  0  0  0  0  0  0  0  0
  197.0270  174.7320  142.9800 N   0  0  0  0  0  0  0  0  0  0  0  0
  196.3580  176.0260  142.8540 C   0  0  0  0  0  2  0  0  0  0  0  0
  196.0190  173.7230  143.2960 C   0  0  0  0  0  2  0  0  0  0  0  0
  193.4430  176.9130  145.6820 O   0  0  0  0  0  0  0  0  0  0  0  0
  1  8  1  0  0  0  0
  1  6  1  0  0  0  0
  2  6  2  0  0  0  0
  3 30  1  0  0  0  0
  4  3  2  0  0  0  0
  4 26  1  0  0  0  0
  5  7  1  0  0  0  0
  5  9  2  0  0  0  0
  6  3  1  0  0  0  0
  7  1  2  0  0  0  0
  8  4  1  0  0  0  0
  9  2  1  0  0  0  0
 10 11  1  0  0  0  0
 11  9  1  0  0  0  0
 12  8  1  0  0  0  0
 13 12  1  0  0  0  0
 14 13  1  0  0  0  0
 15 14  1  0  0  0  0
 16 15  2  0  0  0  0
 17 15  1  0  0  0  0
 17 24  1  0  0  0  0
 18 22  1  0  0  0  0
 18 23  1  0  0  0  0
 22 24  1  0  0  0  0
 23 19  1  0  0  0  0
 24 20  1  1  0  0  0
 25 21  1  6  0  0  0
 25 24  1  0  0  0  0
 25 19  1  0  0  0  0
 26 29  1  0  0  0  0
 28 29  1  0  0  0  0
 29 27  1  6  0  0  0
 31 30  1  0  0  0  0
 32 36  2  0  0  0  0
 32 33  1  0  0  0  0
 33 42  1  6  0  0  0
 33 34  1  0  0  0  0
 35 36  1  0  0  0  0
 36 37  1  0  0  0  0
 37 31  1  1  0  0  0
 37 34  1  0  0  0  0
 38 42  1  0  0  0  0
 39 43  1  0  0  0  0
 40 38  1  0  0  0  0
 41 38  1  0  0  0  0
 42 46  2  0  0  0  0
 43 45  1  0  0  0  0
 44 43  1  0  0  0  0
 44 41  1  0  0  0  0
 45 40  1  0  0  0  0
M  END
>  <MODEL>
2

>  <REMARK>
 VINA RESULT:      -6.1      3.450     10.657
  Name = 
  13 active torsions:
  status: ('A' for Active; 'I' for Inactive)
    1  A    between atoms: N_9  and  N_34
    2  A    between atoms: N_9  and  C_36
    3  A    between atoms: C_10  and  C_29
    4  A    between atoms: C_12  and  C_40
    5  A    between atoms: C_15  and  C_17
    6  A    between atoms: C_15  and  C_32
    7  A    between atoms: C_23  and  C_27
    8  A    between atoms: C_23  and  C_36
    9  A    between atoms: C_24  and  C_38
   10  A    between atoms: C_27  and  C_45
   11  A    between atoms: C_39  and  C_43
   12  A    between atoms: C_40  and  C_43
   13  A    between atoms: C_44  and  C_45
                            x       y       z     vdW  Elec       q    Type
                         _______ _______ _______ _____ _____    ______ ____

>  <TORSDO>
F 13

$$$$
=
 OpenBabel11042415423D

 46 50  0  0  1  0  0  0  0  0999 V2000
  192.9280  173.2840  145.3260 C   0  0  0  0  0  0  0  0  0  0  0  0
  191.7270  171.6270  144.0290 C   0  0  0  0  0  3  0  0  0  0  0  0
  190.9470  173.9580  144.5850 C   0  0  0  0  0  0  0  0  0  0  0  0
  191.5610  174.9670  145.3250 C   0  0  0  0  0  0  0  0  0  0  0  0
  193.9320  171.1340  144.9660 C   0  0  0  0  0  3  0  0  0  0  0  0
  191.8290  172.8960  144.5970 C   0  0  0  0  0  0  0  0  0  0  0  0
  194.0060  172.4210  145.5300 C   0  0  0  0  0  3  0  0  0  0  0  0
  192.7670  174.5490  145.7720 N   0  0  0  0  0  0  0  0  0  0  0  0
  192.7980  170.7360  144.2260 C   0  0  0  0  0  0  0  0  0  0  0  0
  191.9850  169.4010  142.4590 O   0  0  0  0  0  1  0  0  0  0  0  0
  192.7470  169.3760  143.6250 C   0  0  0  0  0  2  0  0  0  0  0  0
  193.6380  175.3130  146.5700 N   0  0  0  0  0  2  0  0  0  0  0  0
  194.9590  175.7390  146.1320 C   0  0  0  0  0  2  0  0  0  0  0  0
  194.8400  176.7110  144.9670 C   0  0  0  0  0  2  0  0  0  0  0  0
  195.6060  176.2220  143.7790 C   0  0  0  0  0  0  0  0  0  0  0  0
  196.5070  176.8990  143.3100 O   0  0  0  0  0  0  0  0  0  0  0  0
  195.2220  174.9210  143.1340 C   0  0  0  0  0  2  0  0  0  0  0  0
  195.3320  174.7120  139.7400 O   0  0  0  0  0  0  0  0  0  0  0  0
  192.9370  173.7090  140.1980 C   0  0  0  0  0  2  0  0  0  0  0  0
  193.1550  176.0120  142.2640 C   0  0  0  0  0  1  0  0  0  0  0  0
  194.6710  172.5410  141.5640 C   0  0  0  0  0  1  0  0  0  0  0  0
  195.0660  175.6740  140.7210 C   0  0  0  0  0  2  0  0  0  0  0  0
  193.8580  174.5670  138.8560 S   0  0  0  0  0  0  0  0  0  0  0  0
  194.2960  175.0680  141.9100 C   0  0  1  0  0  0  0  0  0  0  0  0
  193.6730  173.6940  141.5450 C   0  0  1  0  0  3  0  0  0  0  0  0
  190.9600  176.2990  145.6510 C   0  0  0  0  0  2  0  0  0  0  0  0
  190.9730  176.9680  148.0560 C   0  0  0  0  0  1  0  0  0  0  0  0
  190.0160  174.9150  147.3410 O   0  0  0  0  0  1  0  0  0  0  0  0
  190.1990  176.2460  146.9670 C   0  0  2  0  0  3  0  0  0  0  0  0
  189.5990  173.9930  143.9440 C   0  0  0  0  0  2  0  0  0  0  0  0
  189.7360  174.2130  142.4490 C   0  0  0  0  0  2  0  0  0  0  0  0
  187.4490  176.4960  140.5830 N   0  0  0  0  0  0  0  0  0  0  0  0
  187.5410  177.4850  141.6450 C   0  0  2  0  0  3  0  0  0  0  0  0
  188.5890  176.7960  142.9780 S   0  0  0  0  0  0  0  0  0  0  0  0
  188.2850  174.2220  139.8450 C   0  0  0  0  0  1  0  0  0  0  0  0
  188.2000  175.3240  140.8440 C   0  0  0  0  0  0  0  0  0  0  0  0
  188.8350  175.3170  142.0040 C   0  0  1  0  0  3  0  0  0  0  0  0
  185.8940  177.7140  143.5760 N   0  0  0  0  0  0  0  0  0  0  0  0
  185.4440  178.4570  147.6260 C   0  0  0  0  0  1  0  0  0  0  0  0
  186.8620  177.1020  144.4840 C   0  0  0  0  0  2  0  0  0  0  0  0
  184.5390  177.9630  144.0670 C   0  0  0  0  0  2  0  0  0  0  0  0
  186.1790  177.8180  142.1720 C   0  0  0  0  0  0  0  0  0  0  0  0
  185.4260  177.7830  146.3420 N   0  0  0  0  0  0  0  0  0  0  0  0
  184.6080  178.6040  145.4500 C   0  0  0  0  0  2  0  0  0  0  0  0
  186.7990  177.7930  145.8440 C   0  0  0  0  0  2  0  0  0  0  0  0
  185.2730  178.1710  141.3690 O   0  0  0  0  0  0  0  0  0  0  0  0
  1  7  1  0  0  0  0
  1  8  1  0  0  0  0
  2  9  2  0  0  0  0
  2  6  1  0  0  0  0
  3  6  1  0  0  0  0
  3  4  2  0  0  0  0
  4 26  1  0  0  0  0
  4  8  1  0  0  0  0
  5  7  2  0  0  0  0
  6  1  2  0  0  0  0
  8 12  1  0  0  0  0
  9  5  1  0  0  0  0
 10 11  1  0  0  0  0
 11  9  1  0  0  0  0
 13 12  1  0  0  0  0
 14 13  1  0  0  0  0
 15 14  1  0  0  0  0
 16 15  2  0  0  0  0
 17 15  1  0  0  0  0
 18 22  1  0  0  0  0
 19 25  1  0  0  0  0
 22 24  1  0  0  0  0
 23 18  1  0  0  0  0
 23 19  1  0  0  0  0
 24 20  1  1  0  0  0
 24 17  1  0  0  0  0
 25 21  1  6  0  0  0
 25 24  1  0  0  0  0
 26 29  1  0  0  0  0
 29 28  1  0  0  0  0
 29 27  1  1  0  0  0
 30  3  1  0  0  0  0
 31 30  1  0  0  0  0
 32 36  2  0  0  0  0
 32 33  1  0  0  0  0
 33 42  1  1  0  0  0
 33 34  1  0  0  0  0
 35 36  1  0  0  0  0
 36 37  1  0  0  0  0
 37 31  1  6  0  0  0
 37 34  1  0  0  0  0
 38 41  1  0  0  0  0
 38 40  1  0  0  0  0
 40 45  1  0  0  0  0
 41 44  1  0  0  0  0
 42 38  1  0  0  0  0
 43 39  1  0  0  0  0
 44 43  1  0  0  0  0
 45 43  1  0  0  0  0
 46 42  2  0  0  0  0
M  END
>  <MODEL>
3

>  <REMARK>
 VINA RESULT:      -5.9      1.504      2.192
  Name = 
  13 active torsions:
  status: ('A' for Active; 'I' for Inactive)
    1  A    between atoms: N_9  and  N_34
    2  A    between atoms: N_9  and  C_36
    3  A    between atoms: C_10  and  C_29
    4  A    between atoms: C_12  and  C_40
    5  A    between atoms: C_15  and  C_17
    6  A    between atoms: C_15  and  C_32
    7  A    between atoms: C_23  and  C_27
    8  A    between atoms: C_23  and  C_36
    9  A    between atoms: C_24  and  C_38
   10  A    between atoms: C_27  and  C_45
   11  A    between atoms: C_39  and  C_43
   12  A    between atoms: C_40  and  C_43
   13  A    between atoms: C_44  and  C_45
                            x       y       z     vdW  Elec       q    Type
                         _______ _______ _______ _____ _____    ______ ____

>  <TORSDO>
F 13

$$$$
=
 OpenBabel11042415423D

 46 50  0  0  1  0  0  0  0  0999 V2000
  194.6660  174.9540  145.4860 C   0  0  0  0  0  0  0  0  0  0  0  0
  192.3700  174.6640  146.2020 C   0  0  0  0  0  3  0  0  0  0  0  0
  193.7040  173.0940  144.7510 C   0  0  0  0  0  0  0  0  0  0  0  0
  195.0150  173.1830  144.2850 C   0  0  0  0  0  0  0  0  0  0  0  0
  193.6560  176.6350  146.8700 C   0  0  0  0  0  3  0  0  0  0  0  0
  193.4990  174.2280  145.5110 C   0  0  0  0  0  0  0  0  0  0  0  0
  194.7790  176.1710  146.1620 C   0  0  0  0  0  3  0  0  0  0  0  0
  195.5940  174.3190  144.7380 N   0  0  0  0  0  0  0  0  0  0  0  0
  192.4560  175.8910  146.8860 C   0  0  0  0  0  0  0  0  0  0  0  0
  190.1240  176.2430  146.8990 O   0  0  0  0  0  1  0  0  0  0  0  0
  191.2850  176.3930  147.6550 C   0  0  0  0  0  2  0  0  0  0  0  0
  196.9050  174.7280  144.4370 N   0  0  0  0  0  2  0  0  0  0  0  0
  197.2160  175.7820  143.4820 C   0  0  0  0  0  2  0  0  0  0  0  0
  197.7230  175.1810  142.1800 C   0  0  0  0  0  2  0  0  0  0  0  0
  197.1320  175.8820  140.9990 C   0  0  0  0  0  0  0  0  0  0  0  0
  196.1750  176.6260  141.1430 O   0  0  0  0  0  0  0  0  0  0  0  0
  197.6880  175.6220  139.6270 C   0  0  0  0  0  2  0  0  0  0  0  0
  194.9090  174.3670  138.1190 O   0  0  0  0  0  0  0  0  0  0  0  0
  196.7920  173.1940  136.6940 C   0  0  0  0  0  2  0  0  0  0  0  0
  197.9380  173.1420  139.5740 C   0  0  0  0  0  1  0  0  0  0  0  0
  197.1420  175.6650  136.7760 C   0  0  0  0  0  1  0  0  0  0  0  0
  195.6830  174.1200  139.2590 C   0  0  0  0  0  2  0  0  0  0  0  0
  195.0380  172.9250  137.1800 S   0  0  0  0  0  0  0  0  0  0  0  0
  197.1830  174.3190  138.9750 C   0  0  1  0  0  0  0  0  0  0  0  0
  197.4780  174.3390  137.4510 C   0  0  1  0  0  3  0  0  0  0  0  0
  195.6800  172.2120  143.3600 C   0  0  0  0  0  2  0  0  0  0  0  0
  197.6600  170.7230  143.6670 C   0  0  0  0  0  1  0  0  0  0  0  0
  195.4420  169.9090  143.9090 O   0  0  0  0  0  1  0  0  0  0  0  0
  196.2450  171.0270  144.1290 C   0  0  2  0  0  3  0  0  0  0  0  0
  192.7070  172.0220  144.4600 C   0  0  0  0  0  2  0  0  0  0  0  0
  192.1090  172.2240  143.0800 C   0  0  0  0  0  2  0  0  0  0  0  0
  190.6960  175.6350  142.5420 N   0  0  0  0  0  2  0  0  0  0  0  0
  189.6020  175.3460  143.4540 C   0  0  2  0  0  3  0  0  0  0  0  0
  189.7760  173.6140  144.0230 S   0  0  0  0  0  0  0  0  0  0  0  0
  192.8110  174.6740  141.5330 C   0  0  0  0  0  1  0  0  0  0  0  0
  191.5900  174.5500  142.3770 C   0  0  0  0  0  0  0  0  0  0  0  0
  191.2720  173.4600  143.0550 C   0  0  0  0  0  0  0  0  0  0  0  0
  187.2510  176.3280  143.3810 N   0  0  0  0  0  0  0  0  0  0  0  0
  184.7920  179.4260  144.6130 C   0  0  0  0  0  1  0  0  0  0  0  0
  187.3960  176.7960  144.7590 C   0  0  0  0  0  2  0  0  0  0  0  0
  185.9410  176.4410  142.7420 C   0  0  0  0  0  2  0  0  0  0  0  0
  188.2830  175.5390  142.7700 C   0  0  0  0  0  0  0  0  0  0  0  0
  185.3500  178.0980  144.4450 N   0  0  0  0  0  0  0  0  0  0  0  0
  185.3620  177.8270  143.0080 C   0  0  0  0  0  2  0  0  0  0  0  0
  186.7340  178.1630  144.9100 C   0  0  0  0  0  2  0  0  0  0  0  0
  188.0740  174.9820  141.6560 O   0  0  0  0  0  0  0  0  0  0  0  0
  1  6  2  0  0  0  0
  1  7  1  0  0  0  0
  2  9  2  0  0  0  0
  3  6  1  0  0  0  0
  4  8  1  0  0  0  0
  4  3  2  0  0  0  0
  5  9  1  0  0  0  0
  6  2  1  0  0  0  0
  7  5  2  0  0  0  0
  8  1  1  0  0  0  0
  9 11  1  0  0  0  0
 10 11  1  0  0  0  0
 12  8  1  0  0  0  0
 13 12  1  0  0  0  0
 14 13  1  0  0  0  0
 15 16  2  0  0  0  0
 15 14  1  0  0  0  0
 17 15  1  0  0  0  0
 18 22  1  0  0  0  0
 19 23  1  0  0  0  0
 19 25  1  0  0  0  0
 23 18  1  0  0  0  0
 24 22  1  0  0  0  0
 24 20  1  1  0  0  0
 24 17  1  0  0  0  0
 25 21  1  6  0  0  0
 25 24  1  0  0  0  0
 26 29  1  0  0  0  0
 26  4  1  0  0  0  0
 28 29  1  0  0  0  0
 29 27  1  6  0  0  0
 30  3  1  0  0  0  0
 31 30  1  0  0  0  0
 32 33  1  0  0  0  0
 33 42  1  6  0  0  0
 33 34  1  0  0  0  0
 35 36  1  0  0  0  0
 36 32  1  0  0  0  0
 36 37  2  0  0  0  0
 37 31  1  0  0  0  0
 37 34  1  0  0  0  0
 38 40  1  0  0  0  0
 40 45  1  0  0  0  0
 41 44  1  0  0  0  0
 41 38  1  0  0  0  0
 42 38  1  0  0  0  0
 43 39  1  0  0  0  0
 43 45  1  0  0  0  0
 44 43  1  0  0  0  0
 46 42  2  0  0  0  0
M  END
>  <MODEL>
4

>  <REMARK>
 VINA RESULT:      -5.9      2.376      4.765
  Name = 
  13 active torsions:
  status: ('A' for Active; 'I' for Inactive)
    1  A    between atoms: N_9  and  N_34
    2  A    between atoms: N_9  and  C_36
    3  A    between atoms: C_10  and  C_29
    4  A    between atoms: C_12  and  C_40
    5  A    between atoms: C_15  and  C_17
    6  A    between atoms: C_15  and  C_32
    7  A    between atoms: C_23  and  C_27
    8  A    between atoms: C_23  and  C_36
    9  A    between atoms: C_24  and  C_38
   10  A    between atoms: C_27  and  C_45
   11  A    between atoms: C_39  and  C_43
   12  A    between atoms: C_40  and  C_43
   13  A    between atoms: C_44  and  C_45
                            x       y       z     vdW  Elec       q    Type
                         _______ _______ _______ _____ _____    ______ ____

>  <TORSDO>
F 13

$$$$
=
 OpenBabel11042415423D

 46 50  0  0  1  0  0  0  0  0999 V2000
  191.4990  172.5190  144.2680 C   0  0  0  0  0  0  0  0  0  0  0  0
  193.7070  172.0110  145.1250 C   0  0  0  0  0  3  0  0  0  0  0  0
  192.3910  174.1240  145.5130 C   0  0  0  0  0  0  0  0  0  0  0  0
  191.1300  174.5040  145.0580 C   0  0  0  0  0  0  0  0  0  0  0  0
  192.5050  170.4100  143.7180 C   0  0  0  0  0  3  0  0  0  0  0  0
  192.6100  172.8620  145.0010 C   0  0  0  0  0  0  0  0  0  0  0  0
  191.4130  171.2900  143.6100 C   0  0  0  0  0  3  0  0  0  0  0  0
  190.5930  173.5200  144.3000 N   0  0  0  0  0  0  0  0  0  0  0  0
  193.6480  170.7690  144.4650 C   0  0  0  0  0  0  0  0  0  0  0  0
  194.3430  168.6160  145.1320 O   0  0  0  0  0  1  0  0  0  0  0  0
  194.7850  169.8170  144.5800 C   0  0  0  0  0  2  0  0  0  0  0  0
  189.3390  173.5870  143.6660 N   0  0  0  0  0  2  0  0  0  0  0  0
  189.1750  173.8080  142.2370 C   0  0  0  0  0  2  0  0  0  0  0  0
  189.1410  175.2990  141.9350 C   0  0  0  0  0  2  0  0  0  0  0  0
  187.7890  175.7180  141.4520 C   0  0  0  0  0  0  0  0  0  0  0  0
  187.5900  175.8910  140.2600 O   0  0  0  0  0  0  0  0  0  0  0  0
  186.6950  175.9800  142.4480 C   0  0  0  0  0  2  0  0  0  0  0  0
  184.3770  178.1610  143.6480 O   0  0  0  0  0  0  0  0  0  0  0  0
  186.5150  178.9710  144.9620 C   0  0  0  0  0  2  0  0  0  0  0  0
  187.6250  178.2740  142.1530 C   0  0  0  0  0  1  0  0  0  0  0  0
  186.1650  176.5160  145.2520 C   0  0  0  0  0  1  0  0  0  0  0  0
  185.1870  178.0130  142.5160 C   0  0  0  0  0  2  0  0  0  0  0  0
  184.9030  179.6360  144.3730 S   0  0  0  0  0  0  0  0  0  0  0  0
  186.5730  177.4540  142.8850 C   0  0  1  0  0  0  0  0  0  0  0  0
  186.8540  177.5820  144.4070 C   0  0  1  0  0  3  0  0  0  0  0  0
  190.4770  175.8300  145.2990 C   0  0  0  0  0  2  0  0  0  0  0  0
  188.9690  174.9480  147.0820 C   0  0  0  0  0  1  0  0  0  0  0  0
  189.5400  177.2500  146.9620 O   0  0  0  0  0  1  0  0  0  0  0  0
  190.0450  175.9680  146.7500 C   0  0  2  0  0  3  0  0  0  0  0  0
  193.3350  174.9260  146.3470 C   0  0  0  0  0  2  0  0  0  0  0  0
  193.8840  176.0900  145.5420 C   0  0  0  0  0  2  0  0  0  0  0  0
  196.5290  174.5680  143.3960 N   0  0  0  0  0  2  0  0  0  0  0  0
  195.8920  175.0990  142.2020 C   0  0  2  0  0  3  0  0  0  0  0  0
  194.3610  175.9660  142.7100 S   0  0  0  0  0  0  0  0  0  0  0  0
  196.3690  174.4890  145.9220 C   0  0  0  0  0  1  0  0  0  0  0  0
  195.8380  174.8870  144.5890 C   0  0  0  0  0  0  0  0  0  0  0  0
  194.7300  175.5890  144.4190 C   0  0  0  0  0  0  0  0  0  0  0  0
  195.9390  174.0990  139.8580 N   0  0  0  0  0  0  0  0  0  0  0  0
  197.9410  173.9490  136.2350 C   0  0  0  0  0  1  0  0  0  0  0  0
  196.4580  175.3570  139.3230 C   0  0  0  0  0  2  0  0  0  0  0  0
  195.5470  173.0520  138.9160 C   0  0  0  0  0  2  0  0  0  0  0  0
  195.5710  173.9950  141.2420 C   0  0  0  0  0  0  0  0  0  0  0  0
  196.9080  174.1840  137.2260 N   0  0  0  0  0  0  0  0  0  0  0  0
  196.6280  172.8920  137.8520 C   0  0  0  0  0  2  0  0  0  0  0  0
  197.4890  175.0670  138.2350 C   0  0  0  0  0  2  0  0  0  0  0  0
  194.9510  172.9760  141.6550 O   0  0  0  0  0  0  0  0  0  0  0  0
  1  8  1  0  0  0  0
  1  6  1  0  0  0  0
  3 30  1  0  0  0  0
  4 26  1  0  0  0  0
  4  3  2  0  0  0  0
  5  9  2  0  0  0  0
  6  2  2  0  0  0  0
  6  3  1  0  0  0  0
  7  5  1  0  0  0  0
  7  1  2  0  0  0  0
  8  4  1  0  0  0  0
  9 11  1  0  0  0  0
  9  2  1  0  0  0  0
 11 10  1  0  0  0  0
 12  8  1  0  0  0  0
 13 12  1  0  0  0  0
 14 13  1  0  0  0  0
 15 14  1  0  0  0  0
 15 17  1  0  0  0  0
 16 15  2  0  0  0  0
 17 24  1  0  0  0  0
 18 23  1  0  0  0  0
 22 24  1  0  0  0  0
 22 18  1  0  0  0  0
 23 19  1  0  0  0  0
 24 20  1  6  0  0  0
 24 25  1  0  0  0  0
 25 19  1  0  0  0  0
 25 21  1  1  0  0  0
 26 29  1  0  0  0  0
 29 28  1  0  0  0  0
 29 27  1  6  0  0  0
 31 30  1  0  0  0  0
 32 36  1  0  0  0  0
 33 42  1  6  0  0  0
 33 34  1  0  0  0  0
 33 32  1  0  0  0  0
 34 37  1  0  0  0  0
 36 35  1  0  0  0  0
 37 36  2  0  0  0  0
 37 31  1  0  0  0  0
 38 42  1  0  0  0  0
 39 43  1  0  0  0  0
 40 38  1  0  0  0  0
 41 38  1  0  0  0  0
 42 46  2  0  0  0  0
 43 44  1  0  0  0  0
 43 45  1  0  0  0  0
 44 41  1  0  0  0  0
 45 40  1  0  0  0  0
M  END
>  <MODEL>
5

>  <REMARK>
 VINA RESULT:      -5.9      2.888      8.300
  Name = 
  13 active torsions:
  status: ('A' for Active; 'I' for Inactive)
    1  A    between atoms: N_9  and  N_34
    2  A    between atoms: N_9  and  C_36
    3  A    between atoms: C_10  and  C_29
    4  A    between atoms: C_12  and  C_40
    5  A    between atoms: C_15  and  C_17
    6  A    between atoms: C_15  and  C_32
    7  A    between atoms: C_23  and  C_27
    8  A    between atoms: C_23  and  C_36
    9  A    between atoms: C_24  and  C_38
   10  A    between atoms: C_27  and  C_45
   11  A    between atoms: C_39  and  C_43
   12  A    between atoms: C_40  and  C_43
   13  A    between atoms: C_44  and  C_45
                            x       y       z     vdW  Elec       q    Type
                         _______ _______ _______ _____ _____    ______ ____

>  <TORSDO>
F 13

$$$$
=
 OpenBabel11042415423D

 46 50  0  0  1  0  0  0  0  0999 V2000
  191.9060  175.3460  146.1940 C   0  0  0  0  0  0  0  0  0  0  0  0
  189.5050  175.4460  145.8860 C   0  0  0  0  0  3  0  0  0  0  0  0
  191.1250  173.9840  144.6250 C   0  0  0  0  0  0  0  0  0  0  0  0
  192.5100  173.8670  144.7280 C   0  0  0  0  0  0  0  0  0  0  0  0
  190.6190  176.8510  147.5490 C   0  0  0  0  0  3  0  0  0  0  0  0
  190.7590  174.9280  145.5630 C   0  0  0  0  0  0  0  0  0  0  0  0
  191.8710  176.3120  147.2010 C   0  0  0  0  0  3  0  0  0  0  0  0
  192.9780  174.6990  145.6870 N   0  0  0  0  0  0  0  0  0  0  0  0
  189.4430  176.4270  146.8930 C   0  0  0  0  0  0  0  0  0  0  0  0
  187.0980  176.2410  146.7360 O   0  0  0  0  0  1  0  0  0  0  0  0
  188.1280  176.9990  147.2880 C   0  0  0  0  0  2  0  0  0  0  0  0
  194.3330  174.8470  146.0320 N   0  0  0  0  0  2  0  0  0  0  0  0
  195.2320  175.7780  145.3670 C   0  0  0  0  0  2  0  0  0  0  0  0
  196.4200  175.0340  144.7760 C   0  0  0  0  0  2  0  0  0  0  0  0
  196.9800  175.7660  143.5990 C   0  0  0  0  0  0  0  0  0  0  0  0
  196.8650  176.9790  143.5200 O   0  0  0  0  0  0  0  0  0  0  0  0
  197.6360  174.9950  142.4890 C   0  0  0  0  0  2  0  0  0  0  0  0
  195.1220  175.9880  140.4230 O   0  0  0  0  0  0  0  0  0  0  0  0
  196.2610  174.1380  138.9280 C   0  0  0  0  0  2  0  0  0  0  0  0
  196.4110  172.9410  141.7840 C   0  0  0  0  0  1  0  0  0  0  0  0
  197.9410  175.8080  139.7180 C   0  0  0  0  0  1  0  0  0  0  0  0
  195.2990  175.1410  141.5230 C   0  0  0  0  0  2  0  0  0  0  0  0
  194.6210  174.9440  139.1430 S   0  0  0  0  0  0  0  0  0  0  0  0
  196.6520  174.4070  141.4570 C   0  0  1  0  0  0  0  0  0  0  0  0
  197.2700  174.4760  140.0340 C   0  0  1  0  0  3  0  0  0  0  0  0
  193.3800  173.0060  143.8650 C   0  0  0  0  0  2  0  0  0  0  0  0
  194.7700  171.3890  145.1640 C   0  0  0  0  0  1  0  0  0  0  0  0
  193.3940  170.6810  143.3610 O   0  0  0  0  0  1  0  0  0  0  0  0
  193.4630  171.5910  144.4160 C   0  0  2  0  0  3  0  0  0  0  0  0
  190.2220  173.2720  143.6730 C   0  0  0  0  0  2  0  0  0  0  0  0
  190.4340  173.7920  142.2640 C   0  0  0  0  0  2  0  0  0  0  0  0
  187.4780  175.6450  140.9390 N   0  0  0  0  0  0  0  0  0  0  0  0
  187.9920  176.8910  141.4840 C   0  0  2  0  0  3  0  0  0  0  0  0
  189.5440  176.5240  142.3830 S   0  0  0  0  0  0  0  0  0  0  0  0
  187.9860  173.1780  140.6780 C   0  0  0  0  0  1  0  0  0  0  0  0
  188.3090  174.5300  141.2100 C   0  0  0  0  0  0  0  0  0  0  0  0
  189.3890  174.8030  141.9220 C   0  0  1  0  0  3  0  0  0  0  0  0
  185.7330  177.9920  141.9060 N   0  0  0  0  0  0  0  0  0  0  0  0
  181.7970  178.3280  140.6580 C   0  0  0  0  0  1  0  0  0  0  0  0
  185.4860  178.0570  140.4670 C   0  0  0  0  0  2  0  0  0  0  0  0
  184.7990  178.6710  142.8030 C   0  0  0  0  0  2  0  0  0  0  0  0
  186.9900  177.5130  142.4080 C   0  0  0  0  0  0  0  0  0  0  0  0
  183.1720  178.6640  140.9740 N   0  0  0  0  0  0  0  0  0  0  0  0
  183.3670  178.3480  142.3880 C   0  0  0  0  0  2  0  0  0  0  0  0
  184.0140  177.7680  140.1840 C   0  0  0  0  0  2  0  0  0  0  0  0
  187.2680  177.6350  143.6330 O   0  0  0  0  0  0  0  0  0  0  0  0
  1  7  1  0  0  0  0
  2  9  2  0  0  0  0
  3  4  2  0  0  0  0
  3  6  1  0  0  0  0
  4  8  1  0  0  0  0
  6  2  1  0  0  0  0
  6  1  2  0  0  0  0
  7  5  2  0  0  0  0
  8 12  1  0  0  0  0
  8  1  1  0  0  0  0
  9 11  1  0  0  0  0
  9  5  1  0  0  0  0
 10 11  1  0  0  0  0
 13 12  1  0  0  0  0
 14 13  1  0  0  0  0
 15 14  1  0  0  0  0
 16 15  2  0  0  0  0
 17 15  1  0  0  0  0
 18 22  1  0  0  0  0
 19 23  1  0  0  0  0
 19 25  1  0  0  0  0
 23 18  1  0  0  0  0
 24 22  1  0  0  0  0
 24 20  1  1  0  0  0
 24 17  1  0  0  0  0
 25 21  1  6  0  0  0
 25 24  1  0  0  0  0
 26 29  1  0  0  0  0
 26  4  1  0  0  0  0
 28 29  1  0  0  0  0
 29 27  1  6  0  0  0
 30  3  1  0  0  0  0
 31 30  1  0  0  0  0
 32 36  2  0  0  0  0
 32 33  1  0  0  0  0
 33 34  1  0  0  0  0
 33 42  1  1  0  0  0
 35 36  1  0  0  0  0
 36 37  1  0  0  0  0
 37 31  1  6  0  0  0
 37 34  1  0  0  0  0
 38 42  1  0  0  0  0
 38 41  1  0  0  0  0
 39 43  1  0  0  0  0
 40 38  1  0  0  0  0
 42 46  2  0  0  0  0
 43 44  1  0  0  0  0
 44 41  1  0  0  0  0
 45 40  1  0  0  0  0
 45 43  1  0  0  0  0
M  END
>  <MODEL>
6

>  <REMARK>
 VINA RESULT:      -5.9      1.291      3.825
  Name = 
  13 active torsions:
  status: ('A' for Active; 'I' for Inactive)
    1  A    between atoms: N_9  and  N_34
    2  A    between atoms: N_9  and  C_36
    3  A    between atoms: C_10  and  C_29
    4  A    between atoms: C_12  and  C_40
    5  A    between atoms: C_15  and  C_17
    6  A    between atoms: C_15  and  C_32
    7  A    between atoms: C_23  and  C_27
    8  A    between atoms: C_23  and  C_36
    9  A    between atoms: C_24  and  C_38
   10  A    between atoms: C_27  and  C_45
   11  A    between atoms: C_39  and  C_43
   12  A    between atoms: C_40  and  C_43
   13  A    between atoms: C_44  and  C_45
                            x       y       z     vdW  Elec       q    Type
                         _______ _______ _______ _____ _____    ______ ____

>  <TORSDO>
F 13

$$$$
=
 OpenBabel11042415423D

 46 50  0  0  1  0  0  0  0  0999 V2000
  187.2050  176.4980  142.2610 C   0  0  0  0  0  0  0  0  0  0  0  0
  186.1370  177.5240  144.1780 C   0  0  0  0  0  3  0  0  0  0  0  0
  188.1180  175.9680  144.2120 C   0  0  0  0  0  0  0  0  0  0  0  0
  188.7880  175.3290  143.1700 C   0  0  0  0  0  0  0  0  0  0  0  0
  185.3190  177.9410  141.9110 C   0  0  0  0  0  3  0  0  0  0  0  0
  187.1160  176.7050  143.6170 C   0  0  0  0  0  0  0  0  0  0  0  0
  186.3160  177.1070  141.3730 C   0  0  0  0  0  3  0  0  0  0  0  0
  188.2260  175.6580  141.9850 N   0  0  0  0  0  0  0  0  0  0  0  0
  185.2240  178.1440  143.3050 C   0  0  0  0  0  0  0  0  0  0  0  0
  184.3680  179.2240  145.2190 O   0  0  0  0  0  1  0  0  0  0  0  0
  184.1710  179.0420  143.8520 C   0  0  0  0  0  2  0  0  0  0  0  0
  188.6430  175.1700  140.7330 N   0  0  0  0  0  2  0  0  0  0  0  0
  188.2210  173.8870  140.1930 C   0  0  0  0  0  2  0  0  0  0  0  0
  188.2090  173.9330  138.6720 C   0  0  0  0  0  2  0  0  0  0  0  0
  188.9140  172.7480  138.0930 C   0  0  0  0  0  0  0  0  0  0  0  0
  188.9370  172.5790  136.8840 O   0  0  0  0  0  0  0  0  0  0  0  0
  189.5450  171.7390  139.0100 C   0  0  0  0  0  2  0  0  0  0  0  0
  192.0370  169.5960  139.8860 O   0  0  0  0  0  0  0  0  0  0  0  0
  192.7250  170.1310  137.3970 C   0  0  0  0  0  2  0  0  0  0  0  0
  191.7020  172.8590  138.4570 C   0  0  0  0  0  1  0  0  0  0  0  0
  190.3480  169.3760  137.5250 C   0  0  0  0  0  1  0  0  0  0  0  0
  191.7200  170.9510  140.0390 C   0  0  0  0  0  2  0  0  0  0  0  0
  193.5030  169.5900  138.9740 S   0  0  0  0  0  0  0  0  0  0  0  0
  191.0520  171.5200  138.7730 C   0  0  1  0  0  0  0  0  0  0  0  0
  191.2690  170.5920  137.5480 C   0  0  1  0  0  3  0  0  0  0  0  0
  189.9190  174.3610  143.3230 C   0  0  0  0  0  2  0  0  0  0  0  0
  189.9210  172.5200  145.0100 C   0  0  0  0  0  1  0  0  0  0  0  0
  189.8370  172.0710  142.6790 O   0  0  0  0  0  1  0  0  0  0  0  0
  189.4030  172.9690  143.6550 C   0  0  2  0  0  3  0  0  0  0  0  0
  188.3940  175.8520  145.6750 C   0  0  0  0  0  2  0  0  0  0  0  0
  189.2400  177.0220  146.1420 C   0  0  0  0  0  2  0  0  0  0  0  0
  192.8420  176.0810  145.8930 N   0  0  0  0  0  2  0  0  0  0  0  0
  193.0030  176.9330  144.7260 C   0  0  2  0  0  3  0  0  0  0  0  0
  191.3730  177.6660  144.3250 S   0  0  0  0  0  0  0  0  0  0  0  0
  191.1740  175.3180  147.6390 C   0  0  0  0  0  1  0  0  0  0  0  0
  191.5220  176.0780  146.4070 C   0  0  0  0  0  0  0  0  0  0  0  0
  190.6630  176.8270  145.7360 C   0  0  0  0  0  0  0  0  0  0  0  0
  194.8060  175.5100  143.6230 N   0  0  0  0  0  0  0  0  0  0  0  0
  197.9330  172.8620  144.2320 C   0  0  0  0  0  1  0  0  0  0  0  0
  195.7150  175.7860  144.7340 C   0  0  0  0  0  2  0  0  0  0  0  0
  195.3320  174.8100  142.4510 C   0  0  0  0  0  2  0  0  0  0  0  0
  193.5180  176.1410  143.5630 C   0  0  0  0  0  0  0  0  0  0  0  0
  197.1910  174.0490  143.8500 N   0  0  0  0  0  0  0  0  0  0  0  0
  196.1640  173.6140  142.9040 C   0  0  0  0  0  2  0  0  0  0  0  0
  196.5260  174.5340  145.0570 C   0  0  0  0  0  2  0  0  0  0  0  0
  192.8180  176.0500  142.5170 O   0  0  0  0  0  0  0  0  0  0  0  0
  1  6  1  0  0  0  0
  3 30  1  0  0  0  0
  4 26  1  0  0  0  0
  4  3  2  0  0  0  0
  5  9  2  0  0  0  0
  6  2  2  0  0  0  0
  6  3  1  0  0  0  0
  7  5  1  0  0  0  0
  7  1  2  0  0  0  0
  8  1  1  0  0  0  0
  8  4  1  0  0  0  0
  9 11  1  0  0  0  0
  9  2  1  0  0  0  0
 11 10  1  0  0  0  0
 12  8  1  0  0  0  0
 13 12  1  0  0  0  0
 14 13  1  0  0  0  0
 15 14  1  0  0  0  0
 15 17  1  0  0  0  0
 16 15  2  0  0  0  0
 18 22  1  0  0  0  0
 19 25  1  0  0  0  0
 19 23  1  0  0  0  0
 23 18  1  0  0  0  0
 24 20  1  6  0  0  0
 24 17  1  0  0  0  0
 24 22  1  0  0  0  0
 25 21  1  1  0  0  0
 25 24  1  0  0  0  0
 26 29  1  0  0  0  0
 28 29  1  0  0  0  0
 29 27  1  1  0  0  0
 30 31  1  0  0  0  0
 32 36  1  0  0  0  0
 33 42  1  6  0  0  0
 33 32  1  0  0  0  0
 34 33  1  0  0  0  0
 34 37  1  0  0  0  0
 36 35  1  0  0  0  0
 37 31  1  0  0  0  0
 37 36  2  0  0  0  0
 38 40  1  0  0  0  0
 40 45  1  0  0  0  0
 41 44  1  0  0  0  0
 41 38  1  0  0  0  0
 42 38  1  0  0  0  0
 43 39  1  0  0  0  0
 43 45  1  0  0  0  0
 44 43  1  0  0  0  0
 46 42  2  0  0  0  0
M  END
>  <MODEL>
7

>  <REMARK>
 VINA RESULT:      -5.8      2.986      8.784
  Name = 
  13 active torsions:
  status: ('A' for Active; 'I' for Inactive)
    1  A    between atoms: N_9  and  N_34
    2  A    between atoms: N_9  and  C_36
    3  A    between atoms: C_10  and  C_29
    4  A    between atoms: C_12  and  C_40
    5  A    between atoms: C_15  and  C_17
    6  A    between atoms: C_15  and  C_32
    7  A    between atoms: C_23  and  C_27
    8  A    between atoms: C_23  and  C_36
    9  A    between atoms: C_24  and  C_38
   10  A    between atoms: C_27  and  C_45
   11  A    between atoms: C_39  and  C_43
   12  A    between atoms: C_40  and  C_43
   13  A    between atoms: C_44  and  C_45
                            x       y       z     vdW  Elec       q    Type
                         _______ _______ _______ _____ _____    ______ ____

>  <TORSDO>
F 13

$$$$
=
 OpenBabel11042415423D

 46 50  0  0  1  0  0  0  0  0999 V2000
  187.2720  176.4400  142.1150 C   0  0  0  0  0  0  0  0  0  0  0  0
  186.6330  177.6210  144.1320 C   0  0  0  0  0  3  0  0  0  0  0  0
  188.4390  175.8780  143.9170 C   0  0  0  0  0  0  0  0  0  0  0  0
  188.8670  175.1470  142.8100 C   0  0  0  0  0  0  0  0  0  0  0  0
  185.4960  178.0520  142.0090 C   0  0  0  0  0  3  0  0  0  0  0  0
  187.4260  176.6940  143.4580 C   0  0  0  0  0  0  0  0  0  0  0  0
  186.3090  177.1090  141.3550 C   0  0  0  0  0  3  0  0  0  0  0  0
  188.1510  175.4960  141.7160 N   0  0  0  0  0  0  0  0  0  0  0  0
  185.6510  178.3030  143.3900 C   0  0  0  0  0  0  0  0  0  0  0  0
  185.4890  180.5140  144.1950 O   0  0  0  0  0  1  0  0  0  0  0  0
  184.7900  179.3160  144.0580 C   0  0  0  0  0  2  0  0  0  0  0  0
  188.3100  174.9340  140.4370 N   0  0  0  0  0  2  0  0  0  0  0  0
  188.2150  173.5060  140.1720 C   0  0  0  0  0  2  0  0  0  0  0  0
  188.4800  173.2230  138.7010 C   0  0  0  0  0  2  0  0  0  0  0  0
  189.9030  173.5140  138.3460 C   0  0  0  0  0  0  0  0  0  0  0  0
  190.1720  174.0650  137.2900 O   0  0  0  0  0  0  0  0  0  0  0  0
  191.0020  173.0740  139.2710 C   0  0  0  0  0  2  0  0  0  0  0  0
  191.7880  170.8910  136.7830 O   0  0  0  0  0  0  0  0  0  0  0  0
  193.5080  170.1380  138.6340 C   0  0  0  0  0  2  0  0  0  0  0  0
  190.9490  170.7860  140.2590 C   0  0  0  0  0  1  0  0  0  0  0  0
  193.6650  172.5950  138.2140 C   0  0  0  0  0  1  0  0  0  0  0  0
  190.8290  171.0240  137.7950 C   0  0  0  0  0  2  0  0  0  0  0  0
  192.6370  169.4400  137.1720 S   0  0  0  0  0  0  0  0  0  0  0  0
  191.4450  171.6090  139.0800 C   0  0  1  0  0  0  0  0  0  0  0  0
  192.9940  171.5190  139.0630 C   0  0  1  0  0  3  0  0  0  0  0  0
  189.9130  174.0750  142.8220 C   0  0  0  0  0  2  0  0  0  0  0  0
  190.7120  172.4480  144.5390 C   0  0  0  0  0  1  0  0  0  0  0  0
  189.0120  171.8790  142.9810 O   0  0  0  0  0  1  0  0  0  0  0  0
  189.5120  172.9340  143.7440 C   0  0  2  0  0  3  0  0  0  0  0  0
  188.9390  175.7770  145.3200 C   0  0  0  0  0  2  0  0  0  0  0  0
  189.9500  176.8750  145.5950 C   0  0  0  0  0  2  0  0  0  0  0  0
  193.3800  175.4160  145.7590 N   0  0  0  0  0  2  0  0  0  0  0  0
  193.6720  175.9050  144.4210 C   0  0  2  0  0  3  0  0  0  0  0  0
  192.1680  176.7240  143.7720 S   0  0  0  0  0  0  0  0  0  0  0  0
  191.6050  175.3700  147.5650 C   0  0  0  0  0  1  0  0  0  0  0  0
  192.0700  175.7290  146.1960 C   0  0  0  0  0  0  0  0  0  0  0  0
  191.3330  176.3870  145.3180 C   0  0  0  0  0  0  0  0  0  0  0  0
  194.8360  175.0240  142.3320 N   0  0  0  0  0  0  0  0  0  0  0  0
  197.8790  175.6350  139.5890 C   0  0  0  0  0  1  0  0  0  0  0  0
  195.0620  176.3920  141.8710 C   0  0  0  0  0  2  0  0  0  0  0  0
  195.1530  173.9220  141.4240 C   0  0  0  0  0  2  0  0  0  0  0  0
  194.0760  174.7740  143.5250 C   0  0  0  0  0  0  0  0  0  0  0  0
  196.5560  175.4830  140.1630 N   0  0  0  0  0  0  0  0  0  0  0  0
  196.5200  174.1630  140.7900 C   0  0  0  0  0  2  0  0  0  0  0  0
  196.4350  176.4930  141.2120 C   0  0  0  0  0  2  0  0  0  0  0  0
  193.7250  173.5970  143.8150 O   0  0  0  0  0  0  0  0  0  0  0  0
  1  6  1  0  0  0  0
  3 30  1  0  0  0  0
  4 26  1  0  0  0  0
  4  3  2  0  0  0  0
  5  9  2  0  0  0  0
  6  3  1  0  0  0  0
  6  2  2  0  0  0  0
  7  5  1  0  0  0  0
  7  1  2  0  0  0  0
  8  1  1  0  0  0  0
  8  4  1  0  0  0  0
  9 11  1  0  0  0  0
  9  2  1  0  0  0  0
 11 10  1  0  0  0  0
 12  8  1  0  0  0  0
 13 12  1  0  0  0  0
 14 13  1  0  0  0  0
 15 14  1  0  0  0  0
 15 17  1  0  0  0  0
 16 15  2  0  0  0  0
 18 23  1  0  0  0  0
 18 22  1  0  0  0  0
 19 25  1  0  0  0  0
 22 24  1  0  0  0  0
 23 19  1  0  0  0  0
 24 17  1  0  0  0  0
 24 20  1  1  0  0  0
 25 21  1  6  0  0  0
 25 24  1  0  0  0  0
 26 29  1  0  0  0  0
 28 29  1  0  0  0  0
 29 27  1  6  0  0  0
 30 31  1  0  0  0  0
 32 36  1  0  0  0  0
 33 42  1  6  0  0  0
 33 32  1  0  0  0  0
 34 33  1  0  0  0  0
 34 37  1  0  0  0  0
 36 35  1  0  0  0  0
 37 31  1  0  0  0  0
 37 36  2  0  0  0  0
 38 42  1  0  0  0  0
 39 43  1  0  0  0  0
 40 38  1  0  0  0  0
 41 38  1  0  0  0  0
 42 46  2  0  0  0  0
 43 44  1  0  0  0  0
 43 45  1  0  0  0  0
 44 41  1  0  0  0  0
 45 40  1  0  0  0  0
M  END
>  <MODEL>
8

>  <REMARK>
 VINA RESULT:      -5.8      2.948      8.534
  Name = 
  13 active torsions:
  status: ('A' for Active; 'I' for Inactive)
    1  A    between atoms: N_9  and  N_34
    2  A    between atoms: N_9  and  C_36
    3  A    between atoms: C_10  and  C_29
    4  A    between atoms: C_12  and  C_40
    5  A    between atoms: C_15  and  C_17
    6  A    between atoms: C_15  and  C_32
    7  A    between atoms: C_23  and  C_27
    8  A    between atoms: C_23  and  C_36
    9  A    between atoms: C_24  and  C_38
   10  A    between atoms: C_27  and  C_45
   11  A    between atoms: C_39  and  C_43
   12  A    between atoms: C_40  and  C_43
   13  A    between atoms: C_44  and  C_45
                            x       y       z     vdW  Elec       q    Type
                         _______ _______ _______ _____ _____    ______ ____

>  <TORSDO>
F 13

$$$$
=
 OpenBabel11042415423D

 46 50  0  0  1  0  0  0  0  0999 V2000
  190.1310  173.9620  143.7460 C   0  0  0  0  0  0  0  0  0  0  0  0
  191.1640  173.9680  141.5540 C   0  0  0  0  0  3  0  0  0  0  0  0
  192.2940  174.4580  143.7520 C   0  0  0  0  0  0  0  0  0  0  0  0
  191.7830  174.4860  145.0490 C   0  0  0  0  0  0  0  0  0  0  0  0
  188.7870  173.4580  141.8220 C   0  0  0  0  0  3  0  0  0  0  0  0
  191.2320  174.1240  142.9380 C   0  0  0  0  0  0  0  0  0  0  0  0
  188.8840  173.6250  143.2150 C   0  0  0  0  0  3  0  0  0  0  0  0
  190.4640  174.1820  145.0360 N   0  0  0  0  0  0  0  0  0  0  0  0
  189.9170  173.6350  140.9940 C   0  0  0  0  0  0  0  0  0  0  0  0
  191.0170  173.7040  138.9090 O   0  0  0  0  0  1  0  0  0  0  0  0
  189.7950  173.4390  139.5250 C   0  0  0  0  0  2  0  0  0  0  0  0
  189.6370  174.1430  146.1720 N   0  0  0  0  0  2  0  0  0  0  0  0
  189.0180  175.3250  146.7530 C   0  0  0  0  0  2  0  0  0  0  0  0
  189.0270  176.4710  145.7510 C   0  0  0  0  0  2  0  0  0  0  0  0
  187.6680  177.0830  145.6230 C   0  0  0  0  0  0  0  0  0  0  0  0
  186.7840  176.7840  146.4110 O   0  0  0  0  0  0  0  0  0  0  0  0
  187.3820  178.0220  144.4860 C   0  0  0  0  0  2  0  0  0  0  0  0
  186.2890  178.8100  141.3630 O   0  0  0  0  0  0  0  0  0  0  0  0
  187.5150  176.5270  140.8740 C   0  0  0  0  0  2  0  0  0  0  0  0
  186.1550  176.0340  143.6160 C   0  0  0  0  0  1  0  0  0  0  0  0
  189.0190  178.1070  142.0890 C   0  0  0  0  0  1  0  0  0  0  0  0
  185.7830  178.2330  142.5340 C   0  0  0  0  0  2  0  0  0  0  0  0
  186.1660  177.5650  140.1740 S   0  0  0  0  0  0  0  0  0  0  0  0
  186.8330  177.3380  143.2190 C   0  0  1  0  0  0  0  0  0  0  0  0
  187.9990  176.9860  142.2560 C   0  0  1  0  0  3  0  0  0  0  0  0
  192.5450  174.8650  146.2800 C   0  0  0  0  0  2  0  0  0  0  0  0
  194.0820  176.8080  146.5930 C   0  0  0  0  0  1  0  0  0  0  0  0
  191.9010  176.7820  147.5350 O   0  0  0  0  0  1  0  0  0  0  0  0
  192.6350  176.3770  146.4210 C   0  0  2  0  0  3  0  0  0  0  0  0
  193.6900  174.7640  143.3200 C   0  0  0  0  0  2  0  0  0  0  0  0
  194.6260  173.6480  143.7460 C   0  0  0  0  0  2  0  0  0  0  0  0
  193.6710  170.1200  142.9970 N   0  0  0  0  0  0  0  0  0  0  0  0
  193.6950  170.3970  141.5700 C   0  0  2  0  0  3  0  0  0  0  0  0
  194.0810  172.1720  141.3400 S   0  0  0  0  0  0  0  0  0  0  0  0
  194.0720  171.1500  145.2750 C   0  0  0  0  0  1  0  0  0  0  0  0
  193.9810  171.2500  143.7930 C   0  0  0  0  0  0  0  0  0  0  0  0
  194.2160  172.3590  143.1130 C   0  0  1  0  0  3  0  0  0  0  0  0
  192.2240  170.0300  139.5210 N   0  0  0  0  0  0  0  0  0  0  0  0
  192.1120  168.8730  135.5450 C   0  0  0  0  0  1  0  0  0  0  0  0
  193.3030  170.4990  138.6530 C   0  0  0  0  0  2  0  0  0  0  0  0
  190.9090  169.7890  138.9280 C   0  0  0  0  0  2  0  0  0  0  0  0
  192.3720  170.0670  140.9490 C   0  0  0  0  0  0  0  0  0  0  0  0
  192.0110  169.6830  136.7450 N   0  0  0  0  0  0  0  0  0  0  0  0
  191.0720  168.9990  137.6330 C   0  0  0  0  0  2  0  0  0  0  0  0
  193.3300  169.6680  137.3730 C   0  0  0  0  0  2  0  0  0  0  0  0
  191.3770  169.8430  141.6920 O   0  0  0  0  0  0  0  0  0  0  0  0
  1  8  1  0  0  0  0
  2  6  1  0  0  0  0
  3  4  2  0  0  0  0
  4 26  1  0  0  0  0
  5  7  2  0  0  0  0
  6  1  2  0  0  0  0
  6  3  1  0  0  0  0
  7  1  1  0  0  0  0
  8  4  1  0  0  0  0
  8 12  1  0  0  0  0
  9  2  2  0  0  0  0
  9  5  1  0  0  0  0
 10 11  1  0  0  0  0
 11  9  1  0  0  0  0
 12 13  1  0  0  0  0
 14 13  1  0  0  0  0
 15 14  1  0  0  0  0
 15 16  2  0  0  0  0
 17 15  1  0  0  0  0
 18 22  1  0  0  0  0
 19 25  1  0  0  0  0
 22 24  1  0  0  0  0
 23 19  1  0  0  0  0
 23 18  1  0  0  0  0
 24 20  1  1  0  0  0
 24 17  1  0  0  0  0
 25 21  1  6  0  0  0
 25 24  1  0  0  0  0
 26 29  1  0  0  0  0
 29 27  1  1  0  0  0
 29 28  1  0  0  0  0
 30 31  1  0  0  0  0
 30  3  1  0  0  0  0
 32 36  2  0  0  0  0
 33 42  1  1  0  0  0
 33 32  1  0  0  0  0
 34 33  1  0  0  0  0
 34 37  1  0  0  0  0
 36 35  1  0  0  0  0
 37 31  1  6  0  0  0
 37 36  1  0  0  0  0
 38 42  1  0  0  0  0
 39 43  1  0  0  0  0
 40 38  1  0  0  0  0
 41 38  1  0  0  0  0
 42 46  2  0  0  0  0
 43 45  1  0  0  0  0
 43 44  1  0  0  0  0
 44 41  1  0  0  0  0
 45 40  1  0  0  0  0
M  END
>  <MODEL>
9

>  <REMARK>
 VINA RESULT:      -5.5      3.254      7.879
  Name = 
  13 active torsions:
  status: ('A' for Active; 'I' for Inactive)
    1  A    between atoms: N_9  and  N_34
    2  A    between atoms: N_9  and  C_36
    3  A    between atoms: C_10  and  C_29
    4  A    between atoms: C_12  and  C_40
    5  A    between atoms: C_15  and  C_17
    6  A    between atoms: C_15  and  C_32
    7  A    between atoms: C_23  and  C_27
    8  A    between atoms: C_23  and  C_36
    9  A    between atoms: C_24  and  C_38
   10  A    between atoms: C_27  and  C_45
   11  A    between atoms: C_39  and  C_43
   12  A    between atoms: C_40  and  C_43
   13  A    between atoms: C_44  and  C_45
                            x       y       z     vdW  Elec       q    Type
                         _______ _______ _______ _____ _____    ______ ____

>  <TORSDO>
F 13

$$$$
