=
 OpenBabel11042415343D

 47 51  0  0  1  0  0  0  0  0999 V2000
  193.4760  172.2990  144.1130 C   0  0  0  0  0  2  0  0  0  0  0  0
  193.4660  173.1770  145.3890 C   0  0  0  0  0  2  0  0  0  0  0  0
  192.5920  173.7450  142.1130 C   0  0  1  0  0  3  0  0  0  0  0  0
  191.8800  174.5350  144.2620 C   0  0  0  0  0  0  0  0  0  0  0  0
  192.3430  174.1880  145.4220 C   0  0  0  0  0  0  0  0  0  0  0  0
  193.8150  173.1130  142.8440 C   0  0  0  0  0  2  0  0  0  0  0  0
  191.6690  174.5780  142.9810 C   0  0  0  0  0  0  0  0  0  0  0  0
  192.7680  174.1370  139.6270 N   0  0  0  0  0  2  0  0  0  0  0  0
  193.9060  175.4920  141.1520 O   0  0  0  0  0  0  0  0  0  0  0  0
  193.1050  174.5360  140.9560 C   0  0  0  0  0  0  0  0  0  0  0  0
  193.4750  174.6700  138.4730 C   0  0  0  0  0  2  0  0  0  0  0  0
  193.0750  173.9410  137.1790 C   0  0  2  0  0  3  0  0  0  0  0  0
  193.5890  176.1320  136.3900 C   0  0  0  0  0  2  0  0  0  0  0  0
  191.9510  177.4320  135.2040 O   0  0  0  0  0  0  0  0  0  0  0  0
  191.4900  175.1640  135.8590 C   0  0  0  0  0  2  0  0  0  0  0  0
  192.9180  174.8690  136.0450 N   0  0  0  0  0  0  0  0  0  0  0  0
  191.3260  176.2420  134.7840 C   0  0  0  0  0  2  0  0  0  0  0  0
  193.3310  177.1680  135.2930 C   0  0  0  0  0  2  0  0  0  0  0  0
  191.7690  171.8760  137.1580 N   0  0  0  0  0  0  0  0  0  0  0  0
  191.8140  173.1490  137.3940 C   0  0  0  0  0  3  0  0  0  0  0  0
  190.5770  171.1110  137.3570 C   0  0  0  0  0  0  0  0  0  0  0  0
  189.5260  171.3680  136.7080 O   0  0  0  0  0  0  0  0  0  0  0  0
  190.5740  169.9950  138.3400 C   0  0  0  0  0  1  0  0  0  0  0  0
  190.4060  175.1570  142.4230 C   0  0  0  0  0  2  0  0  0  0  0  0
  187.8540  174.8480  142.3490 C   0  0  1  0  0  3  0  0  0  0  0  0
  188.5430  173.5730  141.9030 C   0  0  1  0  0  3  0  0  0  0  0  0
  189.1820  174.4250  142.9830 C   0  0  1  0  0  3  0  0  0  0  0  0
  187.9060  172.4840  142.4960 O   0  0  0  0  0  1  0  0  0  0  0  0
  187.2670  177.0900  141.2130 C   0  0  0  0  0  0  0  0  0  0  0  0
  188.0090  175.8610  141.3100 N   0  0  0  0  0  2  0  0  0  0  0  0
  187.3620  177.7510  140.1420 O   0  0  0  0  0  0  0  0  0  0  0  0
  185.1400  177.2450  142.4560 C   0  0  0  0  0  2  0  0  0  0  0  0
  186.4050  177.6190  142.3030 C   0  0  0  0  0  0  0  0  0  0  0  0
  187.0010  178.4810  143.3650 C   0  0  0  0  0  2  0  0  0  0  0  0
  186.0050  179.5360  143.8150 C   0  0  0  0  0  1  0  0  0  0  0  0
  192.1450  175.0830  146.6010 C   0  0  0  0  0  2  0  0  0  0  0  0
  189.2210  177.4680  146.2910 C   0  0  0  0  0  3  0  0  0  0  0  0
  189.6990  174.8460  147.1300 C   0  0  0  0  0  3  0  0  0  0  0  0
  188.4070  175.3720  147.1890 C   0  0  0  0  0  3  0  0  0  0  0  0
  190.5140  176.9420  146.2340 C   0  0  0  0  0  3  0  0  0  0  0  0
  188.1530  176.6870  146.7640 C   0  0  0  0  0  0  0  0  0  0  0  0
  190.7560  175.6300  146.6500 C   0  0  0  0  0  0  0  0  0  0  0  0
  186.4760  178.3980  147.6220 C   0  0  0  0  0  2  0  0  0  0  0  0
  184.4830  177.4660  146.5580 C   0  0  0  0  0  2  0  0  0  0  0  0
  185.6960  176.6750  146.1010 C   0  0  0  0  0  2  0  0  0  0  0  0
  185.0190  178.6840  147.3060 C   0  0  0  0  0  2  0  0  0  0  0  0
  186.8240  177.2300  146.8310 N   0  0  0  0  0  0  0  0  0  0  0  0
  1  2  1  0  0  0  0
  2  5  1  0  0  0  0
  3 10  1  6  0  0  0
  3  6  1  0  0  0  0
  3  7  1  0  0  0  0
  4  5  2  0  0  0  0
  5 36  1  0  0  0  0
  6  1  1  0  0  0  0
  7  4  2  0  0  0  0
  8 10  1  0  0  0  0
 10  9  2  0  0  0  0
 11  8  1  0  0  0  0
 12 20  1  1  0  0  0
 12 11  1  0  0  0  0
 14 18  1  0  0  0  0
 15 16  1  0  0  0  0
 16 13  1  0  0  0  0
 16 12  1  0  0  0  0
 17 14  1  0  0  0  0
 17 15  1  0  0  0  0
 18 13  1  0  0  0  0
 19 21  1  0  0  0  0
 19 20  2  0  0  0  0
 21 23  1  0  0  0  0
 22 21  2  0  0  0  0
 24  7  1  0  0  0  0
 25 30  1  6  0  0  0
 25 27  1  0  0  0  0
 26 25  1  0  0  0  0
 26 28  1  1  0  0  0
 26 27  1  0  0  0  0
 27 24  1  6  0  0  0
 29 30  1  0  0  0  0
 29 33  1  0  0  0  0
 31 29  2  0  0  0  0
 33 32  2  0  0  0  0
 33 34  1  0  0  0  0
 34 35  1  0  0  0  0
 36 42  1  0  0  0  0
 37 41  1  0  0  0  0
 38 39  1  0  0  0  0
 40 37  2  0  0  0  0
 40 42  1  0  0  0  0
 41 47  1  0  0  0  0
 41 39  2  0  0  0  0
 42 38  2  0  0  0  0
 44 46  1  0  0  0  0
 45 44  1  0  0  0  0
 45 47  1  0  0  0  0
 46 43  1  0  0  0  0
 47 43  1  0  0  0  0
M  END
>  <MODEL>
1

>  <REMARK>
 VINA RESULT:      -7.2      0.000      0.000
  Name = 
  14 active torsions:
  status: ('A' for Active; 'I' for Inactive)
    1  A    between atoms: C_1  and  N_5
    2  A    between atoms: C_2  and  C_43
    3  A    between atoms: C_3  and  N_12
    4  A    between atoms: C_3  and  C_18
    5  A    between atoms: C_4  and  N_9
    6  A    between atoms: C_7  and  C_31
    7  A    between atoms: C_18  and  N_26
    8  A    between atoms: C_18  and  C_34
    9  A    between atoms: C_19  and  C_20
   10  A    between atoms: C_22  and  C_43
   11  A    between atoms: C_30  and  C_42
   12  A    between atoms: C_31  and  C_46
   13  A    between atoms: N_41  and  C_45
   14  A    between atoms: C_42  and  C_47
                            x       y       z     vdW  Elec       q    Type
                         _______ _______ _______ _____ _____    ______ ____

>  <TORSDO>
F 14

$$$$
=
 OpenBabel11042415343D

 47 51  0  0  1  0  0  0  0  0999 V2000
  192.9420  171.5060  143.8240 C   0  0  0  0  0  2  0  0  0  0  0  0
  193.1850  172.5420  144.9490 C   0  0  0  0  0  2  0  0  0  0  0  0
  192.0340  172.7770  141.7190 C   0  0  1  0  0  3  0  0  0  0  0  0
  191.6700  173.9460  143.7810 C   0  0  0  0  0  0  0  0  0  0  0  0
  192.2120  173.6970  144.9330 C   0  0  0  0  0  0  0  0  0  0  0  0
  193.2390  172.0830  142.4230 C   0  0  0  0  0  2  0  0  0  0  0  0
  191.3260  173.8430  142.5330 C   0  0  0  0  0  0  0  0  0  0  0  0
  193.7740  173.9850  140.3500 N   0  0  0  0  0  2  0  0  0  0  0  0
  191.7600  173.2770  139.4000 O   0  0  0  0  0  0  0  0  0  0  0  0
  192.5110  173.3210  140.4150 C   0  0  0  0  0  0  0  0  0  0  0  0
  194.1470  174.7930  139.2000 C   0  0  0  0  0  2  0  0  0  0  0  0
  195.4560  175.5620  139.4510 C   0  0  2  0  0  3  0  0  0  0  0  0
  196.0650  175.0360  137.2050 C   0  0  0  0  0  2  0  0  0  0  0  0
  197.3850  173.0900  136.7090 O   0  0  0  0  0  0  0  0  0  0  0  0
  196.9050  173.7100  138.9830 C   0  0  0  0  0  2  0  0  0  0  0  0
  196.5540  175.0830  138.5930 N   0  0  0  0  0  0  0  0  0  0  0  0
  197.9390  173.1480  138.0020 C   0  0  0  0  0  2  0  0  0  0  0  0
  197.1350  174.4140  136.3030 C   0  0  0  0  0  2  0  0  0  0  0  0
  195.7740  176.5100  141.6800 N   0  0  0  0  0  0  0  0  0  0  0  0
  195.8430  175.4760  140.9020 C   0  0  0  0  0  3  0  0  0  0  0  0
  196.1390  176.4440  143.0610 C   0  0  0  0  0  0  0  0  0  0  0  0
  197.0380  177.1930  143.5310 O   0  0  0  0  0  0  0  0  0  0  0  0
  195.4490  175.4790  143.9580 C   0  0  0  0  0  1  0  0  0  0  0  0
  190.0930  174.5140  142.0120 C   0  0  0  0  0  2  0  0  0  0  0  0
  187.5360  174.6210  142.2610 C   0  0  1  0  0  3  0  0  0  0  0  0
  187.9420  173.2930  141.6520 C   0  0  1  0  0  3  0  0  0  0  0  0
  188.8410  173.9430  142.6850 C   0  0  1  0  0  3  0  0  0  0  0  0
  187.2080  172.2750  142.2590 O   0  0  0  0  0  1  0  0  0  0  0  0
  187.2110  177.0160  141.3550 C   0  0  0  0  0  0  0  0  0  0  0  0
  187.7310  175.6770  141.2720 N   0  0  0  0  0  2  0  0  0  0  0  0
  187.2820  177.7390  140.3220 O   0  0  0  0  0  0  0  0  0  0  0  0
  187.2660  178.4240  143.3810 C   0  0  0  0  0  2  0  0  0  0  0  0
  186.6060  177.5900  142.5850 C   0  0  0  0  0  0  0  0  0  0  0  0
  185.1620  177.3600  142.8760 C   0  0  0  0  0  2  0  0  0  0  0  0
  184.4520  178.6800  143.1280 C   0  0  0  0  0  1  0  0  0  0  0  0
  192.2610  174.7630  145.9780 C   0  0  0  0  0  2  0  0  0  0  0  0
  189.4900  177.3440  146.0360 C   0  0  0  0  0  3  0  0  0  0  0  0
  189.8670  174.6660  146.7390 C   0  0  0  0  0  3  0  0  0  0  0  0
  188.6260  175.2710  146.9430 C   0  0  0  0  0  3  0  0  0  0  0  0
  190.7330  176.7370  145.8350 C   0  0  0  0  0  3  0  0  0  0  0  0
  188.4230  176.6150  146.5880 C   0  0  0  0  0  0  0  0  0  0  0  0
  190.9240  175.3970  146.1820 C   0  0  0  0  0  0  0  0  0  0  0  0
  186.9770  178.4800  147.5430 C   0  0  0  0  0  2  0  0  0  0  0  0
  184.8060  177.5960  146.8540 C   0  0  0  0  0  2  0  0  0  0  0  0
  185.8960  176.7040  146.2900 C   0  0  0  0  0  2  0  0  0  0  0  0
  185.5050  178.8290  147.4200 C   0  0  0  0  0  2  0  0  0  0  0  0
  187.1460  177.2400  146.8030 N   0  0  0  0  0  0  0  0  0  0  0  0
  1  2  1  0  0  0  0
  3 10  1  6  0  0  0
  3  6  1  0  0  0  0
  3  7  1  0  0  0  0
  4  5  2  0  0  0  0
  5  2  1  0  0  0  0
  5 36  1  0  0  0  0
  6  1  1  0  0  0  0
  7  4  2  0  0  0  0
  8 10  1  0  0  0  0
  9 10  2  0  0  0  0
 11  8  1  0  0  0  0
 12 11  1  1  0  0  0
 12 20  1  0  0  0  0
 13 16  1  0  0  0  0
 14 17  1  0  0  0  0
 16 15  1  0  0  0  0
 16 12  1  0  0  0  0
 17 15  1  0  0  0  0
 18 14  1  0  0  0  0
 18 13  1  0  0  0  0
 19 21  1  0  0  0  0
 20 19  2  0  0  0  0
 21 22  2  0  0  0  0
 21 23  1  0  0  0  0
 24  7  1  0  0  0  0
 25 30  1  6  0  0  0
 25 27  1  0  0  0  0
 26 28  1  1  0  0  0
 26 25  1  0  0  0  0
 26 27  1  0  0  0  0
 27 24  1  6  0  0  0
 29 33  1  0  0  0  0
 30 29  1  0  0  0  0
 31 29  2  0  0  0  0
 33 34  1  0  0  0  0
 33 32  2  0  0  0  0
 34 35  1  0  0  0  0
 36 42  1  0  0  0  0
 37 41  1  0  0  0  0
 38 39  1  0  0  0  0
 40 37  2  0  0  0  0
 40 42  1  0  0  0  0
 41 47  1  0  0  0  0
 41 39  2  0  0  0  0
 42 38  2  0  0  0  0
 44 46  1  0  0  0  0
 45 47  1  0  0  0  0
 45 44  1  0  0  0  0
 46 43  1  0  0  0  0
 47 43  1  0  0  0  0
M  END
>  <MODEL>
2

>  <REMARK>
 VINA RESULT:      -7.2      2.287      3.776
  Name = 
  14 active torsions:
  status: ('A' for Active; 'I' for Inactive)
    1  A    between atoms: C_1  and  N_5
    2  A    between atoms: C_2  and  C_43
    3  A    between atoms: C_3  and  N_12
    4  A    between atoms: C_3  and  C_18
    5  A    between atoms: C_4  and  N_9
    6  A    between atoms: C_7  and  C_31
    7  A    between atoms: C_18  and  N_26
    8  A    between atoms: C_18  and  C_34
    9  A    between atoms: C_19  and  C_20
   10  A    between atoms: C_22  and  C_43
   11  A    between atoms: C_30  and  C_42
   12  A    between atoms: C_31  and  C_46
   13  A    between atoms: N_41  and  C_45
   14  A    between atoms: C_42  and  C_47
                            x       y       z     vdW  Elec       q    Type
                         _______ _______ _______ _____ _____    ______ ____

>  <TORSDO>
F 14

$$$$
=
 OpenBabel11042415343D

 47 51  0  0  1  0  0  0  0  0999 V2000
  193.5850  172.3400  144.2660 C   0  0  0  0  0  2  0  0  0  0  0  0
  193.5680  173.2230  145.5380 C   0  0  0  0  0  2  0  0  0  0  0  0
  192.6690  173.7630  142.2640 C   0  0  1  0  0  3  0  0  0  0  0  0
  191.9560  174.5520  144.4130 C   0  0  0  0  0  0  0  0  0  0  0  0
  192.4310  174.2170  145.5730 C   0  0  0  0  0  0  0  0  0  0  0  0
  193.9040  173.1530  142.9920 C   0  0  0  0  0  2  0  0  0  0  0  0
  191.7370  174.5860  143.1340 C   0  0  0  0  0  0  0  0  0  0  0  0
  192.8620  174.1210  139.7750 N   0  0  0  0  0  2  0  0  0  0  0  0
  193.9200  175.5490  141.2920 O   0  0  0  0  0  0  0  0  0  0  0  0
  193.1630  174.5560  141.1010 C   0  0  0  0  0  0  0  0  0  0  0  0
  193.5610  174.6660  138.6220 C   0  0  0  0  0  2  0  0  0  0  0  0
  193.8100  173.5890  137.5520 C   0  0  2  0  0  3  0  0  0  0  0  0
  195.9010  173.0300  136.5480 C   0  0  0  0  0  2  0  0  0  0  0  0
  197.5500  174.7220  136.1080 O   0  0  0  0  0  0  0  0  0  0  0  0
  195.3810  175.3050  136.9710 C   0  0  0  0  0  2  0  0  0  0  0  0
  194.8080  174.0160  136.5560 N   0  0  0  0  0  0  0  0  0  0  0  0
  196.5240  175.6850  136.0260 C   0  0  0  0  0  2  0  0  0  0  0  0
  197.0220  173.5110  135.6240 C   0  0  0  0  0  2  0  0  0  0  0  0
  191.9770  172.0500  137.0600 N   0  0  0  0  0  0  0  0  0  0  0  0
  192.5180  173.2130  136.8780 C   0  0  0  0  0  3  0  0  0  0  0  0
  190.7500  171.6790  136.4260 C   0  0  0  0  0  0  0  0  0  0  0  0
  189.7350  172.4250  136.4900 O   0  0  0  0  0  0  0  0  0  0  0  0
  190.6670  170.3950  135.6790 C   0  0  0  0  0  1  0  0  0  0  0  0
  190.4630  175.1430  142.5800 C   0  0  0  0  0  2  0  0  0  0  0  0
  187.9390  174.6900  142.3850 C   0  0  1  0  0  3  0  0  0  0  0  0
  188.7200  173.4640  141.9540 C   0  0  1  0  0  3  0  0  0  0  0  0
  189.2600  174.3330  143.0730 C   0  0  1  0  0  3  0  0  0  0  0  0
  188.1210  172.3310  142.5030 O   0  0  0  0  0  1  0  0  0  0  0  0
  187.4150  177.0010  141.3640 C   0  0  0  0  0  0  0  0  0  0  0  0
  188.0820  175.7260  141.3680 N   0  0  0  0  0  2  0  0  0  0  0  0
  187.4740  177.6920  140.3080 O   0  0  0  0  0  0  0  0  0  0  0  0
  187.2470  178.3210  143.4430 C   0  0  0  0  0  2  0  0  0  0  0  0
  186.6720  177.5450  142.5310 C   0  0  0  0  0  0  0  0  0  0  0  0
  185.1960  177.3570  142.6210 C   0  0  0  0  0  2  0  0  0  0  0  0
  184.5230  178.6360  143.0910 C   0  0  0  0  0  1  0  0  0  0  0  0
  192.2260  175.1140  146.7490 C   0  0  0  0  0  2  0  0  0  0  0  0
  188.4670  175.3380  147.1510 C   0  0  0  0  0  3  0  0  0  0  0  0
  190.5970  177.0060  146.4540 C   0  0  0  0  0  3  0  0  0  0  0  0
  189.2950  177.5100  146.4730 C   0  0  0  0  0  3  0  0  0  0  0  0
  189.7700  174.8350  147.1300 C   0  0  0  0  0  3  0  0  0  0  0  0
  188.2170  176.6820  146.8270 C   0  0  0  0  0  0  0  0  0  0  0  0
  190.8380  175.6670  146.7850 C   0  0  0  0  0  0  0  0  0  0  0  0
  185.7730  176.5810  146.1230 C   0  0  0  0  0  2  0  0  0  0  0  0
  185.0320  178.6370  147.2180 C   0  0  0  0  0  2  0  0  0  0  0  0
  186.4820  178.3840  147.5860 C   0  0  0  0  0  2  0  0  0  0  0  0
  184.5400  177.3770  146.5110 C   0  0  0  0  0  2  0  0  0  0  0  0
  186.8750  177.1990  146.8410 N   0  0  0  0  0  0  0  0  0  0  0  0
  1  2  1  0  0  0  0
  2  5  1  0  0  0  0
  3 10  1  6  0  0  0
  3  6  1  0  0  0  0
  3  7  1  0  0  0  0
  4  5  2  0  0  0  0
  5 36  1  0  0  0  0
  6  1  1  0  0  0  0
  7  4  2  0  0  0  0
  8 10  1  0  0  0  0
 10  9  2  0  0  0  0
 11  8  1  0  0  0  0
 12 20  1  6  0  0  0
 12 11  1  0  0  0  0
 13 16  1  0  0  0  0
 16 15  1  0  0  0  0
 16 12  1  0  0  0  0
 17 14  1  0  0  0  0
 17 15  1  0  0  0  0
 18 14  1  0  0  0  0
 18 13  1  0  0  0  0
 20 19  2  0  0  0  0
 21 22  2  0  0  0  0
 21 19  1  0  0  0  0
 23 21  1  0  0  0  0
 24  7  1  0  0  0  0
 25 30  1  6  0  0  0
 25 27  1  0  0  0  0
 26 25  1  0  0  0  0
 26 28  1  1  0  0  0
 26 27  1  0  0  0  0
 27 24  1  6  0  0  0
 29 30  1  0  0  0  0
 29 33  1  0  0  0  0
 31 29  2  0  0  0  0
 33 34  1  0  0  0  0
 33 32  2  0  0  0  0
 34 35  1  0  0  0  0
 36 42  1  0  0  0  0
 38 39  2  0  0  0  0
 38 42  1  0  0  0  0
 39 41  1  0  0  0  0
 40 37  1  0  0  0  0
 41 47  1  0  0  0  0
 41 37  2  0  0  0  0
 42 40  2  0  0  0  0
 43 46  1  0  0  0  0
 43 47  1  0  0  0  0
 44 45  1  0  0  0  0
 46 44  1  0  0  0  0
 47 45  1  0  0  0  0
M  END
>  <MODEL>
3

>  <REMARK>
 VINA RESULT:      -7.0      1.427      2.056
  Name = 
  14 active torsions:
  status: ('A' for Active; 'I' for Inactive)
    1  A    between atoms: C_1  and  N_5
    2  A    between atoms: C_2  and  C_43
    3  A    between atoms: C_3  and  N_12
    4  A    between atoms: C_3  and  C_18
    5  A    between atoms: C_4  and  N_9
    6  A    between atoms: C_7  and  C_31
    7  A    between atoms: C_18  and  N_26
    8  A    between atoms: C_18  and  C_34
    9  A    between atoms: C_19  and  C_20
   10  A    between atoms: C_22  and  C_43
   11  A    between atoms: C_30  and  C_42
   12  A    between atoms: C_31  and  C_46
   13  A    between atoms: N_41  and  C_45
   14  A    between atoms: C_42  and  C_47
                            x       y       z     vdW  Elec       q    Type
                         _______ _______ _______ _____ _____    ______ ____

>  <TORSDO>
F 14

$$$$
=
 OpenBabel11042415343D

 47 51  0  0  1  0  0  0  0  0999 V2000
  193.3900  176.7810  146.7440 C   0  0  0  0  0  2  0  0  0  0  0  0
  191.9460  176.2320  146.6360 C   0  0  0  0  0  2  0  0  0  0  0  0
  194.8390  175.6520  144.8740 C   0  0  1  0  0  3  0  0  0  0  0  0
  192.8900  174.3920  145.4740 C   0  0  0  0  0  0  0  0  0  0  0  0
  191.8740  174.7970  146.1710 C   0  0  0  0  0  0  0  0  0  0  0  0
  194.0700  176.9160  145.3640 C   0  0  0  0  0  2  0  0  0  0  0  0
  194.0500  174.3570  144.8920 C   0  0  0  0  0  0  0  0  0  0  0  0
  194.5000  175.8940  142.3860 N   0  0  0  0  0  2  0  0  0  0  0  0
  196.6160  176.1230  143.3490 O   0  0  0  0  0  0  0  0  0  0  0  0
  195.3770  175.9380  143.5120 C   0  0  0  0  0  0  0  0  0  0  0  0
  195.0130  175.8580  141.0260 C   0  0  0  0  0  2  0  0  0  0  0  0
  195.2520  174.4150  140.5500 C   0  0  2  0  0  3  0  0  0  0  0  0
  196.6460  175.2850  138.8210 C   0  0  0  0  0  2  0  0  0  0  0  0
  197.8810  173.8150  137.3750 O   0  0  0  0  0  0  0  0  0  0  0  0
  196.6030  172.9470  139.2190 C   0  0  0  0  0  2  0  0  0  0  0  0
  196.5530  174.2620  139.8750 N   0  0  0  0  0  0  0  0  0  0  0  0
  197.8860  172.8380  138.3890 C   0  0  0  0  0  2  0  0  0  0  0  0
  197.9250  175.0720  138.0070 C   0  0  0  0  0  2  0  0  0  0  0  0
  192.9230  173.8370  140.0940 N   0  0  0  0  0  0  0  0  0  0  0  0
  194.1330  173.9690  139.6500 C   0  0  0  0  0  3  0  0  0  0  0  0
  191.8500  173.4130  139.2500 C   0  0  0  0  0  0  0  0  0  0  0  0
  190.6770  173.8460  139.4250 O   0  0  0  0  0  0  0  0  0  0  0  0
  192.1160  172.4490  138.1490 C   0  0  0  0  0  1  0  0  0  0  0  0
  194.7020  173.0560  144.5420 C   0  0  0  0  0  2  0  0  0  0  0  0
  193.7920  170.6510  144.5590 C   0  0  1  0  0  3  0  0  0  0  0  0
  195.0570  170.7320  145.3910 C   0  0  1  0  0  3  0  0  0  0  0  0
  194.1050  171.9120  145.3680 C   0  0  1  0  0  3  0  0  0  0  0  0
  194.8670  170.0150  146.5720 O   0  0  0  0  0  1  0  0  0  0  0  0
  193.2160  170.8280  142.0490 C   0  0  0  0  0  0  0  0  0  0  0  0
  194.1440  170.7700  143.1470 N   0  0  0  0  0  2  0  0  0  0  0  0
  193.6800  170.7100  140.8810 O   0  0  0  0  0  0  0  0  0  0  0  0
  190.8710  170.0640  141.9650 C   0  0  0  0  0  2  0  0  0  0  0  0
  191.7530  171.0250  142.2180 C   0  0  0  0  0  0  0  0  0  0  0  0
  191.2410  172.2810  142.8380 C   0  0  0  0  0  2  0  0  0  0  0  0
  189.7320  172.3760  142.6830 C   0  0  0  0  0  1  0  0  0  0  0  0
  190.5650  174.0860  146.0620 C   0  0  0  0  0  2  0  0  0  0  0  0
  187.5970  176.2970  146.8610 C   0  0  0  0  0  3  0  0  0  0  0  0
  189.1090  175.5550  144.6320 C   0  0  0  0  0  3  0  0  0  0  0  0
  188.0350  176.4350  144.4840 C   0  0  0  0  0  3  0  0  0  0  0  0
  188.6700  175.4150  147.0080 C   0  0  0  0  0  3  0  0  0  0  0  0
  187.2720  176.8200  145.5980 C   0  0  0  0  0  0  0  0  0  0  0  0
  189.4300  175.0440  145.8960 C   0  0  0  0  0  0  0  0  0  0  0  0
  184.9030  177.5680  146.1520 C   0  0  0  0  0  2  0  0  0  0  0  0
  184.7930  179.4700  144.6210 C   0  0  0  0  0  2  0  0  0  0  0  0
  186.1950  178.8890  144.5780 C   0  0  0  0  0  2  0  0  0  0  0  0
  184.0790  178.7900  145.7870 C   0  0  0  0  0  2  0  0  0  0  0  0
  186.1630  177.7230  145.4450 N   0  0  0  0  0  0  0  0  0  0  0  0
  2  1  1  0  0  0  0
  3 10  1  6  0  0  0
  3  7  1  0  0  0  0
  3  6  1  0  0  0  0
  4  5  2  0  0  0  0
  5  2  1  0  0  0  0
  6  1  1  0  0  0  0
  7  4  2  0  0  0  0
  8 10  1  0  0  0  0
  9 10  2  0  0  0  0
 11  8  1  0  0  0  0
 12 20  1  6  0  0  0
 12 11  1  0  0  0  0
 13 16  1  0  0  0  0
 14 18  1  0  0  0  0
 14 17  1  0  0  0  0
 15 16  1  0  0  0  0
 16 12  1  0  0  0  0
 17 15  1  0  0  0  0
 18 13  1  0  0  0  0
 20 19  2  0  0  0  0
 21 22  2  0  0  0  0
 21 19  1  0  0  0  0
 23 21  1  0  0  0  0
 24  7  1  0  0  0  0
 25 30  1  6  0  0  0
 25 27  1  0  0  0  0
 25 26  1  0  0  0  0
 26 28  1  1  0  0  0
 27 24  1  6  0  0  0
 27 26  1  0  0  0  0
 29 33  1  0  0  0  0
 29 30  1  0  0  0  0
 31 29  2  0  0  0  0
 32 33  2  0  0  0  0
 33 34  1  0  0  0  0
 35 34  1  0  0  0  0
 36  5  1  0  0  0  0
 37 40  1  0  0  0  0
 38 42  1  0  0  0  0
 39 38  2  0  0  0  0
 39 41  1  0  0  0  0
 41 37  2  0  0  0  0
 42 36  1  0  0  0  0
 42 40  2  0  0  0  0
 44 46  1  0  0  0  0
 45 44  1  0  0  0  0
 45 47  1  0  0  0  0
 46 43  1  0  0  0  0
 47 41  1  0  0  0  0
 47 43  1  0  0  0  0
M  END
>  <MODEL>
4

>  <REMARK>
 VINA RESULT:      -6.9      2.888      5.228
  Name = 
  14 active torsions:
  status: ('A' for Active; 'I' for Inactive)
    1  A    between atoms: C_1  and  N_5
    2  A    between atoms: C_2  and  C_43
    3  A    between atoms: C_3  and  N_12
    4  A    between atoms: C_3  and  C_18
    5  A    between atoms: C_4  and  N_9
    6  A    between atoms: C_7  and  C_31
    7  A    between atoms: C_18  and  N_26
    8  A    between atoms: C_18  and  C_34
    9  A    between atoms: C_19  and  C_20
   10  A    between atoms: C_22  and  C_43
   11  A    between atoms: C_30  and  C_42
   12  A    between atoms: C_31  and  C_46
   13  A    between atoms: N_41  and  C_45
   14  A    between atoms: C_42  and  C_47
                            x       y       z     vdW  Elec       q    Type
                         _______ _______ _______ _____ _____    ______ ____

>  <TORSDO>
F 14

$$$$
=
 OpenBabel11042415343D

 47 51  0  0  1  0  0  0  0  0999 V2000
  188.1750  176.5720  145.8180 C   0  0  0  0  0  2  0  0  0  0  0  0
  187.9280  177.6880  144.7730 C   0  0  0  0  0  2  0  0  0  0  0  0
  189.4800  174.6240  144.6480 C   0  0  1  0  0  3  0  0  0  0  0  0
  188.2530  176.0120  143.1250 C   0  0  0  0  0  0  0  0  0  0  0  0
  187.7250  177.1710  143.3680 C   0  0  0  0  0  0  0  0  0  0  0  0
  189.5250  175.8550  145.6020 C   0  0  0  0  0  2  0  0  0  0  0  0
  188.8480  174.8700  143.2910 C   0  0  0  0  0  0  0  0  0  0  0  0
  191.8860  174.9290  143.9560 N   0  0  0  0  0  2  0  0  0  0  0  0
  191.1150  172.8900  144.7940 O   0  0  0  0  0  0  0  0  0  0  0  0
  190.8690  174.0950  144.5100 C   0  0  0  0  0  0  0  0  0  0  0  0
  193.1600  174.3810  143.5160 C   0  0  0  0  0  2  0  0  0  0  0  0
  194.3270  174.9180  144.3630 C   0  0  2  0  0  3  0  0  0  0  0  0
  194.7740  175.8090  142.1960 C   0  0  0  0  0  2  0  0  0  0  0  0
  197.0290  176.2070  141.4660 O   0  0  0  0  0  0  0  0  0  0  0  0
  196.5690  175.4610  143.7060 C   0  0  0  0  0  2  0  0  0  0  0  0
  195.1610  175.8740  143.6140 N   0  0  0  0  0  0  0  0  0  0  0  0
  197.4260  176.3590  142.8090 C   0  0  0  0  0  2  0  0  0  0  0  0
  195.7110  176.6900  141.3650 C   0  0  0  0  0  2  0  0  0  0  0  0
  194.6470  172.6130  145.1080 N   0  0  0  0  0  0  0  0  0  0  0  0
  195.1640  173.7800  144.8810 C   0  0  0  0  0  3  0  0  0  0  0  0
  195.4290  171.5230  145.6010 C   0  0  0  0  0  0  0  0  0  0  0  0
  194.9690  170.3480  145.6140 O   0  0  0  0  0  0  0  0  0  0  0  0
  196.8060  171.7730  146.1060 C   0  0  0  0  0  1  0  0  0  0  0  0
  188.6530  173.7460  142.3210 C   0  0  0  0  0  2  0  0  0  0  0  0
  190.0560  173.2840  140.2160 C   0  0  1  0  0  3  0  0  0  0  0  0
  188.5810  173.1440  139.8960 C   0  0  1  0  0  3  0  0  0  0  0  0
  189.0270  174.1860  140.9020 C   0  0  1  0  0  3  0  0  0  0  0  0
  188.3220  173.7660  138.6750 O   0  0  0  0  0  1  0  0  0  0  0  0
  190.7800  170.8320  140.5680 C   0  0  0  0  0  0  0  0  0  0  0  0
  190.4730  172.1550  141.0420 N   0  0  0  0  0  2  0  0  0  0  0  0
  190.9110  169.9150  141.4260 O   0  0  0  0  0  0  0  0  0  0  0  0
  192.1520  170.4350  138.5540 C   0  0  0  0  0  2  0  0  0  0  0  0
  190.9570  170.4920  139.1310 C   0  0  0  0  0  0  0  0  0  0  0  0
  189.7830  170.0450  138.3270 C   0  0  0  0  0  2  0  0  0  0  0  0
  190.1110  170.0740  136.8430 C   0  0  0  0  0  1  0  0  0  0  0  0
  187.4200  178.1010  142.2400 C   0  0  0  0  0  2  0  0  0  0  0  0
  183.6870  178.3110  142.8420 C   0  0  0  0  0  3  0  0  0  0  0  0
  185.4540  178.2310  140.6790 C   0  0  0  0  0  3  0  0  0  0  0  0
  184.0780  178.3040  140.4520 C   0  0  0  0  0  3  0  0  0  0  0  0
  185.0640  178.2360  143.0670 C   0  0  0  0  0  3  0  0  0  0  0  0
  183.1810  178.3510  141.5320 C   0  0  0  0  0  0  0  0  0  0  0  0
  185.9510  178.1980  141.9880 C   0  0  0  0  0  0  0  0  0  0  0  0
  181.1150  177.8340  140.1380 C   0  0  0  0  0  2  0  0  0  0  0  0
  179.4840  179.0220  141.5170 C   0  0  0  0  0  2  0  0  0  0  0  0
  180.8340  179.0720  142.2070 C   0  0  0  0  0  2  0  0  0  0  0  0
  179.6270  178.0390  140.3580 C   0  0  0  0  0  2  0  0  0  0  0  0
  181.7640  178.4210  141.2990 N   0  0  0  0  0  0  0  0  0  0  0  0
  2  1  1  0  0  0  0
  3 10  1  6  0  0  0
  3  6  1  0  0  0  0
  4  7  2  0  0  0  0
  4  5  2  0  0  0  0
  5  2  1  0  0  0  0
  6  1  1  0  0  0  0
  7  3  1  0  0  0  0
  8 10  1  0  0  0  0
 10  9  2  0  0  0  0
 11  8  1  0  0  0  0
 12 11  1  6  0  0  0
 12 20  1  0  0  0  0
 13 16  1  0  0  0  0
 14 17  1  0  0  0  0
 16 15  1  0  0  0  0
 16 12  1  0  0  0  0
 17 15  1  0  0  0  0
 18 14  1  0  0  0  0
 18 13  1  0  0  0  0
 19 21  1  0  0  0  0
 20 19  2  0  0  0  0
 21 22  2  0  0  0  0
 21 23  1  0  0  0  0
 24  7  1  0  0  0  0
 25 27  1  0  0  0  0
 25 30  1  1  0  0  0
 26 28  1  6  0  0  0
 26 25  1  0  0  0  0
 26 27  1  0  0  0  0
 27 24  1  1  0  0  0
 29 30  1  0  0  0  0
 29 31  2  0  0  0  0
 32 33  2  0  0  0  0
 33 29  1  0  0  0  0
 34 33  1  0  0  0  0
 35 34  1  0  0  0  0
 36  5  1  0  0  0  0
 37 40  1  0  0  0  0
 38 42  1  0  0  0  0
 39 38  2  0  0  0  0
 39 41  1  0  0  0  0
 41 37  2  0  0  0  0
 42 36  1  0  0  0  0
 42 40  2  0  0  0  0
 43 46  1  0  0  0  0
 43 47  1  0  0  0  0
 44 45  1  0  0  0  0
 46 44  1  0  0  0  0
 47 41  1  0  0  0  0
 47 45  1  0  0  0  0
M  END
>  <MODEL>
5

>  <REMARK>
 VINA RESULT:      -6.7      3.285      7.352
  Name = 
  14 active torsions:
  status: ('A' for Active; 'I' for Inactive)
    1  A    between atoms: C_1  and  N_5
    2  A    between atoms: C_2  and  C_43
    3  A    between atoms: C_3  and  N_12
    4  A    between atoms: C_3  and  C_18
    5  A    between atoms: C_4  and  N_9
    6  A    between atoms: C_7  and  C_31
    7  A    between atoms: C_18  and  N_26
    8  A    between atoms: C_18  and  C_34
    9  A    between atoms: C_19  and  C_20
   10  A    between atoms: C_22  and  C_43
   11  A    between atoms: C_30  and  C_42
   12  A    between atoms: C_31  and  C_46
   13  A    between atoms: N_41  and  C_45
   14  A    between atoms: C_42  and  C_47
                            x       y       z     vdW  Elec       q    Type
                         _______ _______ _______ _____ _____    ______ ____

>  <TORSDO>
F 14

$$$$
=
 OpenBabel11042415343D

 47 51  0  0  1  0  0  0  0  0999 V2000
  194.0990  177.0340  146.8390 C   0  0  0  0  0  2  0  0  0  0  0  0
  192.6210  176.5960  146.9960 C   0  0  0  0  0  2  0  0  0  0  0  0
  195.1270  175.7410  144.8040 C   0  0  1  0  0  3  0  0  0  0  0  0
  193.2220  174.6540  145.7720 C   0  0  0  0  0  0  0  0  0  0  0  0
  192.3690  175.1570  146.6100 C   0  0  0  0  0  0  0  0  0  0  0  0
  194.5430  177.0740  145.3600 C   0  0  0  0  0  2  0  0  0  0  0  0
  194.2620  174.5120  145.0080 C   0  0  0  0  0  0  0  0  0  0  0  0
  196.7650  175.6680  142.8870 N   0  0  0  0  0  2  0  0  0  0  0  0
  194.5820  176.4440  142.5880 O   0  0  0  0  0  0  0  0  0  0  0  0
  195.4470  175.9430  143.3600 C   0  0  0  0  0  0  0  0  0  0  0  0
  197.2140  176.1310  141.5830 C   0  0  0  0  0  2  0  0  0  0  0  0
  197.0980  175.0240  140.5200 C   0  0  2  0  0  3  0  0  0  0  0  0
  194.9010  174.2440  140.0130 C   0  0  0  0  0  2  0  0  0  0  0  0
  194.1740  174.0020  137.7340 O   0  0  0  0  0  0  0  0  0  0  0  0
  196.3290  174.9390  138.2500 C   0  0  0  0  0  2  0  0  0  0  0  0
  195.9350  175.2230  139.6380 N   0  0  0  0  0  0  0  0  0  0  0  0
  195.0940  174.9950  137.3460 C   0  0  0  0  0  2  0  0  0  0  0  0
  193.7300  174.3300  139.0300 C   0  0  0  0  0  2  0  0  0  0  0  0
  197.7560  172.6820  140.7490 N   0  0  0  0  0  0  0  0  0  0  0  0
  197.0380  173.6720  141.1770 C   0  0  0  0  0  3  0  0  0  0  0  0
  197.7090  171.3920  141.3620 C   0  0  0  0  0  0  0  0  0  0  0  0
  197.9390  170.3470  140.6940 O   0  0  0  0  0  0  0  0  0  0  0  0
  197.3840  171.2770  142.8090 C   0  0  0  0  0  1  0  0  0  0  0  0
  194.7510  173.1540  144.6090 C   0  0  0  0  0  2  0  0  0  0  0  0
  193.4610  170.9300  144.5690 C   0  0  1  0  0  3  0  0  0  0  0  0
  194.7830  170.7490  145.2890 C   0  0  1  0  0  3  0  0  0  0  0  0
  194.0410  172.0650  145.4180 C   0  0  1  0  0  3  0  0  0  0  0  0
  194.5710  169.9890  146.4380 O   0  0  0  0  0  1  0  0  0  0  0  0
  192.7390  171.4450  142.1450 C   0  0  0  0  0  0  0  0  0  0  0  0
  193.7150  171.0920  143.1410 N   0  0  0  0  0  2  0  0  0  0  0  0
  193.0680  171.3310  140.9320 O   0  0  0  0  0  0  0  0  0  0  0  0
  190.2920  171.1800  142.3380 C   0  0  0  0  0  2  0  0  0  0  0  0
  191.3740  171.9390  142.4690 C   0  0  0  0  0  0  0  0  0  0  0  0
  191.2040  173.2740  143.1110 C   0  0  0  0  0  2  0  0  0  0  0  0
  191.7360  174.3730  142.2060 C   0  0  0  0  0  1  0  0  0  0  0  0
  191.0140  174.5460  146.7490 C   0  0  0  0  0  2  0  0  0  0  0  0
  189.1710  176.9460  144.4720 C   0  0  0  0  0  3  0  0  0  0  0  0
  188.7550  175.6390  146.9060 C   0  0  0  0  0  3  0  0  0  0  0  0
  187.7720  176.4890  146.3950 C   0  0  0  0  0  3  0  0  0  0  0  0
  190.1540  176.0970  144.9860 C   0  0  0  0  0  3  0  0  0  0  0  0
  187.9680  177.1470  145.1700 C   0  0  0  0  0  0  0  0  0  0  0  0
  189.9490  175.4390  146.2010 C   0  0  0  0  0  0  0  0  0  0  0  0
  186.7810  178.2850  143.2270 C   0  0  0  0  0  2  0  0  0  0  0  0
  185.2220  179.6330  144.5390 C   0  0  0  0  0  2  0  0  0  0  0  0
  186.0030  178.7350  145.4810 C   0  0  0  0  0  2  0  0  0  0  0  0
  185.5460  179.1610  143.1240 C   0  0  0  0  0  2  0  0  0  0  0  0
  186.9580  178.0270  144.6460 N   0  0  0  0  0  0  0  0  0  0  0  0
  1  2  1  0  0  0  0
  3 10  1  6  0  0  0
  3  7  1  0  0  0  0
  3  6  1  0  0  0  0
  4  5  2  0  0  0  0
  5 36  1  0  0  0  0
  5  2  1  0  0  0  0
  6  1  1  0  0  0  0
  7  4  2  0  0  0  0
  8 10  1  0  0  0  0
  9 10  2  0  0  0  0
 11  8  1  0  0  0  0
 12 20  1  1  0  0  0
 12 11  1  0  0  0  0
 14 18  1  0  0  0  0
 15 16  1  0  0  0  0
 16 13  1  0  0  0  0
 16 12  1  0  0  0  0
 17 14  1  0  0  0  0
 17 15  1  0  0  0  0
 18 13  1  0  0  0  0
 19 20  2  0  0  0  0
 19 21  1  0  0  0  0
 21 23  1  0  0  0  0
 22 21  2  0  0  0  0
 24  7  1  0  0  0  0
 25 30  1  6  0  0  0
 25 26  1  0  0  0  0
 25 27  1  0  0  0  0
 26 27  1  0  0  0  0
 26 28  1  1  0  0  0
 27 24  1  6  0  0  0
 29 33  1  0  0  0  0
 29 30  1  0  0  0  0
 31 29  2  0  0  0  0
 32 33  2  0  0  0  0
 33 34  1  0  0  0  0
 35 34  1  0  0  0  0
 37 40  2  0  0  0  0
 37 41  1  0  0  0  0
 39 38  1  0  0  0  0
 40 42  1  0  0  0  0
 41 39  2  0  0  0  0
 42 36  1  0  0  0  0
 42 38  2  0  0  0  0
 43 47  1  0  0  0  0
 44 45  1  0  0  0  0
 46 43  1  0  0  0  0
 46 44  1  0  0  0  0
 47 41  1  0  0  0  0
 47 45  1  0  0  0  0
M  END
>  <MODEL>
6

>  <REMARK>
 VINA RESULT:      -6.7      3.031      5.434
  Name = 
  14 active torsions:
  status: ('A' for Active; 'I' for Inactive)
    1  A    between atoms: C_1  and  N_5
    2  A    between atoms: C_2  and  C_43
    3  A    between atoms: C_3  and  N_12
    4  A    between atoms: C_3  and  C_18
    5  A    between atoms: C_4  and  N_9
    6  A    between atoms: C_7  and  C_31
    7  A    between atoms: C_18  and  N_26
    8  A    between atoms: C_18  and  C_34
    9  A    between atoms: C_19  and  C_20
   10  A    between atoms: C_22  and  C_43
   11  A    between atoms: C_30  and  C_42
   12  A    between atoms: C_31  and  C_46
   13  A    between atoms: N_41  and  C_45
   14  A    between atoms: C_42  and  C_47
                            x       y       z     vdW  Elec       q    Type
                         _______ _______ _______ _____ _____    ______ ____

>  <TORSDO>
F 14

$$$$
=
 OpenBabel11042415343D

 47 51  0  0  1  0  0  0  0  0999 V2000
  194.5570  177.2000  146.7280 C   0  0  0  0  0  2  0  0  0  0  0  0
  193.0950  176.8490  147.1000 C   0  0  0  0  0  2  0  0  0  0  0  0
  195.1720  175.9260  144.5210 C   0  0  1  0  0  3  0  0  0  0  0  0
  193.3690  174.9220  145.7420 C   0  0  0  0  0  0  0  0  0  0  0  0
  192.6910  175.4440  146.7160 C   0  0  0  0  0  0  0  0  0  0  0  0
  194.7720  177.2700  145.2000 C   0  0  0  0  0  2  0  0  0  0  0  0
  194.2670  174.7460  144.8210 C   0  0  0  0  0  0  0  0  0  0  0  0
  194.1910  175.8090  142.2010 N   0  0  0  0  0  2  0  0  0  0  0  0
  196.3630  176.5900  142.5600 O   0  0  0  0  0  0  0  0  0  0  0  0
  195.2800  176.1650  143.0520 C   0  0  0  0  0  0  0  0  0  0  0  0
  194.3510  175.7310  140.7570 C   0  0  0  0  0  2  0  0  0  0  0  0
  194.3870  174.2710  140.2710 C   0  0  2  0  0  3  0  0  0  0  0  0
  196.6210  173.7930  139.5840 C   0  0  0  0  0  2  0  0  0  0  0  0
  197.5750  171.6120  139.9210 O   0  0  0  0  0  0  0  0  0  0  0  0
  195.3820  172.1440  140.7560 C   0  0  0  0  0  2  0  0  0  0  0  0
  195.6340  173.5890  140.6580 N   0  0  0  0  0  0  0  0  0  0  0  0
  196.7020  171.4100  141.0090 C   0  0  0  0  0  2  0  0  0  0  0  0
  197.8860  172.9850  139.8870 C   0  0  0  0  0  2  0  0  0  0  0  0
  194.0380  175.2890  138.0770 N   0  0  0  0  0  0  0  0  0  0  0  0
  194.1910  174.2110  138.7810 C   0  0  0  0  0  3  0  0  0  0  0  0
  193.8500  175.2470  136.6610 C   0  0  0  0  0  0  0  0  0  0  0  0
  194.4510  174.3940  135.9520 O   0  0  0  0  0  0  0  0  0  0  0  0
  192.9330  176.2210  136.0120 C   0  0  0  0  0  1  0  0  0  0  0  0
  194.5970  173.3780  144.3120 C   0  0  0  0  0  2  0  0  0  0  0  0
  193.1670  171.2690  144.6590 C   0  0  1  0  0  3  0  0  0  0  0  0
  194.6310  170.9440  144.8790 C   0  0  1  0  0  3  0  0  0  0  0  0
  194.1030  172.3050  145.2870 C   0  0  1  0  0  3  0  0  0  0  0  0
  194.7500  170.1400  146.0120 O   0  0  0  0  0  1  0  0  0  0  0  0
  191.7900  172.1370  142.6560 C   0  0  0  0  0  0  0  0  0  0  0  0
  192.9380  171.4890  143.2350 N   0  0  0  0  0  2  0  0  0  0  0  0
  191.6370  172.0540  141.4050 O   0  0  0  0  0  0  0  0  0  0  0  0
  190.1180  172.3540  144.4580 C   0  0  0  0  0  2  0  0  0  0  0  0
  190.7870  172.8960  143.4470 C   0  0  0  0  0  0  0  0  0  0  0  0
  190.6200  174.3610  143.2190 C   0  0  0  0  0  2  0  0  0  0  0  0
  189.2040  174.6710  142.7620 C   0  0  0  0  0  1  0  0  0  0  0  0
  191.3340  174.9150  147.0470 C   0  0  0  0  0  2  0  0  0  0  0  0
  187.8990  176.1570  146.0500 C   0  0  0  0  0  3  0  0  0  0  0  0
  190.5730  176.8650  145.6560 C   0  0  0  0  0  3  0  0  0  0  0  0
  189.5570  177.6270  145.0740 C   0  0  0  0  0  3  0  0  0  0  0  0
  188.9160  175.3940  146.6290 C   0  0  0  0  0  3  0  0  0  0  0  0
  188.2090  177.2840  145.2700 C   0  0  0  0  0  0  0  0  0  0  0  0
  190.2540  175.7470  146.4370 C   0  0  0  0  0  0  0  0  0  0  0  0
  186.1290  178.7410  145.4310 C   0  0  0  0  0  2  0  0  0  0  0  0
  185.7480  179.0350  143.0360 C   0  0  0  0  0  2  0  0  0  0  0  0
  187.0450  178.2720  143.2340 C   0  0  0  0  0  2  0  0  0  0  0  0
  185.3240  179.5310  144.4150 C   0  0  0  0  0  2  0  0  0  0  0  0
  187.1640  178.0650  144.6670 N   0  0  0  0  0  0  0  0  0  0  0  0
  1  2  1  0  0  0  0
  3 10  1  6  0  0  0
  3  7  1  0  0  0  0
  3  6  1  0  0  0  0
  4  5  2  0  0  0  0
  5 36  1  0  0  0  0
  5  2  1  0  0  0  0
  6  1  1  0  0  0  0
  7  4  2  0  0  0  0
  8 10  1  0  0  0  0
  9 10  2  0  0  0  0
 11  8  1  0  0  0  0
 12 20  1  6  0  0  0
 12 16  1  0  0  0  0
 12 11  1  0  0  0  0
 13 18  1  0  0  0  0
 13 16  1  0  0  0  0
 14 17  1  0  0  0  0
 15 17  1  0  0  0  0
 16 15  1  0  0  0  0
 18 14  1  0  0  0  0
 19 20  2  0  0  0  0
 21 19  1  0  0  0  0
 22 21  2  0  0  0  0
 23 21  1  0  0  0  0
 24  7  1  0  0  0  0
 25 30  1  6  0  0  0
 25 26  1  0  0  0  0
 25 27  1  0  0  0  0
 26 27  1  0  0  0  0
 26 28  1  1  0  0  0
 27 24  1  6  0  0  0
 29 30  1  0  0  0  0
 29 33  1  0  0  0  0
 31 29  2  0  0  0  0
 33 32  2  0  0  0  0
 34 33  1  0  0  0  0
 35 34  1  0  0  0  0
 37 40  1  0  0  0  0
 38 42  1  0  0  0  0
 39 41  1  0  0  0  0
 39 38  2  0  0  0  0
 41 37  2  0  0  0  0
 42 40  2  0  0  0  0
 42 36  1  0  0  0  0
 44 45  1  0  0  0  0
 44 46  1  0  0  0  0
 45 47  1  0  0  0  0
 46 43  1  0  0  0  0
 47 41  1  0  0  0  0
 47 43  1  0  0  0  0
M  END
>  <MODEL>
7

>  <REMARK>
 VINA RESULT:      -6.6      2.669      5.151
  Name = 
  14 active torsions:
  status: ('A' for Active; 'I' for Inactive)
    1  A    between atoms: C_1  and  N_5
    2  A    between atoms: C_2  and  C_43
    3  A    between atoms: C_3  and  N_12
    4  A    between atoms: C_3  and  C_18
    5  A    between atoms: C_4  and  N_9
    6  A    between atoms: C_7  and  C_31
    7  A    between atoms: C_18  and  N_26
    8  A    between atoms: C_18  and  C_34
    9  A    between atoms: C_19  and  C_20
   10  A    between atoms: C_22  and  C_43
   11  A    between atoms: C_30  and  C_42
   12  A    between atoms: C_31  and  C_46
   13  A    between atoms: N_41  and  C_45
   14  A    between atoms: C_42  and  C_47
                            x       y       z     vdW  Elec       q    Type
                         _______ _______ _______ _____ _____    ______ ____

>  <TORSDO>
F 14

$$$$
=
 OpenBabel11042415343D

 47 51  0  0  1  0  0  0  0  0999 V2000
  191.2580  175.4350  146.9710 C   0  0  0  0  0  2  0  0  0  0  0  0
  191.1000  176.7790  146.2170 C   0  0  0  0  0  2  0  0  0  0  0  0
  192.8560  173.8940  145.5780 C   0  0  1  0  0  3  0  0  0  0  0  0
  191.7860  175.6000  144.2760 C   0  0  0  0  0  0  0  0  0  0  0  0
  191.1500  176.6420  144.7130 C   0  0  0  0  0  0  0  0  0  0  0  0
  192.6710  174.8340  146.8060 C   0  0  0  0  0  2  0  0  0  0  0  0
  192.4240  174.4700  144.2420 C   0  0  0  0  0  0  0  0  0  0  0  0
  195.2920  174.3820  145.1420 N   0  0  0  0  0  2  0  0  0  0  0  0
  194.5760  172.2490  145.7720 O   0  0  0  0  0  0  0  0  0  0  0  0
  194.2820  173.4560  145.5410 C   0  0  0  0  0  0  0  0  0  0  0  0
  196.6330  173.9380  144.7950 C   0  0  0  0  0  2  0  0  0  0  0  0
  196.8530  173.9430  143.2720 C   0  0  2  0  0  3  0  0  0  0  0  0
  195.5370  174.0260  141.2840 C   0  0  0  0  0  2  0  0  0  0  0  0
  195.1240  176.1130  140.1640 O   0  0  0  0  0  0  0  0  0  0  0  0
  196.3140  176.0460  142.2540 C   0  0  0  0  0  2  0  0  0  0  0  0
  195.8070  174.7020  142.5630 N   0  0  0  0  0  0  0  0  0  0  0  0
  195.2940  176.7910  141.3870 C   0  0  0  0  0  2  0  0  0  0  0  0
  194.5530  174.8600  140.4590 C   0  0  0  0  0  2  0  0  0  0  0  0
  196.8010  171.5150  143.5390 N   0  0  0  0  0  0  0  0  0  0  0  0
  196.9300  172.5350  142.7500 C   0  0  0  0  0  3  0  0  0  0  0  0
  196.8730  170.1720  143.0570 C   0  0  0  0  0  0  0  0  0  0  0  0
  197.9410  169.5070  143.1460 O   0  0  0  0  0  0  0  0  0  0  0  0
  195.6720  169.5450  142.4430 C   0  0  0  0  0  1  0  0  0  0  0  0
  192.4560  173.6350  143.0000 C   0  0  0  0  0  2  0  0  0  0  0  0
  191.0990  171.7620  141.8750 C   0  0  1  0  0  3  0  0  0  0  0  0
  192.3280  171.1800  142.5470 C   0  0  1  0  0  3  0  0  0  0  0  0
  191.6230  172.3620  143.1830 C   0  0  1  0  0  3  0  0  0  0  0  0
  191.9650  170.0140  143.2200 O   0  0  0  0  0  1  0  0  0  0  0  0
  190.6730  173.3700  139.9020 C   0  0  0  0  0  0  0  0  0  0  0  0
  191.5130  172.5100  140.6920 N   0  0  0  0  0  2  0  0  0  0  0  0
  191.1200  173.7690  138.7900 O   0  0  0  0  0  0  0  0  0  0  0  0
  188.2190  173.4740  139.6650 C   0  0  0  0  0  2  0  0  0  0  0  0
  189.3190  173.8140  140.3250 C   0  0  0  0  0  0  0  0  0  0  0  0
  189.1490  174.5380  141.6180 C   0  0  0  0  0  2  0  0  0  0  0  0
  187.6910  174.5260  142.0470 C   0  0  0  0  0  1  0  0  0  0  0  0
  190.9590  177.8260  143.8240 C   0  0  0  0  0  2  0  0  0  0  0  0
  187.1730  177.8490  143.7790 C   0  0  0  0  0  3  0  0  0  0  0  0
  189.2860  178.1500  141.9760 C   0  0  0  0  0  3  0  0  0  0  0  0
  187.9670  178.2240  141.5230 C   0  0  0  0  0  3  0  0  0  0  0  0
  188.4930  177.7730  144.2310 C   0  0  0  0  0  3  0  0  0  0  0  0
  186.8970  178.0800  142.4210 C   0  0  0  0  0  0  0  0  0  0  0  0
  189.5520  177.9260  143.3330 C   0  0  0  0  0  0  0  0  0  0  0  0
  184.3850  178.0240  142.8280 C   0  0  0  0  0  2  0  0  0  0  0  0
  183.6710  178.2450  140.5010 C   0  0  0  0  0  2  0  0  0  0  0  0
  185.1830  178.3710  140.5620 C   0  0  0  0  0  2  0  0  0  0  0  0
  183.1770  178.2780  141.9450 C   0  0  0  0  0  2  0  0  0  0  0  0
  185.5390  178.1510  141.9540 N   0  0  0  0  0  0  0  0  0  0  0  0
  2  1  1  0  0  0  0
  3 10  1  6  0  0  0
  3  6  1  0  0  0  0
  4  5  2  0  0  0  0
  5  2  1  0  0  0  0
  6  1  1  0  0  0  0
  7  4  2  0  0  0  0
  7  3  1  0  0  0  0
  8 10  1  0  0  0  0
 10  9  2  0  0  0  0
 11  8  1  0  0  0  0
 12 20  1  6  0  0  0
 12 11  1  0  0  0  0
 13 16  1  0  0  0  0
 14 18  1  0  0  0  0
 14 17  1  0  0  0  0
 15 16  1  0  0  0  0
 16 12  1  0  0  0  0
 17 15  1  0  0  0  0
 18 13  1  0  0  0  0
 20 19  2  0  0  0  0
 21 22  2  0  0  0  0
 21 19  1  0  0  0  0
 23 21  1  0  0  0  0
 24  7  1  0  0  0  0
 25 30  1  6  0  0  0
 25 26  1  0  0  0  0
 25 27  1  0  0  0  0
 26 27  1  0  0  0  0
 26 28  1  1  0  0  0
 27 24  1  6  0  0  0
 29 33  1  0  0  0  0
 29 30  1  0  0  0  0
 31 29  2  0  0  0  0
 32 33  2  0  0  0  0
 33 34  1  0  0  0  0
 34 35  1  0  0  0  0
 36  5  1  0  0  0  0
 37 40  1  0  0  0  0
 38 42  1  0  0  0  0
 39 38  2  0  0  0  0
 39 41  1  0  0  0  0
 41 37  2  0  0  0  0
 42 36  1  0  0  0  0
 42 40  2  0  0  0  0
 44 45  1  0  0  0  0
 44 46  1  0  0  0  0
 45 47  1  0  0  0  0
 46 43  1  0  0  0  0
 47 41  1  0  0  0  0
 47 43  1  0  0  0  0
M  END
>  <MODEL>
8

>  <REMARK>
 VINA RESULT:      -6.6      3.093      5.648
  Name = 
  14 active torsions:
  status: ('A' for Active; 'I' for Inactive)
    1  A    between atoms: C_1  and  N_5
    2  A    between atoms: C_2  and  C_43
    3  A    between atoms: C_3  and  N_12
    4  A    between atoms: C_3  and  C_18
    5  A    between atoms: C_4  and  N_9
    6  A    between atoms: C_7  and  C_31
    7  A    between atoms: C_18  and  N_26
    8  A    between atoms: C_18  and  C_34
    9  A    between atoms: C_19  and  C_20
   10  A    between atoms: C_22  and  C_43
   11  A    between atoms: C_30  and  C_42
   12  A    between atoms: C_31  and  C_46
   13  A    between atoms: N_41  and  C_45
   14  A    between atoms: C_42  and  C_47
                            x       y       z     vdW  Elec       q    Type
                         _______ _______ _______ _____ _____    ______ ____

>  <TORSDO>
F 14

$$$$
=
 OpenBabel11042415343D

 47 51  0  0  1  0  0  0  0  0999 V2000
  196.7240  176.3860  142.9000 C   0  0  0  0  0  2  0  0  0  0  0  0
  196.0660  176.7100  144.2640 C   0  0  0  0  0  2  0  0  0  0  0  0
  195.2310  174.6210  141.6650 C   0  0  1  0  0  3  0  0  0  0  0  0
  194.9390  174.6330  144.0450 C   0  0  0  0  0  0  0  0  0  0  0  0
  195.3430  175.5370  144.8840 C   0  0  0  0  0  0  0  0  0  0  0  0
  195.6790  176.1080  141.7970 C   0  0  0  0  0  2  0  0  0  0  0  0
  194.7570  173.9640  142.9480 C   0  0  0  0  0  0  0  0  0  0  0  0
  194.4350  173.7790  139.4250 N   0  0  0  0  0  2  0  0  0  0  0  0
  193.1320  175.2350  140.7050 O   0  0  0  0  0  0  0  0  0  0  0  0
  194.1860  174.5470  140.6020 C   0  0  0  0  0  0  0  0  0  0  0  0
  193.6010  173.9150  138.2400 C   0  0  0  0  0  2  0  0  0  0  0  0
  192.6060  172.7490  138.1120 C   0  0  2  0  0  3  0  0  0  0  0  0
  190.6610  173.1750  139.4260 C   0  0  0  0  0  2  0  0  0  0  0  0
  188.4770  172.5650  138.6300 O   0  0  0  0  0  0  0  0  0  0  0  0
  190.4210  172.2840  137.2410 C   0  0  0  0  0  2  0  0  0  0  0  0
  191.2090  173.2150  138.0610 N   0  0  0  0  0  0  0  0  0  0  0  0
  188.9410  172.6740  137.3040 C   0  0  0  0  0  2  0  0  0  0  0  0
  189.1710  173.5230  139.3930 C   0  0  0  0  0  2  0  0  0  0  0  0
  193.1350  170.5420  139.0180 N   0  0  0  0  0  0  0  0  0  0  0  0
  192.7970  171.7730  139.2410 C   0  0  0  0  0  3  0  0  0  0  0  0
  193.3190  169.6030  140.0800 C   0  0  0  0  0  0  0  0  0  0  0  0
  192.3930  168.8160  140.4170 O   0  0  0  0  0  0  0  0  0  0  0  0
  194.6200  169.5510  140.7990 C   0  0  0  0  0  1  0  0  0  0  0  0
  194.3940  172.5120  142.9770 C   0  0  0  0  0  2  0  0  0  0  0  0
  193.0630  171.0690  144.6380 C   0  0  1  0  0  3  0  0  0  0  0  0
  194.4700  170.5250  144.4910 C   0  0  1  0  0  3  0  0  0  0  0  0
  194.2410  172.0220  144.4200 C   0  0  1  0  0  3  0  0  0  0  0  0
  194.9610  170.1960  145.7540 O   0  0  0  0  0  1  0  0  0  0  0  0
  191.0790  171.4130  143.0220 C   0  0  0  0  0  0  0  0  0  0  0  0
  192.3150  170.7900  143.4150 N   0  0  0  0  0  2  0  0  0  0  0  0
  190.4490  170.9070  142.0510 O   0  0  0  0  0  0  0  0  0  0  0  0
  189.6910  172.5300  144.7290 C   0  0  0  0  0  2  0  0  0  0  0  0
  190.5140  172.6140  143.6900 C   0  0  0  0  0  0  0  0  0  0  0  0
  190.9910  173.9720  143.2990 C   0  0  0  0  0  2  0  0  0  0  0  0
  189.8530  174.7870  142.7080 C   0  0  0  0  0  1  0  0  0  0  0  0
  194.6960  175.6500  146.2250 C   0  0  0  0  0  2  0  0  0  0  0  0
  191.3980  177.1540  145.1290 C   0  0  0  0  0  3  0  0  0  0  0  0
  192.3150  175.1850  146.8870 C   0  0  0  0  0  3  0  0  0  0  0  0
  190.9470  175.4450  146.7850 C   0  0  0  0  0  3  0  0  0  0  0  0
  192.7660  176.8940  145.2330 C   0  0  0  0  0  3  0  0  0  0  0  0
  190.4740  176.4290  145.9000 C   0  0  0  0  0  0  0  0  0  0  0  0
  193.2290  175.9080  146.1090 C   0  0  0  0  0  0  0  0  0  0  0  0
  188.4850  177.5400  144.7650 C   0  0  0  0  0  2  0  0  0  0  0  0
  186.7580  176.7920  146.3230 C   0  0  0  0  0  2  0  0  0  0  0  0
  188.0780  176.1510  146.7130 C   0  0  0  0  0  2  0  0  0  0  0  0
  186.9830  177.4530  144.9660 C   0  0  0  0  0  2  0  0  0  0  0  0
  189.0660  176.7000  145.8000 N   0  0  0  0  0  0  0  0  0  0  0  0
  1  2  1  0  0  0  0
  2  5  1  0  0  0  0
  3 10  1  6  0  0  0
  3  6  1  0  0  0  0
  3  7  1  0  0  0  0
  4  5  2  0  0  0  0
  5 36  1  0  0  0  0
  6  1  1  0  0  0  0
  7 24  1  0  0  0  0
  7  4  2  0  0  0  0
  8 10  1  0  0  0  0
 10  9  2  0  0  0  0
 11  8  1  0  0  0  0
 12 11  1  1  0  0  0
 12 20  1  0  0  0  0
 14 18  1  0  0  0  0
 15 17  1  0  0  0  0
 15 16  1  0  0  0  0
 16 12  1  0  0  0  0
 16 13  1  0  0  0  0
 17 14  1  0  0  0  0
 18 13  1  0  0  0  0
 19 20  2  0  0  0  0
 19 21  1  0  0  0  0
 21 22  2  0  0  0  0
 21 23  1  0  0  0  0
 25 30  1  6  0  0  0
 26 25  1  0  0  0  0
 26 28  1  1  0  0  0
 27 24  1  6  0  0  0
 27 26  1  0  0  0  0
 27 25  1  0  0  0  0
 29 30  1  0  0  0  0
 29 33  1  0  0  0  0
 31 29  2  0  0  0  0
 33 32  2  0  0  0  0
 34 33  1  0  0  0  0
 35 34  1  0  0  0  0
 37 40  2  0  0  0  0
 37 41  1  0  0  0  0
 39 38  1  0  0  0  0
 40 42  1  0  0  0  0
 41 39  2  0  0  0  0
 42 36  1  0  0  0  0
 42 38  2  0  0  0  0
 43 46  1  0  0  0  0
 43 47  1  0  0  0  0
 44 45  1  0  0  0  0
 46 44  1  0  0  0  0
 47 41  1  0  0  0  0
 47 45  1  0  0  0  0
M  END
>  <MODEL>
9

>  <REMARK>
 VINA RESULT:      -6.5      2.614      4.593
  Name = 
  14 active torsions:
  status: ('A' for Active; 'I' for Inactive)
    1  A    between atoms: C_1  and  N_5
    2  A    between atoms: C_2  and  C_43
    3  A    between atoms: C_3  and  N_12
    4  A    between atoms: C_3  and  C_18
    5  A    between atoms: C_4  and  N_9
    6  A    between atoms: C_7  and  C_31
    7  A    between atoms: C_18  and  N_26
    8  A    between atoms: C_18  and  C_34
    9  A    between atoms: C_19  and  C_20
   10  A    between atoms: C_22  and  C_43
   11  A    between atoms: C_30  and  C_42
   12  A    between atoms: C_31  and  C_46
   13  A    between atoms: N_41  and  C_45
   14  A    between atoms: C_42  and  C_47
                            x       y       z     vdW  Elec       q    Type
                         _______ _______ _______ _____ _____    ______ ____

>  <TORSDO>
F 14

$$$$
