=
 OpenBabel11042414233D

 27 30  0  0  1  0  0  0  0  0999 V2000
  186.5070  178.3010  143.6960 C   0  0  0  0  0  3  0  0  0  0  0  0
  187.2320  177.3130  141.7660 C   0  0  0  0  0  0  0  0  0  0  0  0
  188.1340  176.9660  142.7410 C   0  0  0  0  0  0  0  0  0  0  0  0
  187.6800  177.5690  143.9200 C   0  0  2  0  0  3  0  0  0  0  0  0
  186.2350  178.1460  142.3540 C   0  0  0  0  0  0  0  0  0  0  0  0
  185.1980  178.6100  141.5640 C   0  0  0  0  0  3  0  0  0  0  0  0
  185.1870  178.2410  140.2480 N   0  0  0  0  0  0  0  0  0  0  0  0
  186.1530  177.4330  139.7030 C   0  0  0  0  0  3  0  0  0  0  0  0
  187.1860  176.9560  140.4620 N   0  0  0  0  0  0  0  0  0  0  0  0
  189.2890  176.0240  142.5920 C   0  0  1  0  0  3  0  0  0  0  0  0
  188.8960  174.6430  143.0900 C   0  0  1  0  0  3  0  0  0  0  0  0
  188.9550  174.9190  141.6050 C   0  0  0  0  0  2  0  0  0  0  0  0
  190.1470  173.9080  143.5190 C   0  0  0  0  0  2  0  0  0  0  0  0
  190.0460  173.5560  144.9910 C   0  0  0  0  0  2  0  0  0  0  0  0
  191.0100  175.9610  147.7820 C   0  0  0  0  0  3  0  0  0  0  0  0
  192.6980  176.0360  146.0510 C   0  0  0  0  0  3  0  0  0  0  0  0
  191.9880  175.0830  145.3170 C   0  0  0  0  0  3  0  0  0  0  0  0
  190.2930  175.0070  147.0530 C   0  0  0  0  0  0  0  0  0  0  0  0
  190.7880  174.5600  145.8110 C   0  0  0  0  0  0  0  0  0  0  0  0
  189.0160  174.4810  147.6170 C   0  0  0  0  0  1  0  0  0  0  0  0
  192.2090  176.4750  147.2830 C   0  0  0  0  0  3  0  0  0  0  0  0
  188.3050  177.4050  145.2670 C   0  0  0  0  0  2  0  0  0  0  0  0
  187.2710  176.9830  146.2970 C   0  0  0  0  0  2  0  0  0  0  0  0
  187.1170  178.0190  147.3040 N   0  0  0  0  0  2  0  0  0  0  0  0
  185.7950  177.9490  147.7550 N   0  0  0  0  0  2  0  0  0  0  0  0
  184.7470  178.3360  146.9110 C   0  0  0  0  0  0  0  0  0  0  0  0
  183.8810  178.6560  146.2140 N   0  0  0  0  0  0  0  0  0  0  0  0
  1  4  1  0  0  0  0
  2  5  1  0  0  0  0
  2  3  2  0  0  0  0
  3  4  1  0  0  0  0
  4 22  1  1  0  0  0
  5  1  2  0  0  0  0
  6  5  1  0  0  0  0
  7  6  2  0  0  0  0
  8  7  1  0  0  0  0
  8  9  2  0  0  0  0
  9  2  1  0  0  0  0
 10  3  1  1  0  0  0
 10 11  1  0  0  0  0
 11 13  1  6  0  0  0
 12 10  1  0  0  0  0
 12 11  1  0  0  0  0
 13 14  1  0  0  0  0
 14 19  1  0  0  0  0
 16 21  2  0  0  0  0
 17 19  2  0  0  0  0
 17 16  1  0  0  0  0
 18 20  1  0  0  0  0
 18 15  2  0  0  0  0
 19 18  1  0  0  0  0
 21 15  1  0  0  0  0
 22 23  1  0  0  0  0
 23 24  1  0  0  0  0
 24 25  1  0  0  0  0
 26 25  1  0  0  0  0
 27 26  3  0  0  0  0
M  END
>  <MODEL>
1

>  <REMARK>
 VINA RESULT:      -6.7      0.000      0.000
  Name = 
  9 active torsions:
  status: ('A' for Active; 'I' for Inactive)
    1  A    between atoms: C_1  and  N_10
    2  A    between atoms: C_5  and  C_12
    3  A    between atoms: C_5  and  C_19
    4  A    between atoms: C_6  and  N_14
    5  A    between atoms: C_6  and  C_26
    6  A    between atoms: C_8  and  C_15
    7  A    between atoms: N_10  and  N_14
    8  A    between atoms: C_11  and  C_26
    9  A    between atoms: C_12  and  C_20
                            x       y       z     vdW  Elec       q    Type
                         _______ _______ _______ _____ _____    ______ ____

>  <TORSDO>
F 9

$$$$
=
 OpenBabel11042414233D

 27 30  0  0  1  0  0  0  0  0999 V2000
  191.7870  177.2730  144.0410 C   0  0  0  0  0  3  0  0  0  0  0  0
  191.1540  175.5190  142.7190 C   0  0  0  0  0  0  0  0  0  0  0  0
  190.0580  175.8480  143.4760 C   0  0  0  0  0  0  0  0  0  0  0  0
  190.4510  176.9270  144.2770 C   0  0  2  0  0  3  0  0  0  0  0  0
  192.2240  176.3920  143.0770 C   0  0  0  0  0  0  0  0  0  0  0  0
  193.4390  176.2640  142.4280 C   0  0  0  0  0  3  0  0  0  0  0  0
  193.5500  175.2960  141.4700 N   0  0  0  0  0  0  0  0  0  0  0  0
  192.5060  174.4700  141.1360 C   0  0  0  0  0  3  0  0  0  0  0  0
  191.2930  174.5780  141.7580 N   0  0  0  0  0  0  0  0  0  0  0  0
  188.6870  175.2560  143.3630 C   0  0  1  0  0  3  0  0  0  0  0  0
  187.7670  176.2200  142.6330 C   0  0  1  0  0  3  0  0  0  0  0  0
  188.3250  175.0180  141.9070 C   0  0  0  0  0  2  0  0  0  0  0  0
  186.3400  175.9420  143.0530 C   0  0  0  0  0  2  0  0  0  0  0  0
  185.6130  177.2550  143.2690 C   0  0  0  0  0  2  0  0  0  0  0  0
  185.6430  179.2760  146.4970 C   0  0  0  0  0  3  0  0  0  0  0  0
  185.7810  176.9210  147.0330 C   0  0  0  0  0  3  0  0  0  0  0  0
  185.7360  176.6080  145.6730 C   0  0  0  0  0  3  0  0  0  0  0  0
  185.5980  178.9710  145.1330 C   0  0  0  0  0  0  0  0  0  0  0  0
  185.6400  177.6250  144.7160 C   0  0  0  0  0  0  0  0  0  0  0  0
  185.5010  180.0880  144.1490 C   0  0  0  0  0  1  0  0  0  0  0  0
  185.7340  178.2550  147.4450 C   0  0  0  0  0  3  0  0  0  0  0  0
  189.5570  177.6740  145.2140 C   0  0  0  0  0  2  0  0  0  0  0  0
  189.3570  176.8990  146.5050 C   0  0  0  0  0  2  0  0  0  0  0  0
  190.4440  177.1770  147.4280 N   0  0  0  0  0  2  0  0  0  0  0  0
  190.9370  175.9390  147.8530 N   0  0  0  0  0  2  0  0  0  0  0  0
  191.9450  175.2990  147.1220 C   0  0  0  0  0  0  0  0  0  0  0  0
  192.7770  174.7700  146.5170 N   0  0  0  0  0  0  0  0  0  0  0  0
  1  4  1  0  0  0  0
  2  5  1  0  0  0  0
  2  3  2  0  0  0  0
  3  4  1  0  0  0  0
  4 22  1  6  0  0  0
  5  1  2  0  0  0  0
  6  5  1  0  0  0  0
  7  6  2  0  0  0  0
  8  7  1  0  0  0  0
  8  9  2  0  0  0  0
  9  2  1  0  0  0  0
 10  3  1  6  0  0  0
 11 13  1  1  0  0  0
 11 10  1  0  0  0  0
 12 11  1  0  0  0  0
 12 10  1  0  0  0  0
 13 14  1  0  0  0  0
 14 19  1  0  0  0  0
 15 21  1  0  0  0  0
 16 21  2  0  0  0  0
 17 16  1  0  0  0  0
 18 15  2  0  0  0  0
 19 18  1  0  0  0  0
 19 17  2  0  0  0  0
 20 18  1  0  0  0  0
 22 23  1  0  0  0  0
 23 24  1  0  0  0  0
 24 25  1  0  0  0  0
 26 25  1  0  0  0  0
 27 26  3  0  0  0  0
M  END
>  <MODEL>
2

>  <REMARK>
 VINA RESULT:      -6.7      2.904      5.800
  Name = 
  9 active torsions:
  status: ('A' for Active; 'I' for Inactive)
    1  A    between atoms: C_1  and  N_10
    2  A    between atoms: C_5  and  C_12
    3  A    between atoms: C_5  and  C_19
    4  A    between atoms: C_6  and  N_14
    5  A    between atoms: C_6  and  C_26
    6  A    between atoms: C_8  and  C_15
    7  A    between atoms: N_10  and  N_14
    8  A    between atoms: C_11  and  C_26
    9  A    between atoms: C_12  and  C_20
                            x       y       z     vdW  Elec       q    Type
                         _______ _______ _______ _____ _____    ______ ____

>  <TORSDO>
F 9

$$$$
=
 OpenBabel11042414233D

 27 30  0  0  1  0  0  0  0  0999 V2000
  185.8120  176.8610  144.1450 C   0  0  0  0  0  3  0  0  0  0  0  0
  186.8690  177.4670  146.0790 C   0  0  0  0  0  0  0  0  0  0  0  0
  187.8310  176.9180  145.2680 C   0  0  0  0  0  0  0  0  0  0  0  0
  187.1780  176.5570  144.0840 C   0  0  0  0  0  0  0  0  0  0  0  0
  185.6220  177.4200  145.3900 C   0  0  1  0  0  3  0  0  0  0  0  0
  184.4950  177.9380  146.0050 C   0  0  0  0  0  3  0  0  0  0  0  0
  184.6420  178.4700  147.2550 N   0  0  0  0  0  0  0  0  0  0  0  0
  185.8530  178.5100  147.9000 C   0  0  0  0  0  3  0  0  0  0  0  0
  186.9820  178.0110  147.3120 N   0  0  0  0  0  0  0  0  0  0  0  0
  189.3010  176.8500  145.5490 C   0  0  1  0  0  3  0  0  0  0  0  0
  189.5600  175.9040  146.7100 C   0  0  1  0  0  3  0  0  0  0  0  0
  189.8300  175.4500  145.2940 C   0  0  0  0  0  2  0  0  0  0  0  0
  190.8620  176.2960  147.3740 C   0  0  0  0  0  2  0  0  0  0  0  0
  191.8380  175.1370  147.2920 C   0  0  0  0  0  2  0  0  0  0  0  0
  194.6390  175.0030  144.7160 C   0  0  0  0  0  3  0  0  0  0  0  0
  194.7170  177.1310  145.8640 C   0  0  0  0  0  3  0  0  0  0  0  0
  193.6110  176.7590  146.6300 C   0  0  0  0  0  3  0  0  0  0  0  0
  193.5310  174.6230  145.4800 C   0  0  0  0  0  0  0  0  0  0  0  0
  193.0080  175.5100  146.4430 C   0  0  0  0  0  0  0  0  0  0  0  0
  192.9250  173.2790  145.2480 C   0  0  0  0  0  1  0  0  0  0  0  0
  195.2310  176.2540  144.9070 C   0  0  0  0  0  3  0  0  0  0  0  0
  187.8440  175.9900  142.8720 C   0  0  0  0  0  2  0  0  0  0  0  0
  187.9320  177.0270  141.7660 C   0  0  0  0  0  2  0  0  0  0  0  0
  187.4110  176.4810  140.5250 N   0  0  0  0  0  2  0  0  0  0  0  0
  186.6730  177.5000  139.9140 N   0  0  0  0  0  2  0  0  0  0  0  0
  185.5180  177.9940  140.5320 C   0  0  0  0  0  0  0  0  0  0  0  0
  184.5640  178.4020  141.0430 N   0  0  0  0  0  0  0  0  0  0  0  0
  2  9  1  0  0  0  0
  3  2  2  0  0  0  0
  4  1  2  0  0  0  0
  4  3  1  0  0  0  0
  5  1  1  6  0  0  0
  5  6  1  0  0  0  0
  5  2  1  0  0  0  0
  6  7  2  0  0  0  0
  7  8  1  0  0  0  0
  9  8  2  0  0  0  0
 10  3  1  6  0  0  0
 10 11  1  0  0  0  0
 11 13  1  1  0  0  0
 12 10  1  0  0  0  0
 12 11  1  0  0  0  0
 14 13  1  0  0  0  0
 15 21  2  0  0  0  0
 15 18  1  0  0  0  0
 16 17  2  0  0  0  0
 18 19  2  0  0  0  0
 19 17  1  0  0  0  0
 19 14  1  0  0  0  0
 20 18  1  0  0  0  0
 21 16  1  0  0  0  0
 22  4  1  0  0  0  0
 23 22  1  0  0  0  0
 24 23  1  0  0  0  0
 25 24  1  0  0  0  0
 25 26  1  0  0  0  0
 26 27  3  0  0  0  0
M  END
>  <MODEL>
3

>  <REMARK>
 VINA RESULT:      -6.6      1.418      4.707
  Name = 
  9 active torsions:
  status: ('A' for Active; 'I' for Inactive)
    1  A    between atoms: C_1  and  N_10
    2  A    between atoms: C_5  and  C_12
    3  A    between atoms: C_5  and  C_19
    4  A    between atoms: C_6  and  N_14
    5  A    between atoms: C_6  and  C_26
    6  A    between atoms: C_8  and  C_15
    7  A    between atoms: N_10  and  N_14
    8  A    between atoms: C_11  and  C_26
    9  A    between atoms: C_12  and  C_20
                            x       y       z     vdW  Elec       q    Type
                         _______ _______ _______ _____ _____    ______ ____

>  <TORSDO>
F 9

$$$$
=
 OpenBabel11042414233D

 27 30  0  0  1  0  0  0  0  0999 V2000
  185.5790  178.8060  143.9560 C   0  0  0  0  0  3  0  0  0  0  0  0
  186.6840  177.7600  145.6630 C   0  0  0  0  0  0  0  0  0  0  0  0
  187.4170  177.5260  144.5260 C   0  0  0  0  0  0  0  0  0  0  0  0
  186.7380  178.1750  143.4880 C   0  0  0  0  0  0  0  0  0  0  0  0
  185.5440  178.5400  145.3080 C   0  0  1  0  0  3  0  0  0  0  0  0
  184.6570  178.9210  146.2990 C   0  0  0  0  0  3  0  0  0  0  0  0
  184.9250  178.5230  147.5790 N   0  0  0  0  0  0  0  0  0  0  0  0
  186.0310  177.7780  147.9010 C   0  0  0  0  0  3  0  0  0  0  0  0
  186.9260  177.3920  146.9420 N   0  0  0  0  0  0  0  0  0  0  0  0
  188.7420  176.8320  144.4480 C   0  0  1  0  0  3  0  0  0  0  0  0
  189.8330  177.8390  144.1210 C   0  0  1  0  0  3  0  0  0  0  0  0
  189.6740  177.3340  145.5370 C   0  0  0  0  0  2  0  0  0  0  0  0
  190.9780  177.1120  143.4490 C   0  0  0  0  0  2  0  0  0  0  0  0
  192.2500  177.3320  144.2450 C   0  0  0  0  0  2  0  0  0  0  0  0
  194.3930  174.7050  145.9800 C   0  0  0  0  0  3  0  0  0  0  0  0
  192.7520  173.5980  144.5890 C   0  0  0  0  0  3  0  0  0  0  0  0
  192.2450  174.8400  144.1990 C   0  0  0  0  0  3  0  0  0  0  0  0
  193.8910  175.9520  145.5940 C   0  0  0  0  0  0  0  0  0  0  0  0
  192.8050  176.0210  144.6990 C   0  0  0  0  0  0  0  0  0  0  0  0
  194.5230  177.1840  146.1490 C   0  0  0  0  0  1  0  0  0  0  0  0
  193.8250  173.5310  145.4800 C   0  0  0  0  0  3  0  0  0  0  0  0
  187.2100  178.2610  142.0720 C   0  0  0  0  0  2  0  0  0  0  0  0
  186.5980  177.1540  141.2300 C   0  0  0  0  0  2  0  0  0  0  0  0
  186.0130  177.7100  140.0220 N   0  0  0  0  0  2  0  0  0  0  0  0
  185.0390  178.6270  140.4320 N   0  0  0  0  0  2  0  0  0  0  0  0
  183.6910  178.2540  140.4490 C   0  0  0  0  0  0  0  0  0  0  0  0
  182.5750  177.9460  140.4630 N   0  0  0  0  0  0  0  0  0  0  0  0
  2  9  1  0  0  0  0
  3  2  2  0  0  0  0
  4  1  2  0  0  0  0
  4  3  1  0  0  0  0
  5  1  1  1  0  0  0
  5  2  1  0  0  0  0
  5  6  1  0  0  0  0
  6  7  2  0  0  0  0
  7  8  1  0  0  0  0
  9  8  2  0  0  0  0
 10  3  1  1  0  0  0
 10 12  1  0  0  0  0
 11 13  1  6  0  0  0
 11 10  1  0  0  0  0
 11 12  1  0  0  0  0
 13 14  1  0  0  0  0
 14 19  1  0  0  0  0
 16 21  1  0  0  0  0
 17 16  2  0  0  0  0
 17 19  1  0  0  0  0
 18 15  1  0  0  0  0
 18 20  1  0  0  0  0
 19 18  2  0  0  0  0
 21 15  2  0  0  0  0
 22  4  1  0  0  0  0
 23 22  1  0  0  0  0
 24 25  1  0  0  0  0
 24 23  1  0  0  0  0
 25 26  1  0  0  0  0
 26 27  3  0  0  0  0
M  END
>  <MODEL>
4

>  <REMARK>
 VINA RESULT:      -6.5      1.923      4.776
  Name = 
  9 active torsions:
  status: ('A' for Active; 'I' for Inactive)
    1  A    between atoms: C_1  and  N_10
    2  A    between atoms: C_5  and  C_12
    3  A    between atoms: C_5  and  C_19
    4  A    between atoms: C_6  and  N_14
    5  A    between atoms: C_6  and  C_26
    6  A    between atoms: C_8  and  C_15
    7  A    between atoms: N_10  and  N_14
    8  A    between atoms: C_11  and  C_26
    9  A    between atoms: C_12  and  C_20
                            x       y       z     vdW  Elec       q    Type
                         _______ _______ _______ _____ _____    ______ ____

>  <TORSDO>
F 9

$$$$
=
 OpenBabel11042414233D

 27 30  0  0  1  0  0  0  0  0999 V2000
  185.7880  178.2280  143.2230 C   0  0  0  0  0  3  0  0  0  0  0  0
  186.5310  178.1360  145.3830 C   0  0  0  0  0  0  0  0  0  0  0  0
  187.6100  177.8340  144.5900 C   0  0  0  0  0  0  0  0  0  0  0  0
  187.1490  177.8990  143.2700 C   0  0  0  0  0  0  0  0  0  0  0  0
  185.4050  178.3680  144.5390 C   0  0  1  0  0  3  0  0  0  0  0  0
  184.1940  178.7110  145.1140 C   0  0  0  0  0  3  0  0  0  0  0  0
  184.1430  178.8090  146.4770 N   0  0  0  0  0  0  0  0  0  0  0  0
  185.2400  178.5880  147.2720 C   0  0  0  0  0  3  0  0  0  0  0  0
  186.4490  178.2530  146.7290 N   0  0  0  0  0  0  0  0  0  0  0  0
  189.0190  177.6140  145.0490 C   0  0  1  0  0  3  0  0  0  0  0  0
  189.0700  176.4420  146.0140 C   0  0  1  0  0  3  0  0  0  0  0  0
  189.5280  176.2610  144.5850 C   0  0  0  0  0  2  0  0  0  0  0  0
  190.2740  176.6080  146.9150 C   0  0  0  0  0  2  0  0  0  0  0  0
  190.9940  175.2790  147.0440 C   0  0  0  0  0  2  0  0  0  0  0  0
  194.1820  174.6050  145.0720 C   0  0  0  0  0  3  0  0  0  0  0  0
  194.5200  176.5330  146.4940 C   0  0  0  0  0  3  0  0  0  0  0  0
  193.2130  176.4120  146.9700 C   0  0  0  0  0  3  0  0  0  0  0  0
  192.8720  174.4760  145.5440 C   0  0  0  0  0  0  0  0  0  0  0  0
  192.3800  175.3900  146.4990 C   0  0  0  0  0  0  0  0  0  0  0  0
  192.0230  173.3690  145.0170 C   0  0  0  0  0  1  0  0  0  0  0  0
  195.0040  175.6300  145.5440 C   0  0  0  0  0  3  0  0  0  0  0  0
  187.9970  177.7190  142.0530 C   0  0  0  0  0  2  0  0  0  0  0  0
  187.3730  176.7120  141.1020 C   0  0  0  0  0  2  0  0  0  0  0  0
  188.2130  175.5310  141.0020 N   0  0  0  0  0  2  0  0  0  0  0  0
  187.7210  174.6070  141.9300 N   0  0  0  0  0  2  0  0  0  0  0  0
  188.4600  173.4590  142.2330 C   0  0  0  0  0  0  0  0  0  0  0  0
  189.0720  172.5090  142.4850 N   0  0  0  0  0  0  0  0  0  0  0  0
  1  4  2  0  0  0  0
  2  9  1  0  0  0  0
  3  2  2  0  0  0  0
  4  3  1  0  0  0  0
  5  1  1  6  0  0  0
  5  6  1  0  0  0  0
  5  2  1  0  0  0  0
  6  7  2  0  0  0  0
  7  8  1  0  0  0  0
  9  8  2  0  0  0  0
 10  3  1  6  0  0  0
 10 11  1  0  0  0  0
 11 13  1  1  0  0  0
 12 10  1  0  0  0  0
 12 11  1  0  0  0  0
 13 14  1  0  0  0  0
 15 18  2  0  0  0  0
 15 21  1  0  0  0  0
 16 17  1  0  0  0  0
 18 19  1  0  0  0  0
 19 17  2  0  0  0  0
 19 14  1  0  0  0  0
 20 18  1  0  0  0  0
 21 16  2  0  0  0  0
 22  4  1  0  0  0  0
 23 22  1  0  0  0  0
 24 23  1  0  0  0  0
 24 25  1  0  0  0  0
 25 26  1  0  0  0  0
 26 27  3  0  0  0  0
M  END
>  <MODEL>
5

>  <REMARK>
 VINA RESULT:      -6.5      1.757      4.639
  Name = 
  9 active torsions:
  status: ('A' for Active; 'I' for Inactive)
    1  A    between atoms: C_1  and  N_10
    2  A    between atoms: C_5  and  C_12
    3  A    between atoms: C_5  and  C_19
    4  A    between atoms: C_6  and  N_14
    5  A    between atoms: C_6  and  C_26
    6  A    between atoms: C_8  and  C_15
    7  A    between atoms: N_10  and  N_14
    8  A    between atoms: C_11  and  C_26
    9  A    between atoms: C_12  and  C_20
                            x       y       z     vdW  Elec       q    Type
                         _______ _______ _______ _____ _____    ______ ____

>  <TORSDO>
F 9

$$$$
=
 OpenBabel11042414233D

 27 30  0  0  1  0  0  0  0  0999 V2000
  185.2150  177.5350  143.9390 C   0  0  0  0  0  3  0  0  0  0  0  0
  186.4810  177.3100  145.8300 C   0  0  0  0  0  0  0  0  0  0  0  0
  187.2080  176.7500  144.8090 C   0  0  0  0  0  0  0  0  0  0  0  0
  186.4300  176.8980  143.6540 C   0  0  0  0  0  0  0  0  0  0  0  0
  185.2470  177.7830  145.2950 C   0  0  1  0  0  3  0  0  0  0  0  0
  184.3460  178.4090  146.1370 C   0  0  0  0  0  3  0  0  0  0  0  0
  184.6920  178.5400  147.4530 N   0  0  0  0  0  0  0  0  0  0  0  0
  185.8880  178.0820  147.9480 C   0  0  0  0  0  3  0  0  0  0  0  0
  186.7980  177.4650  147.1360 N   0  0  0  0  0  0  0  0  0  0  0  0
  188.6040  176.2160  144.8980 C   0  0  1  0  0  3  0  0  0  0  0  0
  189.5620  177.1560  144.1850 C   0  0  1  0  0  3  0  0  0  0  0  0
  189.4880  177.1600  145.6940 C   0  0  0  0  0  2  0  0  0  0  0  0
  190.7740  176.3660  143.7390 C   0  0  0  0  0  2  0  0  0  0  0  0
  191.9910  177.2720  143.7310 C   0  0  0  0  0  2  0  0  0  0  0  0
  195.2130  175.3550  144.3940 C   0  0  0  0  0  3  0  0  0  0  0  0
  194.1920  175.9470  146.5060 C   0  0  0  0  0  3  0  0  0  0  0  0
  193.1490  176.5770  145.8260 C   0  0  0  0  0  3  0  0  0  0  0  0
  194.1720  175.9850  143.7050 C   0  0  0  0  0  0  0  0  0  0  0  0
  193.1320  176.6060  144.4260 C   0  0  0  0  0  0  0  0  0  0  0  0
  194.1940  175.9840  142.2140 C   0  0  0  0  0  1  0  0  0  0  0  0
  195.2250  175.3360  145.7910 C   0  0  0  0  0  3  0  0  0  0  0  0
  186.8510  176.5050  142.2760 C   0  0  0  0  0  2  0  0  0  0  0  0
  186.9020  177.7150  141.3580 C   0  0  0  0  0  2  0  0  0  0  0  0
  185.9330  177.5690  140.2850 N   0  0  0  0  0  2  0  0  0  0  0  0
  184.9680  178.5630  140.4770 N   0  0  0  0  0  2  0  0  0  0  0  0
  183.6080  178.2310  140.4620 C   0  0  0  0  0  0  0  0  0  0  0  0
  182.4840  177.9570  140.4500 N   0  0  0  0  0  0  0  0  0  0  0  0
  2  9  1  0  0  0  0
  3  2  2  0  0  0  0
  4  1  2  0  0  0  0
  4  3  1  0  0  0  0
  5  1  1  6  0  0  0
  5  2  1  0  0  0  0
  5  6  1  0  0  0  0
  6  7  2  0  0  0  0
  7  8  1  0  0  0  0
  9  8  2  0  0  0  0
 10  3  1  6  0  0  0
 10 12  1  0  0  0  0
 11 13  1  1  0  0  0
 11 10  1  0  0  0  0
 11 12  1  0  0  0  0
 14 13  1  0  0  0  0
 14 19  1  0  0  0  0
 15 21  1  0  0  0  0
 17 16  1  0  0  0  0
 18 15  2  0  0  0  0
 18 19  1  0  0  0  0
 19 17  2  0  0  0  0
 20 18  1  0  0  0  0
 21 16  2  0  0  0  0
 22  4  1  0  0  0  0
 23 22  1  0  0  0  0
 24 25  1  0  0  0  0
 24 23  1  0  0  0  0
 26 25  1  0  0  0  0
 27 26  3  0  0  0  0
M  END
>  <MODEL>
6

>  <REMARK>
 VINA RESULT:      -6.5      1.905      4.911
  Name = 
  9 active torsions:
  status: ('A' for Active; 'I' for Inactive)
    1  A    between atoms: C_1  and  N_10
    2  A    between atoms: C_5  and  C_12
    3  A    between atoms: C_5  and  C_19
    4  A    between atoms: C_6  and  N_14
    5  A    between atoms: C_6  and  C_26
    6  A    between atoms: C_8  and  C_15
    7  A    between atoms: N_10  and  N_14
    8  A    between atoms: C_11  and  C_26
    9  A    between atoms: C_12  and  C_20
                            x       y       z     vdW  Elec       q    Type
                         _______ _______ _______ _____ _____    ______ ____

>  <TORSDO>
F 9

$$$$
=
 OpenBabel11042414233D

 27 30  0  0  1  0  0  0  0  0999 V2000
  186.5990  176.9550  146.8560 C   0  0  0  0  0  3  0  0  0  0  0  0
  185.9970  177.8580  144.8440 C   0  0  0  0  0  0  0  0  0  0  0  0
  187.1870  177.2070  144.6350 C   0  0  0  0  0  0  0  0  0  0  0  0
  187.5450  176.6510  145.8680 C   0  0  0  0  0  0  0  0  0  0  0  0
  185.6420  177.7130  146.2170 C   0  0  0  0  0  0  0  0  0  0  0  0
  184.4600  178.2740  146.6670 C   0  0  0  0  0  3  0  0  0  0  0  0
  183.6900  178.9470  145.7600 N   0  0  0  0  0  0  0  0  0  0  0  0
  184.0480  179.0710  144.4410 C   0  0  0  0  0  3  0  0  0  0  0  0
  185.2070  178.5220  143.9690 N   0  0  0  0  0  2  0  0  0  0  0  0
  187.8820  177.0200  143.3210 C   0  0  1  0  0  3  0  0  0  0  0  0
  187.5060  175.6730  142.7260 C   0  0  1  0  0  3  0  0  0  0  0  0
  186.8730  176.9350  142.1890 C   0  0  0  0  0  2  0  0  0  0  0  0
  188.6140  175.2270  141.7970 C   0  0  0  0  0  2  0  0  0  0  0  0
  189.2290  173.9440  142.3240 C   0  0  0  0  0  2  0  0  0  0  0  0
  191.9240  173.7900  145.0090 C   0  0  0  0  0  3  0  0  0  0  0  0
  192.3310  175.7030  143.5850 C   0  0  0  0  0  3  0  0  0  0  0  0
  191.2060  175.3760  142.8240 C   0  0  0  0  0  3  0  0  0  0  0  0
  190.7960  173.4560  144.2520 C   0  0  0  0  0  0  0  0  0  0  0  0
  190.4360  174.2530  143.1470 C   0  0  0  0  0  0  0  0  0  0  0  0
  190.0030  172.2530  144.6380 C   0  0  0  0  0  1  0  0  0  0  0  0
  192.6900  174.9090  144.6770 C   0  0  0  0  0  3  0  0  0  0  0  0
  188.7360  175.7800  146.1070 C   0  0  0  0  0  2  0  0  0  0  0  0
  189.9060  176.5950  146.6320 C   0  0  0  0  0  2  0  0  0  0  0  0
  190.6770  175.8090  147.5810 N   0  0  0  0  0  2  0  0  0  0  0  0
  191.7450  176.6120  147.9940 N   0  0  0  0  0  2  0  0  0  0  0  0
  191.5660  177.5350  149.0310 C   0  0  0  0  0  0  0  0  0  0  0  0
  191.4180  178.2980  149.8880 N   0  0  0  0  0  0  0  0  0  0  0  0
  2  5  1  0  0  0  0
  3  2  2  0  0  0  0
  3  4  1  0  0  0  0
  4 22  1  0  0  0  0
  4  1  2  0  0  0  0
  5  6  2  0  0  0  0
  5  1  1  0  0  0  0
  7  6  1  0  0  0  0
  8  7  2  0  0  0  0
  9  8  1  0  0  0  0
  9  2  1  0  0  0  0
 10  3  1  1  0  0  0
 11 13  1  6  0  0  0
 11 10  1  0  0  0  0
 12 11  1  0  0  0  0
 12 10  1  0  0  0  0
 13 14  1  0  0  0  0
 14 19  1  0  0  0  0
 16 21  2  0  0  0  0
 17 19  2  0  0  0  0
 17 16  1  0  0  0  0
 18 20  1  0  0  0  0
 18 15  2  0  0  0  0
 19 18  1  0  0  0  0
 21 15  1  0  0  0  0
 22 23  1  0  0  0  0
 23 24  1  0  0  0  0
 24 25  1  0  0  0  0
 25 26  1  0  0  0  0
 26 27  3  0  0  0  0
M  END
>  <MODEL>
7

>  <REMARK>
 VINA RESULT:      -6.4      2.064      4.048
  Name = 
  9 active torsions:
  status: ('A' for Active; 'I' for Inactive)
    1  A    between atoms: C_1  and  N_10
    2  A    between atoms: C_5  and  C_12
    3  A    between atoms: C_5  and  C_19
    4  A    between atoms: C_6  and  N_14
    5  A    between atoms: C_6  and  C_26
    6  A    between atoms: C_8  and  C_15
    7  A    between atoms: N_10  and  N_14
    8  A    between atoms: C_11  and  C_26
    9  A    between atoms: C_12  and  C_20
                            x       y       z     vdW  Elec       q    Type
                         _______ _______ _______ _____ _____    ______ ____

>  <TORSDO>
F 9

$$$$
=
 OpenBabel11042414233D

 27 30  0  0  1  0  0  0  0  0999 V2000
  187.4140  176.7530  140.6610 C   0  0  0  0  0  3  0  0  0  0  0  0
  188.0140  175.2280  142.2540 C   0  0  0  0  0  0  0  0  0  0  0  0
  187.5140  176.3140  142.9280 C   0  0  0  0  0  0  0  0  0  0  0  0
  187.1420  177.2400  141.9450 C   0  0  2  0  0  3  0  0  0  0  0  0
  187.9620  175.5040  140.8560 C   0  0  0  0  0  0  0  0  0  0  0  0
  188.4000  174.5400  139.9650 C   0  0  0  0  0  3  0  0  0  0  0  0
  188.8640  173.3620  140.4800 N   0  0  0  0  0  0  0  0  0  0  0  0
  188.9000  173.1130  141.8300 C   0  0  0  0  0  3  0  0  0  0  0  0
  188.4690  174.0460  142.7310 N   0  0  0  0  0  0  0  0  0  0  0  0
  187.2900  176.4210  144.4050 C   0  0  1  0  0  3  0  0  0  0  0  0
  188.6160  176.3020  145.1370 C   0  0  1  0  0  3  0  0  0  0  0  0
  187.9720  177.6580  144.9610 C   0  0  0  0  0  2  0  0  0  0  0  0
  188.3540  175.7940  146.5380 C   0  0  0  0  0  2  0  0  0  0  0  0
  189.3280  174.6770  146.8600 C   0  0  0  0  0  2  0  0  0  0  0  0
  192.9490  175.0830  145.7550 C   0  0  0  0  0  3  0  0  0  0  0  0
  192.4730  176.6720  147.5170 C   0  0  0  0  0  3  0  0  0  0  0  0
  191.1610  176.1990  147.5890 C   0  0  0  0  0  3  0  0  0  0  0  0
  191.6370  174.6040  145.8210 C   0  0  0  0  0  0  0  0  0  0  0  0
  190.7320  175.1700  146.7430 C   0  0  0  0  0  0  0  0  0  0  0  0
  191.2270  173.5020  144.9030 C   0  0  0  0  0  1  0  0  0  0  0  0
  193.3670  176.1140  146.6000 C   0  0  0  0  0  3  0  0  0  0  0  0
  186.4720  178.5500  142.2070 C   0  0  0  0  0  2  0  0  0  0  0  0
  184.9800  178.4590  141.9380 C   0  0  0  0  0  2  0  0  0  0  0  0
  184.2830  178.0220  143.1360 N   0  0  0  0  0  2  0  0  0  0  0  0
  184.6290  178.9170  144.1530 N   0  0  0  0  0  2  0  0  0  0  0  0
  184.3390  178.6070  145.4870 C   0  0  0  0  0  0  0  0  0  0  0  0
  184.0990  178.3500  146.5890 N   0  0  0  0  0  0  0  0  0  0  0  0
  1  5  2  0  0  0  0
  1  4  1  0  0  0  0
  2  9  1  0  0  0  0
  2  3  2  0  0  0  0
  4 22  1  6  0  0  0
  4  3  1  0  0  0  0
  5  2  1  0  0  0  0
  6  7  2  0  0  0  0
  6  5  1  0  0  0  0
  7  8  1  0  0  0  0
  8  9  2  0  0  0  0
 10  3  1  6  0  0  0
 10 12  1  0  0  0  0
 10 11  1  0  0  0  0
 11 13  1  1  0  0  0
 12 11  1  0  0  0  0
 13 14  1  0  0  0  0
 15 18  2  0  0  0  0
 15 21  1  0  0  0  0
 16 17  1  0  0  0  0
 18 19  1  0  0  0  0
 19 14  1  0  0  0  0
 19 17  2  0  0  0  0
 20 18  1  0  0  0  0
 21 16  2  0  0  0  0
 23 22  1  0  0  0  0
 23 24  1  0  0  0  0
 24 25  1  0  0  0  0
 25 26  1  0  0  0  0
 26 27  3  0  0  0  0
M  END
>  <MODEL>
8

>  <REMARK>
 VINA RESULT:      -6.4      1.626      3.469
  Name = 
  9 active torsions:
  status: ('A' for Active; 'I' for Inactive)
    1  A    between atoms: C_1  and  N_10
    2  A    between atoms: C_5  and  C_12
    3  A    between atoms: C_5  and  C_19
    4  A    between atoms: C_6  and  N_14
    5  A    between atoms: C_6  and  C_26
    6  A    between atoms: C_8  and  C_15
    7  A    between atoms: N_10  and  N_14
    8  A    between atoms: C_11  and  C_26
    9  A    between atoms: C_12  and  C_20
                            x       y       z     vdW  Elec       q    Type
                         _______ _______ _______ _____ _____    ______ ____

>  <TORSDO>
F 9

$$$$
=
 OpenBabel11042414233D

 27 30  0  0  1  0  0  0  0  0999 V2000
  184.2350  178.2940  140.7750 C   0  0  0  0  0  3  0  0  0  0  0  0
  185.8750  177.3700  142.0730 C   0  0  0  0  0  0  0  0  0  0  0  0
  184.8910  177.7890  142.9330 C   0  0  0  0  0  0  0  0  0  0  0  0
  183.8880  178.3470  142.1310 C   0  0  2  0  0  3  0  0  0  0  0  0
  185.4740  177.6920  140.7430 C   0  0  0  0  0  0  0  0  0  0  0  0
  186.3030  177.3470  139.6900 C   0  0  0  0  0  3  0  0  0  0  0  0
  187.4750  176.7090  139.9870 N   0  0  0  0  0  0  0  0  0  0  0  0
  187.8400  176.4020  141.2740 C   0  0  0  0  0  3  0  0  0  0  0  0
  187.0370  176.7270  142.3320 N   0  0  0  0  0  0  0  0  0  0  0  0
  184.8490  177.5670  144.4140 C   0  0  1  0  0  3  0  0  0  0  0  0
  186.0430  178.2400  145.0710 C   0  0  1  0  0  3  0  0  0  0  0  0
  184.6780  178.8850  145.1480 C   0  0  0  0  0  2  0  0  0  0  0  0
  186.3430  177.5310  146.3740 C   0  0  0  0  0  2  0  0  0  0  0  0
  187.7910  177.7740  146.7570 C   0  0  0  0  0  2  0  0  0  0  0  0
  190.2600  175.5050  144.9530 C   0  0  0  0  0  3  0  0  0  0  0  0
  189.2580  174.2880  146.7880 C   0  0  0  0  0  3  0  0  0  0  0  0
  188.5040  175.4140  147.1240 C   0  0  0  0  0  3  0  0  0  0  0  0
  189.5090  176.6370  145.2830 C   0  0  0  0  0  0  0  0  0  0  0  0
  188.6260  176.5940  146.3810 C   0  0  0  0  0  0  0  0  0  0  0  0
  189.6680  177.8700  144.4590 C   0  0  0  0  0  1  0  0  0  0  0  0
  190.1360  174.3330  145.7030 C   0  0  0  0  0  3  0  0  0  0  0  0
  182.5790  178.8680  142.6290 C   0  0  0  0  0  2  0  0  0  0  0  0
  181.4460  178.4560  141.7040 C   0  0  0  0  0  2  0  0  0  0  0  0
  180.4420  179.5050  141.6460 N   0  0  0  0  0  2  0  0  0  0  0  0
  179.2300  178.8850  141.3260 N   0  0  0  0  0  2  0  0  0  0  0  0
  178.7700  177.8090  142.0940 C   0  0  0  0  0  0  0  0  0  0  0  0
  178.3900  176.9200  142.7300 N   0  0  0  0  0  0  0  0  0  0  0  0
  1  4  1  0  0  0  0
  2  9  1  0  0  0  0
  2  3  2  0  0  0  0
  4 22  1  6  0  0  0
  4  3  1  0  0  0  0
  5  1  2  0  0  0  0
  5  2  1  0  0  0  0
  6  7  2  0  0  0  0
  6  5  1  0  0  0  0
  7  8  1  0  0  0  0
  8  9  2  0  0  0  0
 10  3  1  6  0  0  0
 10 11  1  0  0  0  0
 10 12  1  0  0  0  0
 11 12  1  0  0  0  0
 11 13  1  1  0  0  0
 13 14  1  0  0  0  0
 15 18  2  0  0  0  0
 15 21  1  0  0  0  0
 16 17  1  0  0  0  0
 18 19  1  0  0  0  0
 19 14  1  0  0  0  0
 19 17  2  0  0  0  0
 20 18  1  0  0  0  0
 21 16  2  0  0  0  0
 23 22  1  0  0  0  0
 24 23  1  0  0  0  0
 25 24  1  0  0  0  0
 25 26  1  0  0  0  0
 26 27  3  0  0  0  0
M  END
>  <MODEL>
9

>  <REMARK>
 VINA RESULT:      -6.3      2.786      5.045
  Name = 
  9 active torsions:
  status: ('A' for Active; 'I' for Inactive)
    1  A    between atoms: C_1  and  N_10
    2  A    between atoms: C_5  and  C_12
    3  A    between atoms: C_5  and  C_19
    4  A    between atoms: C_6  and  N_14
    5  A    between atoms: C_6  and  C_26
    6  A    between atoms: C_8  and  C_15
    7  A    between atoms: N_10  and  N_14
    8  A    between atoms: C_11  and  C_26
    9  A    between atoms: C_12  and  C_20
                            x       y       z     vdW  Elec       q    Type
                         _______ _______ _______ _____ _____    ______ ____

>  <TORSDO>
F 9

$$$$
