=
 OpenBabel11042414483D

 28 31  0  0  1  0  0  0  0  0999 V2000
  193.4000  175.1930  142.9550 C   0  0  0  0  0  2  0  0  0  0  0  0
  194.2410  172.5930  145.2990 C   0  0  0  0  0  3  0  0  0  0  0  0
  191.8190  171.7820  143.8920 C   0  0  0  0  0  2  0  0  0  0  0  0
  193.8110  173.9140  143.3840 O   0  0  0  0  0  0  0  0  0  0  0  0
  191.8910  173.1010  144.6680 C   0  0  1  0  0  3  0  0  0  0  0  0
  194.1720  176.2830  143.7020 C   0  0  0  0  0  2  0  0  0  0  0  0
  192.8210  170.8070  144.4310 C   0  0  0  0  0  0  0  0  0  0  0  0
  192.6530  169.5730  144.2510 O   0  0  0  0  0  0  0  0  0  0  0  0
  193.3390  173.6460  144.7040 C   0  0  1  0  0  0  0  0  0  0  0  0
  194.4380  175.8760  145.1520 C   0  0  2  0  0  3  0  0  0  0  0  0
  193.4000  174.8690  145.6430 C   0  0  0  0  0  2  0  0  0  0  0  0
  194.0150  171.2850  145.1450 C   0  0  0  0  0  3  0  0  0  0  0  0
  195.1670  178.2080  145.6300 O   0  0  0  0  0  0  0  0  0  0  0  0
  193.8900  177.0700  147.1530 O   0  0  0  0  0  1  0  0  0  0  0  0
  194.4770  177.0760  146.0390 C   0  0  0  0  0  0  0  0  0  0  0  0
  190.9920  174.0520  144.1060 O   0  0  0  0  0  0  0  0  0  0  0  0
  185.4400  178.3330  147.5350 N   0  0  0  0  0  1  0  0  0  0  0  0
  187.4960  177.4930  144.5600 C   0  0  0  0  0  3  0  0  0  0  0  0
  188.0880  176.0560  146.4120 C   0  0  0  0  0  0  0  0  0  0  0  0
  187.1610  176.6850  147.1840 N   0  0  0  0  0  0  0  0  0  0  0  0
  186.5530  178.1220  145.3740 C   0  0  0  0  0  3  0  0  0  0  0  0
  188.8490  175.0170  146.9450 C   0  0  0  0  0  3  0  0  0  0  0  0
  186.3980  177.7000  146.6960 C   0  0  0  0  0  0  0  0  0  0  0  0
  189.3890  176.1830  142.9430 O   0  0  0  0  0  1  0  0  0  0  0  0
  189.2340  175.7990  144.2720 C   0  0  0  0  0  0  0  0  0  0  0  0
  189.8010  174.3720  146.1560 C   0  0  0  0  0  3  0  0  0  0  0  0
  190.0120  174.7530  144.8250 C   0  0  0  0  0  0  0  0  0  0  0  0
  188.2780  176.4510  145.0700 C   0  0  0  0  0  0  0  0  0  0  0  0
  1  4  1  0  0  0  0
  1  6  1  0  0  0  0
  3  7  1  0  0  0  0
  3  5  1  0  0  0  0
  4  9  1  0  0  0  0
  5 16  1  6  0  0  0
  5  9  1  0  0  0  0
  6 10  1  0  0  0  0
  7 12  1  0  0  0  0
  8  7  2  0  0  0  0
  9  2  1  1  0  0  0
  9 11  1  0  0  0  0
 10 11  1  0  0  0  0
 10 15  1  1  0  0  0
 12  2  2  0  0  0  0
 13 15  2  0  0  0  0
 15 14  1  0  0  0  0
 16 27  1  0  0  0  0
 18 28  2  0  0  0  0
 18 21  1  0  0  0  0
 19 22  1  0  0  0  0
 19 20  2  0  0  0  0
 21 23  2  0  0  0  0
 23 20  1  0  0  0  0
 23 17  1  0  0  0  0
 24 25  1  0  0  0  0
 25 27  2  0  0  0  0
 25 28  1  0  0  0  0
 26 22  2  0  0  0  0
 27 26  1  0  0  0  0
 28 19  1  0  0  0  0
M  END
>  <MODEL>
1

>  <REMARK>
 VINA RESULT:      -7.5      0.000      0.000
  Name = 
  3 active torsions:
  status: ('A' for Active; 'I' for Inactive)
    1  A    between atoms: O_12  and  C_17
    2  A    between atoms: O_12  and  C_23
    3  A    between atoms: C_18  and  C_25
                            x       y       z     vdW  Elec       q    Type
                         _______ _______ _______ _____ _____    ______ ____

>  <TORSDO>
F 3

$$$$
=
 OpenBabel11042414483D

 28 31  0  0  1  0  0  0  0  0999 V2000
  188.0220  178.3370  142.6620 C   0  0  0  0  0  2  0  0  0  0  0  0
  185.9580  176.3610  144.8520 C   0  0  0  0  0  3  0  0  0  0  0  0
  187.5220  178.1880  146.5010 C   0  0  0  0  0  2  0  0  0  0  0  0
  186.9930  178.0730  143.5900 O   0  0  0  0  0  0  0  0  0  0  0  0
  188.1940  177.2040  145.5390 C   0  0  1  0  0  3  0  0  0  0  0  0
  187.9820  177.3270  141.5140 C   0  0  0  0  0  2  0  0  0  0  0  0
  186.1640  177.6890  146.8910 C   0  0  0  0  0  0  0  0  0  0  0  0
  185.6320  178.0900  147.9580 O   0  0  0  0  0  0  0  0  0  0  0  0
  187.2740  176.8890  144.3350 C   0  0  1  0  0  0  0  0  0  0  0  0
  187.5700  175.9410  142.0120 C   0  0  2  0  0  3  0  0  0  0  0  0
  187.9060  175.7620  143.4910 C   0  0  0  0  0  2  0  0  0  0  0  0
  185.4360  176.7560  146.0170 C   0  0  0  0  0  3  0  0  0  0  0  0
  188.7920  173.7800  141.8170 O   0  0  0  0  0  1  0  0  0  0  0  0
  188.2150  174.9480  139.9320 O   0  0  0  0  0  0  0  0  0  0  0  0
  188.2060  174.8710  141.1890 C   0  0  0  0  0  0  0  0  0  0  0  0
  189.4520  177.7160  145.1110 O   0  0  0  0  0  0  0  0  0  0  0  0
  196.4770  174.3630  145.6680 N   0  0  0  0  0  1  0  0  0  0  0  0
  193.8940  176.1390  143.6790 C   0  0  0  0  0  3  0  0  0  0  0  0
  193.1180  175.8090  145.9450 C   0  0  0  0  0  0  0  0  0  0  0  0
  194.2890  175.1870  146.2450 N   0  0  0  0  0  0  0  0  0  0  0  0
  195.0860  175.4950  144.0140 C   0  0  0  0  0  3  0  0  0  0  0  0
  192.1400  175.9640  146.9260 C   0  0  0  0  0  3  0  0  0  0  0  0
  195.2670  175.0200  145.3140 C   0  0  0  0  0  0  0  0  0  0  0  0
  191.4880  177.4550  143.0500 O   0  0  0  0  0  1  0  0  0  0  0  0
  191.6820  176.9500  144.3330 C   0  0  0  0  0  0  0  0  0  0  0  0
  190.9370  176.6020  146.6190 C   0  0  0  0  0  3  0  0  0  0  0  0
  190.6890  177.0910  145.3320 C   0  0  0  0  0  0  0  0  0  0  0  0
  192.8920  176.3030  144.6420 C   0  0  0  0  0  0  0  0  0  0  0  0
  1  4  1  0  0  0  0
  2 12  2  0  0  0  0
  3  7  1  0  0  0  0
  4  9  1  0  0  0  0
  5 16  1  6  0  0  0
  5  3  1  0  0  0  0
  6 10  1  0  0  0  0
  6  1  1  0  0  0  0
  7  8  2  0  0  0  0
  9 11  1  6  0  0  0
  9  2  1  0  0  0  0
  9  5  1  0  0  0  0
 10 15  1  6  0  0  0
 10 11  1  0  0  0  0
 12  7  1  0  0  0  0
 14 15  2  0  0  0  0
 15 13  1  0  0  0  0
 16 27  1  0  0  0  0
 18 21  2  0  0  0  0
 18 28  1  0  0  0  0
 19 20  1  0  0  0  0
 19 22  1  0  0  0  0
 21 23  1  0  0  0  0
 23 17  1  0  0  0  0
 23 20  2  0  0  0  0
 24 25  1  0  0  0  0
 25 28  1  0  0  0  0
 25 27  2  0  0  0  0
 26 22  2  0  0  0  0
 27 26  1  0  0  0  0
 28 19  2  0  0  0  0
M  END
>  <MODEL>
2

>  <REMARK>
 VINA RESULT:      -7.4      3.689      7.431
  Name = 
  3 active torsions:
  status: ('A' for Active; 'I' for Inactive)
    1  A    between atoms: O_12  and  C_17
    2  A    between atoms: O_12  and  C_23
    3  A    between atoms: C_18  and  C_25
                            x       y       z     vdW  Elec       q    Type
                         _______ _______ _______ _____ _____    ______ ____

>  <TORSDO>
F 3

$$$$
=
 OpenBabel11042414483D

 28 31  0  0  1  0  0  0  0  0999 V2000
  191.8880  172.8740  144.6010 C   0  0  0  0  0  2  0  0  0  0  0  0
  194.1160  175.6130  143.8970 C   0  0  0  0  0  3  0  0  0  0  0  0
  192.6250  176.2700  146.3150 C   0  0  0  0  0  2  0  0  0  0  0  0
  192.9760  173.7480  144.8030 O   0  0  0  0  0  0  0  0  0  0  0  0
  191.9120  175.9450  144.9990 C   0  0  1  0  0  3  0  0  0  0  0  0
  191.8760  172.3560  143.1620 C   0  0  0  0  0  2  0  0  0  0  0  0
  194.0130  176.7660  146.0460 C   0  0  0  0  0  0  0  0  0  0  0  0
  194.6020  177.4730  146.9050 O   0  0  0  0  0  0  0  0  0  0  0  0
  192.7620  174.9880  144.1290 C   0  0  1  0  0  0  0  0  0  0  0  0
  192.3410  173.4340  142.1820 C   0  0  2  0  0  3  0  0  0  0  0  0
  192.0990  174.8330  142.7440 C   0  0  0  0  0  2  0  0  0  0  0  0
  194.7020  176.4070  144.7970 C   0  0  0  0  0  3  0  0  0  0  0  0
  190.5430  172.4700  140.7540 O   0  0  0  0  0  1  0  0  0  0  0  0
  192.1240  173.8500  139.8350 O   0  0  0  0  0  0  0  0  0  0  0  0
  191.6730  173.2690  140.8570 C   0  0  0  0  0  0  0  0  0  0  0  0
  190.6220  175.4020  145.2590 O   0  0  0  0  0  0  0  0  0  0  0  0
  183.7290  179.0610  145.3680 N   0  0  0  0  0  1  0  0  0  0  0  0
  186.1530  176.6910  146.8820 C   0  0  0  0  0  3  0  0  0  0  0  0
  187.0650  177.6260  144.8480 C   0  0  0  0  0  0  0  0  0  0  0  0
  185.9280  178.3550  144.6850 N   0  0  0  0  0  0  0  0  0  0  0  0
  184.9970  177.4490  146.6900 C   0  0  0  0  0  3  0  0  0  0  0  0
  188.0970  177.7290  143.9170 C   0  0  0  0  0  3  0  0  0  0  0  0
  184.9020  178.2830  145.5740 C   0  0  0  0  0  0  0  0  0  0  0  0
  188.5100  175.1990  147.2490 O   0  0  0  0  0  1  0  0  0  0  0  0
  188.3800  176.0180  146.1310 C   0  0  0  0  0  0  0  0  0  0  0  0
  189.2640  176.9800  144.0820 C   0  0  0  0  0  3  0  0  0  0  0  0
  189.4180  176.1180  145.1740 C   0  0  0  0  0  0  0  0  0  0  0  0
  187.2030  176.7690  145.9610 C   0  0  0  0  0  0  0  0  0  0  0  0
  1  4  1  0  0  0  0
  2  9  1  0  0  0  0
  2 12  2  0  0  0  0
  5 16  1  1  0  0  0
  5  3  1  0  0  0  0
  6  1  1  0  0  0  0
  7  3  1  0  0  0  0
  7  8  2  0  0  0  0
  9 11  1  6  0  0  0
  9  4  1  0  0  0  0
  9  5  1  0  0  0  0
 10 15  1  6  0  0  0
 10 11  1  0  0  0  0
 10  6  1  0  0  0  0
 12  7  1  0  0  0  0
 13 15  1  0  0  0  0
 14 15  2  0  0  0  0
 17 23  1  0  0  0  0
 19 28  1  0  0  0  0
 20 19  2  0  0  0  0
 20 23  1  0  0  0  0
 21 18  1  0  0  0  0
 22 26  2  0  0  0  0
 22 19  1  0  0  0  0
 23 21  2  0  0  0  0
 25 24  1  0  0  0  0
 26 27  1  0  0  0  0
 27 16  1  0  0  0  0
 27 25  2  0  0  0  0
 28 25  1  0  0  0  0
 28 18  2  0  0  0  0
M  END
>  <MODEL>
3

>  <REMARK>
 VINA RESULT:      -7.4      1.979      4.421
  Name = 
  3 active torsions:
  status: ('A' for Active; 'I' for Inactive)
    1  A    between atoms: O_12  and  C_17
    2  A    between atoms: O_12  and  C_23
    3  A    between atoms: C_18  and  C_25
                            x       y       z     vdW  Elec       q    Type
                         _______ _______ _______ _____ _____    ______ ____

>  <TORSDO>
F 3

$$$$
=
 OpenBabel11042414483D

 28 31  0  0  1  0  0  0  0  0999 V2000
  185.3450  176.6250  146.4150 C   0  0  0  0  0  2  0  0  0  0  0  0
  184.8350  179.2340  143.9880 C   0  0  0  0  0  3  0  0  0  0  0  0
  185.9090  176.9100  142.5920 C   0  0  0  0  0  2  0  0  0  0  0  0
  184.7660  177.2680  145.3010 O   0  0  0  0  0  0  0  0  0  0  0  0
  186.6530  177.5530  143.7670 C   0  0  1  0  0  3  0  0  0  0  0  0
  185.4220  177.5820  147.6060 C   0  0  0  0  0  2  0  0  0  0  0  0
  184.9990  177.9080  141.9440 C   0  0  0  0  0  0  0  0  0  0  0  0
  184.6340  177.7410  140.7520 O   0  0  0  0  0  0  0  0  0  0  0  0
  185.6650  178.2280  144.7470 C   0  0  1  0  0  0  0  0  0  0  0  0
  185.7260  179.0090  147.1490 C   0  0  2  0  0  3  0  0  0  0  0  0
  186.4600  179.0170  145.8100 C   0  0  0  0  0  2  0  0  0  0  0  0
  184.5050  179.0670  142.7040 C   0  0  0  0  0  3  0  0  0  0  0  0
  186.1740  181.0550  148.4960 O   0  0  0  0  0  0  0  0  0  0  0  0
  187.4630  179.1830  148.7870 O   0  0  0  0  0  1  0  0  0  0  0  0
  186.5070  179.7430  148.1880 C   0  0  0  0  0  0  0  0  0  0  0  0
  187.4600  176.5830  144.4280 O   0  0  0  0  0  0  0  0  0  0  0  0
  195.1800  176.4620  145.5640 N   0  0  0  0  0  1  0  0  0  0  0  0
  191.7670  175.3000  146.4460 C   0  0  0  0  0  3  0  0  0  0  0  0
  191.6600  176.8810  144.6200 C   0  0  0  0  0  0  0  0  0  0  0  0
  193.0140  177.0020  144.6590 N   0  0  0  0  0  0  0  0  0  0  0  0
  193.1550  175.4430  146.4640 C   0  0  0  0  0  3  0  0  0  0  0  0
  190.9230  177.6060  143.6860 C   0  0  0  0  0  3  0  0  0  0  0  0
  193.7660  176.3080  145.5550 C   0  0  0  0  0  0  0  0  0  0  0  0
  188.9690  175.0170  146.3600 O   0  0  0  0  0  1  0  0  0  0  0  0
  189.6000  175.8920  145.4810 C   0  0  0  0  0  0  0  0  0  0  0  0
  189.5330  177.4840  143.6460 C   0  0  0  0  0  3  0  0  0  0  0  0
  188.8580  176.6420  144.5370 C   0  0  0  0  0  0  0  0  0  0  0  0
  191.0000  176.0190  145.5230 C   0  0  0  0  0  0  0  0  0  0  0  0
  1  6  1  0  0  0  0
  3  5  1  0  0  0  0
  4  1  1  0  0  0  0
  5 16  1  1  0  0  0
  5  9  1  0  0  0  0
  7  3  1  0  0  0  0
  7 12  1  0  0  0  0
  8  7  2  0  0  0  0
  9  2  1  6  0  0  0
  9  4  1  0  0  0  0
  9 11  1  0  0  0  0
 10  6  1  0  0  0  0
 10 15  1  1  0  0  0
 11 10  1  0  0  0  0
 12  2  2  0  0  0  0
 15 13  2  0  0  0  0
 15 14  1  0  0  0  0
 16 27  1  0  0  0  0
 18 21  1  0  0  0  0
 19 20  2  0  0  0  0
 19 28  1  0  0  0  0
 20 23  1  0  0  0  0
 22 19  1  0  0  0  0
 23 17  1  0  0  0  0
 23 21  2  0  0  0  0
 25 28  1  0  0  0  0
 25 24  1  0  0  0  0
 26 22  2  0  0  0  0
 26 27  1  0  0  0  0
 27 25  2  0  0  0  0
 28 18  2  0  0  0  0
M  END
>  <MODEL>
4

>  <REMARK>
 VINA RESULT:      -7.2      3.802      7.947
  Name = 
  3 active torsions:
  status: ('A' for Active; 'I' for Inactive)
    1  A    between atoms: O_12  and  C_17
    2  A    between atoms: O_12  and  C_23
    3  A    between atoms: C_18  and  C_25
                            x       y       z     vdW  Elec       q    Type
                         _______ _______ _______ _____ _____    ______ ____

>  <TORSDO>
F 3

$$$$
=
 OpenBabel11042414483D

 28 31  0  0  1  0  0  0  0  0999 V2000
  187.4540  178.0760  143.4190 C   0  0  0  0  0  2  0  0  0  0  0  0
  189.4890  177.1700  146.2460 C   0  0  0  0  0  3  0  0  0  0  0  0
  190.4220  175.6410  143.9450 C   0  0  0  0  0  2  0  0  0  0  0  0
  188.6250  177.9810  144.1990 O   0  0  0  0  0  0  0  0  0  0  0  0
  188.9670  175.5670  144.4200 C   0  0  1  0  0  3  0  0  0  0  0  0
  186.2810  178.5700  144.2670 C   0  0  0  0  0  2  0  0  0  0  0  0
  191.3160  176.0530  145.0750 C   0  0  0  0  0  0  0  0  0  0  0  0
  192.5420  175.7700  145.0370 O   0  0  0  0  0  0  0  0  0  0  0  0
  188.5400  176.8850  145.1090 C   0  0  1  0  0  0  0  0  0  0  0  0
  186.3560  178.0140  145.6900 C   0  0  2  0  0  3  0  0  0  0  0  0
  187.1390  176.7040  145.7310 C   0  0  0  0  0  2  0  0  0  0  0  0
  190.7760  176.8110  146.2130 C   0  0  0  0  0  3  0  0  0  0  0  0
  184.0470  178.8440  146.1110 O   0  0  0  0  0  0  0  0  0  0  0  0
  184.6820  176.7800  146.8750 O   0  0  0  0  0  1  0  0  0  0  0  0
  184.9890  177.8360  146.2610 C   0  0  0  0  0  0  0  0  0  0  0  0
  188.1090  175.2500  143.3280 O   0  0  0  0  0  0  0  0  0  0  0  0
  189.7690  171.0450  136.9660 N   0  0  0  0  0  1  0  0  0  0  0  0
  188.5180  174.1660  138.5400 C   0  0  0  0  0  3  0  0  0  0  0  0
  189.1760  172.5820  140.2440 C   0  0  0  0  0  0  0  0  0  0  0  0
  189.5270  171.6970  139.2720 N   0  0  0  0  0  0  0  0  0  0  0  0
  188.8840  173.2390  137.5630 C   0  0  0  0  0  3  0  0  0  0  0  0
  189.3330  172.2410  141.5860 C   0  0  0  0  0  3  0  0  0  0  0  0
  189.3910  171.9970  137.9520 C   0  0  0  0  0  0  0  0  0  0  0  0
  187.8140  176.0180  140.5380 O   0  0  0  0  0  1  0  0  0  0  0  0
  188.2980  174.7640  140.9000 C   0  0  0  0  0  0  0  0  0  0  0  0
  188.9720  173.1460  142.5840 C   0  0  0  0  0  3  0  0  0  0  0  0
  188.4480  174.4040  142.2610 C   0  0  0  0  0  0  0  0  0  0  0  0
  188.6570  173.8480  139.8950 C   0  0  0  0  0  0  0  0  0  0  0  0
  1  4  1  0  0  0  0
  1  6  1  0  0  0  0
  3  5  1  0  0  0  0
  3  7  1  0  0  0  0
  4  9  1  0  0  0  0
  5 16  1  6  0  0  0
  5  9  1  0  0  0  0
  6 10  1  0  0  0  0
  7 12  1  0  0  0  0
  8  7  2  0  0  0  0
  9 11  1  1  0  0  0
  9  2  1  0  0  0  0
 10 11  1  0  0  0  0
 10 15  1  6  0  0  0
 12  2  2  0  0  0  0
 13 15  2  0  0  0  0
 15 14  1  0  0  0  0
 17 23  1  0  0  0  0
 18 28  1  0  0  0  0
 19 22  1  0  0  0  0
 20 19  1  0  0  0  0
 21 23  1  0  0  0  0
 21 18  2  0  0  0  0
 22 26  2  0  0  0  0
 23 20  2  0  0  0  0
 24 25  1  0  0  0  0
 25 27  2  0  0  0  0
 27 26  1  0  0  0  0
 27 16  1  0  0  0  0
 28 19  2  0  0  0  0
 28 25  1  0  0  0  0
M  END
>  <MODEL>
5

>  <REMARK>
 VINA RESULT:      -7.2      4.542      7.320
  Name = 
  3 active torsions:
  status: ('A' for Active; 'I' for Inactive)
    1  A    between atoms: O_12  and  C_17
    2  A    between atoms: O_12  and  C_23
    3  A    between atoms: C_18  and  C_25
                            x       y       z     vdW  Elec       q    Type
                         _______ _______ _______ _____ _____    ______ ____

>  <TORSDO>
F 3

$$$$
=
 OpenBabel11042414483D

 28 31  0  0  1  0  0  0  0  0999 V2000
  192.5850  176.4050  144.3230 C   0  0  0  0  0  2  0  0  0  0  0  0
  191.9240  172.8960  143.8690 C   0  0  0  0  0  3  0  0  0  0  0  0
  191.3790  174.2450  141.3420 C   0  0  0  0  0  2  0  0  0  0  0  0
  192.7690  175.1040  143.8110 O   0  0  0  0  0  0  0  0  0  0  0  0
  190.6690  174.6530  142.6360 C   0  0  1  0  0  3  0  0  0  0  0  0
  192.4150  176.3640  145.8430 C   0  0  0  0  0  2  0  0  0  0  0  0
  191.8440  172.8230  141.4300 C   0  0  0  0  0  0  0  0  0  0  0  0
  192.0530  172.1670  140.3770 O   0  0  0  0  0  0  0  0  0  0  0  0
  191.5540  174.3590  143.8710 C   0  0  1  0  0  0  0  0  0  0  0  0
  191.6380  175.1210  146.2780 C   0  0  2  0  0  3  0  0  0  0  0  0
  190.7370  174.6100  145.1560 C   0  0  0  0  0  2  0  0  0  0  0  0
  192.0860  172.2000  142.7400 C   0  0  0  0  0  3  0  0  0  0  0  0
  189.6020  174.8030  147.6760 O   0  0  0  0  0  0  0  0  0  0  0  0
  191.2960  176.1600  148.4070 O   0  0  0  0  0  1  0  0  0  0  0  0
  190.8460  175.3970  147.5130 C   0  0  0  0  0  0  0  0  0  0  0  0
  190.2950  176.0260  142.5810 O   0  0  0  0  0  0  0  0  0  0  0  0
  183.1150  178.9610  143.4410 N   0  0  0  0  0  1  0  0  0  0  0  0
  186.5950  178.5290  144.6580 C   0  0  0  0  0  3  0  0  0  0  0  0
  186.2980  177.3650  142.5600 C   0  0  0  0  0  0  0  0  0  0  0  0
  185.0030  177.7780  142.5250 N   0  0  0  0  0  0  0  0  0  0  0  0
  185.2630  178.9390  144.5980 C   0  0  0  0  0  3  0  0  0  0  0  0
  186.8060  176.5790  141.5270 C   0  0  0  0  0  3  0  0  0  0  0  0
  184.4740  178.5490  143.5130 C   0  0  0  0  0  0  0  0  0  0  0  0
  189.2850  177.7060  144.7300 O   0  0  0  0  0  1  0  0  0  0  0  0
  188.4710  177.3090  143.6720 C   0  0  0  0  0  0  0  0  0  0  0  0
  188.1340  176.1530  141.5620 C   0  0  0  0  0  3  0  0  0  0  0  0
  188.9750  176.5000  142.6260 C   0  0  0  0  0  0  0  0  0  0  0  0
  187.1310  177.7340  143.6390 C   0  0  0  0  0  0  0  0  0  0  0  0
  1  6  1  0  0  0  0
  3  7  1  0  0  0  0
  3  5  1  0  0  0  0
  4  9  1  0  0  0  0
  4  1  1  0  0  0  0
  5 16  1  6  0  0  0
  5  9  1  0  0  0  0
  6 10  1  0  0  0  0
  7 12  1  0  0  0  0
  8  7  2  0  0  0  0
  9  2  1  6  0  0  0
  9 11  1  0  0  0  0
 10 15  1  1  0  0  0
 11 10  1  0  0  0  0
 12  2  2  0  0  0  0
 15 13  2  0  0  0  0
 15 14  1  0  0  0  0
 16 27  1  0  0  0  0
 17 23  1  0  0  0  0
 19 28  1  0  0  0  0
 20 19  2  0  0  0  0
 20 23  1  0  0  0  0
 21 18  1  0  0  0  0
 22 26  2  0  0  0  0
 22 19  1  0  0  0  0
 23 21  2  0  0  0  0
 25 24  1  0  0  0  0
 26 27  1  0  0  0  0
 27 25  2  0  0  0  0
 28 25  1  0  0  0  0
 28 18  2  0  0  0  0
M  END
>  <MODEL>
6

>  <REMARK>
 VINA RESULT:      -7.1      2.556      3.617
  Name = 
  3 active torsions:
  status: ('A' for Active; 'I' for Inactive)
    1  A    between atoms: O_12  and  C_17
    2  A    between atoms: O_12  and  C_23
    3  A    between atoms: C_18  and  C_25
                            x       y       z     vdW  Elec       q    Type
                         _______ _______ _______ _____ _____    ______ ____

>  <TORSDO>
F 3

$$$$
=
 OpenBabel11042414483D

 28 31  0  0  1  0  0  0  0  0999 V2000
  192.6290  175.9590  142.8270 C   0  0  0  0  0  2  0  0  0  0  0  0
  192.2920  172.4420  143.5210 C   0  0  0  0  0  3  0  0  0  0  0  0
  189.6690  173.6740  143.8420 C   0  0  0  0  0  2  0  0  0  0  0  0
  192.1950  174.6310  142.6300 O   0  0  0  0  0  0  0  0  0  0  0  0
  190.8830  174.1570  144.6420 C   0  0  1  0  0  3  0  0  0  0  0  0
  194.1310  175.9950  143.1160 C   0  0  0  0  0  2  0  0  0  0  0  0
  189.8600  172.2510  143.4130 C   0  0  0  0  0  0  0  0  0  0  0  0
  188.8600  171.5410  143.1360 O   0  0  0  0  0  0  0  0  0  0  0  0
  192.1950  173.9090  143.8610 C   0  0  1  0  0  0  0  0  0  0  0  0
  194.5630  174.7880  143.9490 C   0  0  2  0  0  3  0  0  0  0  0  0
  193.3990  174.2370  144.7700 C   0  0  0  0  0  2  0  0  0  0  0  0
  191.2140  171.6890  143.2860 C   0  0  0  0  0  3  0  0  0  0  0  0
  196.9790  175.2920  144.2730 O   0  0  0  0  0  0  0  0  0  0  0  0
  195.5560  175.2920  146.0670 O   0  0  0  0  0  1  0  0  0  0  0  0
  195.7170  175.1370  144.8280 C   0  0  0  0  0  0  0  0  0  0  0  0
  190.7320  175.5310  144.9830 O   0  0  0  0  0  0  0  0  0  0  0  0
  183.7980  179.0410  145.7010 N   0  0  0  0  0  1  0  0  0  0  0  0
  186.3770  176.6910  146.9710 C   0  0  0  0  0  3  0  0  0  0  0  0
  187.1120  177.6880  144.8950 C   0  0  0  0  0  0  0  0  0  0  0  0
  185.9520  178.3960  144.8350 N   0  0  0  0  0  0  0  0  0  0  0  0
  185.1950  177.4290  146.8850 C   0  0  0  0  0  3  0  0  0  0  0  0
  188.0670  177.8320  143.8910 C   0  0  0  0  0  3  0  0  0  0  0  0
  184.9980  178.2840  145.7990 C   0  0  0  0  0  0  0  0  0  0  0  0
  188.7830  175.2410  147.1220 O   0  0  0  0  0  1  0  0  0  0  0  0
  188.5520  176.0810  146.0370 C   0  0  0  0  0  0  0  0  0  0  0  0
  189.2570  177.1050  143.9490 C   0  0  0  0  0  3  0  0  0  0  0  0
  189.5120  176.2230  145.0060 C   0  0  0  0  0  0  0  0  0  0  0  0
  187.3510  176.8100  145.9740 C   0  0  0  0  0  0  0  0  0  0  0  0
  1  6  1  0  0  0  0
  3  5  1  0  0  0  0
  4  1  1  0  0  0  0
  4  9  1  0  0  0  0
  5 16  1  6  0  0  0
  6 10  1  0  0  0  0
  7  3  1  0  0  0  0
  8  7  2  0  0  0  0
  9  2  1  6  0  0  0
  9  5  1  0  0  0  0
  9 11  1  0  0  0  0
 10 11  1  0  0  0  0
 10 15  1  1  0  0  0
 12  7  1  0  0  0  0
 12  2  2  0  0  0  0
 13 15  2  0  0  0  0
 15 14  1  0  0  0  0
 16 27  1  0  0  0  0
 17 23  1  0  0  0  0
 19 28  1  0  0  0  0
 20 19  2  0  0  0  0
 20 23  1  0  0  0  0
 21 18  1  0  0  0  0
 22 26  2  0  0  0  0
 22 19  1  0  0  0  0
 23 21  2  0  0  0  0
 25 24  1  0  0  0  0
 26 27  1  0  0  0  0
 27 25  2  0  0  0  0
 28 25  1  0  0  0  0
 28 18  2  0  0  0  0
M  END
>  <MODEL>
7

>  <REMARK>
 VINA RESULT:      -7.0      1.936      2.652
  Name = 
  3 active torsions:
  status: ('A' for Active; 'I' for Inactive)
    1  A    between atoms: O_12  and  C_17
    2  A    between atoms: O_12  and  C_23
    3  A    between atoms: C_18  and  C_25
                            x       y       z     vdW  Elec       q    Type
                         _______ _______ _______ _____ _____    ______ ____

>  <TORSDO>
F 3

$$$$
=
 OpenBabel11042414483D

 28 31  0  0  1  0  0  0  0  0999 V2000
  192.4330  172.6830  144.5050 C   0  0  0  0  0  2  0  0  0  0  0  0
  194.3200  175.6790  143.8520 C   0  0  0  0  0  3  0  0  0  0  0  0
  192.7500  176.1170  146.2700 C   0  0  0  0  0  2  0  0  0  0  0  0
  193.4080  173.6780  144.7260 O   0  0  0  0  0  0  0  0  0  0  0  0
  192.0870  175.7280  144.9450 C   0  0  1  0  0  3  0  0  0  0  0  0
  192.4890  172.1870  143.0600 C   0  0  0  0  0  2  0  0  0  0  0  0
  194.0700  176.7810  146.0160 C   0  0  0  0  0  0  0  0  0  0  0  0
  194.5670  177.5410  146.8880 O   0  0  0  0  0  0  0  0  0  0  0  0
  193.0500  174.8930  144.0680 C   0  0  1  0  0  0  0  0  0  0  0  0
  192.8260  173.3270  142.0970 C   0  0  2  0  0  3  0  0  0  0  0  0
  192.4150  174.6790  142.6770 C   0  0  0  0  0  2  0  0  0  0  0  0
  194.8020  176.5250  144.7660 C   0  0  0  0  0  3  0  0  0  0  0  0
  191.1920  172.1450  140.6370 O   0  0  0  0  0  1  0  0  0  0  0  0
  192.5440  173.7750  139.7630 O   0  0  0  0  0  0  0  0  0  0  0  0
  192.1880  173.1030  140.7670 C   0  0  0  0  0  0  0  0  0  0  0  0
  190.8700  175.0310  145.1910 O   0  0  0  0  0  0  0  0  0  0  0  0
  184.0510  178.7060  146.1380 N   0  0  0  0  0  1  0  0  0  0  0  0
  186.9970  177.8520  144.0470 C   0  0  0  0  0  3  0  0  0  0  0  0
  187.1780  176.7900  146.2110 C   0  0  0  0  0  0  0  0  0  0  0  0
  185.9900  177.3450  146.5720 N   0  0  0  0  0  0  0  0  0  0  0  0
  185.7810  178.4100  144.4430 C   0  0  0  0  0  3  0  0  0  0  0  0
  187.8660  175.9740  147.1080 C   0  0  0  0  0  3  0  0  0  0  0  0
  185.2890  178.1430  145.7230 C   0  0  0  0  0  0  0  0  0  0  0  0
  189.4390  176.6880  143.2750 O   0  0  0  0  0  1  0  0  0  0  0  0
  188.9400  176.4580  144.5540 C   0  0  0  0  0  0  0  0  0  0  0  0
  189.0860  175.4050  146.7390 C   0  0  0  0  0  3  0  0  0  0  0  0
  189.6390  175.6410  145.4750 C   0  0  0  0  0  0  0  0  0  0  0  0
  187.7140  177.0350  144.9280 C   0  0  0  0  0  0  0  0  0  0  0  0
  1  4  1  0  0  0  0
  2  9  1  0  0  0  0
  2 12  2  0  0  0  0
  5 16  1  1  0  0  0
  5  3  1  0  0  0  0
  6  1  1  0  0  0  0
  7  3  1  0  0  0  0
  7  8  2  0  0  0  0
  9 11  1  6  0  0  0
  9  4  1  0  0  0  0
  9  5  1  0  0  0  0
 10 15  1  6  0  0  0
 10 11  1  0  0  0  0
 10  6  1  0  0  0  0
 12  7  1  0  0  0  0
 13 15  1  0  0  0  0
 14 15  2  0  0  0  0
 16 27  1  0  0  0  0
 18 21  2  0  0  0  0
 18 28  1  0  0  0  0
 19 20  1  0  0  0  0
 19 22  1  0  0  0  0
 21 23  1  0  0  0  0
 23 17  1  0  0  0  0
 23 20  2  0  0  0  0
 24 25  1  0  0  0  0
 25 28  1  0  0  0  0
 25 27  2  0  0  0  0
 26 22  2  0  0  0  0
 27 26  1  0  0  0  0
 28 19  2  0  0  0  0
M  END
>  <MODEL>
8

>  <REMARK>
 VINA RESULT:      -7.0      1.656      4.065
  Name = 
  3 active torsions:
  status: ('A' for Active; 'I' for Inactive)
    1  A    between atoms: O_12  and  C_17
    2  A    between atoms: O_12  and  C_23
    3  A    between atoms: C_18  and  C_25
                            x       y       z     vdW  Elec       q    Type
                         _______ _______ _______ _____ _____    ______ ____

>  <TORSDO>
F 3

$$$$
=
 OpenBabel11042414483D

 28 31  0  0  1  0  0  0  0  0999 V2000
  193.3100  176.1070  142.5830 C   0  0  0  0  0  2  0  0  0  0  0  0
  192.5730  172.5890  142.7860 C   0  0  0  0  0  3  0  0  0  0  0  0
  190.1530  173.9630  141.9120 C   0  0  0  0  0  2  0  0  0  0  0  0
  192.9810  174.8190  142.1110 O   0  0  0  0  0  0  0  0  0  0  0  0
  190.8540  174.3330  143.2230 C   0  0  1  0  0  3  0  0  0  0  0  0
  194.4930  176.0380  143.5500 C   0  0  0  0  0  2  0  0  0  0  0  0
  190.4810  172.5520  141.5270 C   0  0  0  0  0  0  0  0  0  0  0  0
  189.7110  171.9180  140.7600 O   0  0  0  0  0  0  0  0  0  0  0  0
  192.3720  174.0420  143.1410 C   0  0  1  0  0  0  0  0  0  0  0  0
  194.4380  174.7690  144.4010 C   0  0  2  0  0  3  0  0  0  0  0  0
  193.0070  174.2530  144.5330 C   0  0  0  0  0  2  0  0  0  0  0  0
  191.7130  171.9150  142.0160 C   0  0  0  0  0  3  0  0  0  0  0  0
  196.1370  174.2480  146.1450 O   0  0  0  0  0  0  0  0  0  0  0  0
  194.5760  175.8840  146.5140 O   0  0  0  0  0  1  0  0  0  0  0  0
  195.0450  175.0050  145.7440 C   0  0  0  0  0  0  0  0  0  0  0  0
  190.6030  175.6960  143.5470 O   0  0  0  0  0  0  0  0  0  0  0  0
  184.4260  178.6650  147.2800 N   0  0  0  0  0  1  0  0  0  0  0  0
  186.6320  178.5130  144.2990 C   0  0  0  0  0  3  0  0  0  0  0  0
  187.3980  176.9530  145.9790 C   0  0  0  0  0  0  0  0  0  0  0  0
  186.3760  177.3390  146.7890 N   0  0  0  0  0  0  0  0  0  0  0  0
  185.5930  178.8920  145.1500 C   0  0  0  0  0  3  0  0  0  0  0  0
  188.2940  175.9750  146.4070 C   0  0  0  0  0  3  0  0  0  0  0  0
  185.4810  178.2880  146.4040 C   0  0  0  0  0  0  0  0  0  0  0  0
  188.7250  177.7050  142.6000 O   0  0  0  0  0  1  0  0  0  0  0  0
  188.6060  177.1370  143.8650 C   0  0  0  0  0  0  0  0  0  0  0  0
  189.3440  175.5790  145.5780 C   0  0  0  0  0  3  0  0  0  0  0  0
  189.5190  176.1520  144.3130 C   0  0  0  0  0  0  0  0  0  0  0  0
  187.5510  177.5390  144.7030 C   0  0  0  0  0  0  0  0  0  0  0  0
  1  6  1  0  0  0  0
  3  5  1  0  0  0  0
  4  1  1  0  0  0  0
  4  9  1  0  0  0  0
  5 16  1  6  0  0  0
  6 10  1  0  0  0  0
  7  3  1  0  0  0  0
  7 12  1  0  0  0  0
  8  7  2  0  0  0  0
  9  2  1  6  0  0  0
  9  5  1  0  0  0  0
  9 11  1  0  0  0  0
 10 11  1  0  0  0  0
 10 15  1  1  0  0  0
 12  2  2  0  0  0  0
 15 13  2  0  0  0  0
 15 14  1  0  0  0  0
 16 27  1  0  0  0  0
 18 28  2  0  0  0  0
 18 21  1  0  0  0  0
 19 22  1  0  0  0  0
 19 20  2  0  0  0  0
 21 23  2  0  0  0  0
 23 20  1  0  0  0  0
 23 17  1  0  0  0  0
 24 25  1  0  0  0  0
 25 27  2  0  0  0  0
 25 28  1  0  0  0  0
 26 22  2  0  0  0  0
 27 26  1  0  0  0  0
 28 19  1  0  0  0  0
M  END
>  <MODEL>
9

>  <REMARK>
 VINA RESULT:      -7.0      1.799      2.268
  Name = 
  3 active torsions:
  status: ('A' for Active; 'I' for Inactive)
    1  A    between atoms: O_12  and  C_17
    2  A    between atoms: O_12  and  C_23
    3  A    between atoms: C_18  and  C_25
                            x       y       z     vdW  Elec       q    Type
                         _______ _______ _______ _____ _____    ______ ____

>  <TORSDO>
F 3

$$$$
