=
 OpenBabel11042419303D

 32 35  0  0  1  0  0  0  0  0999 V2000
  185.2230  178.2030  147.1780 C   0  0  0  0  0  3  0  0  0  0  0  0
  183.5770  179.0410  145.6390 O   0  0  0  0  0  1  0  0  0  0  0  0
  187.4040  175.6600  141.7020 N   0  0  0  0  0  2  0  0  0  0  0  0
  185.5720  177.0560  142.4900 C   0  0  0  0  0  3  0  0  0  0  0  0
  186.5470  176.8660  145.0930 C   0  0  0  0  0  0  0  0  0  0  0  0
  185.3800  177.6260  144.8330 C   0  0  0  0  0  0  0  0  0  0  0  0
  187.0360  176.7700  146.4200 C   0  0  0  0  0  0  0  0  0  0  0  0
  188.6460  174.9520  141.8000 C   0  0  0  0  0  0  0  0  0  0  0  0
  187.1820  176.2490  144.0550 N   0  0  0  0  0  0  0  0  0  0  0  0
  184.7220  178.2900  145.8790 C   0  0  0  0  0  0  0  0  0  0  0  0
  189.2750  174.8970  142.8900 O   0  0  0  0  0  0  0  0  0  0  0  0
  184.9010  177.7090  143.5230 C   0  0  0  0  0  3  0  0  0  0  0  0
  186.3680  177.4520  147.4420 C   0  0  0  0  0  3  0  0  0  0  0  0
  186.7270  176.3270  142.7730 C   0  0  0  0  0  0  0  0  0  0  0  0
  189.9100  171.9290  141.4260 O   0  0  0  0  0  0  0  0  0  0  0  0
  189.1830  174.2400  140.5990 C   0  0  2  0  0  3  0  0  0  0  0  0
  188.2120  173.4520  140.0380 O   0  0  0  0  0  0  0  0  0  0  0  0
  189.3190  172.8950  140.8770 C   0  0  0  0  0  0  0  0  0  0  0  0
  188.1990  176.0110  146.7850 N   0  0  0  0  0  2  0  0  0  0  0  0
  191.4700  175.0230  147.3190 C   0  0  1  0  0  3  0  0  0  0  0  0
  191.3650  176.3130  147.9760 N   0  0  0  0  0  2  0  0  0  0  0  0
  189.9620  178.1770  147.8030 O   0  0  0  0  0  0  0  0  0  0  0  0
  189.5660  176.2830  146.3630 C   0  0  2  0  0  3  0  0  0  0  0  0
  190.3500  174.9720  146.2710 C   0  0  0  0  0  2  0  0  0  0  0  0
  190.2770  177.0190  147.4240 C   0  0  0  0  0  0  0  0  0  0  0  0
  192.8140  174.8990  146.6250 C   0  0  0  0  0  2  0  0  0  0  0  0
  193.4570  176.2660  146.4790 C   0  0  0  0  0  2  0  0  0  0  0  0
  193.4330  176.6820  145.0510 C   0  0  0  0  0  0  0  0  0  0  0  0
  194.3550  176.3060  144.2770 O   0  0  0  0  0  0  0  0  0  0  0  0
  192.4050  177.5060  144.5920 O   0  0  0  0  0  0  0  0  0  0  0  0
  190.4710  178.0550  143.2900 C   0  0  0  0  0  1  0  0  0  0  0  0
  191.7790  177.2940  143.3350 C   0  0  0  0  0  2  0  0  0  0  0  0
  1 13  1  0  0  0  0
  2 10  1  0  0  0  0
  3  8  1  0  0  0  0
  3 14  1  0  0  0  0
  4 14  1  0  0  0  0
  4 12  2  0  0  0  0
  5  7  1  0  0  0  0
  6  5  2  0  0  0  0
  6 10  1  0  0  0  0
  7 19  1  0  0  0  0
  7 13  2  0  0  0  0
  8 11  2  0  0  0  0
  9  5  1  0  0  0  0
 10  1  2  0  0  0  0
 12  6  1  0  0  0  0
 14  9  2  0  0  0  0
 16 18  1  0  0  0  0
 16  8  1  1  0  0  0
 17 16  1  0  0  0  0
 17 18  1  0  0  0  0
 18 15  2  0  0  0  0
 20 26  1  6  0  0  0
 20 21  1  0  0  0  0
 23 19  1  1  0  0  0
 23 25  1  0  0  0  0
 24 23  1  0  0  0  0
 24 20  1  0  0  0  0
 25 22  2  0  0  0  0
 25 21  1  0  0  0  0
 27 26  1  0  0  0  0
 28 27  1  0  0  0  0
 29 28  2  0  0  0  0
 30 28  1  0  0  0  0
 31 32  1  0  0  0  0
 32 30  1  0  0  0  0
M  END
>  <MODEL>
1

>  <REMARK>
 VINA RESULT:      -7.5      0.000      0.000
  Name = 
  8 active torsions:
  status: ('A' for Active; 'I' for Inactive)
    1  A    between atoms: C_1  and  C_20
    2  A    between atoms: C_5  and  C_10
    3  A    between atoms: C_5  and  O_12
    4  A    between atoms: C_10  and  C_20
    5  A    between atoms: C_11  and  O_12
    6  A    between atoms: C_16  and  N_30
    7  A    between atoms: C_17  and  N_30
    8  A    between atoms: C_18  and  C_24
                            x       y       z     vdW  Elec       q    Type
                         _______ _______ _______ _____ _____    ______ ____

>  <TORSDO>
F 8

$$$$
=
 OpenBabel11042419303D

 32 35  0  0  1  0  0  0  0  0999 V2000
  185.8580  178.3360  147.1130 C   0  0  0  0  0  3  0  0  0  0  0  0
  184.0800  179.0480  145.6600 O   0  0  0  0  0  1  0  0  0  0  0  0
  187.6410  175.4610  141.6570 N   0  0  0  0  0  2  0  0  0  0  0  0
  185.8540  176.8830  142.4970 C   0  0  0  0  0  3  0  0  0  0  0  0
  187.0350  176.8790  145.0200 C   0  0  0  0  0  0  0  0  0  0  0  0
  185.8380  177.6050  144.8060 C   0  0  0  0  0  0  0  0  0  0  0  0
  187.6300  176.8780  146.3060 C   0  0  0  0  0  0  0  0  0  0  0  0
  188.9000  174.7770  141.7000 C   0  0  0  0  0  0  0  0  0  0  0  0
  187.5970  176.2030  143.9770 N   0  0  0  0  0  0  0  0  0  0  0  0
  185.2540  178.3290  145.8560 C   0  0  0  0  0  0  0  0  0  0  0  0
  189.6140  174.8020  142.7370 O   0  0  0  0  0  0  0  0  0  0  0  0
  185.2550  177.5950  143.5360 C   0  0  0  0  0  3  0  0  0  0  0  0
  187.0340  177.6180  147.3330 C   0  0  0  0  0  3  0  0  0  0  0  0
  187.0400  176.1900  142.7330 C   0  0  0  0  0  0  0  0  0  0  0  0
  190.0690  171.7070  141.4100 O   0  0  0  0  0  0  0  0  0  0  0  0
  189.3520  173.9930  140.5090 C   0  0  2  0  0  3  0  0  0  0  0  0
  188.3330  173.2060  140.0410 O   0  0  0  0  0  0  0  0  0  0  0  0
  189.4720  172.6610  140.8470 C   0  0  0  0  0  0  0  0  0  0  0  0
  188.8320  176.1590  146.6250 N   0  0  0  0  0  2  0  0  0  0  0  0
  191.9560  176.1170  145.1430 C   0  0  1  0  0  3  0  0  0  0  0  0
  192.1240  175.3610  146.3710 N   0  0  0  0  0  2  0  0  0  0  0  0
  191.0070  175.2210  148.4220 O   0  0  0  0  0  0  0  0  0  0  0  0
  190.1670  176.7310  146.7390 C   0  0  2  0  0  3  0  0  0  0  0  0
  190.7280  177.0150  145.3440 C   0  0  0  0  0  2  0  0  0  0  0  0
  191.0980  175.7190  147.2700 C   0  0  0  0  0  0  0  0  0  0  0  0
  193.1770  176.9840  144.8940 C   0  0  0  0  0  2  0  0  0  0  0  0
  194.3900  176.3930  145.5880 C   0  0  0  0  0  2  0  0  0  0  0  0
  195.3490  175.8790  144.5730 C   0  0  0  0  0  0  0  0  0  0  0  0
  195.9940  176.6930  143.8570 O   0  0  0  0  0  0  0  0  0  0  0  0
  195.5020  174.5020  144.4070 O   0  0  0  0  0  0  0  0  0  0  0  0
  194.0910  172.6590  144.9950 C   0  0  0  0  0  1  0  0  0  0  0  0
  195.2010  173.5840  145.4470 C   0  0  0  0  0  2  0  0  0  0  0  0
  1 13  1  0  0  0  0
  2 10  1  0  0  0  0
  3  8  1  0  0  0  0
  3 14  1  0  0  0  0
  4 14  1  0  0  0  0
  4 12  2  0  0  0  0
  5  7  1  0  0  0  0
  6  5  2  0  0  0  0
  6 10  1  0  0  0  0
  7 19  1  0  0  0  0
  7 13  2  0  0  0  0
  8 11  2  0  0  0  0
  9  5  1  0  0  0  0
 10  1  2  0  0  0  0
 12  6  1  0  0  0  0
 14  9  2  0  0  0  0
 16 18  1  0  0  0  0
 16  8  1  1  0  0  0
 17 16  1  0  0  0  0
 17 18  1  0  0  0  0
 18 15  2  0  0  0  0
 20 26  1  1  0  0  0
 20 24  1  0  0  0  0
 20 21  1  0  0  0  0
 21 25  1  0  0  0  0
 23 19  1  6  0  0  0
 23 25  1  0  0  0  0
 24 23  1  0  0  0  0
 25 22  2  0  0  0  0
 26 27  1  0  0  0  0
 28 27  1  0  0  0  0
 29 28  2  0  0  0  0
 30 28  1  0  0  0  0
 30 32  1  0  0  0  0
 31 32  1  0  0  0  0
M  END
>  <MODEL>
2

>  <REMARK>
 VINA RESULT:      -6.9      1.330      2.115
  Name = 
  8 active torsions:
  status: ('A' for Active; 'I' for Inactive)
    1  A    between atoms: C_1  and  C_20
    2  A    between atoms: C_5  and  C_10
    3  A    between atoms: C_5  and  O_12
    4  A    between atoms: C_10  and  C_20
    5  A    between atoms: C_11  and  O_12
    6  A    between atoms: C_16  and  N_30
    7  A    between atoms: C_17  and  N_30
    8  A    between atoms: C_18  and  C_24
                            x       y       z     vdW  Elec       q    Type
                         _______ _______ _______ _____ _____    ______ ____

>  <TORSDO>
F 8

$$$$
=
 OpenBabel11042419303D

 32 35  0  0  1  0  0  0  0  0999 V2000
  189.7610  175.6800  147.0510 C   0  0  0  0  0  3  0  0  0  0  0  0
  191.3520  176.3740  148.7130 O   0  0  0  0  0  1  0  0  0  0  0  0
  194.9840  176.3880  143.3850 N   0  0  0  0  0  2  0  0  0  0  0  0
  194.3130  176.6280  145.7130 C   0  0  0  0  0  3  0  0  0  0  0  0
  191.7190  175.8620  145.0460 C   0  0  0  0  0  0  0  0  0  0  0  0
  192.0370  176.1690  146.3920 C   0  0  0  0  0  0  0  0  0  0  0  0
  190.3970  175.4760  144.7120 C   0  0  0  0  0  0  0  0  0  0  0  0
  194.8330  176.0040  142.0130 C   0  0  0  0  0  0  0  0  0  0  0  0
  192.6990  175.9340  144.0990 N   0  0  0  0  0  0  0  0  0  0  0  0
  191.0540  176.0780  147.3880 C   0  0  0  0  0  0  0  0  0  0  0  0
  193.7530  175.5100  141.5940 O   0  0  0  0  0  0  0  0  0  0  0  0
  193.3420  176.5550  146.7100 C   0  0  0  0  0  3  0  0  0  0  0  0
  189.4390  175.3820  145.7260 C   0  0  0  0  0  3  0  0  0  0  0  0
  193.9750  176.3060  144.3990 C   0  0  0  0  0  0  0  0  0  0  0  0
  197.4930  174.1890  141.3050 O   0  0  0  0  0  0  0  0  0  0  0  0
  195.9640  176.2260  141.0590 C   0  0  2  0  0  3  0  0  0  0  0  0
  195.7200  175.5820  139.8740 O   0  0  0  0  0  0  0  0  0  0  0  0
  196.6750  175.0550  140.9000 C   0  0  0  0  0  0  0  0  0  0  0  0
  189.9740  175.1630  143.3760 N   0  0  0  0  0  2  0  0  0  0  0  0
  187.2210  177.2530  143.4910 C   0  0  1  0  0  3  0  0  0  0  0  0
  186.7280  176.0320  142.8810 N   0  0  0  0  0  2  0  0  0  0  0  0
  187.6770  174.2230  141.7400 O   0  0  0  0  0  0  0  0  0  0  0  0
  189.1190  175.9860  142.5330 C   0  0  2  0  0  3  0  0  0  0  0  0
  188.7410  177.2690  143.2760 C   0  0  0  0  0  2  0  0  0  0  0  0
  187.8180  175.3200  142.3400 C   0  0  0  0  0  0  0  0  0  0  0  0
  186.6040  178.4610  142.8120 C   0  0  0  0  0  2  0  0  0  0  0  0
  185.8590  179.3100  143.8260 C   0  0  0  0  0  2  0  0  0  0  0  0
  184.4960  178.7560  144.0410 C   0  0  0  0  0  0  0  0  0  0  0  0
  183.8540  178.2840  143.0630 O   0  0  0  0  0  0  0  0  0  0  0  0
  183.9320  178.7920  145.3160 O   0  0  0  0  0  0  0  0  0  0  0  0
  184.9810  176.9760  146.4750 C   0  0  0  0  0  1  0  0  0  0  0  0
  184.6810  178.4610  146.4760 C   0  0  0  0  0  2  0  0  0  0  0  0
  1 10  1  0  0  0  0
  3 14  1  0  0  0  0
  4 12  2  0  0  0  0
  5  6  1  0  0  0  0
  6 12  1  0  0  0  0
  6 10  2  0  0  0  0
  7  5  2  0  0  0  0
  7 13  1  0  0  0  0
  8  3  1  0  0  0  0
  9 14  2  0  0  0  0
  9  5  1  0  0  0  0
 10  2  1  0  0  0  0
 11  8  2  0  0  0  0
 13  1  2  0  0  0  0
 14  4  1  0  0  0  0
 16  8  1  1  0  0  0
 17 18  1  0  0  0  0
 17 16  1  0  0  0  0
 18 16  1  0  0  0  0
 18 15  2  0  0  0  0
 19  7  1  0  0  0  0
 20 26  1  6  0  0  0
 21 20  1  0  0  0  0
 22 25  2  0  0  0  0
 23 24  1  0  0  0  0
 23 19  1  1  0  0  0
 24 20  1  0  0  0  0
 25 23  1  0  0  0  0
 25 21  1  0  0  0  0
 26 27  1  0  0  0  0
 27 28  1  0  0  0  0
 28 30  1  0  0  0  0
 29 28  2  0  0  0  0
 30 32  1  0  0  0  0
 31 32  1  0  0  0  0
M  END
>  <MODEL>
3

>  <REMARK>
 VINA RESULT:      -6.9      2.682      7.100
  Name = 
  8 active torsions:
  status: ('A' for Active; 'I' for Inactive)
    1  A    between atoms: C_1  and  C_20
    2  A    between atoms: C_5  and  C_10
    3  A    between atoms: C_5  and  O_12
    4  A    between atoms: C_10  and  C_20
    5  A    between atoms: C_11  and  O_12
    6  A    between atoms: C_16  and  N_30
    7  A    between atoms: C_17  and  N_30
    8  A    between atoms: C_18  and  C_24
                            x       y       z     vdW  Elec       q    Type
                         _______ _______ _______ _____ _____    ______ ____

>  <TORSDO>
F 8

$$$$
=
 OpenBabel11042419303D

 32 35  0  0  1  0  0  0  0  0999 V2000
  184.9310  178.8020  146.6310 C   0  0  0  0  0  3  0  0  0  0  0  0
  186.5760  178.6370  148.3760 O   0  0  0  0  0  1  0  0  0  0  0  0
  189.4140  175.3220  143.6290 N   0  0  0  0  0  2  0  0  0  0  0  0
  189.0320  176.3750  145.7900 C   0  0  0  0  0  3  0  0  0  0  0  0
  186.5650  177.3130  144.8990 C   0  0  0  0  0  0  0  0  0  0  0  0
  186.9910  177.6020  146.2180 C   0  0  0  0  0  0  0  0  0  0  0  0
  185.3110  177.7950  144.4500 C   0  0  0  0  0  0  0  0  0  0  0  0
  189.0660  174.8650  142.3160 C   0  0  0  0  0  0  0  0  0  0  0  0
  187.3700  176.5650  144.0900 N   0  0  0  0  0  0  0  0  0  0  0  0
  186.1720  178.3470  147.0780 C   0  0  0  0  0  0  0  0  0  0  0  0
  187.9270  175.0970  141.8310 O   0  0  0  0  0  0  0  0  0  0  0  0
  188.2330  177.1280  146.6500 C   0  0  0  0  0  3  0  0  0  0  0  0
  184.5070  178.5270  145.3300 C   0  0  0  0  0  3  0  0  0  0  0  0
  188.5810  176.0940  144.5020 C   0  0  0  0  0  0  0  0  0  0  0  0
  192.2980  175.3560  141.8830 O   0  0  0  0  0  0  0  0  0  0  0  0
  190.0830  174.1320  141.5000 C   0  0  2  0  0  3  0  0  0  0  0  0
  190.7470  173.2170  142.2740 O   0  0  0  0  0  0  0  0  0  0  0  0
  191.3520  174.5270  141.8720 C   0  0  0  0  0  0  0  0  0  0  0  0
  184.8000  177.5700  143.1260 N   0  0  0  0  0  2  0  0  0  0  0  0
  182.1010  177.9620  141.0000 C   0  0  1  0  0  3  0  0  0  0  0  0
  183.2560  177.9300  140.1220 N   0  0  0  0  0  2  0  0  0  0  0  0
  185.5500  178.3270  140.3510 O   0  0  0  0  0  0  0  0  0  0  0  0
  184.1300  178.5530  142.2870 C   0  0  2  0  0  3  0  0  0  0  0  0
  182.6140  178.3720  142.3870 C   0  0  0  0  0  2  0  0  0  0  0  0
  184.4050  178.2670  140.8670 C   0  0  0  0  0  0  0  0  0  0  0  0
  181.1010  178.9930  140.5090 C   0  0  0  0  0  2  0  0  0  0  0  0
  180.1330  179.3560  141.6190 C   0  0  0  0  0  2  0  0  0  0  0  0
  178.9820  178.4140  141.6100 C   0  0  0  0  0  0  0  0  0  0  0  0
  178.8020  177.6600  140.6150 O   0  0  0  0  0  0  0  0  0  0  0  0
  178.0990  178.3960  142.6900 O   0  0  0  0  0  0  0  0  0  0  0  0
  178.2740  178.4320  145.0790 C   0  0  0  0  0  1  0  0  0  0  0  0
  178.2660  179.2550  143.8080 C   0  0  0  0  0  2  0  0  0  0  0  0
  1 10  1  0  0  0  0
  3 14  1  0  0  0  0
  4 12  2  0  0  0  0
  5  6  1  0  0  0  0
  6 12  1  0  0  0  0
  6 10  2  0  0  0  0
  7  5  2  0  0  0  0
  7 13  1  0  0  0  0
  8  3  1  0  0  0  0
  9 14  2  0  0  0  0
  9  5  1  0  0  0  0
 10  2  1  0  0  0  0
 11  8  2  0  0  0  0
 13  1  2  0  0  0  0
 14  4  1  0  0  0  0
 16 18  1  0  0  0  0
 16 17  1  0  0  0  0
 16  8  1  1  0  0  0
 18 15  2  0  0  0  0
 18 17  1  0  0  0  0
 19  7  1  0  0  0  0
 20 26  1  6  0  0  0
 20 24  1  0  0  0  0
 21 25  1  0  0  0  0
 21 20  1  0  0  0  0
 22 25  2  0  0  0  0
 23 24  1  0  0  0  0
 23 19  1  1  0  0  0
 25 23  1  0  0  0  0
 26 27  1  0  0  0  0
 28 27  1  0  0  0  0
 28 30  1  0  0  0  0
 29 28  2  0  0  0  0
 30 32  1  0  0  0  0
 32 31  1  0  0  0  0
M  END
>  <MODEL>
4

>  <REMARK>
 VINA RESULT:      -6.7      3.614      8.216
  Name = 
  8 active torsions:
  status: ('A' for Active; 'I' for Inactive)
    1  A    between atoms: C_1  and  C_20
    2  A    between atoms: C_5  and  C_10
    3  A    between atoms: C_5  and  O_12
    4  A    between atoms: C_10  and  C_20
    5  A    between atoms: C_11  and  O_12
    6  A    between atoms: C_16  and  N_30
    7  A    between atoms: C_17  and  N_30
    8  A    between atoms: C_18  and  C_24
                            x       y       z     vdW  Elec       q    Type
                         _______ _______ _______ _____ _____    ______ ____

>  <TORSDO>
F 8

$$$$
=
 OpenBabel11042419303D

 32 35  0  0  1  0  0  0  0  0999 V2000
  188.0020  177.1180  146.8030 C   0  0  0  0  0  3  0  0  0  0  0  0
  186.7040  178.5420  148.2390 O   0  0  0  0  0  1  0  0  0  0  0  0
  183.2070  178.6620  142.8230 N   0  0  0  0  0  2  0  0  0  0  0  0
  183.9230  179.0940  145.1090 C   0  0  0  0  0  3  0  0  0  0  0  0
  186.1490  177.4660  144.7200 C   0  0  0  0  0  0  0  0  0  0  0  0
  185.9540  178.1020  145.9710 C   0  0  0  0  0  0  0  0  0  0  0  0
  187.2820  176.6360  144.5300 C   0  0  0  0  0  0  0  0  0  0  0  0
  183.3340  178.1720  141.4820 C   0  0  0  0  0  0  0  0  0  0  0  0
  185.2460  177.6760  143.7200 N   0  0  0  0  0  0  0  0  0  0  0  0
  186.8810  177.9230  147.0070 C   0  0  0  0  0  0  0  0  0  0  0  0
  184.3570  177.5320  141.1210 O   0  0  0  0  0  0  0  0  0  0  0  0
  184.8300  178.9130  146.1520 C   0  0  0  0  0  3  0  0  0  0  0  0
  188.1980  176.4830  145.5760 C   0  0  0  0  0  3  0  0  0  0  0  0
  184.1490  178.4680  143.8840 C   0  0  0  0  0  0  0  0  0  0  0  0
  180.1000  177.5570  141.6730 O   0  0  0  0  0  0  0  0  0  0  0  0
  182.2190  178.3950  140.5090 C   0  0  2  0  0  3  0  0  0  0  0  0
  181.5880  179.5830  140.7730 O   0  0  0  0  0  0  0  0  0  0  0  0
  181.0060  178.2560  141.1520 C   0  0  0  0  0  0  0  0  0  0  0  0
  187.5570  175.9360  143.3070 N   0  0  0  0  0  2  0  0  0  0  0  0
  190.9300  176.6930  143.4360 C   0  0  1  0  0  3  0  0  0  0  0  0
  190.3050  177.8940  142.9100 N   0  0  0  0  0  2  0  0  0  0  0  0
  188.2970  178.4030  141.8230 O   0  0  0  0  0  0  0  0  0  0  0  0
  188.7290  176.1180  142.4610 C   0  0  2  0  0  3  0  0  0  0  0  0
  189.9630  175.5350  143.1530 C   0  0  0  0  0  2  0  0  0  0  0  0
  189.0520  177.5520  142.3600 C   0  0  0  0  0  0  0  0  0  0  0  0
  192.2440  176.4360  142.7230 C   0  0  0  0  0  2  0  0  0  0  0  0
  193.0350  175.3650  143.4510 C   0  0  0  0  0  2  0  0  0  0  0  0
  194.0290  176.0020  144.3560 C   0  0  0  0  0  0  0  0  0  0  0  0
  195.1200  176.4240  143.8850 O   0  0  0  0  0  0  0  0  0  0  0  0
  193.7540  176.0990  145.7200 O   0  0  0  0  0  0  0  0  0  0  0  0
  191.7310  176.0420  147.0020 C   0  0  0  0  0  1  0  0  0  0  0  0
  192.8360  175.2280  146.3630 C   0  0  0  0  0  2  0  0  0  0  0  0
  1 10  1  0  0  0  0
  3 14  1  0  0  0  0
  4 12  2  0  0  0  0
  5  6  1  0  0  0  0
  6 12  1  0  0  0  0
  6 10  2  0  0  0  0
  7  5  2  0  0  0  0
  7 13  1  0  0  0  0
  8  3  1  0  0  0  0
  9 14  2  0  0  0  0
  9  5  1  0  0  0  0
 10  2  1  0  0  0  0
 11  8  2  0  0  0  0
 13  1  2  0  0  0  0
 14  4  1  0  0  0  0
 16 17  1  0  0  0  0
 16 18  1  0  0  0  0
 16  8  1  1  0  0  0
 17 18  1  0  0  0  0
 18 15  2  0  0  0  0
 19  7  1  0  0  0  0
 20 26  1  6  0  0  0
 21 20  1  0  0  0  0
 22 25  2  0  0  0  0
 23 24  1  0  0  0  0
 23 19  1  1  0  0  0
 24 20  1  0  0  0  0
 25 23  1  0  0  0  0
 25 21  1  0  0  0  0
 26 27  1  0  0  0  0
 27 28  1  0  0  0  0
 28 30  1  0  0  0  0
 29 28  2  0  0  0  0
 30 32  1  0  0  0  0
 32 31  1  0  0  0  0
M  END
>  <MODEL>
5

>  <REMARK>
 VINA RESULT:      -6.7      2.665      4.944
  Name = 
  8 active torsions:
  status: ('A' for Active; 'I' for Inactive)
    1  A    between atoms: C_1  and  C_20
    2  A    between atoms: C_5  and  C_10
    3  A    between atoms: C_5  and  O_12
    4  A    between atoms: C_10  and  C_20
    5  A    between atoms: C_11  and  O_12
    6  A    between atoms: C_16  and  N_30
    7  A    between atoms: C_17  and  N_30
    8  A    between atoms: C_18  and  C_24
                            x       y       z     vdW  Elec       q    Type
                         _______ _______ _______ _____ _____    ______ ____

>  <TORSDO>
F 8

$$$$
=
 OpenBabel11042419303D

 32 35  0  0  1  0  0  0  0  0999 V2000
  193.2920  175.1080  146.1400 C   0  0  0  0  0  3  0  0  0  0  0  0
  194.0230  172.8260  145.9590 O   0  0  0  0  0  1  0  0  0  0  0  0
  189.8950  173.2390  141.0240 N   0  0  0  0  0  2  0  0  0  0  0  0
  191.5200  172.3340  142.5940 C   0  0  0  0  0  3  0  0  0  0  0  0
  191.6370  174.7950  143.8920 C   0  0  0  0  0  0  0  0  0  0  0  0
  192.4230  173.7150  144.3630 C   0  0  0  0  0  0  0  0  0  0  0  0
  191.7040  176.0460  144.5550 C   0  0  0  0  0  0  0  0  0  0  0  0
  188.9710  174.2050  140.5080 C   0  0  0  0  0  0  0  0  0  0  0  0
  190.8230  174.6040  142.8140 N   0  0  0  0  0  0  0  0  0  0  0  0
  193.2480  173.8780  145.4850 C   0  0  0  0  0  0  0  0  0  0  0  0
  188.8150  175.3180  141.0750 O   0  0  0  0  0  0  0  0  0  0  0  0
  192.3560  172.4870  143.6990 C   0  0  0  0  0  3  0  0  0  0  0  0
  192.5270  176.1790  145.6780 C   0  0  0  0  0  3  0  0  0  0  0  0
  190.7470  173.4110  142.1620 C   0  0  0  0  0  0  0  0  0  0  0  0
  189.9420  173.8450  137.3770 O   0  0  0  0  0  0  0  0  0  0  0  0
  188.2070  173.8980  139.2580 C   0  0  2  0  0  3  0  0  0  0  0  0
  188.2510  172.5540  138.9910 O   0  0  0  0  0  0  0  0  0  0  0  0
  189.0840  173.5530  138.2500 C   0  0  0  0  0  0  0  0  0  0  0  0
  190.9600  177.2040  144.1430 N   0  0  0  0  0  2  0  0  0  0  0  0
  188.1350  176.2550  145.8970 C   0  0  1  0  0  3  0  0  0  0  0  0
  187.6390  176.6470  144.5900 N   0  0  0  0  0  2  0  0  0  0  0  0
  188.4090  177.9940  142.8380 O   0  0  0  0  0  0  0  0  0  0  0  0
  189.7820  177.7450  144.8050 C   0  0  2  0  0  3  0  0  0  0  0  0
  189.4920  176.9480  146.0790 C   0  0  0  0  0  2  0  0  0  0  0  0
  188.5870  177.4950  143.9790 C   0  0  0  0  0  0  0  0  0  0  0  0
  187.1800  176.7250  146.9790 C   0  0  0  0  0  2  0  0  0  0  0  0
  185.7640  176.7900  146.4370 C   0  0  0  0  0  2  0  0  0  0  0  0
  185.2880  178.1990  146.4410 C   0  0  0  0  0  0  0  0  0  0  0  0
  185.7930  179.0240  147.2510 O   0  0  0  0  0  0  0  0  0  0  0  0
  184.2700  178.5830  145.5700 O   0  0  0  0  0  0  0  0  0  0  0  0
  185.5200  179.7830  143.9160 C   0  0  0  0  0  1  0  0  0  0  0  0
  184.4860  178.7070  144.1720 C   0  0  0  0  0  2  0  0  0  0  0  0
  3 14  1  0  0  0  0
  4 12  2  0  0  0  0
  5  6  2  0  0  0  0
  5  7  1  0  0  0  0
  6 10  1  0  0  0  0
  7 13  2  0  0  0  0
  8  3  1  0  0  0  0
  8 11  2  0  0  0  0
  9  5  1  0  0  0  0
 10  2  1  0  0  0  0
 10  1  2  0  0  0  0
 12  6  1  0  0  0  0
 13  1  1  0  0  0  0
 14  4  1  0  0  0  0
 14  9  2  0  0  0  0
 15 18  2  0  0  0  0
 16  8  1  1  0  0  0
 17 16  1  0  0  0  0
 18 17  1  0  0  0  0
 18 16  1  0  0  0  0
 19  7  1  0  0  0  0
 20 24  1  0  0  0  0
 20 26  1  1  0  0  0
 21 20  1  0  0  0  0
 22 25  2  0  0  0  0
 23 19  1  6  0  0  0
 23 24  1  0  0  0  0
 25 21  1  0  0  0  0
 25 23  1  0  0  0  0
 27 28  1  0  0  0  0
 27 26  1  0  0  0  0
 28 29  2  0  0  0  0
 30 28  1  0  0  0  0
 31 32  1  0  0  0  0
 32 30  1  0  0  0  0
M  END
>  <MODEL>
6

>  <REMARK>
 VINA RESULT:      -6.5      2.282      6.198
  Name = 
  8 active torsions:
  status: ('A' for Active; 'I' for Inactive)
    1  A    between atoms: C_1  and  C_20
    2  A    between atoms: C_5  and  C_10
    3  A    between atoms: C_5  and  O_12
    4  A    between atoms: C_10  and  C_20
    5  A    between atoms: C_11  and  O_12
    6  A    between atoms: C_16  and  N_30
    7  A    between atoms: C_17  and  N_30
    8  A    between atoms: C_18  and  C_24
                            x       y       z     vdW  Elec       q    Type
                         _______ _______ _______ _____ _____    ______ ____

>  <TORSDO>
F 8

$$$$
=
 OpenBabel11042419303D

 32 35  0  0  1  0  0  0  0  0999 V2000
  194.5420  176.5830  145.8880 C   0  0  0  0  0  3  0  0  0  0  0  0
  196.2350  176.4550  144.1870 O   0  0  0  0  0  1  0  0  0  0  0  0
  191.1820  173.8280  141.1630 N   0  0  0  0  0  2  0  0  0  0  0  0
  193.4280  174.6660  141.5880 C   0  0  0  0  0  3  0  0  0  0  0  0
  192.6640  175.4100  144.1610 C   0  0  0  0  0  0  0  0  0  0  0  0
  193.9930  175.6380  143.7300 C   0  0  0  0  0  0  0  0  0  0  0  0
  192.2800  175.7930  145.4710 C   0  0  0  0  0  0  0  0  0  0  0  0
  189.8440  173.4410  141.4990 C   0  0  0  0  0  0  0  0  0  0  0  0
  191.7820  174.8140  143.3080 N   0  0  0  0  0  0  0  0  0  0  0  0
  194.9260  176.2260  144.5960 C   0  0  0  0  0  0  0  0  0  0  0  0
  189.4020  173.5910  142.6690 O   0  0  0  0  0  0  0  0  0  0  0  0
  194.3600  175.2630  142.4340 C   0  0  0  0  0  3  0  0  0  0  0  0
  193.2330  176.3670  146.3190 C   0  0  0  0  0  3  0  0  0  0  0  0
  192.1300  174.4400  142.0450 C   0  0  0  0  0  0  0  0  0  0  0  0
  187.9060  174.9070  139.2710 O   0  0  0  0  0  0  0  0  0  0  0  0
  188.9510  172.8830  140.4370 C   0  0  2  0  0  3  0  0  0  0  0  0
  189.6060  172.8480  139.2330 O   0  0  0  0  0  0  0  0  0  0  0  0
  188.5800  173.8870  139.5660 C   0  0  0  0  0  0  0  0  0  0  0  0
  190.9540  175.6190  145.9930 N   0  0  0  0  0  2  0  0  0  0  0  0
  187.6210  176.5370  145.8790 C   0  0  1  0  0  3  0  0  0  0  0  0
  188.2690  177.3880  144.8970 N   0  0  0  0  0  2  0  0  0  0  0  0
  190.4480  178.1440  144.5070 O   0  0  0  0  0  0  0  0  0  0  0  0
  190.0400  176.6840  146.3830 C   0  0  2  0  0  3  0  0  0  0  0  0
  188.7150  176.0810  146.8540 C   0  0  0  0  0  2  0  0  0  0  0  0
  189.6450  177.4620  145.1940 C   0  0  0  0  0  0  0  0  0  0  0  0
  186.5680  177.3240  146.6360 C   0  0  0  0  0  2  0  0  0  0  0  0
  185.2160  177.1770  145.9610 C   0  0  0  0  0  2  0  0  0  0  0  0
  184.7030  178.5160  145.5660 C   0  0  0  0  0  0  0  0  0  0  0  0
  183.6710  178.9770  146.1260 O   0  0  0  0  0  0  0  0  0  0  0  0
  185.3540  179.2330  144.5620 O   0  0  0  0  0  0  0  0  0  0  0  0
  184.0620  178.2870  142.7800 C   0  0  0  0  0  1  0  0  0  0  0  0
  185.4310  178.7530  143.2290 C   0  0  0  0  0  2  0  0  0  0  0  0
  1 13  1  0  0  0  0
  2 10  1  0  0  0  0
  3  8  1  0  0  0  0
  3 14  1  0  0  0  0
  4 14  1  0  0  0  0
  4 12  2  0  0  0  0
  5  7  1  0  0  0  0
  6  5  2  0  0  0  0
  6 10  1  0  0  0  0
  7 19  1  0  0  0  0
  7 13  2  0  0  0  0
  8 11  2  0  0  0  0
  9  5  1  0  0  0  0
 10  1  2  0  0  0  0
 12  6  1  0  0  0  0
 14  9  2  0  0  0  0
 15 18  2  0  0  0  0
 16  8  1  1  0  0  0
 17 18  1  0  0  0  0
 17 16  1  0  0  0  0
 18 16  1  0  0  0  0
 20 26  1  1  0  0  0
 20 24  1  0  0  0  0
 21 25  1  0  0  0  0
 21 20  1  0  0  0  0
 22 25  2  0  0  0  0
 23 19  1  6  0  0  0
 23 24  1  0  0  0  0
 25 23  1  0  0  0  0
 27 26  1  0  0  0  0
 28 27  1  0  0  0  0
 28 29  2  0  0  0  0
 30 28  1  0  0  0  0
 31 32  1  0  0  0  0
 32 30  1  0  0  0  0
M  END
>  <MODEL>
7

>  <REMARK>
 VINA RESULT:      -6.5      1.986      6.529
  Name = 
  8 active torsions:
  status: ('A' for Active; 'I' for Inactive)
    1  A    between atoms: C_1  and  C_20
    2  A    between atoms: C_5  and  C_10
    3  A    between atoms: C_5  and  O_12
    4  A    between atoms: C_10  and  C_20
    5  A    between atoms: C_11  and  O_12
    6  A    between atoms: C_16  and  N_30
    7  A    between atoms: C_17  and  N_30
    8  A    between atoms: C_18  and  C_24
                            x       y       z     vdW  Elec       q    Type
                         _______ _______ _______ _____ _____    ______ ____

>  <TORSDO>
F 8

$$$$
=
 OpenBabel11042419303D

 32 35  0  0  1  0  0  0  0  0999 V2000
  186.1720  177.4180  147.4530 C   0  0  0  0  0  3  0  0  0  0  0  0
  184.1040  178.6240  147.2400 O   0  0  0  0  0  1  0  0  0  0  0  0
  185.7070  177.7360  141.0580 N   0  0  0  0  0  2  0  0  0  0  0  0
  184.4710  178.4290  143.0380 C   0  0  0  0  0  3  0  0  0  0  0  0
  186.4160  177.2690  144.6590 C   0  0  0  0  0  0  0  0  0  0  0  0
  185.3050  177.9180  145.2500 C   0  0  0  0  0  0  0  0  0  0  0  0
  187.4010  176.6770  145.4890 C   0  0  0  0  0  0  0  0  0  0  0  0
  186.8230  177.2120  140.3290 C   0  0  0  0  0  0  0  0  0  0  0  0
  186.5200  177.2360  143.2990 N   0  0  0  0  0  0  0  0  0  0  0  0
  185.1880  177.9880  146.6460 C   0  0  0  0  0  0  0  0  0  0  0  0
  187.8400  176.7750  140.9300 O   0  0  0  0  0  0  0  0  0  0  0  0
  184.3350  178.4920  144.4230 C   0  0  0  0  0  3  0  0  0  0  0  0
  187.2670  176.7710  146.8780 C   0  0  0  0  0  3  0  0  0  0  0  0
  185.5830  177.7960  142.4830 C   0  0  0  0  0  0  0  0  0  0  0  0
  187.8170  174.9100  138.1880 O   0  0  0  0  0  0  0  0  0  0  0  0
  186.7640  177.1500  138.8360 C   0  0  2  0  0  3  0  0  0  0  0  0
  185.6540  176.4560  138.4310 O   0  0  0  0  0  0  0  0  0  0  0  0
  187.0290  175.8640  138.4120 C   0  0  0  0  0  0  0  0  0  0  0  0
  188.5520  175.9830  144.9850 N   0  0  0  0  0  2  0  0  0  0  0  0
  191.9790  175.8080  145.4180 C   0  0  1  0  0  3  0  0  0  0  0  0
  191.6290  174.5590  144.7650 N   0  0  0  0  0  2  0  0  0  0  0  0
  189.6880  173.2730  144.5330 O   0  0  0  0  0  0  0  0  0  0  0  0
  189.5790  175.3310  145.7860 C   0  0  2  0  0  3  0  0  0  0  0  0
  190.7020  176.3230  146.0950 C   0  0  0  0  0  2  0  0  0  0  0  0
  190.2600  174.3000  144.9810 C   0  0  0  0  0  0  0  0  0  0  0  0
  193.0440  175.5630  146.4710 C   0  0  0  0  0  2  0  0  0  0  0  0
  194.2420  176.4620  146.2250 C   0  0  0  0  0  2  0  0  0  0  0  0
  195.2600  175.7340  145.4220 C   0  0  0  0  0  0  0  0  0  0  0  0
  195.7320  174.6470  145.8540 O   0  0  0  0  0  0  0  0  0  0  0  0
  195.7000  176.2770  144.2150 O   0  0  0  0  0  0  0  0  0  0  0  0
  194.1150  176.0350  142.4360 C   0  0  0  0  0  1  0  0  0  0  0  0
  195.4710  175.6280  142.9740 C   0  0  0  0  0  2  0  0  0  0  0  0
  3 14  1  0  0  0  0
  4 12  2  0  0  0  0
  5  6  2  0  0  0  0
  5  7  1  0  0  0  0
  6 10  1  0  0  0  0
  7 13  2  0  0  0  0
  8 11  2  0  0  0  0
  8  3  1  0  0  0  0
  9  5  1  0  0  0  0
 10  2  1  0  0  0  0
 10  1  2  0  0  0  0
 12  6  1  0  0  0  0
 13  1  1  0  0  0  0
 14  4  1  0  0  0  0
 14  9  2  0  0  0  0
 15 18  2  0  0  0  0
 16  8  1  1  0  0  0
 17 16  1  0  0  0  0
 18 17  1  0  0  0  0
 18 16  1  0  0  0  0
 19  7  1  0  0  0  0
 20 24  1  0  0  0  0
 20 26  1  1  0  0  0
 21 25  1  0  0  0  0
 21 20  1  0  0  0  0
 22 25  2  0  0  0  0
 23 19  1  6  0  0  0
 23 24  1  0  0  0  0
 25 23  1  0  0  0  0
 27 26  1  0  0  0  0
 28 29  2  0  0  0  0
 28 27  1  0  0  0  0
 30 28  1  0  0  0  0
 31 32  1  0  0  0  0
 32 30  1  0  0  0  0
M  END
>  <MODEL>
8

>  <REMARK>
 VINA RESULT:      -6.5      2.358      2.845
  Name = 
  8 active torsions:
  status: ('A' for Active; 'I' for Inactive)
    1  A    between atoms: C_1  and  C_20
    2  A    between atoms: C_5  and  C_10
    3  A    between atoms: C_5  and  O_12
    4  A    between atoms: C_10  and  C_20
    5  A    between atoms: C_11  and  O_12
    6  A    between atoms: C_16  and  N_30
    7  A    between atoms: C_17  and  N_30
    8  A    between atoms: C_18  and  C_24
                            x       y       z     vdW  Elec       q    Type
                         _______ _______ _______ _____ _____    ______ ____

>  <TORSDO>
F 8

$$$$
=
 OpenBabel11042419303D

 32 35  0  0  1  0  0  0  0  0999 V2000
  184.9180  177.9880  142.1040 C   0  0  0  0  0  3  0  0  0  0  0  0
  183.7690  179.0620  143.9220 O   0  0  0  0  0  1  0  0  0  0  0  0
  189.0130  176.7780  146.8980 N   0  0  0  0  0  2  0  0  0  0  0  0
  186.8890  177.9080  146.5220 C   0  0  0  0  0  3  0  0  0  0  0  0
  187.0070  177.2310  143.8230 C   0  0  0  0  0  0  0  0  0  0  0  0
  185.9000  177.9660  144.3150 C   0  0  0  0  0  0  0  0  0  0  0  0
  187.0620  176.8930  142.4480 C   0  0  0  0  0  0  0  0  0  0  0  0
  190.1300  175.9460  146.5630 C   0  0  0  0  0  0  0  0  0  0  0  0
  187.9920  176.8550  144.6880 N   0  0  0  0  0  0  0  0  0  0  0  0
  184.8610  178.3420  143.4520 C   0  0  0  0  0  0  0  0  0  0  0  0
  190.2450  175.4510  145.4100 O   0  0  0  0  0  0  0  0  0  0  0  0
  185.8580  178.3010  145.6720 C   0  0  0  0  0  3  0  0  0  0  0  0
  186.0070  177.2700  141.6100 C   0  0  0  0  0  3  0  0  0  0  0  0
  187.9590  177.1730  146.0120 C   0  0  0  0  0  0  0  0  0  0  0  0
  193.3580  176.6160  146.5900 O   0  0  0  0  0  0  0  0  0  0  0  0
  191.1900  175.6900  147.5870 C   0  0  2  0  0  3  0  0  0  0  0  0
  191.3750  176.8010  148.3690 O   0  0  0  0  0  0  0  0  0  0  0  0
  192.3220  176.4150  147.2750 C   0  0  0  0  0  0  0  0  0  0  0  0
  188.1480  176.1660  141.8520 N   0  0  0  0  0  2  0  0  0  0  0  0
  190.3410  173.5350  141.3710 C   0  0  1  0  0  3  0  0  0  0  0  0
  189.7840  173.7920  140.0550 N   0  0  0  0  0  2  0  0  0  0  0  0
  187.8520  174.8140  139.2200 O   0  0  0  0  0  0  0  0  0  0  0  0
  188.1870  174.7310  141.6070 C   0  0  2  0  0  3  0  0  0  0  0  0
  189.3440  174.1040  142.3890 C   0  0  0  0  0  2  0  0  0  0  0  0
  188.5590  174.4740  140.2040 C   0  0  0  0  0  0  0  0  0  0  0  0
  190.4880  172.0410  141.5920 C   0  0  0  0  0  2  0  0  0  0  0  0
  190.2060  171.6950  143.0420 C   0  0  0  0  0  2  0  0  0  0  0  0
  191.4860  171.5990  143.7940 C   0  0  0  0  0  0  0  0  0  0  0  0
  192.2290  170.5920  143.6330 O   0  0  0  0  0  0  0  0  0  0  0  0
  191.8350  172.6110  144.6880 O   0  0  0  0  0  0  0  0  0  0  0  0
  193.1520  174.3540  143.7050 C   0  0  0  0  0  1  0  0  0  0  0  0
  193.1270  173.2000  144.6850 C   0  0  0  0  0  2  0  0  0  0  0  0
  1 10  1  0  0  0  0
  5  6  1  0  0  0  0
  5  9  1  0  0  0  0
  6 12  1  0  0  0  0
  7  5  2  0  0  0  0
  8  3  1  0  0  0  0
  9 14  2  0  0  0  0
 10  2  1  0  0  0  0
 10  6  2  0  0  0  0
 11  8  2  0  0  0  0
 12  4  2  0  0  0  0
 13  1  2  0  0  0  0
 13  7  1  0  0  0  0
 14  4  1  0  0  0  0
 14  3  1  0  0  0  0
 15 18  2  0  0  0  0
 16  8  1  6  0  0  0
 16 17  1  0  0  0  0
 18 16  1  0  0  0  0
 18 17  1  0  0  0  0
 19  7  1  0  0  0  0
 20 26  1  1  0  0  0
 20 24  1  0  0  0  0
 21 25  1  0  0  0  0
 21 20  1  0  0  0  0
 22 25  2  0  0  0  0
 23 19  1  6  0  0  0
 23 24  1  0  0  0  0
 25 23  1  0  0  0  0
 26 27  1  0  0  0  0
 27 28  1  0  0  0  0
 28 30  1  0  0  0  0
 29 28  2  0  0  0  0
 31 32  1  0  0  0  0
 32 30  1  0  0  0  0
M  END
>  <MODEL>
9

>  <REMARK>
 VINA RESULT:      -6.5      1.943      5.605
  Name = 
  8 active torsions:
  status: ('A' for Active; 'I' for Inactive)
    1  A    between atoms: C_1  and  C_20
    2  A    between atoms: C_5  and  C_10
    3  A    between atoms: C_5  and  O_12
    4  A    between atoms: C_10  and  C_20
    5  A    between atoms: C_11  and  O_12
    6  A    between atoms: C_16  and  N_30
    7  A    between atoms: C_17  and  N_30
    8  A    between atoms: C_18  and  C_24
                            x       y       z     vdW  Elec       q    Type
                         _______ _______ _______ _____ _____    ______ ____

>  <TORSDO>
F 8

$$$$
