=
 OpenBabel11042418343D

 37 40  0  0  0  0  0  0  0  0999 V2000
  190.1810  173.3260  142.7300 C   0  0  0  0  0  0  0  0  0  0  0  0
  189.6710  174.2450  141.7820 C   0  0  0  0  0  3  0  0  0  0  0  0
  188.8900  175.6510  143.5590 C   0  0  0  0  0  0  0  0  0  0  0  0
  188.5310  176.5280  145.5090 C   0  0  0  0  0  0  0  0  0  0  0  0
  188.3350  176.7110  144.1830 N   0  0  0  0  0  0  0  0  0  0  0  0
  190.0550  173.6020  144.1070 C   0  0  0  0  0  3  0  0  0  0  0  0
  189.4060  174.7750  144.4840 C   0  0  0  0  0  0  0  0  0  0  0  0
  189.0230  175.4240  142.1900 C   0  0  0  0  0  3  0  0  0  0  0  0
  189.1870  175.3210  145.7340 C   0  0  0  0  0  0  0  0  0  0  0  0
  188.0970  177.4900  146.5620 C   0  0  0  0  0  1  0  0  0  0  0  0
  190.1640  171.1130  141.8710 O   0  0  0  0  0  0  0  0  0  0  0  0
  190.8500  172.0910  142.2730 C   0  0  0  0  0  0  0  0  0  0  0  0
  192.3390  171.9620  142.3040 C   0  0  0  0  0  2  0  0  0  0  0  0
  192.6690  170.9210  144.4210 O   0  0  0  0  0  1  0  0  0  0  0  0
  193.1690  169.6280  142.5950 O   0  0  0  0  0  0  0  0  0  0  0  0
  192.7430  170.8180  143.1690 C   0  0  0  0  0  0  0  0  0  0  0  0
  189.5540  174.7260  147.0520 C   0  0  0  0  0  2  0  0  0  0  0  0
  190.6780  175.5270  147.6830 C   0  0  0  0  0  2  0  0  0  0  0  0
  191.9270  174.8820  147.4560 O   0  0  0  0  0  0  0  0  0  0  0  0
  192.7270  175.1160  146.3300 C   0  0  0  0  0  0  0  0  0  0  0  0
  192.9180  176.1290  143.4320 C   0  0  0  0  0  3  0  0  0  0  0  0
  192.3990  176.7470  144.4930 C   0  0  0  0  0  3  0  0  0  0  0  0
  192.8970  176.5310  145.8830 C   0  0  0  0  0  2  0  0  0  0  0  0
  193.3590  174.1090  145.7110 C   0  0  0  0  0  3  0  0  0  0  0  0
  194.1600  174.2180  144.4760 C   0  0  0  0  0  3  0  0  0  0  0  0
  193.9670  175.0940  143.4830 C   0  0  0  0  0  3  0  0  0  0  0  0
  187.7920  177.8680  143.5950 N   0  0  0  0  0  2  0  0  0  0  0  0
  186.3270  177.8600  141.6440 C   0  0  0  0  0  3  0  0  0  0  0  0
  185.0590  177.9660  141.0670 C   0  0  0  0  0  3  0  0  0  0  0  0
  185.3520  178.1550  143.8380 C   0  0  0  0  0  3  0  0  0  0  0  0
  183.9270  178.1610  141.8700 C   0  0  0  0  0  0  0  0  0  0  0  0
  184.0840  178.2600  143.2610 C   0  0  0  0  0  3  0  0  0  0  0  0
  186.4780  177.9380  143.0320 C   0  0  0  0  0  0  0  0  0  0  0  0
  181.5180  178.8750  141.9860 N   0  0  0  0  0  2  0  0  0  0  0  0
  182.5900  178.2700  141.2610 C   0  0  0  0  0  0  0  0  0  0  0  0
  182.3880  177.8290  140.0960 O   0  0  0  0  0  0  0  0  0  0  0  0
  180.2390  178.9870  141.4270 N   0  0  0  0  0  1  0  0  0  0  0  0
  1  6  1  0  0  0  0
  2  8  1  0  0  0  0
  2  1  2  0  0  0  0
  3  5  1  0  0  0  0
  3  7  1  0  0  0  0
  4  9  2  0  0  0  0
  4 10  1  0  0  0  0
  5  4  1  0  0  0  0
  6  7  2  0  0  0  0
  7  9  1  0  0  0  0
  8  3  2  0  0  0  0
  9 17  1  0  0  0  0
 11 12  2  0  0  0  0
 12 13  1  0  0  0  0
 12  1  1  0  0  0  0
 13 16  1  0  0  0  0
 15 16  2  0  0  0  0
 16 14  1  0  0  0  0
 17 18  1  0  0  0  0
 19 18  1  0  0  0  0
 20 19  1  0  0  0  0
 21 26  1  0  0  0  0
 21 22  2  0  0  0  0
 22 23  1  0  0  0  0
 23 20  1  0  0  0  0
 24 20  2  0  0  0  0
 25 24  1  0  0  0  0
 26 25  2  0  0  0  0
 27  5  1  0  0  0  0
 28 33  1  0  0  0  0
 29 28  2  0  0  0  0
 29 31  1  0  0  0  0
 31 32  2  0  0  0  0
 32 30  1  0  0  0  0
 33 27  1  0  0  0  0
 33 30  2  0  0  0  0
 35 31  1  0  0  0  0
 35 34  1  0  0  0  0
 36 35  2  0  0  0  0
 37 34  1  0  0  0  0
M  END
>  <MODEL>
1

>  <REMARK>
 VINA RESULT:      -7.1      0.000      0.000
  Name = 
  10 active torsions:
  status: ('A' for Active; 'I' for Inactive)
    1  A    between atoms: C_5  and  C_37
    2  A    between atoms: C_10  and  C_22
    3  A    between atoms: C_10  and  C_33
    4  A    between atoms: C_12  and  O_35
    5  A    between atoms: C_14  and  C_21
    6  A    between atoms: N_16  and  N_34
    7  A    between atoms: C_22  and  O_35
    8  A    between atoms: C_29  and  C_31
    9  A    between atoms: C_29  and  C_37
   10  A    between atoms: C_32  and  N_34
                            x       y       z     vdW  Elec       q    Type
                         _______ _______ _______ _____ _____    ______ ____

>  <TORSDO>
F 10

$$$$
=
 OpenBabel11042418343D

 37 40  0  0  0  0  0  0  0  0999 V2000
  189.4770  174.8570  142.3740 C   0  0  0  0  0  0  0  0  0  0  0  0
  190.8610  174.9720  142.0960 C   0  0  0  0  0  3  0  0  0  0  0  0
  191.2950  175.4080  144.4120 C   0  0  0  0  0  0  0  0  0  0  0  0
  191.0880  175.6270  146.5590 C   0  0  0  0  0  0  0  0  0  0  0  0
  191.9850  175.6470  145.5470 N   0  0  0  0  0  0  0  0  0  0  0  0
  189.0180  175.0000  143.7000 C   0  0  0  0  0  3  0  0  0  0  0  0
  189.9570  175.2720  144.6930 C   0  0  0  0  0  0  0  0  0  0  0  0
  191.7870  175.2440  143.1180 C   0  0  0  0  0  3  0  0  0  0  0  0
  189.8080  175.4060  146.0600 C   0  0  0  0  0  0  0  0  0  0  0  0
  191.4380  175.8170  147.9960 C   0  0  0  0  0  1  0  0  0  0  0  0
  188.0240  175.5310  140.6220 O   0  0  0  0  0  0  0  0  0  0  0  0
  188.5250  174.5790  141.2800 C   0  0  0  0  0  0  0  0  0  0  0  0
  188.1160  173.1800  140.9480 C   0  0  0  0  0  2  0  0  0  0  0  0
  188.1490  172.6860  138.6170 O   0  0  0  0  0  0  0  0  0  0  0  0
  190.1340  172.3790  139.7210 O   0  0  0  0  0  1  0  0  0  0  0  0
  188.7890  172.7260  139.6990 C   0  0  0  0  0  0  0  0  0  0  0  0
  188.5340  175.3550  146.8350 C   0  0  0  0  0  2  0  0  0  0  0  0
  187.9380  176.7470  146.9380 C   0  0  0  0  0  2  0  0  0  0  0  0
  186.5900  176.7390  146.4780 O   0  0  0  0  0  0  0  0  0  0  0  0
  186.1770  177.3260  145.2750 C   0  0  0  0  0  0  0  0  0  0  0  0
  183.9850  178.8210  143.7200 C   0  0  0  0  0  3  0  0  0  0  0  0
  184.5140  179.1260  144.9050 C   0  0  0  0  0  3  0  0  0  0  0  0
  185.9220  178.7980  145.2740 C   0  0  0  0  0  2  0  0  0  0  0  0
  186.0690  176.5990  144.1540 C   0  0  0  0  0  3  0  0  0  0  0  0
  185.5710  177.0830  142.8520 C   0  0  0  0  0  3  0  0  0  0  0  0
  184.6620  178.0480  142.6620 C   0  0  0  0  0  3  0  0  0  0  0  0
  193.3800  175.7460  145.7010 N   0  0  0  0  0  2  0  0  0  0  0  0
  193.7390  173.3360  145.5770 C   0  0  0  0  0  3  0  0  0  0  0  0
  194.5850  172.2230  145.5880 C   0  0  0  0  0  3  0  0  0  0  0  0
  195.6540  174.7940  145.8140 C   0  0  0  0  0  3  0  0  0  0  0  0
  195.9720  172.3870  145.7070 C   0  0  0  0  0  0  0  0  0  0  0  0
  196.5000  173.6820  145.8240 C   0  0  0  0  0  3  0  0  0  0  0  0
  194.2700  174.6250  145.6740 C   0  0  0  0  0  0  0  0  0  0  0  0
  196.6150  170.1310  146.6140 N   0  0  0  0  0  2  0  0  0  0  0  0
  196.8630  171.2140  145.7160 C   0  0  0  0  0  0  0  0  0  0  0  0
  197.8490  171.1630  144.9300 O   0  0  0  0  0  0  0  0  0  0  0  0
  197.4500  169.0080  146.6400 N   0  0  0  0  0  1  0  0  0  0  0  0
  1  6  1  0  0  0  0
  2  1  2  0  0  0  0
  2  8  1  0  0  0  0
  3  7  1  0  0  0  0
  3  5  1  0  0  0  0
  4 10  1  0  0  0  0
  5 27  1  0  0  0  0
  5  4  1  0  0  0  0
  6  7  2  0  0  0  0
  7  9  1  0  0  0  0
  8  3  2  0  0  0  0
  9  4  2  0  0  0  0
  9 17  1  0  0  0  0
 11 12  2  0  0  0  0
 12  1  1  0  0  0  0
 13 12  1  0  0  0  0
 14 16  2  0  0  0  0
 16 15  1  0  0  0  0
 16 13  1  0  0  0  0
 17 18  1  0  0  0  0
 19 18  1  0  0  0  0
 20 19  1  0  0  0  0
 21 22  2  0  0  0  0
 22 23  1  0  0  0  0
 23 20  1  0  0  0  0
 24 20  2  0  0  0  0
 25 24  1  0  0  0  0
 26 25  2  0  0  0  0
 26 21  1  0  0  0  0
 28 29  2  0  0  0  0
 28 33  1  0  0  0  0
 29 31  1  0  0  0  0
 30 32  1  0  0  0  0
 31 35  1  0  0  0  0
 31 32  2  0  0  0  0
 33 27  1  0  0  0  0
 33 30  2  0  0  0  0
 34 37  1  0  0  0  0
 35 34  1  0  0  0  0
 36 35  2  0  0  0  0
M  END
>  <MODEL>
2

>  <REMARK>
 VINA RESULT:      -6.9      3.863      8.947
  Name = 
  10 active torsions:
  status: ('A' for Active; 'I' for Inactive)
    1  A    between atoms: C_5  and  C_37
    2  A    between atoms: C_10  and  C_22
    3  A    between atoms: C_10  and  C_33
    4  A    between atoms: C_12  and  O_35
    5  A    between atoms: C_14  and  C_21
    6  A    between atoms: N_16  and  N_34
    7  A    between atoms: C_22  and  O_35
    8  A    between atoms: C_29  and  C_31
    9  A    between atoms: C_29  and  C_37
   10  A    between atoms: C_32  and  N_34
                            x       y       z     vdW  Elec       q    Type
                         _______ _______ _______ _____ _____    ______ ____

>  <TORSDO>
F 10

$$$$
=
 OpenBabel11042418343D

 37 40  0  0  0  0  0  0  0  0999 V2000
  191.6070  172.2260  144.3170 C   0  0  0  0  0  0  0  0  0  0  0  0
  190.2170  172.1900  144.5850 C   0  0  0  0  0  3  0  0  0  0  0  0
  190.4430  174.0830  146.0370 C   0  0  0  0  0  0  0  0  0  0  0  0
  191.2200  175.8090  147.0940 C   0  0  0  0  0  0  0  0  0  0  0  0
  190.0980  175.0890  146.8690 N   0  0  0  0  0  0  0  0  0  0  0  0
  192.4060  173.2270  144.9090 C   0  0  0  0  0  3  0  0  0  0  0  0
  191.7880  174.1390  145.7610 C   0  0  0  0  0  0  0  0  0  0  0  0
  189.6190  173.1260  145.4460 C   0  0  0  0  0  3  0  0  0  0  0  0
  192.2990  175.2370  146.4260 C   0  0  0  0  0  0  0  0  0  0  0  0
  191.2740  177.0350  147.9410 C   0  0  0  0  0  1  0  0  0  0  0  0
  191.5060  170.6650  142.5320 O   0  0  0  0  0  0  0  0  0  0  0  0
  192.2110  171.2250  143.4150 C   0  0  0  0  0  0  0  0  0  0  0  0
  193.6490  170.8350  143.5430 C   0  0  0  0  0  2  0  0  0  0  0  0
  192.8810  168.9520  144.7830 O   0  0  0  0  0  0  0  0  0  0  0  0
  194.9950  169.6760  145.2930 O   0  0  0  0  0  1  0  0  0  0  0  0
  193.8080  169.7760  144.5780 C   0  0  0  0  0  0  0  0  0  0  0  0
  193.7180  175.6960  146.4470 C   0  0  0  0  0  2  0  0  0  0  0  0
  193.8910  176.8770  145.5090 C   0  0  0  0  0  2  0  0  0  0  0  0
  194.3960  176.4360  144.2530 O   0  0  0  0  0  0  0  0  0  0  0  0
  193.5790  176.0410  143.1850 C   0  0  0  0  0  0  0  0  0  0  0  0
  190.8170  175.0850  142.2290 C   0  0  0  0  0  3  0  0  0  0  0  0
  191.1110  176.1430  142.9850 C   0  0  0  0  0  3  0  0  0  0  0  0
  192.3950  176.8940  142.8660 C   0  0  0  0  0  2  0  0  0  0  0  0
  193.8840  174.9670  142.4440 C   0  0  0  0  0  3  0  0  0  0  0  0
  193.0660  174.4080  141.3510 C   0  0  0  0  0  3  0  0  0  0  0  0
  191.7310  174.4560  141.2580 C   0  0  0  0  0  3  0  0  0  0  0  0
  188.8080  175.4370  147.3070 N   0  0  0  0  0  2  0  0  0  0  0  0
  186.6090  176.4660  147.0540 C   0  0  0  0  0  3  0  0  0  0  0  0
  185.6360  177.0940  146.2730 C   0  0  0  0  0  3  0  0  0  0  0  0
  188.0850  176.3730  145.1410 C   0  0  0  0  0  3  0  0  0  0  0  0
  185.8810  177.3720  144.9210 C   0  0  0  0  0  0  0  0  0  0  0  0
  187.1120  177.0020  144.3590 C   0  0  0  0  0  3  0  0  0  0  0  0
  187.8430  176.1170  146.4970 C   0  0  0  0  0  0  0  0  0  0  0  0
  184.6820  177.6660  142.7300 N   0  0  0  0  0  2  0  0  0  0  0  0
  184.8550  178.0360  144.0990 C   0  0  0  0  0  0  0  0  0  0  0  0
  184.1260  178.9350  144.6010 O   0  0  0  0  0  0  0  0  0  0  0  0
  183.7140  178.2860  141.9300 N   0  0  0  0  0  1  0  0  0  0  0  0
  1  2  2  0  0  0  0
  1  6  1  0  0  0  0
  2  8  1  0  0  0  0
  3  5  1  0  0  0  0
  4 10  1  0  0  0  0
  5  4  1  0  0  0  0
  5 27  1  0  0  0  0
  6  7  2  0  0  0  0
  7  3  1  0  0  0  0
  7  9  1  0  0  0  0
  8  3  2  0  0  0  0
  9 17  1  0  0  0  0
  9  4  2  0  0  0  0
 11 12  2  0  0  0  0
 12 13  1  0  0  0  0
 12  1  1  0  0  0  0
 13 16  1  0  0  0  0
 16 14  2  0  0  0  0
 16 15  1  0  0  0  0
 18 17  1  0  0  0  0
 19 18  1  0  0  0  0
 20 19  1  0  0  0  0
 21 22  2  0  0  0  0
 23 22  1  0  0  0  0
 23 20  1  0  0  0  0
 24 20  2  0  0  0  0
 25 24  1  0  0  0  0
 26 25  2  0  0  0  0
 26 21  1  0  0  0  0
 29 28  2  0  0  0  0
 30 33  2  0  0  0  0
 31 29  1  0  0  0  0
 32 31  2  0  0  0  0
 32 30  1  0  0  0  0
 33 28  1  0  0  0  0
 33 27  1  0  0  0  0
 34 35  1  0  0  0  0
 35 36  2  0  0  0  0
 35 31  1  0  0  0  0
 37 34  1  0  0  0  0
M  END
>  <MODEL>
3

>  <REMARK>
 VINA RESULT:      -6.9      2.207      3.497
  Name = 
  10 active torsions:
  status: ('A' for Active; 'I' for Inactive)
    1  A    between atoms: C_5  and  C_37
    2  A    between atoms: C_10  and  C_22
    3  A    between atoms: C_10  and  C_33
    4  A    between atoms: C_12  and  O_35
    5  A    between atoms: C_14  and  C_21
    6  A    between atoms: N_16  and  N_34
    7  A    between atoms: C_22  and  O_35
    8  A    between atoms: C_29  and  C_31
    9  A    between atoms: C_29  and  C_37
   10  A    between atoms: C_32  and  N_34
                            x       y       z     vdW  Elec       q    Type
                         _______ _______ _______ _____ _____    ______ ____

>  <TORSDO>
F 10

$$$$
=
 OpenBabel11042418343D

 37 40  0  0  0  0  0  0  0  0999 V2000
  189.7270  175.0740  142.2670 C   0  0  0  0  0  0  0  0  0  0  0  0
  190.8570  174.3980  141.7480 C   0  0  0  0  0  3  0  0  0  0  0  0
  192.1710  175.1620  143.6020 C   0  0  0  0  0  0  0  0  0  0  0  0
  192.7940  176.0240  145.4910 C   0  0  0  0  0  0  0  0  0  0  0  0
  193.2300  175.3170  144.4240 N   0  0  0  0  0  0  0  0  0  0  0  0
  189.8340  175.7790  143.4850 C   0  0  0  0  0  3  0  0  0  0  0  0
  191.0710  175.7980  144.1240 C   0  0  0  0  0  0  0  0  0  0  0  0
  192.0930  174.4310  142.4170 C   0  0  0  0  0  3  0  0  0  0  0  0
  191.4510  176.3520  145.3310 C   0  0  0  0  0  0  0  0  0  0  0  0
  193.6450  176.3910  146.6590 C   0  0  0  0  0  1  0  0  0  0  0  0
  188.2800  174.2120  140.5940 O   0  0  0  0  0  0  0  0  0  0  0  0
  188.4420  175.0290  141.5400 C   0  0  0  0  0  0  0  0  0  0  0  0
  187.3250  175.9610  141.8860 C   0  0  0  0  0  2  0  0  0  0  0  0
  188.1280  178.1780  141.5450 O   0  0  0  0  0  1  0  0  0  0  0  0
  186.8180  177.3310  139.8640 O   0  0  0  0  0  0  0  0  0  0  0  0
  187.4400  177.2220  141.1010 C   0  0  0  0  0  0  0  0  0  0  0  0
  190.6030  177.1590  146.2570 C   0  0  0  0  0  2  0  0  0  0  0  0
  189.3200  176.4090  146.5650 C   0  0  0  0  0  2  0  0  0  0  0  0
  188.3740  177.2830  147.1710 O   0  0  0  0  0  0  0  0  0  0  0  0
  187.0840  177.5000  146.6680 C   0  0  0  0  0  0  0  0  0  0  0  0
  185.2480  179.1250  144.8110 C   0  0  0  0  0  3  0  0  0  0  0  0
  186.3980  178.5190  144.5160 C   0  0  0  0  0  3  0  0  0  0  0  0
  186.8660  177.2820  145.2070 C   0  0  0  0  0  2  0  0  0  0  0  0
  186.0740  177.8370  147.4820 C   0  0  0  0  0  3  0  0  0  0  0  0
  184.6970  178.1670  147.0620 C   0  0  0  0  0  3  0  0  0  0  0  0
  184.3380  178.7300  145.9020 C   0  0  0  0  0  3  0  0  0  0  0  0
  194.5070  174.7390  144.3000 N   0  0  0  0  0  2  0  0  0  0  0  0
  193.8790  172.4370  144.8100 C   0  0  0  0  0  3  0  0  0  0  0  0
  194.1780  171.1750  145.3290 C   0  0  0  0  0  3  0  0  0  0  0  0
  196.1170  173.1850  145.3420 C   0  0  0  0  0  3  0  0  0  0  0  0
  195.4500  170.9060  145.8540 C   0  0  0  0  0  0  0  0  0  0  0  0
  196.4160  171.9220  145.8600 C   0  0  0  0  0  3  0  0  0  0  0  0
  194.8500  173.4420  144.8000 C   0  0  0  0  0  0  0  0  0  0  0  0
  196.7990  169.4230  147.3720 N   0  0  0  0  0  2  0  0  0  0  0  0
  195.7650  169.5740  146.3990 C   0  0  0  0  0  0  0  0  0  0  0  0
  195.1210  168.5610  146.0060 O   0  0  0  0  0  0  0  0  0  0  0  0
  197.1160  168.1660  147.9020 N   0  0  0  0  0  1  0  0  0  0  0  0
  1  6  1  0  0  0  0
  2  1  2  0  0  0  0
  2  8  1  0  0  0  0
  3  7  1  0  0  0  0
  3  5  1  0  0  0  0
  4 10  1  0  0  0  0
  5  4  1  0  0  0  0
  6  7  2  0  0  0  0
  7  9  1  0  0  0  0
  8  3  2  0  0  0  0
  9  4  2  0  0  0  0
  9 17  1  0  0  0  0
 11 12  2  0  0  0  0
 12 13  1  0  0  0  0
 12  1  1  0  0  0  0
 15 16  2  0  0  0  0
 16 14  1  0  0  0  0
 16 13  1  0  0  0  0
 17 18  1  0  0  0  0
 18 19  1  0  0  0  0
 20 19  1  0  0  0  0
 20 24  2  0  0  0  0
 21 26  1  0  0  0  0
 22 21  2  0  0  0  0
 22 23  1  0  0  0  0
 23 20  1  0  0  0  0
 25 24  1  0  0  0  0
 26 25  2  0  0  0  0
 27  5  1  0  0  0  0
 27 33  1  0  0  0  0
 28 29  1  0  0  0  0
 29 31  2  0  0  0  0
 30 32  2  0  0  0  0
 31 32  1  0  0  0  0
 31 35  1  0  0  0  0
 33 28  2  0  0  0  0
 33 30  1  0  0  0  0
 34 37  1  0  0  0  0
 35 34  1  0  0  0  0
 36 35  2  0  0  0  0
M  END
>  <MODEL>
4

>  <REMARK>
 VINA RESULT:      -6.7      4.019      9.371
  Name = 
  10 active torsions:
  status: ('A' for Active; 'I' for Inactive)
    1  A    between atoms: C_5  and  C_37
    2  A    between atoms: C_10  and  C_22
    3  A    between atoms: C_10  and  C_33
    4  A    between atoms: C_12  and  O_35
    5  A    between atoms: C_14  and  C_21
    6  A    between atoms: N_16  and  N_34
    7  A    between atoms: C_22  and  O_35
    8  A    between atoms: C_29  and  C_31
    9  A    between atoms: C_29  and  C_37
   10  A    between atoms: C_32  and  N_34
                            x       y       z     vdW  Elec       q    Type
                         _______ _______ _______ _____ _____    ______ ____

>  <TORSDO>
F 10

$$$$
=
 OpenBabel11042418343D

 37 40  0  0  0  0  0  0  0  0999 V2000
  195.4570  175.3170  144.4620 C   0  0  0  0  0  0  0  0  0  0  0  0
  194.8850  176.4580  145.0740 C   0  0  0  0  0  3  0  0  0  0  0  0
  192.7810  175.3210  145.2360 C   0  0  0  0  0  0  0  0  0  0  0  0
  191.2320  173.8050  145.2130 C   0  0  0  0  0  0  0  0  0  0  0  0
  191.4890  175.0890  145.5510 N   0  0  0  0  0  0  0  0  0  0  0  0
  194.6700  174.1630  144.2630 C   0  0  0  0  0  3  0  0  0  0  0  0
  193.3370  174.2020  144.6660 C   0  0  0  0  0  0  0  0  0  0  0  0
  193.5380  176.4680  145.4750 C   0  0  0  0  0  3  0  0  0  0  0  0
  192.3620  173.2230  144.6460 C   0  0  0  0  0  0  0  0  0  0  0  0
  189.9200  173.1280  145.4240 C   0  0  0  0  0  1  0  0  0  0  0  0
  197.6990  174.5450  144.5750 O   0  0  0  0  0  0  0  0  0  0  0  0
  196.8740  175.3360  144.0440 C   0  0  0  0  0  0  0  0  0  0  0  0
  197.3620  176.3000  143.0120 C   0  0  0  0  0  2  0  0  0  0  0  0
  195.7940  176.9330  141.3340 O   0  0  0  0  0  1  0  0  0  0  0  0
  196.9330  174.9840  140.9380 O   0  0  0  0  0  0  0  0  0  0  0  0
  196.6420  176.0910  141.7240 C   0  0  0  0  0  0  0  0  0  0  0  0
  192.4880  171.8400  144.1020 C   0  0  0  0  0  2  0  0  0  0  0  0
  192.5500  171.8870  142.5860 C   0  0  0  0  0  2  0  0  0  0  0  0
  191.3000  171.4900  142.0310 O   0  0  0  0  0  0  0  0  0  0  0  0
  190.2560  172.3830  141.7560 C   0  0  0  0  0  0  0  0  0  0  0  0
  188.9650  175.1260  142.2750 C   0  0  0  0  0  3  0  0  0  0  0  0
  190.2250  174.8540  141.9360 C   0  0  0  0  0  3  0  0  0  0  0  0
  190.6060  173.6780  141.1000 C   0  0  0  0  0  2  0  0  0  0  0  0
  188.9830  172.0580  142.0240 C   0  0  0  0  0  3  0  0  0  0  0  0
  187.8110  172.9390  141.8540 C   0  0  0  0  0  3  0  0  0  0  0  0
  187.8010  174.2730  141.9660 C   0  0  0  0  0  3  0  0  0  0  0  0
  190.6040  175.9400  146.2370 N   0  0  0  0  0  2  0  0  0  0  0  0
  189.5800  177.5250  144.6900 C   0  0  0  0  0  3  0  0  0  0  0  0
  188.4530  178.1340  144.1310 C   0  0  0  0  0  3  0  0  0  0  0  0
  188.1500  176.1480  146.0710 C   0  0  0  0  0  3  0  0  0  0  0  0
  187.1660  177.7510  144.5340 C   0  0  0  0  0  0  0  0  0  0  0  0
  187.0230  176.7560  145.5120 C   0  0  0  0  0  3  0  0  0  0  0  0
  189.4340  176.5200  145.6500 C   0  0  0  0  0  0  0  0  0  0  0  0
  185.0540  177.6200  143.1740 N   0  0  0  0  0  2  0  0  0  0  0  0
  185.9790  178.3920  143.9420 C   0  0  0  0  0  0  0  0  0  0  0  0
  185.7750  179.6260  144.1120 O   0  0  0  0  0  0  0  0  0  0  0  0
  183.9200  178.2090  142.6020 N   0  0  0  0  0  1  0  0  0  0  0  0
  1  2  1  0  0  0  0
  2  8  2  0  0  0  0
  3  8  1  0  0  0  0
  3  5  1  0  0  0  0
  4 10  1  0  0  0  0
  4  5  1  0  0  0  0
  5 27  1  0  0  0  0
  6  1  2  0  0  0  0
  6  7  1  0  0  0  0
  7  3  2  0  0  0  0
  9  7  1  0  0  0  0
  9  4  2  0  0  0  0
 12  1  1  0  0  0  0
 12 11  2  0  0  0  0
 13 12  1  0  0  0  0
 14 16  1  0  0  0  0
 15 16  2  0  0  0  0
 16 13  1  0  0  0  0
 17  9  1  0  0  0  0
 18 17  1  0  0  0  0
 19 18  1  0  0  0  0
 20 24  2  0  0  0  0
 20 19  1  0  0  0  0
 22 21  2  0  0  0  0
 23 20  1  0  0  0  0
 23 22  1  0  0  0  0
 25 26  2  0  0  0  0
 25 24  1  0  0  0  0
 26 21  1  0  0  0  0
 28 33  1  0  0  0  0
 29 31  1  0  0  0  0
 29 28  2  0  0  0  0
 31 32  2  0  0  0  0
 32 30  1  0  0  0  0
 33 30  2  0  0  0  0
 33 27  1  0  0  0  0
 34 35  1  0  0  0  0
 35 36  2  0  0  0  0
 35 31  1  0  0  0  0
 37 34  1  0  0  0  0
M  END
>  <MODEL>
5

>  <REMARK>
 VINA RESULT:      -6.7      2.813      5.450
  Name = 
  10 active torsions:
  status: ('A' for Active; 'I' for Inactive)
    1  A    between atoms: C_5  and  C_37
    2  A    between atoms: C_10  and  C_22
    3  A    between atoms: C_10  and  C_33
    4  A    between atoms: C_12  and  O_35
    5  A    between atoms: C_14  and  C_21
    6  A    between atoms: N_16  and  N_34
    7  A    between atoms: C_22  and  O_35
    8  A    between atoms: C_29  and  C_31
    9  A    between atoms: C_29  and  C_37
   10  A    between atoms: C_32  and  N_34
                            x       y       z     vdW  Elec       q    Type
                         _______ _______ _______ _____ _____    ______ ____

>  <TORSDO>
F 10

$$$$
=
 OpenBabel11042418343D

 37 40  0  0  0  0  0  0  0  0999 V2000
  186.7530  177.4580  146.0210 C   0  0  0  0  0  0  0  0  0  0  0  0
  187.6330  177.2000  147.1000 C   0  0  0  0  0  3  0  0  0  0  0  0
  189.4890  177.1690  145.5840 C   0  0  0  0  0  0  0  0  0  0  0  0
  190.7330  177.3630  143.8190 C   0  0  0  0  0  0  0  0  0  0  0  0
  190.7630  177.0960  145.1450 N   0  0  0  0  0  0  0  0  0  0  0  0
  187.2700  177.5930  144.7160 C   0  0  0  0  0  3  0  0  0  0  0  0
  188.6430  177.4450  144.5370 C   0  0  0  0  0  0  0  0  0  0  0  0
  189.0160  177.0580  146.8910 C   0  0  0  0  0  3  0  0  0  0  0  0
  189.4220  177.5750  143.4030 C   0  0  0  0  0  0  0  0  0  0  0  0
  191.9410  177.4170  142.9460 C   0  0  0  0  0  1  0  0  0  0  0  0
  184.6210  176.5850  146.5960 O   0  0  0  0  0  0  0  0  0  0  0  0
  185.3030  177.5940  146.2680 C   0  0  0  0  0  0  0  0  0  0  0  0
  184.6120  178.9100  146.1110 C   0  0  0  0  0  2  0  0  0  0  0  0
  183.8840  178.6070  143.8630 O   0  0  0  0  0  0  0  0  0  0  0  0
  185.2130  180.4380  144.2330 O   0  0  0  0  0  1  0  0  0  0  0  0
  184.5540  179.2970  144.6730 C   0  0  0  0  0  0  0  0  0  0  0  0
  188.9500  177.8550  142.0150 C   0  0  0  0  0  2  0  0  0  0  0  0
  187.7870  176.9410  141.6740 C   0  0  0  0  0  2  0  0  0  0  0  0
  188.2110  175.9220  140.7740 O   0  0  0  0  0  0  0  0  0  0  0  0
  188.5750  174.6320  141.1800 C   0  0  0  0  0  0  0  0  0  0  0  0
  190.1720  172.8650  143.1270 C   0  0  0  0  0  3  0  0  0  0  0  0
  189.3190  173.8490  143.4110 C   0  0  0  0  0  3  0  0  0  0  0  0
  188.1530  174.1900  142.5430 C   0  0  0  0  0  2  0  0  0  0  0  0
  189.2330  173.8080  140.3520 C   0  0  0  0  0  3  0  0  0  0  0  0
  189.7390  172.4630  140.6900 C   0  0  0  0  0  3  0  0  0  0  0  0
  190.1500  172.0530  141.8960 C   0  0  0  0  0  3  0  0  0  0  0  0
  191.9300  176.9320  145.9130 N   0  0  0  0  0  2  0  0  0  0  0  0
  192.3630  174.5600  145.5380 C   0  0  0  0  0  3  0  0  0  0  0  0
  193.2450  173.4840  145.4090 C   0  0  0  0  0  3  0  0  0  0  0  0
  194.2370  176.0570  145.8500 C   0  0  0  0  0  3  0  0  0  0  0  0
  194.6300  173.6860  145.4940 C   0  0  0  0  0  0  0  0  0  0  0  0
  195.1200  174.9810  145.7200 C   0  0  0  0  0  3  0  0  0  0  0  0
  192.8550  175.8530  145.7430 C   0  0  0  0  0  0  0  0  0  0  0  0
  195.2930  171.5180  144.4050 N   0  0  0  0  0  2  0  0  0  0  0  0
  195.5590  172.5520  145.3550 C   0  0  0  0  0  0  0  0  0  0  0  0
  196.5930  172.4890  146.0760 O   0  0  0  0  0  0  0  0  0  0  0  0
  196.1620  170.4300  144.2580 N   0  0  0  0  0  1  0  0  0  0  0  0
  1 12  1  0  0  0  0
  1  2  1  0  0  0  0
  3  8  1  0  0  0  0
  4  5  1  0  0  0  0
  5  3  1  0  0  0  0
  5 27  1  0  0  0  0
  6  1  2  0  0  0  0
  7  6  1  0  0  0  0
  7  3  2  0  0  0  0
  8  2  2  0  0  0  0
  9  4  2  0  0  0  0
  9  7  1  0  0  0  0
 10  4  1  0  0  0  0
 12 11  2  0  0  0  0
 13 12  1  0  0  0  0
 14 16  2  0  0  0  0
 15 16  1  0  0  0  0
 16 13  1  0  0  0  0
 17  9  1  0  0  0  0
 18 17  1  0  0  0  0
 19 20  1  0  0  0  0
 19 18  1  0  0  0  0
 20 23  1  0  0  0  0
 21 22  2  0  0  0  0
 23 22  1  0  0  0  0
 24 25  1  0  0  0  0
 24 20  2  0  0  0  0
 25 26  2  0  0  0  0
 26 21  1  0  0  0  0
 28 33  1  0  0  0  0
 29 31  1  0  0  0  0
 29 28  2  0  0  0  0
 31 32  2  0  0  0  0
 32 30  1  0  0  0  0
 33 30  2  0  0  0  0
 33 27  1  0  0  0  0
 34 35  1  0  0  0  0
 35 31  1  0  0  0  0
 35 36  2  0  0  0  0
 37 34  1  0  0  0  0
M  END
>  <MODEL>
6

>  <REMARK>
 VINA RESULT:      -6.6      3.595      9.002
  Name = 
  10 active torsions:
  status: ('A' for Active; 'I' for Inactive)
    1  A    between atoms: C_5  and  C_37
    2  A    between atoms: C_10  and  C_22
    3  A    between atoms: C_10  and  C_33
    4  A    between atoms: C_12  and  O_35
    5  A    between atoms: C_14  and  C_21
    6  A    between atoms: N_16  and  N_34
    7  A    between atoms: C_22  and  O_35
    8  A    between atoms: C_29  and  C_31
    9  A    between atoms: C_29  and  C_37
   10  A    between atoms: C_32  and  N_34
                            x       y       z     vdW  Elec       q    Type
                         _______ _______ _______ _____ _____    ______ ____

>  <TORSDO>
F 10

$$$$
=
 OpenBabel11042418343D

 37 40  0  0  0  0  0  0  0  0999 V2000
  186.2380  177.9840  143.9840 C   0  0  0  0  0  0  0  0  0  0  0  0
  185.7560  177.0040  143.0810 C   0  0  0  0  0  3  0  0  0  0  0  0
  187.9050  175.9430  143.0770 C   0  0  0  0  0  0  0  0  0  0  0  0
  189.9440  175.3810  143.5490 C   0  0  0  0  0  0  0  0  0  0  0  0
  188.8710  175.0420  142.8000 N   0  0  0  0  0  0  0  0  0  0  0  0
  187.5690  177.9110  144.4460 C   0  0  0  0  0  3  0  0  0  0  0  0
  188.3710  176.8750  143.9730 C   0  0  0  0  0  0  0  0  0  0  0  0
  186.5870  175.9670  142.6230 C   0  0  0  0  0  3  0  0  0  0  0  0
  189.6710  176.5290  144.2860 C   0  0  0  0  0  0  0  0  0  0  0  0
  191.2280  174.6220  143.5670 C   0  0  0  0  0  1  0  0  0  0  0  0
  185.5670  180.2580  144.0940 O   0  0  0  0  0  0  0  0  0  0  0  0
  185.3460  179.0670  144.4430 C   0  0  0  0  0  0  0  0  0  0  0  0
  184.1880  178.7850  145.3460 C   0  0  0  0  0  2  0  0  0  0  0  0
  184.8460  178.6730  147.6320 O   0  0  0  0  0  1  0  0  0  0  0  0
  184.8120  176.6720  146.5150 O   0  0  0  0  0  0  0  0  0  0  0  0
  184.6440  178.0500  146.5590 C   0  0  0  0  0  0  0  0  0  0  0  0
  190.5990  177.2540  145.2030 C   0  0  0  0  0  2  0  0  0  0  0  0
  190.5160  176.6580  146.5960 C   0  0  0  0  0  2  0  0  0  0  0  0
  191.7930  176.6970  147.2240 O   0  0  0  0  0  0  0  0  0  0  0  0
  192.9270  176.0470  146.7160 C   0  0  0  0  0  0  0  0  0  0  0  0
  194.9620  175.7610  144.4280 C   0  0  0  0  0  3  0  0  0  0  0  0
  194.5910  176.8670  145.0740 C   0  0  0  0  0  3  0  0  0  0  0  0
  194.1560  176.8670  146.5010 C   0  0  0  0  0  2  0  0  0  0  0  0
  192.9190  174.7270  146.4850 C   0  0  0  0  0  3  0  0  0  0  0  0
  194.0170  173.9480  145.8800 C   0  0  0  0  0  3  0  0  0  0  0  0
  194.9050  174.3960  144.9840 C   0  0  0  0  0  3  0  0  0  0  0  0
  188.7640  173.8810  142.0120 N   0  0  0  0  0  2  0  0  0  0  0  0
  190.4020  173.4490  140.2560 C   0  0  0  0  0  3  0  0  0  0  0  0
  190.7720  173.4220  138.9090 C   0  0  0  0  0  3  0  0  0  0  0  0
  188.1890  174.1980  139.6330 C   0  0  0  0  0  3  0  0  0  0  0  0
  189.8520  173.7770  137.9130 C   0  0  0  0  0  0  0  0  0  0  0  0
  188.5580  174.1700  138.2850 C   0  0  0  0  0  3  0  0  0  0  0  0
  189.1060  173.8220  140.6230 C   0  0  0  0  0  0  0  0  0  0  0  0
  190.6410  172.5150  135.8850 N   0  0  0  0  0  2  0  0  0  0  0  0
  190.2420  173.7450  136.4920 C   0  0  0  0  0  0  0  0  0  0  0  0
  190.2250  174.8050  135.8080 O   0  0  0  0  0  0  0  0  0  0  0  0
  191.0170  172.4630  134.5370 N   0  0  0  0  0  1  0  0  0  0  0  0
  1 12  1  0  0  0  0
  1  6  1  0  0  0  0
  2  1  2  0  0  0  0
  3  7  1  0  0  0  0
  4 10  1  0  0  0  0
  4  9  2  0  0  0  0
  5  3  1  0  0  0  0
  5  4  1  0  0  0  0
  7  9  1  0  0  0  0
  7  6  2  0  0  0  0
  8  3  2  0  0  0  0
  8  2  1  0  0  0  0
  9 17  1  0  0  0  0
 11 12  2  0  0  0  0
 12 13  1  0  0  0  0
 13 16  1  0  0  0  0
 15 16  2  0  0  0  0
 16 14  1  0  0  0  0
 17 18  1  0  0  0  0
 18 19  1  0  0  0  0
 20 19  1  0  0  0  0
 21 26  1  0  0  0  0
 21 22  2  0  0  0  0
 22 23  1  0  0  0  0
 23 20  1  0  0  0  0
 24 20  2  0  0  0  0
 25 24  1  0  0  0  0
 26 25  2  0  0  0  0
 27  5  1  0  0  0  0
 28 33  1  0  0  0  0
 29 28  2  0  0  0  0
 30 33  2  0  0  0  0
 31 32  2  0  0  0  0
 31 29  1  0  0  0  0
 32 30  1  0  0  0  0
 33 27  1  0  0  0  0
 34 35  1  0  0  0  0
 35 31  1  0  0  0  0
 36 35  2  0  0  0  0
 37 34  1  0  0  0  0
M  END
>  <MODEL>
7

>  <REMARK>
 VINA RESULT:      -6.6      3.869      6.915
  Name = 
  10 active torsions:
  status: ('A' for Active; 'I' for Inactive)
    1  A    between atoms: C_5  and  C_37
    2  A    between atoms: C_10  and  C_22
    3  A    between atoms: C_10  and  C_33
    4  A    between atoms: C_12  and  O_35
    5  A    between atoms: C_14  and  C_21
    6  A    between atoms: N_16  and  N_34
    7  A    between atoms: C_22  and  O_35
    8  A    between atoms: C_29  and  C_31
    9  A    between atoms: C_29  and  C_37
   10  A    between atoms: C_32  and  N_34
                            x       y       z     vdW  Elec       q    Type
                         _______ _______ _______ _____ _____    ______ ____

>  <TORSDO>
F 10

$$$$
=
 OpenBabel11042418343D

 37 40  0  0  0  0  0  0  0  0999 V2000
  188.7980  177.3100  146.7410 C   0  0  0  0  0  0  0  0  0  0  0  0
  189.8400  177.0680  147.6690 C   0  0  0  0  0  3  0  0  0  0  0  0
  191.3150  176.4940  145.8700 C   0  0  0  0  0  0  0  0  0  0  0  0
  192.1780  176.2070  143.9020 C   0  0  0  0  0  0  0  0  0  0  0  0
  192.4470  176.1390  145.2260 N   0  0  0  0  0  0  0  0  0  0  0  0
  189.0450  177.1590  145.3600 C   0  0  0  0  0  3  0  0  0  0  0  0
  190.3170  176.7520  144.9630 C   0  0  0  0  0  0  0  0  0  0  0  0
  191.1150  176.6620  147.2400 C   0  0  0  0  0  3  0  0  0  0  0  0
  190.8510  176.5770  143.7010 C   0  0  0  0  0  0  0  0  0  0  0  0
  193.1720  175.9230  142.8270 C   0  0  0  0  0  1  0  0  0  0  0  0
  187.3650  178.5320  148.1860 O   0  0  0  0  0  0  0  0  0  0  0  0
  187.4650  177.7280  147.2200 C   0  0  0  0  0  0  0  0  0  0  0  0
  186.2160  177.1920  146.5970 C   0  0  0  0  0  2  0  0  0  0  0  0
  184.0750  178.1940  146.8920 O   0  0  0  0  0  1  0  0  0  0  0  0
  185.5860  179.4270  145.6880 O   0  0  0  0  0  0  0  0  0  0  0  0
  185.2270  178.2870  146.3950 C   0  0  0  0  0  0  0  0  0  0  0  0
  190.1440  176.7240  142.3960 C   0  0  0  0  0  2  0  0  0  0  0  0
  189.3640  175.4580  142.0880 C   0  0  0  0  0  2  0  0  0  0  0  0
  187.9930  175.6300  142.4330 O   0  0  0  0  0  0  0  0  0  0  0  0
  187.1880  176.6570  141.9230 C   0  0  0  0  0  0  0  0  0  0  0  0
  184.3910  177.9180  141.7130 C   0  0  0  0  0  3  0  0  0  0  0  0
  185.0570  177.5570  142.8100 C   0  0  0  0  0  3  0  0  0  0  0  0
  186.5460  177.5840  142.9020 C   0  0  0  0  0  2  0  0  0  0  0  0
  187.0470  176.8310  140.6020 C   0  0  0  0  0  3  0  0  0  0  0  0
  186.1690  177.8210  139.9470 C   0  0  0  0  0  3  0  0  0  0  0  0
  185.0120  178.2920  140.4290 C   0  0  0  0  0  3  0  0  0  0  0  0
  193.7150  175.8930  145.7850 N   0  0  0  0  0  2  0  0  0  0  0  0
  193.6500  173.4600  145.6080 C   0  0  0  0  0  3  0  0  0  0  0  0
  194.2930  172.2200  145.5620 C   0  0  0  0  0  3  0  0  0  0  0  0
  195.7950  174.5650  145.7720 C   0  0  0  0  0  3  0  0  0  0  0  0
  195.6920  172.1430  145.6150 C   0  0  0  0  0  0  0  0  0  0  0  0
  196.4390  173.3260  145.7250 C   0  0  0  0  0  3  0  0  0  0  0  0
  194.3980  174.6380  145.6980 C   0  0  0  0  0  0  0  0  0  0  0  0
  196.7000  170.1510  146.7730 N   0  0  0  0  0  2  0  0  0  0  0  0
  196.3690  170.8360  145.5640 C   0  0  0  0  0  0  0  0  0  0  0  0
  196.6580  170.3170  144.4500 O   0  0  0  0  0  0  0  0  0  0  0  0
  197.3450  168.9080  146.7470 N   0  0  0  0  0  1  0  0  0  0  0  0
  1 12  1  0  0  0  0
  1  2  1  0  0  0  0
  3  8  1  0  0  0  0
  4  5  1  0  0  0  0
  5 27  1  0  0  0  0
  5  3  1  0  0  0  0
  6  1  2  0  0  0  0
  7  6  1  0  0  0  0
  7  3  2  0  0  0  0
  8  2  2  0  0  0  0
  9  4  2  0  0  0  0
  9  7  1  0  0  0  0
 10  4  1  0  0  0  0
 12 11  2  0  0  0  0
 13 12  1  0  0  0  0
 15 16  2  0  0  0  0
 16 13  1  0  0  0  0
 16 14  1  0  0  0  0
 17  9  1  0  0  0  0
 18 17  1  0  0  0  0
 18 19  1  0  0  0  0
 20 19  1  0  0  0  0
 20 23  1  0  0  0  0
 21 22  2  0  0  0  0
 22 23  1  0  0  0  0
 24 20  2  0  0  0  0
 25 26  2  0  0  0  0
 25 24  1  0  0  0  0
 26 21  1  0  0  0  0
 28 33  1  0  0  0  0
 29 28  2  0  0  0  0
 29 31  1  0  0  0  0
 31 32  2  0  0  0  0
 32 30  1  0  0  0  0
 33 30  2  0  0  0  0
 33 27  1  0  0  0  0
 35 31  1  0  0  0  0
 35 34  1  0  0  0  0
 36 35  2  0  0  0  0
 37 34  1  0  0  0  0
M  END
>  <MODEL>
8

>  <REMARK>
 VINA RESULT:      -6.5      3.968      9.934
  Name = 
  10 active torsions:
  status: ('A' for Active; 'I' for Inactive)
    1  A    between atoms: C_5  and  C_37
    2  A    between atoms: C_10  and  C_22
    3  A    between atoms: C_10  and  C_33
    4  A    between atoms: C_12  and  O_35
    5  A    between atoms: C_14  and  C_21
    6  A    between atoms: N_16  and  N_34
    7  A    between atoms: C_22  and  O_35
    8  A    between atoms: C_29  and  C_31
    9  A    between atoms: C_29  and  C_37
   10  A    between atoms: C_32  and  N_34
                            x       y       z     vdW  Elec       q    Type
                         _______ _______ _______ _____ _____    ______ ____

>  <TORSDO>
F 10

$$$$
=
 OpenBabel11042418343D

 37 40  0  0  0  0  0  0  0  0999 V2000
  195.4220  174.4030  144.6780 C   0  0  0  0  0  0  0  0  0  0  0  0
  194.9140  175.1940  145.7370 C   0  0  0  0  0  3  0  0  0  0  0  0
  192.7220  174.3010  145.3590 C   0  0  0  0  0  0  0  0  0  0  0  0
  191.0620  173.1030  144.6470 C   0  0  0  0  0  0  0  0  0  0  0  0
  191.4030  174.0700  145.5290 N   0  0  0  0  0  0  0  0  0  0  0  0
  194.5560  173.5380  143.9770 C   0  0  0  0  0  3  0  0  0  0  0  0
  193.2140  173.5120  144.3470 C   0  0  0  0  0  0  0  0  0  0  0  0
  193.5550  175.1450  146.0930 C   0  0  0  0  0  3  0  0  0  0  0  0
  192.1670  172.7390  143.8840 C   0  0  0  0  0  0  0  0  0  0  0  0
  189.6930  172.5250  144.5230 C   0  0  0  0  0  1  0  0  0  0  0  0
  197.7340  174.2300  145.1870 O   0  0  0  0  0  0  0  0  0  0  0  0
  196.8530  174.4800  144.3210 C   0  0  0  0  0  0  0  0  0  0  0  0
  197.2860  174.8780  142.9460 C   0  0  0  0  0  2  0  0  0  0  0  0
  196.9320  177.1650  143.5130 O   0  0  0  0  0  1  0  0  0  0  0  0
  196.3290  176.5700  141.3830 O   0  0  0  0  0  0  0  0  0  0  0  0
  196.8310  176.2640  142.6410 C   0  0  0  0  0  0  0  0  0  0  0  0
  192.2080  171.7420  142.7740 C   0  0  0  0  0  2  0  0  0  0  0  0
  192.4260  170.3510  143.3410 C   0  0  0  0  0  2  0  0  0  0  0  0
  193.6860  169.8400  142.9170 O   0  0  0  0  0  0  0  0  0  0  0  0
  194.8470  169.8920  143.6990 C   0  0  0  0  0  0  0  0  0  0  0  0
  196.2970  171.0790  146.1370 C   0  0  0  0  0  3  0  0  0  0  0  0
  195.0950  170.5060  146.0870 C   0  0  0  0  0  3  0  0  0  0  0  0
  194.7490  169.4270  145.1150 C   0  0  0  0  0  2  0  0  0  0  0  0
  196.0140  170.2930  143.1750 C   0  0  0  0  0  3  0  0  0  0  0  0
  197.2800  170.4660  143.9130 C   0  0  0  0  0  3  0  0  0  0  0  0
  197.4050  170.8100  145.2010 C   0  0  0  0  0  3  0  0  0  0  0  0
  190.5580  174.5980  146.5210 N   0  0  0  0  0  2  0  0  0  0  0  0
  189.6530  176.4460  145.2080 C   0  0  0  0  0  3  0  0  0  0  0  0
  188.6620  177.3990  144.9590 C   0  0  0  0  0  3  0  0  0  0  0  0
  188.3800  175.6120  147.0870 C   0  0  0  0  0  3  0  0  0  0  0  0
  187.5200  177.4630  145.7690 C   0  0  0  0  0  0  0  0  0  0  0  0
  187.3880  176.5650  146.8390 C   0  0  0  0  0  3  0  0  0  0  0  0
  189.5090  175.5390  146.2620 C   0  0  0  0  0  0  0  0  0  0  0  0
  186.1630  178.8420  144.1620 N   0  0  0  0  0  2  0  0  0  0  0  0
  186.4740  178.4670  145.5050 C   0  0  0  0  0  0  0  0  0  0  0  0
  185.8510  178.9980  146.4640 O   0  0  0  0  0  0  0  0  0  0  0  0
  185.1740  179.7950  143.8880 N   0  0  0  0  0  1  0  0  0  0  0  0
  1  2  1  0  0  0  0
  2  8  2  0  0  0  0
  3  5  1  0  0  0  0
  3  8  1  0  0  0  0
  4  5  1  0  0  0  0
  5 27  1  0  0  0  0
  6  7  1  0  0  0  0
  6  1  2  0  0  0  0
  7  3  2  0  0  0  0
  9  7  1  0  0  0  0
  9  4  2  0  0  0  0
 10  4  1  0  0  0  0
 12  1  1  0  0  0  0
 12 11  2  0  0  0  0
 13 12  1  0  0  0  0
 15 16  2  0  0  0  0
 16 13  1  0  0  0  0
 16 14  1  0  0  0  0
 17 18  1  0  0  0  0
 17  9  1  0  0  0  0
 19 18  1  0  0  0  0
 19 20  1  0  0  0  0
 20 23  1  0  0  0  0
 22 21  2  0  0  0  0
 23 22  1  0  0  0  0
 24 20  2  0  0  0  0
 24 25  1  0  0  0  0
 25 26  2  0  0  0  0
 26 21  1  0  0  0  0
 28 33  1  0  0  0  0
 29 28  2  0  0  0  0
 29 31  1  0  0  0  0
 31 32  2  0  0  0  0
 32 30  1  0  0  0  0
 33 27  1  0  0  0  0
 33 30  2  0  0  0  0
 34 35  1  0  0  0  0
 35 31  1  0  0  0  0
 35 36  2  0  0  0  0
 37 34  1  0  0  0  0
M  END
>  <MODEL>
9

>  <REMARK>
 VINA RESULT:      -6.4      3.275      5.958
  Name = 
  10 active torsions:
  status: ('A' for Active; 'I' for Inactive)
    1  A    between atoms: C_5  and  C_37
    2  A    between atoms: C_10  and  C_22
    3  A    between atoms: C_10  and  C_33
    4  A    between atoms: C_12  and  O_35
    5  A    between atoms: C_14  and  C_21
    6  A    between atoms: N_16  and  N_34
    7  A    between atoms: C_22  and  O_35
    8  A    between atoms: C_29  and  C_31
    9  A    between atoms: C_29  and  C_37
   10  A    between atoms: C_32  and  N_34
                            x       y       z     vdW  Elec       q    Type
                         _______ _______ _______ _____ _____    ______ ____

>  <TORSDO>
F 10

$$$$
