=
 OpenBabel11042414553D

 55 59  0  0  1  0  0  0  0  0999 V2000
  188.7920  175.4000  143.8140 C   0  0  2  0  0  3  0  0  0  0  0  0
  188.4600  176.7510  143.1400 C   0  0  2  0  0  3  0  0  0  0  0  0
  187.2440  176.6510  142.2910 C   0  0  2  0  0  3  0  0  0  0  0  0
  188.5370  176.6880  141.7330 O   0  0  0  0  0  0  0  0  0  0  0  0
  186.5880  178.0190  142.1850 C   0  0  0  0  0  2  0  0  0  0  0  0
  185.0830  177.9000  142.0050 C   0  0  0  0  0  2  0  0  0  0  0  0
  184.4220  178.7590  142.8920 O   0  0  0  0  0  0  0  0  0  0  0  0
  184.7120  178.2350  144.1530 C   0  0  0  0  0  2  0  0  0  0  0  0
  185.0300  179.3590  145.1280 C   0  0  0  0  0  2  0  0  0  0  0  0
  184.9860  178.8780  146.5760 C   0  0  1  0  0  3  0  0  0  0  0  0
  184.0040  177.8930  146.7170 O   0  0  0  0  0  1  0  0  0  0  0  0
  186.3260  176.8520  147.2800 C   0  0  0  0  0  1  0  0  0  0  0  0
  186.3410  178.3560  147.0510 C   0  0  2  0  0  3  0  0  0  0  0  0
  186.7110  179.0000  148.2330 O   0  0  0  0  0  1  0  0  0  0  0  0
  189.6520  174.3110  145.7740 O   0  0  0  0  0  1  0  0  0  0  0  0
  188.9940  175.4590  145.3380 C   0  0  1  0  0  3  0  0  0  0  0  0
  189.8080  176.6820  145.7330 C   0  0  0  0  0  2  0  0  0  0  0  0
  193.5650  176.5920  145.3730 C   0  0  1  0  0  3  0  0  0  0  0  0
  192.1670  176.7500  144.7280 C   0  0  0  0  0  2  0  0  0  0  0  0
  193.3570  176.0750  146.7220 N   0  0  0  0  0  2  0  0  0  0  0  0
  191.2230  176.3670  145.7660 N   0  0  0  0  0  0  0  0  0  0  0  0
  191.4300  175.6640  148.0010 O   0  0  0  0  0  0  0  0  0  0  0  0
  191.9600  176.0030  146.9120 C   0  0  0  0  0  0  0  0  0  0  0  0
  194.4490  175.6830  144.5840 C   0  0  0  0  0  3  0  0  0  0  0  0
  194.7090  174.4330  144.9580 C   0  0  0  0  0  3  0  0  0  0  0  0
  195.0800  173.2040  141.6100 C   0  0  0  0  0  3  0  0  0  0  0  0
  195.5840  173.6140  144.1330 C   0  0  0  0  0  3  0  0  0  0  0  0
  195.3150  173.4120  142.8760 C   0  0  0  0  0  0  0  0  0  0  0  0
  196.1410  172.6910  140.6680 C   0  0  1  0  0  3  0  0  0  0  0  0
  196.5690  170.3240  140.6300 O   0  0  0  0  0  1  0  0  0  0  0  0
  196.1770  171.3300  138.5150 C   0  0  0  0  0  1  0  0  0  0  0  0
  194.4760  171.0440  140.1420 O   0  0  0  0  0  1  0  0  0  0  0  0
  195.8340  171.3310  139.9990 C   0  0  0  0  0  0  0  0  0  0  0  0
  196.7310  173.7660  139.7430 C   0  0  0  0  0  2  0  0  0  0  0  0
  195.8680  175.0160  139.6550 C   0  0  0  0  0  2  0  0  0  0  0  0
  193.9020  174.4230  138.2780 C   0  0  0  0  0  1  0  0  0  0  0  0
  195.2520  175.1120  138.2750 C   0  0  0  0  0  2  0  0  0  0  0  0
  189.9050  174.8150  143.1890 O   0  0  0  0  0  0  0  0  0  0  0  0
  189.4290  173.6340  142.6070 C   0  0  0  0  0  2  0  0  0  0  0  0
  190.1310  171.1690  142.2440 C   0  0  0  0  0  2  0  0  0  0  0  0
  190.3930  172.5230  142.8460 C   0  0  0  0  0  0  0  0  0  0  0  0
  191.4420  170.4180  141.9770 C   0  0  0  0  0  2  0  0  0  0  0  0
  191.4180  172.6950  143.6860 C   0  0  0  0  0  3  0  0  0  0  0  0
  192.3890  171.6110  143.9190 C   0  0  0  0  0  3  0  0  0  0  0  0
  192.3800  170.5110  143.1580 C   0  0  0  0  0  0  0  0  0  0  0  0
  196.8460  170.1940  144.3110 C   0  0  0  0  0  3  0  0  0  0  0  0
  196.7910  169.5410  146.6630 C   0  0  0  0  0  3  0  0  0  0  0  0
  195.5010  169.8320  144.2290 C   0  0  0  0  0  0  0  0  0  0  0  0
  194.8140  169.3470  145.3050 C   0  0  0  0  0  0  0  0  0  0  0  0
  194.7010  169.9030  143.1110 O   0  0  0  0  0  0  0  0  0  0  0  0
  197.4940  170.0410  145.5470 C   0  0  0  0  0  3  0  0  0  0  0  0
  193.4090  169.0530  144.9170 C   0  0  0  0  0  2  0  0  0  0  0  0
  195.4360  169.1880  146.5460 C   0  0  0  0  0  0  0  0  0  0  0  0
  193.3870  169.4380  143.4210 C   0  0  1  0  0  3  0  0  0  0  0  0
  194.5610  168.5810  147.9400 Cl  0  0  0  0  0  0  0  0  0  0  0  0
  1 38  1  6  0  0  0
  1 16  1  0  0  0  0
  2  1  1  1  0  0  0
  3  5  1  6  0  0  0
  3  2  1  0  0  0  0
  4  3  1  0  0  0  0
  4  2  1  0  0  0  0
  6  5  1  0  0  0  0
  6  7  1  0  0  0  0
  7  8  1  0  0  0  0
  8  9  1  0  0  0  0
  9 10  1  0  0  0  0
 10 11  1  6  0  0  0
 10 13  1  0  0  0  0
 13 12  1  1  0  0  0
 13 14  1  0  0  0  0
 16 17  1  0  0  0  0
 16 15  1  6  0  0  0
 17 21  1  0  0  0  0
 18 24  1  6  0  0  0
 18 20  1  0  0  0  0
 19 18  1  0  0  0  0
 19 21  1  0  0  0  0
 20 23  1  0  0  0  0
 21 23  1  0  0  0  0
 23 22  2  0  0  0  0
 24 25  2  0  0  0  0
 26 28  2  0  0  0  0
 27 25  1  0  0  0  0
 28 27  2  0  0  0  0
 29 34  1  6  0  0  0
 29 26  1  0  0  0  0
 31 33  1  0  0  0  0
 33 32  1  0  0  0  0
 33 30  1  0  0  0  0
 33 29  1  0  0  0  0
 35 34  1  0  0  0  0
 37 36  1  0  0  0  0
 37 35  1  0  0  0  0
 39 41  1  0  0  0  0
 39 38  1  0  0  0  0
 40 41  1  0  0  0  0
 41 43  2  0  0  0  0
 42 40  1  0  0  0  0
 42 45  1  0  0  0  0
 43 44  1  0  0  0  0
 45 44  2  0  0  0  0
 46 51  1  0  0  0  0
 48 46  2  0  0  0  0
 48 49  1  0  0  0  0
 49 53  2  0  0  0  0
 50 54  1  0  0  0  0
 50 48  1  0  0  0  0
 51 47  2  0  0  0  0
 52 49  1  0  0  0  0
 53 47  1  0  0  0  0
 53 55  1  0  0  0  0
 54 45  1  1  0  0  0
 54 52  1  0  0  0  0
M  END
>  <MODEL>
1

>  <REMARK>
 VINA RESULT:      -6.0      0.000      0.000
  Name = 
  22 active torsions:
  status: ('A' for Active; 'I' for Inactive)
    1  A    between atoms: C_2  and  C_22
    2  A    between atoms: C_3  and  O_18
    3  A    between atoms: C_3  and  C_25
    4  A    between atoms: C_3  and  C_53
    5  A    between atoms: C_4  and  C_7
    6  A    between atoms: C_5  and  N_16
    7  A    between atoms: C_5  and  C_53
    8  A    between atoms: C_11  and  C_14
    9  A    between atoms: C_12  and  C_17
   10  A    between atoms: C_12  and  C_45
   11  A    between atoms: C_14  and  O_18
   12  A    between atoms: C_17  and  C_26
   13  A    between atoms: C_19  and  C_38
   14  A    between atoms: C_22  and  C_48
   15  A    between atoms: C_22  and  C_54
   16  A    between atoms: C_26  and  O_31
   17  A    between atoms: O_31  and  C_44
   18  A    between atoms: C_33  and  C_39
   19  A    between atoms: C_35  and  C_52
   20  A    between atoms: C_39  and  C_44
   21  A    between atoms: C_40  and  C_41
   22  A    between atoms: C_40  and  C_54
                            x       y       z     vdW  Elec       q    Type
                         _______ _______ _______ _____ _____    ______ ____

>  <TORSDO>
F 22

$$$$
=
 OpenBabel11042414553D

 55 59  0  0  1  0  0  0  0  0999 V2000
  185.1260  177.6710  141.6160 C   0  0  2  0  0  3  0  0  0  0  0  0
  183.9830  178.5530  141.0630 C   0  0  2  0  0  3  0  0  0  0  0  0
  182.6560  177.9200  141.2710 C   0  0  2  0  0  3  0  0  0  0  0  0
  183.2810  177.9330  140.0090 O   0  0  0  0  0  0  0  0  0  0  0  0
  181.5860  178.9990  141.3370 C   0  0  0  0  0  2  0  0  0  0  0  0
  180.2670  178.5060  140.7630 C   0  0  0  0  0  2  0  0  0  0  0  0
  179.7710  179.4290  139.8330 O   0  0  0  0  0  0  0  0  0  0  0  0
  178.8800  180.2100  140.5690 C   0  0  0  0  0  2  0  0  0  0  0  0
  177.7670  180.7270  139.6690 C   0  0  0  0  0  2  0  0  0  0  0  0
  177.8300  182.2450  139.5120 C   0  0  1  0  0  3  0  0  0  0  0  0
  177.6940  182.8560  140.7620 O   0  0  0  0  0  1  0  0  0  0  0  0
  179.1740  184.2110  138.6620 C   0  0  0  0  0  1  0  0  0  0  0  0
  179.1190  182.7000  138.8310 C   0  0  2  0  0  3  0  0  0  0  0  0
  179.2380  182.0910  137.5810 O   0  0  0  0  0  1  0  0  0  0  0  0
  185.5300  179.5020  143.1160 O   0  0  0  0  0  1  0  0  0  0  0  0
  185.7180  178.1310  142.9590 C   0  0  1  0  0  3  0  0  0  0  0  0
  185.0630  177.4010  144.1220 C   0  0  0  0  0  2  0  0  0  0  0  0
  187.9780  177.4060  146.5210 C   0  0  1  0  0  3  0  0  0  0  0  0
  187.4460  177.4340  145.0670 C   0  0  0  0  0  2  0  0  0  0  0  0
  186.8530  177.0500  147.3800 N   0  0  0  0  0  2  0  0  0  0  0  0
  186.0260  177.1450  145.1750 N   0  0  0  0  0  0  0  0  0  0  0  0
  184.5630  176.7260  146.9690 O   0  0  0  0  0  0  0  0  0  0  0  0
  185.7230  176.9500  146.5390 C   0  0  0  0  0  0  0  0  0  0  0  0
  189.1050  176.4410  146.6900 C   0  0  0  0  0  3  0  0  0  0  0  0
  190.0380  176.2580  145.7600 C   0  0  0  0  0  3  0  0  0  0  0  0
  192.9540  174.8420  144.2280 C   0  0  0  0  0  3  0  0  0  0  0  0
  191.1020  175.2960  146.0030 C   0  0  0  0  0  3  0  0  0  0  0  0
  192.0160  175.0750  145.1030 C   0  0  0  0  0  0  0  0  0  0  0  0
  194.2460  174.1540  144.5950 C   0  0  1  0  0  3  0  0  0  0  0  0
  195.1700  175.3990  146.4340 O   0  0  0  0  0  1  0  0  0  0  0  0
  195.4460  176.3800  144.2880 C   0  0  0  0  0  1  0  0  0  0  0  0
  196.6010  174.4250  144.9700 O   0  0  0  0  0  1  0  0  0  0  0  0
  195.3780  175.0850  145.0880 C   0  0  0  0  0  0  0  0  0  0  0  0
  194.0590  172.8570  145.3950 C   0  0  0  0  0  2  0  0  0  0  0  0
  194.4340  171.6100  144.6080 C   0  0  0  0  0  2  0  0  0  0  0  0
  192.0510  171.2630  144.0440 C   0  0  0  0  0  1  0  0  0  0  0  0
  193.4490  171.4080  143.4760 C   0  0  0  0  0  2  0  0  0  0  0  0
  186.1350  177.5340  140.6500 O   0  0  0  0  0  0  0  0  0  0  0  0
  187.3410  177.6410  141.3510 C   0  0  0  0  0  2  0  0  0  0  0  0
  189.2590  176.1170  142.1880 C   0  0  0  0  0  2  0  0  0  0  0  0
  188.1020  176.3630  141.2580 C   0  0  0  0  0  0  0  0  0  0  0  0
  189.4470  174.6170  142.4530 C   0  0  0  0  0  2  0  0  0  0  0  0
  187.8340  175.4950  140.2770 C   0  0  0  0  0  3  0  0  0  0  0  0
  188.5660  174.2190  140.1820 C   0  0  0  0  0  3  0  0  0  0  0  0
  189.3690  173.8170  141.1740 C   0  0  0  0  0  0  0  0  0  0  0  0
  189.7150  170.3750  138.1070 C   0  0  0  0  0  3  0  0  0  0  0  0
  191.9140  170.7170  137.1010 C   0  0  0  0  0  3  0  0  0  0  0  0
  190.1020  171.2420  139.1290 C   0  0  0  0  0  0  0  0  0  0  0  0
  191.3340  171.8320  139.1530 C   0  0  0  0  0  0  0  0  0  0  0  0
  189.3430  171.6170  140.2150 O   0  0  0  0  0  0  0  0  0  0  0  0
  190.6400  170.1110  137.0840 C   0  0  0  0  0  3  0  0  0  0  0  0
  191.4560  172.7000  140.3530 C   0  0  0  0  0  2  0  0  0  0  0  0
  192.2700  171.5870  138.1440 C   0  0  0  0  0  0  0  0  0  0  0  0
  190.0860  172.5130  141.0430 C   0  0  1  0  0  3  0  0  0  0  0  0
  193.8500  172.3500  138.1540 Cl  0  0  0  0  0  0  0  0  0  0  0  0
  1 38  1  6  0  0  0
  1 16  1  0  0  0  0
  2  3  1  0  0  0  0
  2  1  1  1  0  0  0
  3  5  1  6  0  0  0
  4  2  1  0  0  0  0
  4  3  1  0  0  0  0
  6  5  1  0  0  0  0
  7  8  1  0  0  0  0
  7  6  1  0  0  0  0
  9  8  1  0  0  0  0
 10  9  1  0  0  0  0
 10 11  1  1  0  0  0
 13 12  1  6  0  0  0
 13 10  1  0  0  0  0
 14 13  1  0  0  0  0
 16 15  1  1  0  0  0
 16 17  1  0  0  0  0
 17 21  1  0  0  0  0
 18 24  1  6  0  0  0
 18 20  1  0  0  0  0
 19 21  1  0  0  0  0
 19 18  1  0  0  0  0
 21 23  1  0  0  0  0
 23 22  2  0  0  0  0
 23 20  1  0  0  0  0
 25 27  1  0  0  0  0
 25 24  2  0  0  0  0
 26 28  2  0  0  0  0
 28 27  2  0  0  0  0
 29 26  1  1  0  0  0
 29 33  1  0  0  0  0
 29 34  1  0  0  0  0
 31 33  1  0  0  0  0
 32 33  1  0  0  0  0
 33 30  1  0  0  0  0
 35 34  1  0  0  0  0
 37 36  1  0  0  0  0
 37 35  1  0  0  0  0
 38 39  1  0  0  0  0
 40 42  1  0  0  0  0
 41 39  1  0  0  0  0
 41 40  1  0  0  0  0
 43 41  2  0  0  0  0
 44 43  1  0  0  0  0
 44 45  2  0  0  0  0
 45 42  1  0  0  0  0
 46 48  1  0  0  0  0
 47 53  2  0  0  0  0
 48 49  2  0  0  0  0
 48 50  1  0  0  0  0
 49 52  1  0  0  0  0
 50 54  1  0  0  0  0
 51 47  1  0  0  0  0
 51 46  2  0  0  0  0
 52 54  1  0  0  0  0
 53 55  1  0  0  0  0
 53 49  1  0  0  0  0
 54 45  1  6  0  0  0
M  END
>  <MODEL>
2

>  <REMARK>
 VINA RESULT:      -5.7      4.179      7.148
  Name = 
  22 active torsions:
  status: ('A' for Active; 'I' for Inactive)
    1  A    between atoms: C_2  and  C_22
    2  A    between atoms: C_3  and  O_18
    3  A    between atoms: C_3  and  C_25
    4  A    between atoms: C_3  and  C_53
    5  A    between atoms: C_4  and  C_7
    6  A    between atoms: C_5  and  N_16
    7  A    between atoms: C_5  and  C_53
    8  A    between atoms: C_11  and  C_14
    9  A    between atoms: C_12  and  C_17
   10  A    between atoms: C_12  and  C_45
   11  A    between atoms: C_14  and  O_18
   12  A    between atoms: C_17  and  C_26
   13  A    between atoms: C_19  and  C_38
   14  A    between atoms: C_22  and  C_48
   15  A    between atoms: C_22  and  C_54
   16  A    between atoms: C_26  and  O_31
   17  A    between atoms: O_31  and  C_44
   18  A    between atoms: C_33  and  C_39
   19  A    between atoms: C_35  and  C_52
   20  A    between atoms: C_39  and  C_44
   21  A    between atoms: C_40  and  C_41
   22  A    between atoms: C_40  and  C_54
                            x       y       z     vdW  Elec       q    Type
                         _______ _______ _______ _____ _____    ______ ____

>  <TORSDO>
F 22

$$$$
=
 OpenBabel11042414553D

 55 59  0  0  1  0  0  0  0  0999 V2000
  187.9710  176.0000  144.2970 C   0  0  2  0  0  3  0  0  0  0  0  0
  187.3560  177.2750  143.6760 C   0  0  2  0  0  3  0  0  0  0  0  0
  186.1260  176.9650  142.9030 C   0  0  2  0  0  3  0  0  0  0  0  0
  187.3520  177.2420  142.2650 O   0  0  0  0  0  0  0  0  0  0  0  0
  185.2280  178.1930  142.8690 C   0  0  0  0  0  2  0  0  0  0  0  0
  184.3170  178.1780  141.6520 C   0  0  0  0  0  2  0  0  0  0  0  0
  182.9770  178.2690  142.0520 O   0  0  0  0  0  0  0  0  0  0  0  0
  182.2570  178.1180  140.8670 C   0  0  0  0  0  2  0  0  0  0  0  0
  181.0360  179.0260  140.8740 C   0  0  0  0  0  2  0  0  0  0  0  0
  179.8250  178.3360  141.4980 C   0  0  1  0  0  3  0  0  0  0  0  0
  179.5300  178.9220  142.7320 O   0  0  0  0  0  1  0  0  0  0  0  0
  178.7750  177.4800  139.3630 C   0  0  0  0  0  1  0  0  0  0  0  0
  178.6040  178.3750  140.5810 C   0  0  2  0  0  3  0  0  0  0  0  0
  178.3630  179.6840  140.1630 O   0  0  0  0  0  1  0  0  0  0  0  0
  188.9710  174.9390  146.2050 O   0  0  0  0  0  1  0  0  0  0  0  0
  188.3360  176.1060  145.7880 C   0  0  1  0  0  3  0  0  0  0  0  0
  189.2540  177.2930  146.0410 C   0  0  0  0  0  2  0  0  0  0  0  0
  192.9040  177.0940  145.0960 C   0  0  1  0  0  3  0  0  0  0  0  0
  191.4340  177.3620  144.6910 C   0  0  0  0  0  2  0  0  0  0  0  0
  192.8760  176.4670  146.4130 N   0  0  0  0  0  2  0  0  0  0  0  0
  190.6400  176.9230  145.8270 N   0  0  0  0  0  0  0  0  0  0  0  0
  191.1470  176.0150  147.9370 O   0  0  0  0  0  0  0  0  0  0  0  0
  191.5220  176.4300  146.8110 C   0  0  0  0  0  0  0  0  0  0  0  0
  193.6110  176.2270  144.1060 C   0  0  0  0  0  3  0  0  0  0  0  0
  194.2490  175.1140  144.4560 C   0  0  0  0  0  3  0  0  0  0  0  0
  193.7190  173.7110  141.1990 C   0  0  0  0  0  3  0  0  0  0  0  0
  194.9150  174.3270  143.4300 C   0  0  0  0  0  3  0  0  0  0  0  0
  194.3020  174.0200  142.3240 C   0  0  0  0  0  0  0  0  0  0  0  0
  194.4930  173.2370  139.9940 C   0  0  1  0  0  3  0  0  0  0  0  0
  194.8710  171.2480  138.6950 O   0  0  0  0  0  1  0  0  0  0  0  0
  192.9740  172.5350  138.0730 C   0  0  0  0  0  1  0  0  0  0  0  0
  193.0860  171.2950  140.0920 O   0  0  0  0  0  1  0  0  0  0  0  0
  193.8590  172.0590  139.2180 C   0  0  0  0  0  0  0  0  0  0  0  0
  195.0610  174.3720  139.1290 C   0  0  0  0  0  2  0  0  0  0  0  0
  196.2860  175.0350  139.7420 C   0  0  0  0  0  2  0  0  0  0  0  0
  197.9400  173.9490  141.2240 C   0  0  0  0  0  1  0  0  0  0  0  0
  197.4260  174.0410  139.8010 C   0  0  0  0  0  2  0  0  0  0  0  0
  189.0820  175.5880  143.5430 O   0  0  0  0  0  0  0  0  0  0  0  0
  188.7130  174.3650  142.9720 C   0  0  0  0  0  2  0  0  0  0  0  0
  189.5380  171.9170  142.7940 C   0  0  0  0  0  2  0  0  0  0  0  0
  189.7340  173.3260  143.2860 C   0  0  0  0  0  0  0  0  0  0  0  0
  190.8850  171.2160  142.5730 C   0  0  0  0  0  2  0  0  0  0  0  0
  190.7540  173.6150  144.1000 C   0  0  0  0  0  3  0  0  0  0  0  0
  191.7810  172.6030  144.4070 C   0  0  0  0  0  3  0  0  0  0  0  0
  191.8240  171.4480  143.7330 C   0  0  0  0  0  0  0  0  0  0  0  0
  195.9310  170.1130  142.0840 C   0  0  0  0  0  3  0  0  0  0  0  0
  197.5290  171.0790  143.6590 C   0  0  0  0  0  3  0  0  0  0  0  0
  194.9310  170.3540  143.0250 C   0  0  0  0  0  0  0  0  0  0  0  0
  195.1960  170.9330  144.2340 C   0  0  0  0  0  0  0  0  0  0  0  0
  193.5930  170.0620  142.8900 O   0  0  0  0  0  0  0  0  0  0  0  0
  197.2460  170.4810  142.4130 C   0  0  0  0  0  3  0  0  0  0  0  0
  193.9410  171.0640  145.0180 C   0  0  0  0  0  2  0  0  0  0  0  0
  196.4960  171.3100  144.5830 C   0  0  0  0  0  0  0  0  0  0  0  0
  192.8860  170.4520  144.0690 C   0  0  1  0  0  3  0  0  0  0  0  0
  196.8490  172.0670  146.1260 Cl  0  0  0  0  0  0  0  0  0  0  0  0
  1 38  1  6  0  0  0
  1 16  1  0  0  0  0
  2  1  1  1  0  0  0
  3  5  1  6  0  0  0
  3  2  1  0  0  0  0
  4  3  1  0  0  0  0
  4  2  1  0  0  0  0
  6  7  1  0  0  0  0
  6  5  1  0  0  0  0
  8  9  1  0  0  0  0
  8  7  1  0  0  0  0
  9 10  1  0  0  0  0
 10 11  1  1  0  0  0
 13 12  1  6  0  0  0
 13 10  1  0  0  0  0
 14 13  1  0  0  0  0
 16 17  1  0  0  0  0
 16 15  1  6  0  0  0
 18 24  1  6  0  0  0
 18 20  1  0  0  0  0
 19 18  1  0  0  0  0
 19 21  1  0  0  0  0
 20 23  1  0  0  0  0
 21 17  1  0  0  0  0
 21 23  1  0  0  0  0
 23 22  2  0  0  0  0
 24 25  2  0  0  0  0
 26 28  2  0  0  0  0
 27 25  1  0  0  0  0
 28 27  2  0  0  0  0
 29 34  1  6  0  0  0
 29 26  1  0  0  0  0
 30 33  1  0  0  0  0
 31 33  1  0  0  0  0
 33 29  1  0  0  0  0
 33 32  1  0  0  0  0
 34 35  1  0  0  0  0
 35 37  1  0  0  0  0
 37 36  1  0  0  0  0
 39 41  1  0  0  0  0
 39 38  1  0  0  0  0
 40 41  1  0  0  0  0
 41 43  2  0  0  0  0
 42 40  1  0  0  0  0
 42 45  1  0  0  0  0
 43 44  1  0  0  0  0
 45 44  2  0  0  0  0
 46 51  2  0  0  0  0
 46 48  1  0  0  0  0
 47 53  2  0  0  0  0
 48 49  2  0  0  0  0
 49 53  1  0  0  0  0
 49 52  1  0  0  0  0
 50 48  1  0  0  0  0
 50 54  1  0  0  0  0
 51 47  1  0  0  0  0
 53 55  1  0  0  0  0
 54 45  1  6  0  0  0
 54 52  1  0  0  0  0
M  END
>  <MODEL>
3

>  <REMARK>
 VINA RESULT:      -5.6      2.386      3.500
  Name = 
  22 active torsions:
  status: ('A' for Active; 'I' for Inactive)
    1  A    between atoms: C_2  and  C_22
    2  A    between atoms: C_3  and  O_18
    3  A    between atoms: C_3  and  C_25
    4  A    between atoms: C_3  and  C_53
    5  A    between atoms: C_4  and  C_7
    6  A    between atoms: C_5  and  N_16
    7  A    between atoms: C_5  and  C_53
    8  A    between atoms: C_11  and  C_14
    9  A    between atoms: C_12  and  C_17
   10  A    between atoms: C_12  and  C_45
   11  A    between atoms: C_14  and  O_18
   12  A    between atoms: C_17  and  C_26
   13  A    between atoms: C_19  and  C_38
   14  A    between atoms: C_22  and  C_48
   15  A    between atoms: C_22  and  C_54
   16  A    between atoms: C_26  and  O_31
   17  A    between atoms: O_31  and  C_44
   18  A    between atoms: C_33  and  C_39
   19  A    between atoms: C_35  and  C_52
   20  A    between atoms: C_39  and  C_44
   21  A    between atoms: C_40  and  C_41
   22  A    between atoms: C_40  and  C_54
                            x       y       z     vdW  Elec       q    Type
                         _______ _______ _______ _____ _____    ______ ____

>  <TORSDO>
F 22

$$$$
=
 OpenBabel11042414553D

 55 59  0  0  1  0  0  0  0  0999 V2000
  185.0060  177.6280  141.9300 C   0  0  2  0  0  3  0  0  0  0  0  0
  183.8810  178.5730  141.4490 C   0  0  2  0  0  3  0  0  0  0  0  0
  182.5480  177.9240  141.5420 C   0  0  2  0  0  3  0  0  0  0  0  0
  183.2110  178.0820  140.3090 O   0  0  0  0  0  0  0  0  0  0  0  0
  181.4760  178.9930  141.7010 C   0  0  0  0  0  2  0  0  0  0  0  0
  180.2440  178.6690  140.8720 C   0  0  0  0  0  2  0  0  0  0  0  0
  179.9340  179.7440  140.0290 O   0  0  0  0  0  0  0  0  0  0  0  0
  178.8250  180.3400  140.6310 C   0  0  0  0  0  2  0  0  0  0  0  0
  177.8130  180.7550  139.5730 C   0  0  0  0  0  2  0  0  0  0  0  0
  177.7630  182.2730  139.4080 C   0  0  1  0  0  3  0  0  0  0  0  0
  177.7740  182.8860  140.6630 O   0  0  0  0  0  1  0  0  0  0  0  0
  179.1720  184.2760  138.7800 C   0  0  0  0  0  1  0  0  0  0  0  0
  178.9090  182.7960  138.5450 C   0  0  2  0  0  3  0  0  0  0  0  0
  178.6240  182.5850  137.1950 O   0  0  0  0  0  1  0  0  0  0  0  0
  185.6830  179.5280  143.2320 O   0  0  0  0  0  1  0  0  0  0  0  0
  185.8400  178.1490  143.1120 C   0  0  1  0  0  3  0  0  0  0  0  0
  185.4170  177.4840  144.4130 C   0  0  0  0  0  2  0  0  0  0  0  0
  188.8260  177.2870  146.0240 C   0  0  1  0  0  3  0  0  0  0  0  0
  187.9370  177.1560  144.7640 C   0  0  0  0  0  2  0  0  0  0  0  0
  187.9290  177.3640  147.1730 N   0  0  0  0  0  2  0  0  0  0  0  0
  186.5690  177.2220  145.2540 N   0  0  0  0  0  0  0  0  0  0  0  0
  185.5930  177.4930  147.3770 O   0  0  0  0  0  0  0  0  0  0  0  0
  186.6150  177.3630  146.6560 C   0  0  0  0  0  0  0  0  0  0  0  0
  189.7760  176.1420  146.1650 C   0  0  0  0  0  3  0  0  0  0  0  0
  190.0250  175.2920  145.1720 C   0  0  0  0  0  3  0  0  0  0  0  0
  191.1400  172.2060  143.7270 C   0  0  0  0  0  3  0  0  0  0  0  0
  190.9620  174.2020  145.3920 C   0  0  0  0  0  3  0  0  0  0  0  0
  191.0340  173.2080  144.5550 C   0  0  0  0  0  0  0  0  0  0  0  0
  192.3340  171.2830  143.7270 C   0  0  1  0  0  3  0  0  0  0  0  0
  192.4760  168.8930  143.4990 O   0  0  0  0  0  1  0  0  0  0  0  0
  193.2270  170.1490  141.6280 C   0  0  0  0  0  1  0  0  0  0  0  0
  190.9430  170.0010  142.2490 O   0  0  0  0  0  1  0  0  0  0  0  0
  192.2320  170.0660  142.7790 C   0  0  0  0  0  0  0  0  0  0  0  0
  193.6870  172.0100  143.7300 C   0  0  0  0  0  2  0  0  0  0  0  0
  194.3980  171.9410  145.0740 C   0  0  0  0  0  2  0  0  0  0  0  0
  194.8440  174.2870  144.4310 C   0  0  0  0  0  1  0  0  0  0  0  0
  194.6330  173.3430  145.5970 C   0  0  0  0  0  2  0  0  0  0  0  0
  185.8350  177.2830  140.8510 O   0  0  0  0  0  0  0  0  0  0  0  0
  187.1320  177.2360  141.3760 C   0  0  0  0  0  2  0  0  0  0  0  0
  188.6510  175.2320  141.9900 C   0  0  0  0  0  2  0  0  0  0  0  0
  187.7930  175.9580  140.9900 C   0  0  0  0  0  0  0  0  0  0  0  0
  188.6510  173.7200  141.7260 C   0  0  0  0  0  2  0  0  0  0  0  0
  187.7220  175.5220  139.7280 C   0  0  0  0  0  3  0  0  0  0  0  0
  188.3570  174.2510  139.3340 C   0  0  0  0  0  3  0  0  0  0  0  0
  188.8450  173.4170  140.2590 C   0  0  0  0  0  0  0  0  0  0  0  0
  189.7000  171.1840  136.3020 C   0  0  0  0  0  3  0  0  0  0  0  0
  192.1010  171.4860  135.9750 C   0  0  0  0  0  3  0  0  0  0  0  0
  189.8780  171.5880  137.6250 C   0  0  0  0  0  0  0  0  0  0  0  0
  191.1040  171.9320  138.1200 C   0  0  0  0  0  0  0  0  0  0  0  0
  188.8990  171.6970  138.5870 O   0  0  0  0  0  0  0  0  0  0  0  0
  190.8310  171.1330  135.4720 C   0  0  0  0  0  3  0  0  0  0  0  0
  190.9820  172.3190  139.5500 C   0  0  0  0  0  2  0  0  0  0  0  0
  192.2450  171.8910  137.3120 C   0  0  0  0  0  0  0  0  0  0  0  0
  189.4720  172.1340  139.8200 C   0  0  1  0  0  3  0  0  0  0  0  0
  193.8230  172.3440  137.9310 Cl  0  0  0  0  0  0  0  0  0  0  0  0
  1 38  1  6  0  0  0
  1 16  1  0  0  0  0
  2  3  1  0  0  0  0
  2  1  1  1  0  0  0
  3  5  1  6  0  0  0
  4  2  1  0  0  0  0
  4  3  1  0  0  0  0
  6  5  1  0  0  0  0
  7  8  1  0  0  0  0
  7  6  1  0  0  0  0
  9  8  1  0  0  0  0
 10  9  1  0  0  0  0
 10 11  1  1  0  0  0
 13 12  1  6  0  0  0
 13 10  1  0  0  0  0
 14 13  1  0  0  0  0
 16 15  1  1  0  0  0
 16 17  1  0  0  0  0
 17 21  1  0  0  0  0
 18 24  1  1  0  0  0
 18 20  1  0  0  0  0
 19 21  1  0  0  0  0
 19 18  1  0  0  0  0
 21 23  1  0  0  0  0
 23 20  1  0  0  0  0
 23 22  2  0  0  0  0
 25 27  1  0  0  0  0
 25 24  2  0  0  0  0
 26 28  2  0  0  0  0
 28 27  2  0  0  0  0
 29 26  1  6  0  0  0
 29 34  1  0  0  0  0
 31 33  1  0  0  0  0
 32 33  1  0  0  0  0
 33 30  1  0  0  0  0
 33 29  1  0  0  0  0
 34 35  1  0  0  0  0
 35 37  1  0  0  0  0
 36 37  1  0  0  0  0
 38 39  1  0  0  0  0
 41 39  1  0  0  0  0
 41 40  1  0  0  0  0
 42 40  1  0  0  0  0
 43 41  2  0  0  0  0
 44 43  1  0  0  0  0
 44 45  2  0  0  0  0
 45 42  1  0  0  0  0
 46 48  1  0  0  0  0
 47 53  2  0  0  0  0
 48 49  2  0  0  0  0
 48 50  1  0  0  0  0
 49 52  1  0  0  0  0
 50 54  1  0  0  0  0
 51 47  1  0  0  0  0
 51 46  2  0  0  0  0
 52 54  1  0  0  0  0
 53 55  1  0  0  0  0
 53 49  1  0  0  0  0
 54 45  1  6  0  0  0
M  END
>  <MODEL>
4

>  <REMARK>
 VINA RESULT:      -5.5      4.281      7.188
  Name = 
  22 active torsions:
  status: ('A' for Active; 'I' for Inactive)
    1  A    between atoms: C_2  and  C_22
    2  A    between atoms: C_3  and  O_18
    3  A    between atoms: C_3  and  C_25
    4  A    between atoms: C_3  and  C_53
    5  A    between atoms: C_4  and  C_7
    6  A    between atoms: C_5  and  N_16
    7  A    between atoms: C_5  and  C_53
    8  A    between atoms: C_11  and  C_14
    9  A    between atoms: C_12  and  C_17
   10  A    between atoms: C_12  and  C_45
   11  A    between atoms: C_14  and  O_18
   12  A    between atoms: C_17  and  C_26
   13  A    between atoms: C_19  and  C_38
   14  A    between atoms: C_22  and  C_48
   15  A    between atoms: C_22  and  C_54
   16  A    between atoms: C_26  and  O_31
   17  A    between atoms: O_31  and  C_44
   18  A    between atoms: C_33  and  C_39
   19  A    between atoms: C_35  and  C_52
   20  A    between atoms: C_39  and  C_44
   21  A    between atoms: C_40  and  C_41
   22  A    between atoms: C_40  and  C_54
                            x       y       z     vdW  Elec       q    Type
                         _______ _______ _______ _____ _____    ______ ____

>  <TORSDO>
F 22

$$$$
=
 OpenBabel11042414553D

 55 59  0  0  1  0  0  0  0  0999 V2000
  187.7500  176.6720  142.9240 C   0  0  2  0  0  3  0  0  0  0  0  0
  186.9160  177.6930  142.1160 C   0  0  2  0  0  3  0  0  0  0  0  0
  185.5840  177.1430  141.7550 C   0  0  2  0  0  3  0  0  0  0  0  0
  186.6250  177.2430  140.8110 O   0  0  0  0  0  0  0  0  0  0  0  0
  184.5980  178.2870  141.5710 C   0  0  0  0  0  2  0  0  0  0  0  0
  183.4960  178.2420  142.6170 C   0  0  0  0  0  2  0  0  0  0  0  0
  182.3650  178.9280  142.1550 O   0  0  0  0  0  0  0  0  0  0  0  0
  182.0090  178.2500  140.9880 C   0  0  0  0  0  2  0  0  0  0  0  0
  180.4940  178.2050  140.8490 C   0  0  0  0  0  2  0  0  0  0  0  0
  179.8520  179.5330  141.2450 C   0  0  1  0  0  3  0  0  0  0  0  0
  180.1470  180.5050  140.2860 O   0  0  0  0  0  1  0  0  0  0  0  0
  177.9510  178.0730  142.0520 C   0  0  0  0  0  1  0  0  0  0  0  0
  178.3420  179.4090  141.4360 C   0  0  2  0  0  3  0  0  0  0  0  0
  177.6930  179.5600  140.2100 O   0  0  0  0  0  1  0  0  0  0  0  0
  187.5190  178.2910  144.6820 O   0  0  0  0  0  1  0  0  0  0  0  0
  188.2430  177.1660  144.2950 C   0  0  1  0  0  3  0  0  0  0  0  0
  188.0860  176.0840  145.3520 C   0  0  0  0  0  2  0  0  0  0  0  0
  191.5140  176.2400  146.9250 C   0  0  1  0  0  3  0  0  0  0  0  0
  190.5800  176.5470  145.7300 C   0  0  0  0  0  2  0  0  0  0  0  0
  190.7990  175.3150  147.7990 N   0  0  0  0  0  2  0  0  0  0  0  0
  189.3510  175.8230  146.0110 N   0  0  0  0  0  0  0  0  0  0  0  0
  188.6140  174.4540  147.7770 O   0  0  0  0  0  0  0  0  0  0  0  0
  189.5180  175.1390  147.2330 C   0  0  0  0  0  0  0  0  0  0  0  0
  192.8180  175.6580  146.4860 C   0  0  0  0  0  3  0  0  0  0  0  0
  193.9610  176.3370  146.5420 C   0  0  0  0  0  3  0  0  0  0  0  0
  195.1470  173.4260  144.8160 C   0  0  0  0  0  3  0  0  0  0  0  0
  195.1870  175.6970  146.0920 C   0  0  0  0  0  3  0  0  0  0  0  0
  195.1520  174.5580  145.4620 C   0  0  0  0  0  0  0  0  0  0  0  0
  196.3380  172.9440  144.0260 C   0  0  1  0  0  3  0  0  0  0  0  0
  195.4510  170.7170  143.8350 O   0  0  0  0  0  1  0  0  0  0  0  0
  197.1320  171.0140  145.4870 C   0  0  0  0  0  1  0  0  0  0  0  0
  197.5840  171.0840  143.1590 O   0  0  0  0  0  1  0  0  0  0  0  0
  196.6230  171.4270  144.1110 C   0  0  0  0  0  0  0  0  0  0  0  0
  196.4510  173.5610  142.6240 C   0  0  0  0  0  2  0  0  0  0  0  0
  197.4970  174.6630  142.5380 C   0  0  0  0  0  2  0  0  0  0  0  0
  196.4100  176.4520  141.2220 C   0  0  0  0  0  1  0  0  0  0  0  0
  196.8200  176.0150  142.6140 C   0  0  0  0  0  2  0  0  0  0  0  0
  188.8250  176.2110  142.1470 O   0  0  0  0  0  0  0  0  0  0  0  0
  188.7680  174.8140  142.2220 C   0  0  0  0  0  2  0  0  0  0  0  0
  189.2960  173.4100  140.1120 C   0  0  0  0  0  2  0  0  0  0  0  0
  189.7670  174.2120  141.2940 C   0  0  0  0  0  0  0  0  0  0  0  0
  190.3030  173.4820  138.9560 C   0  0  0  0  0  2  0  0  0  0  0  0
  191.0720  174.2830  141.5780 C   0  0  0  0  0  3  0  0  0  0  0  0
  192.0730  173.7080  140.6610 C   0  0  0  0  0  3  0  0  0  0  0  0
  191.7170  173.2790  139.4450 C   0  0  0  0  0  0  0  0  0  0  0  0
  196.1960  173.9530  138.5180 C   0  0  0  0  0  3  0  0  0  0  0  0
  197.3010  172.0580  139.5930 C   0  0  0  0  0  3  0  0  0  0  0  0
  194.9910  173.2630  138.6500 C   0  0  0  0  0  0  0  0  0  0  0  0
  194.9220  172.0270  139.2260 C   0  0  0  0  0  0  0  0  0  0  0  0
  193.7510  173.6980  138.2410 O   0  0  0  0  0  0  0  0  0  0  0  0
  197.3630  173.3350  138.9970 C   0  0  0  0  0  3  0  0  0  0  0  0
  193.5150  171.5480  139.2280 C   0  0  0  0  0  2  0  0  0  0  0  0
  196.0700  171.3930  139.7120 C   0  0  0  0  0  0  0  0  0  0  0  0
  192.7640  172.7110  138.5420 C   0  0  1  0  0  3  0  0  0  0  0  0
  195.9930  169.8110  140.4680 Cl  0  0  0  0  0  0  0  0  0  0  0  0
  1 38  1  6  0  0  0
  1 16  1  0  0  0  0
  2  1  1  1  0  0  0
  3  5  1  6  0  0  0
  3  2  1  0  0  0  0
  4  3  1  0  0  0  0
  4  2  1  0  0  0  0
  5  6  1  0  0  0  0
  7  6  1  0  0  0  0
  8  7  1  0  0  0  0
  9  8  1  0  0  0  0
  9 10  1  0  0  0  0
 10 11  1  6  0  0  0
 10 13  1  0  0  0  0
 13 12  1  6  0  0  0
 14 13  1  0  0  0  0
 16 15  1  1  0  0  0
 16 17  1  0  0  0  0
 17 21  1  0  0  0  0
 18 24  1  6  0  0  0
 18 20  1  0  0  0  0
 19 21  1  0  0  0  0
 19 18  1  0  0  0  0
 21 23  1  0  0  0  0
 23 22  2  0  0  0  0
 23 20  1  0  0  0  0
 24 25  2  0  0  0  0
 26 28  2  0  0  0  0
 27 25  1  0  0  0  0
 28 27  2  0  0  0  0
 29 34  1  6  0  0  0
 29 33  1  0  0  0  0
 29 26  1  0  0  0  0
 30 33  1  0  0  0  0
 32 33  1  0  0  0  0
 33 31  1  0  0  0  0
 35 37  1  0  0  0  0
 35 34  1  0  0  0  0
 36 37  1  0  0  0  0
 38 39  1  0  0  0  0
 40 41  1  0  0  0  0
 41 43  2  0  0  0  0
 41 39  1  0  0  0  0
 42 45  1  0  0  0  0
 42 40  1  0  0  0  0
 44 43  1  0  0  0  0
 45 44  2  0  0  0  0
 46 48  2  0  0  0  0
 46 51  1  0  0  0  0
 47 53  1  0  0  0  0
 48 49  1  0  0  0  0
 49 52  1  0  0  0  0
 49 53  2  0  0  0  0
 50 54  1  0  0  0  0
 50 48  1  0  0  0  0
 51 47  2  0  0  0  0
 53 55  1  0  0  0  0
 54 52  1  0  0  0  0
 54 45  1  1  0  0  0
M  END
>  <MODEL>
5

>  <REMARK>
 VINA RESULT:      -5.3      2.927      5.007
  Name = 
  22 active torsions:
  status: ('A' for Active; 'I' for Inactive)
    1  A    between atoms: C_2  and  C_22
    2  A    between atoms: C_3  and  O_18
    3  A    between atoms: C_3  and  C_25
    4  A    between atoms: C_3  and  C_53
    5  A    between atoms: C_4  and  C_7
    6  A    between atoms: C_5  and  N_16
    7  A    between atoms: C_5  and  C_53
    8  A    between atoms: C_11  and  C_14
    9  A    between atoms: C_12  and  C_17
   10  A    between atoms: C_12  and  C_45
   11  A    between atoms: C_14  and  O_18
   12  A    between atoms: C_17  and  C_26
   13  A    between atoms: C_19  and  C_38
   14  A    between atoms: C_22  and  C_48
   15  A    between atoms: C_22  and  C_54
   16  A    between atoms: C_26  and  O_31
   17  A    between atoms: O_31  and  C_44
   18  A    between atoms: C_33  and  C_39
   19  A    between atoms: C_35  and  C_52
   20  A    between atoms: C_39  and  C_44
   21  A    between atoms: C_40  and  C_41
   22  A    between atoms: C_40  and  C_54
                            x       y       z     vdW  Elec       q    Type
                         _______ _______ _______ _____ _____    ______ ____

>  <TORSDO>
F 22

$$$$
=
 OpenBabel11042414553D

 55 59  0  0  1  0  0  0  0  0999 V2000
  188.2710  176.6700  142.0460 C   0  0  2  0  0  3  0  0  0  0  0  0
  187.4210  177.6940  141.2610 C   0  0  2  0  0  3  0  0  0  0  0  0
  186.0360  177.2020  141.0460 C   0  0  2  0  0  3  0  0  0  0  0  0
  186.9930  177.1990  140.0120 O   0  0  0  0  0  0  0  0  0  0  0  0
  185.0970  178.3880  140.8870 C   0  0  0  0  0  2  0  0  0  0  0  0
  183.6520  177.9880  141.1410 C   0  0  0  0  0  2  0  0  0  0  0  0
  183.2520  178.4100  142.4150 O   0  0  0  0  0  0  0  0  0  0  0  0
  184.4460  178.7530  143.0510 C   0  0  0  0  0  2  0  0  0  0  0  0
  184.4020  178.3320  144.5130 C   0  0  0  0  0  2  0  0  0  0  0  0
  185.6330  178.8180  145.2750 C   0  0  1  0  0  3  0  0  0  0  0  0
  185.6880  180.2140  145.2450 O   0  0  0  0  0  1  0  0  0  0  0  0
  186.1710  176.8840  146.8130 C   0  0  0  0  0  1  0  0  0  0  0  0
  185.6550  178.3120  146.7160 C   0  0  2  0  0  3  0  0  0  0  0  0
  184.3740  178.3800  147.2650 O   0  0  0  0  0  1  0  0  0  0  0  0
  188.9370  175.0060  140.4480 O   0  0  0  0  0  1  0  0  0  0  0  0
  188.1430  175.2110  141.5750 C   0  0  1  0  0  3  0  0  0  0  0  0
  188.5700  174.2450  142.6690 C   0  0  0  0  0  2  0  0  0  0  0  0
  192.2080  173.2380  142.7430 C   0  0  1  0  0  3  0  0  0  0  0  0
  191.1230  174.3310  142.8970 C   0  0  0  0  0  2  0  0  0  0  0  0
  191.5660  172.0840  142.1220 N   0  0  0  0  0  2  0  0  0  0  0  0
  189.8980  173.7240  142.4050 N   0  0  0  0  0  0  0  0  0  0  0  0
  189.3390  171.6060  141.5480 O   0  0  0  0  0  0  0  0  0  0  0  0
  190.1990  172.4120  141.9850 C   0  0  0  0  0  0  0  0  0  0  0  0
  193.3680  173.7070  141.9270 C   0  0  0  0  0  3  0  0  0  0  0  0
  193.4280  174.9270  141.4000 C   0  0  0  0  0  3  0  0  0  0  0  0
  194.7940  174.6770  138.0940 C   0  0  0  0  0  3  0  0  0  0  0  0
  194.5930  175.3030  140.6150 C   0  0  0  0  0  3  0  0  0  0  0  0
  194.6830  174.9760  139.3590 C   0  0  0  0  0  0  0  0  0  0  0  0
  195.7850  175.3650  137.1880 C   0  0  1  0  0  3  0  0  0  0  0  0
  197.9410  175.1730  136.1380 O   0  0  0  0  0  1  0  0  0  0  0  0
  197.3420  173.3880  137.5860 C   0  0  0  0  0  1  0  0  0  0  0  0
  197.8640  175.5640  138.3700 O   0  0  0  0  0  1  0  0  0  0  0  0
  197.2490  174.8850  137.3180 C   0  0  0  0  0  0  0  0  0  0  0  0
  195.2810  175.5710  135.7520 C   0  0  0  0  0  2  0  0  0  0  0  0
  195.0160  177.0320  135.4160 C   0  0  0  0  0  2  0  0  0  0  0  0
  193.2700  178.6820  134.8300 C   0  0  0  0  0  1  0  0  0  0  0  0
  193.5640  177.2080  135.0220 C   0  0  0  0  0  2  0  0  0  0  0  0
  187.9970  176.7720  143.4190 O   0  0  0  0  0  0  0  0  0  0  0  0
  188.7520  177.8610  143.8720 C   0  0  0  0  0  2  0  0  0  0  0  0
  191.2840  177.5320  143.4430 C   0  0  0  0  0  2  0  0  0  0  0  0
  190.0870  177.3950  144.3440 C   0  0  0  0  0  0  0  0  0  0  0  0
  192.5750  177.6900  144.2580 C   0  0  0  0  0  2  0  0  0  0  0  0
  190.1970  176.7530  145.5110 C   0  0  0  0  0  3  0  0  0  0  0  0
  191.5120  176.3020  146.0000 C   0  0  0  0  0  3  0  0  0  0  0  0
  192.6370  176.6920  145.3900 C   0  0  0  0  0  0  0  0  0  0  0  0
  195.2960  172.9180  145.1380 C   0  0  0  0  0  3  0  0  0  0  0  0
  197.1030  173.5830  143.6360 C   0  0  0  0  0  3  0  0  0  0  0  0
  194.9750  174.2690  145.2720 C   0  0  0  0  0  0  0  0  0  0  0  0
  195.6730  175.2480  144.6240 C   0  0  0  0  0  0  0  0  0  0  0  0
  193.9600  174.7960  146.0370 O   0  0  0  0  0  0  0  0  0  0  0  0
  196.3770  172.5780  144.3090 C   0  0  0  0  0  3  0  0  0  0  0  0
  195.1020  176.5800  144.9560 C   0  0  0  0  0  2  0  0  0  0  0  0
  196.7520  174.9340  143.7920 C   0  0  0  0  0  0  0  0  0  0  0  0
  193.9510  176.2200  145.9220 C   0  0  1  0  0  3  0  0  0  0  0  0
  197.6470  176.1810  142.9420 Cl  0  0  0  0  0  0  0  0  0  0  0  0
  1 38  1  1  0  0  0
  2  1  1  1  0  0  0
  3  5  1  6  0  0  0
  3  2  1  0  0  0  0
  4  3  1  0  0  0  0
  4  2  1  0  0  0  0
  5  6  1  0  0  0  0
  6  7  1  0  0  0  0
  7  8  1  0  0  0  0
  8  9  1  0  0  0  0
  9 10  1  0  0  0  0
 10 11  1  1  0  0  0
 10 13  1  0  0  0  0
 13 12  1  6  0  0  0
 13 14  1  0  0  0  0
 16 15  1  6  0  0  0
 16  1  1  0  0  0  0
 16 17  1  0  0  0  0
 18 24  1  6  0  0  0
 18 19  1  0  0  0  0
 20 18  1  0  0  0  0
 21 17  1  0  0  0  0
 21 19  1  0  0  0  0
 22 23  2  0  0  0  0
 23 20  1  0  0  0  0
 23 21  1  0  0  0  0
 25 24  2  0  0  0  0
 26 28  2  0  0  0  0
 27 25  1  0  0  0  0
 28 27  2  0  0  0  0
 29 34  1  6  0  0  0
 29 33  1  0  0  0  0
 29 26  1  0  0  0  0
 30 33  1  0  0  0  0
 33 31  1  0  0  0  0
 33 32  1  0  0  0  0
 35 34  1  0  0  0  0
 36 37  1  0  0  0  0
 37 35  1  0  0  0  0
 38 39  1  0  0  0  0
 39 41  1  0  0  0  0
 40 42  1  0  0  0  0
 40 41  1  0  0  0  0
 41 43  2  0  0  0  0
 42 45  1  0  0  0  0
 43 44  1  0  0  0  0
 45 44  2  0  0  0  0
 46 48  1  0  0  0  0
 47 53  2  0  0  0  0
 47 51  1  0  0  0  0
 48 50  1  0  0  0  0
 49 52  1  0  0  0  0
 49 48  2  0  0  0  0
 51 46  2  0  0  0  0
 52 54  1  0  0  0  0
 53 49  1  0  0  0  0
 54 45  1  6  0  0  0
 54 50  1  0  0  0  0
 55 53  1  0  0  0  0
M  END
>  <MODEL>
6

>  <REMARK>
 VINA RESULT:      -5.3      2.944      4.728
  Name = 
  22 active torsions:
  status: ('A' for Active; 'I' for Inactive)
    1  A    between atoms: C_2  and  C_22
    2  A    between atoms: C_3  and  O_18
    3  A    between atoms: C_3  and  C_25
    4  A    between atoms: C_3  and  C_53
    5  A    between atoms: C_4  and  C_7
    6  A    between atoms: C_5  and  N_16
    7  A    between atoms: C_5  and  C_53
    8  A    between atoms: C_11  and  C_14
    9  A    between atoms: C_12  and  C_17
   10  A    between atoms: C_12  and  C_45
   11  A    between atoms: C_14  and  O_18
   12  A    between atoms: C_17  and  C_26
   13  A    between atoms: C_19  and  C_38
   14  A    between atoms: C_22  and  C_48
   15  A    between atoms: C_22  and  C_54
   16  A    between atoms: C_26  and  O_31
   17  A    between atoms: O_31  and  C_44
   18  A    between atoms: C_33  and  C_39
   19  A    between atoms: C_35  and  C_52
   20  A    between atoms: C_39  and  C_44
   21  A    between atoms: C_40  and  C_41
   22  A    between atoms: C_40  and  C_54
                            x       y       z     vdW  Elec       q    Type
                         _______ _______ _______ _____ _____    ______ ____

>  <TORSDO>
F 22

$$$$
=
 OpenBabel11042414553D

 55 59  0  0  1  0  0  0  0  0999 V2000
  184.6700  177.7960  141.8170 C   0  0  2  0  0  3  0  0  0  0  0  0
  183.4760  178.6920  141.4170 C   0  0  2  0  0  3  0  0  0  0  0  0
  182.2060  177.9220  141.3770 C   0  0  2  0  0  3  0  0  0  0  0  0
  182.8840  178.2950  140.2000 O   0  0  0  0  0  0  0  0  0  0  0  0
  181.0370  178.8620  141.6290 C   0  0  0  0  0  2  0  0  0  0  0  0
  180.0660  178.8640  140.4580 C   0  0  0  0  0  2  0  0  0  0  0  0
  179.8270  177.5520  140.0290 O   0  0  0  0  0  0  0  0  0  0  0  0
  178.6000  177.6280  139.3690 C   0  0  0  0  0  2  0  0  0  0  0  0
  177.9840  176.2420  139.2450 C   0  0  0  0  0  2  0  0  0  0  0  0
  177.8800  175.8010  137.7870 C   0  0  1  0  0  3  0  0  0  0  0  0
  178.1670  176.8790  136.9450 O   0  0  0  0  0  1  0  0  0  0  0  0
  180.2080  175.0660  137.1270 C   0  0  0  0  0  1  0  0  0  0  0  0
  178.7970  174.6190  137.4760 C   0  0  2  0  0  3  0  0  0  0  0  0
  178.2720  173.8740  136.4180 O   0  0  0  0  0  1  0  0  0  0  0  0
  185.3650  179.6590  143.1630 O   0  0  0  0  0  1  0  0  0  0  0  0
  185.4690  178.2750  143.0410 C   0  0  1  0  0  3  0  0  0  0  0  0
  184.9570  177.6220  144.3160 C   0  0  0  0  0  2  0  0  0  0  0  0
  188.1010  177.5620  146.4050 C   0  0  1  0  0  3  0  0  0  0  0  0
  187.4100  177.8040  145.0410 C   0  0  0  0  0  2  0  0  0  0  0  0
  187.1320  176.8830  147.2590 N   0  0  0  0  0  2  0  0  0  0  0  0
  186.0570  177.3000  145.2050 N   0  0  0  0  0  0  0  0  0  0  0  0
  184.8680  176.3250  146.9840 O   0  0  0  0  0  0  0  0  0  0  0  0
  185.9360  176.7940  146.5150 C   0  0  0  0  0  0  0  0  0  0  0  0
  189.3500  176.7530  146.2680 C   0  0  0  0  0  3  0  0  0  0  0  0
  190.3860  177.1530  145.5360 C   0  0  0  0  0  3  0  0  0  0  0  0
  191.8370  174.5400  143.5550 C   0  0  0  0  0  3  0  0  0  0  0  0
  191.5640  176.3050  145.4530 C   0  0  0  0  0  3  0  0  0  0  0  0
  191.6830  175.4220  144.5030 C   0  0  0  0  0  0  0  0  0  0  0  0
  193.1790  173.9310  143.2320 C   0  0  1  0  0  3  0  0  0  0  0  0
  193.5000  172.3400  145.0060 O   0  0  0  0  0  1  0  0  0  0  0  0
  194.5510  171.8040  142.9450 C   0  0  0  0  0  1  0  0  0  0  0  0
  192.2000  171.7400  143.2490 O   0  0  0  0  0  1  0  0  0  0  0  0
  193.3460  172.4440  143.6210 C   0  0  0  0  0  0  0  0  0  0  0  0
  193.7260  174.3200  141.8500 C   0  0  0  0  0  2  0  0  0  0  0  0
  194.6920  175.4950  141.8990 C   0  0  0  0  0  2  0  0  0  0  0  0
  196.5310  176.5050  143.2070 C   0  0  0  0  0  1  0  0  0  0  0  0
  195.3500  175.5570  143.2610 C   0  0  0  0  0  2  0  0  0  0  0  0
  185.5180  177.6070  140.7140 O   0  0  0  0  0  0  0  0  0  0  0  0
  186.8190  177.6910  141.2230 C   0  0  0  0  0  2  0  0  0  0  0  0
  188.4000  175.8420  142.1090 C   0  0  0  0  0  2  0  0  0  0  0  0
  187.5340  176.4010  141.0120 C   0  0  0  0  0  0  0  0  0  0  0  0
  188.4610  174.3100  142.0400 C   0  0  0  0  0  2  0  0  0  0  0  0
  187.5020  175.8060  139.8150 C   0  0  0  0  0  3  0  0  0  0  0  0
  188.1900  174.5210  139.5960 C   0  0  0  0  0  3  0  0  0  0  0  0
  188.6920  173.8310  140.6260 C   0  0  0  0  0  0  0  0  0  0  0  0
  189.7730  171.1880  136.9900 C   0  0  0  0  0  3  0  0  0  0  0  0
  192.1760  171.5310  136.7200 C   0  0  0  0  0  3  0  0  0  0  0  0
  189.8850  171.7470  138.2630 C   0  0  0  0  0  0  0  0  0  0  0  0
  191.0790  172.1870  138.7590 C   0  0  0  0  0  0  0  0  0  0  0  0
  188.8650  171.9320  139.1680 O   0  0  0  0  0  0  0  0  0  0  0  0
  190.9390  171.0800  136.2140 C   0  0  0  0  0  3  0  0  0  0  0  0
  190.8880  172.7310  140.1290 C   0  0  0  0  0  2  0  0  0  0  0  0
  192.2530  172.0920  138.0050 C   0  0  0  0  0  0  0  0  0  0  0  0
  189.3740  172.5280  140.3620 C   0  0  1  0  0  3  0  0  0  0  0  0
  193.7900  172.6660  138.6250 Cl  0  0  0  0  0  0  0  0  0  0  0  0
  1 38  1  6  0  0  0
  1 16  1  0  0  0  0
  2  1  1  1  0  0  0
  3  2  1  0  0  0  0
  3  5  1  6  0  0  0
  4  3  1  0  0  0  0
  4  2  1  0  0  0  0
  6  5  1  0  0  0  0
  7  6  1  0  0  0  0
  8  7  1  0  0  0  0
  9  8  1  0  0  0  0
 10 11  1  6  0  0  0
 10  9  1  0  0  0  0
 13 12  1  6  0  0  0
 13 10  1  0  0  0  0
 14 13  1  0  0  0  0
 16 15  1  1  0  0  0
 16 17  1  0  0  0  0
 17 21  1  0  0  0  0
 18 24  1  6  0  0  0
 18 20  1  0  0  0  0
 19 21  1  0  0  0  0
 19 18  1  0  0  0  0
 21 23  1  0  0  0  0
 23 22  2  0  0  0  0
 23 20  1  0  0  0  0
 25 24  2  0  0  0  0
 26 28  2  0  0  0  0
 27 25  1  0  0  0  0
 28 27  2  0  0  0  0
 29 34  1  6  0  0  0
 29 26  1  0  0  0  0
 29 33  1  0  0  0  0
 31 33  1  0  0  0  0
 32 33  1  0  0  0  0
 33 30  1  0  0  0  0
 34 35  1  0  0  0  0
 35 37  1  0  0  0  0
 36 37  1  0  0  0  0
 38 39  1  0  0  0  0
 41 39  1  0  0  0  0
 41 40  1  0  0  0  0
 42 40  1  0  0  0  0
 43 41  2  0  0  0  0
 44 43  1  0  0  0  0
 44 45  2  0  0  0  0
 45 42  1  0  0  0  0
 46 48  1  0  0  0  0
 47 53  2  0  0  0  0
 48 49  2  0  0  0  0
 48 50  1  0  0  0  0
 49 52  1  0  0  0  0
 50 54  1  0  0  0  0
 51 47  1  0  0  0  0
 51 46  2  0  0  0  0
 52 54  1  0  0  0  0
 53 55  1  0  0  0  0
 53 49  1  0  0  0  0
 54 45  1  6  0  0  0
M  END
>  <MODEL>
7

>  <REMARK>
 VINA RESULT:      -5.2      4.252      7.223
  Name = 
  22 active torsions:
  status: ('A' for Active; 'I' for Inactive)
    1  A    between atoms: C_2  and  C_22
    2  A    between atoms: C_3  and  O_18
    3  A    between atoms: C_3  and  C_25
    4  A    between atoms: C_3  and  C_53
    5  A    between atoms: C_4  and  C_7
    6  A    between atoms: C_5  and  N_16
    7  A    between atoms: C_5  and  C_53
    8  A    between atoms: C_11  and  C_14
    9  A    between atoms: C_12  and  C_17
   10  A    between atoms: C_12  and  C_45
   11  A    between atoms: C_14  and  O_18
   12  A    between atoms: C_17  and  C_26
   13  A    between atoms: C_19  and  C_38
   14  A    between atoms: C_22  and  C_48
   15  A    between atoms: C_22  and  C_54
   16  A    between atoms: C_26  and  O_31
   17  A    between atoms: O_31  and  C_44
   18  A    between atoms: C_33  and  C_39
   19  A    between atoms: C_35  and  C_52
   20  A    between atoms: C_39  and  C_44
   21  A    between atoms: C_40  and  C_41
   22  A    between atoms: C_40  and  C_54
                            x       y       z     vdW  Elec       q    Type
                         _______ _______ _______ _____ _____    ______ ____

>  <TORSDO>
F 22

$$$$
=
 OpenBabel11042414553D

 55 59  0  0  1  0  0  0  0  0999 V2000
  187.8410  176.4440  141.8360 C   0  0  2  0  0  3  0  0  0  0  0  0
  187.0790  177.6590  141.2600 C   0  0  2  0  0  3  0  0  0  0  0  0
  185.7270  177.2750  140.7780 C   0  0  2  0  0  3  0  0  0  0  0  0
  186.7910  177.5170  139.8870 O   0  0  0  0  0  0  0  0  0  0  0  0
  184.8070  178.4860  140.8370 C   0  0  0  0  0  2  0  0  0  0  0  0
  183.7170  178.3030  141.8820 C   0  0  0  0  0  2  0  0  0  0  0  0
  184.2880  178.1310  143.1490 O   0  0  0  0  0  0  0  0  0  0  0  0
  184.5020  179.4330  143.6050 C   0  0  0  0  0  2  0  0  0  0  0  0
  185.7450  179.4850  144.4810 C   0  0  0  0  0  2  0  0  0  0  0  0
  185.4200  179.1640  145.9380 C   0  0  1  0  0  3  0  0  0  0  0  0
  184.0370  179.0600  146.1030 O   0  0  0  0  0  1  0  0  0  0  0  0
  185.1970  176.6780  146.3440 C   0  0  0  0  0  1  0  0  0  0  0  0
  186.1150  177.8890  146.4150 C   0  0  2  0  0  3  0  0  0  0  0  0
  186.5630  178.0530  147.7270 O   0  0  0  0  0  1  0  0  0  0  0  0
  188.5850  178.0720  143.4360 O   0  0  0  0  0  1  0  0  0  0  0  0
  188.7630  176.7520  143.0280 C   0  0  1  0  0  3  0  0  0  0  0  0
  188.4690  175.8240  144.1980 C   0  0  0  0  0  2  0  0  0  0  0  0
  191.6840  176.3540  146.1040 C   0  0  1  0  0  3  0  0  0  0  0  0
  190.9460  176.1910  144.7540 C   0  0  0  0  0  2  0  0  0  0  0  0
  190.7470  175.9640  147.1530 N   0  0  0  0  0  2  0  0  0  0  0  0
  189.6000  175.7680  145.1040 N   0  0  0  0  0  0  0  0  0  0  0  0
  188.4750  175.3690  147.1310 O   0  0  0  0  0  0  0  0  0  0  0  0
  189.5250  175.6710  146.5090 C   0  0  0  0  0  0  0  0  0  0  0  0
  192.9290  175.5300  146.1690 C   0  0  0  0  0  3  0  0  0  0  0  0
  194.1220  176.0550  146.4350 C   0  0  0  0  0  3  0  0  0  0  0  0
  195.3920  172.9900  145.0730 C   0  0  0  0  0  3  0  0  0  0  0  0
  195.2860  175.1830  146.4760 C   0  0  0  0  0  3  0  0  0  0  0  0
  195.3210  174.0860  145.7760 C   0  0  0  0  0  0  0  0  0  0  0  0
  196.7000  172.2850  144.8100 C   0  0  1  0  0  3  0  0  0  0  0  0
  197.7040  170.2130  144.1140 O   0  0  0  0  0  1  0  0  0  0  0  0
  195.3360  170.1970  144.2940 C   0  0  0  0  0  1  0  0  0  0  0  0
  196.7710  170.3140  146.1780 O   0  0  0  0  0  1  0  0  0  0  0  0
  196.6430  170.7410  144.8560 C   0  0  0  0  0  0  0  0  0  0  0  0
  197.5110  172.8840  143.6520 C   0  0  0  0  0  2  0  0  0  0  0  0
  196.6640  173.1960  142.4270 C   0  0  0  0  0  2  0  0  0  0  0  0
  197.5540  175.3120  141.5060 C   0  0  0  0  0  1  0  0  0  0  0  0
  197.5350  173.8050  141.3470 C   0  0  0  0  0  2  0  0  0  0  0  0
  188.5520  175.7970  140.8130 O   0  0  0  0  0  0  0  0  0  0  0  0
  188.5280  174.4370  141.1430 C   0  0  0  0  0  2  0  0  0  0  0  0
  191.0630  174.2010  141.6150 C   0  0  0  0  0  2  0  0  0  0  0  0
  189.8430  173.8110  140.8250 C   0  0  0  0  0  0  0  0  0  0  0  0
  192.0770  173.0500  141.6720 C   0  0  0  0  0  2  0  0  0  0  0  0
  189.9600  173.0000  139.7690 C   0  0  0  0  0  3  0  0  0  0  0  0
  191.2490  172.3590  139.4520 C   0  0  0  0  0  3  0  0  0  0  0  0
  192.2710  172.4190  140.3140 C   0  0  0  0  0  0  0  0  0  0  0  0
  194.3420  170.7250  136.5430 C   0  0  0  0  0  3  0  0  0  0  0  0
  196.0460  172.3930  136.0200 C   0  0  0  0  0  3  0  0  0  0  0  0
  194.2260  171.3080  137.8050 C   0  0  0  0  0  0  0  0  0  0  0  0
  194.9760  172.3880  138.1760 C   0  0  0  0  0  0  0  0  0  0  0  0
  193.3840  170.9080  138.8180 O   0  0  0  0  0  0  0  0  0  0  0  0
  195.2680  171.2780  135.6450 C   0  0  0  0  0  3  0  0  0  0  0  0
  194.6340  172.7880  139.5660 C   0  0  0  0  0  2  0  0  0  0  0  0
  195.9030  172.9590  137.2980 C   0  0  0  0  0  0  0  0  0  0  0  0
  193.5590  171.7490  139.9590 C   0  0  1  0  0  3  0  0  0  0  0  0
  196.8610  174.3550  137.7560 Cl  0  0  0  0  0  0  0  0  0  0  0  0
  1 38  1  6  0  0  0
  1 16  1  0  0  0  0
  2  1  1  1  0  0  0
  3  5  1  6  0  0  0
  3  2  1  0  0  0  0
  4  3  1  0  0  0  0
  4  2  1  0  0  0  0
  5  6  1  0  0  0  0
  6  7  1  0  0  0  0
  7  8  1  0  0  0  0
  8  9  1  0  0  0  0
  9 10  1  0  0  0  0
 10 11  1  6  0  0  0
 10 13  1  0  0  0  0
 13 12  1  1  0  0  0
 13 14  1  0  0  0  0
 16 15  1  1  0  0  0
 16 17  1  0  0  0  0
 17 21  1  0  0  0  0
 18 24  1  6  0  0  0
 18 20  1  0  0  0  0
 19 21  1  0  0  0  0
 19 18  1  0  0  0  0
 21 23  1  0  0  0  0
 23 22  2  0  0  0  0
 23 20  1  0  0  0  0
 24 25  2  0  0  0  0
 25 27  1  0  0  0  0
 26 28  2  0  0  0  0
 28 27  2  0  0  0  0
 29 34  1  6  0  0  0
 29 33  1  0  0  0  0
 29 26  1  0  0  0  0
 30 33  1  0  0  0  0
 31 33  1  0  0  0  0
 33 32  1  0  0  0  0
 35 34  1  0  0  0  0
 37 36  1  0  0  0  0
 37 35  1  0  0  0  0
 38 39  1  0  0  0  0
 40 42  1  0  0  0  0
 41 39  1  0  0  0  0
 41 40  1  0  0  0  0
 43 41  2  0  0  0  0
 44 43  1  0  0  0  0
 44 45  2  0  0  0  0
 45 42  1  0  0  0  0
 46 48  1  0  0  0  0
 47 53  2  0  0  0  0
 48 49  2  0  0  0  0
 48 50  1  0  0  0  0
 49 52  1  0  0  0  0
 50 54  1  0  0  0  0
 51 47  1  0  0  0  0
 51 46  2  0  0  0  0
 52 54  1  0  0  0  0
 53 55  1  0  0  0  0
 53 49  1  0  0  0  0
 54 45  1  6  0  0  0
M  END
>  <MODEL>
8

>  <REMARK>
 VINA RESULT:      -5.2      2.466      4.589
  Name = 
  22 active torsions:
  status: ('A' for Active; 'I' for Inactive)
    1  A    between atoms: C_2  and  C_22
    2  A    between atoms: C_3  and  O_18
    3  A    between atoms: C_3  and  C_25
    4  A    between atoms: C_3  and  C_53
    5  A    between atoms: C_4  and  C_7
    6  A    between atoms: C_5  and  N_16
    7  A    between atoms: C_5  and  C_53
    8  A    between atoms: C_11  and  C_14
    9  A    between atoms: C_12  and  C_17
   10  A    between atoms: C_12  and  C_45
   11  A    between atoms: C_14  and  O_18
   12  A    between atoms: C_17  and  C_26
   13  A    between atoms: C_19  and  C_38
   14  A    between atoms: C_22  and  C_48
   15  A    between atoms: C_22  and  C_54
   16  A    between atoms: C_26  and  O_31
   17  A    between atoms: O_31  and  C_44
   18  A    between atoms: C_33  and  C_39
   19  A    between atoms: C_35  and  C_52
   20  A    between atoms: C_39  and  C_44
   21  A    between atoms: C_40  and  C_41
   22  A    between atoms: C_40  and  C_54
                            x       y       z     vdW  Elec       q    Type
                         _______ _______ _______ _____ _____    ______ ____

>  <TORSDO>
F 22

$$$$
=
 OpenBabel11042414553D

 55 59  0  0  1  0  0  0  0  0999 V2000
  187.8760  176.7170  142.3550 C   0  0  2  0  0  3  0  0  0  0  0  0
  186.6330  177.3440  143.0260 C   0  0  2  0  0  3  0  0  0  0  0  0
  185.7210  177.9520  142.0230 C   0  0  2  0  0  3  0  0  0  0  0  0
  186.5600  178.7400  142.8360 O   0  0  0  0  0  0  0  0  0  0  0  0
  184.3020  177.9620  142.5710 C   0  0  0  0  0  2  0  0  0  0  0  0
  184.0950  179.1040  143.5540 C   0  0  0  0  0  2  0  0  0  0  0  0
  183.8860  178.5980  144.8430 O   0  0  0  0  0  0  0  0  0  0  0  0
  184.6600  179.4200  145.6620 C   0  0  0  0  0  2  0  0  0  0  0  0
  184.8720  178.7630  147.0180 C   0  0  0  0  0  2  0  0  0  0  0  0
  186.3180  178.3080  147.2030 C   0  0  1  0  0  3  0  0  0  0  0  0
  186.8480  178.8770  148.3650 O   0  0  0  0  0  1  0  0  0  0  0  0
  187.7910  176.3080  146.7300 C   0  0  0  0  0  1  0  0  0  0  0  0
  186.4420  176.7860  147.2470 C   0  0  2  0  0  3  0  0  0  0  0  0
  185.4240  176.2030  146.4920 O   0  0  0  0  0  1  0  0  0  0  0  0
  188.4130  175.5980  140.2990 O   0  0  0  0  0  1  0  0  0  0  0  0
  187.5880  175.5290  141.4200 C   0  0  1  0  0  3  0  0  0  0  0  0
  187.8230  174.2060  142.1330 C   0  0  0  0  0  2  0  0  0  0  0  0
  190.8890  172.1250  141.4070 C   0  0  1  0  0  3  0  0  0  0  0  0
  190.1960  173.2360  142.2320 C   0  0  0  0  0  2  0  0  0  0  0  0
  190.0300  171.8460  140.2610 N   0  0  0  0  0  2  0  0  0  0  0  0
  188.9430  173.4980  141.5430 N   0  0  0  0  0  0  0  0  0  0  0  0
  187.8980  172.6050  139.6340 O   0  0  0  0  0  0  0  0  0  0  0  0
  188.8810  172.6520  140.4160 C   0  0  0  0  0  0  0  0  0  0  0  0
  192.2590  172.5250  140.9640 C   0  0  0  0  0  3  0  0  0  0  0  0
  193.0390  173.3260  141.6830 C   0  0  0  0  0  3  0  0  0  0  0  0
  195.2890  172.6180  138.9820 C   0  0  0  0  0  3  0  0  0  0  0  0
  194.3600  173.6680  141.1770 C   0  0  0  0  0  3  0  0  0  0  0  0
  194.8140  173.1290  140.0830 C   0  0  0  0  0  0  0  0  0  0  0  0
  196.4620  173.2250  138.2520 C   0  0  1  0  0  3  0  0  0  0  0  0
  197.2820  174.4870  136.3750 O   0  0  0  0  0  1  0  0  0  0  0  0
  195.0620  174.9860  137.0570 C   0  0  0  0  0  1  0  0  0  0  0  0
  195.6600  172.9460  136.0070 O   0  0  0  0  0  1  0  0  0  0  0  0
  196.1260  173.9060  136.9050 C   0  0  0  0  0  0  0  0  0  0  0  0
  197.4340  173.9940  139.1590 C   0  0  0  0  0  2  0  0  0  0  0  0
  197.0330  175.4480  139.3670 C   0  0  0  0  0  2  0  0  0  0  0  0
  196.1850  176.7900  141.2630 C   0  0  0  0  0  1  0  0  0  0  0  0
  197.2750  175.8410  140.8100 C   0  0  0  0  0  2  0  0  0  0  0  0
  188.8190  176.3610  143.3320 O   0  0  0  0  0  0  0  0  0  0  0  0
  189.9400  177.1610  143.0790 C   0  0  0  0  0  2  0  0  0  0  0  0
  190.9960  175.8310  145.0340 C   0  0  0  0  0  2  0  0  0  0  0  0
  191.1430  176.5750  143.7340 C   0  0  0  0  0  0  0  0  0  0  0  0
  192.0820  174.7570  145.1840 C   0  0  0  0  0  2  0  0  0  0  0  0
  192.3600  176.8110  143.2320 C   0  0  0  0  0  3  0  0  0  0  0  0
  193.5580  176.2240  143.8580 C   0  0  0  0  0  3  0  0  0  0  0  0
  193.4430  175.2950  144.8140 C   0  0  0  0  0  0  0  0  0  0  0  0
  195.1820  171.1190  145.7700 C   0  0  0  0  0  3  0  0  0  0  0  0
  196.8870  170.7950  144.0510 C   0  0  0  0  0  3  0  0  0  0  0  0
  195.1770  172.4750  145.4400 C   0  0  0  0  0  0  0  0  0  0  0  0
  195.9800  172.9860  144.4610 C   0  0  0  0  0  0  0  0  0  0  0  0
  194.4020  173.4540  146.0190 O   0  0  0  0  0  0  0  0  0  0  0  0
  196.0540  170.2740  145.0630 C   0  0  0  0  0  3  0  0  0  0  0  0
  195.7530  174.4500  144.3350 C   0  0  0  0  0  2  0  0  0  0  0  0
  196.8540  172.1650  143.7430 C   0  0  0  0  0  0  0  0  0  0  0  0
  194.6830  174.7180  145.4170 C   0  0  1  0  0  3  0  0  0  0  0  0
  197.8810  172.8070  142.4730 Cl  0  0  0  0  0  0  0  0  0  0  0  0
  1 38  1  1  0  0  0
  2  1  1  6  0  0  0
  3  5  1  1  0  0  0
  3  4  1  0  0  0  0
  3  2  1  0  0  0  0
  4  2  1  0  0  0  0
  5  6  1  0  0  0  0
  6  7  1  0  0  0  0
  7  8  1  0  0  0  0
  8  9  1  0  0  0  0
  9 10  1  0  0  0  0
 10 13  1  0  0  0  0
 10 11  1  1  0  0  0
 13 12  1  6  0  0  0
 14 13  1  0  0  0  0
 16 15  1  6  0  0  0
 16 17  1  0  0  0  0
 16  1  1  0  0  0  0
 18 24  1  6  0  0  0
 18 19  1  0  0  0  0
 20 23  1  0  0  0  0
 20 18  1  0  0  0  0
 21 17  1  0  0  0  0
 21 19  1  0  0  0  0
 22 23  2  0  0  0  0
 23 21  1  0  0  0  0
 24 25  2  0  0  0  0
 26 28  2  0  0  0  0
 27 25  1  0  0  0  0
 28 27  2  0  0  0  0
 29 26  1  1  0  0  0
 29 34  1  0  0  0  0
 30 33  1  0  0  0  0
 32 33  1  0  0  0  0
 33 31  1  0  0  0  0
 33 29  1  0  0  0  0
 34 35  1  0  0  0  0
 35 37  1  0  0  0  0
 37 36  1  0  0  0  0
 39 38  1  0  0  0  0
 39 41  1  0  0  0  0
 40 42  1  0  0  0  0
 41 40  1  0  0  0  0
 43 41  2  0  0  0  0
 43 44  1  0  0  0  0
 44 45  2  0  0  0  0
 45 42  1  0  0  0  0
 47 51  1  0  0  0  0
 48 46  1  0  0  0  0
 48 50  1  0  0  0  0
 49 48  2  0  0  0  0
 51 46  2  0  0  0  0
 52 49  1  0  0  0  0
 52 54  1  0  0  0  0
 53 47  2  0  0  0  0
 53 49  1  0  0  0  0
 54 45  1  6  0  0  0
 54 50  1  0  0  0  0
 55 53  1  0  0  0  0
M  END
>  <MODEL>
9

>  <REMARK>
 VINA RESULT:      -5.2      2.575      4.347
  Name = 
  22 active torsions:
  status: ('A' for Active; 'I' for Inactive)
    1  A    between atoms: C_2  and  C_22
    2  A    between atoms: C_3  and  O_18
    3  A    between atoms: C_3  and  C_25
    4  A    between atoms: C_3  and  C_53
    5  A    between atoms: C_4  and  C_7
    6  A    between atoms: C_5  and  N_16
    7  A    between atoms: C_5  and  C_53
    8  A    between atoms: C_11  and  C_14
    9  A    between atoms: C_12  and  C_17
   10  A    between atoms: C_12  and  C_45
   11  A    between atoms: C_14  and  O_18
   12  A    between atoms: C_17  and  C_26
   13  A    between atoms: C_19  and  C_38
   14  A    between atoms: C_22  and  C_48
   15  A    between atoms: C_22  and  C_54
   16  A    between atoms: C_26  and  O_31
   17  A    between atoms: O_31  and  C_44
   18  A    between atoms: C_33  and  C_39
   19  A    between atoms: C_35  and  C_52
   20  A    between atoms: C_39  and  C_44
   21  A    between atoms: C_40  and  C_41
   22  A    between atoms: C_40  and  C_54
                            x       y       z     vdW  Elec       q    Type
                         _______ _______ _______ _____ _____    ______ ____

>  <TORSDO>
F 22

$$$$
