=
 OpenBabel11042417383D

 54 59  0  0  1  0  0  0  0  0999 V2000
  190.9270  174.1470  141.9230 C   0  0  0  0  0  2  0  0  0  0  0  0
  196.8480  173.8730  139.3150 N   0  0  0  0  0  2  0  0  0  0  0  0
  195.5570  173.2780  138.9850 C   0  0  1  0  0  3  0  0  0  0  0  0
  195.0650  174.5030  141.9810 N   0  0  0  0  0  0  0  0  0  0  0  0
  193.5210  173.4430  137.5570 C   0  0  0  0  0  2  0  0  0  0  0  0
  191.4970  176.2980  144.3340 C   0  0  2  0  0  3  0  0  0  0  0  0
  197.9410  174.9650  143.6320 C   0  0  0  0  0  1  0  0  0  0  0  0
  191.1080  172.6420  141.6840 C   0  0  2  0  0  3  0  0  0  0  0  0
  195.9530  176.2920  143.2090 N   0  0  0  0  0  2  0  0  0  0  0  0
  190.0310  174.5140  143.1290 C   0  0  2  0  0  0  0  0  0  0  0  0
  189.8890  172.0480  143.8470 C   0  0  0  0  0  2  0  0  0  0  0  0
  190.6630  171.1830  140.0500 C   0  0  0  0  0  2  0  0  0  0  0  0
  193.5980  176.0620  143.0430 C   0  0  0  0  0  0  0  0  0  0  0  0
  194.7900  174.1610  138.0060 C   0  0  0  0  0  2  0  0  0  0  0  0
  197.0830  175.6290  142.5730 C   0  0  2  0  0  3  0  0  0  0  0  0
  196.6470  175.0110  140.2070 C   0  0  0  0  0  2  0  0  0  0  0  0
  191.7780  170.7060  137.8950 C   0  0  0  0  0  2  0  0  0  0  0  0
  194.6220  172.1180  135.8770 O   0  0  0  0  0  1  0  0  0  0  0  0
  190.0780  172.1650  140.8610 O   0  0  0  0  0  0  0  0  0  0  0  0
  194.7930  175.5600  142.8790 C   0  0  0  0  0  0  0  0  0  0  0  0
  190.9270  174.8710  144.3330 C   0  0  0  0  0  2  0  0  0  0  0  0
  191.1610  171.8730  143.0080 C   0  0  0  0  0  2  0  0  0  0  0  0
  191.1290  171.7900  138.7390 C   0  0  0  0  0  2  0  0  0  0  0  0
  193.8500  172.0270  137.0440 C   0  0  1  0  0  0  0  0  0  0  0  0
  196.4840  174.5530  141.6500 C   0  0  2  0  0  3  0  0  0  0  0  0
  192.4180  176.6050  143.1870 C   0  0  0  0  0  3  0  0  0  0  0  0
  189.1250  173.3390  143.5360 C   0  0  0  0  0  2  0  0  0  0  0  0
  195.7860  171.9220  138.3280 C   0  0  0  0  0  2  0  0  0  0  0  0
  194.3370  173.2470  142.0230 C   0  0  0  0  0  1  0  0  0  0  0  0
  194.5530  171.2930  138.0380 O   0  0  0  0  0  0  0  0  0  0  0  0
  192.5580  171.2600  136.6970 C   0  0  2  0  0  3  0  0  0  0  0  0
  192.2670  175.5010  146.6220 C   0  0  0  0  0  1  0  0  0  0  0  0
  192.0750  176.6930  145.6950 C   0  0  0  0  0  2  0  0  0  0  0  0
  191.8280  173.0800  135.3590 O   0  0  0  0  0  0  0  0  0  0  0  0
  191.6860  171.9020  135.6530 C   0  0  0  0  0  0  0  0  0  0  0  0
  190.6340  171.0840  134.9770 C   0  0  0  0  0  2  0  0  0  0  0  0
  189.2620  171.6800  135.2330 C   0  0  0  0  0  1  0  0  0  0  0  0
  189.1230  175.7010  142.7750 C   0  0  0  0  0  2  0  0  0  0  0  0
  187.7850  175.2760  142.1760 C   0  0  0  0  0  2  0  0  0  0  0  0
  187.3420  176.2690  141.2100 N   0  0  0  0  0  2  0  0  0  0  0  0
  186.5180  178.3790  140.7230 O   0  0  0  0  0  0  0  0  0  0  0  0
  186.5990  177.4440  141.5600 C   0  0  0  0  0  0  0  0  0  0  0  0
  184.7730  177.1200  143.0510 O   0  0  0  0  0  0  0  0  0  0  0  0
  185.9280  177.5870  142.8680 C   0  0  0  0  0  0  0  0  0  0  0  0
  186.6130  178.2930  143.9990 C   0  0  0  0  0  2  0  0  0  0  0  0
  187.1290  176.2470  145.3830 C   0  0  0  0  0  2  0  0  0  0  0  0
  184.9880  177.3900  145.6280 N   0  0  0  0  0  2  0  0  0  0  0  0
  187.9600  177.5420  147.2370 C   0  0  0  0  0  2  0  0  0  0  0  0
  184.5030  178.5880  146.2950 C   0  0  0  0  0  2  0  0  0  0  0  0
  188.5900  175.1480  147.0680 C   0  0  0  0  0  1  0  0  0  0  0  0
  188.3280  176.4230  146.2910 C   0  0  1  0  0  3  0  0  0  0  0  0
  185.7300  179.0840  147.5280 S   0  0  0  0  0  0  0  0  0  0  0  0
  186.4090  177.5910  145.3490 C   0  0  2  0  0  0  0  0  0  0  0  0
  187.0340  178.4450  146.4480 C   0  0  2  0  0  3  0  0  0  0  0  0
  1 10  1  0  0  0  0
  2 16  1  0  0  0  0
  3 14  1  6  0  0  0
  3  2  1  0  0  0  0
  4 29  1  0  0  0  0
  4 20  1  0  0  0  0
  5 14  1  0  0  0  0
  6 33  1  1  0  0  0
  8  1  1  1  0  0  0
  8 22  1  0  0  0  0
 10 38  1  6  0  0  0
 10 27  1  0  0  0  0
 10 21  1  0  0  0  0
 12 19  1  0  0  0  0
 13 26  2  0  0  0  0
 15  9  1  0  0  0  0
 15  7  1  1  0  0  0
 17 23  1  0  0  0  0
 19  8  1  0  0  0  0
 20 13  2  0  0  0  0
 20  9  1  0  0  0  0
 21  6  1  0  0  0  0
 22 11  1  0  0  0  0
 23 12  1  0  0  0  0
 24 18  1  6  0  0  0
 24  5  1  0  0  0  0
 24 30  1  0  0  0  0
 25 16  1  6  0  0  0
 25  4  1  0  0  0  0
 25 15  1  0  0  0  0
 26  6  1  0  0  0  0
 27 11  1  0  0  0  0
 28  3  1  0  0  0  0
 30 28  1  0  0  0  0
 31 35  1  1  0  0  0
 31 24  1  0  0  0  0
 31 17  1  0  0  0  0
 33 32  1  0  0  0  0
 34 35  2  0  0  0  0
 36 37  1  0  0  0  0
 36 35  1  0  0  0  0
 39 38  1  0  0  0  0
 40 42  1  0  0  0  0
 40 39  1  0  0  0  0
 41 42  2  0  0  0  0
 42 44  1  0  0  0  0
 44 43  2  0  0  0  0
 44 45  1  0  0  0  0
 46 51  1  0  0  0  0
 47 49  1  0  0  0  0
 49 52  1  0  0  0  0
 51 50  1  1  0  0  0
 51 48  1  0  0  0  0
 53 45  1  6  0  0  0
 53 46  1  0  0  0  0
 53 47  1  0  0  0  0
 53 54  1  0  0  0  0
 54 48  1  1  0  0  0
 54 52  1  0  0  0  0
M  END
>  <MODEL>
1

>  <REMARK>
 VINA RESULT:      -8.0      0.000      0.000
  Name = 
  9 active torsions:
  status: ('A' for Active; 'I' for Inactive)
    1  A    between atoms: N_1  and  C_45
    2  A    between atoms: C_2  and  C_18
    3  A    between atoms: C_2  and  C_45
    4  A    between atoms: C_8  and  C_36
    5  A    between atoms: C_13  and  C_50
    6  A    between atoms: C_38  and  C_39
    7  A    between atoms: C_39  and  C_41
    8  A    between atoms: C_41  and  C_48
    9  A    between atoms: C_50  and  C_53
                            x       y       z     vdW  Elec       q    Type
                         _______ _______ _______ _____ _____    ______ ____

>  <TORSDO>
F 9

$$$$
=
 OpenBabel11042417383D

 54 59  0  0  1  0  0  0  0  0999 V2000
  191.1430  173.6450  141.9430 C   0  0  0  0  0  2  0  0  0  0  0  0
  197.5400  174.6340  141.7680 N   0  0  0  0  0  2  0  0  0  0  0  0
  196.5410  174.2330  140.7840 C   0  0  1  0  0  3  0  0  0  0  0  0
  194.9270  173.9890  143.6220 N   0  0  0  0  0  0  0  0  0  0  0  0
  195.0640  174.9930  138.9260 C   0  0  0  0  0  2  0  0  0  0  0  0
  190.5480  174.5040  145.0530 C   0  0  2  0  0  3  0  0  0  0  0  0
  197.0110  173.7010  146.2260 C   0  0  0  0  0  1  0  0  0  0  0  0
  191.6440  172.4070  141.1870 C   0  0  2  0  0  3  0  0  0  0  0  0
  195.0630  175.0540  145.7060 N   0  0  0  0  0  2  0  0  0  0  0  0
  189.8630  173.4260  142.7820 C   0  0  2  0  0  0  0  0  0  0  0  0
  189.9230  170.8970  142.3160 C   0  0  0  0  0  2  0  0  0  0  0  0
  191.9920  171.8240  139.0570 C   0  0  0  0  0  2  0  0  0  0  0  0
  192.9570  174.8930  144.6270 C   0  0  0  0  0  0  0  0  0  0  0  0
  195.9840  175.4500  140.0520 C   0  0  0  0  0  2  0  0  0  0  0  0
  196.4320  174.7580  145.3050 C   0  0  2  0  0  3  0  0  0  0  0  0
  196.8770  175.2540  142.9120 C   0  0  0  0  0  2  0  0  0  0  0  0
  193.7950  172.3710  137.4560 C   0  0  0  0  0  2  0  0  0  0  0  0
  196.8470  174.5690  137.3670 O   0  0  0  0  0  1  0  0  0  0  0  0
  191.0230  172.3340  139.9310 O   0  0  0  0  0  0  0  0  0  0  0  0
  194.2100  174.5320  144.7110 C   0  0  0  0  0  0  0  0  0  0  0  0
  190.2580  173.2200  144.2590 C   0  0  0  0  0  2  0  0  0  0  0  0
  191.4050  171.1290  141.9980 C   0  0  0  0  0  2  0  0  0  0  0  0
  192.7390  172.9570  138.3760 C   0  0  0  0  0  2  0  0  0  0  0  0
  195.7730  173.9570  138.0300 C   0  0  1  0  0  0  0  0  0  0  0  0
  196.3470  174.1980  143.8740 C   0  0  2  0  0  3  0  0  0  0  0  0
  191.7170  175.3000  144.5490 C   0  0  0  0  0  3  0  0  0  0  0  0
  189.0890  172.1820  142.3140 C   0  0  0  0  0  2  0  0  0  0  0  0
  197.1930  173.3150  139.7560 C   0  0  0  0  0  2  0  0  0  0  0  0
  194.4480  172.8370  142.8780 C   0  0  0  0  0  1  0  0  0  0  0  0
  196.2410  172.8660  138.8130 O   0  0  0  0  0  0  0  0  0  0  0  0
  194.8080  173.4090  136.9600 C   0  0  2  0  0  3  0  0  0  0  0  0
  191.0080  175.4900  147.3490 C   0  0  0  0  0  1  0  0  0  0  0  0
  190.5900  174.2580  146.5620 C   0  0  0  0  0  2  0  0  0  0  0  0
  194.1030  175.6040  136.3910 O   0  0  0  0  0  0  0  0  0  0  0  0
  194.2140  174.4390  136.0380 C   0  0  0  0  0  0  0  0  0  0  0  0
  193.7550  174.0230  134.6780 C   0  0  0  0  0  2  0  0  0  0  0  0
  192.2710  174.2980  134.5190 C   0  0  0  0  0  1  0  0  0  0  0  0
  188.9260  174.6350  142.6490 C   0  0  0  0  0  2  0  0  0  0  0  0
  189.1430  175.4230  141.3600 C   0  0  0  0  0  2  0  0  0  0  0  0
  187.8570  175.7970  140.7910 N   0  0  0  0  0  2  0  0  0  0  0  0
  186.3560  177.4200  140.0970 O   0  0  0  0  0  0  0  0  0  0  0  0
  187.3120  177.1210  140.8580 C   0  0  0  0  0  0  0  0  0  0  0  0
  189.0760  178.3390  141.8920 O   0  0  0  0  0  0  0  0  0  0  0  0
  187.8360  178.1390  141.7910 C   0  0  0  0  0  0  0  0  0  0  0  0
  186.9000  178.9510  142.6330 C   0  0  0  0  0  2  0  0  0  0  0  0
  187.0930  177.0600  144.2920 C   0  0  0  0  0  2  0  0  0  0  0  0
  184.9940  177.4520  143.1140 N   0  0  0  0  0  2  0  0  0  0  0  0
  186.2450  178.3890  146.1150 C   0  0  0  0  0  2  0  0  0  0  0  0
  183.8780  178.3780  143.2290 C   0  0  0  0  0  2  0  0  0  0  0  0
  187.5380  176.3350  146.6290 C   0  0  0  0  0  1  0  0  0  0  0  0
  187.4120  177.5250  145.6980 C   0  0  1  0  0  3  0  0  0  0  0  0
  183.9310  179.1270  144.8740 S   0  0  0  0  0  0  0  0  0  0  0  0
  186.1670  178.1100  143.6880 C   0  0  2  0  0  0  0  0  0  0  0  0
  185.7380  179.0200  144.8340 C   0  0  2  0  0  3  0  0  0  0  0  0
  1 10  1  0  0  0  0
  2 16  1  0  0  0  0
  3 28  1  6  0  0  0
  3  2  1  0  0  0  0
  4 25  1  0  0  0  0
  4 20  1  0  0  0  0
  5 14  1  0  0  0  0
  6 33  1  1  0  0  0
  8  1  1  1  0  0  0
  8 22  1  0  0  0  0
 10 38  1  6  0  0  0
 10 21  1  0  0  0  0
 12 19  1  0  0  0  0
 13 20  2  0  0  0  0
 14  3  1  0  0  0  0
 15  9  1  0  0  0  0
 15  7  1  1  0  0  0
 17 23  1  0  0  0  0
 19  8  1  0  0  0  0
 20  9  1  0  0  0  0
 21  6  1  0  0  0  0
 22 11  1  0  0  0  0
 23 12  1  0  0  0  0
 24 18  1  6  0  0  0
 24 30  1  0  0  0  0
 24  5  1  0  0  0  0
 25 16  1  6  0  0  0
 25 15  1  0  0  0  0
 26 13  2  0  0  0  0
 26  6  1  0  0  0  0
 27 11  1  0  0  0  0
 27 10  1  0  0  0  0
 29  4  1  0  0  0  0
 30 28  1  0  0  0  0
 31 35  1  1  0  0  0
 31 17  1  0  0  0  0
 31 24  1  0  0  0  0
 33 32  1  0  0  0  0
 35 34  2  0  0  0  0
 36 35  1  0  0  0  0
 37 36  1  0  0  0  0
 39 38  1  0  0  0  0
 40 42  1  0  0  0  0
 40 39  1  0  0  0  0
 41 42  2  0  0  0  0
 42 44  1  0  0  0  0
 44 43  2  0  0  0  0
 44 45  1  0  0  0  0
 46 51  1  0  0  0  0
 47 49  1  0  0  0  0
 47 53  1  0  0  0  0
 49 52  1  0  0  0  0
 51 48  1  0  0  0  0
 51 50  1  1  0  0  0
 53 45  1  6  0  0  0
 53 46  1  0  0  0  0
 53 54  1  0  0  0  0
 54 52  1  0  0  0  0
 54 48  1  1  0  0  0
M  END
>  <MODEL>
2

>  <REMARK>
 VINA RESULT:      -7.9      1.840      2.406
  Name = 
  9 active torsions:
  status: ('A' for Active; 'I' for Inactive)
    1  A    between atoms: N_1  and  C_45
    2  A    between atoms: C_2  and  C_18
    3  A    between atoms: C_2  and  C_45
    4  A    between atoms: C_8  and  C_36
    5  A    between atoms: C_13  and  C_50
    6  A    between atoms: C_38  and  C_39
    7  A    between atoms: C_39  and  C_41
    8  A    between atoms: C_41  and  C_48
    9  A    between atoms: C_50  and  C_53
                            x       y       z     vdW  Elec       q    Type
                         _______ _______ _______ _____ _____    ______ ____

>  <TORSDO>
F 9

$$$$
=
 OpenBabel11042417383D

 54 59  0  0  1  0  0  0  0  0999 V2000
  191.5880  172.6400  141.0000 C   0  0  0  0  0  2  0  0  0  0  0  0
  197.3110  175.4330  142.1710 N   0  0  0  0  0  2  0  0  0  0  0  0
  196.6890  174.8310  140.9960 C   0  0  1  0  0  3  0  0  0  0  0  0
  194.6940  173.9370  143.4330 N   0  0  0  0  0  0  0  0  0  0  0  0
  195.4490  175.2630  138.8780 C   0  0  0  0  0  2  0  0  0  0  0  0
  190.1660  173.0720  143.9250 C   0  0  2  0  0  3  0  0  0  0  0  0
  196.2150  174.0780  146.4120 C   0  0  0  0  0  1  0  0  0  0  0  0
  192.5700  171.6530  140.3540 C   0  0  2  0  0  3  0  0  0  0  0  0
  194.0970  174.8480  145.5090 N   0  0  0  0  0  2  0  0  0  0  0  0
  190.2910  172.0040  141.5520 C   0  0  2  0  0  0  0  0  0  0  0  0
  191.1850  169.6380  141.0870 C   0  0  0  0  0  2  0  0  0  0  0  0
  193.4860  171.3450  138.3380 C   0  0  0  0  0  2  0  0  0  0  0  0
  192.3870  174.1640  144.0140 C   0  0  0  0  0  0  0  0  0  0  0  0
  195.9530  175.8850  140.1760 C   0  0  0  0  0  2  0  0  0  0  0  0
  195.5430  174.9850  145.4010 C   0  0  2  0  0  3  0  0  0  0  0  0
  196.2840  175.7540  143.1570 C   0  0  0  0  0  2  0  0  0  0  0  0
  195.3260  172.4960  137.1530 C   0  0  0  0  0  2  0  0  0  0  0  0
  197.5480  175.4790  137.7220 O   0  0  0  0  0  1  0  0  0  0  0  0
  192.2580  171.4930  138.9960 O   0  0  0  0  0  0  0  0  0  0  0  0
  193.6490  174.1730  144.3540 C   0  0  0  0  0  0  0  0  0  0  0  0
  190.4310  171.8170  143.0760 C   0  0  0  0  0  2  0  0  0  0  0  0
  192.5640  170.3070  141.0860 C   0  0  0  0  0  2  0  0  0  0  0  0
  193.9840  172.6890  137.8380 C   0  0  0  0  0  2  0  0  0  0  0  0
  196.5940  174.5400  138.1410 C   0  0  1  0  0  0  0  0  0  0  0  0
  195.9100  174.5270  143.9780 C   0  0  2  0  0  3  0  0  0  0  0  0
  191.1240  174.2040  143.6830 C   0  0  0  0  0  3  0  0  0  0  0  0
  190.0260  170.6260  140.9220 C   0  0  0  0  0  2  0  0  0  0  0  0
  197.7710  174.2130  140.1190 C   0  0  0  0  0  2  0  0  0  0  0  0
  194.7330  172.7500  142.5960 C   0  0  0  0  0  1  0  0  0  0  0  0
  197.1990  173.5770  138.9940 O   0  0  0  0  0  0  0  0  0  0  0  0
  196.0630  173.8140  136.8880 C   0  0  2  0  0  3  0  0  0  0  0  0
  189.5980  173.9590  146.2380 C   0  0  0  0  0  1  0  0  0  0  0  0
  189.9820  172.7430  145.4080 C   0  0  0  0  0  2  0  0  0  0  0  0
  194.1940  174.9510  135.9650 O   0  0  0  0  0  0  0  0  0  0  0  0
  195.3850  174.6920  135.8720 C   0  0  0  0  0  0  0  0  0  0  0  0
  196.1850  175.2470  134.7370 C   0  0  0  0  0  2  0  0  0  0  0  0
  196.1560  176.7630  134.7700 C   0  0  0  0  0  1  0  0  0  0  0  0
  189.0840  172.8990  141.2380 C   0  0  0  0  0  2  0  0  0  0  0  0
  189.4500  174.1330  140.4160 C   0  0  0  0  0  2  0  0  0  0  0  0
  188.2510  174.9050  140.1290 N   0  0  0  0  0  2  0  0  0  0  0  0
  186.9960  176.8390  140.3610 O   0  0  0  0  0  0  0  0  0  0  0  0
  187.8670  176.0790  140.8570 C   0  0  0  0  0  0  0  0  0  0  0  0
  189.5340  177.0740  142.2340 O   0  0  0  0  0  0  0  0  0  0  0  0
  188.4610  176.4190  142.1660 C   0  0  0  0  0  0  0  0  0  0  0  0
  187.7930  175.9870  143.4370 C   0  0  0  0  0  2  0  0  0  0  0  0
  186.3710  178.0700  143.5040 C   0  0  0  0  0  2  0  0  0  0  0  0
  188.4510  177.9590  144.7740 N   0  0  0  0  0  2  0  0  0  0  0  0
  185.1970  177.3690  145.4900 C   0  0  0  0  0  2  0  0  0  0  0  0
  188.8910  177.3670  146.0270 C   0  0  0  0  0  2  0  0  0  0  0  0
  184.1830  179.1180  144.0500 C   0  0  0  0  0  1  0  0  0  0  0  0
  184.9850  177.8320  144.0660 C   0  0  1  0  0  3  0  0  0  0  0  0
  187.4250  176.9690  147.0090 S   0  0  0  0  0  0  0  0  0  0  0  0
  187.3180  177.1700  144.2920 C   0  0  2  0  0  0  0  0  0  0  0  0
  186.5220  176.6350  145.4770 C   0  0  2  0  0  3  0  0  0  0  0  0
  1 10  1  0  0  0  0
  2 16  1  0  0  0  0
  3 28  1  6  0  0  0
  3  2  1  0  0  0  0
  4 25  1  0  0  0  0
  4 20  1  0  0  0  0
  5 14  1  0  0  0  0
  6 33  1  1  0  0  0
  8  1  1  1  0  0  0
  8 22  1  0  0  0  0
 10 38  1  6  0  0  0
 10 21  1  0  0  0  0
 12 19  1  0  0  0  0
 13 20  2  0  0  0  0
 14  3  1  0  0  0  0
 15  9  1  0  0  0  0
 15  7  1  1  0  0  0
 17 23  1  0  0  0  0
 19  8  1  0  0  0  0
 20  9  1  0  0  0  0
 21  6  1  0  0  0  0
 22 11  1  0  0  0  0
 23 12  1  0  0  0  0
 24 18  1  6  0  0  0
 24  5  1  0  0  0  0
 24 30  1  0  0  0  0
 25 16  1  6  0  0  0
 25 15  1  0  0  0  0
 26  6  1  0  0  0  0
 26 13  2  0  0  0  0
 27 11  1  0  0  0  0
 27 10  1  0  0  0  0
 29  4  1  0  0  0  0
 30 28  1  0  0  0  0
 31 35  1  1  0  0  0
 31 17  1  0  0  0  0
 31 24  1  0  0  0  0
 33 32  1  0  0  0  0
 35 34  2  0  0  0  0
 36 37  1  0  0  0  0
 36 35  1  0  0  0  0
 39 38  1  0  0  0  0
 40 39  1  0  0  0  0
 40 42  1  0  0  0  0
 41 42  2  0  0  0  0
 42 44  1  0  0  0  0
 44 43  2  0  0  0  0
 44 45  1  0  0  0  0
 46 51  1  0  0  0  0
 46 53  1  0  0  0  0
 47 49  1  0  0  0  0
 49 52  1  0  0  0  0
 51 50  1  1  0  0  0
 51 48  1  0  0  0  0
 53 45  1  6  0  0  0
 53 47  1  0  0  0  0
 53 54  1  0  0  0  0
 54 48  1  1  0  0  0
 54 52  1  0  0  0  0
M  END
>  <MODEL>
3

>  <REMARK>
 VINA RESULT:      -7.4      2.147      3.580
  Name = 
  9 active torsions:
  status: ('A' for Active; 'I' for Inactive)
    1  A    between atoms: N_1  and  C_45
    2  A    between atoms: C_2  and  C_18
    3  A    between atoms: C_2  and  C_45
    4  A    between atoms: C_8  and  C_36
    5  A    between atoms: C_13  and  C_50
    6  A    between atoms: C_38  and  C_39
    7  A    between atoms: C_39  and  C_41
    8  A    between atoms: C_41  and  C_48
    9  A    between atoms: C_50  and  C_53
                            x       y       z     vdW  Elec       q    Type
                         _______ _______ _______ _____ _____    ______ ____

>  <TORSDO>
F 9

$$$$
=
 OpenBabel11042417383D

 54 59  0  0  1  0  0  0  0  0999 V2000
  191.7880  175.0480  142.0350 C   0  0  0  0  0  2  0  0  0  0  0  0
  197.2400  171.9410  140.4390 N   0  0  0  0  0  2  0  0  0  0  0  0
  195.9600  172.1660  139.7750 C   0  0  1  0  0  3  0  0  0  0  0  0
  195.3820  173.1330  142.8490 N   0  0  0  0  0  0  0  0  0  0  0  0
  194.7230  173.5450  138.1090 C   0  0  0  0  0  2  0  0  0  0  0  0
  192.7000  176.2880  144.9330 C   0  0  2  0  0  3  0  0  0  0  0  0
  197.5690  171.8070  145.0100 C   0  0  0  0  0  1  0  0  0  0  0  0
  191.2560  173.7150  141.4920 C   0  0  2  0  0  3  0  0  0  0  0  0
  196.6850  174.0270  144.5810 N   0  0  0  0  0  2  0  0  0  0  0  0
  190.9130  175.7040  143.1290 C   0  0  2  0  0  0  0  0  0  0  0  0
  189.3910  173.6340  143.2330 C   0  0  0  0  0  2  0  0  0  0  0  0
  190.5880  172.9060  139.5180 C   0  0  0  0  0  2  0  0  0  0  0  0
  194.6600  175.1080  143.9840 C   0  0  0  0  0  0  0  0  0  0  0  0
  196.0130  173.4220  138.9110 C   0  0  0  0  0  2  0  0  0  0  0  0
  197.4600  172.9360  144.0050 C   0  0  2  0  0  3  0  0  0  0  0  0
  197.4050  172.9070  141.5210 C   0  0  0  0  0  2  0  0  0  0  0  0
  191.8350  172.1430  137.5240 C   0  0  0  0  0  2  0  0  0  0  0  0
  195.4160  172.0290  136.3740 O   0  0  0  0  0  1  0  0  0  0  0  0
  190.3780  173.9530  140.4250 O   0  0  0  0  0  0  0  0  0  0  0  0
  195.4470  174.0670  143.9070 C   0  0  0  0  0  0  0  0  0  0  0  0
  191.5210  175.3950  144.5120 C   0  0  0  0  0  2  0  0  0  0  0  0
  190.5760  172.8990  142.5970 C   0  0  0  0  0  2  0  0  0  0  0  0
  191.6140  173.3080  138.4740 C   0  0  0  0  0  2  0  0  0  0  0  0
  194.4280  172.2380  137.3480 C   0  0  1  0  0  0  0  0  0  0  0  0
  196.6700  172.4530  142.7750 C   0  0  2  0  0  3  0  0  0  0  0  0
  193.9120  176.1780  144.0520 C   0  0  0  0  0  3  0  0  0  0  0  0
  189.4760  175.1580  143.1040 C   0  0  0  0  0  2  0  0  0  0  0  0
  195.6500  170.9780  138.8720 C   0  0  0  0  0  2  0  0  0  0  0  0
  194.1460  172.4620  142.4840 C   0  0  0  0  0  1  0  0  0  0  0  0
  194.3910  171.1390  138.2500 O   0  0  0  0  0  0  0  0  0  0  0  0
  193.0660  172.3210  136.6280 C   0  0  2  0  0  3  0  0  0  0  0  0
  194.0680  177.1660  146.8860 C   0  0  0  0  0  1  0  0  0  0  0  0
  193.0220  176.1630  146.4230 C   0  0  0  0  0  2  0  0  0  0  0  0
  193.6070  173.4520  134.6120 O   0  0  0  0  0  0  0  0  0  0  0  0
  192.9300  173.4380  135.6300 C   0  0  0  0  0  0  0  0  0  0  0  0
  191.9560  174.5400  135.8960 C   0  0  0  0  0  2  0  0  0  0  0  0
  192.6850  175.8660  136.0110 C   0  0  0  0  0  1  0  0  0  0  0  0
  190.8390  177.2220  142.9110 C   0  0  0  0  0  2  0  0  0  0  0  0
  189.4660  177.8070  143.2300 C   0  0  0  0  0  2  0  0  0  0  0  0
  188.6850  177.9210  142.0080 N   0  0  0  0  0  2  0  0  0  0  0  0
  186.6650  178.2910  140.9330 O   0  0  0  0  0  0  0  0  0  0  0  0
  187.2520  177.8930  141.9730 C   0  0  0  0  0  0  0  0  0  0  0  0
  185.9410  176.2600  143.1030 O   0  0  0  0  0  0  0  0  0  0  0  0
  186.4490  177.4120  143.1150 C   0  0  0  0  0  0  0  0  0  0  0  0
  186.2250  178.2910  144.3090 C   0  0  0  0  0  2  0  0  0  0  0  0
  187.1150  176.2500  145.4970 C   0  0  0  0  0  2  0  0  0  0  0  0
  184.9350  177.1680  146.0930 N   0  0  0  0  0  2  0  0  0  0  0  0
  188.0780  177.5440  147.2880 C   0  0  0  0  0  2  0  0  0  0  0  0
  184.4420  178.2850  146.8840 C   0  0  0  0  0  2  0  0  0  0  0  0
  188.8930  175.2320  146.9050 C   0  0  0  0  0  1  0  0  0  0  0  0
  188.4090  176.5060  146.2410 C   0  0  1  0  0  3  0  0  0  0  0  0
  185.7800  178.8480  147.9630 S   0  0  0  0  0  0  0  0  0  0  0  0
  186.2780  177.5180  145.6350 C   0  0  2  0  0  0  0  0  0  0  0  0
  186.9710  178.3830  146.6820 C   0  0  2  0  0  3  0  0  0  0  0  0
  1 10  1  0  0  0  0
  2 16  1  0  0  0  0
  3 28  1  6  0  0  0
  3  2  1  0  0  0  0
  4 20  1  0  0  0  0
  5 14  1  0  0  0  0
  6 33  1  1  0  0  0
  8  1  1  1  0  0  0
  8 22  1  0  0  0  0
 10 38  1  6  0  0  0
 10 21  1  0  0  0  0
 12 19  1  0  0  0  0
 13 26  2  0  0  0  0
 14  3  1  0  0  0  0
 15  9  1  0  0  0  0
 15  7  1  1  0  0  0
 17 23  1  0  0  0  0
 19  8  1  0  0  0  0
 20 13  2  0  0  0  0
 20  9  1  0  0  0  0
 21  6  1  0  0  0  0
 22 11  1  0  0  0  0
 23 12  1  0  0  0  0
 24 18  1  6  0  0  0
 24  5  1  0  0  0  0
 24 30  1  0  0  0  0
 25 16  1  6  0  0  0
 25  4  1  0  0  0  0
 25 15  1  0  0  0  0
 26  6  1  0  0  0  0
 27 10  1  0  0  0  0
 27 11  1  0  0  0  0
 29  4  1  0  0  0  0
 30 28  1  0  0  0  0
 31 35  1  1  0  0  0
 31 24  1  0  0  0  0
 31 17  1  0  0  0  0
 33 32  1  0  0  0  0
 34 35  2  0  0  0  0
 35 36  1  0  0  0  0
 36 37  1  0  0  0  0
 38 39  1  0  0  0  0
 40 39  1  0  0  0  0
 41 42  2  0  0  0  0
 42 40  1  0  0  0  0
 42 44  1  0  0  0  0
 43 44  2  0  0  0  0
 44 45  1  0  0  0  0
 46 53  1  0  0  0  0
 46 51  1  0  0  0  0
 47 49  1  0  0  0  0
 49 52  1  0  0  0  0
 51 50  1  1  0  0  0
 51 48  1  0  0  0  0
 53 45  1  6  0  0  0
 53 47  1  0  0  0  0
 53 54  1  0  0  0  0
 54 48  1  1  0  0  0
 54 52  1  0  0  0  0
M  END
>  <MODEL>
4

>  <REMARK>
 VINA RESULT:      -7.3      1.492      1.844
  Name = 
  9 active torsions:
  status: ('A' for Active; 'I' for Inactive)
    1  A    between atoms: N_1  and  C_45
    2  A    between atoms: C_2  and  C_18
    3  A    between atoms: C_2  and  C_45
    4  A    between atoms: C_8  and  C_36
    5  A    between atoms: C_13  and  C_50
    6  A    between atoms: C_38  and  C_39
    7  A    between atoms: C_39  and  C_41
    8  A    between atoms: C_41  and  C_48
    9  A    between atoms: C_50  and  C_53
                            x       y       z     vdW  Elec       q    Type
                         _______ _______ _______ _____ _____    ______ ____

>  <TORSDO>
F 9

$$$$
=
 OpenBabel11042417383D

 54 59  0  0  1  0  0  0  0  0999 V2000
  192.7960  174.2280  142.3970 C   0  0  0  0  0  2  0  0  0  0  0  0
  193.8930  172.1840  136.3510 N   0  0  0  0  0  2  0  0  0  0  0  0
  192.6940  172.4830  137.1270 C   0  0  1  0  0  3  0  0  0  0  0  0
  195.0590  172.4690  139.3910 N   0  0  0  0  0  0  0  0  0  0  0  0
  190.9320  174.1750  137.6200 C   0  0  0  0  0  2  0  0  0  0  0  0
  195.8930  174.6510  143.3950 C   0  0  2  0  0  3  0  0  0  0  0  0
  197.7560  170.7640  138.3740 C   0  0  0  0  0  1  0  0  0  0  0  0
  191.8000  173.0680  142.2590 C   0  0  2  0  0  3  0  0  0  0  0  0
  197.3580  172.9320  139.3930 N   0  0  0  0  0  2  0  0  0  0  0  0
  193.3310  174.4640  143.8290 C   0  0  2  0  0  0  0  0  0  0  0  0
  192.1690  172.3320  144.6750 C   0  0  0  0  0  2  0  0  0  0  0  0
  189.6720  172.8100  141.6260 C   0  0  0  0  0  2  0  0  0  0  0  0
  195.9710  173.9640  141.0160 C   0  0  0  0  0  0  0  0  0  0  0  0
  192.2700  173.9340  136.9290 C   0  0  0  0  0  2  0  0  0  0  0  0
  197.1020  172.1230  138.2090 C   0  0  2  0  0  3  0  0  0  0  0  0
  195.0520  172.8070  136.9840 C   0  0  0  0  0  2  0  0  0  0  0  0
  188.5920  172.7630  139.4020 C   0  0  0  0  0  2  0  0  0  0  0  0
  189.6090  173.2870  135.8170 O   0  0  0  0  0  1  0  0  0  0  0  0
  190.4980  173.5300  142.4990 O   0  0  0  0  0  0  0  0  0  0  0  0
  196.1370  173.0600  140.0880 C   0  0  0  0  0  0  0  0  0  0  0  0
  194.7270  173.8210  143.9570 C   0  0  0  0  0  2  0  0  0  0  0  0
  192.1610  171.9140  143.2000 C   0  0  0  0  0  2  0  0  0  0  0  0
  189.4700  173.5810  140.3330 C   0  0  0  0  0  2  0  0  0  0  0  0
  189.8950  173.1220  137.1810 C   0  0  1  0  0  0  0  0  0  0  0  0
  195.5750  171.9500  138.1300 C   0  0  2  0  0  3  0  0  0  0  0  0
  195.8250  174.9020  141.9150 C   0  0  0  0  0  3  0  0  0  0  0  0
  192.4100  173.8300  144.8850 C   0  0  0  0  0  2  0  0  0  0  0  0
  191.5570  171.5830  136.6560 C   0  0  0  0  0  2  0  0  0  0  0  0
  193.9500  171.8310  140.0790 C   0  0  0  0  0  1  0  0  0  0  0  0
  190.3900  171.8110  137.4200 O   0  0  0  0  0  0  0  0  0  0  0  0
  188.5780  173.2950  137.9640 C   0  0  2  0  0  3  0  0  0  0  0  0
  197.2890  173.8130  145.3460 C   0  0  0  0  0  1  0  0  0  0  0  0
  197.2540  174.1290  143.8580 C   0  0  0  0  0  2  0  0  0  0  0  0
  187.5350  175.2530  138.8080 O   0  0  0  0  0  0  0  0  0  0  0  0
  187.9140  174.6370  137.8230 C   0  0  0  0  0  0  0  0  0  0  0  0
  187.7170  175.2140  136.4580 C   0  0  0  0  0  2  0  0  0  0  0  0
  186.4460  176.0420  136.4190 C   0  0  0  0  0  1  0  0  0  0  0  0
  193.4120  175.9690  144.1240 C   0  0  0  0  0  2  0  0  0  0  0  0
  192.0840  176.6930  143.9170 C   0  0  0  0  0  2  0  0  0  0  0  0
  191.5880  177.1840  145.1940 N   0  0  0  0  0  2  0  0  0  0  0  0
  189.9680  177.2140  146.8490 O   0  0  0  0  0  0  0  0  0  0  0  0
  190.2330  177.0310  145.6330 C   0  0  0  0  0  0  0  0  0  0  0  0
  188.8730  175.4580  144.4750 O   0  0  0  0  0  0  0  0  0  0  0  0
  189.1430  176.6660  144.7050 C   0  0  0  0  0  0  0  0  0  0  0  0
  188.3420  177.7320  144.0200 C   0  0  0  0  0  2  0  0  0  0  0  0
  186.5160  177.3360  145.7150 C   0  0  0  0  0  2  0  0  0  0  0  0
  186.2920  176.4770  143.4430 N   0  0  0  0  0  2  0  0  0  0  0  0
  185.2710  179.2840  145.0330 C   0  0  0  0  0  2  0  0  0  0  0  0
  185.9380  177.0200  142.1410 C   0  0  0  0  0  2  0  0  0  0  0  0
  184.8270  178.2970  147.2660 C   0  0  0  0  0  1  0  0  0  0  0  0
  185.8940  178.6140  146.2360 C   0  0  1  0  0  3  0  0  0  0  0  0
  185.1080  178.6070  142.3970 S   0  0  0  0  0  0  0  0  0  0  0  0
  186.8310  177.5760  144.2420 C   0  0  2  0  0  0  0  0  0  0  0  0
  186.1390  178.8800  143.8580 C   0  0  2  0  0  3  0  0  0  0  0  0
  1 10  1  0  0  0  0
  2 16  1  0  0  0  0
  2  3  1  0  0  0  0
  3 28  1  6  0  0  0
  4 29  1  0  0  0  0
  4 20  1  0  0  0  0
  6 33  1  6  0  0  0
  6 21  1  0  0  0  0
  8  1  1  1  0  0  0
  8 19  1  0  0  0  0
  8 22  1  0  0  0  0
  9 20  1  0  0  0  0
 10 21  1  0  0  0  0
 10 38  1  1  0  0  0
 10 27  1  0  0  0  0
 11 27  1  0  0  0  0
 12 19  1  0  0  0  0
 13 26  2  0  0  0  0
 14  3  1  0  0  0  0
 14  5  1  0  0  0  0
 15  7  1  1  0  0  0
 15  9  1  0  0  0  0
 17 23  1  0  0  0  0
 20 13  2  0  0  0  0
 22 11  1  0  0  0  0
 23 12  1  0  0  0  0
 24 18  1  6  0  0  0
 24 30  1  0  0  0  0
 24  5  1  0  0  0  0
 24 31  1  0  0  0  0
 25 16  1  6  0  0  0
 25 15  1  0  0  0  0
 25  4  1  0  0  0  0
 26  6  1  0  0  0  0
 28 30  1  0  0  0  0
 31 35  1  1  0  0  0
 31 17  1  0  0  0  0
 33 32  1  0  0  0  0
 35 34  2  0  0  0  0
 36 35  1  0  0  0  0
 37 36  1  0  0  0  0
 39 38  1  0  0  0  0
 39 40  1  0  0  0  0
 40 42  1  0  0  0  0
 42 41  2  0  0  0  0
 43 44  2  0  0  0  0
 44 42  1  0  0  0  0
 45 44  1  0  0  0  0
 46 51  1  0  0  0  0
 47 53  1  0  0  0  0
 48 51  1  0  0  0  0
 49 52  1  0  0  0  0
 49 47  1  0  0  0  0
 51 50  1  1  0  0  0
 52 54  1  0  0  0  0
 53 45  1  6  0  0  0
 53 46  1  0  0  0  0
 54 53  1  0  0  0  0
 54 48  1  1  0  0  0
M  END
>  <MODEL>
5

>  <REMARK>
 VINA RESULT:      -7.2      2.540      4.231
  Name = 
  9 active torsions:
  status: ('A' for Active; 'I' for Inactive)
    1  A    between atoms: N_1  and  C_45
    2  A    between atoms: C_2  and  C_18
    3  A    between atoms: C_2  and  C_45
    4  A    between atoms: C_8  and  C_36
    5  A    between atoms: C_13  and  C_50
    6  A    between atoms: C_38  and  C_39
    7  A    between atoms: C_39  and  C_41
    8  A    between atoms: C_41  and  C_48
    9  A    between atoms: C_50  and  C_53
                            x       y       z     vdW  Elec       q    Type
                         _______ _______ _______ _____ _____    ______ ____

>  <TORSDO>
F 9

$$$$
=
 OpenBabel11042417383D

 54 59  0  0  1  0  0  0  0  0999 V2000
  190.7090  174.2820  143.2950 C   0  0  0  0  0  2  0  0  0  0  0  0
  195.8870  174.4870  139.4130 N   0  0  0  0  0  2  0  0  0  0  0  0
  194.5600  173.8880  139.3160 C   0  0  1  0  0  3  0  0  0  0  0  0
  194.7490  174.7680  142.4640 N   0  0  0  0  0  0  0  0  0  0  0  0
  192.2530  174.1380  138.4080 C   0  0  0  0  0  2  0  0  0  0  0  0
  191.7910  176.1800  145.7420 C   0  0  2  0  0  3  0  0  0  0  0  0
  197.9200  175.1460  143.4700 C   0  0  0  0  0  1  0  0  0  0  0  0
  190.8430  172.8180  142.8540 C   0  0  2  0  0  3  0  0  0  0  0  0
  195.8760  176.4440  143.6540 N   0  0  0  0  0  2  0  0  0  0  0  0
  190.1050  174.4870  144.7040 C   0  0  2  0  0  0  0  0  0  0  0  0
  190.1500  171.9560  145.1540 C   0  0  0  0  0  2  0  0  0  0  0  0
  190.0520  171.5290  141.2080 C   0  0  0  0  0  2  0  0  0  0  0  0
  193.5470  176.1540  143.9960 C   0  0  0  0  0  0  0  0  0  0  0  0
  193.5840  174.8450  138.6390 C   0  0  0  0  0  2  0  0  0  0  0  0
  196.8390  175.8910  142.7110 C   0  0  2  0  0  3  0  0  0  0  0  0
  195.8840  175.5160  140.4490 C   0  0  0  0  0  2  0  0  0  0  0  0
  190.6550  171.3230  138.8190 C   0  0  0  0  0  2  0  0  0  0  0  0
  192.9560  173.0380  136.3860 O   0  0  0  0  0  1  0  0  0  0  0  0
  189.6580  172.3980  142.2350 O   0  0  0  0  0  0  0  0  0  0  0  0
  194.6780  175.7130  143.5120 C   0  0  0  0  0  0  0  0  0  0  0  0
  191.2470  174.7420  145.7090 C   0  0  0  0  0  2  0  0  0  0  0  0
  191.2010  171.9140  144.0380 C   0  0  0  0  0  2  0  0  0  0  0  0
  190.2040  172.2880  139.9020 C   0  0  0  0  0  2  0  0  0  0  0  0
  192.4690  172.7960  137.6790 C   0  0  1  0  0  0  0  0  0  0  0  0
  196.0550  174.9010  141.8310 C   0  0  2  0  0  3  0  0  0  0  0  0
  192.4260  176.6380  144.4600 C   0  0  0  0  0  3  0  0  0  0  0  0
  189.3250  173.2460  145.1690 C   0  0  0  0  0  2  0  0  0  0  0  0
  194.6460  172.6190  138.4760 C   0  0  0  0  0  2  0  0  0  0  0  0
  194.0600  173.4910  142.5270 C   0  0  0  0  0  1  0  0  0  0  0  0
  193.3850  171.9840  138.4020 O   0  0  0  0  0  0  0  0  0  0  0  0
  191.1390  172.0280  137.5470 C   0  0  2  0  0  3  0  0  0  0  0  0
  191.8460  176.5380  148.2580 C   0  0  0  0  0  1  0  0  0  0  0  0
  192.6580  176.4450  146.9750 C   0  0  0  0  0  2  0  0  0  0  0  0
  189.4670  172.2130  135.8710 O   0  0  0  0  0  0  0  0  0  0  0  0
  190.0470  172.7490  136.8030 C   0  0  0  0  0  0  0  0  0  0  0  0
  189.6770  174.1370  137.2170 C   0  0  0  0  0  2  0  0  0  0  0  0
  188.2020  174.2040  137.5640 C   0  0  0  0  0  1  0  0  0  0  0  0
  189.1310  175.6740  144.6970 C   0  0  0  0  0  2  0  0  0  0  0  0
  188.1610  175.6610  145.8750 C   0  0  0  0  0  2  0  0  0  0  0  0
  188.1340  176.9720  146.5050 N   0  0  0  0  0  2  0  0  0  0  0  0
  186.9840  178.6600  147.5990 O   0  0  0  0  0  0  0  0  0  0  0  0
  186.9290  177.6890  146.8000 C   0  0  0  0  0  0  0  0  0  0  0  0
  184.5620  177.4460  146.8510 O   0  0  0  0  0  0  0  0  0  0  0  0
  185.6310  177.3250  146.1960 C   0  0  0  0  0  0  0  0  0  0  0  0
  185.5670  176.8030  144.7930 C   0  0  0  0  0  2  0  0  0  0  0  0
  187.2030  178.2580  143.5390 C   0  0  0  0  0  2  0  0  0  0  0  0
  184.9920  179.1100  144.1170 N   0  0  0  0  0  2  0  0  0  0  0  0
  186.3260  177.6250  141.3850 C   0  0  0  0  0  2  0  0  0  0  0  0
  183.6400  178.9660  143.6020 C   0  0  0  0  0  2  0  0  0  0  0  0
  188.6030  178.6030  141.5130 C   0  0  0  0  0  1  0  0  0  0  0  0
  187.6020  177.6900  142.1930 C   0  0  1  0  0  3  0  0  0  0  0  0
  183.7410  178.3100  141.9190 S   0  0  0  0  0  0  0  0  0  0  0  0
  185.7330  177.9070  143.7390 C   0  0  2  0  0  0  0  0  0  0  0  0
  185.2240  177.3890  142.3970 C   0  0  2  0  0  3  0  0  0  0  0  0
  1 10  1  0  0  0  0
  2 16  1  0  0  0  0
  3 28  1  6  0  0  0
  3  2  1  0  0  0  0
  4 29  1  0  0  0  0
  4 20  1  0  0  0  0
  5 14  1  0  0  0  0
  6 33  1  1  0  0  0
  8  1  1  1  0  0  0
  8 22  1  0  0  0  0
 10 38  1  6  0  0  0
 10 27  1  0  0  0  0
 10 21  1  0  0  0  0
 11 27  1  0  0  0  0
 12 19  1  0  0  0  0
 13 26  2  0  0  0  0
 14  3  1  0  0  0  0
 15  7  1  1  0  0  0
 15  9  1  0  0  0  0
 17 23  1  0  0  0  0
 19  8  1  0  0  0  0
 20  9  1  0  0  0  0
 20 13  2  0  0  0  0
 21  6  1  0  0  0  0
 22 11  1  0  0  0  0
 23 12  1  0  0  0  0
 24 18  1  6  0  0  0
 24 30  1  0  0  0  0
 24  5  1  0  0  0  0
 25 16  1  6  0  0  0
 25  4  1  0  0  0  0
 25 15  1  0  0  0  0
 26  6  1  0  0  0  0
 30 28  1  0  0  0  0
 31 35  1  1  0  0  0
 31 24  1  0  0  0  0
 31 17  1  0  0  0  0
 33 32  1  0  0  0  0
 34 35  2  0  0  0  0
 35 36  1  0  0  0  0
 36 37  1  0  0  0  0
 38 39  1  0  0  0  0
 39 40  1  0  0  0  0
 40 42  1  0  0  0  0
 42 41  2  0  0  0  0
 44 42  1  0  0  0  0
 44 43  2  0  0  0  0
 45 44  1  0  0  0  0
 46 53  1  0  0  0  0
 48 51  1  0  0  0  0
 49 47  1  0  0  0  0
 51 50  1  6  0  0  0
 51 46  1  0  0  0  0
 52 54  1  0  0  0  0
 52 49  1  0  0  0  0
 53 47  1  0  0  0  0
 53 45  1  1  0  0  0
 54 48  1  6  0  0  0
 54 53  1  0  0  0  0
M  END
>  <MODEL>
6

>  <REMARK>
 VINA RESULT:      -7.2      1.940      2.817
  Name = 
  9 active torsions:
  status: ('A' for Active; 'I' for Inactive)
    1  A    between atoms: N_1  and  C_45
    2  A    between atoms: C_2  and  C_18
    3  A    between atoms: C_2  and  C_45
    4  A    between atoms: C_8  and  C_36
    5  A    between atoms: C_13  and  C_50
    6  A    between atoms: C_38  and  C_39
    7  A    between atoms: C_39  and  C_41
    8  A    between atoms: C_41  and  C_48
    9  A    between atoms: C_50  and  C_53
                            x       y       z     vdW  Elec       q    Type
                         _______ _______ _______ _____ _____    ______ ____

>  <TORSDO>
F 9

$$$$
=
 OpenBabel11042417383D

 54 59  0  0  1  0  0  0  0  0999 V2000
  191.7100  175.2170  142.1360 C   0  0  0  0  0  2  0  0  0  0  0  0
  194.9260  172.6450  137.1400 N   0  0  0  0  0  2  0  0  0  0  0  0
  193.5210  172.9280  137.4140 C   0  0  1  0  0  3  0  0  0  0  0  0
  194.9460  173.3380  140.3330 N   0  0  0  0  0  0  0  0  0  0  0  0
  191.6360  174.5170  137.0580 C   0  0  0  0  0  2  0  0  0  0  0  0
  194.2450  175.9860  144.0730 C   0  0  2  0  0  3  0  0  0  0  0  0
  197.8900  171.7550  140.5230 C   0  0  0  0  0  1  0  0  0  0  0  0
  190.8700  173.9750  141.8130 C   0  0  2  0  0  3  0  0  0  0  0  0
  197.0790  173.9790  141.0640 N   0  0  0  0  0  2  0  0  0  0  0  0
  191.7020  175.6440  143.6230 C   0  0  2  0  0  0  0  0  0  0  0  0
  190.3990  173.5270  144.2820 C   0  0  0  0  0  2  0  0  0  0  0  0
  189.1080  173.4840  140.5270 C   0  0  0  0  0  2  0  0  0  0  0  0
  195.1740  175.0630  141.9710 C   0  0  0  0  0  0  0  0  0  0  0  0
  193.1380  174.3120  136.9020 C   0  0  0  0  0  2  0  0  0  0  0  0
  197.2840  173.0330  139.9760 C   0  0  2  0  0  3  0  0  0  0  0  0
  195.7660  173.4200  138.0470 C   0  0  0  0  0  2  0  0  0  0  0  0
  188.8750  173.1190  138.0930 C   0  0  0  0  0  2  0  0  0  0  0  0
  191.0600  173.3440  135.0370 O   0  0  0  0  0  1  0  0  0  0  0  0
  189.5490  174.3540  141.5330 O   0  0  0  0  0  0  0  0  0  0  0  0
  195.6880  174.0820  141.2770 C   0  0  0  0  0  0  0  0  0  0  0  0
  192.9880  175.1300  144.3010 C   0  0  0  0  0  2  0  0  0  0  0  0
  190.9230  172.9570  142.9580 C   0  0  0  0  0  2  0  0  0  0  0  0
  189.3410  174.0970  139.1580 C   0  0  0  0  0  2  0  0  0  0  0  0
  190.8580  173.3460  136.4260 C   0  0  1  0  0  0  0  0  0  0  0  0
  195.8880  172.7330  139.4010 C   0  0  2  0  0  3  0  0  0  0  0  0
  194.6880  176.0750  142.6410 C   0  0  0  0  0  3  0  0  0  0  0  0
  190.4950  175.0530  144.3720 C   0  0  0  0  0  2  0  0  0  0  0  0
  192.6550  171.8970  136.6990 C   0  0  0  0  0  2  0  0  0  0  0  0
  193.6910  172.6900  140.6750 C   0  0  0  0  0  1  0  0  0  0  0  0
  191.2870  172.1100  136.9830 O   0  0  0  0  0  0  0  0  0  0  0  0
  189.3450  173.4940  136.6820 C   0  0  2  0  0  3  0  0  0  0  0  0
  195.1880  174.2620  145.6840 C   0  0  0  0  0  1  0  0  0  0  0  0
  195.3780  175.6250  145.0360 C   0  0  0  0  0  2  0  0  0  0  0  0
  189.2210  175.3550  135.2130 O   0  0  0  0  0  0  0  0  0  0  0  0
  188.7210  174.7580  136.1550 C   0  0  0  0  0  0  0  0  0  0  0  0
  187.4780  175.2820  136.7980 C   0  0  0  0  0  2  0  0  0  0  0  0
  186.9580  176.4830  136.0300 C   0  0  0  0  0  1  0  0  0  0  0  0
  191.6170  177.1730  143.7370 C   0  0  0  0  0  2  0  0  0  0  0  0
  190.1830  177.6950  143.7520 C   0  0  0  0  0  2  0  0  0  0  0  0
  189.7030  177.8530  142.3880 N   0  0  0  0  0  2  0  0  0  0  0  0
  187.9890  178.2910  140.8920 O   0  0  0  0  0  0  0  0  0  0  0  0
  188.3170  177.8580  142.0270 C   0  0  0  0  0  0  0  0  0  0  0  0
  186.8180  176.1990  142.8430 O   0  0  0  0  0  0  0  0  0  0  0  0
  187.2650  177.3720  142.9430 C   0  0  0  0  0  0  0  0  0  0  0  0
  186.7130  178.2700  144.0090 C   0  0  0  0  0  2  0  0  0  0  0  0
  187.2480  176.2620  145.4420 C   0  0  0  0  0  2  0  0  0  0  0  0
  184.9820  177.1640  145.3830 N   0  0  0  0  0  2  0  0  0  0  0  0
  187.6610  177.6000  147.4030 C   0  0  0  0  0  2  0  0  0  0  0  0
  184.2790  178.2880  145.9810 C   0  0  0  0  0  2  0  0  0  0  0  0
  188.5670  175.2920  147.3120 C   0  0  0  0  0  1  0  0  0  0  0  0
  188.2800  176.5470  146.5130 C   0  0  1  0  0  3  0  0  0  0  0  0
  185.2570  178.8880  147.3800 S   0  0  0  0  0  0  0  0  0  0  0  0
  186.3980  177.5220  145.3130 C   0  0  2  0  0  0  0  0  0  0  0  0
  186.7630  178.4140  146.4940 C   0  0  2  0  0  3  0  0  0  0  0  0
  1 10  1  0  0  0  0
  2  3  1  0  0  0  0
  2 16  1  0  0  0  0
  3 28  1  6  0  0  0
  4 29  1  0  0  0  0
  4 20  1  0  0  0  0
  6 21  1  0  0  0  0
  6 33  1  1  0  0  0
  8  1  1  1  0  0  0
  8 22  1  0  0  0  0
  9 20  1  0  0  0  0
 10 38  1  1  0  0  0
 10 21  1  0  0  0  0
 10 27  1  0  0  0  0
 11 27  1  0  0  0  0
 12 19  1  0  0  0  0
 13 26  2  0  0  0  0
 14  5  1  0  0  0  0
 14  3  1  0  0  0  0
 15  7  1  1  0  0  0
 15  9  1  0  0  0  0
 17 23  1  0  0  0  0
 19  8  1  0  0  0  0
 20 13  2  0  0  0  0
 22 11  1  0  0  0  0
 23 12  1  0  0  0  0
 24 18  1  6  0  0  0
 24 31  1  0  0  0  0
 24 30  1  0  0  0  0
 24  5  1  0  0  0  0
 25 16  1  6  0  0  0
 25 15  1  0  0  0  0
 25  4  1  0  0  0  0
 26  6  1  0  0  0  0
 28 30  1  0  0  0  0
 31 35  1  1  0  0  0
 31 17  1  0  0  0  0
 33 32  1  0  0  0  0
 34 35  2  0  0  0  0
 35 36  1  0  0  0  0
 37 36  1  0  0  0  0
 38 39  1  0  0  0  0
 40 39  1  0  0  0  0
 41 42  2  0  0  0  0
 42 40  1  0  0  0  0
 42 44  1  0  0  0  0
 43 44  2  0  0  0  0
 44 45  1  0  0  0  0
 46 51  1  0  0  0  0
 47 49  1  0  0  0  0
 49 52  1  0  0  0  0
 51 50  1  1  0  0  0
 51 48  1  0  0  0  0
 53 45  1  6  0  0  0
 53 47  1  0  0  0  0
 53 46  1  0  0  0  0
 53 54  1  0  0  0  0
 54 52  1  0  0  0  0
 54 48  1  1  0  0  0
M  END
>  <MODEL>
7

>  <REMARK>
 VINA RESULT:      -7.1      1.964      2.723
  Name = 
  9 active torsions:
  status: ('A' for Active; 'I' for Inactive)
    1  A    between atoms: N_1  and  C_45
    2  A    between atoms: C_2  and  C_18
    3  A    between atoms: C_2  and  C_45
    4  A    between atoms: C_8  and  C_36
    5  A    between atoms: C_13  and  C_50
    6  A    between atoms: C_38  and  C_39
    7  A    between atoms: C_39  and  C_41
    8  A    between atoms: C_41  and  C_48
    9  A    between atoms: C_50  and  C_53
                            x       y       z     vdW  Elec       q    Type
                         _______ _______ _______ _____ _____    ______ ____

>  <TORSDO>
F 9

$$$$
=
 OpenBabel11042417383D

 54 59  0  0  1  0  0  0  0  0999 V2000
  191.5950  173.4620  142.6850 C   0  0  0  0  0  2  0  0  0  0  0  0
  193.6900  170.2750  137.4520 N   0  0  0  0  0  2  0  0  0  0  0  0
  192.4750  171.0140  137.7810 C   0  0  1  0  0  3  0  0  0  0  0  0
  193.9570  170.6930  140.6820 N   0  0  0  0  0  0  0  0  0  0  0  0
  191.2720  173.1870  137.5750 C   0  0  0  0  0  2  0  0  0  0  0  0
  194.2410  173.1530  144.6010 C   0  0  2  0  0  3  0  0  0  0  0  0
  196.1530  168.1660  140.6940 C   0  0  0  0  0  1  0  0  0  0  0  0
  190.3700  172.6200  142.3040 C   0  0  2  0  0  3  0  0  0  0  0  0
  196.1800  170.4890  141.3980 N   0  0  0  0  0  2  0  0  0  0  0  0
  191.7400  173.7600  144.1960 C   0  0  2  0  0  0  0  0  0  0  0  0
  189.7740  172.1970  144.7500 C   0  0  0  0  0  2  0  0  0  0  0  0
  188.5470  172.8720  141.0350 C   0  0  0  0  0  2  0  0  0  0  0  0
  194.7820  172.1090  142.4210 C   0  0  0  0  0  0  0  0  0  0  0  0
  192.6050  172.4770  137.3680 C   0  0  0  0  0  2  0  0  0  0  0  0
  196.0360  169.6090  140.2460 C   0  0  2  0  0  3  0  0  0  0  0  0
  194.7510  170.6390  138.3860 C   0  0  0  0  0  2  0  0  0  0  0  0
  188.1970  172.7820  138.5890 C   0  0  0  0  0  2  0  0  0  0  0  0
  190.3160  172.4340  135.4990 O   0  0  0  0  0  1  0  0  0  0  0  0
  189.2680  173.4590  142.0830 O   0  0  0  0  0  0  0  0  0  0  0  0
  194.9160  171.0610  141.6530 C   0  0  0  0  0  0  0  0  0  0  0  0
  192.7630  172.7800  144.8070 C   0  0  0  0  0  2  0  0  0  0  0  0
  190.0620  171.5730  143.3790 C   0  0  0  0  0  2  0  0  0  0  0  0
  188.9800  173.4570  139.7030 C   0  0  0  0  0  2  0  0  0  0  0  0
  190.1300  172.4110  136.8900 C   0  0  1  0  0  0  0  0  0  0  0  0
  194.6230  169.8610  139.6890 C   0  0  2  0  0  3  0  0  0  0  0  0
  194.6850  173.1780  143.1670 C   0  0  0  0  0  3  0  0  0  0  0  0
  190.4030  173.5810  144.9360 C   0  0  0  0  0  2  0  0  0  0  0  0
  191.3000  170.4060  137.0230 C   0  0  0  0  0  2  0  0  0  0  0  0
  192.5540  170.5060  141.0130 C   0  0  0  0  0  1  0  0  0  0  0  0
  190.0960  171.0680  137.3550 O   0  0  0  0  0  0  0  0  0  0  0  0
  188.7670  173.0650  137.1940 C   0  0  2  0  0  3  0  0  0  0  0  0
  196.5050  173.0470  145.7510 C   0  0  0  0  0  1  0  0  0  0  0  0
  195.1740  172.3500  145.5100 C   0  0  0  0  0  2  0  0  0  0  0  0
  189.4480  175.0090  136.0140 O   0  0  0  0  0  0  0  0  0  0  0  0
  188.6290  174.5000  136.7650 C   0  0  0  0  0  0  0  0  0  0  0  0
  187.4760  175.3060  137.2710 C   0  0  0  0  0  2  0  0  0  0  0  0
  187.0560  176.3280  136.2310 C   0  0  0  0  0  1  0  0  0  0  0  0
  192.2010  175.2080  144.4100 C   0  0  0  0  0  2  0  0  0  0  0  0
  192.3080  176.0020  143.1110 C   0  0  0  0  0  2  0  0  0  0  0  0
  192.1280  177.4200  143.3860 N   0  0  0  0  0  2  0  0  0  0  0  0
  190.7570  179.2170  143.8940 O   0  0  0  0  0  0  0  0  0  0  0  0
  190.8570  178.0810  143.3620 C   0  0  0  0  0  0  0  0  0  0  0  0
  189.7580  176.3780  142.1140 O   0  0  0  0  0  0  0  0  0  0  0  0
  189.6680  177.4710  142.7330 C   0  0  0  0  0  0  0  0  0  0  0  0
  188.3320  178.1460  142.8230 C   0  0  0  0  0  2  0  0  0  0  0  0
  188.0630  176.4280  144.6510 C   0  0  0  0  0  2  0  0  0  0  0  0
  186.3790  176.6330  142.8980 N   0  0  0  0  0  2  0  0  0  0  0  0
  186.7260  177.8930  146.0200 C   0  0  0  0  0  2  0  0  0  0  0  0
  185.2690  177.5260  142.6030 C   0  0  0  0  0  2  0  0  0  0  0  0
  187.8370  175.9420  147.0790 C   0  0  0  0  0  1  0  0  0  0  0  0
  187.9700  177.0340  146.0350 C   0  0  1  0  0  3  0  0  0  0  0  0
  184.8510  178.4290  144.1130 S   0  0  0  0  0  0  0  0  0  0  0  0
  187.3380  177.3830  143.7090 C   0  0  2  0  0  0  0  0  0  0  0  0
  186.5960  178.3820  144.5920 C   0  0  2  0  0  3  0  0  0  0  0  0
  1 10  1  0  0  0  0
  2  3  1  0  0  0  0
  2 16  1  0  0  0  0
  3 28  1  6  0  0  0
  4 29  1  0  0  0  0
  4 20  1  0  0  0  0
  6 21  1  0  0  0  0
  6 33  1  1  0  0  0
  8  1  1  1  0  0  0
  8 22  1  0  0  0  0
  9 20  1  0  0  0  0
 10 38  1  1  0  0  0
 10 21  1  0  0  0  0
 10 27  1  0  0  0  0
 11 27  1  0  0  0  0
 12 19  1  0  0  0  0
 13 26  2  0  0  0  0
 14  5  1  0  0  0  0
 14  3  1  0  0  0  0
 15  7  1  1  0  0  0
 15  9  1  0  0  0  0
 17 23  1  0  0  0  0
 19  8  1  0  0  0  0
 20 13  2  0  0  0  0
 22 11  1  0  0  0  0
 23 12  1  0  0  0  0
 24 18  1  6  0  0  0
 24 31  1  0  0  0  0
 24 30  1  0  0  0  0
 24  5  1  0  0  0  0
 25 16  1  6  0  0  0
 25 15  1  0  0  0  0
 25  4  1  0  0  0  0
 26  6  1  0  0  0  0
 28 30  1  0  0  0  0
 31 35  1  1  0  0  0
 31 17  1  0  0  0  0
 33 32  1  0  0  0  0
 34 35  2  0  0  0  0
 35 36  1  0  0  0  0
 37 36  1  0  0  0  0
 39 40  1  0  0  0  0
 39 38  1  0  0  0  0
 42 40  1  0  0  0  0
 42 41  2  0  0  0  0
 43 44  2  0  0  0  0
 44 45  1  0  0  0  0
 44 42  1  0  0  0  0
 46 51  1  0  0  0  0
 47 53  1  0  0  0  0
 48 51  1  0  0  0  0
 49 47  1  0  0  0  0
 49 52  1  0  0  0  0
 51 50  1  1  0  0  0
 52 54  1  0  0  0  0
 53 45  1  6  0  0  0
 53 54  1  0  0  0  0
 53 46  1  0  0  0  0
 54 48  1  1  0  0  0
M  END
>  <MODEL>
8

>  <REMARK>
 VINA RESULT:      -6.9      2.664      3.983
  Name = 
  9 active torsions:
  status: ('A' for Active; 'I' for Inactive)
    1  A    between atoms: N_1  and  C_45
    2  A    between atoms: C_2  and  C_18
    3  A    between atoms: C_2  and  C_45
    4  A    between atoms: C_8  and  C_36
    5  A    between atoms: C_13  and  C_50
    6  A    between atoms: C_38  and  C_39
    7  A    between atoms: C_39  and  C_41
    8  A    between atoms: C_41  and  C_48
    9  A    between atoms: C_50  and  C_53
                            x       y       z     vdW  Elec       q    Type
                         _______ _______ _______ _____ _____    ______ ____

>  <TORSDO>
F 9

$$$$
=
 OpenBabel11042417383D

 54 59  0  0  1  0  0  0  0  0999 V2000
  191.2250  173.3220  139.4610 C   0  0  0  0  0  2  0  0  0  0  0  0
  186.3040  177.4770  140.1320 N   0  0  0  0  0  2  0  0  0  0  0  0
  187.1970  176.7920  141.0600 C   0  0  1  0  0  3  0  0  0  0  0  0
  187.7770  175.2750  138.2170 N   0  0  0  0  0  0  0  0  0  0  0  0
  189.2510  176.9840  142.4580 C   0  0  0  0  0  2  0  0  0  0  0  0
  191.3960  173.2110  136.1860 C   0  0  2  0  0  3  0  0  0  0  0  0
  185.2530  175.6660  136.0530 C   0  0  0  0  0  1  0  0  0  0  0  0
  190.3950  172.6670  140.5730 C   0  0  2  0  0  3  0  0  0  0  0  0
  187.6690  175.8880  135.9570 N   0  0  0  0  0  2  0  0  0  0  0  0
  192.0090  172.3360  138.5630 C   0  0  2  0  0  0  0  0  0  0  0  0
  190.8740  170.3210  139.6880 C   0  0  0  0  0  2  0  0  0  0  0  0
  190.3310  172.7170  142.8070 C   0  0  0  0  0  2  0  0  0  0  0  0
  189.6370  174.8500  136.7780 C   0  0  0  0  0  0  0  0  0  0  0  0
  188.4190  177.6510  141.3690 C   0  0  0  0  0  2  0  0  0  0  0  0
  186.4620  176.4110  136.5830 C   0  0  2  0  0  3  0  0  0  0  0  0
  186.8870  177.4630  138.7930 C   0  0  0  0  0  2  0  0  0  0  0  0
  189.4390  174.3760  144.4100 C   0  0  0  0  0  2  0  0  0  0  0  0
  187.9080  177.8100  144.2760 O   0  0  0  0  0  1  0  0  0  0  0  0
  191.1860  172.4980  141.7190 O   0  0  0  0  0  0  0  0  0  0  0  0
  188.3830  175.1780  136.9450 C   0  0  0  0  0  0  0  0  0  0  0  0
  191.2240  172.1170  137.2530 C   0  0  0  0  0  2  0  0  0  0  0  0
  189.8020  171.3330  140.1080 C   0  0  0  0  0  2  0  0  0  0  0  0
  190.3940  174.1690  143.2460 C   0  0  0  0  0  2  0  0  0  0  0  0
  188.3730  176.6310  143.6750 C   0  0  1  0  0  0  0  0  0  0  0  0
  186.6100  176.1400  138.0910 C   0  0  2  0  0  3  0  0  0  0  0  0
  190.9000  174.5680  136.5970 C   0  0  0  0  0  3  0  0  0  0  0  0
  192.1900  170.9720  139.2490 C   0  0  0  0  0  2  0  0  0  0  0  0
  186.4540  176.5300  142.3660 C   0  0  0  0  0  2  0  0  0  0  0  0
  187.8160  174.1860  139.1780 C   0  0  0  0  0  1  0  0  0  0  0  0
  187.2750  175.8220  143.2730 O   0  0  0  0  0  0  0  0  0  0  0  0
  189.1880  175.8540  144.7290 C   0  0  2  0  0  3  0  0  0  0  0  0
  189.7730  171.7360  134.9020 C   0  0  0  0  0  1  0  0  0  0  0  0
  190.8860  172.7700  134.8130 C   0  0  0  0  0  2  0  0  0  0  0  0
  190.8560  177.5430  144.6860 O   0  0  0  0  0  0  0  0  0  0  0  0
  190.3980  176.5700  145.2650 C   0  0  0  0  0  0  0  0  0  0  0  0
  191.0410  176.0750  146.5210 C   0  0  0  0  0  2  0  0  0  0  0  0
  190.8000  177.0560  147.6530 C   0  0  0  0  0  1  0  0  0  0  0  0
  193.4060  172.8930  138.2560 C   0  0  0  0  0  2  0  0  0  0  0  0
  193.7430  174.1450  139.0600 C   0  0  0  0  0  2  0  0  0  0  0  0
  195.1700  174.4190  138.9690 N   0  0  0  0  0  2  0  0  0  0  0  0
  197.1990  174.8940  139.9800 O   0  0  0  0  0  0  0  0  0  0  0  0
  195.9450  174.9690  140.0410 C   0  0  0  0  0  0  0  0  0  0  0  0
  195.0220  176.8440  141.1810 O   0  0  0  0  0  0  0  0  0  0  0  0
  195.3170  175.6190  141.2090 C   0  0  0  0  0  0  0  0  0  0  0  0
  195.0230  174.8310  142.4490 C   0  0  0  0  0  2  0  0  0  0  0  0
  195.1190  176.5890  144.2560 C   0  0  0  0  0  2  0  0  0  0  0  0
  197.1770  175.6490  143.3430 N   0  0  0  0  0  2  0  0  0  0  0  0
  195.2360  174.9590  146.0270 C   0  0  0  0  0  2  0  0  0  0  0  0
  197.9410  174.4230  143.5120 C   0  0  0  0  0  2  0  0  0  0  0  0
  194.5300  177.2750  146.5720 C   0  0  0  0  0  1  0  0  0  0  0  0
  194.4550  176.1600  145.5470 C   0  0  1  0  0  3  0  0  0  0  0  0
  197.4050  173.6290  145.0460 S   0  0  0  0  0  0  0  0  0  0  0  0
  195.7860  175.3460  143.6780 C   0  0  2  0  0  0  0  0  0  0  0  0
  195.7390  174.2810  144.7690 C   0  0  2  0  0  3  0  0  0  0  0  0
  2  3  1  0  0  0  0
  3 14  1  1  0  0  0
  3 28  1  0  0  0  0
  4 29  1  0  0  0  0
  5 24  1  0  0  0  0
  6 33  1  6  0  0  0
  6 26  1  0  0  0  0
  6 21  1  0  0  0  0
  8  1  1  6  0  0  0
  8 19  1  0  0  0  0
  9 15  1  0  0  0  0
  9 20  1  0  0  0  0
 10 38  1  6  0  0  0
 10 27  1  0  0  0  0
 10  1  1  0  0  0  0
 11 22  1  0  0  0  0
 12 23  1  0  0  0  0
 13 20  2  0  0  0  0
 14  5  1  0  0  0  0
 15  7  1  6  0  0  0
 15 25  1  0  0  0  0
 16  2  1  0  0  0  0
 17 31  1  0  0  0  0
 19 12  1  0  0  0  0
 20  4  1  0  0  0  0
 21 10  1  0  0  0  0
 22  8  1  0  0  0  0
 23 17  1  0  0  0  0
 24 18  1  1  0  0  0
 24 31  1  0  0  0  0
 25  4  1  0  0  0  0
 25 16  1  1  0  0  0
 26 13  2  0  0  0  0
 27 11  1  0  0  0  0
 28 30  1  0  0  0  0
 30 24  1  0  0  0  0
 31 35  1  6  0  0  0
 33 32  1  0  0  0  0
 34 35  2  0  0  0  0
 35 36  1  0  0  0  0
 36 37  1  0  0  0  0
 38 39  1  0  0  0  0
 40 39  1  0  0  0  0
 40 42  1  0  0  0  0
 41 42  2  0  0  0  0
 42 44  1  0  0  0  0
 43 44  2  0  0  0  0
 44 45  1  0  0  0  0
 46 51  1  0  0  0  0
 47 49  1  0  0  0  0
 47 53  1  0  0  0  0
 49 52  1  0  0  0  0
 51 48  1  0  0  0  0
 51 50  1  1  0  0  0
 53 45  1  6  0  0  0
 53 46  1  0  0  0  0
 53 54  1  0  0  0  0
 54 52  1  0  0  0  0
 54 48  1  1  0  0  0
M  END
>  <MODEL>
9

>  <REMARK>
 VINA RESULT:      -6.9      3.197      9.335
  Name = 
  9 active torsions:
  status: ('A' for Active; 'I' for Inactive)
    1  A    between atoms: N_1  and  C_45
    2  A    between atoms: C_2  and  C_18
    3  A    between atoms: C_2  and  C_45
    4  A    between atoms: C_8  and  C_36
    5  A    between atoms: C_13  and  C_50
    6  A    between atoms: C_38  and  C_39
    7  A    between atoms: C_39  and  C_41
    8  A    between atoms: C_41  and  C_48
    9  A    between atoms: C_50  and  C_53
                            x       y       z     vdW  Elec       q    Type
                         _______ _______ _______ _____ _____    ______ ____

>  <TORSDO>
F 9

$$$$
