=
 OpenBabel11042413583D

 30 32  0  0  1  0  0  0  0  0999 V2000
  190.4620  173.9710  141.3360 C   0  0  0  0  0  0  0  0  0  0  0  0
  188.2330  173.0530  138.6490 O   0  0  0  0  0  0  0  0  0  0  0  0
  189.6350  174.9790  142.0240 C   0  0  0  0  0  0  0  0  0  0  0  0
  188.4250  175.3180  141.5180 C   0  0  0  0  0  0  0  0  0  0  0  0
  187.9980  174.9080  140.1310 C   0  0  0  0  0  2  0  0  0  0  0  0
  191.6010  173.6700  141.7820 O   0  0  0  0  0  0  0  0  0  0  0  0
  189.9650  173.3090  140.1760 N   0  0  0  0  0  2  0  0  0  0  0  0
  188.7130  173.6970  139.6170 C   0  0  0  0  0  0  0  0  0  0  0  0
  187.4840  177.5680  142.1530 C   0  0  0  0  0  0  0  0  0  0  0  0
  188.3000  178.1680  141.4020 O   0  0  0  0  0  0  0  0  0  0  0  0
  187.5100  176.1370  142.2550 N   0  0  0  0  0  2  0  0  0  0  0  0
  184.7900  178.1790  141.2430 O   0  0  0  0  0  1  0  0  0  0  0  0
  185.7330  179.0530  145.2320 C   0  0  2  0  0  3  0  0  0  0  0  0
  186.4860  178.3690  142.9320 C   0  0  1  0  0  3  0  0  0  0  0  0
  185.0520  177.9410  142.5930 C   0  0  1  0  0  3  0  0  0  0  0  0
  184.3290  178.5490  144.9180 C   0  0  0  0  0  2  0  0  0  0  0  0
  184.0410  178.7200  143.4310 C   0  0  0  0  0  2  0  0  0  0  0  0
  186.7580  178.2530  144.4340 C   0  0  0  0  0  2  0  0  0  0  0  0
  185.9880  178.9080  146.5970 O   0  0  0  0  0  0  0  0  0  0  0  0
  186.2140  176.8920  147.6320 O   0  0  0  0  0  1  0  0  0  0  0  0
  185.3280  177.7340  146.9610 C   0  0  0  0  0  2  0  0  0  0  0  0
  190.1510  175.5610  143.2300 N   0  0  0  0  0  0  0  0  0  0  0  0
  189.9010  175.0160  144.4970 N   0  0  0  0  0  0  0  0  0  0  0  0
  189.9870  177.4860  147.2810 C   0  0  0  0  0  3  0  0  0  0  0  0
  191.7600  175.8730  147.6250 C   0  0  0  0  0  3  0  0  0  0  0  0
  189.6110  176.8240  146.1090 C   0  0  0  0  0  3  0  0  0  0  0  0
  191.5320  177.8400  149.5070 Cl  0  0  0  0  0  0  0  0  0  0  0  0
  191.3830  175.2100  146.4530 C   0  0  0  0  0  3  0  0  0  0  0  0
  190.3070  175.6840  145.6910 C   0  0  0  0  0  0  0  0  0  0  0  0
  191.0610  177.0100  148.0390 C   0  0  0  0  0  0  0  0  0  0  0  0
  1  6  2  0  0  0  0
  1  3  1  0  0  0  0
  2  8  2  0  0  0  0
  3 22  1  0  0  0  0
  4  3  2  0  0  0  0
  4 11  1  0  0  0  0
  5  4  1  0  0  0  0
  7  1  1  0  0  0  0
  8  5  1  0  0  0  0
  8  7  1  0  0  0  0
  9 11  1  0  0  0  0
 10  9  2  0  0  0  0
 13 19  1  1  0  0  0
 14  9  1  6  0  0  0
 14 18  1  0  0  0  0
 15 12  1  6  0  0  0
 15 14  1  0  0  0  0
 15 17  1  0  0  0  0
 16 13  1  0  0  0  0
 17 16  1  0  0  0  0
 18 13  1  0  0  0  0
 19 21  1  0  0  0  0
 21 20  1  0  0  0  0
 22 23  2  0  0  0  0
 23 29  1  0  0  0  0
 24 30  1  0  0  0  0
 25 30  2  0  0  0  0
 26 24  2  0  0  0  0
 28 25  1  0  0  0  0
 29 26  1  0  0  0  0
 29 28  2  0  0  0  0
 30 27  1  0  0  0  0
M  END
>  <MODEL>
1

>  <REMARK>
 VINA RESULT:      -7.3      0.000      0.000
  Name = 
  7 active torsions:
  status: ('A' for Active; 'I' for Inactive)
    1  A    between atoms: N_4  and  N_10
    2  A    between atoms: N_4  and  C_18
    3  A    between atoms: C_5  and  C_15
    4  A    between atoms: C_9  and  O_11
    5  A    between atoms: N_10  and  C_12
    6  A    between atoms: O_11  and  C_24
    7  A    between atoms: C_19  and  N_22
                            x       y       z     vdW  Elec       q    Type
                         _______ _______ _______ _____ _____    ______ ____

>  <TORSDO>
F 7

$$$$
=
 OpenBabel11042413583D

 30 32  0  0  1  0  0  0  0  0999 V2000
  184.8530  178.1730  146.3760 C   0  0  0  0  0  0  0  0  0  0  0  0
  183.2460  179.2710  143.3340 O   0  0  0  0  0  0  0  0  0  0  0  0
  185.9210  177.3270  145.8120 C   0  0  0  0  0  0  0  0  0  0  0  0
  185.9980  177.1400  144.4720 C   0  0  0  0  0  0  0  0  0  0  0  0
  184.8760  177.5400  143.5470 C   0  0  0  0  0  2  0  0  0  0  0  0
  184.7560  178.3300  147.6210 O   0  0  0  0  0  0  0  0  0  0  0  0
  183.9400  178.8430  145.5100 N   0  0  0  0  0  2  0  0  0  0  0  0
  183.9910  178.6120  144.1050 C   0  0  0  0  0  0  0  0  0  0  0  0
  187.9600  177.1310  142.8910 C   0  0  0  0  0  0  0  0  0  0  0  0
  187.7090  178.3050  142.5060 O   0  0  0  0  0  0  0  0  0  0  0  0
  187.1260  176.4960  143.8710 N   0  0  0  0  0  2  0  0  0  0  0  0
  190.7130  178.0400  143.1200 O   0  0  0  0  0  1  0  0  0  0  0  0
  190.0660  174.1740  141.6370 C   0  0  2  0  0  3  0  0  0  0  0  0
  189.1420  176.4120  142.3150 C   0  0  1  0  0  3  0  0  0  0  0  0
  190.4050  176.6790  143.1450 C   0  0  1  0  0  3  0  0  0  0  0  0
  191.2790  174.4090  142.5280 C   0  0  0  0  0  2  0  0  0  0  0  0
  191.5940  175.8990  142.5880 C   0  0  0  0  0  2  0  0  0  0  0  0
  188.8580  174.9120  142.2060 C   0  0  0  0  0  2  0  0  0  0  0  0
  189.7890  172.8070  141.5730 O   0  0  0  0  0  0  0  0  0  0  0  0
  189.2320  171.7460  143.5090 O   0  0  0  0  0  1  0  0  0  0  0  0
  188.7750  172.6030  142.5090 C   0  0  0  0  0  2  0  0  0  0  0  0
  186.8590  176.7360  146.7220 N   0  0  0  0  0  2  0  0  0  0  0  0
  188.1360  177.2710  146.9430 N   0  0  0  0  0  2  0  0  0  0  0  0
  190.3460  174.3980  146.0920 C   0  0  0  0  0  3  0  0  0  0  0  0
  191.7350  176.3080  146.6320 C   0  0  0  0  0  3  0  0  0  0  0  0
  189.2010  175.1640  146.3290 C   0  0  0  0  0  3  0  0  0  0  0  0
  193.0470  174.0120  145.9460 Cl  0  0  0  0  0  0  0  0  0  0  0  0
  190.5890  177.0740  146.8670 C   0  0  0  0  0  3  0  0  0  0  0  0
  189.3170  176.5030  146.7170 C   0  0  0  0  0  0  0  0  0  0  0  0
  191.6130  174.9710  146.2420 C   0  0  0  0  0  0  0  0  0  0  0  0
  1  6  2  0  0  0  0
  2  8  2  0  0  0  0
  3  1  1  0  0  0  0
  3 22  1  0  0  0  0
  4  3  2  0  0  0  0
  5  8  1  0  0  0  0
  5  4  1  0  0  0  0
  7  1  1  0  0  0  0
  8  7  1  0  0  0  0
  9 11  1  0  0  0  0
 10  9  2  0  0  0  0
 11  4  1  0  0  0  0
 13 19  1  1  0  0  0
 13 18  1  0  0  0  0
 13 16  1  0  0  0  0
 14  9  1  1  0  0  0
 14 15  1  0  0  0  0
 15 12  1  6  0  0  0
 16 17  1  0  0  0  0
 17 15  1  0  0  0  0
 18 14  1  0  0  0  0
 19 21  1  0  0  0  0
 21 20  1  0  0  0  0
 22 23  1  0  0  0  0
 24 30  2  0  0  0  0
 24 26  1  0  0  0  0
 25 28  2  0  0  0  0
 26 29  2  0  0  0  0
 27 30  1  0  0  0  0
 29 28  1  0  0  0  0
 29 23  1  0  0  0  0
 30 25  1  0  0  0  0
M  END
>  <MODEL>
2

>  <REMARK>
 VINA RESULT:      -7.2      2.358      6.025
  Name = 
  7 active torsions:
  status: ('A' for Active; 'I' for Inactive)
    1  A    between atoms: N_4  and  N_10
    2  A    between atoms: N_4  and  C_18
    3  A    between atoms: C_5  and  C_15
    4  A    between atoms: C_9  and  O_11
    5  A    between atoms: N_10  and  C_12
    6  A    between atoms: O_11  and  C_24
    7  A    between atoms: C_19  and  N_22
                            x       y       z     vdW  Elec       q    Type
                         _______ _______ _______ _____ _____    ______ ____

>  <TORSDO>
F 7

$$$$
=
 OpenBabel11042413583D

 30 32  0  0  1  0  0  0  0  0999 V2000
  184.3410  178.3570  144.1120 C   0  0  0  0  0  0  0  0  0  0  0  0
  184.1880  178.7460  140.5260 O   0  0  0  0  0  0  0  0  0  0  0  0
  185.5500  177.5220  144.2300 C   0  0  0  0  0  0  0  0  0  0  0  0
  186.1940  177.1060  143.1130 C   0  0  0  0  0  0  0  0  0  0  0  0
  185.5750  177.2330  141.7430 C   0  0  0  0  0  2  0  0  0  0  0  0
  183.7180  178.7250  145.1440 O   0  0  0  0  0  0  0  0  0  0  0  0
  183.8840  178.7790  142.8290 N   0  0  0  0  0  2  0  0  0  0  0  0
  184.5330  178.3040  141.6520 C   0  0  0  0  0  0  0  0  0  0  0  0
  188.6590  177.0230  142.5960 C   0  0  0  0  0  0  0  0  0  0  0  0
  188.6070  178.1170  141.9710 O   0  0  0  0  0  0  0  0  0  0  0  0
  187.4740  176.4670  143.1820 N   0  0  0  0  0  2  0  0  0  0  0  0
  191.1020  178.2570  143.5790 O   0  0  0  0  0  1  0  0  0  0  0  0
  191.0990  174.0960  143.0760 C   0  0  2  0  0  3  0  0  0  0  0  0
  189.9750  176.3180  142.7220 C   0  0  1  0  0  3  0  0  0  0  0  0
  190.8150  176.9200  143.8570 C   0  0  1  0  0  3  0  0  0  0  0  0
  191.8690  174.6780  144.2550 C   0  0  0  0  0  2  0  0  0  0  0  0
  192.1290  176.1610  144.0200 C   0  0  0  0  0  2  0  0  0  0  0  0
  189.7620  174.8160  142.9290 C   0  0  0  0  0  2  0  0  0  0  0  0
  190.8750  172.7350  143.2880 O   0  0  0  0  0  0  0  0  0  0  0  0
  189.5940  172.0250  145.0330 O   0  0  0  0  0  1  0  0  0  0  0  0
  189.5750  172.6610  143.7920 C   0  0  0  0  0  2  0  0  0  0  0  0
  186.0090  177.1890  145.5470 N   0  0  0  0  0  2  0  0  0  0  0  0
  187.0780  177.8550  146.1650 N   0  0  0  0  0  2  0  0  0  0  0  0
  189.4020  175.0550  146.9500 C   0  0  0  0  0  3  0  0  0  0  0  0
  190.4980  177.1450  147.4950 C   0  0  0  0  0  3  0  0  0  0  0  0
  188.2660  175.7580  146.5380 C   0  0  0  0  0  3  0  0  0  0  0  0
  191.9400  174.8690  147.9450 Cl  0  0  0  0  0  0  0  0  0  0  0  0
  189.3630  177.8480  147.0810 C   0  0  0  0  0  3  0  0  0  0  0  0
  188.2420  177.1550  146.6010 C   0  0  0  0  0  0  0  0  0  0  0  0
  190.5180  175.7490  147.4280 C   0  0  0  0  0  0  0  0  0  0  0  0
  1  3  1  0  0  0  0
  1  6  2  0  0  0  0
  2  8  2  0  0  0  0
  3 22  1  0  0  0  0
  4 11  1  0  0  0  0
  4  3  2  0  0  0  0
  5  4  1  0  0  0  0
  7  1  1  0  0  0  0
  8  5  1  0  0  0  0
  8  7  1  0  0  0  0
  9 11  1  0  0  0  0
 10  9  2  0  0  0  0
 13 19  1  1  0  0  0
 13 16  1  0  0  0  0
 14  9  1  1  0  0  0
 14 18  1  0  0  0  0
 14 15  1  0  0  0  0
 15 12  1  6  0  0  0
 15 17  1  0  0  0  0
 17 16  1  0  0  0  0
 18 13  1  0  0  0  0
 19 21  1  0  0  0  0
 21 20  1  0  0  0  0
 22 23  1  0  0  0  0
 23 29  1  0  0  0  0
 24 30  1  0  0  0  0
 26 29  1  0  0  0  0
 26 24  2  0  0  0  0
 28 25  1  0  0  0  0
 29 28  2  0  0  0  0
 30 25  2  0  0  0  0
 30 27  1  0  0  0  0
M  END
>  <MODEL>
3

>  <REMARK>
 VINA RESULT:      -7.1      2.406      5.684
  Name = 
  7 active torsions:
  status: ('A' for Active; 'I' for Inactive)
    1  A    between atoms: N_4  and  N_10
    2  A    between atoms: N_4  and  C_18
    3  A    between atoms: C_5  and  C_15
    4  A    between atoms: C_9  and  O_11
    5  A    between atoms: N_10  and  C_12
    6  A    between atoms: O_11  and  C_24
    7  A    between atoms: C_19  and  N_22
                            x       y       z     vdW  Elec       q    Type
                         _______ _______ _______ _____ _____    ______ ____

>  <TORSDO>
F 7

$$$$
=
 OpenBabel11042413583D

 30 32  0  0  1  0  0  0  0  0999 V2000
  184.5760  178.2870  144.7280 C   0  0  0  0  0  0  0  0  0  0  0  0
  184.3170  178.6680  141.1470 O   0  0  0  0  0  0  0  0  0  0  0  0
  185.6830  177.3150  144.8040 C   0  0  0  0  0  0  0  0  0  0  0  0
  186.2250  176.8190  143.6660 C   0  0  0  0  0  0  0  0  0  0  0  0
  185.5670  177.0100  142.3220 C   0  0  0  0  0  2  0  0  0  0  0  0
  184.0470  178.7320  145.7800 O   0  0  0  0  0  0  0  0  0  0  0  0
  184.1180  178.7510  143.4600 N   0  0  0  0  0  2  0  0  0  0  0  0
  184.6560  178.1960  142.2630 C   0  0  0  0  0  0  0  0  0  0  0  0
  188.6570  176.4720  143.1050 C   0  0  0  0  0  0  0  0  0  0  0  0
  188.7250  177.5890  142.5240 O   0  0  0  0  0  0  0  0  0  0  0  0
  187.4220  176.0340  143.6890 N   0  0  0  0  0  2  0  0  0  0  0  0
  188.7920  173.7060  142.2160 O   0  0  0  0  0  1  0  0  0  0  0  0
  192.3980  175.6080  143.1900 C   0  0  2  0  0  3  0  0  0  0  0  0
  189.8830  175.6150  143.1820 C   0  0  1  0  0  3  0  0  0  0  0  0
  189.8870  174.5590  142.0680 C   0  0  1  0  0  3  0  0  0  0  0  0
  192.3950  174.6210  142.0280 C   0  0  0  0  0  2  0  0  0  0  0  0
  191.1650  173.7260  142.1150 C   0  0  0  0  0  2  0  0  0  0  0  0
  191.1470  176.4780  143.1300 C   0  0  0  0  0  2  0  0  0  0  0  0
  193.5330  176.4160  143.1160 O   0  0  0  0  0  0  0  0  0  0  0  0
  194.2650  177.0430  145.1800 O   0  0  0  0  0  1  0  0  0  0  0  0
  194.3120  176.0410  144.2110 C   0  0  0  0  0  2  0  0  0  0  0  0
  186.1560  176.9390  146.1050 N   0  0  0  0  0  2  0  0  0  0  0  0
  187.2860  177.5220  146.6950 N   0  0  0  0  0  2  0  0  0  0  0  0
  189.7700  174.7590  146.9320 C   0  0  0  0  0  3  0  0  0  0  0  0
  190.9640  176.8530  146.6950 C   0  0  0  0  0  3  0  0  0  0  0  0
  188.5540  175.4470  146.8890 C   0  0  0  0  0  3  0  0  0  0  0  0
  192.4970  174.6000  146.8880 Cl  0  0  0  0  0  0  0  0  0  0  0  0
  189.7480  177.5410  146.6500 C   0  0  0  0  0  3  0  0  0  0  0  0
  188.5380  176.8390  146.7480 C   0  0  0  0  0  0  0  0  0  0  0  0
  190.9750  175.4620  146.8340 C   0  0  0  0  0  0  0  0  0  0  0  0
  1  3  1  0  0  0  0
  1  6  2  0  0  0  0
  2  8  2  0  0  0  0
  3 22  1  0  0  0  0
  4 11  1  0  0  0  0
  4  3  2  0  0  0  0
  5  4  1  0  0  0  0
  7  1  1  0  0  0  0
  8  5  1  0  0  0  0
  8  7  1  0  0  0  0
  9 11  1  0  0  0  0
 10  9  2  0  0  0  0
 13 19  1  6  0  0  0
 14  9  1  6  0  0  0
 15 17  1  0  0  0  0
 15 12  1  1  0  0  0
 15 14  1  0  0  0  0
 16 17  1  0  0  0  0
 16 13  1  0  0  0  0
 18 14  1  0  0  0  0
 18 13  1  0  0  0  0
 19 21  1  0  0  0  0
 21 20  1  0  0  0  0
 22 23  1  0  0  0  0
 23 29  1  0  0  0  0
 25 30  1  0  0  0  0
 26 24  1  0  0  0  0
 28 25  2  0  0  0  0
 28 29  1  0  0  0  0
 29 26  2  0  0  0  0
 30 27  1  0  0  0  0
 30 24  2  0  0  0  0
M  END
>  <MODEL>
4

>  <REMARK>
 VINA RESULT:      -7.1      2.525      5.974
  Name = 
  7 active torsions:
  status: ('A' for Active; 'I' for Inactive)
    1  A    between atoms: N_4  and  N_10
    2  A    between atoms: N_4  and  C_18
    3  A    between atoms: C_5  and  C_15
    4  A    between atoms: C_9  and  O_11
    5  A    between atoms: N_10  and  C_12
    6  A    between atoms: O_11  and  C_24
    7  A    between atoms: C_19  and  N_22
                            x       y       z     vdW  Elec       q    Type
                         _______ _______ _______ _____ _____    ______ ____

>  <TORSDO>
F 7

$$$$
=
 OpenBabel11042413583D

 30 32  0  0  1  0  0  0  0  0999 V2000
  185.2270  178.2360  142.4490 C   0  0  0  0  0  0  0  0  0  0  0  0
  183.6880  179.0410  145.6140 O   0  0  0  0  0  0  0  0  0  0  0  0
  186.6170  178.0100  142.8880 C   0  0  0  0  0  0  0  0  0  0  0  0
  186.9520  178.1920  144.1880 C   0  0  0  0  0  0  0  0  0  0  0  0
  186.0250  178.8790  145.1600 C   0  0  0  0  0  2  0  0  0  0  0  0
  184.9120  178.0970  141.2370 O   0  0  0  0  0  0  0  0  0  0  0  0
  184.2240  178.5850  143.4000 N   0  0  0  0  0  2  0  0  0  0  0  0
  184.5840  178.8210  144.7580 C   0  0  0  0  0  0  0  0  0  0  0  0
  188.3910  176.9220  145.8200 C   0  0  0  0  0  0  0  0  0  0  0  0
  187.3810  176.4760  146.4290 O   0  0  0  0  0  0  0  0  0  0  0  0
  188.2310  177.7940  144.6930 N   0  0  0  0  0  2  0  0  0  0  0  0
  188.9680  174.5360  147.3800 O   0  0  0  0  0  1  0  0  0  0  0  0
  192.2230  176.6570  145.8070 C   0  0  2  0  0  3  0  0  0  0  0  0
  189.7580  176.5220  146.2870 C   0  0  1  0  0  3  0  0  0  0  0  0
  189.8700  174.9970  146.4200 C   0  0  1  0  0  3  0  0  0  0  0  0
  192.3110  175.1360  145.8590 C   0  0  0  0  0  2  0  0  0  0  0  0
  191.2800  174.5930  146.8400 C   0  0  0  0  0  2  0  0  0  0  0  0
  190.8300  177.0760  145.3460 C   0  0  0  0  0  2  0  0  0  0  0  0
  193.1780  177.1520  144.9180 O   0  0  0  0  0  0  0  0  0  0  0  0
  194.4000  177.5080  146.8070 O   0  0  0  0  0  1  0  0  0  0  0  0
  194.4030  176.9180  145.5430 C   0  0  0  0  0  2  0  0  0  0  0  0
  187.5710  177.5870  141.9030 N   0  0  0  0  0  2  0  0  0  0  0  0
  187.5650  176.2970  141.3520 N   0  0  0  0  0  2  0  0  0  0  0  0
  188.5800  172.9090  142.5120 C   0  0  0  0  0  3  0  0  0  0  0  0
  190.4220  174.4370  142.8860 C   0  0  0  0  0  3  0  0  0  0  0  0
  187.8180  173.9550  141.9850 C   0  0  0  0  0  3  0  0  0  0  0  0
  190.8360  171.8400  143.6230 Cl  0  0  0  0  0  0  0  0  0  0  0  0
  189.6600  175.4830  142.3570 C   0  0  0  0  0  3  0  0  0  0  0  0
  188.3550  175.2450  141.9040 C   0  0  0  0  0  0  0  0  0  0  0  0
  189.8820  173.1500  142.9620 C   0  0  0  0  0  0  0  0  0  0  0  0
  1  3  1  0  0  0  0
  1  7  1  0  0  0  0
  3  4  2  0  0  0  0
  4 11  1  0  0  0  0
  4  5  1  0  0  0  0
  6  1  2  0  0  0  0
  7  8  1  0  0  0  0
  8  5  1  0  0  0  0
  8  2  2  0  0  0  0
  9 10  2  0  0  0  0
 11  9  1  0  0  0  0
 13 19  1  6  0  0  0
 13 16  1  0  0  0  0
 14  9  1  6  0  0  0
 14 15  1  0  0  0  0
 15 17  1  0  0  0  0
 15 12  1  1  0  0  0
 16 17  1  0  0  0  0
 18 13  1  0  0  0  0
 18 14  1  0  0  0  0
 19 21  1  0  0  0  0
 21 20  1  0  0  0  0
 22  3  1  0  0  0  0
 23 22  1  0  0  0  0
 23 29  1  0  0  0  0
 24 30  1  0  0  0  0
 25 30  2  0  0  0  0
 26 24  2  0  0  0  0
 28 25  1  0  0  0  0
 29 26  1  0  0  0  0
 29 28  2  0  0  0  0
 30 27  1  0  0  0  0
M  END
>  <MODEL>
5

>  <REMARK>
 VINA RESULT:      -6.8      2.788      6.704
  Name = 
  7 active torsions:
  status: ('A' for Active; 'I' for Inactive)
    1  A    between atoms: N_4  and  N_10
    2  A    between atoms: N_4  and  C_18
    3  A    between atoms: C_5  and  C_15
    4  A    between atoms: C_9  and  O_11
    5  A    between atoms: N_10  and  C_12
    6  A    between atoms: O_11  and  C_24
    7  A    between atoms: C_19  and  N_22
                            x       y       z     vdW  Elec       q    Type
                         _______ _______ _______ _____ _____    ______ ____

>  <TORSDO>
F 7

$$$$
=
 OpenBabel11042413583D

 30 32  0  0  1  0  0  0  0  0999 V2000
  190.7040  174.4580  141.6470 C   0  0  0  0  0  0  0  0  0  0  0  0
  188.2080  172.7440  139.6810 O   0  0  0  0  0  0  0  0  0  0  0  0
  189.8580  175.4610  142.3200 C   0  0  0  0  0  0  0  0  0  0  0  0
  188.5350  175.5290  142.0340 C   0  0  0  0  0  0  0  0  0  0  0  0
  187.9370  174.8030  140.8550 C   0  0  0  0  0  2  0  0  0  0  0  0
  191.9400  174.4050  141.8840 O   0  0  0  0  0  0  0  0  0  0  0  0
  190.1220  173.5220  140.7420 N   0  0  0  0  0  2  0  0  0  0  0  0
  188.7400  173.6220  140.4070 C   0  0  0  0  0  0  0  0  0  0  0  0
  187.3510  177.7100  142.4730 C   0  0  0  0  0  0  0  0  0  0  0  0
  187.8940  178.2540  141.4740 O   0  0  0  0  0  0  0  0  0  0  0  0
  187.6450  176.3450  142.8040 N   0  0  0  0  0  2  0  0  0  0  0  0
  184.6520  178.4170  141.6530 O   0  0  0  0  0  1  0  0  0  0  0  0
  185.7120  179.1230  145.6460 C   0  0  2  0  0  3  0  0  0  0  0  0
  186.3920  178.5060  143.3050 C   0  0  1  0  0  3  0  0  0  0  0  0
  184.9400  178.1240  142.9860 C   0  0  1  0  0  3  0  0  0  0  0  0
  184.2890  178.6650  145.3490 C   0  0  0  0  0  2  0  0  0  0  0  0
  183.9700  178.8960  143.8770 C   0  0  0  0  0  2  0  0  0  0  0  0
  186.6970  178.3290  144.7940 C   0  0  0  0  0  2  0  0  0  0  0  0
  185.9960  178.9230  146.9970 O   0  0  0  0  0  0  0  0  0  0  0  0
  186.0880  176.8130  147.8510 O   0  0  0  0  0  1  0  0  0  0  0  0
  186.7360  177.7410  147.0360 C   0  0  0  0  0  2  0  0  0  0  0  0
  190.4800  176.3290  143.2770 N   0  0  0  0  0  2  0  0  0  0  0  0
  190.7900  175.9180  144.5810 N   0  0  0  0  0  2  0  0  0  0  0  0
  193.6390  173.8150  145.7310 C   0  0  0  0  0  3  0  0  0  0  0  0
  194.4690  176.0350  145.2300 C   0  0  0  0  0  3  0  0  0  0  0  0
  192.3480  174.2180  145.3770 C   0  0  0  0  0  3  0  0  0  0  0  0
  196.3160  174.2190  146.0990 Cl  0  0  0  0  0  0  0  0  0  0  0  0
  193.1780  176.4370  144.8750 C   0  0  0  0  0  3  0  0  0  0  0  0
  192.1130  175.5290  144.9480 C   0  0  0  0  0  0  0  0  0  0  0  0
  194.7000  174.7240  145.6560 C   0  0  0  0  0  0  0  0  0  0  0  0
  1  6  2  0  0  0  0
  1  3  1  0  0  0  0
  2  8  2  0  0  0  0
  3 22  1  0  0  0  0
  4  3  2  0  0  0  0
  4 11  1  0  0  0  0
  5  4  1  0  0  0  0
  7  1  1  0  0  0  0
  8  7  1  0  0  0  0
  8  5  1  0  0  0  0
  9 11  1  0  0  0  0
 10  9  2  0  0  0  0
 13 19  1  1  0  0  0
 14  9  1  6  0  0  0
 14 18  1  0  0  0  0
 15 12  1  6  0  0  0
 15 14  1  0  0  0  0
 15 17  1  0  0  0  0
 16 13  1  0  0  0  0
 17 16  1  0  0  0  0
 18 13  1  0  0  0  0
 19 21  1  0  0  0  0
 21 20  1  0  0  0  0
 22 23  1  0  0  0  0
 23 29  1  0  0  0  0
 25 30  2  0  0  0  0
 26 24  2  0  0  0  0
 28 29  2  0  0  0  0
 28 25  1  0  0  0  0
 29 26  1  0  0  0  0
 30 24  1  0  0  0  0
 30 27  1  0  0  0  0
M  END
>  <MODEL>
6

>  <REMARK>
 VINA RESULT:      -6.8      1.876      2.243
  Name = 
  7 active torsions:
  status: ('A' for Active; 'I' for Inactive)
    1  A    between atoms: N_4  and  N_10
    2  A    between atoms: N_4  and  C_18
    3  A    between atoms: C_5  and  C_15
    4  A    between atoms: C_9  and  O_11
    5  A    between atoms: N_10  and  C_12
    6  A    between atoms: O_11  and  C_24
    7  A    between atoms: C_19  and  N_22
                            x       y       z     vdW  Elec       q    Type
                         _______ _______ _______ _____ _____    ______ ____

>  <TORSDO>
F 7

$$$$
=
 OpenBabel11042413583D

 30 32  0  0  1  0  0  0  0  0999 V2000
  189.2830  172.3810  140.2100 C   0  0  0  0  0  0  0  0  0  0  0  0
  192.0520  170.2700  141.1640 O   0  0  0  0  0  0  0  0  0  0  0  0
  188.9270  172.9490  141.5240 C   0  0  0  0  0  0  0  0  0  0  0  0
  189.5950  172.5520  142.6340 C   0  0  0  0  0  0  0  0  0  0  0  0
  190.5080  171.3500  142.6270 C   0  0  0  0  0  2  0  0  0  0  0  0
  188.6500  172.7220  139.1770 O   0  0  0  0  0  0  0  0  0  0  0  0
  190.3670  171.4620  140.0980 N   0  0  0  0  0  2  0  0  0  0  0  0
  191.0400  171.0090  141.2700 C   0  0  0  0  0  0  0  0  0  0  0  0
  190.0790  174.4480  144.2210 C   0  0  0  0  0  0  0  0  0  0  0  0
  190.8670  174.9900  143.3990 O   0  0  0  0  0  0  0  0  0  0  0  0
  189.4200  173.2180  143.8900 N   0  0  0  0  0  2  0  0  0  0  0  0
  192.1170  174.8600  146.2540 O   0  0  0  0  0  1  0  0  0  0  0  0
  188.4320  176.7850  146.7850 C   0  0  2  0  0  3  0  0  0  0  0  0
  189.8370  175.1100  145.5430 C   0  0  1  0  0  3  0  0  0  0  0  0
  191.1090  175.8030  146.0520 C   0  0  1  0  0  3  0  0  0  0  0  0
  189.6960  177.5180  147.2190 C   0  0  0  0  0  2  0  0  0  0  0  0
  190.8420  176.5250  147.3700 C   0  0  0  0  0  2  0  0  0  0  0  0
  188.6710  176.0960  145.4460 C   0  0  0  0  0  2  0  0  0  0  0  0
  187.3820  177.6960  146.6610 O   0  0  0  0  0  0  0  0  0  0  0  0
  185.1460  177.8510  147.0700 O   0  0  0  0  0  1  0  0  0  0  0  0
  186.2670  177.0280  147.1710 C   0  0  0  0  0  2  0  0  0  0  0  0
  187.8780  173.9260  141.5700 N   0  0  0  0  0  2  0  0  0  0  0  0
  188.0880  175.2750  141.2530 N   0  0  0  0  0  2  0  0  0  0  0  0
  187.2450  178.6770  142.5090 C   0  0  0  0  0  3  0  0  0  0  0  0
  185.6740  177.0930  143.4530 C   0  0  0  0  0  3  0  0  0  0  0  0
  187.8880  177.6360  141.8320 C   0  0  0  0  0  3  0  0  0  0  0  0
  185.3340  179.7080  144.1680 Cl  0  0  0  0  0  0  0  0  0  0  0  0
  186.3160  176.0530  142.7750 C   0  0  0  0  0  3  0  0  0  0  0  0
  187.4260  176.3220  141.9610 C   0  0  0  0  0  0  0  0  0  0  0  0
  186.1380  178.4050  143.3190 C   0  0  0  0  0  0  0  0  0  0  0  0
  1  3  1  0  0  0  0
  2  8  2  0  0  0  0
  3 22  1  0  0  0  0
  3  4  2  0  0  0  0
  4 11  1  0  0  0  0
  5  4  1  0  0  0  0
  6  1  2  0  0  0  0
  7  1  1  0  0  0  0
  7  8  1  0  0  0  0
  8  5  1  0  0  0  0
 10  9  2  0  0  0  0
 11  9  1  0  0  0  0
 13 19  1  6  0  0  0
 13 16  1  0  0  0  0
 14  9  1  6  0  0  0
 14 15  1  0  0  0  0
 15 12  1  1  0  0  0
 15 17  1  0  0  0  0
 16 17  1  0  0  0  0
 18 14  1  0  0  0  0
 18 13  1  0  0  0  0
 19 21  1  0  0  0  0
 20 21  1  0  0  0  0
 23 22  1  0  0  0  0
 23 29  1  0  0  0  0
 24 30  1  0  0  0  0
 26 29  1  0  0  0  0
 26 24  2  0  0  0  0
 28 25  1  0  0  0  0
 29 28  2  0  0  0  0
 30 25  2  0  0  0  0
 30 27  1  0  0  0  0
M  END
>  <MODEL>
7

>  <REMARK>
 VINA RESULT:      -6.7      2.548      5.119
  Name = 
  7 active torsions:
  status: ('A' for Active; 'I' for Inactive)
    1  A    between atoms: N_4  and  N_10
    2  A    between atoms: N_4  and  C_18
    3  A    between atoms: C_5  and  C_15
    4  A    between atoms: C_9  and  O_11
    5  A    between atoms: N_10  and  C_12
    6  A    between atoms: O_11  and  C_24
    7  A    between atoms: C_19  and  N_22
                            x       y       z     vdW  Elec       q    Type
                         _______ _______ _______ _____ _____    ______ ____

>  <TORSDO>
F 7

$$$$
=
 OpenBabel11042413583D

 30 32  0  0  1  0  0  0  0  0999 V2000
  192.3420  173.9240  145.3900 C   0  0  0  0  0  0  0  0  0  0  0  0
  193.8500  176.8430  146.8860 O   0  0  0  0  0  0  0  0  0  0  0  0
  190.9620  174.4120  145.2070 C   0  0  0  0  0  0  0  0  0  0  0  0
  190.6210  175.6490  145.6400 C   0  0  0  0  0  0  0  0  0  0  0  0
  191.5210  176.4520  146.5470 C   0  0  0  0  0  2  0  0  0  0  0  0
  192.6610  172.7650  145.0170 O   0  0  0  0  0  0  0  0  0  0  0  0
  193.3310  174.7750  145.9650 N   0  0  0  0  0  2  0  0  0  0  0  0
  192.9630  176.0580  146.4620 C   0  0  0  0  0  0  0  0  0  0  0  0
  188.2010  176.1340  146.1500 C   0  0  0  0  0  0  0  0  0  0  0  0
  188.2580  175.4940  147.2350 O   0  0  0  0  0  0  0  0  0  0  0  0
  189.3580  176.2360  145.3070 N   0  0  0  0  0  2  0  0  0  0  0  0
  186.8470  178.1740  147.7190 O   0  0  0  0  0  1  0  0  0  0  0  0
  185.4480  177.4730  143.8310 C   0  0  2  0  0  3  0  0  0  0  0  0
  186.9130  176.7900  145.7580 C   0  0  1  0  0  3  0  0  0  0  0  0
  186.8260  178.2140  146.3240 C   0  0  1  0  0  3  0  0  0  0  0  0
  185.4340  178.9040  144.3540 C   0  0  0  0  0  2  0  0  0  0  0  0
  185.5380  178.8990  145.8740 C   0  0  0  0  0  2  0  0  0  0  0  0
  186.7500  176.7900  144.2360 C   0  0  0  0  0  2  0  0  0  0  0  0
  185.3380  177.4810  142.4400 O   0  0  0  0  0  0  0  0  0  0  0  0
  186.8350  177.9140  140.7780 O   0  0  0  0  0  1  0  0  0  0  0  0
  186.3410  178.3500  142.0070 C   0  0  0  0  0  2  0  0  0  0  0  0
  190.0250  173.5440  144.5550 N   0  0  0  0  0  2  0  0  0  0  0  0
  190.3220  172.8730  143.3600 N   0  0  0  0  0  2  0  0  0  0  0  0
  188.4260  174.8500  140.8390 C   0  0  0  0  0  3  0  0  0  0  0  0
  189.2700  172.8450  139.7730 C   0  0  0  0  0  3  0  0  0  0  0  0
  189.0090  174.4540  142.0460 C   0  0  0  0  0  3  0  0  0  0  0  0
  187.8270  174.5410  138.1910 Cl  0  0  0  0  0  0  0  0  0  0  0  0
  189.8540  172.4500  140.9800 C   0  0  0  0  0  3  0  0  0  0  0  0
  189.7250  173.2540  142.1210 C   0  0  0  0  0  0  0  0  0  0  0  0
  188.5570  174.0460  139.7020 C   0  0  0  0  0  0  0  0  0  0  0  0
  1  7  1  0  0  0  0
  3  1  1  0  0  0  0
  3  4  2  0  0  0  0
  4  5  1  0  0  0  0
  6  1  2  0  0  0  0
  7  8  1  0  0  0  0
  8  5  1  0  0  0  0
  8  2  2  0  0  0  0
  9 10  2  0  0  0  0
 11  4  1  0  0  0  0
 11  9  1  0  0  0  0
 13 19  1  6  0  0  0
 13 18  1  0  0  0  0
 13 16  1  0  0  0  0
 14  9  1  6  0  0  0
 14 15  1  0  0  0  0
 15 12  1  1  0  0  0
 16 17  1  0  0  0  0
 17 15  1  0  0  0  0
 18 14  1  0  0  0  0
 20 21  1  0  0  0  0
 21 19  1  0  0  0  0
 22  3  1  0  0  0  0
 23 22  1  0  0  0  0
 24 26  1  0  0  0  0
 25 28  2  0  0  0  0
 26 29  2  0  0  0  0
 27 30  1  0  0  0  0
 28 29  1  0  0  0  0
 29 23  1  0  0  0  0
 30 25  1  0  0  0  0
 30 24  2  0  0  0  0
M  END
>  <MODEL>
8

>  <REMARK>
 VINA RESULT:      -6.6      3.040      5.970
  Name = 
  7 active torsions:
  status: ('A' for Active; 'I' for Inactive)
    1  A    between atoms: N_4  and  N_10
    2  A    between atoms: N_4  and  C_18
    3  A    between atoms: C_5  and  C_15
    4  A    between atoms: C_9  and  O_11
    5  A    between atoms: N_10  and  C_12
    6  A    between atoms: O_11  and  C_24
    7  A    between atoms: C_19  and  N_22
                            x       y       z     vdW  Elec       q    Type
                         _______ _______ _______ _____ _____    ______ ____

>  <TORSDO>
F 7

$$$$
=
 OpenBabel11042413583D

 30 32  0  0  1  0  0  0  0  0999 V2000
  186.4050  176.9670  144.0010 C   0  0  0  0  0  0  0  0  0  0  0  0
  185.9700  176.6550  147.5710 O   0  0  0  0  0  0  0  0  0  0  0  0
  187.8460  177.2740  143.9430 C   0  0  0  0  0  0  0  0  0  0  0  0
  188.5550  177.4050  145.0900 C   0  0  0  0  0  0  0  0  0  0  0  0
  187.8800  177.5210  146.4340 C   0  0  0  0  0  2  0  0  0  0  0  0
  185.7310  176.8710  142.9420 O   0  0  0  0  0  0  0  0  0  0  0  0
  185.7700  176.7500  145.2590 N   0  0  0  0  0  2  0  0  0  0  0  0
  186.5040  176.9340  146.4670 C   0  0  0  0  0  0  0  0  0  0  0  0
  190.8470  176.3660  145.2220 C   0  0  0  0  0  0  0  0  0  0  0  0
  190.3610  175.2140  145.3810 O   0  0  0  0  0  0  0  0  0  0  0  0
  189.9840  177.5030  145.0790 N   0  0  0  0  0  2  0  0  0  0  0  0
  192.5270  176.7890  147.5570 O   0  0  0  0  0  1  0  0  0  0  0  0
  194.4370  175.9590  143.9200 C   0  0  2  0  0  3  0  0  0  0  0  0
  192.3360  176.5290  145.1780 C   0  0  1  0  0  3  0  0  0  0  0  0
  192.9820  176.0300  146.4780 C   0  0  1  0  0  3  0  0  0  0  0  0
  195.0430  175.3900  145.1970 C   0  0  0  0  0  2  0  0  0  0  0  0
  194.5020  176.1450  146.4050 C   0  0  0  0  0  2  0  0  0  0  0  0
  192.9190  175.8110  143.9590 C   0  0  0  0  0  2  0  0  0  0  0  0
  194.9450  175.2750  142.8150 O   0  0  0  0  0  0  0  0  0  0  0  0
  196.4840  176.8650  142.2750 O   0  0  0  0  0  1  0  0  0  0  0  0
  195.2790  176.2730  141.8980 C   0  0  0  0  0  2  0  0  0  0  0  0
  188.4510  177.4080  142.6490 N   0  0  0  0  0  2  0  0  0  0  0  0
  188.3200  176.4350  141.6490 N   0  0  0  0  0  2  0  0  0  0  0  0
  188.3540  172.7450  142.1420 C   0  0  0  0  0  3  0  0  0  0  0  0
  190.6430  173.5300  142.0250 C   0  0  0  0  0  3  0  0  0  0  0  0
  187.8960  174.0550  141.9740 C   0  0  0  0  0  3  0  0  0  0  0  0
  190.3020  170.8430  142.3770 Cl  0  0  0  0  0  0  0  0  0  0  0  0
  190.1840  174.8400  141.8560 C   0  0  0  0  0  3  0  0  0  0  0  0
  188.8080  175.1060  141.8300 C   0  0  0  0  0  0  0  0  0  0  0  0
  189.7280  172.4830  142.1660 C   0  0  0  0  0  0  0  0  0  0  0  0
  1  7  1  0  0  0  0
  3  1  1  0  0  0  0
  3  4  2  0  0  0  0
  4  5  1  0  0  0  0
  5  8  1  0  0  0  0
  6  1  2  0  0  0  0
  7  8  1  0  0  0  0
  8  2  2  0  0  0  0
  9 10  2  0  0  0  0
 11  4  1  0  0  0  0
 11  9  1  0  0  0  0
 13 19  1  6  0  0  0
 13 18  1  0  0  0  0
 13 16  1  0  0  0  0
 14  9  1  1  0  0  0
 14 15  1  0  0  0  0
 15 12  1  1  0  0  0
 16 17  1  0  0  0  0
 17 15  1  0  0  0  0
 18 14  1  0  0  0  0
 21 20  1  0  0  0  0
 21 19  1  0  0  0  0
 22  3  1  0  0  0  0
 23 29  1  0  0  0  0
 23 22  1  0  0  0  0
 24 30  1  0  0  0  0
 25 30  2  0  0  0  0
 26 24  2  0  0  0  0
 28 25  1  0  0  0  0
 29 28  2  0  0  0  0
 29 26  1  0  0  0  0
 30 27  1  0  0  0  0
M  END
>  <MODEL>
9

>  <REMARK>
 VINA RESULT:      -6.6      3.405      7.631
  Name = 
  7 active torsions:
  status: ('A' for Active; 'I' for Inactive)
    1  A    between atoms: N_4  and  N_10
    2  A    between atoms: N_4  and  C_18
    3  A    between atoms: C_5  and  C_15
    4  A    between atoms: C_9  and  O_11
    5  A    between atoms: N_10  and  C_12
    6  A    between atoms: O_11  and  C_24
    7  A    between atoms: C_19  and  N_22
                            x       y       z     vdW  Elec       q    Type
                         _______ _______ _______ _____ _____    ______ ____

>  <TORSDO>
F 7

$$$$
