=
 OpenBabel11042417173D

 31 34  0  0  1  0  0  0  0  0999 V2000
  191.5680  176.6970  144.8330 C   0  0  0  0  0  0  0  0  0  0  0  0
  188.1200  176.1790  143.5340 C   0  0  0  0  0  0  0  0  0  0  0  0
  192.8840  176.4120  146.9270 C   0  0  0  0  0  0  0  0  0  0  0  0
  192.5260  177.4520  144.2640 N   0  0  0  0  0  2  0  0  0  0  0  0
  194.0970  176.4210  146.5890 O   0  0  0  0  0  0  0  0  0  0  0  0
  191.7770  175.8780  146.0830 C   0  0  1  0  0  3  0  0  0  0  0  0
  187.0910  176.3420  142.7460 C   0  0  0  0  0  0  0  0  0  0  0  0
  191.0370  176.6270  148.1830 C   0  0  0  0  0  3  0  0  0  0  0  0
  190.6380  176.0720  147.0450 C   0  0  0  0  0  0  0  0  0  0  0  0
  191.9840  177.9800  143.1470 C   0  0  0  0  0  3  0  0  0  0  0  0
  189.1480  176.0110  144.3220 C   0  0  0  0  0  0  0  0  0  0  0  0
  189.0280  175.0200  145.4370 C   0  0  0  0  0  2  0  0  0  0  0  0
  192.4360  176.8780  148.1880 N   0  0  0  0  0  2  0  0  0  0  0  0
  189.2120  175.6870  146.7950 C   0  0  0  0  0  2  0  0  0  0  0  0
  190.4200  176.7230  144.0600 C   0  0  0  0  0  0  0  0  0  0  0  0
  190.6770  177.5540  142.9850 C   0  0  0  0  0  3  0  0  0  0  0  0
  186.4780  177.1440  140.5750 N   0  0  0  0  0  0  0  0  0  0  0  0
  187.2800  176.3990  141.2830 C   0  0  0  0  0  0  0  0  0  0  0  0
  186.5550  177.2720  139.2080 O   0  0  0  0  0  1  0  0  0  0  0  0
  188.3240  175.6450  140.7170 O   0  0  0  0  0  0  0  0  0  0  0  0
  188.2430  174.2740  140.3530 C   0  0  0  0  0  2  0  0  0  0  0  0
  190.4680  174.1140  141.4150 C   0  0  0  0  0  1  0  0  0  0  0  0
  189.1120  173.4560  141.2840 C   0  0  0  0  0  2  0  0  0  0  0  0
  185.7220  176.3900  143.3500 C   0  0  0  0  0  2  0  0  0  0  0  0
  185.6610  179.0950  146.6810 C   0  0  0  0  0  3  0  0  0  0  0  0
  185.7610  177.7170  146.9000 C   0  0  0  0  0  0  0  0  0  0  0  0
  185.8490  177.2260  148.1950 O   0  0  0  0  0  1  0  0  0  0  0  0
  185.6830  177.3290  144.5100 C   0  0  0  0  0  0  0  0  0  0  0  0
  185.5860  178.7080  144.2910 C   0  0  0  0  0  3  0  0  0  0  0  0
  185.5730  179.5900  145.3760 C   0  0  0  0  0  3  0  0  0  0  0  0
  185.7750  176.8350  145.8160 C   0  0  0  0  0  3  0  0  0  0  0  0
  2 11  2  0  0  0  0
  3 13  1  0  0  0  0
  4  1  1  0  0  0  0
  5  3  2  0  0  0  0
  6  1  1  6  0  0  0
  6  3  1  0  0  0  0
  6  9  1  0  0  0  0
  7 24  1  0  0  0  0
  7  2  2  0  0  0  0
  8 13  1  0  0  0  0
  9  8  2  0  0  0  0
 10  4  1  0  0  0  0
 11 12  1  0  0  0  0
 12 14  1  0  0  0  0
 14  9  1  0  0  0  0
 15 11  1  0  0  0  0
 15  1  2  0  0  0  0
 16 10  2  0  0  0  0
 16 15  1  0  0  0  0
 17 18  2  0  0  0  0
 18  7  1  0  0  0  0
 19 17  1  0  0  0  0
 20 18  1  0  0  0  0
 21 20  1  0  0  0  0
 21 23  1  0  0  0  0
 23 22  1  0  0  0  0
 24 28  1  0  0  0  0
 25 26  1  0  0  0  0
 26 27  1  0  0  0  0
 28 31  1  0  0  0  0
 29 28  2  0  0  0  0
 29 30  1  0  0  0  0
 30 25  2  0  0  0  0
 31 26  2  0  0  0  0
M  END
>  <MODEL>
1

>  <REMARK>
 VINA RESULT:      -7.3      0.000      0.000
  Name = 
  6 active torsions:
  status: ('A' for Active; 'I' for Inactive)
    1  A    between atoms: C_5  and  O_22
    2  A    between atoms: C_5  and  C_28
    3  A    between atoms: C_13  and  C_14
    4  A    between atoms: C_13  and  C_25
    5  A    between atoms: C_14  and  C_15
    6  A    between atoms: O_22  and  C_25
                            x       y       z     vdW  Elec       q    Type
                         _______ _______ _______ _____ _____    ______ ____

>  <TORSDO>
F 6

$$$$
=
 OpenBabel11042417173D

 31 34  0  0  1  0  0  0  0  0999 V2000
  186.4330  177.7200  143.8740 C   0  0  0  0  0  0  0  0  0  0  0  0
  189.5560  175.7760  144.4320 C   0  0  0  0  0  0  0  0  0  0  0  0
  184.7490  179.0380  145.1500 C   0  0  0  0  0  0  0  0  0  0  0  0
  185.6540  177.6730  142.7780 N   0  0  0  0  0  0  0  0  0  0  0  0
  184.1440  179.7530  144.3070 O   0  0  0  0  0  0  0  0  0  0  0  0
  186.1820  178.6400  145.0440 C   0  0  1  0  0  3  0  0  0  0  0  0
  190.4930  174.9010  144.1810 C   0  0  0  0  0  0  0  0  0  0  0  0
  185.1690  177.8700  147.0200 C   0  0  0  0  0  3  0  0  0  0  0  0
  186.3120  177.8970  146.3440 C   0  0  2  0  0  3  0  0  0  0  0  0
  186.2250  176.7840  141.9400 C   0  0  0  0  0  3  0  0  0  0  0  0
  188.6220  176.6550  144.6850 C   0  0  0  0  0  0  0  0  0  0  0  0
  188.7490  177.4810  145.9260 C   0  0  0  0  0  2  0  0  0  0  0  0
  184.1330  178.5610  146.3340 N   0  0  0  0  0  0  0  0  0  0  0  0
  187.5660  177.2610  146.8620 C   0  0  0  0  0  2  0  0  0  0  0  0
  187.5200  176.8780  143.7210 C   0  0  1  0  0  3  0  0  0  0  0  0
  187.3840  176.2650  142.4890 C   0  0  0  0  0  3  0  0  0  0  0  0
  190.9620  173.6490  142.1960 N   0  0  0  0  0  0  0  0  0  0  0  0
  191.0560  174.7890  142.8210 C   0  0  0  0  0  0  0  0  0  0  0  0
  191.4520  173.4250  140.9300 O   0  0  0  0  0  1  0  0  0  0  0  0
  191.6700  175.9220  142.2590 O   0  0  0  0  0  0  0  0  0  0  0  0
  192.9430  176.4350  142.6270 C   0  0  0  0  0  2  0  0  0  0  0  0
  195.3790  176.0310  142.5350 C   0  0  0  0  0  1  0  0  0  0  0  0
  194.0180  175.4560  142.2070 C   0  0  0  0  0  2  0  0  0  0  0  0
  191.0320  174.0780  145.3100 C   0  0  0  0  0  2  0  0  0  0  0  0
  195.1260  175.0460  146.1570 C   0  0  0  0  0  3  0  0  0  0  0  0
  194.1210  175.9870  146.4000 C   0  0  0  0  0  0  0  0  0  0  0  0
  194.4470  177.2300  146.9240 O   0  0  0  0  0  1  0  0  0  0  0  0
  192.4580  174.4230  145.5880 C   0  0  0  0  0  0  0  0  0  0  0  0
  193.4640  173.4800  145.3490 C   0  0  0  0  0  3  0  0  0  0  0  0
  194.7980  173.7920  145.6310 C   0  0  0  0  0  3  0  0  0  0  0  0
  192.7880  175.6750  146.1190 C   0  0  0  0  0  3  0  0  0  0  0  0
  2 11  2  0  0  0  0
  3 13  1  0  0  0  0
  4  1  2  0  0  0  0
  5  3  2  0  0  0  0
  6  1  1  6  0  0  0
  6  3  1  0  0  0  0
  6  9  1  0  0  0  0
  7  2  2  0  0  0  0
  7 24  1  0  0  0  0
  9 14  1  1  0  0  0
  9  8  1  0  0  0  0
 10 16  2  0  0  0  0
 10  4  1  0  0  0  0
 11 12  1  0  0  0  0
 12 14  1  0  0  0  0
 13  8  2  0  0  0  0
 15 16  1  1  0  0  0
 15  1  1  0  0  0  0
 15 11  1  0  0  0  0
 17 18  2  0  0  0  0
 18  7  1  0  0  0  0
 19 17  1  0  0  0  0
 20 21  1  0  0  0  0
 20 18  1  0  0  0  0
 23 22  1  0  0  0  0
 23 21  1  0  0  0  0
 24 28  1  0  0  0  0
 25 26  1  0  0  0  0
 26 27  1  0  0  0  0
 28 31  1  0  0  0  0
 29 28  2  0  0  0  0
 29 30  1  0  0  0  0
 30 25  2  0  0  0  0
 31 26  2  0  0  0  0
M  END
>  <MODEL>
2

>  <REMARK>
 VINA RESULT:      -7.3      2.677      6.575
  Name = 
  6 active torsions:
  status: ('A' for Active; 'I' for Inactive)
    1  A    between atoms: C_5  and  O_22
    2  A    between atoms: C_5  and  C_28
    3  A    between atoms: C_13  and  C_14
    4  A    between atoms: C_13  and  C_25
    5  A    between atoms: C_14  and  C_15
    6  A    between atoms: O_22  and  C_25
                            x       y       z     vdW  Elec       q    Type
                         _______ _______ _______ _____ _____    ______ ____

>  <TORSDO>
F 6

$$$$
=
 OpenBabel11042417173D

 31 34  0  0  1  0  0  0  0  0999 V2000
  186.5490  177.8220  143.4190 C   0  0  0  0  0  0  0  0  0  0  0  0
  189.6240  175.7700  143.8380 C   0  0  0  0  0  0  0  0  0  0  0  0
  184.9400  179.1520  144.7760 C   0  0  0  0  0  0  0  0  0  0  0  0
  185.7410  177.8310  142.3430 N   0  0  0  0  0  0  0  0  0  0  0  0
  184.3350  179.9090  143.9710 O   0  0  0  0  0  0  0  0  0  0  0  0
  186.3560  178.7140  144.6210 C   0  0  1  0  0  3  0  0  0  0  0  0
  190.5270  174.8750  143.5360 C   0  0  0  0  0  0  0  0  0  0  0  0
  185.3710  177.9160  146.5990 C   0  0  0  0  0  3  0  0  0  0  0  0
  186.4970  177.9290  145.8950 C   0  0  0  0  0  0  0  0  0  0  0  0
  186.2630  176.9510  141.4650 C   0  0  0  0  0  3  0  0  0  0  0  0
  188.7250  176.6680  144.1400 C   0  0  0  0  0  0  0  0  0  0  0  0
  188.9080  177.4530  145.4010 C   0  0  0  0  0  2  0  0  0  0  0  0
  184.3400  178.6580  145.9610 N   0  0  0  0  0  2  0  0  0  0  0  0
  187.7430  177.2410  146.3610 C   0  0  0  0  0  2  0  0  0  0  0  0
  187.6060  176.9530  143.2130 C   0  0  1  0  0  3  0  0  0  0  0  0
  187.4200  176.3820  141.9670 C   0  0  0  0  0  3  0  0  0  0  0  0
  192.3280  174.9680  141.9620 N   0  0  0  0  0  0  0  0  0  0  0  0
  191.0520  174.7870  142.1600 C   0  0  0  0  0  0  0  0  0  0  0  0
  192.9290  174.9130  140.7250 O   0  0  0  0  0  1  0  0  0  0  0  0
  190.1480  174.5090  141.1190 O   0  0  0  0  0  0  0  0  0  0  0  0
  189.8280  173.2130  140.6330 C   0  0  0  0  0  2  0  0  0  0  0  0
  187.8850  172.7230  142.0800 C   0  0  0  0  0  1  0  0  0  0  0  0
  188.3260  173.0220  140.6640 C   0  0  0  0  0  2  0  0  0  0  0  0
  191.0690  174.0040  144.6270 C   0  0  0  0  0  2  0  0  0  0  0  0
  192.2910  176.3930  147.9740 C   0  0  0  0  0  3  0  0  0  0  0  0
  193.0690  176.3680  146.8130 C   0  0  0  0  0  0  0  0  0  0  0  0
  194.2310  177.1240  146.7400 O   0  0  0  0  0  1  0  0  0  0  0  0
  191.5050  174.8210  145.7970 C   0  0  0  0  0  0  0  0  0  0  0  0
  190.7250  174.8500  146.9590 C   0  0  0  0  0  3  0  0  0  0  0  0
  191.1190  175.6340  148.0480 C   0  0  0  0  0  3  0  0  0  0  0  0
  192.6750  175.5850  145.7240 C   0  0  0  0  0  3  0  0  0  0  0  0
  2 11  2  0  0  0  0
  3 13  1  0  0  0  0
  4  1  2  0  0  0  0
  5  3  2  0  0  0  0
  6  1  1  6  0  0  0
  6  3  1  0  0  0  0
  6  9  1  0  0  0  0
  7  2  2  0  0  0  0
  7 24  1  0  0  0  0
  9 14  1  0  0  0  0
  9  8  2  0  0  0  0
 10 16  2  0  0  0  0
 10  4  1  0  0  0  0
 11 12  1  0  0  0  0
 12 14  1  0  0  0  0
 13  8  1  0  0  0  0
 15 16  1  1  0  0  0
 15  1  1  0  0  0  0
 15 11  1  0  0  0  0
 17 18  2  0  0  0  0
 18  7  1  0  0  0  0
 19 17  1  0  0  0  0
 20 18  1  0  0  0  0
 21 23  1  0  0  0  0
 21 20  1  0  0  0  0
 23 22  1  0  0  0  0
 24 28  1  0  0  0  0
 25 30  1  0  0  0  0
 26 25  2  0  0  0  0
 27 26  1  0  0  0  0
 28 29  1  0  0  0  0
 29 30  2  0  0  0  0
 31 28  2  0  0  0  0
 31 26  1  0  0  0  0
M  END
>  <MODEL>
3

>  <REMARK>
 VINA RESULT:      -7.1      2.289      5.851
  Name = 
  6 active torsions:
  status: ('A' for Active; 'I' for Inactive)
    1  A    between atoms: C_5  and  O_22
    2  A    between atoms: C_5  and  C_28
    3  A    between atoms: C_13  and  C_14
    4  A    between atoms: C_13  and  C_25
    5  A    between atoms: C_14  and  C_15
    6  A    between atoms: O_22  and  C_25
                            x       y       z     vdW  Elec       q    Type
                         _______ _______ _______ _____ _____    ______ ____

>  <TORSDO>
F 6

$$$$
=
 OpenBabel11042417173D

 31 34  0  0  1  0  0  0  0  0999 V2000
  189.3770  172.7960  140.5640 C   0  0  0  0  0  0  0  0  0  0  0  0
  188.2660  175.6780  142.6370 C   0  0  0  0  0  0  0  0  0  0  0  0
  190.9880  170.8990  140.6360 C   0  0  0  0  0  0  0  0  0  0  0  0
  189.1470  172.6290  139.2480 N   0  0  0  0  0  0  0  0  0  0  0  0
  190.5970  170.0670  139.7750 O   0  0  0  0  0  0  0  0  0  0  0  0
  190.0850  171.7810  141.4280 C   0  0  1  0  0  3  0  0  0  0  0  0
  187.7280  176.8400  142.8980 C   0  0  0  0  0  0  0  0  0  0  0  0
  192.3450  172.0310  142.0200 C   0  0  0  0  0  3  0  0  0  0  0  0
  191.1150  172.4460  142.2970 C   0  0  2  0  0  3  0  0  0  0  0  0
  188.4480  173.7080  138.8420 C   0  0  0  0  0  3  0  0  0  0  0  0
  188.8020  174.5150  142.3800 C   0  0  0  0  0  0  0  0  0  0  0  0
  189.3370  173.7160  143.5270 C   0  0  0  0  0  2  0  0  0  0  0  0
  192.3530  171.0600  140.9810 N   0  0  0  0  0  0  0  0  0  0  0  0
  190.8290  173.4520  143.3710 C   0  0  0  0  0  2  0  0  0  0  0  0
  188.7980  173.9740  141.0010 C   0  0  1  0  0  3  0  0  0  0  0  0
  188.2140  174.5690  139.8990 C   0  0  0  0  0  3  0  0  0  0  0  0
  186.4550  177.6380  141.0340 N   0  0  0  0  0  0  0  0  0  0  0  0
  186.4470  177.2210  142.2700 C   0  0  0  0  0  0  0  0  0  0  0  0
  185.3260  178.0230  140.3470 O   0  0  0  0  0  1  0  0  0  0  0  0
  185.2720  177.1140  143.0350 O   0  0  0  0  0  0  0  0  0  0  0  0
  184.6710  178.1710  143.7690 C   0  0  0  0  0  2  0  0  0  0  0  0
  185.5700  179.0780  145.8850 C   0  0  0  0  0  1  0  0  0  0  0  0
  184.8410  177.9120  145.2510 C   0  0  0  0  0  2  0  0  0  0  0  0
  188.3920  177.7340  143.8990 C   0  0  0  0  0  2  0  0  0  0  0  0
  189.9360  175.5020  147.2220 C   0  0  0  0  0  3  0  0  0  0  0  0
  190.8080  176.2140  146.3940 C   0  0  0  0  0  0  0  0  0  0  0  0
  192.1720  176.2060  146.6520 O   0  0  0  0  0  1  0  0  0  0  0  0
  188.9330  176.9430  145.0440 C   0  0  0  0  0  0  0  0  0  0  0  0
  188.0600  176.2330  145.8760 C   0  0  0  0  0  3  0  0  0  0  0  0
  188.5620  175.5110  146.9640 C   0  0  0  0  0  3  0  0  0  0  0  0
  190.3070  176.9370  145.3070 C   0  0  0  0  0  3  0  0  0  0  0  0
  1 15  1  0  0  0  0
  2  7  2  0  0  0  0
  3 13  1  0  0  0  0
  3  6  1  0  0  0  0
  4  1  2  0  0  0  0
  5  3  2  0  0  0  0
  6  1  1  6  0  0  0
  6  9  1  0  0  0  0
  7 24  1  0  0  0  0
  9  8  1  1  0  0  0
  9 14  1  0  0  0  0
 10  4  1  0  0  0  0
 10 16  2  0  0  0  0
 11  2  2  0  0  0  0
 11 12  1  0  0  0  0
 13  8  2  0  0  0  0
 14 12  1  0  0  0  0
 15 16  1  6  0  0  0
 15 11  1  0  0  0  0
 17 18  2  0  0  0  0
 18  7  1  0  0  0  0
 18 20  1  0  0  0  0
 19 17  1  0  0  0  0
 20 21  1  0  0  0  0
 21 23  1  0  0  0  0
 23 22  1  0  0  0  0
 24 28  1  0  0  0  0
 26 27  1  0  0  0  0
 26 25  2  0  0  0  0
 28 31  2  0  0  0  0
 28 29  1  0  0  0  0
 29 30  2  0  0  0  0
 30 25  1  0  0  0  0
 31 26  1  0  0  0  0
M  END
>  <MODEL>
4

>  <REMARK>
 VINA RESULT:      -7.1      2.748      5.658
  Name = 
  6 active torsions:
  status: ('A' for Active; 'I' for Inactive)
    1  A    between atoms: C_5  and  O_22
    2  A    between atoms: C_5  and  C_28
    3  A    between atoms: C_13  and  C_14
    4  A    between atoms: C_13  and  C_25
    5  A    between atoms: C_14  and  C_15
    6  A    between atoms: O_22  and  C_25
                            x       y       z     vdW  Elec       q    Type
                         _______ _______ _______ _____ _____    ______ ____

>  <TORSDO>
F 6

$$$$
=
 OpenBabel11042417173D

 31 34  0  0  1  0  0  0  0  0999 V2000
  189.6090  172.8350  141.8380 C   0  0  0  0  0  0  0  0  0  0  0  0
  188.8210  175.4810  144.3310 C   0  0  0  0  0  0  0  0  0  0  0  0
  191.0400  170.8130  141.5850 C   0  0  0  0  0  0  0  0  0  0  0  0
  189.3310  172.8760  140.5220 N   0  0  0  0  0  0  0  0  0  0  0  0
  190.5520  170.1490  140.6330 O   0  0  0  0  0  0  0  0  0  0  0  0
  190.2420  171.6500  142.5260 C   0  0  1  0  0  3  0  0  0  0  0  0
  188.3990  176.6380  144.7710 C   0  0  0  0  0  0  0  0  0  0  0  0
  192.5300  171.6150  143.0600 C   0  0  0  0  0  3  0  0  0  0  0  0
  191.3500  172.0930  143.4390 C   0  0  2  0  0  3  0  0  0  0  0  0
  188.7250  174.0600  140.2950 C   0  0  0  0  0  3  0  0  0  0  0  0
  189.2410  174.3240  143.8960 C   0  0  0  0  0  0  0  0  0  0  0  0
  189.7290  173.3270  144.9000 C   0  0  0  0  0  2  0  0  0  0  0  0
  192.4220  170.8040  141.8970 N   0  0  0  0  0  0  0  0  0  0  0  0
  191.1860  172.9570  144.6510 C   0  0  0  0  0  2  0  0  0  0  0  0
  189.1520  173.9860  142.4570 C   0  0  1  0  0  3  0  0  0  0  0  0
  188.5980  174.7800  141.4700 C   0  0  0  0  0  3  0  0  0  0  0  0
  187.2120  178.1590  143.3550 N   0  0  0  0  0  0  0  0  0  0  0  0
  187.1440  177.2140  144.2510 C   0  0  0  0  0  0  0  0  0  0  0  0
  186.1120  178.7720  142.8020 O   0  0  0  0  0  1  0  0  0  0  0  0
  185.9260  176.7150  144.7470 O   0  0  0  0  0  0  0  0  0  0  0  0
  185.5020  176.7790  146.1010 C   0  0  0  0  0  2  0  0  0  0  0  0
  184.1010  178.7850  145.7510 C   0  0  0  0  0  1  0  0  0  0  0  0
  185.2960  178.2260  146.4930 C   0  0  0  0  0  2  0  0  0  0  0  0
  189.1690  177.3180  145.8600 C   0  0  0  0  0  2  0  0  0  0  0  0
  193.0480  175.5630  146.3910 C   0  0  0  0  0  3  0  0  0  0  0  0
  192.7870  176.3540  145.2680 C   0  0  0  0  0  0  0  0  0  0  0  0
  193.7850  176.5790  144.3310 O   0  0  0  0  0  1  0  0  0  0  0  0
  190.5130  176.6940  146.0350 C   0  0  0  0  0  0  0  0  0  0  0  0
  190.7770  175.9050  147.1600 C   0  0  0  0  0  3  0  0  0  0  0  0
  192.0440  175.3380  147.3380 C   0  0  0  0  0  3  0  0  0  0  0  0
  191.5210  176.9220  145.0910 C   0  0  0  0  0  3  0  0  0  0  0  0
  1 15  1  0  0  0  0
  1  6  1  0  0  0  0
  2  7  2  0  0  0  0
  3 13  1  0  0  0  0
  4  1  2  0  0  0  0
  5  3  2  0  0  0  0
  6  3  1  6  0  0  0
  6  9  1  0  0  0  0
  7 24  1  0  0  0  0
  9  8  1  1  0  0  0
  9 14  1  0  0  0  0
 10  4  1  0  0  0  0
 10 16  2  0  0  0  0
 11  2  2  0  0  0  0
 11 12  1  0  0  0  0
 13  8  2  0  0  0  0
 14 12  1  0  0  0  0
 15 16  1  6  0  0  0
 15 11  1  0  0  0  0
 17 18  2  0  0  0  0
 18 20  1  0  0  0  0
 18  7  1  0  0  0  0
 19 17  1  0  0  0  0
 20 21  1  0  0  0  0
 21 23  1  0  0  0  0
 22 23  1  0  0  0  0
 24 28  1  0  0  0  0
 25 30  1  0  0  0  0
 26 25  2  0  0  0  0
 27 26  1  0  0  0  0
 28 29  1  0  0  0  0
 29 30  2  0  0  0  0
 31 26  1  0  0  0  0
 31 28  2  0  0  0  0
M  END
>  <MODEL>
5

>  <REMARK>
 VINA RESULT:      -6.9      2.727      6.066
  Name = 
  6 active torsions:
  status: ('A' for Active; 'I' for Inactive)
    1  A    between atoms: C_5  and  O_22
    2  A    between atoms: C_5  and  C_28
    3  A    between atoms: C_13  and  C_14
    4  A    between atoms: C_13  and  C_25
    5  A    between atoms: C_14  and  C_15
    6  A    between atoms: O_22  and  C_25
                            x       y       z     vdW  Elec       q    Type
                         _______ _______ _______ _____ _____    ______ ____

>  <TORSDO>
F 6

$$$$
=
 OpenBabel11042417173D

 31 34  0  0  1  0  0  0  0  0999 V2000
  186.5150  177.7530  143.8580 C   0  0  0  0  0  0  0  0  0  0  0  0
  189.6490  175.8470  144.4730 C   0  0  0  0  0  0  0  0  0  0  0  0
  184.7900  179.0480  145.1030 C   0  0  0  0  0  0  0  0  0  0  0  0
  185.7570  177.6990  142.7470 N   0  0  0  0  0  0  0  0  0  0  0  0
  184.1920  179.7570  144.2500 O   0  0  0  0  0  0  0  0  0  0  0  0
  186.2290  178.6680  145.0250 C   0  0  1  0  0  3  0  0  0  0  0  0
  190.6020  174.9830  144.2380 C   0  0  0  0  0  0  0  0  0  0  0  0
  185.1880  177.8810  146.9780 C   0  0  0  0  0  3  0  0  0  0  0  0
  186.3430  177.9240  146.3250 C   0  0  2  0  0  3  0  0  0  0  0  0
  186.3550  176.8190  141.9190 C   0  0  0  0  0  3  0  0  0  0  0  0
  188.7000  176.7130  144.7090 C   0  0  0  0  0  0  0  0  0  0  0  0
  188.7920  177.5380  145.9540 C   0  0  0  0  0  2  0  0  0  0  0  0
  184.1570  178.5610  146.2740 N   0  0  0  0  0  0  0  0  0  0  0  0
  187.5950  177.3020  146.8660 C   0  0  0  0  0  2  0  0  0  0  0  0
  187.6150  176.9240  143.7250 C   0  0  1  0  0  3  0  0  0  0  0  0
  187.5100  176.3130  142.4890 C   0  0  0  0  0  3  0  0  0  0  0  0
  192.3410  175.4550  142.6630 N   0  0  0  0  0  0  0  0  0  0  0  0
  191.1930  174.8810  142.8900 C   0  0  0  0  0  0  0  0  0  0  0  0
  192.9850  175.4310  141.4470 O   0  0  0  0  0  1  0  0  0  0  0  0
  190.4880  174.1640  141.9060 O   0  0  0  0  0  0  0  0  0  0  0  0
  190.4920  172.7520  141.7580 C   0  0  0  0  0  2  0  0  0  0  0  0
  188.0340  172.6660  141.9960 C   0  0  0  0  0  1  0  0  0  0  0  0
  189.3480  172.1600  142.5520 C   0  0  0  0  0  2  0  0  0  0  0  0
  191.1290  174.1650  145.3760 C   0  0  0  0  0  2  0  0  0  0  0  0
  195.2290  175.1650  146.1540 C   0  0  0  0  0  3  0  0  0  0  0  0
  194.9040  173.9150  145.6180 C   0  0  0  0  0  0  0  0  0  0  0  0
  195.9080  173.0020  145.3280 O   0  0  0  0  0  1  0  0  0  0  0  0
  192.5540  174.5050  145.6630 C   0  0  0  0  0  0  0  0  0  0  0  0
  192.8810  175.7570  146.1960 C   0  0  0  0  0  3  0  0  0  0  0  0
  194.2180  176.0860  146.4430 C   0  0  0  0  0  3  0  0  0  0  0  0
  193.5680  173.5860  145.3690 C   0  0  0  0  0  3  0  0  0  0  0  0
  2 11  2  0  0  0  0
  3 13  1  0  0  0  0
  4  1  2  0  0  0  0
  5  3  2  0  0  0  0
  6  1  1  6  0  0  0
  6  3  1  0  0  0  0
  6  9  1  0  0  0  0
  7  2  2  0  0  0  0
  7 24  1  0  0  0  0
  9 14  1  1  0  0  0
  9  8  1  0  0  0  0
 10 16  2  0  0  0  0
 10  4  1  0  0  0  0
 11 12  1  0  0  0  0
 12 14  1  0  0  0  0
 13  8  2  0  0  0  0
 15 16  1  1  0  0  0
 15  1  1  0  0  0  0
 15 11  1  0  0  0  0
 17 18  2  0  0  0  0
 18  7  1  0  0  0  0
 19 17  1  0  0  0  0
 20 18  1  0  0  0  0
 21 20  1  0  0  0  0
 21 23  1  0  0  0  0
 22 23  1  0  0  0  0
 24 28  1  0  0  0  0
 25 30  1  0  0  0  0
 26 25  2  0  0  0  0
 27 26  1  0  0  0  0
 28 29  1  0  0  0  0
 29 30  2  0  0  0  0
 31 26  1  0  0  0  0
 31 28  2  0  0  0  0
M  END
>  <MODEL>
6

>  <REMARK>
 VINA RESULT:      -6.9      2.499      6.532
  Name = 
  6 active torsions:
  status: ('A' for Active; 'I' for Inactive)
    1  A    between atoms: C_5  and  O_22
    2  A    between atoms: C_5  and  C_28
    3  A    between atoms: C_13  and  C_14
    4  A    between atoms: C_13  and  C_25
    5  A    between atoms: C_14  and  C_15
    6  A    between atoms: O_22  and  C_25
                            x       y       z     vdW  Elec       q    Type
                         _______ _______ _______ _____ _____    ______ ____

>  <TORSDO>
F 6

$$$$
=
 OpenBabel11042417173D

 31 34  0  0  1  0  0  0  0  0999 V2000
  185.1550  178.1450  143.6440 C   0  0  0  0  0  0  0  0  0  0  0  0
  188.7400  177.4520  144.3580 C   0  0  0  0  0  0  0  0  0  0  0  0
  183.5660  178.2080  141.7290 C   0  0  0  0  0  0  0  0  0  0  0  0
  184.2910  178.7790  144.4590 N   0  0  0  0  0  2  0  0  0  0  0  0
  182.4090  178.1440  142.2230 O   0  0  0  0  0  0  0  0  0  0  0  0
  184.7700  177.5500  142.3110 C   0  0  1  0  0  3  0  0  0  0  0  0
  189.8680  177.4890  145.0160 C   0  0  0  0  0  0  0  0  0  0  0  0
  185.2290  178.6590  140.2910 C   0  0  0  0  0  3  0  0  0  0  0  0
  185.7710  177.9210  141.2530 C   0  0  2  0  0  3  0  0  0  0  0  0
  184.9850  179.1120  145.5660 C   0  0  0  0  0  3  0  0  0  0  0  0
  187.6130  177.4100  143.6980 C   0  0  0  0  0  0  0  0  0  0  0  0
  187.5710  176.6270  142.4230 C   0  0  0  0  0  2  0  0  0  0  0  0
  183.8440  178.8900  140.5180 N   0  0  0  0  0  0  0  0  0  0  0  0
  187.2130  177.5150  141.2380 C   0  0  0  0  0  2  0  0  0  0  0  0
  186.3970  178.0510  144.2480 C   0  0  0  0  0  0  0  0  0  0  0  0
  186.2960  178.6810  145.4750 C   0  0  0  0  0  3  0  0  0  0  0  0
  190.9810  177.5220  147.1360 N   0  0  0  0  0  0  0  0  0  0  0  0
  189.8780  177.2910  146.4790 C   0  0  0  0  0  0  0  0  0  0  0  0
  191.1100  177.3690  148.4970 O   0  0  0  0  0  1  0  0  0  0  0  0
  188.6930  176.8600  147.1010 O   0  0  0  0  0  0  0  0  0  0  0  0
  188.1620  175.5440  147.0370 C   0  0  0  0  0  2  0  0  0  0  0  0
  189.6610  173.9430  145.8970 C   0  0  0  0  0  1  0  0  0  0  0  0
  189.2810  174.5430  147.2330 C   0  0  0  0  0  2  0  0  0  0  0  0
  191.1440  177.6570  144.2510 C   0  0  0  0  0  2  0  0  0  0  0  0
  192.7550  173.8250  143.1890 C   0  0  0  0  0  3  0  0  0  0  0  0
  193.3230  174.5550  144.2370 C   0  0  0  0  0  0  0  0  0  0  0  0
  194.4020  174.0360  144.9390 O   0  0  0  0  0  1  0  0  0  0  0  0
  191.7170  176.3320  143.8710 C   0  0  0  0  0  0  0  0  0  0  0  0
  191.1470  175.5980  142.8240 C   0  0  0  0  0  3  0  0  0  0  0  0
  191.6670  174.3460  142.4820 C   0  0  0  0  0  3  0  0  0  0  0  0
  192.8030  175.8070  144.5800 C   0  0  0  0  0  3  0  0  0  0  0  0
  1 15  2  0  0  0  0
  1  4  1  0  0  0  0
  2  7  2  0  0  0  0
  3  5  2  0  0  0  0
  4 10  1  0  0  0  0
  6  3  1  6  0  0  0
  6  1  1  0  0  0  0
  7 18  1  0  0  0  0
  8 13  2  0  0  0  0
  9  8  1  6  0  0  0
  9  6  1  0  0  0  0
 11 15  1  0  0  0  0
 11  2  2  0  0  0  0
 12 11  1  0  0  0  0
 13  3  1  0  0  0  0
 14  9  1  0  0  0  0
 14 12  1  0  0  0  0
 15 16  1  0  0  0  0
 16 10  2  0  0  0  0
 17 19  1  0  0  0  0
 18 20  1  0  0  0  0
 18 17  2  0  0  0  0
 21 20  1  0  0  0  0
 21 23  1  0  0  0  0
 22 23  1  0  0  0  0
 24  7  1  0  0  0  0
 25 26  1  0  0  0  0
 26 31  2  0  0  0  0
 26 27  1  0  0  0  0
 28 24  1  0  0  0  0
 28 31  1  0  0  0  0
 29 28  2  0  0  0  0
 30 29  1  0  0  0  0
 30 25  2  0  0  0  0
M  END
>  <MODEL>
7

>  <REMARK>
 VINA RESULT:      -6.8      2.404      7.567
  Name = 
  6 active torsions:
  status: ('A' for Active; 'I' for Inactive)
    1  A    between atoms: C_5  and  O_22
    2  A    between atoms: C_5  and  C_28
    3  A    between atoms: C_13  and  C_14
    4  A    between atoms: C_13  and  C_25
    5  A    between atoms: C_14  and  C_15
    6  A    between atoms: O_22  and  C_25
                            x       y       z     vdW  Elec       q    Type
                         _______ _______ _______ _____ _____    ______ ____

>  <TORSDO>
F 6

$$$$
=
 OpenBabel11042417173D

 31 34  0  0  1  0  0  0  0  0999 V2000
  193.0050  173.9140  144.0150 C   0  0  0  0  0  0  0  0  0  0  0  0
  189.8570  175.8940  144.0860 C   0  0  0  0  0  0  0  0  0  0  0  0
  195.0860  173.5840  145.3420 C   0  0  0  0  0  0  0  0  0  0  0  0
  193.5110  173.2640  142.9500 N   0  0  0  0  0  0  0  0  0  0  0  0
  195.5780  172.4870  144.9670 O   0  0  0  0  0  0  0  0  0  0  0  0
  193.6260  173.8810  145.3900 C   0  0  1  0  0  3  0  0  0  0  0  0
  188.7820  176.4680  143.6140 C   0  0  0  0  0  0  0  0  0  0  0  0
  194.9400  175.6570  146.1900 C   0  0  0  0  0  3  0  0  0  0  0  0
  193.6900  175.2620  145.9790 C   0  0  2  0  0  3  0  0  0  0  0  0
  192.6590  173.4830  141.9280 C   0  0  0  0  0  3  0  0  0  0  0  0
  190.9290  175.3190  144.5610 C   0  0  0  0  0  0  0  0  0  0  0  0
  191.1880  175.4160  146.0320 C   0  0  0  0  0  2  0  0  0  0  0  0
  195.8800  174.6600  145.8100 N   0  0  0  0  0  0  0  0  0  0  0  0
  192.5090  176.1200  146.3180 C   0  0  0  0  0  2  0  0  0  0  0  0
  191.8110  174.5250  143.6750 C   0  0  1  0  0  3  0  0  0  0  0  0
  191.5920  174.2630  142.3360 C   0  0  0  0  0  3  0  0  0  0  0  0
  188.1130  174.4750  142.4690 N   0  0  0  0  0  0  0  0  0  0  0  0
  187.9230  175.7520  142.6500 C   0  0  0  0  0  0  0  0  0  0  0  0
  187.3780  173.7060  141.5970 O   0  0  0  0  0  1  0  0  0  0  0  0
  186.9340  176.4830  141.9680 O   0  0  0  0  0  0  0  0  0  0  0  0
  187.0590  177.0060  140.6530 C   0  0  0  0  0  2  0  0  0  0  0  0
  184.9460  177.9220  141.5470 C   0  0  0  0  0  1  0  0  0  0  0  0
  185.8850  177.9160  140.3610 C   0  0  0  0  0  2  0  0  0  0  0  0
  188.4030  177.8220  144.1290 C   0  0  0  0  0  2  0  0  0  0  0  0
  185.1330  177.5060  146.8890 C   0  0  0  0  0  3  0  0  0  0  0  0
  185.0220  178.3310  145.7660 C   0  0  0  0  0  0  0  0  0  0  0  0
  183.8500  179.0390  145.5390 O   0  0  0  0  0  1  0  0  0  0  0  0
  187.2710  177.7270  145.0980 C   0  0  0  0  0  0  0  0  0  0  0  0
  187.3800  176.8990  146.2210 C   0  0  0  0  0  3  0  0  0  0  0  0
  186.3120  176.7900  147.1170 C   0  0  0  0  0  3  0  0  0  0  0  0
  186.0890  178.4390  144.8690 C   0  0  0  0  0  3  0  0  0  0  0  0
  2 11  2  0  0  0  0
  3  6  1  0  0  0  0
  3 13  1  0  0  0  0
  4  1  2  0  0  0  0
  5  3  2  0  0  0  0
  6  1  1  6  0  0  0
  6  9  1  0  0  0  0
  7  2  2  0  0  0  0
  7 24  1  0  0  0  0
  9  8  1  1  0  0  0
  9 14  1  0  0  0  0
 10 16  2  0  0  0  0
 10  4  1  0  0  0  0
 11 12  1  0  0  0  0
 12 14  1  0  0  0  0
 13  8  2  0  0  0  0
 15 16  1  6  0  0  0
 15  1  1  0  0  0  0
 15 11  1  0  0  0  0
 17 18  2  0  0  0  0
 18  7  1  0  0  0  0
 19 17  1  0  0  0  0
 20 18  1  0  0  0  0
 21 20  1  0  0  0  0
 23 21  1  0  0  0  0
 23 22  1  0  0  0  0
 24 28  1  0  0  0  0
 25 30  1  0  0  0  0
 26 25  2  0  0  0  0
 27 26  1  0  0  0  0
 28 29  1  0  0  0  0
 29 30  2  0  0  0  0
 31 28  2  0  0  0  0
 31 26  1  0  0  0  0
M  END
>  <MODEL>
8

>  <REMARK>
 VINA RESULT:      -6.8      2.443      3.493
  Name = 
  6 active torsions:
  status: ('A' for Active; 'I' for Inactive)
    1  A    between atoms: C_5  and  O_22
    2  A    between atoms: C_5  and  C_28
    3  A    between atoms: C_13  and  C_14
    4  A    between atoms: C_13  and  C_25
    5  A    between atoms: C_14  and  C_15
    6  A    between atoms: O_22  and  C_25
                            x       y       z     vdW  Elec       q    Type
                         _______ _______ _______ _____ _____    ______ ____

>  <TORSDO>
F 6

$$$$
=
 OpenBabel11042417173D

 31 34  0  0  1  0  0  0  0  0999 V2000
  186.4320  177.8050  143.5980 C   0  0  0  0  0  0  0  0  0  0  0  0
  189.0650  175.1940  143.8970 C   0  0  0  0  0  0  0  0  0  0  0  0
  185.0220  179.2710  145.0340 C   0  0  0  0  0  0  0  0  0  0  0  0
  185.6910  178.0640  142.5040 N   0  0  0  0  0  0  0  0  0  0  0  0
  184.6030  180.1990  144.2930 O   0  0  0  0  0  0  0  0  0  0  0  0
  186.3440  178.5980  144.8780 C   0  0  1  0  0  3  0  0  0  0  0  0
  189.8070  174.1810  143.5340 C   0  0  0  0  0  0  0  0  0  0  0  0
  185.1370  177.8100  146.7340 C   0  0  0  0  0  3  0  0  0  0  0  0
  186.2790  177.6840  146.0690 C   0  0  0  0  0  0  0  0  0  0  0  0
  186.0890  177.1900  141.5560 C   0  0  0  0  0  3  0  0  0  0  0  0
  188.3280  176.2090  144.2630 C   0  0  0  0  0  0  0  0  0  0  0  0
  188.5870  176.8230  145.6020 C   0  0  0  0  0  2  0  0  0  0  0  0
  184.2870  178.7850  146.1440 N   0  0  0  0  0  2  0  0  0  0  0  0
  187.3590  176.7380  146.4990 C   0  0  0  0  0  2  0  0  0  0  0  0
  187.3240  176.7800  143.3360 C   0  0  1  0  0  3  0  0  0  0  0  0
  187.0990  176.3730  142.0330 C   0  0  0  0  0  3  0  0  0  0  0  0
  190.0800  173.1140  141.4090 N   0  0  0  0  0  0  0  0  0  0  0  0
  190.3730  174.1300  142.1710 C   0  0  0  0  0  0  0  0  0  0  0  0
  190.5510  172.9570  140.1250 O   0  0  0  0  0  1  0  0  0  0  0  0
  191.2060  175.1840  141.7560 O   0  0  0  0  0  0  0  0  0  0  0  0
  192.6130  175.2410  141.9380 C   0  0  0  0  0  2  0  0  0  0  0  0
  191.9060  177.3840  142.9440 C   0  0  0  0  0  1  0  0  0  0  0  0
  192.9420  176.2820  142.9870 C   0  0  0  0  0  2  0  0  0  0  0  0
  190.1310  173.1260  144.5450 C   0  0  0  0  0  2  0  0  0  0  0  0
  194.3160  173.2030  145.4880 C   0  0  0  0  0  3  0  0  0  0  0  0
  193.7820  172.1320  144.7650 C   0  0  0  0  0  0  0  0  0  0  0  0
  194.6080  171.0990  144.3440 O   0  0  0  0  0  1  0  0  0  0  0  0
  191.5840  173.1420  144.8880 C   0  0  0  0  0  0  0  0  0  0  0  0
  192.1200  174.2160  145.6090 C   0  0  0  0  0  3  0  0  0  0  0  0
  193.4850  174.2450  145.9100 C   0  0  0  0  0  3  0  0  0  0  0  0
  192.4180  172.1030  144.4620 C   0  0  0  0  0  3  0  0  0  0  0  0
  2 11  2  0  0  0  0
  3 13  1  0  0  0  0
  4  1  2  0  0  0  0
  5  3  2  0  0  0  0
  6  1  1  6  0  0  0
  6  3  1  0  0  0  0
  6  9  1  0  0  0  0
  7  2  2  0  0  0  0
  7 24  1  0  0  0  0
  9 14  1  0  0  0  0
  9  8  2  0  0  0  0
 10 16  2  0  0  0  0
 10  4  1  0  0  0  0
 11 12  1  0  0  0  0
 12 14  1  0  0  0  0
 13  8  1  0  0  0  0
 15 16  1  1  0  0  0
 15  1  1  0  0  0  0
 15 11  1  0  0  0  0
 17 18  2  0  0  0  0
 18  7  1  0  0  0  0
 19 17  1  0  0  0  0
 20 21  1  0  0  0  0
 20 18  1  0  0  0  0
 21 23  1  0  0  0  0
 22 23  1  0  0  0  0
 24 28  1  0  0  0  0
 25 30  1  0  0  0  0
 26 25  2  0  0  0  0
 27 26  1  0  0  0  0
 28 29  1  0  0  0  0
 29 30  2  0  0  0  0
 31 26  1  0  0  0  0
 31 28  2  0  0  0  0
M  END
>  <MODEL>
9

>  <REMARK>
 VINA RESULT:      -6.8      2.961      6.538
  Name = 
  6 active torsions:
  status: ('A' for Active; 'I' for Inactive)
    1  A    between atoms: C_5  and  O_22
    2  A    between atoms: C_5  and  C_28
    3  A    between atoms: C_13  and  C_14
    4  A    between atoms: C_13  and  C_25
    5  A    between atoms: C_14  and  C_15
    6  A    between atoms: O_22  and  C_25
                            x       y       z     vdW  Elec       q    Type
                         _______ _______ _______ _____ _____    ______ ____

>  <TORSDO>
F 6

$$$$
