=
 OpenBabel11042416073D

 34 38  0  0  1  0  0  0  0  0999 V2000
  188.6100  174.8280  140.6350 N   0  0  0  0  0  0  0  0  0  0  0  0
  186.1210  177.6600  140.8150 C   0  0  0  0  0  3  0  0  0  0  0  0
  187.1170  176.7480  141.1520 C   0  0  0  0  0  0  0  0  0  0  0  0
  184.6670  179.5100  144.6110 N   0  0  0  0  0  2  0  0  0  0  0  0
  184.8200  178.6750  145.7600 C   0  0  0  0  0  0  0  0  0  0  0  0
  187.7010  176.8130  142.4210 C   0  0  0  0  0  0  0  0  0  0  0  0
  189.1510  174.8920  141.8160 C   0  0  0  0  0  0  0  0  0  0  0  0
  187.2310  177.7960  145.9310 C   0  0  0  0  0  0  0  0  0  0  0  0
  188.0120  177.6520  147.1860 C   0  0  0  0  0  1  0  0  0  0  0  0
  185.7370  178.6090  141.7060 N   0  0  0  0  0  0  0  0  0  0  0  0
  185.8270  179.8710  143.7900 C   0  0  0  0  0  2  0  0  0  0  0  0
  187.5400  175.7090  140.1520 C   0  0  0  0  0  2  0  0  0  0  0  0
  188.7140  175.8690  142.7640 N   0  0  0  0  0  2  0  0  0  0  0  0
  187.8990  177.7530  144.6620 N   0  0  0  0  0  2  0  0  0  0  0  0
  187.2780  177.7730  143.3550 C   0  0  0  0  0  0  0  0  0  0  0  0
  185.9930  178.1690  145.9790 C   0  0  0  0  0  0  0  0  0  0  0  0
  183.6520  178.3070  146.6020 C   0  0  0  0  0  1  0  0  0  0  0  0
  186.2820  178.7110  142.9490 C   0  0  0  0  0  0  0  0  0  0  0  0
  190.2180  173.9150  142.1870 C   0  0  1  0  0  3  0  0  0  0  0  0
  190.5010  173.0240  141.0680 N   0  0  0  0  0  2  0  0  0  0  0  0
  190.3450  171.6080  141.1570 C   0  0  0  0  0  0  0  0  0  0  0  0
  190.0050  171.0650  142.2410 O   0  0  0  0  0  0  0  0  0  0  0  0
  190.5910  170.7660  139.9550 C   0  0  0  0  0  1  0  0  0  0  0  0
  191.4800  174.6590  142.5940 C   0  0  0  0  0  2  0  0  0  0  0  0
  191.7000  174.5360  144.0280 N   0  0  0  0  0  2  0  0  0  0  0  0
  192.6430  175.8860  145.7870 C   0  0  0  0  0  0  0  0  0  0  0  0
  194.9440  176.7850  145.7830 C   0  0  0  0  0  3  0  0  0  0  0  0
  195.1120  176.3770  144.3540 C   0  0  0  0  0  2  0  0  0  0  0  0
  192.8300  175.0950  144.7100 C   0  0  0  0  0  0  0  0  0  0  0  0
  193.7920  176.5740  146.4250 C   0  0  0  0  0  3  0  0  0  0  0  0
  194.5050  174.6750  144.1610 S   0  0  0  0  0  0  0  0  0  0  0  0
  191.3780  176.6230  147.7930 C   0  0  0  0  0  2  0  0  0  0  0  0
  191.2700  176.0670  146.3810 C   0  0  0  0  0  3  0  0  0  0  0  0
  191.0620  175.1610  147.5870 C   0  0  0  0  0  2  0  0  0  0  0  0
  1  7  2  0  0  0  0
  2  3  2  0  0  0  0
  2 10  1  0  0  0  0
  3  6  1  0  0  0  0
  4  5  1  0  0  0  0
  5 16  2  0  0  0  0
  5 17  1  0  0  0  0
  6 13  1  0  0  0  0
  6 15  2  0  0  0  0
  7 19  1  0  0  0  0
  7 13  1  0  0  0  0
  8 16  2  0  0  0  0
  8  9  1  0  0  0  0
 10 18  2  0  0  0  0
 11  4  1  0  0  0  0
 12  1  1  0  0  0  0
 12  3  1  0  0  0  0
 14  8  1  0  0  0  0
 15 14  1  0  0  0  0
 18 15  1  0  0  0  0
 18 11  1  0  0  0  0
 19 24  1  6  0  0  0
 20 21  1  0  0  0  0
 20 19  1  0  0  0  0
 21 22  2  0  0  0  0
 23 21  1  0  0  0  0
 24 25  1  0  0  0  0
 25 29  1  0  0  0  0
 26 33  1  0  0  0  0
 26 30  1  0  0  0  0
 27 30  2  0  0  0  0
 28 27  1  0  0  0  0
 29 26  2  0  0  0  0
 31 28  1  0  0  0  0
 31 29  1  0  0  0  0
 33 34  1  0  0  0  0
 33 32  1  0  0  0  0
 34 32  1  0  0  0  0
M  END
>  <MODEL>
1

>  <REMARK>
 VINA RESULT:      -7.7      0.000      0.000
  Name = 
  6 active torsions:
  status: ('A' for Active; 'I' for Inactive)
    1  A    between atoms: N_1  and  C_3
    2  A    between atoms: C_3  and  C_17
    3  A    between atoms: C_3  and  C_32
    4  A    between atoms: N_4  and  C_24
    5  A    between atoms: N_4  and  C_32
    6  A    between atoms: C_5  and  C_9
                            x       y       z     vdW  Elec       q    Type
                         _______ _______ _______ _____ _____    ______ ____

>  <TORSDO>
F 6

$$$$
=
 OpenBabel11042416073D

 34 38  0  0  1  0  0  0  0  0999 V2000
  191.7420  176.3260  145.6670 N   0  0  0  0  0  0  0  0  0  0  0  0
  195.3090  175.2000  146.1730 C   0  0  0  0  0  3  0  0  0  0  0  0
  193.9660  175.2230  145.8090 C   0  0  0  0  0  0  0  0  0  0  0  0
  196.6670  170.9490  146.0000 N   0  0  0  0  0  2  0  0  0  0  0  0
  195.6240  169.9970  146.2170 C   0  0  0  0  0  0  0  0  0  0  0  0
  193.4140  174.1110  145.1640 C   0  0  0  0  0  0  0  0  0  0  0  0
  191.2330  175.2900  145.0660 C   0  0  0  0  0  0  0  0  0  0  0  0
  193.6220  170.4740  144.6750 C   0  0  0  0  0  0  0  0  0  0  0  0
  192.8010  169.4490  143.9810 C   0  0  0  0  0  1  0  0  0  0  0  0
  196.0740  174.1160  145.8870 N   0  0  0  0  0  0  0  0  0  0  0  0
  196.5660  171.9330  144.9180 C   0  0  0  0  0  2  0  0  0  0  0  0
  193.1330  176.4330  146.1220 C   0  0  0  0  0  2  0  0  0  0  0  0
  192.0340  174.1360  144.8030 N   0  0  0  0  0  2  0  0  0  0  0  0
  193.5490  171.8480  144.2660 N   0  0  0  0  0  2  0  0  0  0  0  0
  194.1980  172.9760  144.9000 C   0  0  0  0  0  0  0  0  0  0  0  0
  194.5530  170.1090  145.4960 C   0  0  0  0  0  0  0  0  0  0  0  0
  195.7170  168.9910  147.3070 C   0  0  0  0  0  1  0  0  0  0  0  0
  195.5800  173.0160  145.2560 C   0  0  0  0  0  0  0  0  0  0  0  0
  189.7920  175.3050  144.6760 C   0  0  1  0  0  3  0  0  0  0  0  0
  189.4050  174.0150  144.1170 N   0  0  0  0  0  2  0  0  0  0  0  0
  189.3170  173.7820  142.7110 C   0  0  0  0  0  0  0  0  0  0  0  0
  189.5230  174.7160  141.8910 O   0  0  0  0  0  0  0  0  0  0  0  0
  188.9780  172.4230  142.2120 C   0  0  0  0  0  1  0  0  0  0  0  0
  188.9320  175.6280  145.8870 C   0  0  0  0  0  2  0  0  0  0  0  0
  188.3650  176.9640  145.7630 N   0  0  0  0  0  2  0  0  0  0  0  0
  186.2130  177.5730  144.8650 C   0  0  0  0  0  0  0  0  0  0  0  0
  184.3410  178.4740  146.2010 C   0  0  0  0  0  3  0  0  0  0  0  0
  185.2480  178.6440  147.3770 C   0  0  0  0  0  2  0  0  0  0  0  0
  186.9720  177.2550  145.9350 C   0  0  0  0  0  0  0  0  0  0  0  0
  184.8040  178.0010  145.0420 C   0  0  0  0  0  3  0  0  0  0  0  0
  186.2260  177.1250  147.5810 S   0  0  0  0  0  0  0  0  0  0  0  0
  185.6390  177.3490  142.4590 C   0  0  0  0  0  2  0  0  0  0  0  0
  186.7710  177.4740  143.4680 C   0  0  0  0  0  3  0  0  0  0  0  0
  186.4460  176.1290  142.8340 C   0  0  0  0  0  2  0  0  0  0  0  0
  1 12  1  0  0  0  0
  3 12  1  0  0  0  0
  3  2  2  0  0  0  0
  4  5  1  0  0  0  0
  5 17  1  0  0  0  0
  6  3  1  0  0  0  0
  7  1  2  0  0  0  0
  8 16  2  0  0  0  0
  9  8  1  0  0  0  0
 10  2  1  0  0  0  0
 11 18  1  0  0  0  0
 11  4  1  0  0  0  0
 13  7  1  0  0  0  0
 13  6  1  0  0  0  0
 14  8  1  0  0  0  0
 14 15  1  0  0  0  0
 15  6  2  0  0  0  0
 15 18  1  0  0  0  0
 16  5  2  0  0  0  0
 18 10  2  0  0  0  0
 19  7  1  0  0  0  0
 19 24  1  1  0  0  0
 20 19  1  0  0  0  0
 21 20  1  0  0  0  0
 22 21  2  0  0  0  0
 23 21  1  0  0  0  0
 25 24  1  0  0  0  0
 25 29  1  0  0  0  0
 26 30  1  0  0  0  0
 26 29  2  0  0  0  0
 27 28  1  0  0  0  0
 28 31  1  0  0  0  0
 29 31  1  0  0  0  0
 30 27  2  0  0  0  0
 32 34  1  0  0  0  0
 32 33  1  0  0  0  0
 33 26  1  0  0  0  0
 34 33  1  0  0  0  0
M  END
>  <MODEL>
2

>  <REMARK>
 VINA RESULT:      -7.6      3.533      8.837
  Name = 
  6 active torsions:
  status: ('A' for Active; 'I' for Inactive)
    1  A    between atoms: N_1  and  C_3
    2  A    between atoms: C_3  and  C_17
    3  A    between atoms: C_3  and  C_32
    4  A    between atoms: N_4  and  C_24
    5  A    between atoms: N_4  and  C_32
    6  A    between atoms: C_5  and  C_9
                            x       y       z     vdW  Elec       q    Type
                         _______ _______ _______ _____ _____    ______ ____

>  <TORSDO>
F 6

$$$$
=
 OpenBabel11042416073D

 34 38  0  0  1  0  0  0  0  0999 V2000
  188.7690  174.7470  140.4120 N   0  0  0  0  0  0  0  0  0  0  0  0
  186.1880  177.4820  140.7270 C   0  0  0  0  0  3  0  0  0  0  0  0
  187.2370  176.6130  141.0080 C   0  0  0  0  0  0  0  0  0  0  0  0
  184.8970  179.3080  144.5940 N   0  0  0  0  0  2  0  0  0  0  0  0
  185.1530  178.4880  145.7360 C   0  0  0  0  0  0  0  0  0  0  0  0
  187.8950  176.7100  142.2380 C   0  0  0  0  0  0  0  0  0  0  0  0
  189.3780  174.8410  141.5570 C   0  0  0  0  0  0  0  0  0  0  0  0
  187.6020  177.7040  145.7640 C   0  0  0  0  0  0  0  0  0  0  0  0
  188.4630  177.6010  146.9700 C   0  0  0  0  0  1  0  0  0  0  0  0
  185.8220  178.4240  141.6340 N   0  0  0  0  0  0  0  0  0  0  0  0
  185.9910  179.7050  143.7010 C   0  0  0  0  0  2  0  0  0  0  0  0
  187.6380  175.5820  139.9900 C   0  0  0  0  0  2  0  0  0  0  0  0
  188.9630  175.8090  142.5240 N   0  0  0  0  0  2  0  0  0  0  0  0
  188.1930  177.6760  144.4570 N   0  0  0  0  0  2  0  0  0  0  0  0
  187.4930  177.6610  143.1910 C   0  0  0  0  0  0  0  0  0  0  0  0
  186.3560  178.0300  145.8860 C   0  0  0  0  0  0  0  0  0  0  0  0
  184.0540  178.0830  146.6510 C   0  0  0  0  0  1  0  0  0  0  0  0
  186.4380  178.5570  142.8410 C   0  0  0  0  0  0  0  0  0  0  0  0
  190.5030  173.9100  141.8670 C   0  0  1  0  0  3  0  0  0  0  0  0
  190.6590  172.9290  140.8000 N   0  0  0  0  0  2  0  0  0  0  0  0
  190.5150  171.5260  141.0190 C   0  0  0  0  0  0  0  0  0  0  0  0
  190.2970  171.0750  142.1740 O   0  0  0  0  0  0  0  0  0  0  0  0
  190.6240  170.5890  139.8690 C   0  0  0  0  0  1  0  0  0  0  0  0
  191.7920  174.6970  142.0460 C   0  0  0  0  0  2  0  0  0  0  0  0
  192.4330  174.3390  143.3040 N   0  0  0  0  0  2  0  0  0  0  0  0
  194.1460  175.5630  144.4760 C   0  0  0  0  0  0  0  0  0  0  0  0
  193.8200  176.7030  146.6430 C   0  0  0  0  0  3  0  0  0  0  0  0
  192.4860  176.0460  146.8000 C   0  0  0  0  0  2  0  0  0  0  0  0
  192.8360  175.2970  144.2910 C   0  0  0  0  0  0  0  0  0  0  0  0
  194.5850  176.4540  145.5770 C   0  0  0  0  0  3  0  0  0  0  0  0
  191.5760  176.1950  145.2340 S   0  0  0  0  0  0  0  0  0  0  0  0
  196.4800  175.7790  143.6570 C   0  0  0  0  0  2  0  0  0  0  0  0
  195.1870  174.9840  143.5520 C   0  0  0  0  0  3  0  0  0  0  0  0
  195.5760  175.9740  142.4640 C   0  0  0  0  0  2  0  0  0  0  0  0
  1  7  2  0  0  0  0
  2  3  2  0  0  0  0
  2 10  1  0  0  0  0
  3  6  1  0  0  0  0
  4  5  1  0  0  0  0
  5 16  2  0  0  0  0
  5 17  1  0  0  0  0
  6 13  1  0  0  0  0
  6 15  2  0  0  0  0
  7 19  1  0  0  0  0
  7 13  1  0  0  0  0
  8 16  2  0  0  0  0
  8  9  1  0  0  0  0
 10 18  2  0  0  0  0
 11  4  1  0  0  0  0
 12  1  1  0  0  0  0
 12  3  1  0  0  0  0
 14  8  1  0  0  0  0
 15 14  1  0  0  0  0
 18 15  1  0  0  0  0
 18 11  1  0  0  0  0
 19 24  1  6  0  0  0
 20 21  1  0  0  0  0
 20 19  1  0  0  0  0
 21 22  2  0  0  0  0
 23 21  1  0  0  0  0
 24 25  1  0  0  0  0
 25 29  1  0  0  0  0
 26 30  1  0  0  0  0
 27 28  1  0  0  0  0
 29 26  2  0  0  0  0
 29 31  1  0  0  0  0
 30 27  2  0  0  0  0
 31 28  1  0  0  0  0
 33 32  1  0  0  0  0
 33 26  1  0  0  0  0
 34 33  1  0  0  0  0
 34 32  1  0  0  0  0
M  END
>  <MODEL>
3

>  <REMARK>
 VINA RESULT:      -7.4      0.916      2.117
  Name = 
  6 active torsions:
  status: ('A' for Active; 'I' for Inactive)
    1  A    between atoms: N_1  and  C_3
    2  A    between atoms: C_3  and  C_17
    3  A    between atoms: C_3  and  C_32
    4  A    between atoms: N_4  and  C_24
    5  A    between atoms: N_4  and  C_32
    6  A    between atoms: C_5  and  C_9
                            x       y       z     vdW  Elec       q    Type
                         _______ _______ _______ _____ _____    ______ ____

>  <TORSDO>
F 6

$$$$
=
 OpenBabel11042416073D

 34 38  0  0  1  0  0  0  0  0999 V2000
  193.2910  176.0400  145.0130 N   0  0  0  0  0  0  0  0  0  0  0  0
  196.4330  174.2610  146.1110 C   0  0  0  0  0  3  0  0  0  0  0  0
  195.1770  174.5190  145.5710 C   0  0  0  0  0  0  0  0  0  0  0  0
  196.7970  169.8350  146.5890 N   0  0  0  0  0  2  0  0  0  0  0  0
  195.5470  169.1660  146.7680 C   0  0  0  0  0  0  0  0  0  0  0  0
  194.4580  173.4730  144.9840 C   0  0  0  0  0  0  0  0  0  0  0  0
  192.6260  175.0650  144.4670 C   0  0  0  0  0  0  0  0  0  0  0  0
  193.8810  169.8430  144.9290 C   0  0  0  0  0  0  0  0  0  0  0  0
  192.9260  168.9310  144.2490 C   0  0  0  0  0  1  0  0  0  0  0  0
  196.9570  173.0100  146.0500 N   0  0  0  0  0  0  0  0  0  0  0  0
  197.0380  170.6610  145.4020 C   0  0  0  0  0  2  0  0  0  0  0  0
  194.6130  175.9100  145.6360 C   0  0  0  0  0  2  0  0  0  0  0  0
  193.1660  173.7410  144.4420 N   0  0  0  0  0  2  0  0  0  0  0  0
  194.1670  171.1320  144.3660 N   0  0  0  0  0  2  0  0  0  0  0  0
  194.9850  172.1710  144.9530 C   0  0  0  0  0  0  0  0  0  0  0  0
  194.6130  169.4040  145.9020 C   0  0  0  0  0  0  0  0  0  0  0  0
  195.2930  168.3220  147.9640 C   0  0  0  0  0  1  0  0  0  0  0  0
  196.2940  171.9650  145.4830 C   0  0  0  0  0  0  0  0  0  0  0  0
  191.2760  175.3320  143.8890 C   0  0  1  0  0  3  0  0  0  0  0  0
  190.4390  174.1420  143.9810 N   0  0  0  0  0  2  0  0  0  0  0  0
  189.8630  173.5180  142.8330 C   0  0  0  0  0  0  0  0  0  0  0  0
  190.0150  174.0160  141.6860 O   0  0  0  0  0  0  0  0  0  0  0  0
  189.0730  172.2680  142.9960 C   0  0  0  0  0  1  0  0  0  0  0  0
  190.6180  176.4900  144.6250 C   0  0  0  0  0  2  0  0  0  0  0  0
  189.2280  176.1750  144.9230 N   0  0  0  0  0  2  0  0  0  0  0  0
  186.9380  176.9240  144.8710 C   0  0  0  0  0  0  0  0  0  0  0  0
  185.6390  177.3200  142.8070 C   0  0  0  0  0  3  0  0  0  0  0  0
  186.7160  176.6760  141.9940 C   0  0  0  0  0  2  0  0  0  0  0  0
  188.1160  176.7590  144.2330 C   0  0  0  0  0  0  0  0  0  0  0  0
  185.7440  177.4080  144.1350 C   0  0  0  0  0  3  0  0  0  0  0  0
  188.3220  177.3370  142.5270 S   0  0  0  0  0  0  0  0  0  0  0  0
  185.5100  177.2140  146.8820 C   0  0  0  0  0  2  0  0  0  0  0  0
  186.8170  176.6480  146.3480 C   0  0  0  0  0  3  0  0  0  0  0  0
  186.8060  177.9380  147.1560 C   0  0  0  0  0  2  0  0  0  0  0  0
  1 12  1  0  0  0  0
  3 12  1  0  0  0  0
  3  2  2  0  0  0  0
  4  5  1  0  0  0  0
  5 17  1  0  0  0  0
  6  3  1  0  0  0  0
  7  1  2  0  0  0  0
  8 16  2  0  0  0  0
  9  8  1  0  0  0  0
 10  2  1  0  0  0  0
 11 18  1  0  0  0  0
 11  4  1  0  0  0  0
 13  7  1  0  0  0  0
 13  6  1  0  0  0  0
 14  8  1  0  0  0  0
 14 15  1  0  0  0  0
 15  6  2  0  0  0  0
 15 18  1  0  0  0  0
 16  5  2  0  0  0  0
 18 10  2  0  0  0  0
 19 20  1  0  0  0  0
 19  7  1  0  0  0  0
 19 24  1  1  0  0  0
 21 23  1  0  0  0  0
 21 20  1  0  0  0  0
 22 21  2  0  0  0  0
 24 25  1  0  0  0  0
 26 33  1  0  0  0  0
 27 30  2  0  0  0  0
 28 31  1  0  0  0  0
 28 27  1  0  0  0  0
 29 26  2  0  0  0  0
 29 25  1  0  0  0  0
 30 26  1  0  0  0  0
 31 29  1  0  0  0  0
 32 34  1  0  0  0  0
 33 32  1  0  0  0  0
 33 34  1  0  0  0  0
M  END
>  <MODEL>
4

>  <REMARK>
 VINA RESULT:      -7.3      3.822      8.973
  Name = 
  6 active torsions:
  status: ('A' for Active; 'I' for Inactive)
    1  A    between atoms: N_1  and  C_3
    2  A    between atoms: C_3  and  C_17
    3  A    between atoms: C_3  and  C_32
    4  A    between atoms: N_4  and  C_24
    5  A    between atoms: N_4  and  C_32
    6  A    between atoms: C_5  and  C_9
                            x       y       z     vdW  Elec       q    Type
                         _______ _______ _______ _____ _____    ______ ____

>  <TORSDO>
F 6

$$$$
=
 OpenBabel11042416073D

 34 38  0  0  1  0  0  0  0  0999 V2000
  187.9450  176.2770  145.9810 N   0  0  0  0  0  0  0  0  0  0  0  0
  191.2180  176.1950  147.8610 C   0  0  0  0  0  3  0  0  0  0  0  0
  190.2820  176.2600  146.8340 C   0  0  0  0  0  0  0  0  0  0  0  0
  195.1790  175.2950  146.0050 N   0  0  0  0  0  2  0  0  0  0  0  0
  195.0920  174.5770  144.7730 C   0  0  0  0  0  0  0  0  0  0  0  0
  190.7240  176.3910  145.5140 C   0  0  0  0  0  0  0  0  0  0  0  0
  188.3610  176.3990  144.7550 C   0  0  0  0  0  0  0  0  0  0  0  0
  193.4650  175.7380  143.1540 C   0  0  0  0  0  0  0  0  0  0  0  0
  193.6610  175.8860  141.6890 C   0  0  0  0  0  1  0  0  0  0  0  0
  192.5430  176.2770  147.5810 N   0  0  0  0  0  0  0  0  0  0  0  0
  194.5030  176.5870  146.1640 C   0  0  0  0  0  2  0  0  0  0  0  0
  188.8170  176.1780  147.1590 C   0  0  0  0  0  2  0  0  0  0  0  0
  189.7600  176.4450  144.4640 N   0  0  0  0  0  2  0  0  0  0  0  0
  192.4820  176.5350  143.8290 N   0  0  0  0  0  2  0  0  0  0  0  0
  192.0970  176.4400  145.2210 C   0  0  0  0  0  0  0  0  0  0  0  0
  194.3140  175.0570  143.8540 C   0  0  0  0  0  0  0  0  0  0  0  0
  195.7770  173.2700  144.5970 C   0  0  0  0  0  1  0  0  0  0  0  0
  193.0170  176.4110  146.3120 C   0  0  0  0  0  0  0  0  0  0  0  0
  187.3640  176.4650  143.6470 C   0  0  1  0  0  3  0  0  0  0  0  0
  186.9170  177.8380  143.4470 N   0  0  0  0  0  2  0  0  0  0  0  0
  185.7580  178.3700  144.0890 C   0  0  0  0  0  0  0  0  0  0  0  0
  185.0380  177.6400  144.8210 O   0  0  0  0  0  0  0  0  0  0  0  0
  185.3980  179.7990  143.8890 C   0  0  0  0  0  1  0  0  0  0  0  0
  187.9800  175.9250  142.3650 C   0  0  0  0  0  2  0  0  0  0  0  0
  187.9470  174.4690  142.3620 N   0  0  0  0  0  2  0  0  0  0  0  0
  189.9710  173.1650  142.2680 C   0  0  0  0  0  0  0  0  0  0  0  0
  191.1460  172.5500  140.1830 C   0  0  0  0  0  3  0  0  0  0  0  0
  190.2760  173.4850  139.4050 C   0  0  0  0  0  2  0  0  0  0  0  0
  188.8800  173.6550  141.6420 C   0  0  0  0  0  0  0  0  0  0  0  0
  191.0100  172.4300  141.5060 C   0  0  0  0  0  3  0  0  0  0  0  0
  188.5490  173.2300  139.9110 S   0  0  0  0  0  0  0  0  0  0  0  0
  191.2090  172.3730  144.2690 C   0  0  0  0  0  2  0  0  0  0  0  0
  190.1450  173.3320  143.7560 C   0  0  0  0  0  3  0  0  0  0  0  0
  189.7490  172.0680  144.5060 C   0  0  0  0  0  2  0  0  0  0  0  0
  1 12  1  0  0  0  0
  3 12  1  0  0  0  0
  3  2  2  0  0  0  0
  4 11  1  0  0  0  0
  5  4  1  0  0  0  0
  6  3  1  0  0  0  0
  7  1  2  0  0  0  0
  8 14  1  0  0  0  0
  8 16  2  0  0  0  0
  9  8  1  0  0  0  0
 10  2  1  0  0  0  0
 11 18  1  0  0  0  0
 13  7  1  0  0  0  0
 13  6  1  0  0  0  0
 14 15  1  0  0  0  0
 15  6  2  0  0  0  0
 15 18  1  0  0  0  0
 16  5  2  0  0  0  0
 17  5  1  0  0  0  0
 18 10  2  0  0  0  0
 19 24  1  6  0  0  0
 19  7  1  0  0  0  0
 20 19  1  0  0  0  0
 20 21  1  0  0  0  0
 21 22  2  0  0  0  0
 23 21  1  0  0  0  0
 25 24  1  0  0  0  0
 26 33  1  0  0  0  0
 27 30  2  0  0  0  0
 28 31  1  0  0  0  0
 28 27  1  0  0  0  0
 29 26  2  0  0  0  0
 29 25  1  0  0  0  0
 30 26  1  0  0  0  0
 31 29  1  0  0  0  0
 32 34  1  0  0  0  0
 33 32  1  0  0  0  0
 33 34  1  0  0  0  0
M  END
>  <MODEL>
5

>  <REMARK>
 VINA RESULT:      -7.3      2.745      7.410
  Name = 
  6 active torsions:
  status: ('A' for Active; 'I' for Inactive)
    1  A    between atoms: N_1  and  C_3
    2  A    between atoms: C_3  and  C_17
    3  A    between atoms: C_3  and  C_32
    4  A    between atoms: N_4  and  C_24
    5  A    between atoms: N_4  and  C_32
    6  A    between atoms: C_5  and  C_9
                            x       y       z     vdW  Elec       q    Type
                         _______ _______ _______ _____ _____    ______ ____

>  <TORSDO>
F 6

$$$$
=
 OpenBabel11042416073D

 34 38  0  0  1  0  0  0  0  0999 V2000
  188.8660  174.7030  140.4840 N   0  0  0  0  0  0  0  0  0  0  0  0
  186.2000  177.3690  140.6600 C   0  0  0  0  0  3  0  0  0  0  0  0
  187.2740  176.5470  140.9850 C   0  0  0  0  0  0  0  0  0  0  0  0
  184.8380  179.3390  144.4300 N   0  0  0  0  0  2  0  0  0  0  0  0
  185.1140  178.5840  145.6120 C   0  0  0  0  0  0  0  0  0  0  0  0
  187.9240  176.7240  142.2100 C   0  0  0  0  0  0  0  0  0  0  0  0
  189.4670  174.8720  141.6250 C   0  0  0  0  0  0  0  0  0  0  0  0
  187.5870  177.8780  145.6840 C   0  0  0  0  0  0  0  0  0  0  0  0
  188.4460  177.8600  146.8960 C   0  0  0  0  0  1  0  0  0  0  0  0
  185.8020  178.3410  141.5190 N   0  0  0  0  0  0  0  0  0  0  0  0
  185.9220  179.7260  143.5220 C   0  0  0  0  0  2  0  0  0  0  0  0
  187.7110  175.4820  140.0200 C   0  0  0  0  0  2  0  0  0  0  0  0
  189.0180  175.8720  142.5420 N   0  0  0  0  0  2  0  0  0  0  0  0
  188.1830  177.8060  144.3810 N   0  0  0  0  0  2  0  0  0  0  0  0
  187.4890  177.7070  143.1150 C   0  0  0  0  0  0  0  0  0  0  0  0
  186.3300  178.1710  145.7870 C   0  0  0  0  0  0  0  0  0  0  0  0
  184.0250  178.1900  146.5420 C   0  0  0  0  0  1  0  0  0  0  0  0
  186.4080  178.5520  142.7200 C   0  0  0  0  0  0  0  0  0  0  0  0
  190.6190  173.9920  141.9820 C   0  0  1  0  0  3  0  0  0  0  0  0
  191.8420  174.7760  142.0920 N   0  0  0  0  0  2  0  0  0  0  0  0
  192.8900  174.7050  141.1250 C   0  0  0  0  0  0  0  0  0  0  0  0
  192.8160  173.9050  140.1550 O   0  0  0  0  0  0  0  0  0  0  0  0
  194.0820  175.5830  141.2680 C   0  0  0  0  0  1  0  0  0  0  0  0
  190.3360  173.2790  143.2960 C   0  0  0  0  0  2  0  0  0  0  0  0
  191.3950  173.5520  144.2580 N   0  0  0  0  0  2  0  0  0  0  0  0
  192.3270  174.9890  145.9530 C   0  0  0  0  0  0  0  0  0  0  0  0
  191.1460  175.6800  148.0090 C   0  0  0  0  0  3  0  0  0  0  0  0
  190.0610  174.6890  147.7320 C   0  0  0  0  0  2  0  0  0  0  0  0
  191.2410  174.4270  145.3820 C   0  0  0  0  0  0  0  0  0  0  0  0
  192.1960  175.7920  147.1930 C   0  0  0  0  0  3  0  0  0  0  0  0
  189.5790  174.8270  145.9850 S   0  0  0  0  0  0  0  0  0  0  0  0
  194.7330  175.5710  146.1590 C   0  0  0  0  0  2  0  0  0  0  0  0
  193.6910  174.8360  145.3290 C   0  0  0  0  0  3  0  0  0  0  0  0
  194.2430  176.1760  144.8650 C   0  0  0  0  0  2  0  0  0  0  0  0
  1  7  2  0  0  0  0
  2  3  2  0  0  0  0
  2 10  1  0  0  0  0
  3  6  1  0  0  0  0
  4  5  1  0  0  0  0
  5 16  2  0  0  0  0
  5 17  1  0  0  0  0
  6 13  1  0  0  0  0
  6 15  2  0  0  0  0
  7 19  1  0  0  0  0
  7 13  1  0  0  0  0
  8 16  2  0  0  0  0
  8  9  1  0  0  0  0
 10 18  2  0  0  0  0
 11  4  1  0  0  0  0
 12  1  1  0  0  0  0
 12  3  1  0  0  0  0
 14  8  1  0  0  0  0
 15 14  1  0  0  0  0
 18 15  1  0  0  0  0
 18 11  1  0  0  0  0
 19 20  1  0  0  0  0
 19 24  1  1  0  0  0
 21 23  1  0  0  0  0
 21 20  1  0  0  0  0
 22 21  2  0  0  0  0
 24 25  1  0  0  0  0
 25 29  1  0  0  0  0
 26 30  1  0  0  0  0
 28 27  1  0  0  0  0
 29 26  2  0  0  0  0
 29 31  1  0  0  0  0
 30 27  2  0  0  0  0
 31 28  1  0  0  0  0
 33 26  1  0  0  0  0
 33 32  1  0  0  0  0
 34 33  1  0  0  0  0
 34 32  1  0  0  0  0
M  END
>  <MODEL>
6

>  <REMARK>
 VINA RESULT:      -7.2      1.625      2.573
  Name = 
  6 active torsions:
  status: ('A' for Active; 'I' for Inactive)
    1  A    between atoms: N_1  and  C_3
    2  A    between atoms: C_3  and  C_17
    3  A    between atoms: C_3  and  C_32
    4  A    between atoms: N_4  and  C_24
    5  A    between atoms: N_4  and  C_32
    6  A    between atoms: C_5  and  C_9
                            x       y       z     vdW  Elec       q    Type
                         _______ _______ _______ _____ _____    ______ ____

>  <TORSDO>
F 6

$$$$
=
 OpenBabel11042416073D

 34 38  0  0  1  0  0  0  0  0999 V2000
  191.4310  176.1890  145.3660 N   0  0  0  0  0  0  0  0  0  0  0  0
  195.1670  176.5000  144.9220 C   0  0  0  0  0  3  0  0  0  0  0  0
  193.8110  176.3250  144.6590 C   0  0  0  0  0  0  0  0  0  0  0  0
  197.4190  175.0460  141.3500 N   0  0  0  0  0  2  0  0  0  0  0  0
  196.7340  174.0390  140.6030 C   0  0  0  0  0  0  0  0  0  0  0  0
  193.3940  176.1030  143.3430 C   0  0  0  0  0  0  0  0  0  0  0  0
  191.0480  175.9820  144.1400 C   0  0  0  0  0  0  0  0  0  0  0  0
  194.3400  174.7930  140.0410 C   0  0  0  0  0  0  0  0  0  0  0  0
  193.6380  174.5550  138.7540 C   0  0  0  0  0  1  0  0  0  0  0  0
  196.0670  176.4710  143.9070 N   0  0  0  0  0  0  0  0  0  0  0  0
  196.7980  176.3540  141.5840 C   0  0  0  0  0  2  0  0  0  0  0  0
  192.8240  176.3700  145.7910 C   0  0  0  0  0  2  0  0  0  0  0  0
  192.0050  175.9130  143.0810 N   0  0  0  0  0  2  0  0  0  0  0  0
  193.8300  175.7630  140.9670 N   0  0  0  0  0  2  0  0  0  0  0  0
  194.3310  176.0370  142.2980 C   0  0  0  0  0  0  0  0  0  0  0  0
  195.5160  174.2900  140.2390 C   0  0  0  0  0  0  0  0  0  0  0  0
  197.3550  172.7120  140.3550 C   0  0  0  0  0  1  0  0  0  0  0  0
  195.7050  176.2630  142.6120 C   0  0  0  0  0  0  0  0  0  0  0  0
  189.5960  175.7900  143.8490 C   0  0  1  0  0  3  0  0  0  0  0  0
  189.3410  174.4190  143.4260 N   0  0  0  0  0  2  0  0  0  0  0  0
  188.8080  174.0990  142.1410 C   0  0  0  0  0  0  0  0  0  0  0  0
  188.4840  175.0100  141.3340 O   0  0  0  0  0  0  0  0  0  0  0  0
  188.6340  172.6730  141.7530 C   0  0  0  0  0  1  0  0  0  0  0  0
  188.7740  176.1170  145.0860 C   0  0  0  0  0  2  0  0  0  0  0  0
  188.2510  177.4740  145.0030 N   0  0  0  0  0  2  0  0  0  0  0  0
  185.8830  177.8820  144.8330 C   0  0  0  0  0  0  0  0  0  0  0  0
  184.6150  177.9150  142.7120 C   0  0  0  0  0  3  0  0  0  0  0  0
  185.7990  177.3650  141.9840 C   0  0  0  0  0  2  0  0  0  0  0  0
  187.0940  177.8340  144.2390 C   0  0  0  0  0  0  0  0  0  0  0  0
  184.6600  178.1280  144.0300 C   0  0  0  0  0  3  0  0  0  0  0  0
  187.2780  178.2900  142.4940 S   0  0  0  0  0  0  0  0  0  0  0  0
  184.4030  178.2460  146.7930 C   0  0  0  0  0  2  0  0  0  0  0  0
  185.7490  177.7160  146.3250 C   0  0  0  0  0  3  0  0  0  0  0  0
  185.6510  179.0630  147.0280 C   0  0  0  0  0  2  0  0  0  0  0  0
  1 12  1  0  0  0  0
  3  2  1  0  0  0  0
  3 12  1  0  0  0  0
  4 11  1  0  0  0  0
  5  4  1  0  0  0  0
  6  3  2  0  0  0  0
  7  1  2  0  0  0  0
  8 16  2  0  0  0  0
  8 14  1  0  0  0  0
  9  8  1  0  0  0  0
 10  2  2  0  0  0  0
 11 18  1  0  0  0  0
 13  6  1  0  0  0  0
 13  7  1  0  0  0  0
 14 15  1  0  0  0  0
 15 18  2  0  0  0  0
 15  6  1  0  0  0  0
 16  5  2  0  0  0  0
 17  5  1  0  0  0  0
 18 10  1  0  0  0  0
 19  7  1  0  0  0  0
 19 24  1  1  0  0  0
 20 19  1  0  0  0  0
 21 20  1  0  0  0  0
 22 21  2  0  0  0  0
 23 21  1  0  0  0  0
 25 24  1  0  0  0  0
 26 33  1  0  0  0  0
 27 30  2  0  0  0  0
 28 31  1  0  0  0  0
 28 27  1  0  0  0  0
 29 26  2  0  0  0  0
 29 25  1  0  0  0  0
 30 26  1  0  0  0  0
 31 29  1  0  0  0  0
 32 34  1  0  0  0  0
 33 32  1  0  0  0  0
 33 34  1  0  0  0  0
M  END
>  <MODEL>
7

>  <REMARK>
 VINA RESULT:      -7.2      3.193      8.454
  Name = 
  6 active torsions:
  status: ('A' for Active; 'I' for Inactive)
    1  A    between atoms: N_1  and  C_3
    2  A    between atoms: C_3  and  C_17
    3  A    between atoms: C_3  and  C_32
    4  A    between atoms: N_4  and  C_24
    5  A    between atoms: N_4  and  C_32
    6  A    between atoms: C_5  and  C_9
                            x       y       z     vdW  Elec       q    Type
                         _______ _______ _______ _____ _____    ______ ____

>  <TORSDO>
F 6

$$$$
=
 OpenBabel11042416073D

 34 38  0  0  1  0  0  0  0  0999 V2000
  193.0670  176.2460  145.2370 N   0  0  0  0  0  0  0  0  0  0  0  0
  189.9070  176.8380  147.2150 C   0  0  0  0  0  3  0  0  0  0  0  0
  190.7850  176.5920  146.1640 C   0  0  0  0  0  0  0  0  0  0  0  0
  185.9950  178.0450  145.4290 N   0  0  0  0  0  2  0  0  0  0  0  0
  186.1090  178.6570  144.1420 C   0  0  0  0  0  0  0  0  0  0  0  0
  190.2750  176.4160  144.8740 C   0  0  0  0  0  0  0  0  0  0  0  0
  192.5880  176.0820  144.0390 C   0  0  0  0  0  0  0  0  0  0  0  0
  187.5260  177.2020  142.5650 C   0  0  0  0  0  0  0  0  0  0  0  0
  187.2530  176.9710  141.1230 C   0  0  0  0  0  1  0  0  0  0  0  0
  188.5700  176.8870  146.9870 N   0  0  0  0  0  0  0  0  0  0  0  0
  186.5290  176.7000  145.6650 C   0  0  0  0  0  2  0  0  0  0  0  0
  192.2630  176.5290  146.4320 C   0  0  0  0  0  2  0  0  0  0  0  0
  191.1820  176.1750  143.7990 N   0  0  0  0  0  2  0  0  0  0  0  0
  188.4420  176.3500  143.2660 N   0  0  0  0  0  2  0  0  0  0  0  0
  188.8940  176.5020  144.6330 C   0  0  0  0  0  0  0  0  0  0  0  0
  186.7890  178.0250  143.2380 C   0  0  0  0  0  0  0  0  0  0  0  0
  185.5670  180.0170  143.8890 C   0  0  0  0  0  1  0  0  0  0  0  0
  188.0300  176.7160  145.7490 C   0  0  0  0  0  0  0  0  0  0  0  0
  193.5240  175.8220  142.9060 C   0  0  1  0  0  3  0  0  0  0  0  0
  194.9060  175.9910  143.3390 N   0  0  0  0  0  2  0  0  0  0  0  0
  195.9230  176.5050  142.4790 C   0  0  0  0  0  0  0  0  0  0  0  0
  195.6680  176.7840  141.2780 O   0  0  0  0  0  0  0  0  0  0  0  0
  197.2970  176.7110  143.0100 C   0  0  0  0  0  1  0  0  0  0  0  0
  193.3130  174.4130  142.3740 C   0  0  0  0  0  2  0  0  0  0  0  0
  194.3710  173.5300  142.8470 N   0  0  0  0  0  2  0  0  0  0  0  0
  195.1470  172.2850  144.7580 C   0  0  0  0  0  0  0  0  0  0  0  0
  194.1980  170.1300  145.5070 C   0  0  0  0  0  3  0  0  0  0  0  0
  193.4010  170.0310  144.2450 C   0  0  0  0  0  2  0  0  0  0  0  0
  194.1780  172.5250  143.8500 C   0  0  0  0  0  0  0  0  0  0  0  0
  195.0160  171.1630  145.7200 C   0  0  0  0  0  3  0  0  0  0  0  0
  192.6020  171.6330  143.9340 S   0  0  0  0  0  0  0  0  0  0  0  0
  197.1100  172.9230  146.1380 C   0  0  0  0  0  2  0  0  0  0  0  0
  196.3690  173.1640  144.8320 C   0  0  0  0  0  3  0  0  0  0  0  0
  196.2650  174.1640  145.9750 C   0  0  0  0  0  2  0  0  0  0  0  0
  1 12  1  0  0  0  0
  3 12  1  0  0  0  0
  3  2  2  0  0  0  0
  4 11  1  0  0  0  0
  5  4  1  0  0  0  0
  6  3  1  0  0  0  0
  7  1  2  0  0  0  0
  8 16  2  0  0  0  0
  8 14  1  0  0  0  0
  9  8  1  0  0  0  0
 10  2  1  0  0  0  0
 11 18  1  0  0  0  0
 13  7  1  0  0  0  0
 13  6  1  0  0  0  0
 14 15  1  0  0  0  0
 15  6  2  0  0  0  0
 15 18  1  0  0  0  0
 16  5  2  0  0  0  0
 17  5  1  0  0  0  0
 18 10  2  0  0  0  0
 19 24  1  1  0  0  0
 19 20  1  0  0  0  0
 19  7  1  0  0  0  0
 21 23  1  0  0  0  0
 21 20  1  0  0  0  0
 22 21  2  0  0  0  0
 24 25  1  0  0  0  0
 25 29  1  0  0  0  0
 26 33  1  0  0  0  0
 26 30  1  0  0  0  0
 27 30  2  0  0  0  0
 28 27  1  0  0  0  0
 29 31  1  0  0  0  0
 29 26  2  0  0  0  0
 31 28  1  0  0  0  0
 33 34  1  0  0  0  0
 33 32  1  0  0  0  0
 34 32  1  0  0  0  0
M  END
>  <MODEL>
8

>  <REMARK>
 VINA RESULT:      -7.2      2.936      5.283
  Name = 
  6 active torsions:
  status: ('A' for Active; 'I' for Inactive)
    1  A    between atoms: N_1  and  C_3
    2  A    between atoms: C_3  and  C_17
    3  A    between atoms: C_3  and  C_32
    4  A    between atoms: N_4  and  C_24
    5  A    between atoms: N_4  and  C_32
    6  A    between atoms: C_5  and  C_9
                            x       y       z     vdW  Elec       q    Type
                         _______ _______ _______ _____ _____    ______ ____

>  <TORSDO>
F 6

$$$$
=
 OpenBabel11042416073D

 34 38  0  0  1  0  0  0  0  0999 V2000
  193.4580  175.9620  145.5210 N   0  0  0  0  0  0  0  0  0  0  0  0
  190.2660  176.8180  147.3430 C   0  0  0  0  0  3  0  0  0  0  0  0
  191.1610  176.4240  146.3540 C   0  0  0  0  0  0  0  0  0  0  0  0
  186.3720  177.7050  145.3430 N   0  0  0  0  0  2  0  0  0  0  0  0
  186.5000  178.1160  143.9810 C   0  0  0  0  0  0  0  0  0  0  0  0
  190.6710  176.0490  145.0990 C   0  0  0  0  0  0  0  0  0  0  0  0
  192.9980  175.6140  144.3550 C   0  0  0  0  0  0  0  0  0  0  0  0
  187.9500  176.4510  142.6610 C   0  0  0  0  0  0  0  0  0  0  0  0
  187.7000  176.0010  141.2670 C   0  0  0  0  0  1  0  0  0  0  0  0
  188.9320  176.8200  147.0930 N   0  0  0  0  0  0  0  0  0  0  0  0
  186.9120  176.4170  145.7880 C   0  0  0  0  0  2  0  0  0  0  0  0
  192.6350  176.4160  146.6480 C   0  0  0  0  0  2  0  0  0  0  0  0
  191.5950  175.6560  144.0850 N   0  0  0  0  0  2  0  0  0  0  0  0
  188.8620  175.7230  143.4960 N   0  0  0  0  0  2  0  0  0  0  0  0
  189.2930  176.0860  144.8290 C   0  0  0  0  0  0  0  0  0  0  0  0
  187.1970  177.3600  143.1920 C   0  0  0  0  0  0  0  0  0  0  0  0
  185.9520  179.4170  143.5170 C   0  0  0  0  0  1  0  0  0  0  0  0
  188.4120  176.4580  145.8880 C   0  0  0  0  0  0  0  0  0  0  0  0
  193.9520  175.1930  143.2870 C   0  0  1  0  0  3  0  0  0  0  0  0
  195.3040  175.6320  143.6120 N   0  0  0  0  0  2  0  0  0  0  0  0
  196.0960  176.4080  142.7130 C   0  0  0  0  0  0  0  0  0  0  0  0
  195.6670  176.6990  141.5650 O   0  0  0  0  0  0  0  0  0  0  0  0
  197.4430  176.8750  143.1380 C   0  0  0  0  0  1  0  0  0  0  0  0
  193.9180  173.6810  143.1300 C   0  0  0  0  0  2  0  0  0  0  0  0
  192.9590  173.3000  142.1020 N   0  0  0  0  0  2  0  0  0  0  0  0
  190.6400  172.9260  141.5620 C   0  0  0  0  0  0  0  0  0  0  0  0
  188.9440  172.1040  143.1590 C   0  0  0  0  0  3  0  0  0  0  0  0
  189.9030  172.2910  144.2900 C   0  0  0  0  0  2  0  0  0  0  0  0
  191.6870  172.7040  142.3850 C   0  0  0  0  0  0  0  0  0  0  0  0
  189.2890  172.4220  141.9090 C   0  0  0  0  0  3  0  0  0  0  0  0
  191.5120  171.5970  143.8090 S   0  0  0  0  0  0  0  0  0  0  0  0
  189.6420  173.4150  139.3420 C   0  0  0  0  0  2  0  0  0  0  0  0
  190.8270  173.6660  140.2620 C   0  0  0  0  0  3  0  0  0  0  0  0
  190.9500  172.7050  139.0880 C   0  0  0  0  0  2  0  0  0  0  0  0
  1 12  1  0  0  0  0
  3 12  1  0  0  0  0
  3  2  2  0  0  0  0
  4 11  1  0  0  0  0
  5  4  1  0  0  0  0
  6  3  1  0  0  0  0
  7  1  2  0  0  0  0
  8 16  2  0  0  0  0
  8 14  1  0  0  0  0
  9  8  1  0  0  0  0
 10  2  1  0  0  0  0
 11 18  1  0  0  0  0
 13  7  1  0  0  0  0
 13  6  1  0  0  0  0
 14 15  1  0  0  0  0
 15  6  2  0  0  0  0
 15 18  1  0  0  0  0
 16  5  2  0  0  0  0
 17  5  1  0  0  0  0
 18 10  2  0  0  0  0
 19 24  1  1  0  0  0
 19 20  1  0  0  0  0
 19  7  1  0  0  0  0
 21 23  1  0  0  0  0
 21 20  1  0  0  0  0
 22 21  2  0  0  0  0
 25 29  1  0  0  0  0
 25 24  1  0  0  0  0
 26 30  1  0  0  0  0
 26 29  2  0  0  0  0
 27 28  1  0  0  0  0
 29 31  1  0  0  0  0
 30 27  2  0  0  0  0
 31 28  1  0  0  0  0
 32 33  1  0  0  0  0
 33 26  1  0  0  0  0
 34 32  1  0  0  0  0
 34 33  1  0  0  0  0
M  END
>  <MODEL>
9

>  <REMARK>
 VINA RESULT:      -7.1      2.422      5.871
  Name = 
  6 active torsions:
  status: ('A' for Active; 'I' for Inactive)
    1  A    between atoms: N_1  and  C_3
    2  A    between atoms: C_3  and  C_17
    3  A    between atoms: C_3  and  C_32
    4  A    between atoms: N_4  and  C_24
    5  A    between atoms: N_4  and  C_32
    6  A    between atoms: C_5  and  C_9
                            x       y       z     vdW  Elec       q    Type
                         _______ _______ _______ _____ _____    ______ ____

>  <TORSDO>
F 6

$$$$
