=
 OpenBabel11042418413D

 34 38  0  0  1  0  0  0  0  0999 V2000
  191.5930  176.4880  145.7210 N   0  0  0  0  0  0  0  0  0  0  0  0
  192.1330  175.3860  146.5300 C   0  0  2  0  0  3  0  0  0  0  0  0
  191.2990  175.0940  145.3430 C   0  0  1  0  0  3  0  0  0  0  0  0
  189.8450  174.7760  145.6040 C   0  0  0  0  0  0  0  0  0  0  0  0
  189.5030  173.5830  145.8200 O   0  0  0  0  0  0  0  0  0  0  0  0
  186.9060  178.3030  143.7230 N   0  0  0  0  0  0  0  0  0  0  0  0
  185.9780  179.0320  144.3850 C   0  0  0  0  0  0  0  0  0  0  0  0
  187.4490  177.5380  144.6840 C   0  0  0  0  0  0  0  0  0  0  0  0
  188.4790  176.5150  144.5610 C   0  0  0  0  0  3  0  0  0  0  0  0
  185.9390  178.7580  145.6760 O   0  0  0  0  0  0  0  0  0  0  0  0
  188.2030  176.1150  146.9110 O   0  0  0  0  0  0  0  0  0  0  0  0
  186.8470  177.8270  145.8690 C   0  0  0  0  0  0  0  0  0  0  0  0
  187.2230  177.1480  147.1430 C   0  0  1  0  0  3  0  0  0  0  0  0
  185.2260  179.8760  143.8290 O   0  0  0  0  0  0  0  0  0  0  0  0
  188.8230  175.8370  145.6660 C   0  0  0  0  0  0  0  0  0  0  0  0
  186.1000  176.5940  147.7260 F   0  0  0  0  0  0  0  0  0  0  0  0
  187.1880  178.2840  142.2940 C   0  0  0  0  0  2  0  0  0  0  0  0
  185.0560  178.1600  140.6050 S   0  0  0  0  0  1  0  0  0  0  0  0
  186.2860  177.2800  141.6030 C   0  0  0  0  0  2  0  0  0  0  0  0
  191.4200  175.3580  147.8780 C   0  0  0  0  0  2  0  0  0  0  0  0
  191.3200  176.6550  148.3780 O   0  0  0  0  0  1  0  0  0  0  0  0
  192.6640  176.9360  144.8480 C   0  0  0  0  0  2  0  0  0  0  0  0
  193.9980  176.7930  145.5580 C   0  0  0  0  0  2  0  0  0  0  0  0
  195.0520  176.5680  144.5850 N   0  0  0  0  0  2  0  0  0  0  0  0
  194.4120  176.0840  143.3750 C   0  0  0  0  0  2  0  0  0  0  0  0
  194.9980  174.7380  142.9860 C   0  0  1  0  0  3  0  0  0  0  0  0
  196.7930  171.8200  146.0660 C   0  0  0  0  0  1  0  0  0  0  0  0
  193.8370  171.7280  145.1800 N   0  0  0  0  0  1  0  0  0  0  0  0
  196.3280  174.6150  143.5180 N   0  0  0  0  0  0  0  0  0  0  0  0
  194.1940  173.6020  143.6900 C   0  0  0  0  0  3  0  0  0  0  0  0
  194.7080  172.7090  144.6300 C   0  0  0  0  0  0  0  0  0  0  0  0
  196.1560  172.7380  145.0830 C   0  0  0  0  0  0  0  0  0  0  0  0
  197.6670  174.6370  143.9280 N   0  0  0  0  0  2  0  0  0  0  0  0
  196.7730  173.6900  144.4590 C   0  0  0  0  0  0  0  0  0  0  0  0
  1  2  1  0  0  0  0
  2 20  1  1  0  0  0
  3  4  1  1  0  0  0
  3  1  1  0  0  0  0
  3  2  1  0  0  0  0
  4 15  1  0  0  0  0
  4  5  2  0  0  0  0
  6  7  1  0  0  0  0
  6  8  1  0  0  0  0
  7 10  1  0  0  0  0
  8 12  2  0  0  0  0
  9  8  1  0  0  0  0
  9 15  2  0  0  0  0
 10 12  1  0  0  0  0
 11 13  1  0  0  0  0
 12 13  1  0  0  0  0
 13 16  1  6  0  0  0
 14  7  2  0  0  0  0
 15 11  1  0  0  0  0
 17  6  1  0  0  0  0
 18 19  1  0  0  0  0
 19 17  1  0  0  0  0
 20 21  1  0  0  0  0
 22 23  1  0  0  0  0
 22  1  1  0  0  0  0
 24 23  1  0  0  0  0
 25 24  1  0  0  0  0
 26 25  1  1  0  0  0
 26 29  1  0  0  0  0
 26 30  1  0  0  0  0
 29 33  1  0  0  0  0
 29 34  1  0  0  0  0
 30 31  2  0  0  0  0
 31 32  1  0  0  0  0
 31 28  1  0  0  0  0
 32 27  1  0  0  0  0
 33 34  1  0  0  0  0
 34 32  2  0  0  0  0
M  END
>  <MODEL>
1

>  <REMARK>
 VINA RESULT:      -6.9      0.000      0.000
  Name = 
  10 active torsions:
  status: ('A' for Active; 'I' for Inactive)
    1  A    between atoms: C_1  and  C_30
    2  A    between atoms: C_2  and  C_13
    3  A    between atoms: C_2  and  C_28
    4  A    between atoms: N_3  and  C_25
    5  A    between atoms: N_4  and  C_19
    6  A    between atoms: C_9  and  C_12
    7  A    between atoms: N_16  and  C_30
    8  A    between atoms: N_16  and  C_34
    9  A    between atoms: C_19  and  C_34
   10  A    between atoms: C_25  and  C_32
                            x       y       z     vdW  Elec       q    Type
                         _______ _______ _______ _____ _____    ______ ____

>  <TORSDO>
F 10

$$$$
=
 OpenBabel11042418413D

 34 38  0  0  1  0  0  0  0  0999 V2000
  189.5820  174.0750  143.6790 N   0  0  0  0  0  0  0  0  0  0  0  0
  190.1290  174.1620  142.3170 C   0  0  2  0  0  3  0  0  0  0  0  0
  190.7340  174.9550  143.4100 C   0  0  1  0  0  3  0  0  0  0  0  0
  190.3160  176.4050  143.4990 C   0  0  0  0  0  0  0  0  0  0  0  0
  190.9040  177.2610  142.7870 O   0  0  0  0  0  0  0  0  0  0  0  0
  185.9880  178.6210  144.4830 N   0  0  0  0  0  0  0  0  0  0  0  0
  185.3300  178.6400  145.6640 C   0  0  0  0  0  0  0  0  0  0  0  0
  187.1120  177.9420  144.7600 C   0  0  0  0  0  0  0  0  0  0  0  0
  188.1960  177.5670  143.8600 C   0  0  0  0  0  3  0  0  0  0  0  0
  185.9920  178.0260  146.6270 O   0  0  0  0  0  0  0  0  0  0  0  0
  189.2040  176.4420  145.7250 O   0  0  0  0  0  0  0  0  0  0  0  0
  187.0990  177.5850  146.0730 C   0  0  0  0  0  0  0  0  0  0  0  0
  188.2110  176.8170  146.7040 C   0  0  1  0  0  3  0  0  0  0  0  0
  184.2030  179.1780  145.8290 O   0  0  0  0  0  0  0  0  0  0  0  0
  189.2000  176.8330  144.3620 C   0  0  0  0  0  0  0  0  0  0  0  0
  187.7090  175.6810  147.3090 F   0  0  0  0  0  0  0  0  0  0  0  0
  185.5420  179.1340  143.1940 C   0  0  0  0  0  2  0  0  0  0  0  0
  185.7270  177.8620  140.7930 S   0  0  0  0  0  1  0  0  0  0  0  0
  184.8920  178.0230  142.3940 C   0  0  0  0  0  2  0  0  0  0  0  0
  189.1330  174.8940  141.4230 C   0  0  0  0  0  2  0  0  0  0  0  0
  187.8340  174.5700  141.8110 O   0  0  0  0  0  1  0  0  0  0  0  0
  190.1190  172.8630  144.2730 C   0  0  0  0  0  2  0  0  0  0  0  0
  191.3590  172.4260  143.5150 C   0  0  0  0  0  2  0  0  0  0  0  0
  192.3630  171.9460  144.4490 N   0  0  0  0  0  2  0  0  0  0  0  0
  193.6090  172.6060  144.1030 C   0  0  0  0  0  2  0  0  0  0  0  0
  194.2400  173.2020  145.3480 C   0  0  1  0  0  3  0  0  0  0  0  0
  194.8340  177.7360  145.9120 C   0  0  0  0  0  1  0  0  0  0  0  0
  192.3220  176.2300  146.8890 N   0  0  0  0  0  1  0  0  0  0  0  0
  195.3210  174.0740  144.9770 N   0  0  0  0  0  0  0  0  0  0  0  0
  193.2100  174.1420  146.0490 C   0  0  0  0  0  3  0  0  0  0  0  0
  193.3590  175.5160  146.2280 C   0  0  0  0  0  0  0  0  0  0  0  0
  194.5840  176.2780  145.7530 C   0  0  0  0  0  0  0  0  0  0  0  0
  196.4560  174.7730  144.5460 N   0  0  0  0  0  2  0  0  0  0  0  0
  195.4040  175.4470  145.1920 C   0  0  0  0  0  0  0  0  0  0  0  0
  1 22  1  0  0  0  0
  2 20  1  6  0  0  0
  2  3  1  0  0  0  0
  2  1  1  0  0  0  0
  3  4  1  6  0  0  0
  3  1  1  0  0  0  0
  4 15  1  0  0  0  0
  5  4  2  0  0  0  0
  6  8  1  0  0  0  0
  6  7  1  0  0  0  0
  7 14  2  0  0  0  0
  7 10  1  0  0  0  0
  8 12  2  0  0  0  0
  9 15  2  0  0  0  0
  9  8  1  0  0  0  0
 11 13  1  0  0  0  0
 12 10  1  0  0  0  0
 12 13  1  0  0  0  0
 13 16  1  6  0  0  0
 15 11  1  0  0  0  0
 17  6  1  0  0  0  0
 18 19  1  0  0  0  0
 19 17  1  0  0  0  0
 20 21  1  0  0  0  0
 23 22  1  0  0  0  0
 23 24  1  0  0  0  0
 25 24  1  0  0  0  0
 26 25  1  6  0  0  0
 26 30  1  0  0  0  0
 29 34  1  0  0  0  0
 29 26  1  0  0  0  0
 30 31  2  0  0  0  0
 31 28  1  0  0  0  0
 32 27  1  0  0  0  0
 32 31  1  0  0  0  0
 33 29  1  0  0  0  0
 33 34  1  0  0  0  0
 34 32  2  0  0  0  0
M  END
>  <MODEL>
2

>  <REMARK>
 VINA RESULT:      -6.8      2.116      3.535
  Name = 
  10 active torsions:
  status: ('A' for Active; 'I' for Inactive)
    1  A    between atoms: C_1  and  C_30
    2  A    between atoms: C_2  and  C_13
    3  A    between atoms: C_2  and  C_28
    4  A    between atoms: N_3  and  C_25
    5  A    between atoms: N_4  and  C_19
    6  A    between atoms: C_9  and  C_12
    7  A    between atoms: N_16  and  C_30
    8  A    between atoms: N_16  and  C_34
    9  A    between atoms: C_19  and  C_34
   10  A    between atoms: C_25  and  C_32
                            x       y       z     vdW  Elec       q    Type
                         _______ _______ _______ _____ _____    ______ ____

>  <TORSDO>
F 10

$$$$
=
 OpenBabel11042418413D

 34 38  0  0  1  0  0  0  0  0999 V2000
  193.2140  176.3120  143.0640 N   0  0  0  0  0  0  0  0  0  0  0  0
  193.1440  175.6980  144.3980 C   0  0  2  0  0  3  0  0  0  0  0  0
  191.9110  175.8780  143.5990 C   0  0  1  0  0  3  0  0  0  0  0  0
  191.0590  177.0790  143.9400 C   0  0  0  0  0  0  0  0  0  0  0  0
  191.3480  178.2010  143.4450 O   0  0  0  0  0  0  0  0  0  0  0  0
  186.3090  177.8240  145.1610 N   0  0  0  0  0  0  0  0  0  0  0  0
  185.6570  177.3370  146.2420 C   0  0  0  0  0  0  0  0  0  0  0  0
  187.5640  177.3770  145.3230 C   0  0  0  0  0  0  0  0  0  0  0  0
  188.7140  177.5510  144.4450 C   0  0  0  0  0  3  0  0  0  0  0  0
  186.4430  176.6380  147.0400 O   0  0  0  0  0  0  0  0  0  0  0  0
  189.9540  176.1920  145.9860 O   0  0  0  0  0  0  0  0  0  0  0  0
  187.6290  176.6540  146.4740 C   0  0  0  0  0  0  0  0  0  0  0  0
  188.8920  176.0170  146.9470 C   0  0  1  0  0  3  0  0  0  0  0  0
  184.4310  177.5220  146.4610 O   0  0  0  0  0  0  0  0  0  0  0  0
  189.8650  176.9580  144.7960 C   0  0  0  0  0  0  0  0  0  0  0  0
  188.6820  174.6680  147.1600 F   0  0  0  0  0  0  0  0  0  0  0  0
  185.7610  178.5760  144.0410 C   0  0  0  0  0  2  0  0  0  0  0  0
  185.8410  177.9900  141.3830 S   0  0  0  0  0  1  0  0  0  0  0  0
  185.1620  177.6250  143.0240 C   0  0  0  0  0  2  0  0  0  0  0  0
  193.4260  176.7630  145.4530 C   0  0  0  0  0  2  0  0  0  0  0  0
  194.7240  177.2440  145.2940 O   0  0  0  0  0  1  0  0  0  0  0  0
  193.6480  175.2740  142.1440 C   0  0  0  0  0  2  0  0  0  0  0  0
  193.4590  173.9110  142.7830 C   0  0  0  0  0  2  0  0  0  0  0  0
  192.7770  173.0230  141.8570 N   0  0  0  0  0  2  0  0  0  0  0  0
  192.5640  171.7680  142.5560 C   0  0  0  0  0  2  0  0  0  0  0  0
  191.0790  171.4580  142.6160 C   0  0  1  0  0  3  0  0  0  0  0  0
  187.8390  174.7130  142.2570 C   0  0  0  0  0  1  0  0  0  0  0  0
  188.9220  173.1370  139.8330 N   0  0  0  0  0  1  0  0  0  0  0  0
  190.4480  172.2870  143.6070 N   0  0  0  0  0  0  0  0  0  0  0  0
  190.4080  171.8840  141.2740 C   0  0  0  0  0  3  0  0  0  0  0  0
  189.4310  172.8680  141.1330 C   0  0  0  0  0  0  0  0  0  0  0  0
  188.8870  173.6580  142.3100 C   0  0  0  0  0  0  0  0  0  0  0  0
  189.9410  173.0080  144.6960 N   0  0  0  0  0  2  0  0  0  0  0  0
  189.4710  173.2550  143.3930 C   0  0  0  0  0  0  0  0  0  0  0  0
  1  3  1  0  0  0  0
  1  2  1  0  0  0  0
  2 20  1  1  0  0  0
  3  4  1  1  0  0  0
  3  2  1  0  0  0  0
  4 15  1  0  0  0  0
  5  4  2  0  0  0  0
  6  8  1  0  0  0  0
  6  7  1  0  0  0  0
  7 14  2  0  0  0  0
  7 10  1  0  0  0  0
  8 12  2  0  0  0  0
  9 15  2  0  0  0  0
  9  8  1  0  0  0  0
 11 13  1  0  0  0  0
 12 13  1  0  0  0  0
 12 10  1  0  0  0  0
 13 16  1  6  0  0  0
 15 11  1  0  0  0  0
 17  6  1  0  0  0  0
 18 19  1  0  0  0  0
 19 17  1  0  0  0  0
 21 20  1  0  0  0  0
 22 23  1  0  0  0  0
 22  1  1  0  0  0  0
 24 25  1  0  0  0  0
 24 23  1  0  0  0  0
 26 25  1  6  0  0  0
 26 29  1  0  0  0  0
 27 32  1  0  0  0  0
 28 31  1  0  0  0  0
 29 33  1  0  0  0  0
 30 26  1  0  0  0  0
 31 30  2  0  0  0  0
 31 32  1  0  0  0  0
 32 34  2  0  0  0  0
 34 29  1  0  0  0  0
 34 33  1  0  0  0  0
M  END
>  <MODEL>
3

>  <REMARK>
 VINA RESULT:      -6.8      2.939      4.533
  Name = 
  10 active torsions:
  status: ('A' for Active; 'I' for Inactive)
    1  A    between atoms: C_1  and  C_30
    2  A    between atoms: C_2  and  C_13
    3  A    between atoms: C_2  and  C_28
    4  A    between atoms: N_3  and  C_25
    5  A    between atoms: N_4  and  C_19
    6  A    between atoms: C_9  and  C_12
    7  A    between atoms: N_16  and  C_30
    8  A    between atoms: N_16  and  C_34
    9  A    between atoms: C_19  and  C_34
   10  A    between atoms: C_25  and  C_32
                            x       y       z     vdW  Elec       q    Type
                         _______ _______ _______ _____ _____    ______ ____

>  <TORSDO>
F 10

$$$$
=
 OpenBabel11042418413D

 34 38  0  0  1  0  0  0  0  0999 V2000
  190.0980  172.4500  142.9340 N   0  0  0  0  0  0  0  0  0  0  0  0
  190.8540  173.6010  142.4200 C   0  0  2  0  0  3  0  0  0  0  0  0
  189.6590  173.8180  143.2650 C   0  0  1  0  0  3  0  0  0  0  0  0
  188.3740  174.1450  142.5400 C   0  0  0  0  0  0  0  0  0  0  0  0
  187.7280  173.2190  141.9820 O   0  0  0  0  0  0  0  0  0  0  0  0
  185.6320  177.9230  144.2200 N   0  0  0  0  0  0  0  0  0  0  0  0
  185.5660  179.1740  143.7110 C   0  0  0  0  0  0  0  0  0  0  0  0
  186.4650  177.2860  143.3820 C   0  0  0  0  0  0  0  0  0  0  0  0
  186.9500  175.9130  143.4480 C   0  0  0  0  0  3  0  0  0  0  0  0
  186.2980  179.3210  142.6220 O   0  0  0  0  0  0  0  0  0  0  0  0
  188.2670  176.4050  141.5030 O   0  0  0  0  0  0  0  0  0  0  0  0
  186.8630  178.1540  142.4130 C   0  0  0  0  0  0  0  0  0  0  0  0
  187.7970  177.7570  141.3200 C   0  0  1  0  0  3  0  0  0  0  0  0
  184.8870  180.1030  144.2240 O   0  0  0  0  0  0  0  0  0  0  0  0
  187.8300  175.5150  142.5170 C   0  0  0  0  0  0  0  0  0  0  0  0
  188.8750  178.6190  141.2910 F   0  0  0  0  0  0  0  0  0  0  0  0
  185.0180  177.4110  145.4380 C   0  0  0  0  0  2  0  0  0  0  0  0
  185.8920  178.8920  147.5490 S   0  0  0  0  0  1  0  0  0  0  0  0
  186.0390  177.3820  146.5580 C   0  0  0  0  0  2  0  0  0  0  0  0
  190.6430  173.7060  140.9130 C   0  0  0  0  0  2  0  0  0  0  0  0
  190.6730  172.4320  140.3490 O   0  0  0  0  0  1  0  0  0  0  0  0
  190.8180  171.9560  144.0950 C   0  0  0  0  0  2  0  0  0  0  0  0
  192.3110  172.1270  143.8830 C   0  0  0  0  0  2  0  0  0  0  0  0
  192.9000  172.7880  145.0350 N   0  0  0  0  0  2  0  0  0  0  0  0
  193.8930  173.7170  144.5260 C   0  0  0  0  0  2  0  0  0  0  0  0
  193.7380  175.0630  145.2090 C   0  0  1  0  0  3  0  0  0  0  0  0
  189.6810  177.2160  145.5760 C   0  0  0  0  0  1  0  0  0  0  0  0
  190.7780  175.3050  147.7390 N   0  0  0  0  0  1  0  0  0  0  0  0
  193.0640  175.9800  144.3310 N   0  0  0  0  0  0  0  0  0  0  0  0
  192.7730  174.9160  146.4270 C   0  0  0  0  0  3  0  0  0  0  0  0
  191.5380  175.5490  146.5620 C   0  0  0  0  0  0  0  0  0  0  0  0
  190.9780  176.4890  145.5100 C   0  0  0  0  0  0  0  0  0  0  0  0
  192.5530  176.8540  143.3630 N   0  0  0  0  0  2  0  0  0  0  0  0
  191.8240  176.5790  144.5340 C   0  0  0  0  0  0  0  0  0  0  0  0
  1  3  1  0  0  0  0
  1 22  1  0  0  0  0
  2 20  1  6  0  0  0
  2  1  1  0  0  0  0
  2  3  1  0  0  0  0
  3  4  1  6  0  0  0
  5  4  2  0  0  0  0
  6 17  1  0  0  0  0
  7  6  1  0  0  0  0
  7 14  2  0  0  0  0
  8  9  1  0  0  0  0
  8  6  1  0  0  0  0
 10  7  1  0  0  0  0
 11 15  1  0  0  0  0
 12 10  1  0  0  0  0
 12  8  2  0  0  0  0
 13 16  1  1  0  0  0
 13 11  1  0  0  0  0
 13 12  1  0  0  0  0
 15  4  1  0  0  0  0
 15  9  2  0  0  0  0
 17 19  1  0  0  0  0
 19 18  1  0  0  0  0
 21 20  1  0  0  0  0
 23 22  1  0  0  0  0
 23 24  1  0  0  0  0
 25 24  1  0  0  0  0
 26 25  1  6  0  0  0
 26 30  1  0  0  0  0
 29 34  1  0  0  0  0
 29 26  1  0  0  0  0
 30 31  2  0  0  0  0
 31 28  1  0  0  0  0
 32 27  1  0  0  0  0
 32 31  1  0  0  0  0
 33 29  1  0  0  0  0
 33 34  1  0  0  0  0
 34 32  2  0  0  0  0
M  END
>  <MODEL>
4

>  <REMARK>
 VINA RESULT:      -6.7      3.108      4.910
  Name = 
  10 active torsions:
  status: ('A' for Active; 'I' for Inactive)
    1  A    between atoms: C_1  and  C_30
    2  A    between atoms: C_2  and  C_13
    3  A    between atoms: C_2  and  C_28
    4  A    between atoms: N_3  and  C_25
    5  A    between atoms: N_4  and  C_19
    6  A    between atoms: C_9  and  C_12
    7  A    between atoms: N_16  and  C_30
    8  A    between atoms: N_16  and  C_34
    9  A    between atoms: C_19  and  C_34
   10  A    between atoms: C_25  and  C_32
                            x       y       z     vdW  Elec       q    Type
                         _______ _______ _______ _____ _____    ______ ____

>  <TORSDO>
F 10

$$$$
=
 OpenBabel11042418413D

 34 38  0  0  1  0  0  0  0  0999 V2000
  191.3220  172.8190  144.1170 N   0  0  0  0  0  0  0  0  0  0  0  0
  190.3970  173.2390  143.0540 C   0  0  2  0  0  3  0  0  0  0  0  0
  190.7200  174.1640  144.1620 C   0  0  1  0  0  3  0  0  0  0  0  0
  189.7100  174.2480  145.2830 C   0  0  0  0  0  0  0  0  0  0  0  0
  189.6580  173.3240  146.1380 O   0  0  0  0  0  0  0  0  0  0  0  0
  187.0920  178.1390  143.6660 N   0  0  0  0  0  0  0  0  0  0  0  0
  186.2870  178.9430  144.3970 C   0  0  0  0  0  0  0  0  0  0  0  0
  187.5940  177.2870  144.5730 C   0  0  0  0  0  0  0  0  0  0  0  0
  188.4960  176.1620  144.3650 C   0  0  0  0  0  3  0  0  0  0  0  0
  186.2840  178.6310  145.6800 O   0  0  0  0  0  0  0  0  0  0  0  0
  188.2980  175.7140  146.7150 O   0  0  0  0  0  0  0  0  0  0  0  0
  187.0900  177.6000  145.7970 C   0  0  0  0  0  0  0  0  0  0  0  0
  187.4520  176.8410  147.0290 C   0  0  1  0  0  3  0  0  0  0  0  0
  185.6060  179.8840  143.9080 O   0  0  0  0  0  0  0  0  0  0  0  0
  188.8180  175.4130  145.4310 C   0  0  0  0  0  0  0  0  0  0  0  0
  186.3050  176.3950  147.6560 F   0  0  0  0  0  0  0  0  0  0  0  0
  187.2960  178.1390  142.2230 C   0  0  0  0  0  2  0  0  0  0  0  0
  186.3210  177.5380  139.7540 S   0  0  0  0  0  1  0  0  0  0  0  0
  186.2150  177.3180  141.5500 C   0  0  0  0  0  2  0  0  0  0  0  0
  189.0950  172.4560  143.1850 C   0  0  0  0  0  2  0  0  0  0  0  0
  188.1880  172.8960  142.2230 O   0  0  0  0  0  1  0  0  0  0  0  0
  192.6680  172.9870  143.5960 C   0  0  0  0  0  2  0  0  0  0  0  0
  193.6440  172.1720  144.4240 C   0  0  0  0  0  2  0  0  0  0  0  0
  194.0090  172.9090  145.6220 N   0  0  0  0  0  2  0  0  0  0  0  0
  195.3440  173.4360  145.4010 C   0  0  0  0  0  2  0  0  0  0  0  0
  195.3470  174.9380  145.6170 C   0  0  1  0  0  3  0  0  0  0  0  0
  191.8990  177.6590  144.2250 C   0  0  0  0  0  1  0  0  0  0  0  0
  192.0310  176.4140  147.0470 N   0  0  0  0  0  1  0  0  0  0  0  0
  195.1080  175.6090  144.3670 N   0  0  0  0  0  0  0  0  0  0  0  0
  194.1280  175.3350  146.5060 C   0  0  0  0  0  3  0  0  0  0  0  0
  193.0680  176.1500  146.1110 C   0  0  0  0  0  0  0  0  0  0  0  0
  192.9810  176.7700  144.7280 C   0  0  0  0  0  0  0  0  0  0  0  0
  195.0340  176.1870  143.0940 N   0  0  0  0  0  2  0  0  0  0  0  0
  194.0210  176.4150  144.0420 C   0  0  0  0  0  0  0  0  0  0  0  0
  1  3  1  0  0  0  0
  2 20  1  1  0  0  0
  2  1  1  0  0  0  0
  2  3  1  0  0  0  0
  3  4  1  1  0  0  0
  4 15  1  0  0  0  0
  4  5  2  0  0  0  0
  6  7  1  0  0  0  0
  6  8  1  0  0  0  0
  7 10  1  0  0  0  0
  8 12  2  0  0  0  0
  9  8  1  0  0  0  0
  9 15  2  0  0  0  0
 10 12  1  0  0  0  0
 11 13  1  0  0  0  0
 12 13  1  0  0  0  0
 13 16  1  6  0  0  0
 14  7  2  0  0  0  0
 15 11  1  0  0  0  0
 17  6  1  0  0  0  0
 18 19  1  0  0  0  0
 19 17  1  0  0  0  0
 21 20  1  0  0  0  0
 22  1  1  0  0  0  0
 22 23  1  0  0  0  0
 23 24  1  0  0  0  0
 25 24  1  0  0  0  0
 26 25  1  6  0  0  0
 26 30  1  0  0  0  0
 27 32  1  0  0  0  0
 29 26  1  0  0  0  0
 31 30  2  0  0  0  0
 31 28  1  0  0  0  0
 32 31  1  0  0  0  0
 33 34  1  0  0  0  0
 33 29  1  0  0  0  0
 34 29  1  0  0  0  0
 34 32  2  0  0  0  0
M  END
>  <MODEL>
5

>  <REMARK>
 VINA RESULT:      -6.6      1.500      3.379
  Name = 
  10 active torsions:
  status: ('A' for Active; 'I' for Inactive)
    1  A    between atoms: C_1  and  C_30
    2  A    between atoms: C_2  and  C_13
    3  A    between atoms: C_2  and  C_28
    4  A    between atoms: N_3  and  C_25
    5  A    between atoms: N_4  and  C_19
    6  A    between atoms: C_9  and  C_12
    7  A    between atoms: N_16  and  C_30
    8  A    between atoms: N_16  and  C_34
    9  A    between atoms: C_19  and  C_34
   10  A    between atoms: C_25  and  C_32
                            x       y       z     vdW  Elec       q    Type
                         _______ _______ _______ _____ _____    ______ ____

>  <TORSDO>
F 10

$$$$
=
 OpenBabel11042418413D

 34 38  0  0  1  0  0  0  0  0999 V2000
  190.7700  176.7380  145.7170 N   0  0  0  0  0  0  0  0  0  0  0  0
  191.5070  175.7750  146.5490 C   0  0  2  0  0  3  0  0  0  0  0  0
  190.3070  175.3400  145.7990 C   0  0  1  0  0  3  0  0  0  0  0  0
  189.0170  175.2620  146.5830 C   0  0  0  0  0  0  0  0  0  0  0  0
  188.8550  174.3290  147.4130 O   0  0  0  0  0  0  0  0  0  0  0  0
  185.5010  177.7770  144.1490 N   0  0  0  0  0  0  0  0  0  0  0  0
  184.6940  178.7410  144.6460 C   0  0  0  0  0  0  0  0  0  0  0  0
  186.2930  177.4630  145.1860 C   0  0  0  0  0  0  0  0  0  0  0  0
  187.3390  176.4520  145.2610 C   0  0  0  0  0  3  0  0  0  0  0  0
  184.9590  179.0280  145.9070 O   0  0  0  0  0  0  0  0  0  0  0  0
  187.6160  177.0700  147.5630 O   0  0  0  0  0  0  0  0  0  0  0  0
  185.9490  178.2350  146.2520 C   0  0  0  0  0  0  0  0  0  0  0  0
  186.6410  178.1350  147.5690 C   0  0  1  0  0  3  0  0  0  0  0  0
  183.7820  179.3010  143.9820 O   0  0  0  0  0  0  0  0  0  0  0  0
  187.9640  176.2830  146.4360 C   0  0  0  0  0  0  0  0  0  0  0  0
  185.7150  177.9050  148.5670 F   0  0  0  0  0  0  0  0  0  0  0  0
  185.4620  177.1600  142.8300 C   0  0  0  0  0  2  0  0  0  0  0  0
  184.6200  178.2990  140.5040 S   0  0  0  0  0  1  0  0  0  0  0  0
  185.9020  178.1600  141.7790 C   0  0  0  0  0  2  0  0  0  0  0  0
  191.2950  176.1200  148.0200 C   0  0  0  0  0  2  0  0  0  0  0  0
  191.1550  177.5000  148.1590 O   0  0  0  0  0  1  0  0  0  0  0  0
  191.4980  176.8580  144.4650 C   0  0  0  0  0  2  0  0  0  0  0  0
  190.5280  177.1370  143.3330 C   0  0  0  0  0  2  0  0  0  0  0  0
  190.2350  175.9070  142.6190 N   0  0  0  0  0  2  0  0  0  0  0  0
  188.9390  176.0830  141.9900 C   0  0  0  0  0  2  0  0  0  0  0  0
  188.2750  174.7320  141.7920 C   0  0  1  0  0  3  0  0  0  0  0  0
  190.4070  171.1810  139.7740 C   0  0  0  0  0  1  0  0  0  0  0  0
  190.4380  171.6540  142.8250 N   0  0  0  0  0  1  0  0  0  0  0  0
  188.3730  174.3390  140.4120 N   0  0  0  0  0  0  0  0  0  0  0  0
  189.0830  173.6410  142.5610 C   0  0  0  0  0  3  0  0  0  0  0  0
  189.7430  172.5610  141.9780 C   0  0  0  0  0  0  0  0  0  0  0  0
  189.7440  172.3110  140.4800 C   0  0  0  0  0  0  0  0  0  0  0  0
  188.3650  174.1060  139.0310 N   0  0  0  0  0  2  0  0  0  0  0  0
  189.0520  173.2380  139.8990 C   0  0  0  0  0  0  0  0  0  0  0  0
  1  3  1  0  0  0  0
  1  2  1  0  0  0  0
  2 20  1  1  0  0  0
  3  2  1  0  0  0  0
  3  4  1  1  0  0  0
  4  5  2  0  0  0  0
  6  7  1  0  0  0  0
  6  8  1  0  0  0  0
  7 10  1  0  0  0  0
  8  9  1  0  0  0  0
  8 12  2  0  0  0  0
  9 15  2  0  0  0  0
 10 12  1  0  0  0  0
 11 13  1  0  0  0  0
 12 13  1  0  0  0  0
 13 16  1  1  0  0  0
 14  7  2  0  0  0  0
 15  4  1  0  0  0  0
 15 11  1  0  0  0  0
 17  6  1  0  0  0  0
 18 19  1  0  0  0  0
 19 17  1  0  0  0  0
 20 21  1  0  0  0  0
 22  1  1  0  0  0  0
 23 22  1  0  0  0  0
 24 23  1  0  0  0  0
 25 24  1  0  0  0  0
 26 25  1  6  0  0  0
 26 30  1  0  0  0  0
 27 32  1  0  0  0  0
 29 26  1  0  0  0  0
 31 30  2  0  0  0  0
 31 28  1  0  0  0  0
 32 31  1  0  0  0  0
 33 34  1  0  0  0  0
 33 29  1  0  0  0  0
 34 29  1  0  0  0  0
 34 32  2  0  0  0  0
M  END
>  <MODEL>
6

>  <REMARK>
 VINA RESULT:      -6.6      3.230      4.349
  Name = 
  10 active torsions:
  status: ('A' for Active; 'I' for Inactive)
    1  A    between atoms: C_1  and  C_30
    2  A    between atoms: C_2  and  C_13
    3  A    between atoms: C_2  and  C_28
    4  A    between atoms: N_3  and  C_25
    5  A    between atoms: N_4  and  C_19
    6  A    between atoms: C_9  and  C_12
    7  A    between atoms: N_16  and  C_30
    8  A    between atoms: N_16  and  C_34
    9  A    between atoms: C_19  and  C_34
   10  A    between atoms: C_25  and  C_32
                            x       y       z     vdW  Elec       q    Type
                         _______ _______ _______ _____ _____    ______ ____

>  <TORSDO>
F 10

$$$$
=
 OpenBabel11042418413D

 34 38  0  0  1  0  0  0  0  0999 V2000
  190.9270  176.8900  145.8850 N   0  0  0  0  0  0  0  0  0  0  0  0
  191.6310  175.8640  146.6670 C   0  0  2  0  0  3  0  0  0  0  0  0
  190.5400  175.4740  145.7480 C   0  0  1  0  0  3  0  0  0  0  0  0
  189.1850  175.2380  146.3740 C   0  0  0  0  0  0  0  0  0  0  0  0
  188.9950  174.2000  147.0610 O   0  0  0  0  0  0  0  0  0  0  0  0
  185.6000  177.6850  143.9720 N   0  0  0  0  0  0  0  0  0  0  0  0
  184.7510  178.6030  144.4870 C   0  0  0  0  0  0  0  0  0  0  0  0
  186.3920  177.3720  145.0090 C   0  0  0  0  0  0  0  0  0  0  0  0
  187.4760  176.4000  145.0680 C   0  0  0  0  0  3  0  0  0  0  0  0
  184.9920  178.8650  145.7590 O   0  0  0  0  0  0  0  0  0  0  0  0
  187.7050  176.9630  147.3890 O   0  0  0  0  0  0  0  0  0  0  0  0
  186.0080  178.1010  146.0920 C   0  0  0  0  0  0  0  0  0  0  0  0
  186.6900  177.9900  147.4130 C   0  0  1  0  0  3  0  0  0  0  0  0
  183.8250  179.1470  143.8280 O   0  0  0  0  0  0  0  0  0  0  0  0
  188.0950  176.2220  146.2440 C   0  0  0  0  0  0  0  0  0  0  0  0
  185.7640  177.6970  148.3950 F   0  0  0  0  0  0  0  0  0  0  0  0
  185.5970  177.1040  142.6360 C   0  0  0  0  0  2  0  0  0  0  0  0
  188.0650  177.8180  141.7350 S   0  0  0  0  0  1  0  0  0  0  0  0
  186.2690  178.0500  141.6610 C   0  0  0  0  0  2  0  0  0  0  0  0
  191.2550  176.0090  148.1380 C   0  0  0  0  0  2  0  0  0  0  0  0
  191.5080  177.3140  148.5560 O   0  0  0  0  0  1  0  0  0  0  0  0
  191.7670  177.2010  144.7420 C   0  0  0  0  0  2  0  0  0  0  0  0
  193.1820  176.7140  144.9970 C   0  0  0  0  0  2  0  0  0  0  0  0
  193.7230  176.1160  143.7900 N   0  0  0  0  0  2  0  0  0  0  0  0
  192.6900  176.2110  142.7740 C   0  0  0  0  0  2  0  0  0  0  0  0
  192.4400  174.8430  142.1640 C   0  0  1  0  0  3  0  0  0  0  0  0
  189.2900  171.9170  143.8200 C   0  0  0  0  0  1  0  0  0  0  0  0
  188.6880  173.9510  141.5770 N   0  0  0  0  0  1  0  0  0  0  0  0
  192.5220  173.8330  143.1840 N   0  0  0  0  0  0  0  0  0  0  0  0
  190.9650  174.7640  141.6600 C   0  0  0  0  0  3  0  0  0  0  0  0
  189.9900  173.8950  142.1460 C   0  0  0  0  0  0  0  0  0  0  0  0
  190.2630  172.8890  143.2510 C   0  0  0  0  0  0  0  0  0  0  0  0
  192.7780  172.9000  144.1970 N   0  0  0  0  0  2  0  0  0  0  0  0
  191.5000  172.9940  143.6180 C   0  0  0  0  0  0  0  0  0  0  0  0
  1  2  1  0  0  0  0
  2 20  1  1  0  0  0
  3  1  1  0  0  0  0
  3  4  1  1  0  0  0
  3  2  1  0  0  0  0
  4  5  2  0  0  0  0
  6  7  1  0  0  0  0
  6  8  1  0  0  0  0
  7 10  1  0  0  0  0
  8  9  1  0  0  0  0
  8 12  2  0  0  0  0
  9 15  2  0  0  0  0
 10 12  1  0  0  0  0
 11 13  1  0  0  0  0
 12 13  1  0  0  0  0
 13 16  1  1  0  0  0
 14  7  2  0  0  0  0
 15  4  1  0  0  0  0
 15 11  1  0  0  0  0
 17  6  1  0  0  0  0
 19 18  1  0  0  0  0
 19 17  1  0  0  0  0
 20 21  1  0  0  0  0
 22 23  1  0  0  0  0
 22  1  1  0  0  0  0
 24 23  1  0  0  0  0
 25 24  1  0  0  0  0
 26 25  1  1  0  0  0
 26 29  1  0  0  0  0
 28 31  1  0  0  0  0
 29 34  1  0  0  0  0
 29 33  1  0  0  0  0
 30 31  2  0  0  0  0
 30 26  1  0  0  0  0
 31 32  1  0  0  0  0
 32 34  2  0  0  0  0
 32 27  1  0  0  0  0
 34 33  1  0  0  0  0
M  END
>  <MODEL>
7

>  <REMARK>
 VINA RESULT:      -6.6      2.294      3.034
  Name = 
  10 active torsions:
  status: ('A' for Active; 'I' for Inactive)
    1  A    between atoms: C_1  and  C_30
    2  A    between atoms: C_2  and  C_13
    3  A    between atoms: C_2  and  C_28
    4  A    between atoms: N_3  and  C_25
    5  A    between atoms: N_4  and  C_19
    6  A    between atoms: C_9  and  C_12
    7  A    between atoms: N_16  and  C_30
    8  A    between atoms: N_16  and  C_34
    9  A    between atoms: C_19  and  C_34
   10  A    between atoms: C_25  and  C_32
                            x       y       z     vdW  Elec       q    Type
                         _______ _______ _______ _____ _____    ______ ____

>  <TORSDO>
F 10

$$$$
=
 OpenBabel11042418413D

 34 38  0  0  1  0  0  0  0  0999 V2000
  192.3270  176.1200  144.6390 N   0  0  0  0  0  0  0  0  0  0  0  0
  191.2060  175.5830  145.4240 C   0  0  2  0  0  3  0  0  0  0  0  0
  191.0300  175.8720  143.9830 C   0  0  1  0  0  3  0  0  0  0  0  0
  190.3590  177.1810  143.6370 C   0  0  0  0  0  0  0  0  0  0  0  0
  191.0380  178.2420  143.6400 O   0  0  0  0  0  0  0  0  0  0  0  0
  185.6080  178.5190  144.1350 N   0  0  0  0  0  0  0  0  0  0  0  0
  184.5950  178.2710  143.2740 C   0  0  0  0  0  0  0  0  0  0  0  0
  186.6610  177.9110  143.5660 C   0  0  0  0  0  0  0  0  0  0  0  0
  188.0450  177.8710  144.0190 C   0  0  0  0  0  3  0  0  0  0  0  0
  184.9730  177.5470  142.2360 O   0  0  0  0  0  0  0  0  0  0  0  0
  188.5420  176.6260  142.0290 O   0  0  0  0  0  0  0  0  0  0  0  0
  186.2560  177.3230  142.4080 C   0  0  0  0  0  0  0  0  0  0  0  0
  187.1890  176.5590  141.5310 C   0  0  1  0  0  3  0  0  0  0  0  0
  183.4180  178.6900  143.4390 O   0  0  0  0  0  0  0  0  0  0  0  0
  188.9390  177.2380  143.2450 C   0  0  0  0  0  0  0  0  0  0  0  0
  187.1450  177.0670  140.2470 F   0  0  0  0  0  0  0  0  0  0  0  0
  185.5850  179.3310  145.3440 C   0  0  0  0  0  2  0  0  0  0  0  0
  186.0990  177.5290  147.3200 S   0  0  0  0  0  1  0  0  0  0  0  0
  184.8930  178.5750  146.4600 C   0  0  0  0  0  2  0  0  0  0  0  0
  190.7140  176.6550  146.3920 C   0  0  0  0  0  2  0  0  0  0  0  0
  191.4490  176.5870  147.5740 O   0  0  0  0  0  1  0  0  0  0  0  0
  193.1820  174.9960  144.3000 C   0  0  0  0  0  2  0  0  0  0  0  0
  193.3250  174.0800  145.5020 C   0  0  0  0  0  2  0  0  0  0  0  0
  193.3640  172.6960  145.0640 N   0  0  0  0  0  2  0  0  0  0  0  0
  192.9790  172.6850  143.6640 C   0  0  0  0  0  2  0  0  0  0  0  0
  191.9000  171.6430  143.4350 C   0  0  1  0  0  3  0  0  0  0  0  0
  187.6620  172.7240  141.9870 C   0  0  0  0  0  1  0  0  0  0  0  0
  189.9610  171.9800  140.0660 N   0  0  0  0  0  1  0  0  0  0  0  0
  190.7110  172.0060  144.1570 N   0  0  0  0  0  0  0  0  0  0  0  0
  191.4650  171.6720  141.9360 C   0  0  0  0  0  3  0  0  0  0  0  0
  190.1940  172.0010  141.4690 C   0  0  0  0  0  0  0  0  0  0  0  0
  189.0490  172.3730  142.3950 C   0  0  0  0  0  0  0  0  0  0  0  0
  189.6550  172.3400  145.0130 N   0  0  0  0  0  2  0  0  0  0  0  0
  189.4660  172.3210  143.6200 C   0  0  0  0  0  0  0  0  0  0  0  0
  1  2  1  0  0  0  0
  2 20  1  1  0  0  0
  3  4  1  1  0  0  0
  3  1  1  0  0  0  0
  3  2  1  0  0  0  0
  4  5  2  0  0  0  0
  6 17  1  0  0  0  0
  7 14  2  0  0  0  0
  7  6  1  0  0  0  0
  8  9  1  0  0  0  0
  8  6  1  0  0  0  0
 10 12  1  0  0  0  0
 10  7  1  0  0  0  0
 11 15  1  0  0  0  0
 12  8  2  0  0  0  0
 13 16  1  6  0  0  0
 13 11  1  0  0  0  0
 13 12  1  0  0  0  0
 15  4  1  0  0  0  0
 15  9  2  0  0  0  0
 17 19  1  0  0  0  0
 19 18  1  0  0  0  0
 20 21  1  0  0  0  0
 22  1  1  0  0  0  0
 22 23  1  0  0  0  0
 24 23  1  0  0  0  0
 25 24  1  0  0  0  0
 26 25  1  6  0  0  0
 26 29  1  0  0  0  0
 27 32  1  0  0  0  0
 28 31  1  0  0  0  0
 29 33  1  0  0  0  0
 30 26  1  0  0  0  0
 31 30  2  0  0  0  0
 31 32  1  0  0  0  0
 32 34  2  0  0  0  0
 34 29  1  0  0  0  0
 34 33  1  0  0  0  0
M  END
>  <MODEL>
8

>  <REMARK>
 VINA RESULT:      -6.6      3.313      4.770
  Name = 
  10 active torsions:
  status: ('A' for Active; 'I' for Inactive)
    1  A    between atoms: C_1  and  C_30
    2  A    between atoms: C_2  and  C_13
    3  A    between atoms: C_2  and  C_28
    4  A    between atoms: N_3  and  C_25
    5  A    between atoms: N_4  and  C_19
    6  A    between atoms: C_9  and  C_12
    7  A    between atoms: N_16  and  C_30
    8  A    between atoms: N_16  and  C_34
    9  A    between atoms: C_19  and  C_34
   10  A    between atoms: C_25  and  C_32
                            x       y       z     vdW  Elec       q    Type
                         _______ _______ _______ _____ _____    ______ ____

>  <TORSDO>
F 10

$$$$
=
 OpenBabel11042418413D

 34 38  0  0  1  0  0  0  0  0999 V2000
  192.3490  175.3150  144.6430 N   0  0  0  0  0  0  0  0  0  0  0  0
  191.6270  174.8950  145.8530 C   0  0  2  0  0  3  0  0  0  0  0  0
  190.8770  175.3860  144.6760 C   0  0  1  0  0  3  0  0  0  0  0  0
  190.4230  176.8270  144.7210 C   0  0  0  0  0  0  0  0  0  0  0  0
  191.2140  177.7350  144.3550 O   0  0  0  0  0  0  0  0  0  0  0  0
  185.8580  178.6510  144.0520 N   0  0  0  0  0  0  0  0  0  0  0  0
  184.8470  178.6720  144.9500 C   0  0  0  0  0  0  0  0  0  0  0  0
  186.8760  178.1050  144.7370 C   0  0  0  0  0  0  0  0  0  0  0  0
  188.2200  177.7900  144.2730 C   0  0  0  0  0  3  0  0  0  0  0  0
  185.1980  178.1840  146.1250 O   0  0  0  0  0  0  0  0  0  0  0  0
  188.6370  176.8800  146.4550 O   0  0  0  0  0  0  0  0  0  0  0  0
  186.4560  177.8250  146.0000 C   0  0  0  0  0  0  0  0  0  0  0  0
  187.3510  177.2100  147.0220 C   0  0  1  0  0  3  0  0  0  0  0  0
  183.6910  179.1030  144.6930 O   0  0  0  0  0  0  0  0  0  0  0  0
  189.0550  177.1900  145.1350 C   0  0  0  0  0  0  0  0  0  0  0  0
  186.7650  176.0660  147.5280 F   0  0  0  0  0  0  0  0  0  0  0  0
  185.8260  179.0410  142.6490 C   0  0  0  0  0  2  0  0  0  0  0  0
  186.6820  177.4190  140.6370 S   0  0  0  0  0  1  0  0  0  0  0  0
  185.3670  177.8740  141.7980 C   0  0  0  0  0  2  0  0  0  0  0  0
  191.8800  175.9100  146.9640 C   0  0  0  0  0  2  0  0  0  0  0  0
  191.1960  175.5200  148.1140 O   0  0  0  0  0  1  0  0  0  0  0  0
  192.6870  174.1060  143.9120 C   0  0  0  0  0  2  0  0  0  0  0  0
  192.1450  172.8940  144.6460 C   0  0  0  0  0  2  0  0  0  0  0  0
  191.8730  171.8260  143.7010 N   0  0  0  0  0  2  0  0  0  0  0  0
  191.6020  172.4560  142.4210 C   0  0  0  0  0  2  0  0  0  0  0  0
  190.1830  172.1440  141.9830 C   0  0  1  0  0  3  0  0  0  0  0  0
  188.1920  174.1720  138.3570 C   0  0  0  0  0  1  0  0  0  0  0  0
  189.7290  171.5020  138.1620 N   0  0  0  0  0  1  0  0  0  0  0  0
  189.4290  173.3630  141.8690 N   0  0  0  0  0  0  0  0  0  0  0  0
  190.2040  171.5670  140.5340 C   0  0  0  0  0  3  0  0  0  0  0  0
  189.6170  172.1600  139.4170 C   0  0  0  0  0  0  0  0  0  0  0  0
  188.8600  173.4740  139.4890 C   0  0  0  0  0  0  0  0  0  0  0  0
  188.7230  174.5710  141.9390 N   0  0  0  0  0  2  0  0  0  0  0  0
  188.8670  173.8970  140.7130 C   0  0  0  0  0  0  0  0  0  0  0  0
  1  3  1  0  0  0  0
  1  2  1  0  0  0  0
  2 20  1  1  0  0  0
  3  4  1  1  0  0  0
  3  2  1  0  0  0  0
  4 15  1  0  0  0  0
  5  4  2  0  0  0  0
  6  8  1  0  0  0  0
  6  7  1  0  0  0  0
  7 10  1  0  0  0  0
  8 12  2  0  0  0  0
  9  8  1  0  0  0  0
  9 15  2  0  0  0  0
 11 13  1  0  0  0  0
 12 10  1  0  0  0  0
 12 13  1  0  0  0  0
 13 16  1  6  0  0  0
 14  7  2  0  0  0  0
 15 11  1  0  0  0  0
 17  6  1  0  0  0  0
 18 19  1  0  0  0  0
 19 17  1  0  0  0  0
 20 21  1  0  0  0  0
 22  1  1  0  0  0  0
 22 23  1  0  0  0  0
 24 23  1  0  0  0  0
 25 24  1  0  0  0  0
 26 25  1  6  0  0  0
 27 32  1  0  0  0  0
 28 31  1  0  0  0  0
 29 33  1  0  0  0  0
 29 26  1  0  0  0  0
 30 26  1  0  0  0  0
 31 32  1  0  0  0  0
 31 30  2  0  0  0  0
 32 34  2  0  0  0  0
 34 29  1  0  0  0  0
 34 33  1  0  0  0  0
M  END
>  <MODEL>
9

>  <REMARK>
 VINA RESULT:      -6.5      3.191      4.719
  Name = 
  10 active torsions:
  status: ('A' for Active; 'I' for Inactive)
    1  A    between atoms: C_1  and  C_30
    2  A    between atoms: C_2  and  C_13
    3  A    between atoms: C_2  and  C_28
    4  A    between atoms: N_3  and  C_25
    5  A    between atoms: N_4  and  C_19
    6  A    between atoms: C_9  and  C_12
    7  A    between atoms: N_16  and  C_30
    8  A    between atoms: N_16  and  C_34
    9  A    between atoms: C_19  and  C_34
   10  A    between atoms: C_25  and  C_32
                            x       y       z     vdW  Elec       q    Type
                         _______ _______ _______ _____ _____    ______ ____

>  <TORSDO>
F 10

$$$$
