=
 OpenBabel11042416093D

 34 36  0  0  1  0  0  0  0  0999 V2000
  184.8600  178.7860  146.2270 C   0  0  0  0  0  3  0  0  0  0  0  0
  184.1290  179.0090  145.0580 C   0  0  0  0  0  3  0  0  0  0  0  0
  186.4110  177.3800  144.9980 C   0  0  0  0  0  0  0  0  0  0  0  0
  185.6680  177.6110  143.8370 C   0  0  0  0  0  3  0  0  0  0  0  0
  186.0010  177.9750  146.2220 C   0  0  0  0  0  0  0  0  0  0  0  0
  184.5290  178.4230  143.8590 C   0  0  0  0  0  0  0  0  0  0  0  0
  187.5770  176.5470  144.8640 C   0  0  0  0  0  0  0  0  0  0  0  0
  188.5370  175.8270  144.7490 C   0  0  0  0  0  0  0  0  0  0  0  0
  194.3230  177.1060  146.9570 O   0  0  0  0  0  1  0  0  0  0  0  0
  192.1380  174.7860  143.9300 C   0  0  1  0  0  3  0  0  0  0  0  0
  194.0720  176.4520  144.6470 C   0  0  2  0  0  3  0  0  0  0  0  0
  190.9490  175.7350  144.2020 C   0  0  2  0  0  3  0  0  0  0  0  0
  191.7730  173.7370  142.8780 C   0  0  0  0  0  2  0  0  0  0  0  0
  191.2910  176.8440  145.2250 C   0  0  0  0  0  2  0  0  0  0  0  0
  195.5280  176.7430  144.3060 C   0  0  0  0  0  1  0  0  0  0  0  0
  189.3710  173.8820  143.5490 C   0  0  0  0  0  2  0  0  0  0  0  0
  193.9160  175.4310  142.5050 O   0  0  0  0  0  0  0  0  0  0  0  0
  193.9640  176.0380  146.1320 C   0  0  2  0  0  3  0  0  0  0  0  0
  190.5550  172.9460  143.3380 C   0  0  0  0  0  2  0  0  0  0  0  0
  189.6960  174.9390  144.6040 C   0  0  2  0  0  3  0  0  0  0  0  0
  193.4350  175.5120  143.6270 C   0  0  0  0  0  0  0  0  0  0  0  0
  192.6030  175.4760  146.5790 C   0  0  0  0  0  2  0  0  0  0  0  0
  191.5340  176.4010  146.5460 O   0  0  0  0  0  0  0  0  0  0  0  0
  186.6610  177.8160  147.4530 O   0  0  0  0  0  0  0  0  0  0  0  0
  187.0430  178.8640  148.3300 C   0  0  0  0  0  1  0  0  0  0  0  0
  183.7660  178.6610  142.6720 N   0  0  0  0  0  2  0  0  0  0  0  0
  183.9750  177.9320  141.4230 C   0  0  2  0  0  3  0  0  0  0  0  0
  185.0770  178.5840  140.5870 C   0  0  0  0  0  2  0  0  0  0  0  0
  186.0950  177.5500  140.1380 C   0  0  0  0  0  2  0  0  0  0  0  0
  187.3450  177.8470  140.6810 O   0  0  0  0  0  1  0  0  0  0  0  0
  182.7220  177.8110  140.6730 N   0  0  0  0  0  2  0  0  0  0  0  0
  181.6280  178.4550  141.3940 C   0  0  0  0  0  2  0  0  0  0  0  0
  179.9400  179.8440  140.3800 N   0  0  0  0  0  2  0  0  0  0  0  0
  180.4770  178.6840  140.4720 C   0  0  0  0  0  3  0  0  0  0  0  0
  2  1  2  0  0  0  0
  3  5  2  0  0  0  0
  4  6  2  0  0  0  0
  4  3  1  0  0  0  0
  5  1  1  0  0  0  0
  5 24  1  0  0  0  0
  6  2  1  0  0  0  0
  7  3  1  0  0  0  0
  8  7  3  0  0  0  0
 10 13  1  6  0  0  0
 10 12  1  0  0  0  0
 11 15  1  6  0  0  0
 11 18  1  0  0  0  0
 12 20  1  0  0  0  0
 12 14  1  1  0  0  0
 13 19  1  0  0  0  0
 14 23  1  0  0  0  0
 16 20  1  0  0  0  0
 17 21  2  0  0  0  0
 18 22  1  0  0  0  0
 18  9  1  1  0  0  0
 19 16  1  0  0  0  0
 20  8  1  6  0  0  0
 21 10  1  0  0  0  0
 21 11  1  0  0  0  0
 23 22  1  0  0  0  0
 24 25  1  0  0  0  0
 26  6  1  0  0  0  0
 27 28  1  6  0  0  0
 27 26  1  0  0  0  0
 29 28  1  0  0  0  0
 29 30  1  0  0  0  0
 31 32  1  0  0  0  0
 31 27  1  0  0  0  0
 33 34  2  0  0  0  0
 34 32  1  0  0  0  0
M  END
>  <MODEL>
1

>  <REMARK>
 VINA RESULT:      -7.1      0.000      0.000
  Name = 
  10 active torsions:
  status: ('A' for Active; 'I' for Inactive)
    1  A    between atoms: C_2  and  C_8
    2  A    between atoms: C_8  and  C_10
    3  A    between atoms: C_10  and  N_32
    4  A    between atoms: C_10  and  N_33
    5  A    between atoms: C_11  and  C_14
    6  A    between atoms: C_17  and  C_29
    7  A    between atoms: C_19  and  O_24
    8  A    between atoms: C_21  and  C_23
    9  A    between atoms: C_23  and  N_32
   10  A    between atoms: C_25  and  N_33
                            x       y       z     vdW  Elec       q    Type
                         _______ _______ _______ _____ _____    ______ ____

>  <TORSDO>
F 10

$$$$
=
 OpenBabel11042416093D

 34 36  0  0  1  0  0  0  0  0999 V2000
  185.2230  178.9040  146.0770 C   0  0  0  0  0  3  0  0  0  0  0  0
  184.4310  178.8110  144.9310 C   0  0  0  0  0  3  0  0  0  0  0  0
  186.7090  177.1980  145.1990 C   0  0  0  0  0  0  0  0  0  0  0  0
  185.9060  177.1150  144.0580 C   0  0  0  0  0  3  0  0  0  0  0  0
  186.3640  178.1080  146.2350 C   0  0  0  0  0  0  0  0  0  0  0  0
  184.7680  177.9180  143.9160 C   0  0  0  0  0  0  0  0  0  0  0  0
  187.8680  176.3460  145.2370 C   0  0  0  0  0  0  0  0  0  0  0  0
  188.8270  175.6160  145.2480 C   0  0  0  0  0  0  0  0  0  0  0  0
  194.7530  177.4390  146.4940 O   0  0  0  0  0  1  0  0  0  0  0  0
  192.3660  174.3820  144.4260 C   0  0  1  0  0  3  0  0  0  0  0  0
  194.3170  176.1770  144.4830 C   0  0  2  0  0  3  0  0  0  0  0  0
  191.1840  175.3720  144.5330 C   0  0  2  0  0  3  0  0  0  0  0  0
  191.9350  173.0860  143.7380 C   0  0  0  0  0  2  0  0  0  0  0  0
  191.5890  176.7180  145.1780 C   0  0  0  0  0  2  0  0  0  0  0  0
  195.7310  176.3600  143.9460 C   0  0  0  0  0  1  0  0  0  0  0  0
  189.5970  173.4140  144.5560 C   0  0  0  0  0  2  0  0  0  0  0  0
  193.9990  174.6080  142.7250 O   0  0  0  0  0  0  0  0  0  0  0  0
  194.3470  176.1870  146.0280 C   0  0  2  0  0  3  0  0  0  0  0  0
  190.7790  172.4530  144.5040 C   0  0  0  0  0  2  0  0  0  0  0  0
  189.9890  174.7190  145.2480 C   0  0  2  0  0  3  0  0  0  0  0  0
  193.6150  174.9940  143.8210 C   0  0  0  0  0  0  0  0  0  0  0  0
  193.0430  175.7720  146.7320 C   0  0  0  0  0  2  0  0  0  0  0  0
  191.9550  176.6540  146.5440 O   0  0  0  0  0  0  0  0  0  0  0  0
  187.0870  178.2800  147.4270 O   0  0  0  0  0  0  0  0  0  0  0  0
  186.7610  179.1840  148.4720 C   0  0  0  0  0  1  0  0  0  0  0  0
  183.9440  177.8350  142.7500 N   0  0  0  0  0  2  0  0  0  0  0  0
  184.2060  178.5860  141.5250 C   0  0  2  0  0  3  0  0  0  0  0  0
  183.4240  178.0030  140.3480 C   0  0  0  0  0  2  0  0  0  0  0  0
  181.9430  177.9190  140.6750 C   0  0  0  0  0  2  0  0  0  0  0  0
  181.3660  179.1870  140.6010 O   0  0  0  0  0  1  0  0  0  0  0  0
  185.6440  178.6470  141.2470 N   0  0  0  0  0  2  0  0  0  0  0  0
  185.9970  177.7320  140.1660 C   0  0  0  0  0  2  0  0  0  0  0  0
  188.0810  177.3260  141.3030 N   0  0  0  0  0  2  0  0  0  0  0  0
  187.1260  176.8540  140.5920 C   0  0  0  0  0  3  0  0  0  0  0  0
  1  5  1  0  0  0  0
  2  1  2  0  0  0  0
  3  7  1  0  0  0  0
  3  5  2  0  0  0  0
  4  3  1  0  0  0  0
  5 24  1  0  0  0  0
  6  4  2  0  0  0  0
  6  2  1  0  0  0  0
  7  8  3  0  0  0  0
 10 13  1  6  0  0  0
 10 12  1  0  0  0  0
 11 15  1  6  0  0  0
 11 18  1  0  0  0  0
 12 14  1  1  0  0  0
 12 20  1  0  0  0  0
 13 19  1  0  0  0  0
 14 23  1  0  0  0  0
 16 20  1  0  0  0  0
 17 21  2  0  0  0  0
 18  9  1  6  0  0  0
 18 22  1  0  0  0  0
 19 16  1  0  0  0  0
 20  8  1  6  0  0  0
 21 10  1  0  0  0  0
 21 11  1  0  0  0  0
 23 22  1  0  0  0  0
 24 25  1  0  0  0  0
 26  6  1  0  0  0  0
 27 28  1  6  0  0  0
 27 26  1  0  0  0  0
 28 29  1  0  0  0  0
 30 29  1  0  0  0  0
 31 27  1  0  0  0  0
 32 34  1  0  0  0  0
 32 31  1  0  0  0  0
 34 33  2  0  0  0  0
M  END
>  <MODEL>
2

>  <REMARK>
 VINA RESULT:      -7.0      1.595      2.556
  Name = 
  10 active torsions:
  status: ('A' for Active; 'I' for Inactive)
    1  A    between atoms: C_2  and  C_8
    2  A    between atoms: C_8  and  C_10
    3  A    between atoms: C_10  and  N_32
    4  A    between atoms: C_10  and  N_33
    5  A    between atoms: C_11  and  C_14
    6  A    between atoms: C_17  and  C_29
    7  A    between atoms: C_19  and  O_24
    8  A    between atoms: C_21  and  C_23
    9  A    between atoms: C_23  and  N_32
   10  A    between atoms: C_25  and  N_33
                            x       y       z     vdW  Elec       q    Type
                         _______ _______ _______ _____ _____    ______ ____

>  <TORSDO>
F 10

$$$$
=
 OpenBabel11042416093D

 34 36  0  0  1  0  0  0  0  0999 V2000
  187.1140  175.2370  142.3970 C   0  0  0  0  0  3  0  0  0  0  0  0
  186.3030  176.2730  142.8650 C   0  0  0  0  0  3  0  0  0  0  0  0
  189.0470  176.2640  143.4440 C   0  0  0  0  0  0  0  0  0  0  0  0
  188.2240  177.2950  143.9060 C   0  0  0  0  0  3  0  0  0  0  0  0
  188.4860  175.2110  142.6710 C   0  0  0  0  0  0  0  0  0  0  0  0
  186.8540  177.3060  143.6210 C   0  0  0  0  0  0  0  0  0  0  0  0
  190.4370  176.3350  143.8100 C   0  0  0  0  0  0  0  0  0  0  0  0
  191.6000  176.3680  144.1260 C   0  0  0  0  0  0  0  0  0  0  0  0
  196.4120  175.2080  140.1900 O   0  0  0  0  0  1  0  0  0  0  0  0
  195.2270  175.1520  144.4220 C   0  0  1  0  0  3  0  0  0  0  0  0
  196.2990  174.0100  142.2820 C   0  0  2  0  0  3  0  0  0  0  0  0
  193.7680  175.1940  143.9140 C   0  0  2  0  0  3  0  0  0  0  0  0
  195.2750  175.1400  145.9500 C   0  0  0  0  0  2  0  0  0  0  0  0
  193.6720  175.1560  142.3700 C   0  0  0  0  0  2  0  0  0  0  0  0
  197.4570  173.0860  141.9260 C   0  0  0  0  0  1  0  0  0  0  0  0
  193.1020  176.3700  146.0400 C   0  0  0  0  0  2  0  0  0  0  0  0
  196.4420  173.1200  144.4820 O   0  0  0  0  0  0  0  0  0  0  0  0
  196.4890  175.3700  141.5740 C   0  0  2  0  0  3  0  0  0  0  0  0
  194.5550  176.3660  146.5000 C   0  0  0  0  0  2  0  0  0  0  0  0
  193.0150  176.3930  144.5150 C   0  0  2  0  0  3  0  0  0  0  0  0
  196.0570  174.0520  143.7890 C   0  0  0  0  0  0  0  0  0  0  0  0
  195.5410  176.4990  142.0150 C   0  0  0  0  0  2  0  0  0  0  0  0
  194.1790  176.2940  141.6990 O   0  0  0  0  0  0  0  0  0  0  0  0
  189.2090  174.1240  142.1510 O   0  0  0  0  0  0  0  0  0  0  0  0
  188.6780  172.8430  141.8510 C   0  0  0  0  0  1  0  0  0  0  0  0
  186.0090  178.3610  144.0910 N   0  0  0  0  0  2  0  0  0  0  0  0
  184.5720  178.2040  144.3070 C   0  0  2  0  0  3  0  0  0  0  0  0
  183.7750  179.0420  143.3070 C   0  0  0  0  0  2  0  0  0  0  0  0
  183.3730  178.2060  142.1040 C   0  0  0  0  0  2  0  0  0  0  0  0
  184.2190  178.4810  141.0290 O   0  0  0  0  0  1  0  0  0  0  0  0
  184.2140  178.5220  145.6920 N   0  0  0  0  0  2  0  0  0  0  0  0
  184.7560  177.5200  146.6040 C   0  0  0  0  0  2  0  0  0  0  0  0
  186.9520  178.0170  147.4600 N   0  0  0  0  0  2  0  0  0  0  0  0
  185.6850  178.1670  147.5760 C   0  0  0  0  0  3  0  0  0  0  0  0
  1  5  2  0  0  0  0
  1  2  1  0  0  0  0
  2  6  2  0  0  0  0
  3  7  1  0  0  0  0
  3  4  2  0  0  0  0
  5  3  1  0  0  0  0
  6  4  1  0  0  0  0
  6 26  1  0  0  0  0
  7  8  3  0  0  0  0
 10 13  1  1  0  0  0
 11 15  1  1  0  0  0
 11 21  1  0  0  0  0
 12 14  1  6  0  0  0
 12 10  1  0  0  0  0
 12 20  1  0  0  0  0
 13 19  1  0  0  0  0
 16 19  1  0  0  0  0
 18  9  1  6  0  0  0
 18 22  1  0  0  0  0
 18 11  1  0  0  0  0
 20  8  1  1  0  0  0
 20 16  1  0  0  0  0
 21 10  1  0  0  0  0
 21 17  2  0  0  0  0
 23 22  1  0  0  0  0
 23 14  1  0  0  0  0
 24  5  1  0  0  0  0
 25 24  1  0  0  0  0
 26 27  1  0  0  0  0
 27 28  1  6  0  0  0
 27 31  1  0  0  0  0
 29 28  1  0  0  0  0
 30 29  1  0  0  0  0
 31 32  1  0  0  0  0
 32 34  1  0  0  0  0
 33 34  2  0  0  0  0
M  END
>  <MODEL>
3

>  <REMARK>
 VINA RESULT:      -6.6      2.815      5.098
  Name = 
  10 active torsions:
  status: ('A' for Active; 'I' for Inactive)
    1  A    between atoms: C_2  and  C_8
    2  A    between atoms: C_8  and  C_10
    3  A    between atoms: C_10  and  N_32
    4  A    between atoms: C_10  and  N_33
    5  A    between atoms: C_11  and  C_14
    6  A    between atoms: C_17  and  C_29
    7  A    between atoms: C_19  and  O_24
    8  A    between atoms: C_21  and  C_23
    9  A    between atoms: C_23  and  N_32
   10  A    between atoms: C_25  and  N_33
                            x       y       z     vdW  Elec       q    Type
                         _______ _______ _______ _____ _____    ______ ____

>  <TORSDO>
F 10

$$$$
=
 OpenBabel11042416093D

 34 36  0  0  1  0  0  0  0  0999 V2000
  188.0020  176.3630  146.8690 C   0  0  0  0  0  3  0  0  0  0  0  0
  187.0540  176.5610  145.8630 C   0  0  0  0  0  3  0  0  0  0  0  0
  189.6920  175.8840  145.1940 C   0  0  0  0  0  0  0  0  0  0  0  0
  188.7320  176.0830  144.1970 C   0  0  0  0  0  3  0  0  0  0  0  0
  189.3250  176.0230  146.5600 C   0  0  0  0  0  0  0  0  0  0  0  0
  187.4140  176.4220  144.5240 C   0  0  0  0  0  0  0  0  0  0  0  0
  191.0230  175.5600  144.7520 C   0  0  0  0  0  0  0  0  0  0  0  0
  192.1370  175.2660  144.3990 C   0  0  0  0  0  0  0  0  0  0  0  0
  194.4710  169.3920  144.6310 O   0  0  0  0  0  1  0  0  0  0  0  0
  195.6050  173.6390  144.6120 C   0  0  1  0  0  3  0  0  0  0  0  0
  195.7350  171.1930  145.6260 C   0  0  2  0  0  3  0  0  0  0  0  0
  194.1370  173.9330  144.9910 C   0  0  2  0  0  3  0  0  0  0  0  0
  196.4060  174.9350  144.4740 C   0  0  0  0  0  2  0  0  0  0  0  0
  193.3020  172.6450  145.1910 C   0  0  0  0  0  2  0  0  0  0  0  0
  196.7620  170.2550  146.2490 C   0  0  0  0  0  1  0  0  0  0  0  0
  194.3270  176.1670  143.8410 C   0  0  0  0  0  2  0  0  0  0  0  0
  197.1820  172.9730  146.2490 O   0  0  0  0  0  0  0  0  0  0  0  0
  195.1780  170.5590  144.3310 C   0  0  2  0  0  3  0  0  0  0  0  0
  195.7570  175.8350  143.4300 C   0  0  0  0  0  2  0  0  0  0  0  0
  193.4930  174.8940  143.9770 C   0  0  2  0  0  3  0  0  0  0  0  0
  196.2710  172.6170  145.5140 C   0  0  0  0  0  0  0  0  0  0  0  0
  194.3120  171.4750  143.4490 C   0  0  0  0  0  2  0  0  0  0  0  0
  193.0850  171.8730  144.0250 O   0  0  0  0  0  0  0  0  0  0  0  0
  190.1960  175.8450  147.6480 O   0  0  0  0  0  0  0  0  0  0  0  0
  191.1790  176.7730  148.0820 C   0  0  0  0  0  1  0  0  0  0  0  0
  186.4290  176.6260  143.5070 N   0  0  0  0  0  2  0  0  0  0  0  0
  186.0850  177.9420  142.9720 C   0  0  2  0  0  3  0  0  0  0  0  0
  186.8120  178.2030  141.6530 C   0  0  0  0  0  2  0  0  0  0  0  0
  185.9200  177.8660  140.4710 C   0  0  0  0  0  2  0  0  0  0  0  0
  186.6360  177.1240  139.5310 O   0  0  0  0  0  1  0  0  0  0  0  0
  186.3510  178.9920  143.9590 N   0  0  0  0  0  2  0  0  0  0  0  0
  185.1560  179.8000  144.1830 C   0  0  0  0  0  2  0  0  0  0  0  0
  184.1070  178.7050  146.0540 N   0  0  0  0  0  2  0  0  0  0  0  0
  184.0860  178.9630  144.8000 C   0  0  0  0  0  3  0  0  0  0  0  0
  2  1  2  0  0  0  0
  3  5  2  0  0  0  0
  4  6  2  0  0  0  0
  4  3  1  0  0  0  0
  5  1  1  0  0  0  0
  5 24  1  0  0  0  0
  6  2  1  0  0  0  0
  7  3  1  0  0  0  0
  8  7  3  0  0  0  0
 10 13  1  1  0  0  0
 10 12  1  0  0  0  0
 10 21  1  0  0  0  0
 11 15  1  6  0  0  0
 12 14  1  6  0  0  0
 16 20  1  0  0  0  0
 18  9  1  1  0  0  0
 18 11  1  0  0  0  0
 19 16  1  0  0  0  0
 19 13  1  0  0  0  0
 20  8  1  1  0  0  0
 20 12  1  0  0  0  0
 21 11  1  0  0  0  0
 21 17  2  0  0  0  0
 22 23  1  0  0  0  0
 22 18  1  0  0  0  0
 23 14  1  0  0  0  0
 24 25  1  0  0  0  0
 26  6  1  0  0  0  0
 27 28  1  6  0  0  0
 27 26  1  0  0  0  0
 27 31  1  0  0  0  0
 29 28  1  0  0  0  0
 30 29  1  0  0  0  0
 31 32  1  0  0  0  0
 32 34  1  0  0  0  0
 34 33  2  0  0  0  0
M  END
>  <MODEL>
4

>  <REMARK>
 VINA RESULT:      -6.5      2.946      4.685
  Name = 
  10 active torsions:
  status: ('A' for Active; 'I' for Inactive)
    1  A    between atoms: C_2  and  C_8
    2  A    between atoms: C_8  and  C_10
    3  A    between atoms: C_10  and  N_32
    4  A    between atoms: C_10  and  N_33
    5  A    between atoms: C_11  and  C_14
    6  A    between atoms: C_17  and  C_29
    7  A    between atoms: C_19  and  O_24
    8  A    between atoms: C_21  and  C_23
    9  A    between atoms: C_23  and  N_32
   10  A    between atoms: C_25  and  N_33
                            x       y       z     vdW  Elec       q    Type
                         _______ _______ _______ _____ _____    ______ ____

>  <TORSDO>
F 10

$$$$
=
 OpenBabel11042416093D

 34 36  0  0  1  0  0  0  0  0999 V2000
  187.5450  175.7860  141.2580 C   0  0  0  0  0  3  0  0  0  0  0  0
  186.7760  176.9090  141.5710 C   0  0  0  0  0  3  0  0  0  0  0  0
  189.3540  176.6300  142.6390 C   0  0  0  0  0  0  0  0  0  0  0  0
  188.5730  177.7490  142.9420 C   0  0  0  0  0  3  0  0  0  0  0  0
  188.8350  175.6250  141.7780 C   0  0  0  0  0  0  0  0  0  0  0  0
  187.2860  177.8950  142.4130 C   0  0  0  0  0  0  0  0  0  0  0  0
  190.6550  176.5660  143.2510 C   0  0  0  0  0  0  0  0  0  0  0  0
  191.7550  176.5270  143.7420 C   0  0  0  0  0  0  0  0  0  0  0  0
  197.0430  175.2870  140.5020 O   0  0  0  0  0  1  0  0  0  0  0  0
  195.2600  175.1730  144.5180 C   0  0  1  0  0  3  0  0  0  0  0  0
  196.5910  174.0450  142.5220 C   0  0  2  0  0  3  0  0  0  0  0  0
  193.8920  175.2810  143.8080 C   0  0  2  0  0  3  0  0  0  0  0  0
  195.0870  175.1240  146.0370 C   0  0  0  0  0  2  0  0  0  0  0  0
  194.0180  175.2820  142.2660 C   0  0  0  0  0  2  0  0  0  0  0  0
  197.7580  173.0890  142.3090 C   0  0  0  0  0  1  0  0  0  0  0  0
  192.9650  176.4290  145.8510 C   0  0  0  0  0  2  0  0  0  0  0  0
  196.3880  173.0980  144.6940 O   0  0  0  0  0  0  0  0  0  0  0  0
  196.9250  175.4140  141.8880 C   0  0  2  0  0  3  0  0  0  0  0  0
  194.3360  176.3620  146.5130 C   0  0  0  0  0  2  0  0  0  0  0  0
  193.1000  176.4910  144.3300 C   0  0  2  0  0  3  0  0  0  0  0  0
  196.1370  174.0590  143.9790 C   0  0  0  0  0  0  0  0  0  0  0  0
  195.9610  176.5660  142.2210 C   0  0  0  0  0  2  0  0  0  0  0  0
  194.6520  176.4180  141.7080 O   0  0  0  0  0  0  0  0  0  0  0  0
  189.5230  174.4600  141.3980 O   0  0  0  0  0  0  0  0  0  0  0  0
  189.5820  173.2520  142.1420 C   0  0  0  0  0  1  0  0  0  0  0  0
  186.4840  179.0390  142.7200 N   0  0  0  0  0  2  0  0  0  0  0  0
  185.3960  179.0210  143.6940 C   0  0  2  0  0  3  0  0  0  0  0  0
  185.9300  178.7900  145.1080 C   0  0  0  0  0  2  0  0  0  0  0  0
  185.3100  177.5460  145.7210 C   0  0  0  0  0  2  0  0  0  0  0  0
  184.4790  177.9030  146.7830 O   0  0  0  0  0  1  0  0  0  0  0  0
  184.3820  178.0290  143.3260 N   0  0  0  0  0  2  0  0  0  0  0  0
  183.2260  178.6790  142.7170 C   0  0  0  0  0  2  0  0  0  0  0  0
  183.8320  178.5080  140.3920 N   0  0  0  0  0  2  0  0  0  0  0  0
  183.0280  178.1670  141.3290 C   0  0  0  0  0  3  0  0  0  0  0  0
  1  2  2  0  0  0  0
  1  5  1  0  0  0  0
  2  6  1  0  0  0  0
  3  4  1  0  0  0  0
  3  7  1  0  0  0  0
  5  3  2  0  0  0  0
  6 26  1  0  0  0  0
  6  4  2  0  0  0  0
  7  8  3  0  0  0  0
 10 13  1  1  0  0  0
 11 15  1  1  0  0  0
 11 21  1  0  0  0  0
 12 14  1  6  0  0  0
 12 20  1  0  0  0  0
 12 10  1  0  0  0  0
 13 19  1  0  0  0  0
 16 19  1  0  0  0  0
 18  9  1  6  0  0  0
 18 22  1  0  0  0  0
 18 11  1  0  0  0  0
 20  8  1  6  0  0  0
 20 16  1  0  0  0  0
 21 10  1  0  0  0  0
 21 17  2  0  0  0  0
 23 22  1  0  0  0  0
 23 14  1  0  0  0  0
 24  5  1  0  0  0  0
 24 25  1  0  0  0  0
 26 27  1  0  0  0  0
 27 28  1  1  0  0  0
 28 29  1  0  0  0  0
 29 30  1  0  0  0  0
 31 27  1  0  0  0  0
 32 31  1  0  0  0  0
 33 34  2  0  0  0  0
 34 32  1  0  0  0  0
M  END
>  <MODEL>
5

>  <REMARK>
 VINA RESULT:      -6.5      2.330      4.807
  Name = 
  10 active torsions:
  status: ('A' for Active; 'I' for Inactive)
    1  A    between atoms: C_2  and  C_8
    2  A    between atoms: C_8  and  C_10
    3  A    between atoms: C_10  and  N_32
    4  A    between atoms: C_10  and  N_33
    5  A    between atoms: C_11  and  C_14
    6  A    between atoms: C_17  and  C_29
    7  A    between atoms: C_19  and  O_24
    8  A    between atoms: C_21  and  C_23
    9  A    between atoms: C_23  and  N_32
   10  A    between atoms: C_25  and  N_33
                            x       y       z     vdW  Elec       q    Type
                         _______ _______ _______ _____ _____    ______ ____

>  <TORSDO>
F 10

$$$$
=
 OpenBabel11042416093D

 34 36  0  0  1  0  0  0  0  0999 V2000
  188.5590  177.5370  147.2480 C   0  0  0  0  0  3  0  0  0  0  0  0
  187.4780  177.7560  146.3920 C   0  0  0  0  0  3  0  0  0  0  0  0
  189.8730  176.6980  145.3890 C   0  0  0  0  0  0  0  0  0  0  0  0
  188.7830  176.9220  144.5430 C   0  0  0  0  0  3  0  0  0  0  0  0
  189.7640  177.0090  146.7720 C   0  0  0  0  0  0  0  0  0  0  0  0
  187.5840  177.4500  145.0370 C   0  0  0  0  0  0  0  0  0  0  0  0
  191.0660  176.1730  144.7790 C   0  0  0  0  0  0  0  0  0  0  0  0
  192.0800  175.7430  144.2890 C   0  0  0  0  0  0  0  0  0  0  0  0
  194.2310  169.8530  145.1160 O   0  0  0  0  0  1  0  0  0  0  0  0
  195.4760  173.9600  144.1670 C   0  0  1  0  0  3  0  0  0  0  0  0
  195.7120  171.7100  145.5490 C   0  0  2  0  0  3  0  0  0  0  0  0
  194.1120  174.4030  144.7420 C   0  0  2  0  0  3  0  0  0  0  0  0
  196.2780  175.1640  143.6700 C   0  0  0  0  0  2  0  0  0  0  0  0
  193.2870  173.2200  145.3030 C   0  0  0  0  0  2  0  0  0  0  0  0
  196.8060  170.8250  146.1340 C   0  0  0  0  0  1  0  0  0  0  0  0
  194.1580  176.4020  143.2090 C   0  0  0  0  0  2  0  0  0  0  0  0
  197.3040  173.4750  145.5930 O   0  0  0  0  0  0  0  0  0  0  0  0
  194.9080  170.9080  144.5010 C   0  0  2  0  0  3  0  0  0  0  0  0
  195.4770  175.9200  142.6170 C   0  0  0  0  0  2  0  0  0  0  0  0
  193.3230  175.2230  143.7070 C   0  0  2  0  0  3  0  0  0  0  0  0
  196.2630  173.0600  145.1010 C   0  0  0  0  0  0  0  0  0  0  0  0
  193.9240  171.7200  143.6400 C   0  0  0  0  0  2  0  0  0  0  0  0
  192.8360  172.2830  144.3440 O   0  0  0  0  0  0  0  0  0  0  0  0
  190.7860  176.8260  147.7190 O   0  0  0  0  0  0  0  0  0  0  0  0
  191.2630  175.5760  148.1930 C   0  0  0  0  0  1  0  0  0  0  0  0
  186.4660  177.6790  144.1740 N   0  0  0  0  0  2  0  0  0  0  0  0
  186.2660  178.9190  143.4290 C   0  0  2  0  0  3  0  0  0  0  0  0
  185.2620  179.8280  144.1400 C   0  0  0  0  0  2  0  0  0  0  0  0
  184.0350  179.0430  144.5690 C   0  0  0  0  0  2  0  0  0  0  0  0
  184.0330  178.8820  145.9550 O   0  0  0  0  0  1  0  0  0  0  0  0
  185.8650  178.6400  142.0480 N   0  0  0  0  0  2  0  0  0  0  0  0
  186.0240  177.2210  141.7440 C   0  0  0  0  0  2  0  0  0  0  0  0
  187.8860  175.8680  141.0350 N   0  0  0  0  0  2  0  0  0  0  0  0
  187.2940  177.0030  140.9920 C   0  0  0  0  0  3  0  0  0  0  0  0
  2  1  2  0  0  0  0
  3  5  2  0  0  0  0
  4  6  2  0  0  0  0
  4  3  1  0  0  0  0
  5  1  1  0  0  0  0
  5 24  1  0  0  0  0
  6  2  1  0  0  0  0
  7  3  1  0  0  0  0
  8  7  3  0  0  0  0
 10 13  1  1  0  0  0
 10 12  1  0  0  0  0
 10 21  1  0  0  0  0
 11 15  1  6  0  0  0
 12 14  1  6  0  0  0
 16 20  1  0  0  0  0
 18  9  1  1  0  0  0
 18 11  1  0  0  0  0
 19 16  1  0  0  0  0
 19 13  1  0  0  0  0
 20  8  1  1  0  0  0
 20 12  1  0  0  0  0
 21 11  1  0  0  0  0
 21 17  2  0  0  0  0
 22 23  1  0  0  0  0
 22 18  1  0  0  0  0
 23 14  1  0  0  0  0
 24 25  1  0  0  0  0
 26  6  1  0  0  0  0
 27 28  1  1  0  0  0
 27 26  1  0  0  0  0
 28 29  1  0  0  0  0
 29 30  1  0  0  0  0
 31 27  1  0  0  0  0
 32 31  1  0  0  0  0
 34 33  2  0  0  0  0
 34 32  1  0  0  0  0
M  END
>  <MODEL>
6

>  <REMARK>
 VINA RESULT:      -6.5      2.921      4.845
  Name = 
  10 active torsions:
  status: ('A' for Active; 'I' for Inactive)
    1  A    between atoms: C_2  and  C_8
    2  A    between atoms: C_8  and  C_10
    3  A    between atoms: C_10  and  N_32
    4  A    between atoms: C_10  and  N_33
    5  A    between atoms: C_11  and  C_14
    6  A    between atoms: C_17  and  C_29
    7  A    between atoms: C_19  and  O_24
    8  A    between atoms: C_21  and  C_23
    9  A    between atoms: C_23  and  N_32
   10  A    between atoms: C_25  and  N_33
                            x       y       z     vdW  Elec       q    Type
                         _______ _______ _______ _____ _____    ______ ____

>  <TORSDO>
F 10

$$$$
=
 OpenBabel11042416093D

 34 36  0  0  1  0  0  0  0  0999 V2000
  196.5150  174.7800  145.0490 C   0  0  0  0  0  3  0  0  0  0  0  0
  196.9670  173.5030  145.3860 C   0  0  0  0  0  3  0  0  0  0  0  0
  194.2220  174.0750  145.4180 C   0  0  0  0  0  0  0  0  0  0  0  0
  194.6890  172.8000  145.7510 C   0  0  0  0  0  3  0  0  0  0  0  0
  195.1500  175.0900  145.0560 C   0  0  0  0  0  0  0  0  0  0  0  0
  196.0580  172.5080  145.7390 C   0  0  0  0  0  0  0  0  0  0  0  0
  192.7990  174.2780  145.4830 C   0  0  0  0  0  0  0  0  0  0  0  0
  191.6100  174.4630  145.5620 C   0  0  0  0  0  0  0  0  0  0  0  0
  187.8310  175.8370  140.6810 O   0  0  0  0  0  1  0  0  0  0  0  0
  188.2470  176.2340  145.0380 C   0  0  1  0  0  3  0  0  0  0  0  0
  187.7760  177.2520  142.6360 C   0  0  2  0  0  3  0  0  0  0  0  0
  189.7440  175.9130  144.8270 C   0  0  2  0  0  3  0  0  0  0  0  0
  187.9350  176.4400  146.5220 C   0  0  0  0  0  2  0  0  0  0  0  0
  190.1140  175.7460  143.3340 C   0  0  0  0  0  2  0  0  0  0  0  0
  186.8720  178.2870  141.9790 C   0  0  0  0  0  1  0  0  0  0  0  0
  189.8180  174.9200  147.1420 C   0  0  0  0  0  2  0  0  0  0  0  0
  187.4020  178.4160  144.6750 O   0  0  0  0  0  0  0  0  0  0  0  0
  187.4850  175.8580  142.0340 C   0  0  2  0  0  3  0  0  0  0  0  0
  188.3280  175.1970  147.3110 C   0  0  0  0  0  2  0  0  0  0  0  0
  190.1650  174.6980  145.6710 C   0  0  2  0  0  3  0  0  0  0  0  0
  187.7390  177.3590  144.1580 C   0  0  0  0  0  0  0  0  0  0  0  0
  188.1360  174.6630  142.7520 C   0  0  0  0  0  2  0  0  0  0  0  0
  189.5480  174.6230  142.6870 O   0  0  0  0  0  0  0  0  0  0  0  0
  194.8030  176.4040  144.6990 O   0  0  0  0  0  0  0  0  0  0  0  0
  194.5820  177.4770  145.6010 C   0  0  0  0  0  1  0  0  0  0  0  0
  196.5390  171.2040  146.0780 N   0  0  0  0  0  2  0  0  0  0  0  0
  195.9780  169.9720  145.5300 C   0  0  2  0  0  3  0  0  0  0  0  0
  196.6040  168.7430  146.1920 C   0  0  0  0  0  2  0  0  0  0  0  0
  196.1580  168.6260  147.6390 C   0  0  0  0  0  2  0  0  0  0  0  0
  194.7660  168.5610  147.7030 O   0  0  0  0  0  1  0  0  0  0  0  0
  196.1200  169.9370  144.0720 N   0  0  0  0  0  2  0  0  0  0  0  0
  195.0080  169.2100  143.4650 C   0  0  0  0  0  2  0  0  0  0  0  0
  192.8350  168.6820  144.3610 N   0  0  0  0  0  2  0  0  0  0  0  0
  193.7320  169.5720  144.1490 C   0  0  0  0  0  3  0  0  0  0  0  0
  1  5  2  0  0  0  0
  1  2  1  0  0  0  0
  2  6  2  0  0  0  0
  3  7  1  0  0  0  0
  3  4  2  0  0  0  0
  5  3  1  0  0  0  0
  6  4  1  0  0  0  0
  6 26  1  0  0  0  0
  7  8  3  0  0  0  0
 10 13  1  1  0  0  0
 11 15  1  6  0  0  0
 11 21  1  0  0  0  0
 12 14  1  6  0  0  0
 12 10  1  0  0  0  0
 12 20  1  0  0  0  0
 13 19  1  0  0  0  0
 16 19  1  0  0  0  0
 18  9  1  6  0  0  0
 18 11  1  0  0  0  0
 18 22  1  0  0  0  0
 20  8  1  1  0  0  0
 20 16  1  0  0  0  0
 21 17  2  0  0  0  0
 21 10  1  0  0  0  0
 23 22  1  0  0  0  0
 23 14  1  0  0  0  0
 24  5  1  0  0  0  0
 24 25  1  0  0  0  0
 27 26  1  0  0  0  0
 27 28  1  1  0  0  0
 28 29  1  0  0  0  0
 29 30  1  0  0  0  0
 31 27  1  0  0  0  0
 32 31  1  0  0  0  0
 32 34  1  0  0  0  0
 34 33  2  0  0  0  0
M  END
>  <MODEL>
7

>  <REMARK>
 VINA RESULT:      -6.4      5.623     10.497
  Name = 
  10 active torsions:
  status: ('A' for Active; 'I' for Inactive)
    1  A    between atoms: C_2  and  C_8
    2  A    between atoms: C_8  and  C_10
    3  A    between atoms: C_10  and  N_32
    4  A    between atoms: C_10  and  N_33
    5  A    between atoms: C_11  and  C_14
    6  A    between atoms: C_17  and  C_29
    7  A    between atoms: C_19  and  O_24
    8  A    between atoms: C_21  and  C_23
    9  A    between atoms: C_23  and  N_32
   10  A    between atoms: C_25  and  N_33
                            x       y       z     vdW  Elec       q    Type
                         _______ _______ _______ _____ _____    ______ ____

>  <TORSDO>
F 10

$$$$
=
 OpenBabel11042416093D

 34 36  0  0  1  0  0  0  0  0999 V2000
  195.8340  176.4180  143.4420 C   0  0  0  0  0  3  0  0  0  0  0  0
  195.9690  176.1170  142.0860 C   0  0  0  0  0  3  0  0  0  0  0  0
  193.4440  176.0180  143.3010 C   0  0  0  0  0  0  0  0  0  0  0  0
  193.5940  175.7210  141.9430 C   0  0  0  0  0  3  0  0  0  0  0  0
  194.5830  176.3770  144.0710 C   0  0  0  0  0  0  0  0  0  0  0  0
  194.8520  175.7680  141.3300 C   0  0  0  0  0  0  0  0  0  0  0  0
  192.1130  175.9200  143.8390 C   0  0  0  0  0  0  0  0  0  0  0  0
  191.0080  175.8210  144.3110 C   0  0  0  0  0  0  0  0  0  0  0  0
  185.6650  177.6600  141.4700 O   0  0  0  0  0  1  0  0  0  0  0  0
  187.4850  176.8850  145.3950 C   0  0  1  0  0  3  0  0  0  0  0  0
  186.1120  178.4140  143.7190 C   0  0  2  0  0  3  0  0  0  0  0  0
  188.8470  176.9730  144.6720 C   0  0  2  0  0  3  0  0  0  0  0  0
  187.6720  176.5880  146.8840 C   0  0  0  0  0  2  0  0  0  0  0  0
  188.7070  177.3230  143.1720 C   0  0  0  0  0  2  0  0  0  0  0  0
  184.9250  179.3690  143.7370 C   0  0  0  0  0  1  0  0  0  0  0  0
  189.8170  175.4070  146.3910 C   0  0  0  0  0  2  0  0  0  0  0  0
  186.3190  178.8410  146.0490 O   0  0  0  0  0  0  0  0  0  0  0  0
  185.7990  177.2200  142.7880 C   0  0  2  0  0  3  0  0  0  0  0  0
  188.4510  175.2910  147.0580 C   0  0  0  0  0  2  0  0  0  0  0  0
  189.6680  175.6930  144.8970 C   0  0  2  0  0  3  0  0  0  0  0  0
  186.5810  178.0750  145.1310 C   0  0  0  0  0  0  0  0  0  0  0  0
  186.7890  176.0440  142.8430 C   0  0  0  0  0  2  0  0  0  0  0  0
  188.0890  176.3340  142.3710 O   0  0  0  0  0  0  0  0  0  0  0  0
  194.5590  176.7000  145.4390 O   0  0  0  0  0  0  0  0  0  0  0  0
  194.5810  175.7690  146.5100 C   0  0  0  0  0  1  0  0  0  0  0  0
  195.0090  175.4650  139.9410 N   0  0  0  0  0  2  0  0  0  0  0  0
  195.3090  174.1260  139.4380 C   0  0  2  0  0  3  0  0  0  0  0  0
  196.7900  173.9940  139.0830 C   0  0  0  0  0  2  0  0  0  0  0  0
  197.3630  175.3350  138.6570 C   0  0  0  0  0  2  0  0  0  0  0  0
  197.4180  175.4080  137.2650 O   0  0  0  0  0  1  0  0  0  0  0  0
  194.4450  173.7880  138.3040 N   0  0  0  0  0  2  0  0  0  0  0  0
  193.5710  174.9100  137.9730 C   0  0  0  0  0  2  0  0  0  0  0  0
  193.3210  176.4360  136.1260 N   0  0  0  0  0  2  0  0  0  0  0  0
  193.7960  175.3280  136.5580 C   0  0  0  0  0  3  0  0  0  0  0  0
  1  5  1  0  0  0  0
  2  1  2  0  0  0  0
  3  7  1  0  0  0  0
  3  5  2  0  0  0  0
  4  3  1  0  0  0  0
  5 24  1  0  0  0  0
  6  4  2  0  0  0  0
  6  2  1  0  0  0  0
  7  8  3  0  0  0  0
 10 13  1  1  0  0  0
 11 15  1  1  0  0  0
 11 21  1  0  0  0  0
 12 14  1  6  0  0  0
 12 20  1  0  0  0  0
 12 10  1  0  0  0  0
 13 19  1  0  0  0  0
 16 19  1  0  0  0  0
 18  9  1  6  0  0  0
 18 22  1  0  0  0  0
 18 11  1  0  0  0  0
 20  8  1  1  0  0  0
 20 16  1  0  0  0  0
 21 10  1  0  0  0  0
 21 17  2  0  0  0  0
 23 22  1  0  0  0  0
 23 14  1  0  0  0  0
 24 25  1  0  0  0  0
 26  6  1  0  0  0  0
 27 28  1  6  0  0  0
 27 26  1  0  0  0  0
 29 28  1  0  0  0  0
 30 29  1  0  0  0  0
 31 27  1  0  0  0  0
 32 31  1  0  0  0  0
 33 34  2  0  0  0  0
 34 32  1  0  0  0  0
M  END
>  <MODEL>
8

>  <REMARK>
 VINA RESULT:      -6.3      4.565      9.290
  Name = 
  10 active torsions:
  status: ('A' for Active; 'I' for Inactive)
    1  A    between atoms: C_2  and  C_8
    2  A    between atoms: C_8  and  C_10
    3  A    between atoms: C_10  and  N_32
    4  A    between atoms: C_10  and  N_33
    5  A    between atoms: C_11  and  C_14
    6  A    between atoms: C_17  and  C_29
    7  A    between atoms: C_19  and  O_24
    8  A    between atoms: C_21  and  C_23
    9  A    between atoms: C_23  and  N_32
   10  A    between atoms: C_25  and  N_33
                            x       y       z     vdW  Elec       q    Type
                         _______ _______ _______ _____ _____    ______ ____

>  <TORSDO>
F 10

$$$$
=
 OpenBabel11042416093D

 34 36  0  0  1  0  0  0  0  0999 V2000
  196.1220  176.2170  143.9060 C   0  0  0  0  0  3  0  0  0  0  0  0
  196.2730  176.1890  142.5190 C   0  0  0  0  0  3  0  0  0  0  0  0
  193.7160  176.0220  143.6570 C   0  0  0  0  0  0  0  0  0  0  0  0
  193.8820  175.9960  142.2690 C   0  0  0  0  0  3  0  0  0  0  0  0
  194.8560  176.1370  144.4980 C   0  0  0  0  0  0  0  0  0  0  0  0
  195.1550  176.0780  141.6940 C   0  0  0  0  0  0  0  0  0  0  0  0
  192.3670  175.9110  144.1470 C   0  0  0  0  0  0  0  0  0  0  0  0
  191.2410  175.7890  144.5600 C   0  0  0  0  0  0  0  0  0  0  0  0
  186.0240  177.2930  141.3170 O   0  0  0  0  0  1  0  0  0  0  0  0
  187.6150  176.7410  145.3770 C   0  0  1  0  0  3  0  0  0  0  0  0
  186.2940  178.1480  143.5590 C   0  0  2  0  0  3  0  0  0  0  0  0
  189.0180  176.8610  144.7390 C   0  0  2  0  0  3  0  0  0  0  0  0
  187.7170  176.5070  146.8850 C   0  0  0  0  0  2  0  0  0  0  0  0
  188.9600  177.1490  143.2200 C   0  0  0  0  0  2  0  0  0  0  0  0
  185.0710  179.0510  143.4650 C   0  0  0  0  0  1  0  0  0  0  0  0
  189.9360  175.4010  146.5750 C   0  0  0  0  0  2  0  0  0  0  0  0
  186.3320  178.6680  145.8780 O   0  0  0  0  0  0  0  0  0  0  0  0
  186.0900  176.9090  142.6580 C   0  0  2  0  0  3  0  0  0  0  0  0
  188.5350  175.2510  147.1590 C   0  0  0  0  0  2  0  0  0  0  0  0
  189.8730  175.6250  145.0650 C   0  0  2  0  0  3  0  0  0  0  0  0
  186.6840  177.8810  145.0100 C   0  0  0  0  0  0  0  0  0  0  0  0
  187.1200  175.7780  142.8210 C   0  0  0  0  0  2  0  0  0  0  0  0
  188.4360  176.1050  142.4210 O   0  0  0  0  0  0  0  0  0  0  0  0
  194.8160  176.1770  145.9020 O   0  0  0  0  0  0  0  0  0  0  0  0
  194.1970  177.1850  146.6860 C   0  0  0  0  0  1  0  0  0  0  0  0
  195.3290  176.0530  140.2740 N   0  0  0  0  0  2  0  0  0  0  0  0
  196.1330  175.0490  139.5800 C   0  0  2  0  0  3  0  0  0  0  0  0
  196.1250  175.2910  138.0700 C   0  0  0  0  0  2  0  0  0  0  0  0
  197.5320  175.2060  137.5040 C   0  0  0  0  0  2  0  0  0  0  0  0
  197.5930  175.8720  136.2800 O   0  0  0  0  0  1  0  0  0  0  0  0
  195.6840  173.6960  139.9180 N   0  0  0  0  0  2  0  0  0  0  0  0
  196.7150  172.9860  140.6690 C   0  0  0  0  0  2  0  0  0  0  0  0
  196.1850  172.6320  142.9920 N   0  0  0  0  0  2  0  0  0  0  0  0
  196.0900  172.2160  141.7840 C   0  0  0  0  0  3  0  0  0  0  0  0
  1  5  1  0  0  0  0
  2  1  2  0  0  0  0
  3  7  1  0  0  0  0
  3  5  2  0  0  0  0
  4  3  1  0  0  0  0
  5 24  1  0  0  0  0
  6  4  2  0  0  0  0
  6  2  1  0  0  0  0
  7  8  3  0  0  0  0
 10 13  1  1  0  0  0
 11 15  1  1  0  0  0
 11 21  1  0  0  0  0
 12 14  1  6  0  0  0
 12 20  1  0  0  0  0
 12 10  1  0  0  0  0
 13 19  1  0  0  0  0
 16 19  1  0  0  0  0
 18  9  1  6  0  0  0
 18 22  1  0  0  0  0
 18 11  1  0  0  0  0
 20  8  1  1  0  0  0
 20 16  1  0  0  0  0
 21 10  1  0  0  0  0
 21 17  2  0  0  0  0
 23 22  1  0  0  0  0
 23 14  1  0  0  0  0
 24 25  1  0  0  0  0
 26  6  1  0  0  0  0
 27 28  1  6  0  0  0
 27 31  1  0  0  0  0
 27 26  1  0  0  0  0
 29 28  1  0  0  0  0
 30 29  1  0  0  0  0
 31 32  1  0  0  0  0
 32 34  1  0  0  0  0
 34 33  2  0  0  0  0
M  END
>  <MODEL>
9

>  <REMARK>
 VINA RESULT:      -6.3      4.818      9.769
  Name = 
  10 active torsions:
  status: ('A' for Active; 'I' for Inactive)
    1  A    between atoms: C_2  and  C_8
    2  A    between atoms: C_8  and  C_10
    3  A    between atoms: C_10  and  N_32
    4  A    between atoms: C_10  and  N_33
    5  A    between atoms: C_11  and  C_14
    6  A    between atoms: C_17  and  C_29
    7  A    between atoms: C_19  and  O_24
    8  A    between atoms: C_21  and  C_23
    9  A    between atoms: C_23  and  N_32
   10  A    between atoms: C_25  and  N_33
                            x       y       z     vdW  Elec       q    Type
                         _______ _______ _______ _____ _____    ______ ____

>  <TORSDO>
F 10

$$$$
