=
 OpenBabel11042418043D

 45 49  0  0  1  0  0  0  0  0999 V2000
  191.8950  175.7470  146.5920 C   0  0  0  0  0  0  0  0  0  0  0  0
  190.6810  175.1200  146.1270 N   0  0  0  0  0  0  0  0  0  0  0  0
  191.8870  176.3450  147.7040 O   0  0  0  0  0  0  0  0  0  0  0  0
  193.1520  175.7190  145.8110 C   0  0  0  0  0  0  0  0  0  0  0  0
  194.2220  174.9190  146.2320 C   0  0  0  0  0  3  0  0  0  0  0  0
  195.3860  174.8990  145.5300 N   0  0  0  0  0  0  0  0  0  0  0  0
  196.8060  175.5800  143.7080 N   0  0  0  0  0  2  0  0  0  0  0  0
  194.5260  176.4770  143.9620 C   0  0  0  0  0  3  0  0  0  0  0  0
  195.5640  175.6510  144.4110 C   0  0  0  0  0  0  0  0  0  0  0  0
  193.3230  176.5100  144.6690 C   0  0  0  0  0  3  0  0  0  0  0  0
  197.0820  176.3510  142.5050 C   0  0  0  0  0  2  0  0  0  0  0  0
  196.1210  174.4460  141.2040 N   0  0  0  0  0  0  0  0  0  0  0  0
  197.7200  175.6110  140.1560 C   0  0  0  0  0  3  0  0  0  0  0  0
  196.9880  175.4660  141.3120 C   0  0  0  0  0  0  0  0  0  0  0  0
  197.3200  174.6520  139.2990 N   0  0  0  0  0  2  0  0  0  0  0  0
  195.6340  172.8180  139.3820 C   0  0  0  0  0  1  0  0  0  0  0  0
  196.3630  173.9750  139.9650 C   0  0  0  0  0  0  0  0  0  0  0  0
  190.6760  174.0560  145.1300 C   0  0  0  0  0  2  0  0  0  0  0  0
  190.3610  174.6200  143.7550 C   0  0  0  0  0  2  0  0  0  0  0  0
  189.2280  173.8390  143.1190 C   0  0  0  0  0  2  0  0  0  0  0  0
  188.3440  174.7020  140.9170 C   0  0  0  0  0  3  0  0  0  0  0  0
  189.0890  173.8790  140.2480 N   0  0  0  0  0  0  0  0  0  0  0  0
  188.3810  174.7340  142.3450 N   0  0  0  0  0  2  0  0  0  0  0  0
  189.0760  173.8240  138.8160 C   0  0  0  0  0  0  0  0  0  0  0  0
  188.0100  174.0720  138.1850 O   0  0  0  0  0  0  0  0  0  0  0  0
  190.2770  173.4880  138.0970 N   0  0  0  0  0  0  0  0  0  0  0  0
  191.2460  172.5490  136.1440 O   0  0  0  0  0  0  0  0  0  0  0  0
  189.9310  172.0580  136.1230 C   0  0  0  0  0  0  0  0  0  0  0  0
  189.7940  170.8630  137.0550 C   0  0  0  0  0  1  0  0  0  0  0  0
  189.4240  171.9360  134.7030 C   0  0  0  0  0  1  0  0  0  0  0  0
  190.2460  173.4260  136.6270 C   0  0  1  0  0  3  0  0  0  0  0  0
  191.5130  173.4130  138.8310 C   0  0  0  0  0  3  0  0  0  0  0  0
  191.8940  172.3260  139.4930 C   0  0  0  0  0  2  0  0  0  0  0  0
  189.3960  175.5500  146.6610 C   0  0  0  0  0  2  0  0  0  0  0  0
  185.3400  179.5560  144.6170 C   0  0  0  0  0  2  0  0  0  0  0  0
  186.4870  177.0760  145.2010 C   0  0  0  0  0  0  0  0  0  0  0  0
  185.4300  178.5770  143.4490 C   0  0  2  0  0  3  0  0  0  0  0  0
  187.7250  176.9360  145.5920 C   0  0  0  0  0  0  0  0  0  0  0  0
  184.2710  179.2190  145.4630 O   0  0  0  0  0  0  0  0  0  0  0  0
  185.8540  179.3530  147.3810 C   0  0  0  0  0  1  0  0  0  0  0  0
  184.7720  178.5820  146.6230 C   0  0  2  0  0  3  0  0  0  0  0  0
  185.1600  176.8110  146.3760 S   0  0  0  0  0  0  0  0  0  0  0  0
  186.1490  177.2510  143.7470 C   0  0  1  0  0  3  0  0  0  0  0  0
  188.9600  176.8010  145.9830 C   0  0  0  0  0  3  0  0  0  0  0  0
  186.8920  178.4100  143.1010 C   0  0  0  0  0  2  0  0  0  0  0  0
  1  3  2  0  0  0  0
  2  1  1  0  0  0  0
  2 34  1  0  0  0  0
  4  5  2  0  0  0  0
  4  1  1  0  0  0  0
  6  5  1  0  0  0  0
  7  9  1  0  0  0  0
  8  9  1  0  0  0  0
  8 10  2  0  0  0  0
  9  6  2  0  0  0  0
 10  4  1  0  0  0  0
 11  7  1  0  0  0  0
 12 14  1  0  0  0  0
 13 14  2  0  0  0  0
 14 11  1  0  0  0  0
 15 17  1  0  0  0  0
 15 13  1  0  0  0  0
 16 17  1  0  0  0  0
 17 12  2  0  0  0  0
 18  2  1  0  0  0  0
 19 18  1  0  0  0  0
 20 19  1  0  0  0  0
 21 23  1  0  0  0  0
 22 21  2  0  0  0  0
 23 20  1  0  0  0  0
 24 22  1  0  0  0  0
 25 24  2  0  0  0  0
 26 24  1  0  0  0  0
 26 32  1  0  0  0  0
 27 31  1  0  0  0  0
 28 27  1  0  0  0  0
 28 31  1  0  0  0  0
 28 29  1  0  0  0  0
 30 28  1  0  0  0  0
 31 26  1  1  0  0  0
 32 33  2  0  0  0  0
 35 39  1  0  0  0  0
 36 38  2  0  0  0  0
 36 42  1  0  0  0  0
 37 45  1  6  0  0  0
 37 43  1  0  0  0  0
 37 35  1  0  0  0  0
 38 44  2  0  0  0  0
 39 41  1  0  0  0  0
 41 40  1  6  0  0  0
 42 41  1  0  0  0  0
 43 45  1  6  0  0  0
 43 36  1  0  0  0  0
 44 34  1  0  0  0  0
M  END
>  <MODEL>
1

>  <REMARK>
 VINA RESULT:      -7.5      0.000      0.000
  Name = 
  12 active torsions:
  status: ('A' for Active; 'I' for Inactive)
    1  A    between atoms: C_3  and  C_20
    2  A    between atoms: C_5  and  C_7
    3  A    between atoms: C_7  and  N_32
    4  A    between atoms: C_9  and  N_45
    5  A    between atoms: N_11  and  C_38
    6  A    between atoms: C_15  and  C_26
    7  A    between atoms: C_15  and  C_29
    8  A    between atoms: N_17  and  C_29
    9  A    between atoms: C_26  and  N_34
   10  A    between atoms: C_27  and  N_34
   11  A    between atoms: C_27  and  C_41
   12  A    between atoms: C_36  and  N_45
                            x       y       z     vdW  Elec       q    Type
                         _______ _______ _______ _____ _____    ______ ____

>  <TORSDO>
F 12

$$$$
=
 OpenBabel11042418043D

 45 49  0  0  1  0  0  0  0  0999 V2000
  192.1920  176.2170  146.5770 C   0  0  0  0  0  0  0  0  0  0  0  0
  190.8930  175.9140  146.0260 N   0  0  0  0  0  0  0  0  0  0  0  0
  192.2620  176.7740  147.7080 O   0  0  0  0  0  0  0  0  0  0  0  0
  193.4500  175.9040  145.8620 C   0  0  0  0  0  0  0  0  0  0  0  0
  194.1250  174.7050  146.1230 C   0  0  0  0  0  3  0  0  0  0  0  0
  195.2900  174.4160  145.4830 N   0  0  0  0  0  0  0  0  0  0  0  0
  197.0670  174.9070  143.9340 N   0  0  0  0  0  2  0  0  0  0  0  0
  195.2140  176.4870  144.3040 C   0  0  0  0  0  3  0  0  0  0  0  0
  195.8470  175.2700  144.5840 C   0  0  0  0  0  0  0  0  0  0  0  0
  194.0180  176.8010  144.9490 C   0  0  0  0  0  3  0  0  0  0  0  0
  197.7320  175.7600  142.9620 C   0  0  0  0  0  2  0  0  0  0  0  0
  197.6770  175.8920  140.4660 N   0  0  0  0  0  0  0  0  0  0  0  0
  197.3950  173.8430  141.3230 C   0  0  0  0  0  3  0  0  0  0  0  0
  197.5830  175.1780  141.6000 C   0  0  0  0  0  0  0  0  0  0  0  0
  197.3530  173.7080  139.9830 N   0  0  0  0  0  2  0  0  0  0  0  0
  197.5500  175.2760  138.0560 C   0  0  0  0  0  1  0  0  0  0  0  0
  197.5240  174.9580  139.5080 C   0  0  0  0  0  0  0  0  0  0  0  0
  190.6930  174.9070  144.9910 C   0  0  0  0  0  2  0  0  0  0  0  0
  189.6910  173.8630  145.4560 C   0  0  0  0  0  2  0  0  0  0  0  0
  189.9660  172.5380  144.7720 C   0  0  0  0  0  2  0  0  0  0  0  0
  191.2380  172.2790  142.6060 C   0  0  0  0  0  3  0  0  0  0  0  0
  190.1840  171.8440  141.9910 N   0  0  0  0  0  0  0  0  0  0  0  0
  191.1900  172.6260  143.9910 N   0  0  0  0  0  2  0  0  0  0  0  0
  190.1990  171.4860  140.6030 C   0  0  0  0  0  0  0  0  0  0  0  0
  190.9800  170.5820  140.1930 O   0  0  0  0  0  0  0  0  0  0  0  0
  189.3230  172.1550  139.6770 N   0  0  0  0  0  0  0  0  0  0  0  0
  188.9600  172.8750  137.4450 O   0  0  0  0  0  0  0  0  0  0  0  0
  190.3350  172.5980  137.4770 C   0  0  0  0  0  0  0  0  0  0  0  0
  191.0970  173.7590  138.0990 C   0  0  0  0  0  1  0  0  0  0  0  0
  190.8050  172.0460  136.1490 C   0  0  0  0  0  1  0  0  0  0  0  0
  189.3560  171.7840  138.2540 C   0  0  1  0  0  3  0  0  0  0  0  0
  188.3090  173.0290  140.2070 C   0  0  0  0  0  3  0  0  0  0  0  0
  188.5860  174.2080  140.7540 C   0  0  0  0  0  2  0  0  0  0  0  0
  189.7200  176.6300  146.5070 C   0  0  0  0  0  2  0  0  0  0  0  0
  185.1400  178.6290  143.0850 C   0  0  0  0  0  2  0  0  0  0  0  0
  186.6840  176.8560  144.5940 C   0  0  0  0  0  0  0  0  0  0  0  0
  185.4880  177.3090  142.4030 C   0  0  2  0  0  3  0  0  0  0  0  0
  187.8980  177.1270  144.9940 C   0  0  0  0  0  0  0  0  0  0  0  0
  184.0970  178.4490  144.0090 O   0  0  0  0  0  0  0  0  0  0  0  0
  185.4950  179.6330  145.6960 C   0  0  0  0  0  1  0  0  0  0  0  0
  184.6280  178.4300  145.3200 C   0  0  2  0  0  3  0  0  0  0  0  0
  185.3530  176.8180  145.7940 S   0  0  0  0  0  0  0  0  0  0  0  0
  186.4190  176.3760  143.1950 C   0  0  1  0  0  3  0  0  0  0  0  0
  189.1060  177.4030  145.3920 C   0  0  0  0  0  3  0  0  0  0  0  0
  186.9760  177.3110  142.1330 C   0  0  0  0  0  2  0  0  0  0  0  0
  1  3  2  0  0  0  0
  2 34  1  0  0  0  0
  2  1  1  0  0  0  0
  4  5  2  0  0  0  0
  4  1  1  0  0  0  0
  6  5  1  0  0  0  0
  7  9  1  0  0  0  0
  8  9  1  0  0  0  0
  8 10  2  0  0  0  0
  9  6  2  0  0  0  0
 10  4  1  0  0  0  0
 11  7  1  0  0  0  0
 12 14  1  0  0  0  0
 13 14  2  0  0  0  0
 14 11  1  0  0  0  0
 15 13  1  0  0  0  0
 16 17  1  0  0  0  0
 17 15  1  0  0  0  0
 17 12  2  0  0  0  0
 18 19  1  0  0  0  0
 18  2  1  0  0  0  0
 20 19  1  0  0  0  0
 21 23  1  0  0  0  0
 22 21  2  0  0  0  0
 23 20  1  0  0  0  0
 24 22  1  0  0  0  0
 25 24  2  0  0  0  0
 26 32  1  0  0  0  0
 26 24  1  0  0  0  0
 27 28  1  0  0  0  0
 27 31  1  0  0  0  0
 28 29  1  0  0  0  0
 28 31  1  0  0  0  0
 30 28  1  0  0  0  0
 31 26  1  1  0  0  0
 32 33  2  0  0  0  0
 35 39  1  0  0  0  0
 36 38  2  0  0  0  0
 36 42  1  0  0  0  0
 37 45  1  6  0  0  0
 37 35  1  0  0  0  0
 37 43  1  0  0  0  0
 38 44  2  0  0  0  0
 39 41  1  0  0  0  0
 41 40  1  6  0  0  0
 41 42  1  0  0  0  0
 43 45  1  6  0  0  0
 43 36  1  0  0  0  0
 44 34  1  0  0  0  0
M  END
>  <MODEL>
2

>  <REMARK>
 VINA RESULT:      -7.3      1.517      2.106
  Name = 
  12 active torsions:
  status: ('A' for Active; 'I' for Inactive)
    1  A    between atoms: C_3  and  C_20
    2  A    between atoms: C_5  and  C_7
    3  A    between atoms: C_7  and  N_32
    4  A    between atoms: C_9  and  N_45
    5  A    between atoms: N_11  and  C_38
    6  A    between atoms: C_15  and  C_26
    7  A    between atoms: C_15  and  C_29
    8  A    between atoms: N_17  and  C_29
    9  A    between atoms: C_26  and  N_34
   10  A    between atoms: C_27  and  N_34
   11  A    between atoms: C_27  and  C_41
   12  A    between atoms: C_36  and  N_45
                            x       y       z     vdW  Elec       q    Type
                         _______ _______ _______ _____ _____    ______ ____

>  <TORSDO>
F 12

$$$$
=
 OpenBabel11042418043D

 45 49  0  0  1  0  0  0  0  0999 V2000
  192.3340  172.2890  144.2680 C   0  0  0  0  0  0  0  0  0  0  0  0
  192.9330  173.3350  145.0620 N   0  0  0  0  0  0  0  0  0  0  0  0
  192.6970  171.0950  144.4560 O   0  0  0  0  0  0  0  0  0  0  0  0
  191.3090  172.5660  143.2360 C   0  0  0  0  0  0  0  0  0  0  0  0
  190.1430  171.7910  143.1800 C   0  0  0  0  0  3  0  0  0  0  0  0
  189.2040  172.0260  142.2250 N   0  0  0  0  0  0  0  0  0  0  0  0
  188.3300  173.2120  140.3210 N   0  0  0  0  0  2  0  0  0  0  0  0
  190.5140  173.7930  141.3020 C   0  0  0  0  0  3  0  0  0  0  0  0
  189.3570  173.0040  141.2920 C   0  0  0  0  0  0  0  0  0  0  0  0
  191.4890  173.5660  142.2730 C   0  0  0  0  0  3  0  0  0  0  0  0
  188.4130  174.2320  139.2860 C   0  0  0  0  0  2  0  0  0  0  0  0
  189.1640  172.3110  137.8740 N   0  0  0  0  0  0  0  0  0  0  0  0
  189.0320  174.2820  136.8180 C   0  0  0  0  0  3  0  0  0  0  0  0
  188.8830  173.6180  138.0150 C   0  0  0  0  0  0  0  0  0  0  0  0
  189.4300  173.3800  135.9000 N   0  0  0  0  0  2  0  0  0  0  0  0
  189.8990  170.9330  135.9340 C   0  0  0  0  0  1  0  0  0  0  0  0
  189.4980  172.2140  136.5730 C   0  0  0  0  0  0  0  0  0  0  0  0
  192.3030  174.6350  145.2580 C   0  0  0  0  0  2  0  0  0  0  0  0
  192.6670  175.1990  146.6220 C   0  0  0  0  0  2  0  0  0  0  0  0
  191.4420  175.2300  147.5150 C   0  0  0  0  0  2  0  0  0  0  0  0
  190.0740  177.2770  146.9550 C   0  0  0  0  0  3  0  0  0  0  0  0
  189.5220  176.6830  145.9440 N   0  0  0  0  0  0  0  0  0  0  0  0
  191.0430  176.6070  147.7630 N   0  0  0  0  0  2  0  0  0  0  0  0
  188.5470  177.3270  145.1150 C   0  0  0  0  0  0  0  0  0  0  0  0
  187.5020  177.8140  145.6300 O   0  0  0  0  0  0  0  0  0  0  0  0
  188.7610  177.4240  143.6940 N   0  0  0  0  0  0  0  0  0  0  0  0
  187.8100  177.5940  141.5260 O   0  0  0  0  0  0  0  0  0  0  0  0
  186.7480  177.1150  142.3100 C   0  0  0  0  0  0  0  0  0  0  0  0
  186.8760  175.6140  142.5190 C   0  0  0  0  0  1  0  0  0  0  0  0
  185.4280  177.6740  141.8280 C   0  0  0  0  0  1  0  0  0  0  0  0
  187.7480  178.0800  142.8540 C   0  0  1  0  0  3  0  0  0  0  0  0
  190.0470  177.0440  143.1700 C   0  0  0  0  0  3  0  0  0  0  0  0
  191.0880  177.8690  143.1450 C   0  0  0  0  0  2  0  0  0  0  0  0
  194.2210  173.1060  145.7030 C   0  0  0  0  0  2  0  0  0  0  0  0
  197.1430  174.9140  140.7160 C   0  0  0  0  0  2  0  0  0  0  0  0
  195.0030  174.2960  142.4020 C   0  0  0  0  0  0  0  0  0  0  0  0
  196.1020  173.9580  140.1400 C   0  0  2  0  0  3  0  0  0  0  0  0
  195.1470  173.6710  143.5400 C   0  0  0  0  0  0  0  0  0  0  0  0
  196.6780  176.2380  140.6720 O   0  0  0  0  0  0  0  0  0  0  0  0
  197.2940  176.4490  143.0760 C   0  0  0  0  0  1  0  0  0  0  0  0
  196.2590  176.6330  141.9640 C   0  0  2  0  0  3  0  0  0  0  0  0
  194.5850  176.0390  142.4050 S   0  0  0  0  0  0  0  0  0  0  0  0
  194.9770  173.5420  141.1030 C   0  0  1  0  0  3  0  0  0  0  0  0
  195.2960  173.0500  144.6750 C   0  0  0  0  0  3  0  0  0  0  0  0
  196.1990  172.6580  140.9070 C   0  0  0  0  0  2  0  0  0  0  0  0
  1  3  2  0  0  0  0
  1  2  1  0  0  0  0
  2 18  1  0  0  0  0
  2 34  1  0  0  0  0
  4  1  1  0  0  0  0
  5  4  2  0  0  0  0
  6  5  1  0  0  0  0
  7  9  1  0  0  0  0
  8 10  2  0  0  0  0
  9  8  1  0  0  0  0
  9  6  2  0  0  0  0
 10  4  1  0  0  0  0
 11  7  1  0  0  0  0
 12 14  1  0  0  0  0
 13 14  2  0  0  0  0
 14 11  1  0  0  0  0
 15 17  1  0  0  0  0
 15 13  1  0  0  0  0
 16 17  1  0  0  0  0
 17 12  2  0  0  0  0
 18 19  1  0  0  0  0
 19 20  1  0  0  0  0
 20 23  1  0  0  0  0
 21 23  1  0  0  0  0
 22 21  2  0  0  0  0
 24 25  2  0  0  0  0
 24 22  1  0  0  0  0
 26 24  1  0  0  0  0
 27 28  1  0  0  0  0
 27 31  1  0  0  0  0
 28 29  1  0  0  0  0
 28 31  1  0  0  0  0
 30 28  1  0  0  0  0
 31 26  1  1  0  0  0
 32 26  1  0  0  0  0
 33 32  2  0  0  0  0
 36 42  1  0  0  0  0
 36 38  2  0  0  0  0
 37 35  1  1  0  0  0
 37 45  1  0  0  0  0
 37 43  1  0  0  0  0
 38 44  2  0  0  0  0
 39 35  1  0  0  0  0
 39 41  1  0  0  0  0
 41 42  1  0  0  0  0
 41 40  1  1  0  0  0
 43 45  1  1  0  0  0
 43 36  1  0  0  0  0
 44 34  1  0  0  0  0
M  END
>  <MODEL>
3

>  <REMARK>
 VINA RESULT:      -7.2      3.267      8.249
  Name = 
  12 active torsions:
  status: ('A' for Active; 'I' for Inactive)
    1  A    between atoms: C_3  and  C_20
    2  A    between atoms: C_5  and  C_7
    3  A    between atoms: C_7  and  N_32
    4  A    between atoms: C_9  and  N_45
    5  A    between atoms: N_11  and  C_38
    6  A    between atoms: C_15  and  C_26
    7  A    between atoms: C_15  and  C_29
    8  A    between atoms: N_17  and  C_29
    9  A    between atoms: C_26  and  N_34
   10  A    between atoms: C_27  and  N_34
   11  A    between atoms: C_27  and  C_41
   12  A    between atoms: C_36  and  N_45
                            x       y       z     vdW  Elec       q    Type
                         _______ _______ _______ _____ _____    ______ ____

>  <TORSDO>
F 12

$$$$
=
 OpenBabel11042418043D

 45 49  0  0  1  0  0  0  0  0999 V2000
  191.9670  175.4260  146.3480 C   0  0  0  0  0  0  0  0  0  0  0  0
  190.7230  175.2820  145.6300 N   0  0  0  0  0  0  0  0  0  0  0  0
  191.9420  175.4800  147.6100 O   0  0  0  0  0  0  0  0  0  0  0  0
  193.2740  175.5190  145.6600 C   0  0  0  0  0  0  0  0  0  0  0  0
  193.7920  176.7710  145.3050 C   0  0  0  0  0  3  0  0  0  0  0  0
  194.9850  176.8660  144.6580 N   0  0  0  0  0  0  0  0  0  0  0  0
  196.9610  175.9280  143.6540 N   0  0  0  0  0  2  0  0  0  0  0  0
  195.2220  174.4930  144.6440 C   0  0  0  0  0  3  0  0  0  0  0  0
  195.7100  175.7660  144.3230 C   0  0  0  0  0  0  0  0  0  0  0  0
  194.0010  174.3760  145.3090 C   0  0  0  0  0  3  0  0  0  0  0  0
  197.8000  174.8070  143.2560 C   0  0  0  0  0  2  0  0  0  0  0  0
  197.9410  173.4710  141.1480 N   0  0  0  0  0  0  0  0  0  0  0  0
  197.4340  175.6350  140.8780 C   0  0  0  0  0  3  0  0  0  0  0  0
  197.7460  174.6420  141.7780 C   0  0  0  0  0  0  0  0  0  0  0  0
  197.4450  175.0870  139.6480 N   0  0  0  0  0  2  0  0  0  0  0  0
  197.8710  172.8010  138.7510 C   0  0  0  0  0  1  0  0  0  0  0  0
  197.7540  173.7910  139.8540 C   0  0  0  0  0  0  0  0  0  0  0  0
  190.6560  174.7690  144.2670 C   0  0  0  0  0  2  0  0  0  0  0  0
  189.3290  174.0660  144.0310 C   0  0  0  0  0  2  0  0  0  0  0  0
  188.8140  174.3820  142.6400 C   0  0  0  0  0  2  0  0  0  0  0  0
  189.4530  172.3800  141.2410 C   0  0  0  0  0  3  0  0  0  0  0  0
  190.6890  172.7660  141.1780 N   0  0  0  0  0  0  0  0  0  0  0  0
  188.4770  173.1510  141.9440 N   0  0  0  0  0  2  0  0  0  0  0  0
  191.6910  172.0170  140.4800 C   0  0  0  0  0  0  0  0  0  0  0  0
  191.3530  171.1690  139.6080 O   0  0  0  0  0  0  0  0  0  0  0  0
  193.0850  172.2330  140.7710 N   0  0  0  0  0  0  0  0  0  0  0  0
  195.2880  171.3530  140.8200 O   0  0  0  0  0  0  0  0  0  0  0  0
  194.4820  170.2050  140.7840 C   0  0  0  0  0  0  0  0  0  0  0  0
  193.9480  169.8870  142.1730 C   0  0  0  0  0  1  0  0  0  0  0  0
  195.1460  169.1030  139.9890 C   0  0  0  0  0  1  0  0  0  0  0  0
  194.1030  171.4500  140.0540 C   0  0  1  0  0  3  0  0  0  0  0  0
  193.4410  173.3430  141.6160 C   0  0  0  0  0  3  0  0  0  0  0  0
  193.8880  174.4990  141.1390 C   0  0  0  0  0  2  0  0  0  0  0  0
  189.4710  175.6560  146.2720 C   0  0  0  0  0  2  0  0  0  0  0  0
  185.1570  179.5860  144.6520 C   0  0  0  0  0  2  0  0  0  0  0  0
  186.4190  177.1290  145.0710 C   0  0  0  0  0  0  0  0  0  0  0  0
  185.1940  178.6470  143.4490 C   0  0  2  0  0  3  0  0  0  0  0  0
  187.6860  177.0180  145.3700 C   0  0  0  0  0  0  0  0  0  0  0  0
  184.1620  179.1880  145.5600 O   0  0  0  0  0  0  0  0  0  0  0  0
  185.8730  179.3150  147.3650 C   0  0  0  0  0  1  0  0  0  0  0  0
  184.7640  178.5330  146.6600 C   0  0  2  0  0  3  0  0  0  0  0  0
  185.1880  176.7830  146.3270 S   0  0  0  0  0  0  0  0  0  0  0  0
  185.9730  177.3370  143.6510 C   0  0  1  0  0  3  0  0  0  0  0  0
  188.9490  176.9130  145.6690 C   0  0  0  0  0  3  0  0  0  0  0  0
  186.6320  178.5400  142.9940 C   0  0  0  0  0  2  0  0  0  0  0  0
  1  3  2  0  0  0  0
  2 34  1  0  0  0  0
  2  1  1  0  0  0  0
  4  1  1  0  0  0  0
  5  4  2  0  0  0  0
  6  5  1  0  0  0  0
  7  9  1  0  0  0  0
  8 10  2  0  0  0  0
  9  8  1  0  0  0  0
  9  6  2  0  0  0  0
 10  4  1  0  0  0  0
 11  7  1  0  0  0  0
 12 14  1  0  0  0  0
 13 14  2  0  0  0  0
 14 11  1  0  0  0  0
 15 17  1  0  0  0  0
 15 13  1  0  0  0  0
 16 17  1  0  0  0  0
 17 12  2  0  0  0  0
 18  2  1  0  0  0  0
 19 18  1  0  0  0  0
 20 19  1  0  0  0  0
 21 23  1  0  0  0  0
 22 21  2  0  0  0  0
 23 20  1  0  0  0  0
 24 26  1  0  0  0  0
 24 22  1  0  0  0  0
 25 24  2  0  0  0  0
 26 32  1  0  0  0  0
 28 27  1  0  0  0  0
 28 29  1  0  0  0  0
 30 28  1  0  0  0  0
 31 26  1  1  0  0  0
 31 28  1  0  0  0  0
 31 27  1  0  0  0  0
 33 32  2  0  0  0  0
 35 39  1  0  0  0  0
 36 38  2  0  0  0  0
 36 42  1  0  0  0  0
 37 45  1  6  0  0  0
 37 43  1  0  0  0  0
 37 35  1  0  0  0  0
 38 44  2  0  0  0  0
 39 41  1  0  0  0  0
 41 40  1  6  0  0  0
 42 41  1  0  0  0  0
 43 45  1  6  0  0  0
 43 36  1  0  0  0  0
 44 34  1  0  0  0  0
M  END
>  <MODEL>
4

>  <REMARK>
 VINA RESULT:      -7.1      2.078      2.828
  Name = 
  12 active torsions:
  status: ('A' for Active; 'I' for Inactive)
    1  A    between atoms: C_3  and  C_20
    2  A    between atoms: C_5  and  C_7
    3  A    between atoms: C_7  and  N_32
    4  A    between atoms: C_9  and  N_45
    5  A    between atoms: N_11  and  C_38
    6  A    between atoms: C_15  and  C_26
    7  A    between atoms: C_15  and  C_29
    8  A    between atoms: N_17  and  C_29
    9  A    between atoms: C_26  and  N_34
   10  A    between atoms: C_27  and  N_34
   11  A    between atoms: C_27  and  C_41
   12  A    between atoms: C_36  and  N_45
                            x       y       z     vdW  Elec       q    Type
                         _______ _______ _______ _____ _____    ______ ____

>  <TORSDO>
F 12

$$$$
=
 OpenBabel11042418043D

 45 49  0  0  1  0  0  0  0  0999 V2000
  190.3030  176.3110  144.5700 C   0  0  0  0  0  0  0  0  0  0  0  0
  189.9960  176.1970  145.9750 N   0  0  0  0  0  0  0  0  0  0  0  0
  190.3550  177.4580  144.0460 O   0  0  0  0  0  0  0  0  0  0  0  0
  190.5540  175.1290  143.7150 C   0  0  0  0  0  0  0  0  0  0  0  0
  189.4980  174.2750  143.3700 C   0  0  0  0  0  3  0  0  0  0  0  0
  189.7220  173.1770  142.5990 N   0  0  0  0  0  0  0  0  0  0  0  0
  191.1350  171.7000  141.3280 N   0  0  0  0  0  2  0  0  0  0  0  0
  192.0510  173.6770  142.4770 C   0  0  0  0  0  3  0  0  0  0  0  0
  190.9630  172.8600  142.1440 C   0  0  0  0  0  0  0  0  0  0  0  0
  191.8410  174.8070  143.2670 C   0  0  0  0  0  3  0  0  0  0  0  0
  192.4270  171.2850  140.8010 C   0  0  0  0  0  2  0  0  0  0  0  0
  191.2240  170.7580  138.6740 N   0  0  0  0  0  0  0  0  0  0  0  0
  193.3520  171.4130  138.4330 C   0  0  0  0  0  3  0  0  0  0  0  0
  192.3390  171.1340  139.3230 C   0  0  0  0  0  0  0  0  0  0  0  0
  192.8740  171.1960  137.1930 N   0  0  0  0  0  2  0  0  0  0  0  0
  190.6830  170.4610  136.2610 C   0  0  0  0  0  1  0  0  0  0  0  0
  191.5980  170.8040  137.3810 C   0  0  0  0  0  0  0  0  0  0  0  0
  190.3430  175.0210  146.7640 C   0  0  0  0  0  2  0  0  0  0  0  0
  191.5370  175.3150  147.6570 C   0  0  0  0  0  2  0  0  0  0  0  0
  192.8260  175.1260  146.8800 C   0  0  0  0  0  2  0  0  0  0  0  0
  194.4120  176.5800  145.5600 C   0  0  0  0  0  3  0  0  0  0  0  0
  194.8580  175.5620  144.8940 N   0  0  0  0  0  0  0  0  0  0  0  0
  193.4120  176.4200  146.5680 N   0  0  0  0  0  2  0  0  0  0  0  0
  195.8610  175.6900  143.8780 C   0  0  0  0  0  0  0  0  0  0  0  0
  196.4290  176.8020  143.6890 O   0  0  0  0  0  0  0  0  0  0  0  0
  196.2230  174.5510  143.0760 N   0  0  0  0  0  0  0  0  0  0  0  0
  197.0600  173.7400  141.0090 O   0  0  0  0  0  0  0  0  0  0  0  0
  196.6610  175.0510  140.7060 C   0  0  0  0  0  0  0  0  0  0  0  0
  195.1590  175.1110  140.4750 C   0  0  0  0  0  1  0  0  0  0  0  0
  197.5820  175.6700  139.6770 C   0  0  0  0  0  1  0  0  0  0  0  0
  197.2480  174.6990  142.0310 C   0  0  1  0  0  3  0  0  0  0  0  0
  195.7080  173.2600  143.4520 C   0  0  0  0  0  3  0  0  0  0  0  0
  196.4750  172.2890  143.9360 C   0  0  0  0  0  2  0  0  0  0  0  0
  189.3150  177.2890  146.6560 C   0  0  0  0  0  2  0  0  0  0  0  0
  184.1560  178.0020  143.5640 C   0  0  0  0  0  2  0  0  0  0  0  0
  186.6840  178.6040  144.5880 C   0  0  0  0  0  0  0  0  0  0  0  0
  184.2740  179.3390  144.2900 C   0  0  2  0  0  3  0  0  0  0  0  0
  187.2680  177.8940  145.5170 C   0  0  0  0  0  0  0  0  0  0  0  0
  184.6990  178.0900  142.2720 O   0  0  0  0  0  0  0  0  0  0  0  0
  186.0160  176.0360  142.7730 C   0  0  0  0  0  1  0  0  0  0  0  0
  185.9730  177.4740  142.2540 C   0  0  2  0  0  3  0  0  0  0  0  0
  187.3100  178.5390  142.9100 S   0  0  0  0  0  0  0  0  0  0  0  0
  185.6380  179.6260  144.9370 C   0  0  1  0  0  3  0  0  0  0  0  0
  187.8460  177.1820  146.4400 C   0  0  0  0  0  3  0  0  0  0  0  0
  184.4960  179.0470  145.7570 C   0  0  0  0  0  2  0  0  0  0  0  0
  1  2  1  0  0  0  0
  2 34  1  0  0  0  0
  2 18  1  0  0  0  0
  3  1  2  0  0  0  0
  4  1  1  0  0  0  0
  5  4  2  0  0  0  0
  6  5  1  0  0  0  0
  7  9  1  0  0  0  0
  8 10  2  0  0  0  0
  9  8  1  0  0  0  0
  9  6  2  0  0  0  0
 10  4  1  0  0  0  0
 11  7  1  0  0  0  0
 12 14  1  0  0  0  0
 13 14  2  0  0  0  0
 14 11  1  0  0  0  0
 15 17  1  0  0  0  0
 15 13  1  0  0  0  0
 16 17  1  0  0  0  0
 17 12  2  0  0  0  0
 18 19  1  0  0  0  0
 20 19  1  0  0  0  0
 21 23  1  0  0  0  0
 22 21  2  0  0  0  0
 23 20  1  0  0  0  0
 24 22  1  0  0  0  0
 25 24  2  0  0  0  0
 26 32  1  0  0  0  0
 26 24  1  0  0  0  0
 27 31  1  0  0  0  0
 28 27  1  0  0  0  0
 28 31  1  0  0  0  0
 29 28  1  0  0  0  0
 30 28  1  0  0  0  0
 31 26  1  1  0  0  0
 32 33  2  0  0  0  0
 36 43  1  0  0  0  0
 36 38  2  0  0  0  0
 37 35  1  6  0  0  0
 37 43  1  0  0  0  0
 37 45  1  0  0  0  0
 38 44  2  0  0  0  0
 39 35  1  0  0  0  0
 41 39  1  0  0  0  0
 41 40  1  1  0  0  0
 41 42  1  0  0  0  0
 42 36  1  0  0  0  0
 43 45  1  1  0  0  0
 44 34  1  0  0  0  0
M  END
>  <MODEL>
5

>  <REMARK>
 VINA RESULT:      -7.0      2.528      5.878
  Name = 
  12 active torsions:
  status: ('A' for Active; 'I' for Inactive)
    1  A    between atoms: C_3  and  C_20
    2  A    between atoms: C_5  and  C_7
    3  A    between atoms: C_7  and  N_32
    4  A    between atoms: C_9  and  N_45
    5  A    between atoms: N_11  and  C_38
    6  A    between atoms: C_15  and  C_26
    7  A    between atoms: C_15  and  C_29
    8  A    between atoms: N_17  and  C_29
    9  A    between atoms: C_26  and  N_34
   10  A    between atoms: C_27  and  N_34
   11  A    between atoms: C_27  and  C_41
   12  A    between atoms: C_36  and  N_45
                            x       y       z     vdW  Elec       q    Type
                         _______ _______ _______ _____ _____    ______ ____

>  <TORSDO>
F 12

$$$$
=
 OpenBabel11042418043D

 45 49  0  0  1  0  0  0  0  0999 V2000
  191.9130  176.4670  143.6360 C   0  0  0  0  0  0  0  0  0  0  0  0
  190.6520  176.0110  144.1690 N   0  0  0  0  0  0  0  0  0  0  0  0
  191.9140  177.3820  142.7660 O   0  0  0  0  0  0  0  0  0  0  0  0
  193.2090  175.8960  144.0670 C   0  0  0  0  0  0  0  0  0  0  0  0
  193.7740  176.2830  145.2890 C   0  0  0  0  0  3  0  0  0  0  0  0
  194.9720  175.7770  145.6870 N   0  0  0  0  0  0  0  0  0  0  0  0
  196.9170  174.3880  145.3970 N   0  0  0  0  0  2  0  0  0  0  0  0
  195.1480  174.4920  143.6860 C   0  0  0  0  0  3  0  0  0  0  0  0
  195.6680  174.8940  144.9220 C   0  0  0  0  0  0  0  0  0  0  0  0
  193.9200  174.9990  143.2610 C   0  0  0  0  0  3  0  0  0  0  0  0
  197.7280  173.4430  144.6440 C   0  0  0  0  0  2  0  0  0  0  0  0
  196.8210  171.6390  146.1160 N   0  0  0  0  0  0  0  0  0  0  0  0
  197.1740  171.0480  143.9850 C   0  0  0  0  0  3  0  0  0  0  0  0
  197.2650  172.0560  144.9190 C   0  0  0  0  0  0  0  0  0  0  0  0
  196.6740  169.9630  144.6070 N   0  0  0  0  0  2  0  0  0  0  0  0
  195.9240  169.4620  146.9300 C   0  0  0  0  0  1  0  0  0  0  0  0
  196.4780  170.3580  145.8810 C   0  0  0  0  0  0  0  0  0  0  0  0
  190.5410  175.3200  145.4480 C   0  0  0  0  0  2  0  0  0  0  0  0
  189.6420  174.1020  145.3160 C   0  0  0  0  0  2  0  0  0  0  0  0
  190.3800  172.9850  144.6040 C   0  0  0  0  0  2  0  0  0  0  0  0
  189.1450  172.0910  142.5910 C   0  0  0  0  0  3  0  0  0  0  0  0
  189.7180  172.9490  141.8060 N   0  0  0  0  0  0  0  0  0  0  0  0
  189.4270  172.0720  143.9920 N   0  0  0  0  0  2  0  0  0  0  0  0
  189.4550  172.9940  140.3980 C   0  0  0  0  0  0  0  0  0  0  0  0
  188.2670  173.0790  139.9800 O   0  0  0  0  0  0  0  0  0  0  0  0
  190.5470  172.9460  139.4600 N   0  0  0  0  0  0  0  0  0  0  0  0
  191.2960  172.3490  137.2890 O   0  0  0  0  0  0  0  0  0  0  0  0
  190.1050  171.6200  137.4330 C   0  0  0  0  0  0  0  0  0  0  0  0
  190.3500  170.3580  138.2460 C   0  0  0  0  0  1  0  0  0  0  0  0
  189.3790  171.5070  136.1110 C   0  0  0  0  0  1  0  0  0  0  0  0
  190.2620  172.9840  138.0180 C   0  0  1  0  0  3  0  0  0  0  0  0
  191.8890  173.0550  139.9690 C   0  0  0  0  0  3  0  0  0  0  0  0
  192.6310  174.1470  139.8200 C   0  0  0  0  0  2  0  0  0  0  0  0
  189.4250  176.2400  143.4180 C   0  0  0  0  0  2  0  0  0  0  0  0
  185.2850  179.6160  146.2720 C   0  0  0  0  0  2  0  0  0  0  0  0
  186.3440  177.5260  144.7500 C   0  0  0  0  0  0  0  0  0  0  0  0
  184.6190  179.3800  144.9200 C   0  0  2  0  0  3  0  0  0  0  0  0
  187.5700  177.5180  144.3000 C   0  0  0  0  0  0  0  0  0  0  0  0
  184.8530  178.6640  147.2100 O   0  0  0  0  0  0  0  0  0  0  0  0
  187.2450  178.2330  147.7540 C   0  0  0  0  0  1  0  0  0  0  0  0
  185.8620  177.6890  147.3910 C   0  0  2  0  0  3  0  0  0  0  0  0
  185.8890  176.4130  146.0790 S   0  0  0  0  0  0  0  0  0  0  0  0
  185.2640  178.2950  144.0420 C   0  0  1  0  0  3  0  0  0  0  0  0
  188.7940  177.5150  143.8570 C   0  0  0  0  0  3  0  0  0  0  0  0
  185.6120  179.7610  143.8460 C   0  0  0  0  0  2  0  0  0  0  0  0
  1  4  1  0  0  0  0
  1  2  1  0  0  0  0
  2 18  1  0  0  0  0
  3  1  2  0  0  0  0
  4  5  2  0  0  0  0
  5  6  1  0  0  0  0
  8  9  1  0  0  0  0
  9  7  1  0  0  0  0
  9  6  2  0  0  0  0
 10  8  2  0  0  0  0
 10  4  1  0  0  0  0
 11 14  1  0  0  0  0
 11  7  1  0  0  0  0
 13 15  1  0  0  0  0
 13 14  2  0  0  0  0
 14 12  1  0  0  0  0
 15 17  1  0  0  0  0
 17 12  2  0  0  0  0
 17 16  1  0  0  0  0
 19 18  1  0  0  0  0
 20 19  1  0  0  0  0
 21 23  1  0  0  0  0
 22 21  2  0  0  0  0
 23 20  1  0  0  0  0
 24 22  1  0  0  0  0
 25 24  2  0  0  0  0
 26 32  1  0  0  0  0
 26 24  1  0  0  0  0
 27 28  1  0  0  0  0
 27 31  1  0  0  0  0
 28 31  1  0  0  0  0
 28 29  1  0  0  0  0
 30 28  1  0  0  0  0
 31 26  1  1  0  0  0
 33 32  2  0  0  0  0
 34 44  1  0  0  0  0
 34  2  1  0  0  0  0
 35 39  1  0  0  0  0
 36 42  1  0  0  0  0
 37 45  1  6  0  0  0
 37 35  1  0  0  0  0
 38 36  2  0  0  0  0
 39 41  1  0  0  0  0
 41 40  1  6  0  0  0
 42 41  1  0  0  0  0
 43 45  1  6  0  0  0
 43 36  1  0  0  0  0
 43 37  1  0  0  0  0
 44 38  2  0  0  0  0
M  END
>  <MODEL>
6

>  <REMARK>
 VINA RESULT:      -7.0      2.401      3.106
  Name = 
  12 active torsions:
  status: ('A' for Active; 'I' for Inactive)
    1  A    between atoms: C_3  and  C_20
    2  A    between atoms: C_5  and  C_7
    3  A    between atoms: C_7  and  N_32
    4  A    between atoms: C_9  and  N_45
    5  A    between atoms: N_11  and  C_38
    6  A    between atoms: C_15  and  C_26
    7  A    between atoms: C_15  and  C_29
    8  A    between atoms: N_17  and  C_29
    9  A    between atoms: C_26  and  N_34
   10  A    between atoms: C_27  and  N_34
   11  A    between atoms: C_27  and  C_41
   12  A    between atoms: C_36  and  N_45
                            x       y       z     vdW  Elec       q    Type
                         _______ _______ _______ _____ _____    ______ ____

>  <TORSDO>
F 12

$$$$
=
 OpenBabel11042418043D

 45 49  0  0  1  0  0  0  0  0999 V2000
  191.6750  174.8310  145.9900 C   0  0  0  0  0  0  0  0  0  0  0  0
  191.7940  173.7910  144.9970 N   0  0  0  0  0  0  0  0  0  0  0  0
  192.7100  175.2090  146.6070 O   0  0  0  0  0  0  0  0  0  0  0  0
  190.3810  175.4720  146.3150 C   0  0  0  0  0  0  0  0  0  0  0  0
  189.3700  174.7320  146.9420 C   0  0  0  0  0  3  0  0  0  0  0  0
  188.1720  175.3080  147.2300 N   0  0  0  0  0  0  0  0  0  0  0  0
  186.6300  177.1570  147.2570 N   0  0  0  0  0  2  0  0  0  0  0  0
  188.8800  177.3760  146.2780 C   0  0  0  0  0  3  0  0  0  0  0  0
  187.9040  176.6040  146.9190 C   0  0  0  0  0  0  0  0  0  0  0  0
  190.1150  176.8040  145.9740 C   0  0  0  0  0  3  0  0  0  0  0  0
  186.2590  178.5320  146.9590 C   0  0  0  0  0  2  0  0  0  0  0  0
  185.8300  178.0880  144.5360 N   0  0  0  0  0  0  0  0  0  0  0  0
  184.1350  179.0360  145.6510 C   0  0  0  0  0  3  0  0  0  0  0  0
  185.4270  178.5690  145.7250 C   0  0  0  0  0  0  0  0  0  0  0  0
  183.7110  178.8620  144.3840 N   0  0  0  0  0  2  0  0  0  0  0  0
  184.7240  177.9180  142.3110 C   0  0  0  0  0  1  0  0  0  0  0  0
  184.7560  178.2930  143.7500 C   0  0  0  0  0  0  0  0  0  0  0  0
  190.8100  173.5950  143.9390 C   0  0  0  0  0  2  0  0  0  0  0  0
  190.0250  172.3160  144.1760 C   0  0  0  0  0  2  0  0  0  0  0  0
  189.5060  171.7730  142.8590 C   0  0  0  0  0  2  0  0  0  0  0  0
  190.8500  170.7990  140.9560 C   0  0  0  0  0  3  0  0  0  0  0  0
  190.3870  171.6770  140.1240 N   0  0  0  0  0  0  0  0  0  0  0  0
  190.4370  170.7920  142.3240 N   0  0  0  0  0  2  0  0  0  0  0  0
  190.7810  171.7100  138.7460 C   0  0  0  0  0  0  0  0  0  0  0  0
  191.4490  170.7550  138.2580 O   0  0  0  0  0  0  0  0  0  0  0  0
  190.4120  172.8280  137.9180 N   0  0  0  0  0  0  0  0  0  0  0  0
  190.8240  174.1760  136.0090 O   0  0  0  0  0  0  0  0  0  0  0  0
  192.0850  173.6340  136.3010 C   0  0  0  0  0  0  0  0  0  0  0  0
  192.7500  174.4100  137.4270 C   0  0  0  0  0  1  0  0  0  0  0  0
  192.8670  173.3750  135.0320 C   0  0  0  0  0  1  0  0  0  0  0  0
  190.8310  172.8520  136.5080 C   0  0  1  0  0  3  0  0  0  0  0  0
  189.4840  173.7920  138.4480 C   0  0  0  0  0  3  0  0  0  0  0  0
  188.1910  173.7930  138.1430 C   0  0  0  0  0  2  0  0  0  0  0  0
  192.9350  172.8860  145.0330 C   0  0  0  0  0  2  0  0  0  0  0  0
  196.6980  175.7920  141.2820 C   0  0  0  0  0  2  0  0  0  0  0  0
  194.6020  175.4080  143.0880 C   0  0  0  0  0  0  0  0  0  0  0  0
  195.3390  176.3300  140.8420 C   0  0  2  0  0  3  0  0  0  0  0  0
  194.1710  174.2280  143.4430 C   0  0  0  0  0  0  0  0  0  0  0  0
  197.2940  176.6570  142.2140 O   0  0  0  0  0  0  0  0  0  0  0  0
  197.6760  174.6790  143.6800 C   0  0  0  0  0  1  0  0  0  0  0  0
  197.1630  176.1100  143.5130 C   0  0  2  0  0  3  0  0  0  0  0  0
  195.5190  176.4000  144.2660 S   0  0  0  0  0  0  0  0  0  0  0  0
  194.1670  176.0330  141.7910 C   0  0  1  0  0  3  0  0  0  0  0  0
  193.7480  173.0480  143.7970 C   0  0  0  0  0  3  0  0  0  0  0  0
  194.4370  175.1440  140.5870 C   0  0  0  0  0  2  0  0  0  0  0  0
  1  4  1  0  0  0  0
  1  3  2  0  0  0  0
  2 34  1  0  0  0  0
  2  1  1  0  0  0  0
  4  5  2  0  0  0  0
  5  6  1  0  0  0  0
  8  9  1  0  0  0  0
  9  6  2  0  0  0  0
  9  7  1  0  0  0  0
 10  8  2  0  0  0  0
 10  4  1  0  0  0  0
 11  7  1  0  0  0  0
 12 14  1  0  0  0  0
 13 14  2  0  0  0  0
 14 11  1  0  0  0  0
 15 13  1  0  0  0  0
 16 17  1  0  0  0  0
 17 15  1  0  0  0  0
 17 12  2  0  0  0  0
 18 19  1  0  0  0  0
 18  2  1  0  0  0  0
 20 19  1  0  0  0  0
 21 23  1  0  0  0  0
 22 21  2  0  0  0  0
 23 20  1  0  0  0  0
 24 22  1  0  0  0  0
 25 24  2  0  0  0  0
 26 32  1  0  0  0  0
 26 24  1  0  0  0  0
 27 28  1  0  0  0  0
 27 31  1  0  0  0  0
 28 31  1  0  0  0  0
 28 29  1  0  0  0  0
 30 28  1  0  0  0  0
 31 26  1  1  0  0  0
 33 32  2  0  0  0  0
 35 39  1  0  0  0  0
 36 38  2  0  0  0  0
 36 42  1  0  0  0  0
 37 45  1  6  0  0  0
 37 35  1  0  0  0  0
 37 43  1  0  0  0  0
 38 44  2  0  0  0  0
 39 41  1  0  0  0  0
 41 40  1  6  0  0  0
 41 42  1  0  0  0  0
 43 45  1  6  0  0  0
 43 36  1  0  0  0  0
 44 34  1  0  0  0  0
M  END
>  <MODEL>
7

>  <REMARK>
 VINA RESULT:      -7.0      3.234      8.086
  Name = 
  12 active torsions:
  status: ('A' for Active; 'I' for Inactive)
    1  A    between atoms: C_3  and  C_20
    2  A    between atoms: C_5  and  C_7
    3  A    between atoms: C_7  and  N_32
    4  A    between atoms: C_9  and  N_45
    5  A    between atoms: N_11  and  C_38
    6  A    between atoms: C_15  and  C_26
    7  A    between atoms: C_15  and  C_29
    8  A    between atoms: N_17  and  C_29
    9  A    between atoms: C_26  and  N_34
   10  A    between atoms: C_27  and  N_34
   11  A    between atoms: C_27  and  C_41
   12  A    between atoms: C_36  and  N_45
                            x       y       z     vdW  Elec       q    Type
                         _______ _______ _______ _____ _____    ______ ____

>  <TORSDO>
F 12

$$$$
=
 OpenBabel11042418043D

 45 49  0  0  1  0  0  0  0  0999 V2000
  189.0870  174.1700  141.1300 C   0  0  0  0  0  0  0  0  0  0  0  0
  188.9210  175.4910  141.6860 N   0  0  0  0  0  0  0  0  0  0  0  0
  188.3590  173.8190  140.1600 O   0  0  0  0  0  0  0  0  0  0  0  0
  190.0780  173.2060  141.6580 C   0  0  0  0  0  0  0  0  0  0  0  0
  191.2310  172.9100  140.9200 C   0  0  0  0  0  3  0  0  0  0  0  0
  192.1390  172.0130  141.3890 N   0  0  0  0  0  0  0  0  0  0  0  0
  192.9600  170.4440  143.0200 N   0  0  0  0  0  2  0  0  0  0  0  0
  190.8200  171.6210  143.3360 C   0  0  0  0  0  3  0  0  0  0  0  0
  191.9650  171.3670  142.5730 C   0  0  0  0  0  0  0  0  0  0  0  0
  189.8770  172.5380  142.8720 C   0  0  0  0  0  3  0  0  0  0  0  0
  192.8540  169.7070  144.2710 C   0  0  0  0  0  2  0  0  0  0  0  0
  194.5150  169.3390  146.1010 N   0  0  0  0  0  0  0  0  0  0  0  0
  195.3160  169.1160  144.0220 C   0  0  0  0  0  3  0  0  0  0  0  0
  194.2150  169.4110  144.7940 C   0  0  0  0  0  0  0  0  0  0  0  0
  196.3430  168.8650  144.8580 N   0  0  0  0  0  2  0  0  0  0  0  0
  196.6150  168.8170  147.3350 C   0  0  0  0  0  1  0  0  0  0  0  0
  195.8210  169.0100  146.0930 C   0  0  0  0  0  0  0  0  0  0  0  0
  189.9600  176.1540  142.4660 C   0  0  0  0  0  2  0  0  0  0  0  0
  189.7830  177.6620  142.4100 C   0  0  0  0  0  2  0  0  0  0  0  0
  190.3290  178.2970  143.6730 C   0  0  0  0  0  2  0  0  0  0  0  0
  191.5800  176.7290  145.2070 C   0  0  0  0  0  3  0  0  0  0  0  0
  192.7150  177.0340  144.6620 N   0  0  0  0  0  0  0  0  0  0  0  0
  190.3610  177.3170  144.7480 N   0  0  0  0  0  2  0  0  0  0  0  0
  193.9540  176.4610  145.0980 C   0  0  0  0  0  0  0  0  0  0  0  0
  194.4700  176.8310  146.1900 O   0  0  0  0  0  0  0  0  0  0  0  0
  194.6090  175.4620  144.2950 N   0  0  0  0  0  0  0  0  0  0  0  0
  195.8580  174.6640  146.1480 O   0  0  0  0  0  0  0  0  0  0  0  0
  195.7190  173.5270  145.3370 C   0  0  0  0  0  0  0  0  0  0  0  0
  194.3510  172.8940  145.5390 C   0  0  0  0  0  1  0  0  0  0  0  0
  196.9490  172.6500  145.4220 C   0  0  0  0  0  1  0  0  0  0  0  0
  195.8850  174.8890  144.7510 C   0  0  1  0  0  3  0  0  0  0  0  0
  193.8970  174.9200  143.1670 C   0  0  0  0  0  3  0  0  0  0  0  0
  194.4730  174.6930  141.9910 C   0  0  0  0  0  2  0  0  0  0  0  0
  187.6740  176.2130  141.4730 C   0  0  0  0  0  2  0  0  0  0  0  0
  184.3430  178.0750  146.1760 C   0  0  0  0  0  2  0  0  0  0  0  0
  186.4850  177.9520  144.3860 C   0  0  0  0  0  0  0  0  0  0  0  0
  185.7250  177.9330  146.8080 C   0  0  2  0  0  3  0  0  0  0  0  0
  186.6340  176.9900  143.5150 C   0  0  0  0  0  0  0  0  0  0  0  0
  184.1210  179.3990  145.7620 O   0  0  0  0  0  0  0  0  0  0  0  0
  183.4320  178.5030  143.5430 C   0  0  0  0  0  1  0  0  0  0  0  0
  184.2750  179.4840  144.3580 C   0  0  2  0  0  3  0  0  0  0  0  0
  186.0210  179.5870  143.8180 S   0  0  0  0  0  0  0  0  0  0  0  0
  186.8930  177.7670  145.8210 C   0  0  1  0  0  3  0  0  0  0  0  0
  186.7770  176.0300  142.6470 C   0  0  0  0  0  3  0  0  0  0  0  0
  186.2450  176.5540  146.4700 C   0  0  0  0  0  2  0  0  0  0  0  0
  1  4  1  0  0  0  0
  1  2  1  0  0  0  0
  2 18  1  0  0  0  0
  3  1  2  0  0  0  0
  4 10  1  0  0  0  0
  5  6  1  0  0  0  0
  5  4  2  0  0  0  0
  6  9  2  0  0  0  0
  7 11  1  0  0  0  0
  9  7  1  0  0  0  0
  9  8  1  0  0  0  0
 10  8  2  0  0  0  0
 11 14  1  0  0  0  0
 13 14  2  0  0  0  0
 13 15  1  0  0  0  0
 14 12  1  0  0  0  0
 15 17  1  0  0  0  0
 17 12  2  0  0  0  0
 17 16  1  0  0  0  0
 19 18  1  0  0  0  0
 19 20  1  0  0  0  0
 20 23  1  0  0  0  0
 22 24  1  0  0  0  0
 22 21  2  0  0  0  0
 23 21  1  0  0  0  0
 24 25  2  0  0  0  0
 26 24  1  0  0  0  0
 28 30  1  0  0  0  0
 28 29  1  0  0  0  0
 28 27  1  0  0  0  0
 31 26  1  1  0  0  0
 31 28  1  0  0  0  0
 31 27  1  0  0  0  0
 32 26  1  0  0  0  0
 33 32  2  0  0  0  0
 34  2  1  0  0  0  0
 34 44  1  0  0  0  0
 36 43  1  0  0  0  0
 37 35  1  6  0  0  0
 38 36  2  0  0  0  0
 39 35  1  0  0  0  0
 41 40  1  6  0  0  0
 41 39  1  0  0  0  0
 42 41  1  0  0  0  0
 42 36  1  0  0  0  0
 43 45  1  6  0  0  0
 43 37  1  0  0  0  0
 44 38  2  0  0  0  0
 45 37  1  0  0  0  0
M  END
>  <MODEL>
8

>  <REMARK>
 VINA RESULT:      -7.0      3.201      6.692
  Name = 
  12 active torsions:
  status: ('A' for Active; 'I' for Inactive)
    1  A    between atoms: C_3  and  C_20
    2  A    between atoms: C_5  and  C_7
    3  A    between atoms: C_7  and  N_32
    4  A    between atoms: C_9  and  N_45
    5  A    between atoms: N_11  and  C_38
    6  A    between atoms: C_15  and  C_26
    7  A    between atoms: C_15  and  C_29
    8  A    between atoms: N_17  and  C_29
    9  A    between atoms: C_26  and  N_34
   10  A    between atoms: C_27  and  N_34
   11  A    between atoms: C_27  and  C_41
   12  A    between atoms: C_36  and  N_45
                            x       y       z     vdW  Elec       q    Type
                         _______ _______ _______ _____ _____    ______ ____

>  <TORSDO>
F 12

$$$$
=
 OpenBabel11042418043D

 45 49  0  0  1  0  0  0  0  0999 V2000
  190.4930  176.4570  145.7990 C   0  0  0  0  0  0  0  0  0  0  0  0
  191.0920  175.1700  145.5370 N   0  0  0  0  0  0  0  0  0  0  0  0
  190.9880  177.1910  146.6990 O   0  0  0  0  0  0  0  0  0  0  0  0
  189.3120  176.9480  145.0520 C   0  0  0  0  0  0  0  0  0  0  0  0
  189.4630  177.4540  143.7550 C   0  0  0  0  0  3  0  0  0  0  0  0
  188.3880  177.9220  143.0670 N   0  0  0  0  0  0  0  0  0  0  0  0
  186.0450  178.4250  142.8310 N   0  0  0  0  0  2  0  0  0  0  0  0
  186.9440  177.4480  144.9060 C   0  0  0  0  0  3  0  0  0  0  0  0
  187.1390  177.9300  143.6060 C   0  0  0  0  0  0  0  0  0  0  0  0
  188.0350  176.9630  145.6270 C   0  0  0  0  0  3  0  0  0  0  0  0
  184.6780  178.4720  143.3290 C   0  0  0  0  0  2  0  0  0  0  0  0
  182.3900  178.3840  142.3250 N   0  0  0  0  0  0  0  0  0  0  0  0
  184.0830  178.2800  140.8620 C   0  0  0  0  0  3  0  0  0  0  0  0
  183.7270  178.3600  142.1900 C   0  0  0  0  0  0  0  0  0  0  0  0
  182.9470  178.2380  140.1390 N   0  0  0  0  0  2  0  0  0  0  0  0
  180.5160  178.2890  140.6870 C   0  0  0  0  0  1  0  0  0  0  0  0
  181.9570  178.3010  141.0520 C   0  0  0  0  0  0  0  0  0  0  0  0
  190.9130  174.4590  144.2770 C   0  0  0  0  0  2  0  0  0  0  0  0
  190.0220  173.2440  144.4770 C   0  0  0  0  0  2  0  0  0  0  0  0
  189.3150  172.8980  143.1810 C   0  0  0  0  0  2  0  0  0  0  0  0
  188.6650  174.3210  141.1990 C   0  0  0  0  0  3  0  0  0  0  0  0
  189.1790  173.4710  140.3670 N   0  0  0  0  0  0  0  0  0  0  0  0
  188.7150  174.0930  142.6090 N   0  0  0  0  0  2  0  0  0  0  0  0
  189.1450  173.6710  138.9490 C   0  0  0  0  0  0  0  0  0  0  0  0
  188.1240  174.1790  138.4070 O   0  0  0  0  0  0  0  0  0  0  0  0
  190.2770  173.2970  138.1410 N   0  0  0  0  0  0  0  0  0  0  0  0
  191.1890  172.6920  136.0350 O   0  0  0  0  0  0  0  0  0  0  0  0
  189.8580  172.2540  135.9510 C   0  0  0  0  0  0  0  0  0  0  0  0
  189.6920  170.9170  136.6570 C   0  0  0  0  0  1  0  0  0  0  0  0
  189.3290  172.4050  134.5420 C   0  0  0  0  0  1  0  0  0  0  0  0
  190.2260  173.4990  136.6850 C   0  0  1  0  0  3  0  0  0  0  0  0
  191.4940  172.9140  138.8090 C   0  0  0  0  0  3  0  0  0  0  0  0
  192.5250  173.7390  138.9590 C   0  0  0  0  0  2  0  0  0  0  0  0
  191.9150  174.5360  146.5580 C   0  0  0  0  0  2  0  0  0  0  0  0
  197.3200  174.5240  143.8250 C   0  0  0  0  0  2  0  0  0  0  0  0
  194.9130  173.5380  144.8430 C   0  0  0  0  0  0  0  0  0  0  0  0
  197.4400  173.3270  144.7640 C   0  0  2  0  0  3  0  0  0  0  0  0
  194.1230  174.2350  145.6150 C   0  0  0  0  0  0  0  0  0  0  0  0
  196.9060  174.1130  142.5480 O   0  0  0  0  0  0  0  0  0  0  0  0
  195.1430  175.8700  142.6430 C   0  0  0  0  0  1  0  0  0  0  0  0
  195.5340  174.4150  142.3780 C   0  0  2  0  0  3  0  0  0  0  0  0
  194.4140  173.1940  143.1560 S   0  0  0  0  0  0  0  0  0  0  0  0
  196.1260  172.8460  145.4000 C   0  0  1  0  0  3  0  0  0  0  0  0
  193.3380  174.9360  146.3810 C   0  0  0  0  0  3  0  0  0  0  0  0
  197.0530  173.7890  146.1500 C   0  0  0  0  0  2  0  0  0  0  0  0
  1  3  2  0  0  0  0
  2  1  1  0  0  0  0
  2 34  1  0  0  0  0
  4 10  1  0  0  0  0
  4  1  1  0  0  0  0
  5  4  2  0  0  0  0
  6  9  2  0  0  0  0
  6  5  1  0  0  0  0
  7 11  1  0  0  0  0
  7  9  1  0  0  0  0
  8 10  2  0  0  0  0
  9  8  1  0  0  0  0
 13 14  2  0  0  0  0
 14 12  1  0  0  0  0
 14 11  1  0  0  0  0
 15 13  1  0  0  0  0
 15 17  1  0  0  0  0
 16 17  1  0  0  0  0
 17 12  2  0  0  0  0
 18 19  1  0  0  0  0
 18  2  1  0  0  0  0
 20 19  1  0  0  0  0
 21 23  1  0  0  0  0
 22 21  2  0  0  0  0
 23 20  1  0  0  0  0
 24 22  1  0  0  0  0
 25 24  2  0  0  0  0
 26 32  1  0  0  0  0
 26 24  1  0  0  0  0
 27 31  1  0  0  0  0
 28 27  1  0  0  0  0
 28 29  1  0  0  0  0
 28 31  1  0  0  0  0
 30 28  1  0  0  0  0
 31 26  1  1  0  0  0
 32 33  2  0  0  0  0
 36 43  1  0  0  0  0
 36 38  2  0  0  0  0
 37 35  1  6  0  0  0
 37 43  1  0  0  0  0
 37 45  1  0  0  0  0
 38 44  2  0  0  0  0
 39 35  1  0  0  0  0
 41 39  1  0  0  0  0
 41 40  1  1  0  0  0
 41 42  1  0  0  0  0
 42 36  1  0  0  0  0
 43 45  1  1  0  0  0
 44 34  1  0  0  0  0
M  END
>  <MODEL>
9

>  <REMARK>
 VINA RESULT:      -7.0      3.055      8.443
  Name = 
  12 active torsions:
  status: ('A' for Active; 'I' for Inactive)
    1  A    between atoms: C_3  and  C_20
    2  A    between atoms: C_5  and  C_7
    3  A    between atoms: C_7  and  N_32
    4  A    between atoms: C_9  and  N_45
    5  A    between atoms: N_11  and  C_38
    6  A    between atoms: C_15  and  C_26
    7  A    between atoms: C_15  and  C_29
    8  A    between atoms: N_17  and  C_29
    9  A    between atoms: C_26  and  N_34
   10  A    between atoms: C_27  and  N_34
   11  A    between atoms: C_27  and  C_41
   12  A    between atoms: C_36  and  N_45
                            x       y       z     vdW  Elec       q    Type
                         _______ _______ _______ _____ _____    ______ ____

>  <TORSDO>
F 12

$$$$
