=
 OpenBabel11042419103D

 59 66  0  0  1  0  0  0  0  0999 V2000
  186.9280  176.8100  146.8470 C   0  0  0  0  0  0  0  0  0  0  0  0
  188.2880  176.4680  146.5490 N   0  0  0  0  0  2  0  0  0  0  0  0
  186.4350  176.5050  147.9680 O   0  0  0  0  0  0  0  0  0  0  0  0
  186.5110  177.4980  144.4990 C   0  0  0  0  0  3  0  0  0  0  0  0
  186.0890  177.4540  145.8300 C   0  0  0  0  0  0  0  0  0  0  0  0
  185.7680  178.1970  143.5450 C   0  0  0  0  0  0  0  0  0  0  0  0
  184.9100  178.1090  146.1960 C   0  0  0  0  0  3  0  0  0  0  0  0
  184.5700  178.8180  143.9020 C   0  0  0  0  0  3  0  0  0  0  0  0
  184.1460  178.7960  145.2380 C   0  0  0  0  0  3  0  0  0  0  0  0
  186.2220  178.1820  142.1890 N   0  0  0  0  0  2  0  0  0  0  0  0
  186.9680  177.0730  141.6050 C   0  0  1  0  0  3  0  0  0  0  0  0
  186.9640  177.2230  140.0990 C   0  0  0  0  0  1  0  0  0  0  0  0
  189.1280  178.1990  142.1800 N   0  0  0  0  0  0  0  0  0  0  0  0
  190.3490  177.8090  142.4920 N   0  0  0  0  0  0  0  0  0  0  0  0
  189.0800  175.9690  142.2940 N   0  0  0  0  0  2  0  0  0  0  0  0
  188.3710  177.0910  142.0880 C   0  0  0  0  0  0  0  0  0  0  0  0
  190.3050  176.4650  142.5660 C   0  0  0  0  0  0  0  0  0  0  0  0
  191.5250  175.6270  142.6640 C   0  0  0  0  0  2  0  0  0  0  0  0
  192.7310  176.5400  142.6650 C   0  0  0  0  0  2  0  0  0  0  0  0
  194.2380  175.4790  141.1410 O   0  0  0  0  0  1  0  0  0  0  0  0
  194.0010  175.7370  142.4980 C   0  0  1  0  0  3  0  0  0  0  0  0
  195.1660  176.5110  143.1560 C   0  0  2  0  0  3  0  0  0  0  0  0
  196.8050  174.8260  144.3330 C   0  0  0  0  0  0  0  0  0  0  0  0
  196.4280  175.7120  143.1660 C   0  0  1  0  0  0  0  0  0  0  0  0
  197.4710  176.6310  142.9650 O   0  0  0  0  0  1  0  0  0  0  0  0
  195.7560  175.9630  144.4560 C   0  0  2  0  0  0  0  0  0  0  0  0
  197.5750  173.9080  144.9100 C   0  0  0  0  0  2  0  0  0  0  0  0
  194.5880  175.2330  145.1470 C   0  0  0  0  0  2  0  0  0  0  0  0
  192.7780  175.4800  146.8190 C   0  0  0  0  0  1  0  0  0  0  0  0
  194.3140  177.2570  146.4310 O   0  0  0  0  0  1  0  0  0  0  0  0
  194.2000  175.8650  146.4820 C   0  0  2  0  0  3  0  0  0  0  0  0
  189.0370  175.7670  147.4260 O   0  0  0  0  0  0  0  0  0  0  0  0
  189.0560  174.4410  146.9640 C   0  0  0  0  0  2  0  0  0  0  0  0
  189.6810  174.3440  145.5730 C   0  0  0  0  0  2  0  0  0  0  0  0
  189.3970  172.5830  143.8160 C   0  0  0  0  0  2  0  0  0  0  0  0
  190.8750  172.7910  144.0750 C   0  0  1  0  0  3  0  0  0  0  0  0
  189.8950  172.8800  145.2220 C   0  0  1  0  0  3  0  0  0  0  0  0
  191.1440  170.4090  143.4310 F   0  0  0  0  0  0  0  0  0  0  0  0
  191.6960  171.4910  144.1050 C   0  0  1  0  0  3  0  0  0  0  0  0
  194.0110  171.6090  145.2050 C   0  0  0  0  0  1  0  0  0  0  0  0
  193.1700  171.5370  144.0200 N   0  0  0  0  0  0  0  0  0  0  0  0
  195.0700  172.2610  142.5940 C   0  0  0  0  0  3  0  0  0  0  0  0
  193.7500  171.3170  140.3100 C   0  0  0  0  0  0  0  0  0  0  0  0
  195.6670  172.3900  141.3410 C   0  0  0  0  0  3  0  0  0  0  0  0
  193.1460  171.2030  141.5770 C   0  0  0  0  0  3  0  0  0  0  0  0
  195.0140  171.9100  140.2010 C   0  0  0  0  0  3  0  0  0  0  0  0
  193.7990  171.6680  142.7230 C   0  0  0  0  0  0  0  0  0  0  0  0
  193.0890  170.7740  139.1080 C   0  0  0  0  0  0  0  0  0  0  0  0
  193.1290  169.5310  138.8790 O   0  0  0  0  0  0  0  0  0  0  0  0
  193.1540  172.5750  137.4120 O   0  0  0  0  0  1  0  0  0  0  0  0
  191.0150  171.6040  136.1400 O   0  0  0  0  0  1  0  0  0  0  0  0
  190.2660  171.7060  139.7730 C   0  0  0  0  0  2  0  0  0  0  0  0
  192.3760  171.6750  138.1370 C   0  0  1  0  0  0  0  0  0  0  0  0
  189.3990  173.8510  139.0470 N   0  0  0  0  0  0  0  0  0  0  0  0
  190.7760  174.1860  137.1660 O   0  0  0  0  0  0  0  0  0  0  0  0
  191.1300  171.0940  137.4390 C   0  0  1  0  0  3  0  0  0  0  0  0
  190.9930  172.1700  138.5190 C   0  0  1  0  0  0  0  0  0  0  0  0
  190.4080  173.4700  138.1380 C   0  0  0  0  0  0  0  0  0  0  0  0
  189.2350  172.8140  140.0610 C   0  0  0  0  0  3  0  0  0  0  0  0
  1  3  2  0  0  0  0
  2  1  1  0  0  0  0
  2 32  1  0  0  0  0
  4  5  1  0  0  0  0
  5  7  2  0  0  0  0
  5  1  1  0  0  0  0
  6  8  1  0  0  0  0
  6  4  2  0  0  0  0
  8  9  2  0  0  0  0
  9  7  1  0  0  0  0
 10  6  1  0  0  0  0
 11 12  1  6  0  0  0
 11 16  1  0  0  0  0
 11 10  1  0  0  0  0
 13 14  1  0  0  0  0
 14 17  2  0  0  0  0
 15 17  1  0  0  0  0
 16 13  2  0  0  0  0
 16 15  1  0  0  0  0
 17 18  1  0  0  0  0
 18 19  1  0  0  0  0
 21 20  1  6  0  0  0
 21 19  1  0  0  0  0
 22 21  1  6  0  0  0
 22 24  1  0  0  0  0
 22 26  1  0  0  0  0
 23 26  1  0  0  0  0
 23 27  2  0  0  0  0
 24 25  1  6  0  0  0
 24 23  1  0  0  0  0
 24 26  1  0  0  0  0
 26 28  1  6  0  0  0
 28 31  1  0  0  0  0
 30 31  1  0  0  0  0
 31 29  1  6  0  0  0
 33 32  1  0  0  0  0
 34 33  1  0  0  0  0
 35 36  1  0  0  0  0
 35 37  1  0  0  0  0
 36 39  1  1  0  0  0
 36 37  1  0  0  0  0
 37 34  1  6  0  0  0
 39 38  1  6  0  0  0
 41 39  1  0  0  0  0
 41 40  1  0  0  0  0
 42 47  1  0  0  0  0
 43 45  1  0  0  0  0
 44 42  2  0  0  0  0
 45 47  2  0  0  0  0
 46 43  2  0  0  0  0
 46 44  1  0  0  0  0
 47 41  1  0  0  0  0
 48 43  1  0  0  0  0
 49 48  2  0  0  0  0
 52 59  1  0  0  0  0
 53 50  1  6  0  0  0
 53 57  1  0  0  0  0
 53 48  1  0  0  0  0
 54 59  2  0  0  0  0
 55 58  2  0  0  0  0
 56 51  1  6  0  0  0
 56 53  1  0  0  0  0
 56 57  1  0  0  0  0
 57 52  1  1  0  0  0
 58 57  1  0  0  0  0
 58 54  1  0  0  0  0
M  END
>  <MODEL>
1

>  <REMARK>
 VINA RESULT:      -7.1      0.000      0.000
  Name = 
  19 active torsions:
  status: ('A' for Active; 'I' for Inactive)
    1  A    between atoms: C_1  and  C_39
    2  A    between atoms: C_1  and  C_43
    3  A    between atoms: C_3  and  C_57
    4  A    between atoms: N_5  and  C_14
    5  A    between atoms: N_5  and  C_32
    6  A    between atoms: C_12  and  C_13
    7  A    between atoms: C_19  and  C_26
    8  A    between atoms: C_22  and  C_26
    9  A    between atoms: N_23  and  O_51
   10  A    between atoms: C_27  and  C_32
   11  A    between atoms: C_28  and  N_36
   12  A    between atoms: C_28  and  C_44
   13  A    between atoms: N_36  and  C_58
   14  A    between atoms: C_43  and  C_57
   15  A    between atoms: C_46  and  C_49
   16  A    between atoms: C_49  and  C_55
   17  A    between atoms: C_50  and  C_53
   18  A    between atoms: C_50  and  C_56
   19  A    between atoms: O_51  and  C_53
                            x       y       z     vdW  Elec       q    Type
                         _______ _______ _______ _____ _____    ______ ____

>  <TORSDO>
F 19

$$$$
=
 OpenBabel11042419103D

 59 66  0  0  1  0  0  0  0  0999 V2000
  187.3230  177.7740  147.1790 C   0  0  0  0  0  0  0  0  0  0  0  0
  186.0680  177.5360  146.5290 N   0  0  0  0  0  2  0  0  0  0  0  0
  187.4210  178.6940  148.0380 O   0  0  0  0  0  0  0  0  0  0  0  0
  188.3960  175.9490  145.8840 C   0  0  0  0  0  3  0  0  0  0  0  0
  188.5090  176.9970  146.8010 C   0  0  0  0  0  0  0  0  0  0  0  0
  189.4990  175.1410  145.5960 C   0  0  0  0  0  0  0  0  0  0  0  0
  189.7380  177.2340  147.4220 C   0  0  0  0  0  3  0  0  0  0  0  0
  190.7370  175.4020  146.1870 C   0  0  0  0  0  3  0  0  0  0  0  0
  190.8570  176.4390  147.1220 C   0  0  0  0  0  3  0  0  0  0  0  0
  189.3430  174.1040  144.6230 N   0  0  0  0  0  2  0  0  0  0  0  0
  190.1540  172.8920  144.6050 C   0  0  1  0  0  3  0  0  0  0  0  0
  189.4570  171.8290  145.4260 C   0  0  0  0  0  1  0  0  0  0  0  0
  189.3900  172.5650  142.2440 N   0  0  0  0  0  0  0  0  0  0  0  0
  189.8010  171.8690  141.2010 N   0  0  0  0  0  0  0  0  0  0  0  0
  191.3020  171.5770  142.8430 N   0  0  0  0  0  2  0  0  0  0  0  0
  190.3090  172.4020  143.2130 C   0  0  0  0  0  0  0  0  0  0  0  0
  190.9560  171.2860  141.5710 C   0  0  0  0  0  0  0  0  0  0  0  0
  191.6180  170.2330  140.7630 C   0  0  0  0  0  2  0  0  0  0  0  0
  191.5180  170.6190  139.3040 C   0  0  0  0  0  2  0  0  0  0  0  0
  193.7530  171.4410  139.5240 O   0  0  0  0  0  1  0  0  0  0  0  0
  192.4910  171.7310  138.9850 C   0  0  1  0  0  3  0  0  0  0  0  0
  192.5430  171.9180  137.4510 C   0  0  2  0  0  3  0  0  0  0  0  0
  192.8890  174.4590  136.8730 C   0  0  0  0  0  0  0  0  0  0  0  0
  193.4260  173.0570  137.0600 C   0  0  1  0  0  0  0  0  0  0  0  0
  194.0530  172.6700  135.8630 O   0  0  0  0  0  1  0  0  0  0  0  0
  191.9710  173.2070  136.8590 C   0  0  2  0  0  0  0  0  0  0  0  0
  193.0540  175.7620  136.6680 C   0  0  0  0  0  2  0  0  0  0  0  0
  190.8550  173.6320  137.8330 C   0  0  0  0  0  2  0  0  0  0  0  0
  188.4440  174.0650  138.1940 C   0  0  0  0  0  1  0  0  0  0  0  0
  189.1550  172.1670  136.9450 O   0  0  0  0  0  1  0  0  0  0  0  0
  189.4590  173.5020  137.2270 C   0  0  2  0  0  3  0  0  0  0  0  0
  184.9970  178.3210  146.7750 O   0  0  0  0  0  0  0  0  0  0  0  0
  185.0470  179.3670  145.8390 C   0  0  0  0  0  2  0  0  0  0  0  0
  184.0810  179.1260  144.6810 C   0  0  0  0  0  2  0  0  0  0  0  0
  184.5040  178.1590  142.4110 C   0  0  0  0  0  2  0  0  0  0  0  0
  185.8090  178.2110  143.1780 C   0  0  1  0  0  3  0  0  0  0  0  0
  184.5240  177.8940  143.9080 C   0  0  1  0  0  3  0  0  0  0  0  0
  186.0580  175.7430  143.1030 F   0  0  0  0  0  0  0  0  0  0  0  0
  186.6990  176.9700  142.9900 C   0  0  1  0  0  3  0  0  0  0  0  0
  187.5180  176.7430  140.5700 C   0  0  0  0  0  1  0  0  0  0  0  0
  187.7780  176.9710  141.9830 N   0  0  0  0  0  0  0  0  0  0  0  0
  189.5920  178.1080  143.2420 C   0  0  0  0  0  3  0  0  0  0  0  0
  191.4110  176.1240  142.4670 C   0  0  0  0  0  0  0  0  0  0  0  0
  190.9210  178.1800  143.6580 C   0  0  0  0  0  3  0  0  0  0  0  0
  190.0710  176.0640  142.0380 C   0  0  0  0  0  3  0  0  0  0  0  0
  191.8280  177.1850  143.2800 C   0  0  0  0  0  3  0  0  0  0  0  0
  189.1560  177.0490  142.4230 C   0  0  0  0  0  0  0  0  0  0  0  0
  192.3640  175.0560  142.1090 C   0  0  0  0  0  0  0  0  0  0  0  0
  192.2260  174.4330  141.0180 O   0  0  0  0  0  0  0  0  0  0  0  0
  193.2020  174.5530  144.3830 O   0  0  0  0  0  1  0  0  0  0  0  0
  195.0850  172.9080  143.4440 O   0  0  0  0  0  1  0  0  0  0  0  0
  195.1720  176.0380  141.4530 C   0  0  0  0  0  2  0  0  0  0  0  0
  193.4960  174.6810  143.0270 C   0  0  1  0  0  0  0  0  0  0  0  0
  196.8170  176.5180  143.1690 N   0  0  0  0  0  0  0  0  0  0  0  0
  195.9840  175.1260  144.8760 O   0  0  0  0  0  0  0  0  0  0  0  0
  194.5800  173.7510  142.4470 C   0  0  1  0  0  3  0  0  0  0  0  0
  194.8740  175.2300  142.7080 C   0  0  1  0  0  0  0  0  0  0  0  0
  195.9160  175.5710  143.6960 C   0  0  0  0  0  0  0  0  0  0  0  0
  196.4450  176.8360  141.7920 C   0  0  0  0  0  3  0  0  0  0  0  0
  1  3  2  0  0  0  0
  2 32  1  0  0  0  0
  2  1  1  0  0  0  0
  4  5  1  0  0  0  0
  5  1  1  0  0  0  0
  5  7  2  0  0  0  0
  6  4  2  0  0  0  0
  6  8  1  0  0  0  0
  8  9  2  0  0  0  0
  9  7  1  0  0  0  0
 10  6  1  0  0  0  0
 11 10  1  0  0  0  0
 11 12  1  1  0  0  0
 13 16  2  0  0  0  0
 14 17  2  0  0  0  0
 14 13  1  0  0  0  0
 15 16  1  0  0  0  0
 16 11  1  0  0  0  0
 17 15  1  0  0  0  0
 18 17  1  0  0  0  0
 19 18  1  0  0  0  0
 21 19  1  0  0  0  0
 21 20  1  6  0  0  0
 22 21  1  1  0  0  0
 23 24  1  0  0  0  0
 24 25  1  6  0  0  0
 24 22  1  0  0  0  0
 26 23  1  0  0  0  0
 26 24  1  0  0  0  0
 26 22  1  0  0  0  0
 26 28  1  1  0  0  0
 27 23  2  0  0  0  0
 30 31  1  0  0  0  0
 31 28  1  0  0  0  0
 31 29  1  1  0  0  0
 33 32  1  0  0  0  0
 34 33  1  0  0  0  0
 35 36  1  0  0  0  0
 35 37  1  0  0  0  0
 36 39  1  6  0  0  0
 36 37  1  0  0  0  0
 37 34  1  1  0  0  0
 39 38  1  6  0  0  0
 40 41  1  0  0  0  0
 41 47  1  0  0  0  0
 41 39  1  0  0  0  0
 42 44  1  0  0  0  0
 43 46  1  0  0  0  0
 45 47  1  0  0  0  0
 45 43  2  0  0  0  0
 46 44  2  0  0  0  0
 47 42  2  0  0  0  0
 48 43  1  0  0  0  0
 48 53  1  0  0  0  0
 49 48  2  0  0  0  0
 52 59  1  0  0  0  0
 53 50  1  1  0  0  0
 54 58  1  0  0  0  0
 56 57  1  0  0  0  0
 56 53  1  0  0  0  0
 56 51  1  1  0  0  0
 57 52  1  6  0  0  0
 57 53  1  0  0  0  0
 57 58  1  0  0  0  0
 58 55  2  0  0  0  0
 59 54  2  0  0  0  0
M  END
>  <MODEL>
2

>  <REMARK>
 VINA RESULT:      -7.1      2.286      7.072
  Name = 
  19 active torsions:
  status: ('A' for Active; 'I' for Inactive)
    1  A    between atoms: C_1  and  C_39
    2  A    between atoms: C_1  and  C_43
    3  A    between atoms: C_3  and  C_57
    4  A    between atoms: N_5  and  C_14
    5  A    between atoms: N_5  and  C_32
    6  A    between atoms: C_12  and  C_13
    7  A    between atoms: C_19  and  C_26
    8  A    between atoms: C_22  and  C_26
    9  A    between atoms: N_23  and  O_51
   10  A    between atoms: C_27  and  C_32
   11  A    between atoms: C_28  and  N_36
   12  A    between atoms: C_28  and  C_44
   13  A    between atoms: N_36  and  C_58
   14  A    between atoms: C_43  and  C_57
   15  A    between atoms: C_46  and  C_49
   16  A    between atoms: C_49  and  C_55
   17  A    between atoms: C_50  and  C_53
   18  A    between atoms: C_50  and  C_56
   19  A    between atoms: O_51  and  C_53
                            x       y       z     vdW  Elec       q    Type
                         _______ _______ _______ _____ _____    ______ ____

>  <TORSDO>
F 19

$$$$
=
 OpenBabel11042419103D

 59 66  0  0  1  0  0  0  0  0999 V2000
  185.9130  178.4860  143.3700 C   0  0  0  0  0  0  0  0  0  0  0  0
  184.7800  177.8370  143.9620 N   0  0  0  0  0  2  0  0  0  0  0  0
  185.9330  179.7440  143.2670 O   0  0  0  0  0  0  0  0  0  0  0  0
  187.1370  176.3380  143.1550 C   0  0  0  0  0  3  0  0  0  0  0  0
  187.0180  177.6900  142.8240 C   0  0  0  0  0  0  0  0  0  0  0  0
  188.2420  175.5990  142.7230 C   0  0  0  0  0  0  0  0  0  0  0  0
  188.0110  178.2950  142.0480 C   0  0  0  0  0  3  0  0  0  0  0  0
  189.2130  176.1930  141.9150 C   0  0  0  0  0  3  0  0  0  0  0  0
  189.1140  177.5540  141.5920 C   0  0  0  0  0  3  0  0  0  0  0  0
  188.3000  174.2100  143.0570 N   0  0  0  0  0  2  0  0  0  0  0  0
  189.5480  173.4650  143.1750 C   0  0  1  0  0  3  0  0  0  0  0  0
  189.3750  172.3910  144.2280 C   0  0  0  0  0  1  0  0  0  0  0  0
  189.0370  172.7250  140.8390 N   0  0  0  0  0  0  0  0  0  0  0  0
  189.6210  171.9610  139.9360 N   0  0  0  0  0  0  0  0  0  0  0  0
  191.0020  172.1010  141.6990 N   0  0  0  0  0  2  0  0  0  0  0  0
  189.8830  172.8210  141.8800 C   0  0  0  0  0  0  0  0  0  0  0  0
  190.8070  171.5990  140.4610 C   0  0  0  0  0  0  0  0  0  0  0  0
  191.6660  170.5510  139.8580 C   0  0  0  0  0  2  0  0  0  0  0  0
  191.7360  170.7940  138.3660 C   0  0  0  0  0  2  0  0  0  0  0  0
  193.2890  170.8880  136.5510 O   0  0  0  0  0  1  0  0  0  0  0  0
  193.1650  171.0380  137.9390 C   0  0  1  0  0  3  0  0  0  0  0  0
  193.5890  172.4480  138.4120 C   0  0  2  0  0  3  0  0  0  0  0  0
  196.0570  172.9390  137.6520 C   0  0  0  0  0  0  0  0  0  0  0  0
  194.5610  173.0800  137.4720 C   0  0  1  0  0  0  0  0  0  0  0  0
  194.2540  174.4510  137.4590 O   0  0  0  0  0  1  0  0  0  0  0  0
  195.0510  172.6700  138.8030 C   0  0  2  0  0  0  0  0  0  0  0  0
  197.3100  173.1020  137.2390 C   0  0  0  0  0  2  0  0  0  0  0  0
  195.5360  171.3040  139.3250 C   0  0  0  0  0  2  0  0  0  0  0  0
  194.8780  171.3490  141.7120 C   0  0  0  0  0  1  0  0  0  0  0  0
  196.8130  172.5220  140.9720 O   0  0  0  0  0  1  0  0  0  0  0  0
  196.0530  171.3680  140.7610 C   0  0  2  0  0  3  0  0  0  0  0  0
  183.7010  178.5450  144.3570 O   0  0  0  0  0  0  0  0  0  0  0  0
  183.9970  179.0450  145.6350 C   0  0  0  0  0  2  0  0  0  0  0  0
  184.2300  177.9140  146.6360 C   0  0  0  0  0  2  0  0  0  0  0  0
  185.8820  176.9580  148.2560 C   0  0  0  0  0  2  0  0  0  0  0  0
  186.4720  176.9130  146.8620 C   0  0  1  0  0  3  0  0  0  0  0  0
  185.6020  178.0800  147.2680 C   0  0  1  0  0  3  0  0  0  0  0  0
  188.3890  178.2400  147.7160 F   0  0  0  0  0  0  0  0  0  0  0  0
  187.9630  177.2870  146.7980 C   0  0  1  0  0  3  0  0  0  0  0  0
  188.9990  174.9780  147.2170 C   0  0  0  0  0  1  0  0  0  0  0  0
  188.9810  176.2540  146.5200 N   0  0  0  0  0  0  0  0  0  0  0  0
  190.1760  177.8320  145.0190 C   0  0  0  0  0  3  0  0  0  0  0  0
  192.1690  175.9190  144.5510 C   0  0  0  0  0  0  0  0  0  0  0  0
  191.2400  178.1280  144.1680 C   0  0  0  0  0  3  0  0  0  0  0  0
  191.0840  175.6210  145.3980 C   0  0  0  0  0  3  0  0  0  0  0  0
  192.2400  177.1780  143.9410 C   0  0  0  0  0  3  0  0  0  0  0  0
  190.0870  176.5710  145.6400 C   0  0  0  0  0  0  0  0  0  0  0  0
  193.2520  174.9400  144.3410 C   0  0  0  0  0  0  0  0  0  0  0  0
  192.9710  173.7140  144.2140 O   0  0  0  0  0  0  0  0  0  0  0  0
  195.1240  176.2800  145.2500 O   0  0  0  0  0  1  0  0  0  0  0  0
  196.9370  174.4890  144.4520 O   0  0  0  0  0  1  0  0  0  0  0  0
  194.6210  175.1420  141.6270 C   0  0  0  0  0  2  0  0  0  0  0  0
  194.6930  175.3700  144.2870 C   0  0  1  0  0  0  0  0  0  0  0  0
  196.3870  176.7420  141.1760 N   0  0  0  0  0  0  0  0  0  0  0  0
  197.1740  177.0500  143.3750 O   0  0  0  0  0  0  0  0  0  0  0  0
  195.7120  174.3220  143.7970 C   0  0  1  0  0  3  0  0  0  0  0  0
  195.3340  175.5170  142.9190 C   0  0  1  0  0  0  0  0  0  0  0  0
  196.3920  176.4820  142.5620 C   0  0  0  0  0  0  0  0  0  0  0  0
  195.3500  175.9410  140.5300 C   0  0  0  0  0  3  0  0  0  0  0  0
  1  2  1  0  0  0  0
  2 32  1  0  0  0  0
  3  1  2  0  0  0  0
  5  4  1  0  0  0  0
  5  1  1  0  0  0  0
  6 10  1  0  0  0  0
  6  4  2  0  0  0  0
  7  5  2  0  0  0  0
  8  6  1  0  0  0  0
  9  8  2  0  0  0  0
  9  7  1  0  0  0  0
 10 11  1  0  0  0  0
 11 12  1  1  0  0  0
 13 16  2  0  0  0  0
 14 17  2  0  0  0  0
 14 13  1  0  0  0  0
 15 16  1  0  0  0  0
 16 11  1  0  0  0  0
 17 15  1  0  0  0  0
 18 17  1  0  0  0  0
 19 18  1  0  0  0  0
 21 20  1  6  0  0  0
 21 19  1  0  0  0  0
 22 21  1  6  0  0  0
 22 26  1  0  0  0  0
 23 26  1  0  0  0  0
 24 25  1  1  0  0  0
 24 23  1  0  0  0  0
 24 22  1  0  0  0  0
 24 26  1  0  0  0  0
 26 28  1  6  0  0  0
 27 23  2  0  0  0  0
 28 31  1  0  0  0  0
 31 30  1  0  0  0  0
 31 29  1  1  0  0  0
 32 33  1  0  0  0  0
 33 34  1  0  0  0  0
 36 39  1  1  0  0  0
 36 37  1  0  0  0  0
 36 35  1  0  0  0  0
 37 34  1  6  0  0  0
 37 35  1  0  0  0  0
 39 38  1  1  0  0  0
 41 39  1  0  0  0  0
 41 40  1  0  0  0  0
 42 47  1  0  0  0  0
 43 45  1  0  0  0  0
 44 42  2  0  0  0  0
 45 47  2  0  0  0  0
 46 44  1  0  0  0  0
 46 43  2  0  0  0  0
 47 41  1  0  0  0  0
 48 43  1  0  0  0  0
 49 48  2  0  0  0  0
 53 48  1  0  0  0  0
 53 50  1  1  0  0  0
 54 58  1  0  0  0  0
 56 53  1  0  0  0  0
 56 51  1  1  0  0  0
 57 52  1  6  0  0  0
 57 56  1  0  0  0  0
 57 53  1  0  0  0  0
 58 57  1  0  0  0  0
 58 55  2  0  0  0  0
 59 54  2  0  0  0  0
 59 52  1  0  0  0  0
M  END
>  <MODEL>
3

>  <REMARK>
 VINA RESULT:      -7.1      2.526      6.710
  Name = 
  19 active torsions:
  status: ('A' for Active; 'I' for Inactive)
    1  A    between atoms: C_1  and  C_39
    2  A    between atoms: C_1  and  C_43
    3  A    between atoms: C_3  and  C_57
    4  A    between atoms: N_5  and  C_14
    5  A    between atoms: N_5  and  C_32
    6  A    between atoms: C_12  and  C_13
    7  A    between atoms: C_19  and  C_26
    8  A    between atoms: C_22  and  C_26
    9  A    between atoms: N_23  and  O_51
   10  A    between atoms: C_27  and  C_32
   11  A    between atoms: C_28  and  N_36
   12  A    between atoms: C_28  and  C_44
   13  A    between atoms: N_36  and  C_58
   14  A    between atoms: C_43  and  C_57
   15  A    between atoms: C_46  and  C_49
   16  A    between atoms: C_49  and  C_55
   17  A    between atoms: C_50  and  C_53
   18  A    between atoms: C_50  and  C_56
   19  A    between atoms: O_51  and  C_53
                            x       y       z     vdW  Elec       q    Type
                         _______ _______ _______ _____ _____    ______ ____

>  <TORSDO>
F 19

$$$$
=
 OpenBabel11042419103D

 59 66  0  0  1  0  0  0  0  0999 V2000
  190.9610  173.0300  144.5610 C   0  0  0  0  0  0  0  0  0  0  0  0
  191.6590  172.0100  143.8340 N   0  0  0  0  0  2  0  0  0  0  0  0
  189.7070  172.9650  144.6860 O   0  0  0  0  0  0  0  0  0  0  0  0
  192.7080  174.7800  144.3540 C   0  0  0  0  0  3  0  0  0  0  0  0
  191.6910  174.1810  145.1020 C   0  0  0  0  0  0  0  0  0  0  0  0
  193.4760  175.8100  144.9030 C   0  0  0  0  0  0  0  0  0  0  0  0
  191.4440  174.6290  146.4030 C   0  0  0  0  0  3  0  0  0  0  0  0
  193.2030  176.2840  146.1870 C   0  0  0  0  0  3  0  0  0  0  0  0
  192.1980  175.6790  146.9540 C   0  0  0  0  0  3  0  0  0  0  0  0
  194.4800  176.4160  144.0840 N   0  0  0  0  0  2  0  0  0  0  0  0
  195.9000  176.1020  144.1920 C   0  0  1  0  0  3  0  0  0  0  0  0
  196.0540  174.7970  144.9440 C   0  0  0  0  0  1  0  0  0  0  0  0
  196.3530  176.8480  141.8460 N   0  0  0  0  0  0  0  0  0  0  0  0
  196.8770  176.3070  140.7620 N   0  0  0  0  0  0  0  0  0  0  0  0
  197.0670  174.8110  142.4240 N   0  0  0  0  0  2  0  0  0  0  0  0
  196.4940  175.9520  142.8400 C   0  0  0  0  0  0  0  0  0  0  0  0
  197.3110  175.0860  141.1250 C   0  0  0  0  0  0  0  0  0  0  0  0
  197.7530  174.0670  140.1420 C   0  0  0  0  0  2  0  0  0  0  0  0
  197.2620  174.4830  138.7720 C   0  0  0  0  0  2  0  0  0  0  0  0
  196.8890  172.2680  137.9500 O   0  0  0  0  0  1  0  0  0  0  0  0
  196.2570  173.4840  138.2470 C   0  0  1  0  0  3  0  0  0  0  0  0
  195.1340  173.3140  139.2960 C   0  0  2  0  0  3  0  0  0  0  0  0
  193.4880  171.4090  138.5410 C   0  0  0  0  0  0  0  0  0  0  0  0
  194.6530  171.9030  139.3710 C   0  0  1  0  0  0  0  0  0  0  0  0
  194.3520  171.6660  140.7230 O   0  0  0  0  0  1  0  0  0  0  0  0
  193.7400  172.9170  138.8070 C   0  0  2  0  0  0  0  0  0  0  0  0
  192.7000  170.4420  138.0810 C   0  0  0  0  0  2  0  0  0  0  0  0
  193.6350  173.5030  137.3850 C   0  0  0  0  0  2  0  0  0  0  0  0
  191.7060  174.6730  136.3640 C   0  0  0  0  0  1  0  0  0  0  0  0
  193.6710  175.8780  136.9600 O   0  0  0  0  0  1  0  0  0  0  0  0
  192.8500  174.8130  137.3410 C   0  0  2  0  0  3  0  0  0  0  0  0
  190.9890  171.0090  143.2240 O   0  0  0  0  0  0  0  0  0  0  0  0
  191.4660  170.9550  141.9050 C   0  0  0  0  0  2  0  0  0  0  0  0
  190.3830  171.3520  140.9040 C   0  0  0  0  0  2  0  0  0  0  0  0
  190.1460  173.2430  139.2800 C   0  0  0  0  0  2  0  0  0  0  0  0
  189.0150  173.3080  140.2850 C   0  0  1  0  0  3  0  0  0  0  0  0
  190.3880  172.8620  140.7330 C   0  0  1  0  0  3  0  0  0  0  0  0
  188.0000  175.5300  139.8460 F   0  0  0  0  0  0  0  0  0  0  0  0
  188.6770  174.7320  140.7600 C   0  0  1  0  0  3  0  0  0  0  0  0
  187.0830  174.3630  142.7350 C   0  0  0  0  0  1  0  0  0  0  0  0
  188.2690  174.9760  142.1580 N   0  0  0  0  0  0  0  0  0  0  0  0
  190.0360  176.7080  142.3740 C   0  0  0  0  0  3  0  0  0  0  0  0
  189.2860  177.1800  145.0310 C   0  0  0  0  0  0  0  0  0  0  0  0
  190.7170  177.6600  143.1310 C   0  0  0  0  0  3  0  0  0  0  0  0
  188.6110  176.2100  144.2650 C   0  0  0  0  0  3  0  0  0  0  0  0
  190.3370  177.9030  144.4550 C   0  0  0  0  0  3  0  0  0  0  0  0
  188.9770  175.9700  142.9370 C   0  0  0  0  0  0  0  0  0  0  0  0
  188.8640  177.4760  146.4140 C   0  0  0  0  0  0  0  0  0  0  0  0
  189.7130  177.9010  147.2490 O   0  0  0  0  0  0  0  0  0  0  0  0
  187.0940  175.9970  147.3110 O   0  0  0  0  0  1  0  0  0  0  0  0
  185.8400  178.0350  148.4960 O   0  0  0  0  0  1  0  0  0  0  0  0
  186.6500  179.0300  145.0140 C   0  0  0  0  0  2  0  0  0  0  0  0
  187.4420  177.2670  146.8570 C   0  0  1  0  0  0  0  0  0  0  0  0
  184.4070  178.1450  144.7480 N   0  0  0  0  0  0  0  0  0  0  0  0
  184.3860  176.6450  146.5630 O   0  0  0  0  0  0  0  0  0  0  0  0
  186.7370  178.4710  147.5140 C   0  0  1  0  0  3  0  0  0  0  0  0
  186.3530  178.0110  146.1050 C   0  0  1  0  0  0  0  0  0  0  0  0
  184.9770  177.5270  145.8800 C   0  0  0  0  0  0  0  0  0  0  0  0
  185.3580  179.0960  144.1770 C   0  0  0  0  0  3  0  0  0  0  0  0
  1  3  2  0  0  0  0
  1  5  1  0  0  0  0
  2  1  1  0  0  0  0
  4  6  2  0  0  0  0
  4  5  1  0  0  0  0
  5  7  2  0  0  0  0
  6  8  1  0  0  0  0
  7  9  1  0  0  0  0
  8  9  2  0  0  0  0
 10 11  1  0  0  0  0
 10  6  1  0  0  0  0
 11 12  1  1  0  0  0
 13 16  2  0  0  0  0
 14 17  2  0  0  0  0
 14 13  1  0  0  0  0
 15 16  1  0  0  0  0
 16 11  1  0  0  0  0
 17 15  1  0  0  0  0
 18 17  1  0  0  0  0
 19 18  1  0  0  0  0
 21 20  1  1  0  0  0
 21 19  1  0  0  0  0
 22 21  1  6  0  0  0
 22 24  1  0  0  0  0
 23 26  1  0  0  0  0
 23 24  1  0  0  0  0
 24 25  1  1  0  0  0
 26 28  1  6  0  0  0
 26 22  1  0  0  0  0
 26 24  1  0  0  0  0
 27 23  2  0  0  0  0
 30 31  1  0  0  0  0
 31 29  1  6  0  0  0
 31 28  1  0  0  0  0
 32  2  1  0  0  0  0
 33 32  1  0  0  0  0
 34 33  1  0  0  0  0
 35 36  1  0  0  0  0
 35 37  1  0  0  0  0
 36 37  1  0  0  0  0
 36 39  1  1  0  0  0
 37 34  1  6  0  0  0
 39 38  1  6  0  0  0
 39 41  1  0  0  0  0
 41 40  1  0  0  0  0
 41 47  1  0  0  0  0
 42 47  2  0  0  0  0
 42 44  1  0  0  0  0
 43 48  1  0  0  0  0
 44 46  2  0  0  0  0
 45 43  2  0  0  0  0
 46 43  1  0  0  0  0
 47 45  1  0  0  0  0
 48 53  1  0  0  0  0
 48 49  2  0  0  0  0
 53 50  1  1  0  0  0
 53 56  1  0  0  0  0
 54 58  1  0  0  0  0
 56 51  1  1  0  0  0
 57 52  1  6  0  0  0
 57 53  1  0  0  0  0
 57 56  1  0  0  0  0
 58 57  1  0  0  0  0
 58 55  2  0  0  0  0
 59 54  2  0  0  0  0
 59 52  1  0  0  0  0
M  END
>  <MODEL>
4

>  <REMARK>
 VINA RESULT:      -7.1      2.689      8.303
  Name = 
  19 active torsions:
  status: ('A' for Active; 'I' for Inactive)
    1  A    between atoms: C_1  and  C_39
    2  A    between atoms: C_1  and  C_43
    3  A    between atoms: C_3  and  C_57
    4  A    between atoms: N_5  and  C_14
    5  A    between atoms: N_5  and  C_32
    6  A    between atoms: C_12  and  C_13
    7  A    between atoms: C_19  and  C_26
    8  A    between atoms: C_22  and  C_26
    9  A    between atoms: N_23  and  O_51
   10  A    between atoms: C_27  and  C_32
   11  A    between atoms: C_28  and  N_36
   12  A    between atoms: C_28  and  C_44
   13  A    between atoms: N_36  and  C_58
   14  A    between atoms: C_43  and  C_57
   15  A    between atoms: C_46  and  C_49
   16  A    between atoms: C_49  and  C_55
   17  A    between atoms: C_50  and  C_53
   18  A    between atoms: C_50  and  C_56
   19  A    between atoms: O_51  and  C_53
                            x       y       z     vdW  Elec       q    Type
                         _______ _______ _______ _____ _____    ______ ____

>  <TORSDO>
F 19

$$$$
=
 OpenBabel11042419103D

 59 66  0  0  1  0  0  0  0  0999 V2000
  187.6690  176.8920  141.6420 C   0  0  0  0  0  0  0  0  0  0  0  0
  186.3130  177.0150  141.1930 N   0  0  0  0  0  2  0  0  0  0  0  0
  188.3380  177.9290  141.9080 O   0  0  0  0  0  0  0  0  0  0  0  0
  189.0790  175.0960  140.6720 C   0  0  0  0  0  3  0  0  0  0  0  0
  188.3010  175.5720  141.7300 C   0  0  0  0  0  0  0  0  0  0  0  0
  189.6000  173.8000  140.7050 C   0  0  0  0  0  0  0  0  0  0  0  0
  188.0540  174.7400  142.8260 C   0  0  0  0  0  3  0  0  0  0  0  0
  189.3860  172.9830  141.8170 C   0  0  0  0  0  3  0  0  0  0  0  0
  188.5910  173.4430  142.8760 C   0  0  0  0  0  3  0  0  0  0  0  0
  190.4220  173.3720  139.6150 N   0  0  0  0  0  2  0  0  0  0  0  0
  190.1120  172.2150  138.7830 C   0  0  1  0  0  3  0  0  0  0  0  0
  190.5860  172.4900  137.3720 C   0  0  0  0  0  1  0  0  0  0  0  0
  190.3630  169.7520  139.1510 N   0  0  0  0  0  0  0  0  0  0  0  0
  191.1510  168.9750  139.8690 N   0  0  0  0  0  0  0  0  0  0  0  0
  191.8570  171.0880  140.1380 N   0  0  0  0  0  2  0  0  0  0  0  0
  190.8100  171.0120  139.3010 C   0  0  0  0  0  0  0  0  0  0  0  0
  192.0520  169.7890  140.4510 C   0  0  0  0  0  0  0  0  0  0  0  0
  192.9700  169.3340  141.5240 C   0  0  0  0  0  2  0  0  0  0  0  0
  192.3220  169.6240  142.8600 C   0  0  0  0  0  2  0  0  0  0  0  0
  192.3010  171.4290  144.4290 O   0  0  0  0  0  1  0  0  0  0  0  0
  193.1380  170.6340  143.6330 C   0  0  1  0  0  3  0  0  0  0  0  0
  194.1920  169.8770  144.4750 C   0  0  2  0  0  3  0  0  0  0  0  0
  195.9400  171.5790  145.4530 C   0  0  0  0  0  0  0  0  0  0  0  0
  194.7090  170.7120  145.5990 C   0  0  1  0  0  0  0  0  0  0  0  0
  194.9240  169.8300  146.6710 O   0  0  0  0  0  1  0  0  0  0  0  0
  195.6270  170.4080  144.4840 C   0  0  2  0  0  0  0  0  0  0  0  0
  196.7860  172.5030  145.8990 C   0  0  0  0  0  2  0  0  0  0  0  0
  195.8100  171.0850  143.1120 C   0  0  0  0  0  2  0  0  0  0  0  0
  197.9410  171.6580  141.9870 C   0  0  0  0  0  1  0  0  0  0  0  0
  196.5750  169.8920  141.1590 O   0  0  0  0  0  1  0  0  0  0  0  0
  196.9980  170.5280  142.3300 C   0  0  2  0  0  3  0  0  0  0  0  0
  185.7550  178.2270  140.9880 O   0  0  0  0  0  0  0  0  0  0  0  0
  184.3670  178.0230  140.9280 C   0  0  0  0  0  2  0  0  0  0  0  0
  183.7220  178.1620  142.3050 C   0  0  0  0  0  2  0  0  0  0  0  0
  184.1270  178.9140  144.6590 C   0  0  0  0  0  2  0  0  0  0  0  0
  185.0790  177.7830  144.3290 C   0  0  1  0  0  3  0  0  0  0  0  0
  184.7200  178.7930  143.2630 C   0  0  1  0  0  3  0  0  0  0  0  0
  187.0450  179.2520  144.6980 F   0  0  0  0  0  0  0  0  0  0  0  0
  186.5050  177.9840  144.8700 C   0  0  1  0  0  3  0  0  0  0  0  0
  186.2430  177.6000  147.3930 C   0  0  0  0  0  1  0  0  0  0  0  0
  186.9220  177.3410  146.1330 N   0  0  0  0  0  0  0  0  0  0  0  0
  188.2770  175.4770  147.0590 C   0  0  0  0  0  3  0  0  0  0  0  0
  190.3590  176.0740  145.2820 C   0  0  0  0  0  0  0  0  0  0  0  0
  189.4490  174.7210  147.0790 C   0  0  0  0  0  3  0  0  0  0  0  0
  189.1790  176.8420  145.2760 C   0  0  0  0  0  3  0  0  0  0  0  0
  190.4850  175.0120  146.1870 C   0  0  0  0  0  3  0  0  0  0  0  0
  188.1330  176.5490  146.1570 C   0  0  0  0  0  0  0  0  0  0  0  0
  191.4400  176.3440  144.3150 C   0  0  0  0  0  0  0  0  0  0  0  0
  191.1540  176.7810  143.1630 O   0  0  0  0  0  0  0  0  0  0  0  0
  193.6000  177.1660  145.2010 O   0  0  0  0  0  1  0  0  0  0  0  0
  194.2720  174.7470  146.1100 O   0  0  0  0  0  1  0  0  0  0  0  0
  193.0480  174.3850  142.6260 C   0  0  0  0  0  2  0  0  0  0  0  0
  192.8810  176.0980  144.6670 C   0  0  1  0  0  0  0  0  0  0  0  0
  195.4340  174.6270  142.2700 N   0  0  0  0  0  0  0  0  0  0  0  0
  195.9700  175.8650  144.2010 O   0  0  0  0  0  0  0  0  0  0  0  0
  193.2430  174.6840  145.1640 C   0  0  1  0  0  3  0  0  0  0  0  0
  193.6750  175.1610  143.7750 C   0  0  1  0  0  0  0  0  0  0  0  0
  195.1200  175.2590  143.4900 C   0  0  0  0  0  0  0  0  0  0  0  0
  194.2250  174.0450  141.6930 C   0  0  0  0  0  3  0  0  0  0  0  0
  1  5  1  0  0  0  0
  1  3  2  0  0  0  0
  2  1  1  0  0  0  0
  4  6  2  0  0  0  0
  4  5  1  0  0  0  0
  5  7  2  0  0  0  0
  6  8  1  0  0  0  0
  7  9  1  0  0  0  0
  8  9  2  0  0  0  0
 10  6  1  0  0  0  0
 11 12  1  6  0  0  0
 11 16  1  0  0  0  0
 11 10  1  0  0  0  0
 13 16  2  0  0  0  0
 13 14  1  0  0  0  0
 14 17  2  0  0  0  0
 15 17  1  0  0  0  0
 16 15  1  0  0  0  0
 17 18  1  0  0  0  0
 18 19  1  0  0  0  0
 19 21  1  0  0  0  0
 21 20  1  1  0  0  0
 22 21  1  6  0  0  0
 22 26  1  0  0  0  0
 22 24  1  0  0  0  0
 23 24  1  0  0  0  0
 23 27  2  0  0  0  0
 24 25  1  1  0  0  0
 26 28  1  6  0  0  0
 26 23  1  0  0  0  0
 26 24  1  0  0  0  0
 30 31  1  0  0  0  0
 31 29  1  6  0  0  0
 31 28  1  0  0  0  0
 32  2  1  0  0  0  0
 33 32  1  0  0  0  0
 33 34  1  0  0  0  0
 36 35  1  0  0  0  0
 36 39  1  1  0  0  0
 37 34  1  6  0  0  0
 37 36  1  0  0  0  0
 37 35  1  0  0  0  0
 39 38  1  1  0  0  0
 39 41  1  0  0  0  0
 41 47  1  0  0  0  0
 41 40  1  0  0  0  0
 42 44  1  0  0  0  0
 43 46  1  0  0  0  0
 45 43  2  0  0  0  0
 45 47  1  0  0  0  0
 46 44  2  0  0  0  0
 47 42  2  0  0  0  0
 48 53  1  0  0  0  0
 48 43  1  0  0  0  0
 49 48  2  0  0  0  0
 53 56  1  0  0  0  0
 53 50  1  1  0  0  0
 54 58  1  0  0  0  0
 56 51  1  1  0  0  0
 57 52  1  6  0  0  0
 57 53  1  0  0  0  0
 57 56  1  0  0  0  0
 58 57  1  0  0  0  0
 58 55  2  0  0  0  0
 59 54  2  0  0  0  0
 59 52  1  0  0  0  0
M  END
>  <MODEL>
5

>  <REMARK>
 VINA RESULT:      -7.0      2.976      7.416
  Name = 
  19 active torsions:
  status: ('A' for Active; 'I' for Inactive)
    1  A    between atoms: C_1  and  C_39
    2  A    between atoms: C_1  and  C_43
    3  A    between atoms: C_3  and  C_57
    4  A    between atoms: N_5  and  C_14
    5  A    between atoms: N_5  and  C_32
    6  A    between atoms: C_12  and  C_13
    7  A    between atoms: C_19  and  C_26
    8  A    between atoms: C_22  and  C_26
    9  A    between atoms: N_23  and  O_51
   10  A    between atoms: C_27  and  C_32
   11  A    between atoms: C_28  and  N_36
   12  A    between atoms: C_28  and  C_44
   13  A    between atoms: N_36  and  C_58
   14  A    between atoms: C_43  and  C_57
   15  A    between atoms: C_46  and  C_49
   16  A    between atoms: C_49  and  C_55
   17  A    between atoms: C_50  and  C_53
   18  A    between atoms: C_50  and  C_56
   19  A    between atoms: O_51  and  C_53
                            x       y       z     vdW  Elec       q    Type
                         _______ _______ _______ _____ _____    ______ ____

>  <TORSDO>
F 19

$$$$
=
 OpenBabel11042419103D

 59 66  0  0  1  0  0  0  0  0999 V2000
  191.0170  173.1540  144.6180 C   0  0  0  0  0  0  0  0  0  0  0  0
  191.7400  172.1180  143.9390 N   0  0  0  0  0  2  0  0  0  0  0  0
  189.7550  173.1210  144.6490 O   0  0  0  0  0  0  0  0  0  0  0  0
  192.7780  174.8990  144.5210 C   0  0  0  0  0  3  0  0  0  0  0  0
  191.7350  174.2840  145.2170 C   0  0  0  0  0  0  0  0  0  0  0  0
  193.5330  175.9070  145.1260 C   0  0  0  0  0  0  0  0  0  0  0  0
  191.4470  174.6940  146.5220 C   0  0  0  0  0  3  0  0  0  0  0  0
  193.2200  176.3440  146.4140 C   0  0  0  0  0  3  0  0  0  0  0  0
  192.1880  175.7210  147.1290 C   0  0  0  0  0  3  0  0  0  0  0  0
  194.5670  176.5320  144.3590 N   0  0  0  0  0  2  0  0  0  0  0  0
  195.8600  175.9090  144.0990 C   0  0  1  0  0  3  0  0  0  0  0  0
  195.9610  174.6390  144.9160 C   0  0  0  0  0  1  0  0  0  0  0  0
  195.8990  176.4620  141.6580 N   0  0  0  0  0  0  0  0  0  0  0  0
  195.8950  175.7780  140.5300 N   0  0  0  0  0  0  0  0  0  0  0  0
  195.9930  174.3010  142.2160 N   0  0  0  0  0  2  0  0  0  0  0  0
  195.9820  175.5680  142.6600 C   0  0  0  0  0  0  0  0  0  0  0  0
  195.9610  174.4800  140.8780 C   0  0  0  0  0  0  0  0  0  0  0  0
  195.7440  173.3770  139.9090 C   0  0  0  0  0  2  0  0  0  0  0  0
  195.4300  173.9850  138.5600 C   0  0  0  0  0  2  0  0  0  0  0  0
  193.3010  174.8650  137.9200 O   0  0  0  0  0  1  0  0  0  0  0  0
  194.0040  173.6770  138.1630 C   0  0  1  0  0  3  0  0  0  0  0  0
  194.0240  172.7500  136.9250 C   0  0  2  0  0  3  0  0  0  0  0  0
  191.6460  171.6900  136.5670 C   0  0  0  0  0  0  0  0  0  0  0  0
  192.7020  172.7210  136.2320 C   0  0  1  0  0  0  0  0  0  0  0  0
  192.9850  172.6210  134.8600 O   0  0  0  0  0  1  0  0  0  0  0  0
  193.1400  171.5020  136.9420 C   0  0  2  0  0  0  0  0  0  0  0  0
  190.4180  171.1910  136.4630 C   0  0  0  0  0  2  0  0  0  0  0  0
  193.0380  171.1060  138.4280 C   0  0  0  0  0  2  0  0  0  0  0  0
  195.0830  169.8050  138.9350 C   0  0  0  0  0  1  0  0  0  0  0  0
  193.3300  168.8420  137.6450 O   0  0  0  0  0  1  0  0  0  0  0  0
  193.5930  169.7100  138.7080 C   0  0  2  0  0  3  0  0  0  0  0  0
  191.0910  171.1360  143.2770 O   0  0  0  0  0  0  0  0  0  0  0  0
  191.5830  171.1510  141.9620 C   0  0  0  0  0  2  0  0  0  0  0  0
  190.4940  171.5410  140.9640 C   0  0  0  0  0  2  0  0  0  0  0  0
  190.3730  173.4900  139.3970 C   0  0  0  0  0  2  0  0  0  0  0  0
  189.1130  173.4510  140.2380 C   0  0  1  0  0  3  0  0  0  0  0  0
  190.4360  173.0560  140.8540 C   0  0  1  0  0  3  0  0  0  0  0  0
  187.8310  175.5360  139.8250 F   0  0  0  0  0  0  0  0  0  0  0  0
  188.6330  174.8320  140.7150 C   0  0  1  0  0  3  0  0  0  0  0  0
  187.0700  174.4450  142.7120 C   0  0  0  0  0  1  0  0  0  0  0  0
  188.2590  175.0450  142.1280 N   0  0  0  0  0  0  0  0  0  0  0  0
  190.1290  176.6590  142.3850 C   0  0  0  0  0  3  0  0  0  0  0  0
  189.3300  177.2080  145.0130 C   0  0  0  0  0  0  0  0  0  0  0  0
  190.8480  177.5720  143.1560 C   0  0  0  0  0  3  0  0  0  0  0  0
  188.6170  176.2760  144.2350 C   0  0  0  0  0  3  0  0  0  0  0  0
  190.4440  177.8540  144.4640 C   0  0  0  0  0  3  0  0  0  0  0  0
  189.0060  175.9990  142.9210 C   0  0  0  0  0  0  0  0  0  0  0  0
  188.8860  177.5450  146.3800 C   0  0  0  0  0  0  0  0  0  0  0  0
  189.7140  178.0250  147.2060 O   0  0  0  0  0  0  0  0  0  0  0  0
  187.1330  176.0380  147.2640 O   0  0  0  0  0  1  0  0  0  0  0  0
  185.8470  178.0540  148.4540 O   0  0  0  0  0  1  0  0  0  0  0  0
  186.6560  179.0750  144.9790 C   0  0  0  0  0  2  0  0  0  0  0  0
  187.4650  177.3150  146.8170 C   0  0  1  0  0  0  0  0  0  0  0  0
  184.4260  178.1620  144.7010 N   0  0  0  0  0  0  0  0  0  0  0  0
  184.4190  176.6530  146.5100 O   0  0  0  0  0  0  0  0  0  0  0  0
  186.7410  178.5060  147.4770 C   0  0  1  0  0  3  0  0  0  0  0  0
  186.3690  178.0470  146.0650 C   0  0  1  0  0  0  0  0  0  0  0  0
  185.0000  177.5460  145.8330 C   0  0  0  0  0  0  0  0  0  0  0  0
  185.3660  179.1280  144.1390 C   0  0  0  0  0  3  0  0  0  0  0  0
  1  3  2  0  0  0  0
  1  5  1  0  0  0  0
  2  1  1  0  0  0  0
  4  6  2  0  0  0  0
  4  5  1  0  0  0  0
  5  7  2  0  0  0  0
  6  8  1  0  0  0  0
  7  9  1  0  0  0  0
  8  9  2  0  0  0  0
 10  6  1  0  0  0  0
 11 10  1  0  0  0  0
 11 12  1  1  0  0  0
 13 16  2  0  0  0  0
 14 17  2  0  0  0  0
 14 13  1  0  0  0  0
 15 16  1  0  0  0  0
 16 11  1  0  0  0  0
 17 15  1  0  0  0  0
 18 17  1  0  0  0  0
 19 18  1  0  0  0  0
 21 20  1  6  0  0  0
 21 19  1  0  0  0  0
 22 26  1  0  0  0  0
 22 21  1  1  0  0  0
 23 26  1  0  0  0  0
 24 25  1  6  0  0  0
 24 23  1  0  0  0  0
 24 22  1  0  0  0  0
 24 26  1  0  0  0  0
 26 28  1  1  0  0  0
 27 23  2  0  0  0  0
 28 31  1  0  0  0  0
 30 31  1  0  0  0  0
 31 29  1  6  0  0  0
 32  2  1  0  0  0  0
 33 32  1  0  0  0  0
 34 33  1  0  0  0  0
 35 36  1  0  0  0  0
 35 37  1  0  0  0  0
 36 39  1  1  0  0  0
 36 37  1  0  0  0  0
 37 34  1  6  0  0  0
 39 38  1  6  0  0  0
 39 41  1  0  0  0  0
 41 40  1  0  0  0  0
 41 47  1  0  0  0  0
 42 47  2  0  0  0  0
 42 44  1  0  0  0  0
 43 48  1  0  0  0  0
 44 46  2  0  0  0  0
 45 43  2  0  0  0  0
 46 43  1  0  0  0  0
 47 45  1  0  0  0  0
 48 53  1  0  0  0  0
 48 49  2  0  0  0  0
 53 50  1  1  0  0  0
 53 56  1  0  0  0  0
 54 58  1  0  0  0  0
 56 51  1  1  0  0  0
 57 52  1  6  0  0  0
 57 53  1  0  0  0  0
 57 56  1  0  0  0  0
 58 57  1  0  0  0  0
 58 55  2  0  0  0  0
 59 54  2  0  0  0  0
 59 52  1  0  0  0  0
M  END
>  <MODEL>
6

>  <REMARK>
 VINA RESULT:      -6.9      2.483      8.512
  Name = 
  19 active torsions:
  status: ('A' for Active; 'I' for Inactive)
    1  A    between atoms: C_1  and  C_39
    2  A    between atoms: C_1  and  C_43
    3  A    between atoms: C_3  and  C_57
    4  A    between atoms: N_5  and  C_14
    5  A    between atoms: N_5  and  C_32
    6  A    between atoms: C_12  and  C_13
    7  A    between atoms: C_19  and  C_26
    8  A    between atoms: C_22  and  C_26
    9  A    between atoms: N_23  and  O_51
   10  A    between atoms: C_27  and  C_32
   11  A    between atoms: C_28  and  N_36
   12  A    between atoms: C_28  and  C_44
   13  A    between atoms: N_36  and  C_58
   14  A    between atoms: C_43  and  C_57
   15  A    between atoms: C_46  and  C_49
   16  A    between atoms: C_49  and  C_55
   17  A    between atoms: C_50  and  C_53
   18  A    between atoms: C_50  and  C_56
   19  A    between atoms: O_51  and  C_53
                            x       y       z     vdW  Elec       q    Type
                         _______ _______ _______ _____ _____    ______ ____

>  <TORSDO>
F 19

$$$$
=
 OpenBabel11042419103D

 59 66  0  0  1  0  0  0  0  0999 V2000
  186.3340  178.4130  143.2650 C   0  0  0  0  0  0  0  0  0  0  0  0
  185.2020  177.7320  143.8220 N   0  0  0  0  0  2  0  0  0  0  0  0
  186.2780  179.6560  143.0550 O   0  0  0  0  0  0  0  0  0  0  0  0
  187.4120  176.3430  142.4200 C   0  0  0  0  0  3  0  0  0  0  0  0
  187.5310  177.6580  142.8770 C   0  0  0  0  0  0  0  0  0  0  0  0
  188.5530  175.5850  142.1450 C   0  0  0  0  0  0  0  0  0  0  0  0
  188.8030  178.2110  143.0490 C   0  0  0  0  0  3  0  0  0  0  0  0
  189.8230  176.1500  142.2800 C   0  0  0  0  0  3  0  0  0  0  0  0
  189.9550  177.4620  142.7560 C   0  0  0  0  0  3  0  0  0  0  0  0
  188.3790  174.2570  141.6450 N   0  0  0  0  0  2  0  0  0  0  0  0
  189.4670  173.2910  141.5380 C   0  0  1  0  0  3  0  0  0  0  0  0
  189.2360  172.1850  142.5460 C   0  0  0  0  0  1  0  0  0  0  0  0
  188.9400  173.2720  139.0910 N   0  0  0  0  0  0  0  0  0  0  0  0
  189.0260  172.3970  138.1080 N   0  0  0  0  0  0  0  0  0  0  0  0
  189.9140  171.4490  139.9380 N   0  0  0  0  0  2  0  0  0  0  0  0
  189.4960  172.7020  140.1760 C   0  0  0  0  0  0  0  0  0  0  0  0
  189.6220  171.3070  138.6280 C   0  0  0  0  0  0  0  0  0  0  0  0
  189.6940  170.0120  137.9080 C   0  0  0  0  0  2  0  0  0  0  0  0
  190.4960  170.2150  136.6420 C   0  0  0  0  0  2  0  0  0  0  0  0
  192.5110  168.9320  136.7560 O   0  0  0  0  0  1  0  0  0  0  0  0
  191.9760  170.2130  136.9510 C   0  0  1  0  0  3  0  0  0  0  0  0
  192.6680  171.2730  136.0620 C   0  0  2  0  0  3  0  0  0  0  0  0
  195.0280  171.8660  137.0550 C   0  0  0  0  0  0  0  0  0  0  0  0
  194.1530  171.1210  136.0710 C   0  0  1  0  0  0  0  0  0  0  0  0
  194.5850  171.4470  134.7740 O   0  0  0  0  0  1  0  0  0  0  0  0
  193.5730  172.3040  136.7380 C   0  0  2  0  0  0  0  0  0  0  0  0
  196.2020  172.1150  137.6290 C   0  0  0  0  0  2  0  0  0  0  0  0
  192.9890  172.4810  138.1530 C   0  0  0  0  0  2  0  0  0  0  0  0
  192.7840  174.7600  137.2060 C   0  0  0  0  0  1  0  0  0  0  0  0
  193.2900  174.4520  139.5120 O   0  0  0  0  0  1  0  0  0  0  0  0
  192.5650  173.9200  138.4420 C   0  0  2  0  0  3  0  0  0  0  0  0
  184.0490  178.3890  144.0710 O   0  0  0  0  0  0  0  0  0  0  0  0
  184.0780  178.7470  145.4280 C   0  0  0  0  0  2  0  0  0  0  0  0
  184.5660  177.5910  146.3000 C   0  0  0  0  0  2  0  0  0  0  0  0
  186.3110  177.1800  148.0470 C   0  0  0  0  0  2  0  0  0  0  0  0
  186.7510  176.5400  146.7470 C   0  0  1  0  0  3  0  0  0  0  0  0
  186.0040  177.8530  146.7180 C   0  0  1  0  0  3  0  0  0  0  0  0
  188.7360  178.0100  146.4990 F   0  0  0  0  0  0  0  0  0  0  0  0
  188.2480  176.7100  146.4380 C   0  0  1  0  0  3  0  0  0  0  0  0
  188.8230  174.5170  147.6380 C   0  0  0  0  0  1  0  0  0  0  0  0
  189.2250  175.7010  146.8960 N   0  0  0  0  0  0  0  0  0  0  0  0
  191.3880  176.5300  147.7930 C   0  0  0  0  0  3  0  0  0  0  0  0
  192.6590  175.9060  145.3760 C   0  0  0  0  0  0  0  0  0  0  0  0
  192.7490  176.7880  147.6340 C   0  0  0  0  0  3  0  0  0  0  0  0
  191.2820  175.6610  145.5370 C   0  0  0  0  0  3  0  0  0  0  0  0
  193.3870  176.4680  146.4320 C   0  0  0  0  0  3  0  0  0  0  0  0
  190.6400  175.9660  146.7410 C   0  0  0  0  0  0  0  0  0  0  0  0
  193.3500  175.5310  144.1270 C   0  0  0  0  0  0  0  0  0  0  0  0
  193.5790  176.4130  143.2500 O   0  0  0  0  0  0  0  0  0  0  0  0
  192.7770  173.1460  143.7990 O   0  0  0  0  0  1  0  0  0  0  0  0
  194.8880  172.7440  142.2130 O   0  0  0  0  0  1  0  0  0  0  0  0
  196.0270  174.5840  145.2280 C   0  0  0  0  0  2  0  0  0  0  0  0
  193.7780  174.1130  143.8680 C   0  0  1  0  0  0  0  0  0  0  0  0
  196.4200  172.2850  145.8950 N   0  0  0  0  0  0  0  0  0  0  0  0
  194.7960  171.2310  144.5540 O   0  0  0  0  0  0  0  0  0  0  0  0
  195.0160  173.9140  142.9700 C   0  0  1  0  0  3  0  0  0  0  0  0
  195.0900  173.6500  144.4750 C   0  0  1  0  0  0  0  0  0  0  0  0
  195.3940  172.2780  144.9280 C   0  0  0  0  0  0  0  0  0  0  0  0
  196.8790  173.6540  146.1140 C   0  0  0  0  0  3  0  0  0  0  0  0
  1  2  1  0  0  0  0
  2 32  1  0  0  0  0
  3  1  2  0  0  0  0
  4  5  1  0  0  0  0
  5  7  2  0  0  0  0
  5  1  1  0  0  0  0
  6  8  1  0  0  0  0
  6  4  2  0  0  0  0
  8  9  2  0  0  0  0
  9  7  1  0  0  0  0
 10  6  1  0  0  0  0
 11 10  1  0  0  0  0
 11 12  1  1  0  0  0
 13 16  2  0  0  0  0
 14 17  2  0  0  0  0
 14 13  1  0  0  0  0
 15 16  1  0  0  0  0
 16 11  1  0  0  0  0
 17 15  1  0  0  0  0
 18 17  1  0  0  0  0
 19 21  1  0  0  0  0
 19 18  1  0  0  0  0
 21 20  1  6  0  0  0
 22 24  1  0  0  0  0
 22 26  1  0  0  0  0
 22 21  1  1  0  0  0
 23 27  2  0  0  0  0
 24 25  1  6  0  0  0
 24 26  1  0  0  0  0
 24 23  1  0  0  0  0
 26 23  1  0  0  0  0
 26 28  1  1  0  0  0
 28 31  1  0  0  0  0
 31 29  1  6  0  0  0
 31 30  1  0  0  0  0
 32 33  1  0  0  0  0
 33 34  1  0  0  0  0
 36 39  1  1  0  0  0
 36 35  1  0  0  0  0
 37 34  1  6  0  0  0
 37 36  1  0  0  0  0
 37 35  1  0  0  0  0
 39 38  1  1  0  0  0
 39 41  1  0  0  0  0
 41 40  1  0  0  0  0
 43 45  2  0  0  0  0
 43 46  1  0  0  0  0
 44 42  1  0  0  0  0
 45 47  1  0  0  0  0
 46 44  2  0  0  0  0
 47 41  1  0  0  0  0
 47 42  2  0  0  0  0
 48 43  1  0  0  0  0
 49 48  2  0  0  0  0
 52 59  1  0  0  0  0
 53 50  1  6  0  0  0
 53 48  1  0  0  0  0
 53 57  1  0  0  0  0
 54 59  2  0  0  0  0
 55 58  2  0  0  0  0
 56 51  1  6  0  0  0
 56 53  1  0  0  0  0
 56 57  1  0  0  0  0
 57 58  1  0  0  0  0
 57 52  1  1  0  0  0
 58 54  1  0  0  0  0
M  END
>  <MODEL>
7

>  <REMARK>
 VINA RESULT:      -6.9      2.583      7.159
  Name = 
  19 active torsions:
  status: ('A' for Active; 'I' for Inactive)
    1  A    between atoms: C_1  and  C_39
    2  A    between atoms: C_1  and  C_43
    3  A    between atoms: C_3  and  C_57
    4  A    between atoms: N_5  and  C_14
    5  A    between atoms: N_5  and  C_32
    6  A    between atoms: C_12  and  C_13
    7  A    between atoms: C_19  and  C_26
    8  A    between atoms: C_22  and  C_26
    9  A    between atoms: N_23  and  O_51
   10  A    between atoms: C_27  and  C_32
   11  A    between atoms: C_28  and  N_36
   12  A    between atoms: C_28  and  C_44
   13  A    between atoms: N_36  and  C_58
   14  A    between atoms: C_43  and  C_57
   15  A    between atoms: C_46  and  C_49
   16  A    between atoms: C_49  and  C_55
   17  A    between atoms: C_50  and  C_53
   18  A    between atoms: C_50  and  C_56
   19  A    between atoms: O_51  and  C_53
                            x       y       z     vdW  Elec       q    Type
                         _______ _______ _______ _____ _____    ______ ____

>  <TORSDO>
F 19

$$$$
=
 OpenBabel11042419103D

 59 66  0  0  1  0  0  0  0  0999 V2000
  186.2510  178.2570  143.0930 C   0  0  0  0  0  0  0  0  0  0  0  0
  185.2350  177.6580  143.9100 N   0  0  0  0  0  2  0  0  0  0  0  0
  186.0430  179.3810  142.5580 O   0  0  0  0  0  0  0  0  0  0  0  0
  187.5170  176.1420  142.8140 C   0  0  0  0  0  3  0  0  0  0  0  0
  187.5010  177.5390  142.8250 C   0  0  0  0  0  0  0  0  0  0  0  0
  188.7220  175.4510  142.6600 C   0  0  0  0  0  0  0  0  0  0  0  0
  188.7010  178.2380  142.6730 C   0  0  0  0  0  3  0  0  0  0  0  0
  189.9150  176.1500  142.4680 C   0  0  0  0  0  3  0  0  0  0  0  0
  189.9130  177.5510  142.4970 C   0  0  0  0  0  3  0  0  0  0  0  0
  188.6820  174.0210  142.6180 N   0  0  0  0  0  2  0  0  0  0  0  0
  189.8440  173.1790  142.8740 C   0  0  1  0  0  3  0  0  0  0  0  0
  189.4050  171.9760  143.6810 C   0  0  0  0  0  1  0  0  0  0  0  0
  189.7720  171.9640  140.6870 N   0  0  0  0  0  0  0  0  0  0  0  0
  190.6500  171.6140  139.7650 N   0  0  0  0  0  0  0  0  0  0  0  0
  191.7350  172.8300  141.3070 N   0  0  0  0  0  2  0  0  0  0  0  0
  190.4290  172.7120  141.5920 C   0  0  0  0  0  0  0  0  0  0  0  0
  191.8250  172.1490  140.1450 C   0  0  0  0  0  0  0  0  0  0  0  0
  193.1140  171.7940  139.5020 C   0  0  0  0  0  2  0  0  0  0  0  0
  192.9100  171.7840  138.0030 C   0  0  0  0  0  2  0  0  0  0  0  0
  192.8610  173.9280  136.9450 O   0  0  0  0  0  1  0  0  0  0  0  0
  193.7100  172.8900  137.3550 C   0  0  1  0  0  3  0  0  0  0  0  0
  194.7820  173.3780  138.3580 C   0  0  2  0  0  3  0  0  0  0  0  0
  196.4680  174.9910  137.1470 C   0  0  0  0  0  0  0  0  0  0  0  0
  195.2630  174.7530  138.0310 C   0  0  1  0  0  0  0  0  0  0  0  0
  195.4980  175.3850  139.2630 O   0  0  0  0  0  1  0  0  0  0  0  0
  196.1990  173.6270  137.8380 C   0  0  2  0  0  0  0  0  0  0  0  0
  197.2800  175.7860  136.4570 C   0  0  0  0  0  2  0  0  0  0  0  0
  196.3700  172.6460  136.6630 C   0  0  0  0  0  2  0  0  0  0  0  0
  197.1320  170.3160  136.3090 C   0  0  0  0  0  1  0  0  0  0  0  0
  197.8290  171.5350  138.2320 O   0  0  0  0  0  1  0  0  0  0  0  0
  197.5200  171.6630  136.8750 C   0  0  2  0  0  3  0  0  0  0  0  0
  184.0310  178.2480  144.0670 O   0  0  0  0  0  0  0  0  0  0  0  0
  184.0180  178.7880  145.3630 C   0  0  0  0  0  2  0  0  0  0  0  0
  184.6100  177.8130  146.3790 C   0  0  0  0  0  2  0  0  0  0  0  0
  186.5850  177.8390  147.9170 C   0  0  0  0  0  2  0  0  0  0  0  0
  186.7830  176.7580  146.8760 C   0  0  1  0  0  3  0  0  0  0  0  0
  186.1070  178.0530  146.4900 C   0  0  1  0  0  3  0  0  0  0  0  0
  188.8470  177.8720  146.0640 F   0  0  0  0  0  0  0  0  0  0  0  0
  188.2200  176.6620  146.3340 C   0  0  1  0  0  3  0  0  0  0  0  0
  188.6880  174.5330  147.6860 C   0  0  0  0  0  1  0  0  0  0  0  0
  189.1440  175.6300  146.8460 N   0  0  0  0  0  0  0  0  0  0  0  0
  191.3540  176.5060  147.5620 C   0  0  0  0  0  3  0  0  0  0  0  0
  192.5650  175.3730  145.3040 C   0  0  0  0  0  0  0  0  0  0  0  0
  192.7240  176.6620  147.3530 C   0  0  0  0  0  3  0  0  0  0  0  0
  191.1790  175.2320  145.5130 C   0  0  0  0  0  3  0  0  0  0  0  0
  193.3310  176.0890  146.2320 C   0  0  0  0  0  3  0  0  0  0  0  0
  190.5670  175.7910  146.6390 C   0  0  0  0  0  0  0  0  0  0  0  0
  193.2210  174.7360  144.1470 C   0  0  0  0  0  0  0  0  0  0  0  0
  193.3220  175.3690  143.0570 O   0  0  0  0  0  0  0  0  0  0  0  0
  192.8840  172.3330  144.6340 O   0  0  0  0  0  1  0  0  0  0  0  0
  194.7460  171.6000  142.8650 O   0  0  0  0  0  1  0  0  0  0  0  0
  196.1320  174.3380  144.9510 C   0  0  0  0  0  2  0  0  0  0  0  0
  193.7640  173.3360  144.2320 C   0  0  1  0  0  0  0  0  0  0  0  0
  196.8910  172.3810  146.1670 N   0  0  0  0  0  0  0  0  0  0  0  0
  195.2060  170.8690  145.5170 O   0  0  0  0  0  0  0  0  0  0  0  0
  194.8560  172.9510  143.2140 C   0  0  1  0  0  3  0  0  0  0  0  0
  195.2010  173.1630  144.6900 C   0  0  1  0  0  0  0  0  0  0  0  0
  195.7300  172.0160  145.4540 C   0  0  0  0  0  0  0  0  0  0  0  0
  197.2160  173.7780  145.8920 C   0  0  0  0  0  3  0  0  0  0  0  0
  1  2  1  0  0  0  0
  2 32  1  0  0  0  0
  3  1  2  0  0  0  0
  4  5  1  0  0  0  0
  5  1  1  0  0  0  0
  6  4  2  0  0  0  0
  7  5  2  0  0  0  0
  8  9  2  0  0  0  0
  8  6  1  0  0  0  0
  9  7  1  0  0  0  0
 10  6  1  0  0  0  0
 10 11  1  0  0  0  0
 11 12  1  1  0  0  0
 13 16  2  0  0  0  0
 14 17  2  0  0  0  0
 14 13  1  0  0  0  0
 15 16  1  0  0  0  0
 16 11  1  0  0  0  0
 17 15  1  0  0  0  0
 18 17  1  0  0  0  0
 19 18  1  0  0  0  0
 21 20  1  1  0  0  0
 21 19  1  0  0  0  0
 22 21  1  6  0  0  0
 23 26  1  0  0  0  0
 23 24  1  0  0  0  0
 24 22  1  0  0  0  0
 24 25  1  1  0  0  0
 26 28  1  6  0  0  0
 26 24  1  0  0  0  0
 26 22  1  0  0  0  0
 27 23  2  0  0  0  0
 28 31  1  0  0  0  0
 31 29  1  1  0  0  0
 31 30  1  0  0  0  0
 32 33  1  0  0  0  0
 33 34  1  0  0  0  0
 36 39  1  6  0  0  0
 36 35  1  0  0  0  0
 37 34  1  1  0  0  0
 37 36  1  0  0  0  0
 37 35  1  0  0  0  0
 39 38  1  1  0  0  0
 39 41  1  0  0  0  0
 41 40  1  0  0  0  0
 43 45  2  0  0  0  0
 43 46  1  0  0  0  0
 44 42  1  0  0  0  0
 45 47  1  0  0  0  0
 46 44  2  0  0  0  0
 47 41  1  0  0  0  0
 47 42  2  0  0  0  0
 48 53  1  0  0  0  0
 48 43  1  0  0  0  0
 49 48  2  0  0  0  0
 52 59  1  0  0  0  0
 53 50  1  1  0  0  0
 53 57  1  0  0  0  0
 56 51  1  1  0  0  0
 56 53  1  0  0  0  0
 56 57  1  0  0  0  0
 57 52  1  1  0  0  0
 57 58  1  0  0  0  0
 58 55  2  0  0  0  0
 58 54  1  0  0  0  0
 59 54  2  0  0  0  0
M  END
>  <MODEL>
8

>  <REMARK>
 VINA RESULT:      -6.9      2.921      6.998
  Name = 
  19 active torsions:
  status: ('A' for Active; 'I' for Inactive)
    1  A    between atoms: C_1  and  C_39
    2  A    between atoms: C_1  and  C_43
    3  A    between atoms: C_3  and  C_57
    4  A    between atoms: N_5  and  C_14
    5  A    between atoms: N_5  and  C_32
    6  A    between atoms: C_12  and  C_13
    7  A    between atoms: C_19  and  C_26
    8  A    between atoms: C_22  and  C_26
    9  A    between atoms: N_23  and  O_51
   10  A    between atoms: C_27  and  C_32
   11  A    between atoms: C_28  and  N_36
   12  A    between atoms: C_28  and  C_44
   13  A    between atoms: N_36  and  C_58
   14  A    between atoms: C_43  and  C_57
   15  A    between atoms: C_46  and  C_49
   16  A    between atoms: C_49  and  C_55
   17  A    between atoms: C_50  and  C_53
   18  A    between atoms: C_50  and  C_56
   19  A    between atoms: O_51  and  C_53
                            x       y       z     vdW  Elec       q    Type
                         _______ _______ _______ _____ _____    ______ ____

>  <TORSDO>
F 19

$$$$
=
 OpenBabel11042419103D

 59 66  0  0  1  0  0  0  0  0999 V2000
  186.2520  178.2040  143.0670 C   0  0  0  0  0  0  0  0  0  0  0  0
  185.1640  177.6140  143.7920 N   0  0  0  0  0  2  0  0  0  0  0  0
  186.1600  179.3930  142.6560 O   0  0  0  0  0  0  0  0  0  0  0  0
  187.3440  176.0200  142.6230 C   0  0  0  0  0  3  0  0  0  0  0  0
  187.4420  177.4080  142.7460 C   0  0  0  0  0  0  0  0  0  0  0  0
  188.4890  175.2470  142.4180 C   0  0  0  0  0  0  0  0  0  0  0  0
  188.6960  178.0170  142.6530 C   0  0  0  0  0  3  0  0  0  0  0  0
  189.7370  175.8580  142.2860 C   0  0  0  0  0  3  0  0  0  0  0  0
  189.8500  177.2480  142.4260 C   0  0  0  0  0  3  0  0  0  0  0  0
  188.3330  173.8330  142.2620 N   0  0  0  0  0  2  0  0  0  0  0  0
  189.4360  172.9350  141.9400 C   0  0  1  0  0  3  0  0  0  0  0  0
  189.3700  171.7350  142.8590 C   0  0  0  0  0  1  0  0  0  0  0  0
  188.3580  172.8630  139.6820 N   0  0  0  0  0  0  0  0  0  0  0  0
  188.4890  172.1330  138.5910 N   0  0  0  0  0  0  0  0  0  0  0  0
  190.0670  171.4690  140.0410 N   0  0  0  0  0  2  0  0  0  0  0  0
  189.3240  172.4730  140.5340 C   0  0  0  0  0  0  0  0  0  0  0  0
  189.5250  171.3040  138.8160 C   0  0  0  0  0  0  0  0  0  0  0  0
  189.8480  170.1630  137.9250 C   0  0  0  0  0  2  0  0  0  0  0  0
  190.3840  170.7130  136.6220 C   0  0  0  0  0  2  0  0  0  0  0  0
  192.6020  171.0510  137.4510 O   0  0  0  0  0  1  0  0  0  0  0  0
  191.4970  171.7030  136.8860 C   0  0  1  0  0  3  0  0  0  0  0  0
  191.8550  172.4100  135.5590 C   0  0  2  0  0  3  0  0  0  0  0  0
  192.8530  174.7900  136.0580 C   0  0  0  0  0  0  0  0  0  0  0  0
  193.0240  173.3260  135.7160 C   0  0  1  0  0  0  0  0  0  0  0  0
  193.7460  173.2440  134.5140 O   0  0  0  0  0  1  0  0  0  0  0  0
  191.6960  173.9300  135.4830 C   0  0  2  0  0  0  0  0  0  0  0  0
  193.3380  175.9810  136.3970 C   0  0  0  0  0  2  0  0  0  0  0  0
  190.5510  174.2600  136.4600 C   0  0  0  0  0  2  0  0  0  0  0  0
  189.5460  175.9580  134.9650 C   0  0  0  0  0  1  0  0  0  0  0  0
  188.2390  174.9200  136.6620 O   0  0  0  0  0  1  0  0  0  0  0  0
  189.2720  174.6960  135.7480 C   0  0  2  0  0  3  0  0  0  0  0  0
  184.0120  178.2900  143.9910 O   0  0  0  0  0  0  0  0  0  0  0  0
  184.1400  178.9430  145.2270 C   0  0  0  0  0  2  0  0  0  0  0  0
  184.5720  177.9750  146.3270 C   0  0  0  0  0  2  0  0  0  0  0  0
  186.4250  177.6230  147.9730 C   0  0  0  0  0  2  0  0  0  0  0  0
  186.6950  176.7900  146.7380 C   0  0  1  0  0  3  0  0  0  0  0  0
  186.0570  178.1530  146.5960 C   0  0  1  0  0  3  0  0  0  0  0  0
  188.7520  178.0300  146.1130 F   0  0  0  0  0  0  0  0  0  0  0  0
  188.1680  176.7830  146.2950 C   0  0  1  0  0  3  0  0  0  0  0  0
  188.6520  174.6450  147.6270 C   0  0  0  0  0  1  0  0  0  0  0  0
  189.1050  175.7760  146.8330 N   0  0  0  0  0  0  0  0  0  0  0  0
  191.2920  176.4650  147.7870 C   0  0  0  0  0  3  0  0  0  0  0  0
  192.5550  175.9360  145.3430 C   0  0  0  0  0  0  0  0  0  0  0  0
  192.6630  176.6790  147.6500 C   0  0  0  0  0  3  0  0  0  0  0  0
  191.1680  175.7360  145.4830 C   0  0  0  0  0  3  0  0  0  0  0  0
  193.2960  176.4060  146.4340 C   0  0  0  0  0  3  0  0  0  0  0  0
  190.5300  175.9940  146.7000 C   0  0  0  0  0  0  0  0  0  0  0  0
  193.2400  175.6100  144.0770 C   0  0  0  0  0  0  0  0  0  0  0  0
  193.3310  176.4860  143.1710 O   0  0  0  0  0  0  0  0  0  0  0  0
  194.8400  173.8240  144.6910 O   0  0  0  0  0  1  0  0  0  0  0  0
  193.2110  171.9060  143.7960 O   0  0  0  0  0  1  0  0  0  0  0  0
  193.4030  174.5700  141.2190 C   0  0  0  0  0  2  0  0  0  0  0  0
  193.8230  174.2440  143.8360 C   0  0  1  0  0  0  0  0  0  0  0  0
  195.1540  173.0640  140.4800 N   0  0  0  0  0  0  0  0  0  0  0  0
  195.7010  172.0900  142.5540 O   0  0  0  0  0  0  0  0  0  0  0  0
  192.8630  173.1660  143.2950 C   0  0  1  0  0  3  0  0  0  0  0  0
  193.9450  173.7730  142.3980 C   0  0  1  0  0  0  0  0  0  0  0  0
  194.9940  172.8820  141.8690 C   0  0  0  0  0  0  0  0  0  0  0  0
  194.2000  174.0610  140.0030 C   0  0  0  0  0  3  0  0  0  0  0  0
  1  2  1  0  0  0  0
  2 32  1  0  0  0  0
  3  1  2  0  0  0  0
  4  5  1  0  0  0  0
  5  1  1  0  0  0  0
  6  4  2  0  0  0  0
  7  5  2  0  0  0  0
  8  6  1  0  0  0  0
  8  9  2  0  0  0  0
  9  7  1  0  0  0  0
 10  6  1  0  0  0  0
 11 10  1  0  0  0  0
 11 12  1  1  0  0  0
 13 16  2  0  0  0  0
 14 17  2  0  0  0  0
 14 13  1  0  0  0  0
 15 16  1  0  0  0  0
 16 11  1  0  0  0  0
 17 15  1  0  0  0  0
 18 17  1  0  0  0  0
 19 21  1  0  0  0  0
 19 18  1  0  0  0  0
 21 20  1  6  0  0  0
 22 24  1  0  0  0  0
 22 21  1  1  0  0  0
 23 27  2  0  0  0  0
 24 25  1  6  0  0  0
 24 23  1  0  0  0  0
 26 22  1  0  0  0  0
 26 24  1  0  0  0  0
 26 23  1  0  0  0  0
 26 28  1  1  0  0  0
 31 29  1  1  0  0  0
 31 28  1  0  0  0  0
 31 30  1  0  0  0  0
 32 33  1  0  0  0  0
 33 34  1  0  0  0  0
 36 39  1  6  0  0  0
 36 35  1  0  0  0  0
 37 34  1  1  0  0  0
 37 36  1  0  0  0  0
 37 35  1  0  0  0  0
 39 38  1  1  0  0  0
 39 41  1  0  0  0  0
 41 40  1  0  0  0  0
 43 45  2  0  0  0  0
 43 46  1  0  0  0  0
 44 42  1  0  0  0  0
 45 47  1  0  0  0  0
 46 44  2  0  0  0  0
 47 41  1  0  0  0  0
 47 42  2  0  0  0  0
 48 43  1  0  0  0  0
 49 48  2  0  0  0  0
 53 48  1  0  0  0  0
 53 50  1  1  0  0  0
 54 58  1  0  0  0  0
 56 51  1  1  0  0  0
 56 53  1  0  0  0  0
 57 52  1  6  0  0  0
 57 56  1  0  0  0  0
 57 53  1  0  0  0  0
 58 57  1  0  0  0  0
 58 55  2  0  0  0  0
 59 54  2  0  0  0  0
 59 52  1  0  0  0  0
M  END
>  <MODEL>
9

>  <REMARK>
 VINA RESULT:      -6.9      2.631      7.217
  Name = 
  19 active torsions:
  status: ('A' for Active; 'I' for Inactive)
    1  A    between atoms: C_1  and  C_39
    2  A    between atoms: C_1  and  C_43
    3  A    between atoms: C_3  and  C_57
    4  A    between atoms: N_5  and  C_14
    5  A    between atoms: N_5  and  C_32
    6  A    between atoms: C_12  and  C_13
    7  A    between atoms: C_19  and  C_26
    8  A    between atoms: C_22  and  C_26
    9  A    between atoms: N_23  and  O_51
   10  A    between atoms: C_27  and  C_32
   11  A    between atoms: C_28  and  N_36
   12  A    between atoms: C_28  and  C_44
   13  A    between atoms: N_36  and  C_58
   14  A    between atoms: C_43  and  C_57
   15  A    between atoms: C_46  and  C_49
   16  A    between atoms: C_49  and  C_55
   17  A    between atoms: C_50  and  C_53
   18  A    between atoms: C_50  and  C_56
   19  A    between atoms: O_51  and  C_53
                            x       y       z     vdW  Elec       q    Type
                         _______ _______ _______ _____ _____    ______ ____

>  <TORSDO>
F 19

$$$$
