=
 OpenBabel11042414473D

 28 28  0  0  1  0  0  0  0  0999 V2000
  189.0400  175.5130  142.3270 C   0  0  1  0  0  3  0  0  0  0  0  0
  189.8330  177.0030  146.2670 C   0  0  0  0  0  3  0  0  0  0  0  0
  189.1560  174.6670  147.5160 Cl  0  0  0  0  0  0  0  0  0  0  0  0
  189.3190  176.0250  143.7140 C   0  0  2  0  0  3  0  0  0  0  0  0
  189.3880  175.6900  146.1140 C   0  0  0  0  0  0  0  0  0  0  0  0
  190.0070  177.7950  145.1750 N   0  0  0  0  0  0  0  0  0  0  0  0
  189.9410  178.1160  142.9350 O   0  0  0  0  0  0  0  0  0  0  0  0
  189.1260  175.2030  144.8340 C   0  0  0  0  0  3  0  0  0  0  0  0
  189.7650  177.3420  143.9150 C   0  0  0  0  0  0  0  0  0  0  0  0
  189.8040  174.2070  142.0360 C   0  0  1  0  0  3  0  0  0  0  0  0
  189.1610  173.3870  140.9210 C   0  0  0  0  0  1  0  0  0  0  0  0
  191.2680  174.4980  141.7280 C   0  0  0  0  0  2  0  0  0  0  0  0
  192.1840  173.9810  142.8290 C   0  0  0  0  0  2  0  0  0  0  0  0
  193.0660  175.0910  143.3800 C   0  0  1  0  0  3  0  0  0  0  0  0
  192.8980  176.2970  142.5860 N   0  0  0  0  0  1  0  0  0  0  0  0
  192.7100  175.3500  144.7050 O   0  0  0  0  0  0  0  0  0  0  0  0
  193.9040  176.4640  146.4420 C   0  0  0  0  0  1  0  0  0  0  0  0
  193.3630  176.5420  145.0260 C   0  0  0  0  0  2  0  0  0  0  0  0
  187.5340  175.4450  142.0630 C   0  0  0  0  0  2  0  0  0  0  0  0
  187.0620  176.6550  141.2720 C   0  0  0  0  0  2  0  0  0  0  0  0
  186.1060  177.4340  142.0460 N   0  0  0  0  0  2  0  0  0  0  0  0
  185.7660  176.6960  143.1320 O   0  0  0  0  0  0  0  0  0  0  0  0
  185.3870  177.6300  144.0980 C   0  0  2  0  0  3  0  0  0  0  0  0
  185.5600  178.9690  143.5600 N   0  0  0  0  0  1  0  0  0  0  0  0
  186.2500  177.4550  145.3400 C   0  0  0  0  0  2  0  0  0  0  0  0
  186.0210  177.3810  147.8230 O   0  0  0  0  0  1  0  0  0  0  0  0
  185.4220  177.5240  146.5780 C   0  0  0  0  0  0  0  0  0  0  0  0
  184.1770  177.6950  146.4960 O   0  0  0  0  0  0  0  0  0  0  0  0
  1 19  1  1  0  0  0
  4  1  1  1  0  0  0
  4  9  1  0  0  0  0
  4  8  1  0  0  0  0
  5  2  1  0  0  0  0
  5  3  1  0  0  0  0
  6  2  2  0  0  0  0
  7  9  2  0  0  0  0
  8  5  2  0  0  0  0
  9  6  1  0  0  0  0
 10 11  1  6  0  0  0
 10  1  1  0  0  0  0
 12 10  1  0  0  0  0
 12 13  1  0  0  0  0
 13 14  1  0  0  0  0
 14 15  1  6  0  0  0
 14 16  1  0  0  0  0
 16 18  1  0  0  0  0
 18 17  1  0  0  0  0
 20 21  1  0  0  0  0
 20 19  1  0  0  0  0
 21 22  1  0  0  0  0
 22 23  1  0  0  0  0
 23 24  1  6  0  0  0
 23 25  1  0  0  0  0
 25 27  1  0  0  0  0
 27 26  1  0  0  0  0
 28 27  2  0  0  0  0
M  END
>  <MODEL>
1

>  <REMARK>
 VINA RESULT:      -5.2      0.000      0.000
  Name = 
  14 active torsions:
  status: ('A' for Active; 'I' for Inactive)
    1  A    between atoms: C_4  and  C_20
    2  A    between atoms: C_4  and  C_21
    3  A    between atoms: C_6  and  C_14
    4  A    between atoms: C_6  and  C_24
    5  A    between atoms: C_7  and  C_21
    6  A    between atoms: C_9  and  C_16
    7  A    between atoms: C_9  and  C_20
    8  A    between atoms: N_10  and  O_13
    9  A    between atoms: N_10  and  C_27
   10  A    between atoms: C_11  and  O_19
   11  A    between atoms: O_13  and  C_24
   12  A    between atoms: C_16  and  O_19
   13  A    between atoms: C_21  and  C_23
   14  A    between atoms: C_23  and  C_27
                            x       y       z     vdW  Elec       q    Type
                         _______ _______ _______ _____ _____    ______ ____

>  <TORSDO>
F 14

$$$$
=
 OpenBabel11042414473D

 28 28  0  0  1  0  0  0  0  0999 V2000
  188.7110  177.1480  143.5230 C   0  0  1  0  0  3  0  0  0  0  0  0
  189.1230  173.0250  142.4280 C   0  0  0  0  0  3  0  0  0  0  0  0
  189.9530  172.2300  144.9090 Cl  0  0  0  0  0  0  0  0  0  0  0  0
  188.8560  175.6980  143.1500 C   0  0  2  0  0  3  0  0  0  0  0  0
  189.4180  173.4130  143.7350 C   0  0  0  0  0  0  0  0  0  0  0  0
  188.7120  173.9490  141.5180 N   0  0  0  0  0  0  0  0  0  0  0  0
  188.1880  176.0800  140.9650 O   0  0  0  0  0  0  0  0  0  0  0  0
  189.2890  174.7550  144.0930 C   0  0  0  0  0  3  0  0  0  0  0  0
  188.5710  175.2620  141.8440 C   0  0  0  0  0  0  0  0  0  0  0  0
  187.3530  177.4330  144.1920 C   0  0  1  0  0  3  0  0  0  0  0  0
  186.2720  176.4420  143.7690 C   0  0  0  0  0  1  0  0  0  0  0  0
  187.4980  177.4720  145.7090 C   0  0  0  0  0  2  0  0  0  0  0  0
  186.4070  176.6620  146.3960 C   0  0  0  0  0  2  0  0  0  0  0  0
  185.4250  177.5650  147.1250 C   0  0  1  0  0  3  0  0  0  0  0  0
  186.0170  178.8780  147.3280 N   0  0  0  0  0  1  0  0  0  0  0  0
  184.2590  177.6910  146.3660 O   0  0  0  0  0  0  0  0  0  0  0  0
  183.9090  179.0010  144.4050 C   0  0  0  0  0  1  0  0  0  0  0  0
  184.2900  178.9980  145.8750 C   0  0  0  0  0  2  0  0  0  0  0  0
  189.9280  177.6310  144.3160 C   0  0  0  0  0  2  0  0  0  0  0  0
  191.1640  177.6970  143.4330 C   0  0  0  0  0  2  0  0  0  0  0  0
  192.3660  177.4280  144.2120 N   0  0  0  0  0  2  0  0  0  0  0  0
  192.2750  176.1550  144.6710 O   0  0  0  0  0  0  0  0  0  0  0  0
  192.7290  176.2150  145.9900 C   0  0  2  0  0  3  0  0  0  0  0  0
  194.1650  175.9900  146.0110 N   0  0  0  0  0  1  0  0  0  0  0  0
  192.0250  175.1500  146.8190 C   0  0  0  0  0  2  0  0  0  0  0  0
  190.6580  177.0220  147.7400 O   0  0  0  0  0  1  0  0  0  0  0  0
  190.7600  175.6790  147.4040 C   0  0  0  0  0  0  0  0  0  0  0  0
  189.7880  174.9040  147.6120 O   0  0  0  0  0  0  0  0  0  0  0  0
  1 10  1  0  0  0  0
  1 19  1  1  0  0  0
  2  5  1  0  0  0  0
  4  1  1  6  0  0  0
  4  8  1  0  0  0  0
  5  8  2  0  0  0  0
  5  3  1  0  0  0  0
  6  9  1  0  0  0  0
  6  2  2  0  0  0  0
  7  9  2  0  0  0  0
  9  4  1  0  0  0  0
 10 11  1  1  0  0  0
 10 12  1  0  0  0  0
 12 13  1  0  0  0  0
 13 14  1  0  0  0  0
 14 15  1  6  0  0  0
 16 14  1  0  0  0  0
 17 18  1  0  0  0  0
 18 16  1  0  0  0  0
 20 21  1  0  0  0  0
 20 19  1  0  0  0  0
 21 22  1  0  0  0  0
 22 23  1  0  0  0  0
 23 24  1  6  0  0  0
 23 25  1  0  0  0  0
 25 27  1  0  0  0  0
 27 28  2  0  0  0  0
 27 26  1  0  0  0  0
M  END
>  <MODEL>
2

>  <REMARK>
 VINA RESULT:      -5.2      2.302      6.257
  Name = 
  14 active torsions:
  status: ('A' for Active; 'I' for Inactive)
    1  A    between atoms: C_4  and  C_20
    2  A    between atoms: C_4  and  C_21
    3  A    between atoms: C_6  and  C_14
    4  A    between atoms: C_6  and  C_24
    5  A    between atoms: C_7  and  C_21
    6  A    between atoms: C_9  and  C_16
    7  A    between atoms: C_9  and  C_20
    8  A    between atoms: N_10  and  O_13
    9  A    between atoms: N_10  and  C_27
   10  A    between atoms: C_11  and  O_19
   11  A    between atoms: O_13  and  C_24
   12  A    between atoms: C_16  and  O_19
   13  A    between atoms: C_21  and  C_23
   14  A    between atoms: C_23  and  C_27
                            x       y       z     vdW  Elec       q    Type
                         _______ _______ _______ _____ _____    ______ ____

>  <TORSDO>
F 14

$$$$
=
 OpenBabel11042414473D

 28 28  0  0  1  0  0  0  0  0999 V2000
  188.9110  176.9940  143.1130 C   0  0  1  0  0  3  0  0  0  0  0  0
  189.1660  173.0140  141.5410 C   0  0  0  0  0  3  0  0  0  0  0  0
  191.8850  173.0720  141.2620 Cl  0  0  0  0  0  0  0  0  0  0  0  0
  189.0120  175.5970  142.5630 C   0  0  2  0  0  3  0  0  0  0  0  0
  190.3350  173.7580  141.7010 C   0  0  0  0  0  0  0  0  0  0  0  0
  187.9640  173.5530  141.8800 N   0  0  0  0  0  0  0  0  0  0  0  0
  186.7220  175.2670  142.6820 O   0  0  0  0  0  0  0  0  0  0  0  0
  190.2550  175.0540  142.2090 C   0  0  0  0  0  3  0  0  0  0  0  0
  187.8590  174.8130  142.3840 C   0  0  0  0  0  0  0  0  0  0  0  0
  189.9780  177.2620  144.1920 C   0  0  1  0  0  3  0  0  0  0  0  0
  190.9330  178.3890  143.8050 C   0  0  0  0  0  1  0  0  0  0  0  0
  189.3210  177.5390  145.5390 C   0  0  0  0  0  2  0  0  0  0  0  0
  189.5820  176.4110  146.5290 C   0  0  0  0  0  2  0  0  0  0  0  0
  191.0590  176.3140  146.8800 C   0  0  1  0  0  3  0  0  0  0  0  0
  191.2930  176.8840  148.1970 N   0  0  0  0  0  1  0  0  0  0  0  0
  191.4480  174.9730  146.8760 O   0  0  0  0  0  0  0  0  0  0  0  0
  192.8110  175.0270  144.9210 C   0  0  0  0  0  1  0  0  0  0  0  0
  192.7740  174.9860  146.4380 C   0  0  0  0  0  2  0  0  0  0  0  0
  188.8730  178.0240  141.9810 C   0  0  0  0  0  2  0  0  0  0  0  0
  187.4430  178.3220  141.5600 C   0  0  0  0  0  2  0  0  0  0  0  0
  186.6500  178.7540  142.7030 N   0  0  0  0  0  2  0  0  0  0  0  0
  185.3810  178.3180  142.5040 O   0  0  0  0  0  0  0  0  0  0  0  0
  184.8530  178.1520  143.7860 C   0  0  2  0  0  3  0  0  0  0  0  0
  183.6730  178.9890  143.9280 N   0  0  0  0  0  1  0  0  0  0  0  0
  185.8970  178.5470  144.8210 C   0  0  0  0  0  2  0  0  0  0  0  0
  185.1900  178.7320  147.2060 O   0  0  0  0  0  1  0  0  0  0  0  0
  185.5940  177.9330  146.1450 C   0  0  0  0  0  0  0  0  0  0  0  0
  185.7210  176.6900  146.3080 O   0  0  0  0  0  0  0  0  0  0  0  0
  1 19  1  6  0  0  0
  1 10  1  0  0  0  0
  2  5  1  0  0  0  0
  2  6  2  0  0  0  0
  3  5  1  0  0  0  0
  4  1  1  6  0  0  0
  5  8  2  0  0  0  0
  6  9  1  0  0  0  0
  8  4  1  0  0  0  0
  9  4  1  0  0  0  0
  9  7  2  0  0  0  0
 10 11  1  6  0  0  0
 10 12  1  0  0  0  0
 12 13  1  0  0  0  0
 13 14  1  0  0  0  0
 14 15  1  1  0  0  0
 16 14  1  0  0  0  0
 17 18  1  0  0  0  0
 18 16  1  0  0  0  0
 20 19  1  0  0  0  0
 20 21  1  0  0  0  0
 22 21  1  0  0  0  0
 22 23  1  0  0  0  0
 23 24  1  6  0  0  0
 23 25  1  0  0  0  0
 25 27  1  0  0  0  0
 27 28  2  0  0  0  0
 27 26  1  0  0  0  0
M  END
>  <MODEL>
3

>  <REMARK>
 VINA RESULT:      -5.1      2.393      3.740
  Name = 
  14 active torsions:
  status: ('A' for Active; 'I' for Inactive)
    1  A    between atoms: C_4  and  C_20
    2  A    between atoms: C_4  and  C_21
    3  A    between atoms: C_6  and  C_14
    4  A    between atoms: C_6  and  C_24
    5  A    between atoms: C_7  and  C_21
    6  A    between atoms: C_9  and  C_16
    7  A    between atoms: C_9  and  C_20
    8  A    between atoms: N_10  and  O_13
    9  A    between atoms: N_10  and  C_27
   10  A    between atoms: C_11  and  O_19
   11  A    between atoms: O_13  and  C_24
   12  A    between atoms: C_16  and  O_19
   13  A    between atoms: C_21  and  C_23
   14  A    between atoms: C_23  and  C_27
                            x       y       z     vdW  Elec       q    Type
                         _______ _______ _______ _____ _____    ______ ____

>  <TORSDO>
F 14

$$$$
=
 OpenBabel11042414473D

 28 28  0  0  1  0  0  0  0  0999 V2000
  189.6940  175.3020  144.9840 C   0  0  1  0  0  3  0  0  0  0  0  0
  188.6690  178.0910  141.8940 C   0  0  0  0  0  3  0  0  0  0  0  0
  186.1290  177.1310  141.5770 Cl  0  0  0  0  0  0  0  0  0  0  0  0
  189.3230  176.2790  143.9010 C   0  0  2  0  0  3  0  0  0  0  0  0
  187.7180  177.1590  142.3110 C   0  0  0  0  0  0  0  0  0  0  0  0
  189.9040  178.1070  142.4640 N   0  0  0  0  0  0  0  0  0  0  0  0
  191.4070  177.2880  143.9440 O   0  0  0  0  0  0  0  0  0  0  0  0
  188.0500  176.2480  143.3130 C   0  0  0  0  0  3  0  0  0  0  0  0
  190.2500  177.2330  143.4490 C   0  0  0  0  0  0  0  0  0  0  0  0
  188.8810  175.5400  146.2710 C   0  0  1  0  0  3  0  0  0  0  0  0
  189.1450  174.4790  147.3360 C   0  0  0  0  0  1  0  0  0  0  0  0
  189.1370  176.9400  146.8160 C   0  0  0  0  0  2  0  0  0  0  0  0
  187.8760  177.7930  146.7810 C   0  0  0  0  0  2  0  0  0  0  0  0
  186.6290  176.9310  146.6650 C   0  0  1  0  0  3  0  0  0  0  0  0
  185.8840  176.9680  147.9130 N   0  0  0  0  0  1  0  0  0  0  0  0
  185.8270  177.4130  145.6280 O   0  0  0  0  0  0  0  0  0  0  0  0
  185.5860  179.4410  144.4000 C   0  0  0  0  0  1  0  0  0  0  0  0
  185.8880  178.8030  145.7440 C   0  0  0  0  0  2  0  0  0  0  0  0
  189.6530  173.8650  144.4590 C   0  0  0  0  0  2  0  0  0  0  0  0
  191.0140  173.4370  143.9310 C   0  0  0  0  0  2  0  0  0  0  0  0
  192.0800  173.9720  144.7660 N   0  0  0  0  0  2  0  0  0  0  0  0
  193.2040  174.0200  144.0080 O   0  0  0  0  0  0  0  0  0  0  0  0
  193.9530  175.0700  144.5410 C   0  0  2  0  0  3  0  0  0  0  0  0
  195.3390  174.9270  144.1240 N   0  0  0  0  0  1  0  0  0  0  0  0
  193.8630  175.0390  146.0600 C   0  0  0  0  0  2  0  0  0  0  0  0
  194.5660  177.4020  146.4410 O   0  0  0  0  0  0  0  0  0  0  0  0
  193.6160  176.4030  146.6080 C   0  0  0  0  0  0  0  0  0  0  0  0
  192.5520  176.6470  147.2380 O   0  0  0  0  0  1  0  0  0  0  0  0
  1 19  1  6  0  0  0
  1 10  1  0  0  0  0
  2  5  1  0  0  0  0
  2  6  2  0  0  0  0
  3  5  1  0  0  0  0
  4  1  1  6  0  0  0
  5  8  2  0  0  0  0
  6  9  1  0  0  0  0
  8  4  1  0  0  0  0
  9  4  1  0  0  0  0
  9  7  2  0  0  0  0
 10 12  1  0  0  0  0
 10 11  1  1  0  0  0
 13 12  1  0  0  0  0
 14 13  1  0  0  0  0
 14 15  1  1  0  0  0
 16 18  1  0  0  0  0
 16 14  1  0  0  0  0
 17 18  1  0  0  0  0
 20 19  1  0  0  0  0
 20 21  1  0  0  0  0
 22 23  1  0  0  0  0
 22 21  1  0  0  0  0
 23 24  1  1  0  0  0
 23 25  1  0  0  0  0
 25 27  1  0  0  0  0
 26 27  2  0  0  0  0
 27 28  1  0  0  0  0
M  END
>  <MODEL>
4

>  <REMARK>
 VINA RESULT:      -5.0      2.489      6.626
  Name = 
  14 active torsions:
  status: ('A' for Active; 'I' for Inactive)
    1  A    between atoms: C_4  and  C_20
    2  A    between atoms: C_4  and  C_21
    3  A    between atoms: C_6  and  C_14
    4  A    between atoms: C_6  and  C_24
    5  A    between atoms: C_7  and  C_21
    6  A    between atoms: C_9  and  C_16
    7  A    between atoms: C_9  and  C_20
    8  A    between atoms: N_10  and  O_13
    9  A    between atoms: N_10  and  C_27
   10  A    between atoms: C_11  and  O_19
   11  A    between atoms: O_13  and  C_24
   12  A    between atoms: C_16  and  O_19
   13  A    between atoms: C_21  and  C_23
   14  A    between atoms: C_23  and  C_27
                            x       y       z     vdW  Elec       q    Type
                         _______ _______ _______ _____ _____    ______ ____

>  <TORSDO>
F 14

$$$$
=
 OpenBabel11042414473D

 28 28  0  0  1  0  0  0  0  0999 V2000
  188.6970  177.0670  143.8430 C   0  0  1  0  0  3  0  0  0  0  0  0
  192.4490  175.5890  142.3920 C   0  0  0  0  0  3  0  0  0  0  0  0
  191.4950  173.0830  141.8550 Cl  0  0  0  0  0  0  0  0  0  0  0  0
  190.0090  176.5390  143.3290 C   0  0  2  0  0  3  0  0  0  0  0  0
  191.3460  174.7360  142.4130 C   0  0  0  0  0  0  0  0  0  0  0  0
  192.3290  176.8710  142.8310 N   0  0  0  0  0  0  0  0  0  0  0  0
  191.0870  178.5570  143.6890 O   0  0  0  0  0  0  0  0  0  0  0  0
  190.1240  175.2130  142.8880 C   0  0  0  0  0  3  0  0  0  0  0  0
  191.1470  177.3620  143.2930 C   0  0  0  0  0  0  0  0  0  0  0  0
  187.6300  177.1260  142.7330 C   0  0  1  0  0  3  0  0  0  0  0  0
  186.4870  176.1420  142.9650 C   0  0  0  0  0  1  0  0  0  0  0  0
  187.1050  178.5470  142.5680 C   0  0  0  0  0  2  0  0  0  0  0  0
  185.5840  178.5930  142.6380 C   0  0  0  0  0  2  0  0  0  0  0  0
  185.1100  179.4800  143.7790 C   0  0  1  0  0  3  0  0  0  0  0  0
  183.7650  179.0970  144.1780 N   0  0  0  0  0  1  0  0  0  0  0  0
  185.9770  179.3400  144.8650 O   0  0  0  0  0  0  0  0  0  0  0  0
  185.6930  179.1290  147.2220 C   0  0  0  0  0  1  0  0  0  0  0  0
  185.2210  178.6950  145.8460 C   0  0  0  0  0  2  0  0  0  0  0  0
  188.2640  176.3170  145.1060 C   0  0  0  0  0  2  0  0  0  0  0  0
  188.5400  177.1430  146.3530 C   0  0  0  0  0  2  0  0  0  0  0  0
  189.5810  176.5220  147.1600 N   0  0  0  0  0  2  0  0  0  0  0  0
  190.7740  176.9810  146.7060 O   0  0  0  0  0  0  0  0  0  0  0  0
  191.6170  175.8690  146.7230 C   0  0  2  0  0  3  0  0  0  0  0  0
  191.4920  175.1940  148.0040 N   0  0  0  0  0  1  0  0  0  0  0  0
  193.0560  176.3190  146.5140 C   0  0  0  0  0  2  0  0  0  0  0  0
  195.2800  175.2280  146.2170 O   0  0  0  0  0  1  0  0  0  0  0  0
  193.9040  175.1900  146.0340 C   0  0  0  0  0  0  0  0  0  0  0  0
  193.3750  174.2090  145.4480 O   0  0  0  0  0  0  0  0  0  0  0  0
  1 19  1  1  0  0  0
  2  5  1  0  0  0  0
  2  6  2  0  0  0  0
  3  5  1  0  0  0  0
  4  1  1  1  0  0  0
  5  8  2  0  0  0  0
  6  9  1  0  0  0  0
  8  4  1  0  0  0  0
  9  4  1  0  0  0  0
  9  7  2  0  0  0  0
 10 11  1  1  0  0  0
 10  1  1  0  0  0  0
 12 13  1  0  0  0  0
 12 10  1  0  0  0  0
 13 14  1  0  0  0  0
 14 15  1  1  0  0  0
 14 16  1  0  0  0  0
 16 18  1  0  0  0  0
 18 17  1  0  0  0  0
 19 20  1  0  0  0  0
 20 21  1  0  0  0  0
 22 23  1  0  0  0  0
 22 21  1  0  0  0  0
 23 24  1  1  0  0  0
 25 23  1  0  0  0  0
 27 26  1  0  0  0  0
 27 25  1  0  0  0  0
 28 27  2  0  0  0  0
M  END
>  <MODEL>
5

>  <REMARK>
 VINA RESULT:      -5.0      2.240      6.483
  Name = 
  14 active torsions:
  status: ('A' for Active; 'I' for Inactive)
    1  A    between atoms: C_4  and  C_20
    2  A    between atoms: C_4  and  C_21
    3  A    between atoms: C_6  and  C_14
    4  A    between atoms: C_6  and  C_24
    5  A    between atoms: C_7  and  C_21
    6  A    between atoms: C_9  and  C_16
    7  A    between atoms: C_9  and  C_20
    8  A    between atoms: N_10  and  O_13
    9  A    between atoms: N_10  and  C_27
   10  A    between atoms: C_11  and  O_19
   11  A    between atoms: O_13  and  C_24
   12  A    between atoms: C_16  and  O_19
   13  A    between atoms: C_21  and  C_23
   14  A    between atoms: C_23  and  C_27
                            x       y       z     vdW  Elec       q    Type
                         _______ _______ _______ _____ _____    ______ ____

>  <TORSDO>
F 14

$$$$
=
 OpenBabel11042414473D

 28 28  0  0  1  0  0  0  0  0999 V2000
  189.5580  176.1780  144.8880 C   0  0  1  0  0  3  0  0  0  0  0  0
  193.2100  173.9700  145.2950 C   0  0  0  0  0  3  0  0  0  0  0  0
  194.5570  176.0130  146.5130 Cl  0  0  0  0  0  0  0  0  0  0  0  0
  190.8440  175.4100  145.0390 C   0  0  2  0  0  3  0  0  0  0  0  0
  193.1530  175.2810  145.7670 C   0  0  0  0  0  0  0  0  0  0  0  0
  192.1170  173.4070  144.7120 N   0  0  0  0  0  0  0  0  0  0  0  0
  189.9630  173.5220  144.0270 O   0  0  0  0  0  0  0  0  0  0  0  0
  191.9670  176.0030  145.6330 C   0  0  0  0  0  3  0  0  0  0  0  0
  190.9470  174.0880  144.5750 C   0  0  0  0  0  0  0  0  0  0  0  0
  188.5890  175.9030  146.0540 C   0  0  1  0  0  3  0  0  0  0  0  0
  189.2190  175.0470  147.1500 C   0  0  0  0  0  1  0  0  0  0  0  0
  188.0490  177.2100  146.6230 C   0  0  0  0  0  2  0  0  0  0  0  0
  186.6120  177.0580  147.1030 C   0  0  0  0  0  2  0  0  0  0  0  0
  186.1580  178.2830  147.8820 C   0  0  1  0  0  3  0  0  0  0  0  0
  187.3140  179.0030  148.3900 N   0  0  0  0  0  1  0  0  0  0  0  0
  185.4190  179.1190  147.0420 O   0  0  0  0  0  0  0  0  0  0  0  0
  183.6920  179.0410  145.4010 C   0  0  0  0  0  1  0  0  0  0  0  0
  184.4230  178.3000  146.5070 C   0  0  0  0  0  2  0  0  0  0  0  0
  189.8360  177.6590  144.6230 C   0  0  0  0  0  2  0  0  0  0  0  0
  190.0700  177.9150  143.1420 C   0  0  0  0  0  2  0  0  0  0  0  0
  189.2920  176.9880  142.3310 N   0  0  0  0  0  2  0  0  0  0  0  0
  188.3580  177.7150  141.6690 O   0  0  0  0  0  0  0  0  0  0  0  0
  187.3440  176.8050  141.3630 C   0  0  2  0  0  3  0  0  0  0  0  0
  186.7100  177.2000  140.1160 N   0  0  0  0  0  1  0  0  0  0  0  0
  186.3160  176.7930  142.4860 C   0  0  0  0  0  2  0  0  0  0  0  0
  185.9640  179.2400  142.8180 O   0  0  0  0  0  1  0  0  0  0  0  0
  185.4540  178.0080  142.4320 C   0  0  0  0  0  0  0  0  0  0  0  0
  184.2560  177.9150  142.0530 O   0  0  0  0  0  0  0  0  0  0  0  0
  1 19  1  1  0  0  0
  1 10  1  0  0  0  0
  2  5  1  0  0  0  0
  4  1  1  6  0  0  0
  4  8  1  0  0  0  0
  5  3  1  0  0  0  0
  6  2  2  0  0  0  0
  7  9  2  0  0  0  0
  8  5  2  0  0  0  0
  9  6  1  0  0  0  0
  9  4  1  0  0  0  0
 10 12  1  0  0  0  0
 10 11  1  1  0  0  0
 12 13  1  0  0  0  0
 13 14  1  0  0  0  0
 14 15  1  6  0  0  0
 16 14  1  0  0  0  0
 17 18  1  0  0  0  0
 18 16  1  0  0  0  0
 20 19  1  0  0  0  0
 21 20  1  0  0  0  0
 22 21  1  0  0  0  0
 23 24  1  6  0  0  0
 23 22  1  0  0  0  0
 23 25  1  0  0  0  0
 27 25  1  0  0  0  0
 27 26  1  0  0  0  0
 28 27  2  0  0  0  0
M  END
>  <MODEL>
6

>  <REMARK>
 VINA RESULT:      -5.0      2.475      5.621
  Name = 
  14 active torsions:
  status: ('A' for Active; 'I' for Inactive)
    1  A    between atoms: C_4  and  C_20
    2  A    between atoms: C_4  and  C_21
    3  A    between atoms: C_6  and  C_14
    4  A    between atoms: C_6  and  C_24
    5  A    between atoms: C_7  and  C_21
    6  A    between atoms: C_9  and  C_16
    7  A    between atoms: C_9  and  C_20
    8  A    between atoms: N_10  and  O_13
    9  A    between atoms: N_10  and  C_27
   10  A    between atoms: C_11  and  O_19
   11  A    between atoms: O_13  and  C_24
   12  A    between atoms: C_16  and  O_19
   13  A    between atoms: C_21  and  C_23
   14  A    between atoms: C_23  and  C_27
                            x       y       z     vdW  Elec       q    Type
                         _______ _______ _______ _____ _____    ______ ____

>  <TORSDO>
F 14

$$$$
=
 OpenBabel11042414473D

 28 28  0  0  1  0  0  0  0  0999 V2000
  189.2480  175.9490  145.6840 C   0  0  1  0  0  3  0  0  0  0  0  0
  190.7510  174.0920  142.1250 C   0  0  0  0  0  3  0  0  0  0  0  0
  189.6950  171.6380  142.7050 Cl  0  0  0  0  0  0  0  0  0  0  0  0
  189.7680  175.2880  144.4360 C   0  0  2  0  0  3  0  0  0  0  0  0
  190.0070  173.3310  143.0260 C   0  0  0  0  0  0  0  0  0  0  0  0
  190.9940  175.4060  142.3810 N   0  0  0  0  0  0  0  0  0  0  0  0
  190.7770  177.2360  143.6940 O   0  0  0  0  0  0  0  0  0  0  0  0
  189.5190  173.9310  144.1870 C   0  0  0  0  0  3  0  0  0  0  0  0
  190.5240  176.0170  143.5020 C   0  0  0  0  0  0  0  0  0  0  0  0
  187.7100  176.0530  145.6760 C   0  0  1  0  0  3  0  0  0  0  0  0
  187.1670  176.7870  146.8990 C   0  0  0  0  0  1  0  0  0  0  0  0
  187.2230  176.7020  144.3860 C   0  0  0  0  0  2  0  0  0  0  0  0
  187.1720  178.2190  144.5080 C   0  0  0  0  0  2  0  0  0  0  0  0
  185.9340  178.7870  143.8320 C   0  0  1  0  0  3  0  0  0  0  0  0
  186.0620  178.6710  142.3880 N   0  0  0  0  0  1  0  0  0  0  0  0
  184.8080  178.0800  144.2590 O   0  0  0  0  0  0  0  0  0  0  0  0
  184.0730  178.3070  146.5150 C   0  0  0  0  0  1  0  0  0  0  0  0
  184.1540  178.9440  145.1400 C   0  0  0  0  0  2  0  0  0  0  0  0
  189.8370  175.2920  146.9350 C   0  0  0  0  0  2  0  0  0  0  0  0
  190.8200  176.2230  147.6290 C   0  0  0  0  0  2  0  0  0  0  0  0
  192.0050  176.4250  146.8060 N   0  0  0  0  0  2  0  0  0  0  0  0
  192.7730  175.3130  146.9210 O   0  0  0  0  0  0  0  0  0  0  0  0
  193.3470  175.1390  145.6600 C   0  0  2  0  0  3  0  0  0  0  0  0
  193.0700  173.7910  145.1910 N   0  0  0  0  0  1  0  0  0  0  0  0
  194.8500  175.3570  145.7520 C   0  0  0  0  0  2  0  0  0  0  0  0
  194.9460  177.8500  145.7600 O   0  0  0  0  0  1  0  0  0  0  0  0
  195.2410  176.6520  145.1240 C   0  0  0  0  0  0  0  0  0  0  0  0
  195.8240  176.6600  144.0070 O   0  0  0  0  0  0  0  0  0  0  0  0
  1 19  1  1  0  0  0
  2  6  2  0  0  0  0
  2  5  1  0  0  0  0
  3  5  1  0  0  0  0
  4  1  1  1  0  0  0
  5  8  2  0  0  0  0
  6  9  1  0  0  0  0
  8  4  1  0  0  0  0
  9  7  2  0  0  0  0
  9  4  1  0  0  0  0
 10  1  1  0  0  0  0
 10 11  1  1  0  0  0
 12 13  1  0  0  0  0
 12 10  1  0  0  0  0
 14 15  1  6  0  0  0
 14 16  1  0  0  0  0
 14 13  1  0  0  0  0
 16 18  1  0  0  0  0
 18 17  1  0  0  0  0
 19 20  1  0  0  0  0
 21 22  1  0  0  0  0
 21 20  1  0  0  0  0
 23 24  1  1  0  0  0
 23 25  1  0  0  0  0
 23 22  1  0  0  0  0
 27 25  1  0  0  0  0
 27 26  1  0  0  0  0
 28 27  2  0  0  0  0
M  END
>  <MODEL>
7

>  <REMARK>
 VINA RESULT:      -5.0      2.199      7.079
  Name = 
  14 active torsions:
  status: ('A' for Active; 'I' for Inactive)
    1  A    between atoms: C_4  and  C_20
    2  A    between atoms: C_4  and  C_21
    3  A    between atoms: C_6  and  C_14
    4  A    between atoms: C_6  and  C_24
    5  A    between atoms: C_7  and  C_21
    6  A    between atoms: C_9  and  C_16
    7  A    between atoms: C_9  and  C_20
    8  A    between atoms: N_10  and  O_13
    9  A    between atoms: N_10  and  C_27
   10  A    between atoms: C_11  and  O_19
   11  A    between atoms: O_13  and  C_24
   12  A    between atoms: C_16  and  O_19
   13  A    between atoms: C_21  and  C_23
   14  A    between atoms: C_23  and  C_27
                            x       y       z     vdW  Elec       q    Type
                         _______ _______ _______ _____ _____    ______ ____

>  <TORSDO>
F 14

$$$$
=
 OpenBabel11042414473D

 28 28  0  0  1  0  0  0  0  0999 V2000
  188.9800  176.3410  143.2480 C   0  0  1  0  0  3  0  0  0  0  0  0
  190.8970  173.1320  141.1490 C   0  0  0  0  0  3  0  0  0  0  0  0
  193.4180  174.1330  141.4920 Cl  0  0  0  0  0  0  0  0  0  0  0  0
  189.6630  175.2170  142.5160 C   0  0  2  0  0  3  0  0  0  0  0  0
  191.6780  174.1580  141.6820 C   0  0  0  0  0  0  0  0  0  0  0  0
  189.5450  173.1580  141.2960 N   0  0  0  0  0  0  0  0  0  0  0  0
  187.6600  174.1440  142.0690 O   0  0  0  0  0  0  0  0  0  0  0  0
  191.0570  175.2050  142.3630 C   0  0  0  0  0  3  0  0  0  0  0  0
  188.9150  174.1650  141.9610 C   0  0  0  0  0  0  0  0  0  0  0  0
  189.5230  176.5020  144.6810 C   0  0  1  0  0  3  0  0  0  0  0  0
  189.2780  177.8990  145.2470 C   0  0  0  0  0  1  0  0  0  0  0  0
  188.9460  175.4310  145.5980 C   0  0  0  0  0  2  0  0  0  0  0  0
  190.0240  174.4730  146.0870 C   0  0  0  0  0  2  0  0  0  0  0  0
  191.2550  175.2260  146.5670 C   0  0  1  0  0  3  0  0  0  0  0  0
  191.2360  175.3340  148.0160 N   0  0  0  0  0  1  0  0  0  0  0  0
  192.4040  174.5400  146.1660 O   0  0  0  0  0  0  0  0  0  0  0  0
  193.2060  176.5330  145.1320 C   0  0  0  0  0  1  0  0  0  0  0  0
  193.4250  175.4910  146.2140 C   0  0  0  0  0  2  0  0  0  0  0  0
  188.9900  177.6230  142.4120 C   0  0  0  0  0  2  0  0  0  0  0  0
  187.7300  177.7360  141.5690 C   0  0  0  0  0  2  0  0  0  0  0  0
  186.6990  178.4780  142.2830 N   0  0  0  0  0  2  0  0  0  0  0  0
  185.7180  177.6000  142.6060 O   0  0  0  0  0  0  0  0  0  0  0  0
  185.3150  177.9680  143.8910 C   0  0  2  0  0  3  0  0  0  0  0  0
  185.9780  179.2070  144.2630 N   0  0  0  0  0  1  0  0  0  0  0  0
  185.6850  176.8670  144.8750 C   0  0  0  0  0  2  0  0  0  0  0  0
  184.1290  177.7520  146.6120 O   0  0  0  0  0  0  0  0  0  0  0  0
  185.3920  177.2830  146.2760 C   0  0  0  0  0  0  0  0  0  0  0  0
  186.2940  177.2250  147.1530 O   0  0  0  0  0  1  0  0  0  0  0  0
  1 19  1  6  0  0  0
  1 10  1  0  0  0  0
  2  6  2  0  0  0  0
  2  5  1  0  0  0  0
  3  5  1  0  0  0  0
  4  1  1  6  0  0  0
  5  8  2  0  0  0  0
  6  9  1  0  0  0  0
  8  4  1  0  0  0  0
  9  7  2  0  0  0  0
  9  4  1  0  0  0  0
 10 11  1  1  0  0  0
 10 12  1  0  0  0  0
 12 13  1  0  0  0  0
 13 14  1  0  0  0  0
 14 15  1  1  0  0  0
 16 18  1  0  0  0  0
 16 14  1  0  0  0  0
 17 18  1  0  0  0  0
 20 21  1  0  0  0  0
 20 19  1  0  0  0  0
 21 22  1  0  0  0  0
 22 23  1  0  0  0  0
 23 24  1  1  0  0  0
 23 25  1  0  0  0  0
 25 27  1  0  0  0  0
 27 26  2  0  0  0  0
 27 28  1  0  0  0  0
M  END
>  <MODEL>
8

>  <REMARK>
 VINA RESULT:      -5.0      2.244      3.669
  Name = 
  14 active torsions:
  status: ('A' for Active; 'I' for Inactive)
    1  A    between atoms: C_4  and  C_20
    2  A    between atoms: C_4  and  C_21
    3  A    between atoms: C_6  and  C_14
    4  A    between atoms: C_6  and  C_24
    5  A    between atoms: C_7  and  C_21
    6  A    between atoms: C_9  and  C_16
    7  A    between atoms: C_9  and  C_20
    8  A    between atoms: N_10  and  O_13
    9  A    between atoms: N_10  and  C_27
   10  A    between atoms: C_11  and  O_19
   11  A    between atoms: O_13  and  C_24
   12  A    between atoms: C_16  and  O_19
   13  A    between atoms: C_21  and  C_23
   14  A    between atoms: C_23  and  C_27
                            x       y       z     vdW  Elec       q    Type
                         _______ _______ _______ _____ _____    ______ ____

>  <TORSDO>
F 14

$$$$
=
 OpenBabel11042414473D

 28 28  0  0  1  0  0  0  0  0999 V2000
  188.4900  177.0300  145.0710 C   0  0  1  0  0  3  0  0  0  0  0  0
  187.8200  175.7440  141.0380 C   0  0  0  0  0  3  0  0  0  0  0  0
  186.0850  177.7760  140.4550 Cl  0  0  0  0  0  0  0  0  0  0  0  0
  188.2500  176.5890  143.6530 C   0  0  2  0  0  3  0  0  0  0  0  0
  187.1660  176.8850  141.5050 C   0  0  0  0  0  0  0  0  0  0  0  0
  188.6560  175.0530  141.8590 N   0  0  0  0  0  0  0  0  0  0  0  0
  189.6690  174.7700  143.8620 O   0  0  0  0  0  0  0  0  0  0  0  0
  187.3790  177.3040  142.8180 C   0  0  0  0  0  3  0  0  0  0  0  0
  188.8860  175.4450  143.1410 C   0  0  0  0  0  0  0  0  0  0  0  0
  187.8820  176.0430  146.0870 C   0  0  1  0  0  3  0  0  0  0  0  0
  188.9430  175.3550  146.9430 C   0  0  0  0  0  1  0  0  0  0  0  0
  186.8430  176.7400  146.9570 C   0  0  0  0  0  2  0  0  0  0  0  0
  185.5580  177.0090  146.1850 C   0  0  0  0  0  2  0  0  0  0  0  0
  184.7120  178.0690  146.8730 C   0  0  1  0  0  3  0  0  0  0  0  0
  185.5730  179.0460  147.5200 N   0  0  0  0  0  1  0  0  0  0  0  0
  183.9110  178.7090  145.9250 O   0  0  0  0  0  0  0  0  0  0  0  0
  185.1680  179.8400  144.2450 C   0  0  0  0  0  1  0  0  0  0  0  0
  184.5730  178.5230  144.7100 C   0  0  0  0  0  2  0  0  0  0  0  0
  189.9690  177.3530  145.3000 C   0  0  0  0  0  2  0  0  0  0  0  0
  190.4960  178.2900  144.2250 C   0  0  0  0  0  2  0  0  0  0  0  0
  191.7550  177.7940  143.6840 N   0  0  0  0  0  2  0  0  0  0  0  0
  192.2420  176.8820  144.5610 O   0  0  0  0  0  0  0  0  0  0  0  0
  193.3870  176.3690  143.9490 C   0  0  2  0  0  3  0  0  0  0  0  0
  193.0790  175.0720  143.3700 N   0  0  0  0  0  1  0  0  0  0  0  0
  194.4950  176.2250  144.9820 C   0  0  0  0  0  2  0  0  0  0  0  0
  196.2780  176.7820  143.3290 O   0  0  0  0  0  0  0  0  0  0  0  0
  195.8030  175.9410  144.3260 C   0  0  0  0  0  0  0  0  0  0  0  0
  196.4720  174.9270  144.6630 O   0  0  0  0  0  1  0  0  0  0  0  0
  1 19  1  1  0  0  0
  1 10  1  0  0  0  0
  2  5  1  0  0  0  0
  2  6  2  0  0  0  0
  3  5  1  0  0  0  0
  4  1  1  1  0  0  0
  5  8  2  0  0  0  0
  6  9  1  0  0  0  0
  8  4  1  0  0  0  0
  9  4  1  0  0  0  0
  9  7  2  0  0  0  0
 10 11  1  1  0  0  0
 10 12  1  0  0  0  0
 13 14  1  0  0  0  0
 13 12  1  0  0  0  0
 14 15  1  6  0  0  0
 16 14  1  0  0  0  0
 17 18  1  0  0  0  0
 18 16  1  0  0  0  0
 20 19  1  0  0  0  0
 21 20  1  0  0  0  0
 21 22  1  0  0  0  0
 23 24  1  1  0  0  0
 23 22  1  0  0  0  0
 23 25  1  0  0  0  0
 26 27  2  0  0  0  0
 27 28  1  0  0  0  0
 27 25  1  0  0  0  0
M  END
>  <MODEL>
9

>  <REMARK>
 VINA RESULT:      -5.0      2.603      7.423
  Name = 
  14 active torsions:
  status: ('A' for Active; 'I' for Inactive)
    1  A    between atoms: C_4  and  C_20
    2  A    between atoms: C_4  and  C_21
    3  A    between atoms: C_6  and  C_14
    4  A    between atoms: C_6  and  C_24
    5  A    between atoms: C_7  and  C_21
    6  A    between atoms: C_9  and  C_16
    7  A    between atoms: C_9  and  C_20
    8  A    between atoms: N_10  and  O_13
    9  A    between atoms: N_10  and  C_27
   10  A    between atoms: C_11  and  O_19
   11  A    between atoms: O_13  and  C_24
   12  A    between atoms: C_16  and  O_19
   13  A    between atoms: C_21  and  C_23
   14  A    between atoms: C_23  and  C_27
                            x       y       z     vdW  Elec       q    Type
                         _______ _______ _______ _____ _____    ______ ____

>  <TORSDO>
F 14

$$$$
