=
 OpenBabel11042419223D

 42 47  0  0  1  0  0  0  0  0999 V2000
  190.7830  172.9540  141.8080 C   0  0  2  0  0  3  0  0  0  0  0  0
  190.7690  172.5390  140.3850 C   0  0  1  0  0  3  0  0  0  0  0  0
  190.8170  170.1850  141.0730 C   0  0  0  0  0  0  0  0  0  0  0  0
  190.6420  171.0890  140.1600 N   0  0  0  0  0  0  0  0  0  0  0  0
  190.5540  171.8650  142.8540 C   0  0  1  0  0  3  0  0  0  0  0  0
  189.5450  173.0620  141.0140 N   0  0  0  0  0  0  0  0  0  0  0  0
  191.0510  170.5710  142.4200 N   0  0  0  0  0  2  0  0  0  0  0  0
  190.6910  168.4520  140.6430 S   0  0  0  0  0  0  0  0  0  0  0  0
  191.6770  168.6390  139.1270 C   0  0  0  0  0  2  0  0  0  0  0  0
  190.3230  169.3640  137.1820 C   0  0  0  0  0  1  0  0  0  0  0  0
  190.8810  168.1670  137.9260 C   0  0  0  0  0  2  0  0  0  0  0  0
  189.4040  174.4540  140.5870 C   0  0  0  0  0  2  0  0  0  0  0  0
  187.3760  174.2080  142.1180 C   0  0  0  0  0  1  0  0  0  0  0  0
  188.2090  175.1500  141.2550 C   0  0  1  0  0  3  0  0  0  0  0  0
  188.7460  176.6350  142.1800 S   0  0  0  0  0  0  0  0  0  0  0  0
  185.3980  177.9840  141.5880 C   0  0  0  0  0  0  0  0  0  0  0  0
  185.6380  177.2730  140.3960 N   0  0  0  0  0  0  0  0  0  0  0  0
  187.0220  177.2120  140.1280 N   0  0  0  0  0  0  0  0  0  0  0  0
  186.5730  178.3210  142.1750 C   0  0  0  0  0  0  0  0  0  0  0  0
  185.3920  179.3370  144.0000 C   0  0  0  0  0  3  0  0  0  0  0  0
  186.6160  179.0120  143.3870 C   0  0  0  0  0  3  0  0  0  0  0  0
  187.6790  177.8420  141.2990 C   0  0  1  0  0  3  0  0  0  0  0  0
  184.1660  178.2570  142.1800 C   0  0  0  0  0  3  0  0  0  0  0  0
  184.1700  178.9510  143.4040 C   0  0  0  0  0  3  0  0  0  0  0  0
  191.1440  172.2670  144.1880 C   0  0  0  0  0  2  0  0  0  0  0  0
  192.2680  173.2560  143.9260 C   0  0  0  0  0  2  0  0  0  0  0  0
  192.4740  175.9940  143.0510 C   0  0  0  0  0  1  0  0  0  0  0  0
  191.7240  175.5700  144.3210 C   0  0  2  0  0  3  0  0  0  0  0  0
  191.7260  176.7330  145.3340 C   0  0  2  0  0  3  0  0  0  0  0  0
  193.6050  174.5480  145.4140 C   0  0  0  0  0  2  0  0  0  0  0  0
  192.2740  176.3110  146.7000 C   0  0  0  0  0  2  0  0  0  0  0  0
  193.6130  175.5710  146.5590 C   0  0  0  0  0  2  0  0  0  0  0  0
  192.2470  174.3260  144.9200 N   0  0  0  0  0  0  0  0  0  0  0  0
  190.3480  177.2860  145.4920 C   0  0  0  0  0  0  0  0  0  0  0  0
  189.4330  176.6560  146.4010 N   0  0  0  0  0  2  0  0  0  0  0  0
  190.0110  178.2980  144.8250 O   0  0  0  0  0  0  0  0  0  0  0  0
  187.0470  176.3570  146.0080 C   0  0  0  0  0  3  0  0  0  0  0  0
  188.0780  177.0380  146.6640 C   0  0  0  0  0  0  0  0  0  0  0  0
  185.4010  177.7500  147.1090 C   0  0  0  0  0  3  0  0  0  0  0  0
  185.7120  176.7080  146.2280 C   0  0  0  0  0  3  0  0  0  0  0  0
  186.4240  178.4400  147.7610 C   0  0  0  0  0  3  0  0  0  0  0  0
  187.7600  178.0910  147.5380 C   0  0  0  0  0  3  0  0  0  0  0  0
  1  6  1  6  0  0  0
  1  5  1  0  0  0  0
  2  4  1  1  0  0  0
  2  6  1  0  0  0  0
  2  1  1  0  0  0  0
  3  7  1  0  0  0  0
  4  3  2  0  0  0  0
  5 25  1  1  0  0  0
  7  5  1  0  0  0  0
  8  3  1  0  0  0  0
  9  8  1  0  0  0  0
 10 11  1  0  0  0  0
 11  9  1  0  0  0  0
 12  6  1  0  0  0  0
 12 14  1  0  0  0  0
 14 13  1  1  0  0  0
 14 15  1  0  0  0  0
 16 19  2  0  0  0  0
 16 23  1  0  0  0  0
 17 16  1  0  0  0  0
 18 17  2  0  0  0  0
 18 22  1  0  0  0  0
 19 21  1  0  0  0  0
 21 20  2  0  0  0  0
 22 19  1  0  0  0  0
 22 15  1  1  0  0  0
 23 24  2  0  0  0  0
 24 20  1  0  0  0  0
 26 25  1  0  0  0  0
 26 33  1  0  0  0  0
 28 27  1  6  0  0  0
 28 33  1  0  0  0  0
 28 29  1  0  0  0  0
 29 34  1  1  0  0  0
 29 31  1  0  0  0  0
 30 32  1  0  0  0  0
 32 31  1  0  0  0  0
 33 30  1  0  0  0  0
 34 35  1  0  0  0  0
 35 38  1  0  0  0  0
 36 34  2  0  0  0  0
 37 40  2  0  0  0  0
 37 38  1  0  0  0  0
 38 42  2  0  0  0  0
 39 41  2  0  0  0  0
 40 39  1  0  0  0  0
 42 41  1  0  0  0  0
M  END
>  <MODEL>
1

>  <REMARK>
 VINA RESULT:      -7.1      0.000      0.000
  Name = 
  12 active torsions:
  status: ('A' for Active; 'I' for Inactive)
    1  A    between atoms: C_7  and  C_8
    2  A    between atoms: N_11  and  C_19
    3  A    between atoms: C_12  and  C_29
    4  A    between atoms: S_15  and  C_29
    5  A    between atoms: S_15  and  C_32
    6  A    between atoms: C_18  and  C_26
    7  A    between atoms: C_18  and  N_35
    8  A    between atoms: S_22  and  C_26
    9  A    between atoms: S_22  and  C_31
   10  A    between atoms: N_30  and  C_40
   11  A    between atoms: C_34  and  C_39
   12  A    between atoms: C_39  and  C_40
                            x       y       z     vdW  Elec       q    Type
                         _______ _______ _______ _____ _____    ______ ____

>  <TORSDO>
F 12

$$$$
=
 OpenBabel11042419223D

 42 47  0  0  1  0  0  0  0  0999 V2000
  190.9880  173.2920  141.2990 C   0  0  2  0  0  3  0  0  0  0  0  0
  190.1620  172.1130  141.6490 C   0  0  1  0  0  3  0  0  0  0  0  0
  192.1390  171.0130  142.5960 C   0  0  0  0  0  0  0  0  0  0  0  0
  190.8530  171.0810  142.4400 N   0  0  0  0  0  0  0  0  0  0  0  0
  192.3980  173.3550  141.8810 C   0  0  1  0  0  3  0  0  0  0  0  0
  190.0460  173.3550  142.4300 N   0  0  0  0  0  0  0  0  0  0  0  0
  192.9740  172.0350  142.0710 N   0  0  0  0  0  2  0  0  0  0  0  0
  192.8500  169.6650  143.5350 S   0  0  0  0  0  0  0  0  0  0  0  0
  194.4570  170.4940  143.7250 C   0  0  0  0  0  2  0  0  0  0  0  0
  194.0200  172.1180  145.5460 C   0  0  0  0  0  1  0  0  0  0  0  0
  194.7080  170.8160  145.1860 C   0  0  0  0  0  2  0  0  0  0  0  0
  188.8360  174.0390  141.9730 C   0  0  0  0  0  2  0  0  0  0  0  0
  189.5420  176.4780  142.2350 C   0  0  0  0  0  1  0  0  0  0  0  0
  188.6060  175.3690  142.7050 C   0  0  1  0  0  3  0  0  0  0  0  0
  186.8480  175.8700  142.6210 S   0  0  0  0  0  0  0  0  0  0  0  0
  185.3380  178.6240  144.4960 C   0  0  0  0  0  0  0  0  0  0  0  0
  185.4900  179.1950  143.2180 N   0  0  0  0  0  0  0  0  0  0  0  0
  186.5710  178.5960  142.5360 N   0  0  0  0  0  0  0  0  0  0  0  0
  186.2180  177.6050  144.6600 C   0  0  0  0  0  0  0  0  0  0  0  0
  185.3380  177.1720  146.8510 C   0  0  0  0  0  3  0  0  0  0  0  0
  186.2580  176.8520  145.8350 C   0  0  0  0  0  3  0  0  0  0  0  0
  187.0460  177.5090  143.4250 C   0  0  1  0  0  3  0  0  0  0  0  0
  184.3880  178.9490  145.4640 C   0  0  0  0  0  3  0  0  0  0  0  0
  184.3980  178.2100  146.6610 C   0  0  0  0  0  3  0  0  0  0  0  0
  193.2930  174.2340  141.0340 C   0  0  0  0  0  2  0  0  0  0  0  0
  194.7250  173.7540  141.2080 C   0  0  0  0  0  2  0  0  0  0  0  0
  195.6800  176.4290  141.6960 C   0  0  0  0  0  1  0  0  0  0  0  0
  195.0500  175.5480  142.7830 C   0  0  2  0  0  3  0  0  0  0  0  0
  195.6020  175.9580  144.1640 C   0  0  2  0  0  3  0  0  0  0  0  0
  196.6380  173.7510  142.6260 C   0  0  0  0  0  2  0  0  0  0  0  0
  196.1940  174.7710  144.9280 C   0  0  0  0  0  2  0  0  0  0  0  0
  197.1700  173.9740  144.0490 C   0  0  0  0  0  2  0  0  0  0  0  0
  195.2210  174.1030  142.5370 N   0  0  0  0  0  0  0  0  0  0  0  0
  194.5300  176.6000  144.9810 C   0  0  0  0  0  0  0  0  0  0  0  0
  193.2450  175.9690  145.0840 N   0  0  0  0  0  2  0  0  0  0  0  0
  194.7720  177.6860  145.5700 O   0  0  0  0  0  0  0  0  0  0  0  0
  192.0500  176.2500  147.1880 C   0  0  0  0  0  3  0  0  0  0  0  0
  192.1030  176.4470  145.8050 C   0  0  0  0  0  0  0  0  0  0  0  0
  189.8850  177.3310  147.2780 C   0  0  0  0  0  3  0  0  0  0  0  0
  190.9480  176.6910  147.9260 C   0  0  0  0  0  3  0  0  0  0  0  0
  189.9260  177.5230  145.8960 C   0  0  0  0  0  3  0  0  0  0  0  0
  191.0290  177.0790  145.1580 C   0  0  0  0  0  3  0  0  0  0  0  0
  1  2  1  0  0  0  0
  1  5  1  0  0  0  0
  1  6  1  1  0  0  0
  2  6  1  0  0  0  0
  2  4  1  1  0  0  0
  3  8  1  0  0  0  0
  4  3  2  0  0  0  0
  5 25  1  6  0  0  0
  5  7  1  0  0  0  0
  7  3  1  0  0  0  0
  8  9  1  0  0  0  0
  9 11  1  0  0  0  0
 11 10  1  0  0  0  0
 12  6  1  0  0  0  0
 12 14  1  0  0  0  0
 14 13  1  6  0  0  0
 15 14  1  0  0  0  0
 16 19  2  0  0  0  0
 16 23  1  0  0  0  0
 17 16  1  0  0  0  0
 18 17  2  0  0  0  0
 18 22  1  0  0  0  0
 19 21  1  0  0  0  0
 21 20  2  0  0  0  0
 22 15  1  6  0  0  0
 22 19  1  0  0  0  0
 23 24  2  0  0  0  0
 24 20  1  0  0  0  0
 25 26  1  0  0  0  0
 26 33  1  0  0  0  0
 28 27  1  6  0  0  0
 28 29  1  0  0  0  0
 29 31  1  0  0  0  0
 29 34  1  1  0  0  0
 30 32  1  0  0  0  0
 32 31  1  0  0  0  0
 33 30  1  0  0  0  0
 33 28  1  0  0  0  0
 34 35  1  0  0  0  0
 34 36  2  0  0  0  0
 35 38  1  0  0  0  0
 37 40  1  0  0  0  0
 38 37  2  0  0  0  0
 39 40  2  0  0  0  0
 41 39  1  0  0  0  0
 42 38  1  0  0  0  0
 42 41  2  0  0  0  0
M  END
>  <MODEL>
2

>  <REMARK>
 VINA RESULT:      -7.1      2.438      4.028
  Name = 
  12 active torsions:
  status: ('A' for Active; 'I' for Inactive)
    1  A    between atoms: C_7  and  C_8
    2  A    between atoms: N_11  and  C_19
    3  A    between atoms: C_12  and  C_29
    4  A    between atoms: S_15  and  C_29
    5  A    between atoms: S_15  and  C_32
    6  A    between atoms: C_18  and  C_26
    7  A    between atoms: C_18  and  N_35
    8  A    between atoms: S_22  and  C_26
    9  A    between atoms: S_22  and  C_31
   10  A    between atoms: N_30  and  C_40
   11  A    between atoms: C_34  and  C_39
   12  A    between atoms: C_39  and  C_40
                            x       y       z     vdW  Elec       q    Type
                         _______ _______ _______ _____ _____    ______ ____

>  <TORSDO>
F 12

$$$$
=
 OpenBabel11042419223D

 42 47  0  0  1  0  0  0  0  0999 V2000
  189.5530  175.4990  142.8090 C   0  0  2  0  0  3  0  0  0  0  0  0
  189.2630  176.6220  143.7300 C   0  0  1  0  0  3  0  0  0  0  0  0
  187.3630  177.2800  142.3260 C   0  0  0  0  0  0  0  0  0  0  0  0
  188.0240  177.3640  143.4380 N   0  0  0  0  0  0  0  0  0  0  0  0
  188.4990  175.1730  141.7520 C   0  0  1  0  0  3  0  0  0  0  0  0
  188.9430  175.2410  144.1260 N   0  0  0  0  0  0  0  0  0  0  0  0
  187.7610  176.3510  141.3290 N   0  0  0  0  0  2  0  0  0  0  0  0
  185.9040  178.2890  142.0820 S   0  0  0  0  0  0  0  0  0  0  0  0
  185.0290  177.5690  143.5050 C   0  0  0  0  0  2  0  0  0  0  0  0
  185.2640  179.9380  144.1950 C   0  0  0  0  0  1  0  0  0  0  0  0
  184.4520  178.6710  144.3740 C   0  0  0  0  0  2  0  0  0  0  0  0
  190.0010  174.7980  145.0340 C   0  0  0  0  0  2  0  0  0  0  0  0
  188.7710  175.2580  147.2220 C   0  0  0  0  0  1  0  0  0  0  0  0
  189.9910  175.5700  146.3620 C   0  0  1  0  0  3  0  0  0  0  0  0
  191.5580  175.3260  147.2750 S   0  0  0  0  0  0  0  0  0  0  0  0
  194.9280  175.0520  145.8790 C   0  0  0  0  0  0  0  0  0  0  0  0
  194.8140  176.4400  146.0870 N   0  0  0  0  0  0  0  0  0  0  0  0
  193.4620  176.8400  146.0120 N   0  0  0  0  0  0  0  0  0  0  0  0
  193.6970  174.4950  145.7600 C   0  0  0  0  0  0  0  0  0  0  0  0
  194.6830  172.3190  145.5270 C   0  0  0  0  0  3  0  0  0  0  0  0
  193.5280  173.1220  145.5710 C   0  0  0  0  0  3  0  0  0  0  0  0
  192.6870  175.5860  145.8500 C   0  0  1  0  0  3  0  0  0  0  0  0
  196.0940  174.2870  145.8750 C   0  0  0  0  0  3  0  0  0  0  0  0
  195.9620  172.8980  145.6900 C   0  0  0  0  0  3  0  0  0  0  0  0
  189.1210  174.4550  140.5740 C   0  0  0  0  0  2  0  0  0  0  0  0
  189.0170  172.9600  140.8260 C   0  0  0  0  0  2  0  0  0  0  0  0
  191.0320  171.9470  139.0310 C   0  0  0  0  0  1  0  0  0  0  0  0
  191.3570  172.5880  140.3870 C   0  0  2  0  0  3  0  0  0  0  0  0
  192.6870  172.0190  140.9220 C   0  0  2  0  0  3  0  0  0  0  0  0
  190.0980  171.0380  141.7250 C   0  0  0  0  0  2  0  0  0  0  0  0
  192.5470  171.4460  142.3340 C   0  0  0  0  0  2  0  0  0  0  0  0
  191.3470  170.4920  142.4320 C   0  0  0  0  0  2  0  0  0  0  0  0
  190.2700  172.4480  141.3750 N   0  0  0  0  0  0  0  0  0  0  0  0
  193.7460  173.0720  140.9060 C   0  0  0  0  0  0  0  0  0  0  0  0
  194.5300  173.3040  142.0860 N   0  0  0  0  0  2  0  0  0  0  0  0
  193.9350  173.7390  139.8560 O   0  0  0  0  0  0  0  0  0  0  0  0
  196.8990  173.8470  142.2480 C   0  0  0  0  0  3  0  0  0  0  0  0
  195.5670  174.2760  142.2560 C   0  0  0  0  0  0  0  0  0  0  0  0
  197.6520  176.1200  142.6110 C   0  0  0  0  0  3  0  0  0  0  0  0
  197.9410  174.7630  142.4220 C   0  0  0  0  0  3  0  0  0  0  0  0
  196.3260  176.5540  142.6300 C   0  0  0  0  0  3  0  0  0  0  0  0
  195.2840  175.6360  142.4580 C   0  0  0  0  0  3  0  0  0  0  0  0
  1  2  1  0  0  0  0
  1  6  1  1  0  0  0
  2  4  1  6  0  0  0
  2  6  1  0  0  0  0
  3  4  2  0  0  0  0
  5 25  1  6  0  0  0
  5  1  1  0  0  0  0
  6 12  1  0  0  0  0
  7  5  1  0  0  0  0
  7  3  1  0  0  0  0
  8  3  1  0  0  0  0
  8  9  1  0  0  0  0
  9 11  1  0  0  0  0
 10 11  1  0  0  0  0
 12 14  1  0  0  0  0
 14 13  1  1  0  0  0
 14 15  1  0  0  0  0
 16 17  1  0  0  0  0
 18 17  2  0  0  0  0
 19 22  1  0  0  0  0
 19 16  2  0  0  0  0
 20 21  2  0  0  0  0
 20 24  1  0  0  0  0
 21 19  1  0  0  0  0
 22 18  1  0  0  0  0
 22 15  1  1  0  0  0
 23 16  1  0  0  0  0
 24 23  2  0  0  0  0
 25 26  1  0  0  0  0
 26 33  1  0  0  0  0
 28 27  1  6  0  0  0
 28 29  1  0  0  0  0
 28 33  1  0  0  0  0
 29 34  1  1  0  0  0
 29 31  1  0  0  0  0
 30 32  1  0  0  0  0
 31 32  1  0  0  0  0
 33 30  1  0  0  0  0
 34 35  1  0  0  0  0
 35 38  1  0  0  0  0
 36 34  2  0  0  0  0
 37 38  2  0  0  0  0
 37 40  1  0  0  0  0
 38 42  1  0  0  0  0
 39 41  1  0  0  0  0
 40 39  2  0  0  0  0
 42 41  2  0  0  0  0
M  END
>  <MODEL>
3

>  <REMARK>
 VINA RESULT:      -7.0      2.923      8.772
  Name = 
  12 active torsions:
  status: ('A' for Active; 'I' for Inactive)
    1  A    between atoms: C_7  and  C_8
    2  A    between atoms: N_11  and  C_19
    3  A    between atoms: C_12  and  C_29
    4  A    between atoms: S_15  and  C_29
    5  A    between atoms: S_15  and  C_32
    6  A    between atoms: C_18  and  C_26
    7  A    between atoms: C_18  and  N_35
    8  A    between atoms: S_22  and  C_26
    9  A    between atoms: S_22  and  C_31
   10  A    between atoms: N_30  and  C_40
   11  A    between atoms: C_34  and  C_39
   12  A    between atoms: C_39  and  C_40
                            x       y       z     vdW  Elec       q    Type
                         _______ _______ _______ _____ _____    ______ ____

>  <TORSDO>
F 12

$$$$
=
 OpenBabel11042419223D

 42 47  0  0  1  0  0  0  0  0999 V2000
  188.6790  177.2840  144.4710 C   0  0  2  0  0  3  0  0  0  0  0  0
  187.7570  178.0200  145.3670 C   0  0  1  0  0  3  0  0  0  0  0  0
  186.0040  177.9020  143.6550 C   0  0  0  0  0  0  0  0  0  0  0  0
  186.3730  178.1380  144.8750 N   0  0  0  0  0  0  0  0  0  0  0  0
  188.0780  176.6480  143.2190 C   0  0  1  0  0  3  0  0  0  0  0  0
  188.0790  176.6090  145.6350 N   0  0  0  0  0  0  0  0  0  0  0  0
  186.9400  177.3960  142.7140 N   0  0  0  0  0  2  0  0  0  0  0  0
  184.2950  178.1460  143.1800 S   0  0  0  0  0  0  0  0  0  0  0  0
  184.6970  178.3740  141.4220 C   0  0  0  0  0  2  0  0  0  0  0  0
  182.2190  178.3150  141.4070 C   0  0  0  0  0  1  0  0  0  0  0  0
  183.4680  178.1230  140.5690 C   0  0  0  0  0  2  0  0  0  0  0  0
  189.0720  176.5910  146.7080 C   0  0  0  0  0  2  0  0  0  0  0  0
  189.5880  174.2660  145.7900 C   0  0  0  0  0  1  0  0  0  0  0  0
  189.5720  175.1720  147.0170 C   0  0  1  0  0  3  0  0  0  0  0  0
  191.1960  175.2170  147.8600 S   0  0  0  0  0  0  0  0  0  0  0  0
  194.4470  175.3970  146.1930 C   0  0  0  0  0  0  0  0  0  0  0  0
  194.2640  176.7280  146.6130 N   0  0  0  0  0  0  0  0  0  0  0  0
  192.8880  177.0340  146.6990 N   0  0  0  0  0  0  0  0  0  0  0  0
  193.2480  174.7730  146.0830 C   0  0  0  0  0  0  0  0  0  0  0  0
  194.3460  172.7330  145.4570 C   0  0  0  0  0  3  0  0  0  0  0  0
  193.1500  173.4320  145.7060 C   0  0  0  0  0  3  0  0  0  0  0  0
  192.1830  175.7620  146.4100 C   0  0  1  0  0  3  0  0  0  0  0  0
  195.6540  174.7300  145.9890 C   0  0  0  0  0  3  0  0  0  0  0  0
  195.5950  173.3760  145.6090 C   0  0  0  0  0  3  0  0  0  0  0  0
  189.1340  176.4550  142.1520 C   0  0  0  0  0  2  0  0  0  0  0  0
  188.8220  175.1660  141.4100 C   0  0  0  0  0  2  0  0  0  0  0  0
  190.2770  173.3250  139.7360 C   0  0  0  0  0  1  0  0  0  0  0  0
  190.6660  173.6310  141.1890 C   0  0  2  0  0  3  0  0  0  0  0  0
  191.4040  172.4180  141.7920 C   0  0  2  0  0  3  0  0  0  0  0  0
  188.5920  172.9230  142.1770 C   0  0  0  0  0  2  0  0  0  0  0  0
  190.7650  171.9400  143.0980 C   0  0  0  0  0  2  0  0  0  0  0  0
  189.2470  171.7650  142.9440 C   0  0  0  0  0  2  0  0  0  0  0  0
  189.5230  174.0420  142.0260 N   0  0  0  0  0  0  0  0  0  0  0  0
  192.8420  172.7490  142.0250 C   0  0  0  0  0  0  0  0  0  0  0  0
  193.2620  174.1210  142.0160 N   0  0  0  0  0  2  0  0  0  0  0  0
  193.6630  171.8170  142.2270 O   0  0  0  0  0  0  0  0  0  0  0  0
  194.7630  175.9360  142.6390 C   0  0  0  0  0  3  0  0  0  0  0  0
  194.5920  174.6180  142.2030 C   0  0  0  0  0  0  0  0  0  0  0  0
  197.1690  175.6680  142.5640 C   0  0  0  0  0  3  0  0  0  0  0  0
  196.0450  176.4620  142.8220 C   0  0  0  0  0  3  0  0  0  0  0  0
  197.0070  174.3550  142.1200 C   0  0  0  0  0  3  0  0  0  0  0  0
  195.7230  173.8300  141.9350 C   0  0  0  0  0  3  0  0  0  0  0  0
  1  2  1  0  0  0  0
  1  6  1  1  0  0  0
  2  4  1  6  0  0  0
  2  6  1  0  0  0  0
  3  4  2  0  0  0  0
  5 25  1  6  0  0  0
  5  1  1  0  0  0  0
  6 12  1  0  0  0  0
  7  5  1  0  0  0  0
  7  3  1  0  0  0  0
  8  3  1  0  0  0  0
  9  8  1  0  0  0  0
 11 10  1  0  0  0  0
 11  9  1  0  0  0  0
 12 14  1  0  0  0  0
 14 13  1  6  0  0  0
 14 15  1  0  0  0  0
 16 17  1  0  0  0  0
 17 18  2  0  0  0  0
 19 16  1  0  0  0  0
 19 22  1  0  0  0  0
 20 24  2  0  0  0  0
 20 21  1  0  0  0  0
 21 19  2  0  0  0  0
 22 18  1  0  0  0  0
 22 15  1  1  0  0  0
 23 16  2  0  0  0  0
 24 23  1  0  0  0  0
 26 33  1  0  0  0  0
 26 25  1  0  0  0  0
 28 27  1  6  0  0  0
 28 29  1  0  0  0  0
 28 33  1  0  0  0  0
 29 34  1  1  0  0  0
 29 31  1  0  0  0  0
 30 32  1  0  0  0  0
 32 31  1  0  0  0  0
 33 30  1  0  0  0  0
 34 36  2  0  0  0  0
 35 34  1  0  0  0  0
 35 38  1  0  0  0  0
 37 40  1  0  0  0  0
 38 37  2  0  0  0  0
 39 40  2  0  0  0  0
 41 39  1  0  0  0  0
 42 41  2  0  0  0  0
 42 38  1  0  0  0  0
M  END
>  <MODEL>
4

>  <REMARK>
 VINA RESULT:      -7.0      3.084      8.722
  Name = 
  12 active torsions:
  status: ('A' for Active; 'I' for Inactive)
    1  A    between atoms: C_7  and  C_8
    2  A    between atoms: N_11  and  C_19
    3  A    between atoms: C_12  and  C_29
    4  A    between atoms: S_15  and  C_29
    5  A    between atoms: S_15  and  C_32
    6  A    between atoms: C_18  and  C_26
    7  A    between atoms: C_18  and  N_35
    8  A    between atoms: S_22  and  C_26
    9  A    between atoms: S_22  and  C_31
   10  A    between atoms: N_30  and  C_40
   11  A    between atoms: C_34  and  C_39
   12  A    between atoms: C_39  and  C_40
                            x       y       z     vdW  Elec       q    Type
                         _______ _______ _______ _____ _____    ______ ____

>  <TORSDO>
F 12

$$$$
=
 OpenBabel11042419223D

 42 47  0  0  1  0  0  0  0  0999 V2000
  190.4780  173.4560  140.0430 C   0  0  2  0  0  3  0  0  0  0  0  0
  189.4460  172.6200  140.6990 C   0  0  1  0  0  3  0  0  0  0  0  0
  191.1350  170.9050  141.1670 C   0  0  0  0  0  0  0  0  0  0  0  0
  189.9540  171.4050  141.3580 N   0  0  0  0  0  0  0  0  0  0  0  0
  191.9350  173.0310  140.2170 C   0  0  1  0  0  3  0  0  0  0  0  0
  189.9670  173.8180  141.3770 N   0  0  0  0  0  0  0  0  0  0  0  0
  192.0760  171.5910  140.3540 N   0  0  0  0  0  2  0  0  0  0  0  0
  191.5990  169.3830  141.9890 S   0  0  0  0  0  0  0  0  0  0  0  0
  193.0410  170.1310  142.8070 C   0  0  0  0  0  2  0  0  0  0  0  0
  193.6980  171.1410  144.9730 C   0  0  0  0  0  1  0  0  0  0  0  0
  192.5890  171.0240  143.9470 C   0  0  0  0  0  2  0  0  0  0  0  0
  188.9710  174.8760  141.2070 C   0  0  0  0  0  2  0  0  0  0  0  0
  189.6120  176.7980  142.7590 C   0  0  0  0  0  1  0  0  0  0  0  0
  188.6780  175.6170  142.5190 C   0  0  1  0  0  3  0  0  0  0  0  0
  186.9160  176.1030  142.6190 S   0  0  0  0  0  0  0  0  0  0  0  0
  185.7130  178.7390  144.8530 C   0  0  0  0  0  0  0  0  0  0  0  0
  185.5060  179.3170  143.5860 N   0  0  0  0  0  0  0  0  0  0  0  0
  186.4280  178.8000  142.6510 N   0  0  0  0  0  0  0  0  0  0  0  0
  186.6780  177.7880  144.7800 C   0  0  0  0  0  0  0  0  0  0  0  0
  186.3950  177.2940  147.1110 C   0  0  0  0  0  3  0  0  0  0  0  0
  187.0600  177.0420  145.8970 C   0  0  0  0  0  3  0  0  0  0  0  0
  187.1850  177.7530  143.3790 C   0  0  1  0  0  3  0  0  0  0  0  0
  185.0080  178.9930  146.0280 C   0  0  0  0  0  3  0  0  0  0  0  0
  185.3640  178.2580  147.1740 C   0  0  0  0  0  3  0  0  0  0  0  0
  192.7920  173.5670  139.0910 C   0  0  0  0  0  2  0  0  0  0  0  0
  193.6940  174.6490  139.6610 C   0  0  0  0  0  2  0  0  0  0  0  0
  194.9270  176.5430  141.4500 C   0  0  0  0  0  1  0  0  0  0  0  0
  194.3710  175.1890  141.9100 C   0  0  2  0  0  3  0  0  0  0  0  0
  195.1300  174.7190  143.1680 C   0  0  2  0  0  3  0  0  0  0  0  0
  195.7680  173.8330  140.5000 C   0  0  0  0  0  2  0  0  0  0  0  0
  195.7130  173.3140  143.0030 C   0  0  0  0  0  2  0  0  0  0  0  0
  196.4970  173.1870  141.6870 C   0  0  0  0  0  2  0  0  0  0  0  0
  194.3860  174.1610  140.8510 N   0  0  0  0  0  0  0  0  0  0  0  0
  194.2310  174.7560  144.3600 C   0  0  0  0  0  0  0  0  0  0  0  0
  192.8120  174.8640  144.1720 N   0  0  0  0  0  2  0  0  0  0  0  0
  194.7330  174.6890  145.5120 O   0  0  0  0  0  0  0  0  0  0  0  0
  190.7380  174.0300  145.1420 C   0  0  0  0  0  3  0  0  0  0  0  0
  191.8090  174.9290  145.1920 C   0  0  0  0  0  0  0  0  0  0  0  0
  189.7910  175.0160  147.1400 C   0  0  0  0  0  3  0  0  0  0  0  0
  189.7320  174.0690  146.1120 C   0  0  0  0  0  3  0  0  0  0  0  0
  190.8510  175.9220  147.1930 C   0  0  0  0  0  3  0  0  0  0  0  0
  191.8560  175.8840  146.2200 C   0  0  0  0  0  3  0  0  0  0  0  0
  1  5  1  0  0  0  0
  1  2  1  0  0  0  0
  1  6  1  1  0  0  0
  2  4  1  1  0  0  0
  2  6  1  0  0  0  0
  3  4  2  0  0  0  0
  3  8  1  0  0  0  0
  5 25  1  6  0  0  0
  5  7  1  0  0  0  0
  7  3  1  0  0  0  0
  8  9  1  0  0  0  0
  9 11  1  0  0  0  0
 11 10  1  0  0  0  0
 12  6  1  0  0  0  0
 12 14  1  0  0  0  0
 14 15  1  0  0  0  0
 14 13  1  6  0  0  0
 16 23  1  0  0  0  0
 17 16  1  0  0  0  0
 18 22  1  0  0  0  0
 18 17  2  0  0  0  0
 19 16  2  0  0  0  0
 19 21  1  0  0  0  0
 20 24  1  0  0  0  0
 21 20  2  0  0  0  0
 22 15  1  6  0  0  0
 22 19  1  0  0  0  0
 23 24  2  0  0  0  0
 25 26  1  0  0  0  0
 26 33  1  0  0  0  0
 28 27  1  6  0  0  0
 28 29  1  0  0  0  0
 29 34  1  1  0  0  0
 30 33  1  0  0  0  0
 30 32  1  0  0  0  0
 31 29  1  0  0  0  0
 32 31  1  0  0  0  0
 33 28  1  0  0  0  0
 34 36  2  0  0  0  0
 35 34  1  0  0  0  0
 35 38  1  0  0  0  0
 37 38  2  0  0  0  0
 37 40  1  0  0  0  0
 38 42  1  0  0  0  0
 39 41  1  0  0  0  0
 40 39  2  0  0  0  0
 42 41  2  0  0  0  0
M  END
>  <MODEL>
5

>  <REMARK>
 VINA RESULT:      -6.9      2.504      4.161
  Name = 
  12 active torsions:
  status: ('A' for Active; 'I' for Inactive)
    1  A    between atoms: C_7  and  C_8
    2  A    between atoms: N_11  and  C_19
    3  A    between atoms: C_12  and  C_29
    4  A    between atoms: S_15  and  C_29
    5  A    between atoms: S_15  and  C_32
    6  A    between atoms: C_18  and  C_26
    7  A    between atoms: C_18  and  N_35
    8  A    between atoms: S_22  and  C_26
    9  A    between atoms: S_22  and  C_31
   10  A    between atoms: N_30  and  C_40
   11  A    between atoms: C_34  and  C_39
   12  A    between atoms: C_39  and  C_40
                            x       y       z     vdW  Elec       q    Type
                         _______ _______ _______ _____ _____    ______ ____

>  <TORSDO>
F 12

$$$$
=
 OpenBabel11042419223D

 42 47  0  0  1  0  0  0  0  0999 V2000
  186.6850  178.3860  143.0110 C   0  0  2  0  0  3  0  0  0  0  0  0
  185.4830  179.1430  143.4340 C   0  0  1  0  0  3  0  0  0  0  0  0
  184.2470  178.2490  141.5130 C   0  0  0  0  0  0  0  0  0  0  0  0
  184.2640  178.8630  142.6550 N   0  0  0  0  0  0  0  0  0  0  0  0
  186.5010  177.3410  141.9120 C   0  0  1  0  0  3  0  0  0  0  0  0
  185.8970  177.9390  144.1740 N   0  0  0  0  0  0  0  0  0  0  0  0
  185.4450  177.7010  140.9820 N   0  0  0  0  0  2  0  0  0  0  0  0
  182.6970  178.0310  140.6450 S   0  0  0  0  0  0  0  0  0  0  0  0
  181.7070  178.7200  142.0050 C   0  0  0  0  0  2  0  0  0  0  0  0
  179.2410  178.5050  142.1420 C   0  0  0  0  0  1  0  0  0  0  0  0
  180.3850  179.2430  141.4750 C   0  0  0  0  0  2  0  0  0  0  0  0
  186.5820  178.3940  145.3840 C   0  0  0  0  0  2  0  0  0  0  0  0
  185.2070  176.7060  146.7180 C   0  0  0  0  0  1  0  0  0  0  0  0
  186.5820  177.3270  146.4890 C   0  0  1  0  0  3  0  0  0  0  0  0
  187.8650  176.0600  146.1790 S   0  0  0  0  0  0  0  0  0  0  0  0
  191.4060  176.8040  145.6390 C   0  0  0  0  0  0  0  0  0  0  0  0
  191.4200  176.2590  146.9370 N   0  0  0  0  0  0  0  0  0  0  0  0
  190.1830  176.4830  147.5800 N   0  0  0  0  0  0  0  0  0  0  0  0
  190.1770  177.3020  145.3550 C   0  0  0  0  0  0  0  0  0  0  0  0
  190.9120  177.9140  143.1540 C   0  0  0  0  0  3  0  0  0  0  0  0
  189.8870  177.8790  144.1180 C   0  0  0  0  0  3  0  0  0  0  0  0
  189.3170  177.1190  146.5580 C   0  0  1  0  0  3  0  0  0  0  0  0
  192.4370  176.7880  144.7000 C   0  0  0  0  0  3  0  0  0  0  0  0
  192.1800  177.3590  143.4400 C   0  0  0  0  0  3  0  0  0  0  0  0
  187.8070  177.0780  141.1940 C   0  0  0  0  0  2  0  0  0  0  0  0
  187.9050  175.5850  140.9280 C   0  0  0  0  0  2  0  0  0  0  0  0
  189.1960  173.1700  140.0280 C   0  0  0  0  0  1  0  0  0  0  0  0
  189.8910  174.2210  140.9030 C   0  0  2  0  0  3  0  0  0  0  0  0
  190.9920  173.5440  141.7450 C   0  0  2  0  0  3  0  0  0  0  0  0
  188.3450  174.1050  142.7400 C   0  0  0  0  0  2  0  0  0  0  0  0
  190.8370  173.8300  143.2410 C   0  0  0  0  0  2  0  0  0  0  0  0
  189.4000  173.5600  143.7140 C   0  0  0  0  0  2  0  0  0  0  0  0
  188.9560  174.9890  141.7490 N   0  0  0  0  0  0  0  0  0  0  0  0
  192.3420  173.9850  141.2850 C   0  0  0  0  0  0  0  0  0  0  0  0
  193.3490  174.3120  142.2550 N   0  0  0  0  0  2  0  0  0  0  0  0
  192.5770  174.0600  140.0510 O   0  0  0  0  0  0  0  0  0  0  0  0
  195.7550  173.9590  142.3910 C   0  0  0  0  0  3  0  0  0  0  0  0
  194.6820  174.7640  141.9960 C   0  0  0  0  0  0  0  0  0  0  0  0
  197.3230  175.6000  141.5470 C   0  0  0  0  0  3  0  0  0  0  0  0
  197.0720  174.3710  142.1670 C   0  0  0  0  0  3  0  0  0  0  0  0
  196.2580  176.4140  141.1570 C   0  0  0  0  0  3  0  0  0  0  0  0
  194.9410  176.0020  141.3840 C   0  0  0  0  0  3  0  0  0  0  0  0
  1  2  1  0  0  0  0
  1  6  1  1  0  0  0
  2  4  1  6  0  0  0
  2  6  1  0  0  0  0
  3  4  2  0  0  0  0
  5 25  1  6  0  0  0
  5  1  1  0  0  0  0
  6 12  1  0  0  0  0
  7  3  1  0  0  0  0
  7  5  1  0  0  0  0
  8  3  1  0  0  0  0
  8  9  1  0  0  0  0
 11  9  1  0  0  0  0
 11 10  1  0  0  0  0
 12 14  1  0  0  0  0
 14 13  1  6  0  0  0
 15 14  1  0  0  0  0
 16 17  1  0  0  0  0
 17 18  2  0  0  0  0
 19 16  1  0  0  0  0
 19 22  1  0  0  0  0
 20 24  2  0  0  0  0
 20 21  1  0  0  0  0
 21 19  2  0  0  0  0
 22 15  1  6  0  0  0
 22 18  1  0  0  0  0
 23 16  2  0  0  0  0
 24 23  1  0  0  0  0
 26 25  1  0  0  0  0
 26 33  1  0  0  0  0
 28 27  1  1  0  0  0
 28 29  1  0  0  0  0
 28 33  1  0  0  0  0
 29 34  1  6  0  0  0
 29 31  1  0  0  0  0
 30 32  1  0  0  0  0
 31 32  1  0  0  0  0
 33 30  1  0  0  0  0
 34 35  1  0  0  0  0
 36 34  2  0  0  0  0
 38 35  1  0  0  0  0
 38 37  2  0  0  0  0
 39 40  2  0  0  0  0
 40 37  1  0  0  0  0
 41 42  2  0  0  0  0
 41 39  1  0  0  0  0
 42 38  1  0  0  0  0
M  END
>  <MODEL>
6

>  <REMARK>
 VINA RESULT:      -6.9      2.957      8.505
  Name = 
  12 active torsions:
  status: ('A' for Active; 'I' for Inactive)
    1  A    between atoms: C_7  and  C_8
    2  A    between atoms: N_11  and  C_19
    3  A    between atoms: C_12  and  C_29
    4  A    between atoms: S_15  and  C_29
    5  A    between atoms: S_15  and  C_32
    6  A    between atoms: C_18  and  C_26
    7  A    between atoms: C_18  and  N_35
    8  A    between atoms: S_22  and  C_26
    9  A    between atoms: S_22  and  C_31
   10  A    between atoms: N_30  and  C_40
   11  A    between atoms: C_34  and  C_39
   12  A    between atoms: C_39  and  C_40
                            x       y       z     vdW  Elec       q    Type
                         _______ _______ _______ _____ _____    ______ ____

>  <TORSDO>
F 12

$$$$
=
 OpenBabel11042419223D

 42 47  0  0  1  0  0  0  0  0999 V2000
  194.3740  173.1310  144.6000 C   0  0  2  0  0  3  0  0  0  0  0  0
  195.4350  173.3000  145.6200 C   0  0  1  0  0  3  0  0  0  0  0  0
  196.3260  171.0850  145.0560 C   0  0  0  0  0  0  0  0  0  0  0  0
  196.4520  172.2340  145.6440 N   0  0  0  0  0  0  0  0  0  0  0  0
  194.5150  171.9570  143.6330 C   0  0  1  0  0  3  0  0  0  0  0  0
  195.5080  174.0400  144.3500 N   0  0  0  0  0  0  0  0  0  0  0  0
  195.1940  170.8240  144.2390 N   0  0  0  0  0  2  0  0  0  0  0  0
  197.6180  169.8570  145.2190 S   0  0  0  0  0  0  0  0  0  0  0  0
  196.4790  168.5730  145.8210 C   0  0  0  0  0  2  0  0  0  0  0  0
  197.1770  168.1700  148.1650 C   0  0  0  0  0  1  0  0  0  0  0  0
  196.1360  168.8230  147.2780 C   0  0  0  0  0  2  0  0  0  0  0  0
  195.0600  175.4050  144.6220 C   0  0  0  0  0  2  0  0  0  0  0  0
  195.5100  175.7270  142.1300 C   0  0  0  0  0  1  0  0  0  0  0  0
  194.6880  176.1630  143.3390 C   0  0  1  0  0  3  0  0  0  0  0  0
  192.8890  176.0690  143.0190 S   0  0  0  0  0  0  0  0  0  0  0  0
  190.2930  177.0550  145.4000 C   0  0  0  0  0  0  0  0  0  0  0  0
  190.2700  178.1260  144.4870 N   0  0  0  0  0  0  0  0  0  0  0  0
  191.5360  178.2900  143.8850 N   0  0  0  0  0  0  0  0  0  0  0  0
  191.5000  176.4370  145.3640 C   0  0  0  0  0  0  0  0  0  0  0  0
  190.7550  174.8420  146.9940 C   0  0  0  0  0  3  0  0  0  0  0  0
  191.7790  175.3230  146.1580 C   0  0  0  0  0  3  0  0  0  0  0  0
  192.3620  177.1680  144.3920 C   0  0  1  0  0  3  0  0  0  0  0  0
  189.2420  176.5870  146.1890 C   0  0  0  0  0  3  0  0  0  0  0  0
  189.4860  175.4650  147.0010 C   0  0  0  0  0  3  0  0  0  0  0  0
  193.1680  171.5600  143.0680 C   0  0  0  0  0  2  0  0  0  0  0  0
  192.1110  172.4480  143.7030 C   0  0  0  0  0  2  0  0  0  0  0  0
  189.3250  172.3580  144.4370 C   0  0  0  0  0  1  0  0  0  0  0  0
  189.8900  173.3290  143.3920 C   0  0  2  0  0  3  0  0  0  0  0  0
  188.7870  173.6970  142.3780 C   0  0  2  0  0  3  0  0  0  0  0  0
  190.7630  171.6510  141.9090 C   0  0  0  0  0  2  0  0  0  0  0  0
  189.2180  173.4380  140.9320 C   0  0  0  0  0  2  0  0  0  0  0  0
  189.8050  172.0270  140.7700 C   0  0  0  0  0  2  0  0  0  0  0  0
  191.1010  172.8230  142.7170 N   0  0  0  0  0  0  0  0  0  0  0  0
  188.3910  175.1280  142.5390 C   0  0  0  0  0  0  0  0  0  0  0  0
  187.0680  175.4480  142.9930 N   0  0  0  0  0  2  0  0  0  0  0  0
  189.2260  176.0310  142.2740 O   0  0  0  0  0  0  0  0  0  0  0  0
  185.8370  177.3630  142.1260 C   0  0  0  0  0  3  0  0  0  0  0  0
  186.5150  176.7550  143.1870 C   0  0  0  0  0  0  0  0  0  0  0  0
  185.4300  179.3250  143.4850 C   0  0  0  0  0  3  0  0  0  0  0  0
  185.2930  178.6430  142.2710 C   0  0  0  0  0  3  0  0  0  0  0  0
  186.1130  178.7290  144.5460 C   0  0  0  0  0  3  0  0  0  0  0  0
  186.6590  177.4500  144.3990 C   0  0  0  0  0  3  0  0  0  0  0  0
  1  6  1  6  0  0  0
  1  2  1  0  0  0  0
  2  4  1  6  0  0  0
  3  8  1  0  0  0  0
  3  4  2  0  0  0  0
  5 25  1  1  0  0  0
  5  7  1  0  0  0  0
  5  1  1  0  0  0  0
  6 12  1  0  0  0  0
  6  2  1  0  0  0  0
  7  3  1  0  0  0  0
  8  9  1  0  0  0  0
  9 11  1  0  0  0  0
 11 10  1  0  0  0  0
 14 13  1  6  0  0  0
 14 12  1  0  0  0  0
 15 14  1  0  0  0  0
 16 23  1  0  0  0  0
 17 16  1  0  0  0  0
 18 22  1  0  0  0  0
 18 17  2  0  0  0  0
 19 16  2  0  0  0  0
 19 21  1  0  0  0  0
 20 24  1  0  0  0  0
 21 20  2  0  0  0  0
 22 15  1  6  0  0  0
 22 19  1  0  0  0  0
 23 24  2  0  0  0  0
 25 26  1  0  0  0  0
 28 27  1  1  0  0  0
 29 34  1  6  0  0  0
 29 28  1  0  0  0  0
 30 33  1  0  0  0  0
 31 29  1  0  0  0  0
 32 31  1  0  0  0  0
 32 30  1  0  0  0  0
 33 28  1  0  0  0  0
 33 26  1  0  0  0  0
 34 35  1  0  0  0  0
 35 38  1  0  0  0  0
 36 34  2  0  0  0  0
 37 40  2  0  0  0  0
 37 38  1  0  0  0  0
 38 42  2  0  0  0  0
 39 41  2  0  0  0  0
 40 39  1  0  0  0  0
 42 41  1  0  0  0  0
M  END
>  <MODEL>
7

>  <REMARK>
 VINA RESULT:      -6.8      3.219      6.201
  Name = 
  12 active torsions:
  status: ('A' for Active; 'I' for Inactive)
    1  A    between atoms: C_7  and  C_8
    2  A    between atoms: N_11  and  C_19
    3  A    between atoms: C_12  and  C_29
    4  A    between atoms: S_15  and  C_29
    5  A    between atoms: S_15  and  C_32
    6  A    between atoms: C_18  and  C_26
    7  A    between atoms: C_18  and  N_35
    8  A    between atoms: S_22  and  C_26
    9  A    between atoms: S_22  and  C_31
   10  A    between atoms: N_30  and  C_40
   11  A    between atoms: C_34  and  C_39
   12  A    between atoms: C_39  and  C_40
                            x       y       z     vdW  Elec       q    Type
                         _______ _______ _______ _____ _____    ______ ____

>  <TORSDO>
F 12

$$$$
=
 OpenBabel11042419223D

 42 47  0  0  1  0  0  0  0  0999 V2000
  194.6320  175.8180  144.0920 C   0  0  2  0  0  3  0  0  0  0  0  0
  195.0470  176.2850  145.4360 C   0  0  1  0  0  3  0  0  0  0  0  0
  192.7300  176.0860  146.2170 C   0  0  0  0  0  0  0  0  0  0  0  0
  193.9940  176.2340  146.4650 N   0  0  0  0  0  0  0  0  0  0  0  0
  193.2230  175.2430  143.9570 C   0  0  1  0  0  3  0  0  0  0  0  0
  195.3830  174.9230  144.9900 N   0  0  0  0  0  0  0  0  0  0  0  0
  192.2890  175.8520  144.8880 N   0  0  0  0  0  2  0  0  0  0  0  0
  191.5520  176.1050  147.5650 S   0  0  0  0  0  0  0  0  0  0  0  0
  190.1930  176.7100  146.5200 C   0  0  0  0  0  2  0  0  0  0  0  0
  189.2680  174.5290  147.2480 C   0  0  0  0  0  1  0  0  0  0  0  0
  188.9210  175.9420  146.8230 C   0  0  0  0  0  2  0  0  0  0  0  0
  196.7860  174.9410  144.5750 C   0  0  0  0  0  2  0  0  0  0  0  0
  197.7820  175.5330  142.3010 C   0  0  0  0  0  1  0  0  0  0  0  0
  196.9640  174.5290  143.1060 C   0  0  1  0  0  3  0  0  0  0  0  0
  197.6380  172.8320  142.9770 S   0  0  0  0  0  0  0  0  0  0  0  0
  195.9820  169.7250  143.9720 C   0  0  0  0  0  0  0  0  0  0  0  0
  195.6410  169.8110  142.6090 N   0  0  0  0  0  0  0  0  0  0  0  0
  195.6150  171.1580  142.1900 N   0  0  0  0  0  0  0  0  0  0  0  0
  196.2740  170.9580  144.4580 C   0  0  0  0  0  0  0  0  0  0  0  0
  196.7750  170.0140  146.6070 C   0  0  0  0  0  3  0  0  0  0  0  0
  196.6690  171.1500  145.7840 C   0  0  0  0  0  3  0  0  0  0  0  0
  196.0760  171.9450  143.3600 C   0  0  1  0  0  3  0  0  0  0  0  0
  196.1080  168.5720  144.7460 C   0  0  0  0  0  3  0  0  0  0  0  0
  196.5060  168.7270  146.0870 C   0  0  0  0  0  3  0  0  0  0  0  0
  192.7320  175.3500  142.5290 C   0  0  0  0  0  2  0  0  0  0  0  0
  191.8640  174.1360  142.2390 C   0  0  0  0  0  2  0  0  0  0  0  0
  189.5090  173.0970  143.5340 C   0  0  0  0  0  1  0  0  0  0  0  0
  189.5620  174.4750  142.8630 C   0  0  2  0  0  3  0  0  0  0  0  0
  188.1490  174.8720  142.3860 C   0  0  2  0  0  3  0  0  0  0  0  0
  190.1340  173.6820  140.6670 C   0  0  0  0  0  2  0  0  0  0  0  0
  188.1200  175.2390  140.9000 C   0  0  0  0  0  2  0  0  0  0  0  0
  188.8150  174.1670  140.0480 C   0  0  0  0  0  2  0  0  0  0  0  0
  190.5460  174.5540  141.7660 N   0  0  0  0  0  0  0  0  0  0  0  0
  187.6290  176.0120  143.1980 C   0  0  0  0  0  0  0  0  0  0  0  0
  186.2320  176.0660  143.5270 N   0  0  0  0  0  2  0  0  0  0  0  0
  188.4250  176.9070  143.5840 O   0  0  0  0  0  0  0  0  0  0  0  0
  185.5480  176.9950  145.6730 C   0  0  0  0  0  3  0  0  0  0  0  0
  185.5610  177.0850  144.2770 C   0  0  0  0  0  0  0  0  0  0  0  0
  184.2410  179.0290  145.8100 C   0  0  0  0  0  3  0  0  0  0  0  0
  184.8930  177.9630  146.4400 C   0  0  0  0  0  3  0  0  0  0  0  0
  184.2420  179.1220  144.4170 C   0  0  0  0  0  3  0  0  0  0  0  0
  184.8960  178.1510  143.6500 C   0  0  0  0  0  3  0  0  0  0  0  0
  1  6  1  1  0  0  0
  1  2  1  0  0  0  0
  2  4  1  1  0  0  0
  3  4  2  0  0  0  0
  3  8  1  0  0  0  0
  5 25  1  6  0  0  0
  5  1  1  0  0  0  0
  5  7  1  0  0  0  0
  6  2  1  0  0  0  0
  7  3  1  0  0  0  0
  9 11  1  0  0  0  0
  9  8  1  0  0  0  0
 11 10  1  0  0  0  0
 12  6  1  0  0  0  0
 14 13  1  1  0  0  0
 14 12  1  0  0  0  0
 15 14  1  0  0  0  0
 16 19  2  0  0  0  0
 16 23  1  0  0  0  0
 17 16  1  0  0  0  0
 18 17  2  0  0  0  0
 18 22  1  0  0  0  0
 19 21  1  0  0  0  0
 21 20  2  0  0  0  0
 22 15  1  6  0  0  0
 22 19  1  0  0  0  0
 23 24  2  0  0  0  0
 24 20  1  0  0  0  0
 26 25  1  0  0  0  0
 28 27  1  6  0  0  0
 29 28  1  0  0  0  0
 29 34  1  1  0  0  0
 30 33  1  0  0  0  0
 31 29  1  0  0  0  0
 32 30  1  0  0  0  0
 32 31  1  0  0  0  0
 33 26  1  0  0  0  0
 33 28  1  0  0  0  0
 34 35  1  0  0  0  0
 34 36  2  0  0  0  0
 35 38  1  0  0  0  0
 37 40  1  0  0  0  0
 38 37  2  0  0  0  0
 39 40  2  0  0  0  0
 41 39  1  0  0  0  0
 42 38  1  0  0  0  0
 42 41  2  0  0  0  0
M  END
>  <MODEL>
8

>  <REMARK>
 VINA RESULT:      -6.8      3.457      8.667
  Name = 
  12 active torsions:
  status: ('A' for Active; 'I' for Inactive)
    1  A    between atoms: C_7  and  C_8
    2  A    between atoms: N_11  and  C_19
    3  A    between atoms: C_12  and  C_29
    4  A    between atoms: S_15  and  C_29
    5  A    between atoms: S_15  and  C_32
    6  A    between atoms: C_18  and  C_26
    7  A    between atoms: C_18  and  N_35
    8  A    between atoms: S_22  and  C_26
    9  A    between atoms: S_22  and  C_31
   10  A    between atoms: N_30  and  C_40
   11  A    between atoms: C_34  and  C_39
   12  A    between atoms: C_39  and  C_40
                            x       y       z     vdW  Elec       q    Type
                         _______ _______ _______ _____ _____    ______ ____

>  <TORSDO>
F 12

$$$$
=
 OpenBabel11042419223D

 42 47  0  0  1  0  0  0  0  0999 V2000
  195.2400  174.6220  141.5110 C   0  0  2  0  0  3  0  0  0  0  0  0
  196.3820  175.2290  140.7880 C   0  0  1  0  0  3  0  0  0  0  0  0
  195.2320  174.8450  138.6550 C   0  0  0  0  0  0  0  0  0  0  0  0
  196.1780  175.4100  139.3400 N   0  0  0  0  0  0  0  0  0  0  0  0
  193.9650  174.3640  140.7110 C   0  0  1  0  0  3  0  0  0  0  0  0
  195.4480  176.0810  141.5400 N   0  0  0  0  0  0  0  0  0  0  0  0
  194.2410  174.0710  139.3150 N   0  0  0  0  0  2  0  0  0  0  0  0
  195.1390  175.1050  136.8860 S   0  0  0  0  0  0  0  0  0  0  0  0
  193.7240  173.9820  136.6810 C   0  0  0  0  0  2  0  0  0  0  0  0
  191.2970  174.1690  137.1490 C   0  0  0  0  0  1  0  0  0  0  0  0
  192.4640  174.7780  136.3970 C   0  0  0  0  0  2  0  0  0  0  0  0
  196.0990  176.4190  142.8060 C   0  0  0  0  0  2  0  0  0  0  0  0
  196.8420  174.6420  144.4800 C   0  0  0  0  0  1  0  0  0  0  0  0
  195.6830  175.4760  143.9450 C   0  0  1  0  0  3  0  0  0  0  0  0
  194.8230  176.3920  145.2750 S   0  0  0  0  0  0  0  0  0  0  0  0
  191.2030  176.3640  145.8070 C   0  0  0  0  0  0  0  0  0  0  0  0
  191.6560  175.5470  146.8600 N   0  0  0  0  0  0  0  0  0  0  0  0
  192.8700  174.9170  146.5100 N   0  0  0  0  0  0  0  0  0  0  0  0
  192.1130  176.3760  144.8010 C   0  0  0  0  0  0  0  0  0  0  0  0
  190.7460  177.9050  143.5560 C   0  0  0  0  0  3  0  0  0  0  0  0
  191.9180  177.1320  143.6440 C   0  0  0  0  0  3  0  0  0  0  0  0
  193.2350  175.4730  145.1840 C   0  0  1  0  0  3  0  0  0  0  0  0
  190.0470  177.1430  145.7730 C   0  0  0  0  0  3  0  0  0  0  0  0
  189.8180  177.9200  144.6220 C   0  0  0  0  0  3  0  0  0  0  0  0
  193.1370  173.2720  141.3540 C   0  0  0  0  0  2  0  0  0  0  0  0
  192.1190  173.9310  142.2690 C   0  0  0  0  0  2  0  0  0  0  0  0
  189.6990  173.3480  143.7230 C   0  0  0  0  0  1  0  0  0  0  0  0
  189.7660  174.3550  142.5680 C   0  0  2  0  0  3  0  0  0  0  0  0
  188.3840  174.4540  141.8880 C   0  0  2  0  0  3  0  0  0  0  0  0
  190.5300  172.8020  140.9010 C   0  0  0  0  0  2  0  0  0  0  0  0
  188.4610  174.2090  140.3790 C   0  0  0  0  0  2  0  0  0  0  0  0
  189.2510  172.9300  140.0610 C   0  0  0  0  0  2  0  0  0  0  0  0
  190.8310  174.0560  141.5910 N   0  0  0  0  0  0  0  0  0  0  0  0
  187.7700  175.7890  142.1530 C   0  0  0  0  0  0  0  0  0  0  0  0
  186.7150  175.9030  143.1200 N   0  0  0  0  0  2  0  0  0  0  0  0
  188.1890  176.7950  141.5240 O   0  0  0  0  0  0  0  0  0  0  0  0
  186.4200  177.8010  144.6180 C   0  0  0  0  0  3  0  0  0  0  0  0
  186.0050  177.0910  143.4870 C   0  0  0  0  0  0  0  0  0  0  0  0
  184.6430  179.4110  144.2830 C   0  0  0  0  0  3  0  0  0  0  0  0
  185.7460  178.9590  145.0160 C   0  0  0  0  0  3  0  0  0  0  0  0
  184.2160  178.7030  143.1580 C   0  0  0  0  0  3  0  0  0  0  0  0
  184.8910  177.5430  142.7620 C   0  0  0  0  0  3  0  0  0  0  0  0
  1  6  1  1  0  0  0
  2  4  1  6  0  0  0
  2  1  1  0  0  0  0
  2  6  1  0  0  0  0
  3  7  1  0  0  0  0
  3  4  2  0  0  0  0
  5 25  1  1  0  0  0
  5  1  1  0  0  0  0
  6 12  1  0  0  0  0
  7  5  1  0  0  0  0
  8  3  1  0  0  0  0
  9  8  1  0  0  0  0
 11  9  1  0  0  0  0
 11 10  1  0  0  0  0
 12 14  1  0  0  0  0
 14 13  1  1  0  0  0
 14 15  1  0  0  0  0
 16 17  1  0  0  0  0
 18 17  2  0  0  0  0
 19 22  1  0  0  0  0
 19 16  2  0  0  0  0
 20 21  2  0  0  0  0
 20 24  1  0  0  0  0
 21 19  1  0  0  0  0
 22 15  1  1  0  0  0
 22 18  1  0  0  0  0
 23 16  1  0  0  0  0
 24 23  2  0  0  0  0
 25 26  1  0  0  0  0
 28 27  1  1  0  0  0
 29 34  1  6  0  0  0
 29 28  1  0  0  0  0
 30 33  1  0  0  0  0
 31 29  1  0  0  0  0
 32 31  1  0  0  0  0
 32 30  1  0  0  0  0
 33 26  1  0  0  0  0
 33 28  1  0  0  0  0
 34 35  1  0  0  0  0
 35 38  1  0  0  0  0
 36 34  2  0  0  0  0
 37 40  1  0  0  0  0
 38 37  2  0  0  0  0
 39 40  2  0  0  0  0
 41 39  1  0  0  0  0
 42 41  2  0  0  0  0
 42 38  1  0  0  0  0
M  END
>  <MODEL>
9

>  <REMARK>
 VINA RESULT:      -6.7      3.307      6.076
  Name = 
  12 active torsions:
  status: ('A' for Active; 'I' for Inactive)
    1  A    between atoms: C_7  and  C_8
    2  A    between atoms: N_11  and  C_19
    3  A    between atoms: C_12  and  C_29
    4  A    between atoms: S_15  and  C_29
    5  A    between atoms: S_15  and  C_32
    6  A    between atoms: C_18  and  C_26
    7  A    between atoms: C_18  and  N_35
    8  A    between atoms: S_22  and  C_26
    9  A    between atoms: S_22  and  C_31
   10  A    between atoms: N_30  and  C_40
   11  A    between atoms: C_34  and  C_39
   12  A    between atoms: C_39  and  C_40
                            x       y       z     vdW  Elec       q    Type
                         _______ _______ _______ _____ _____    ______ ____

>  <TORSDO>
F 12

$$$$
