=
 OpenBabel11042415083D

 53 60  0  0  1  0  0  0  0  0999 V2000
  190.9240  176.5550  145.6800 C   0  0  1  0  0  3  0  0  0  0  0  0
  191.5120  176.2870  146.9920 N   0  0  0  0  0  2  0  0  0  0  0  0
  191.1390  175.3480  144.7450 C   0  0  1  0  0  3  0  0  0  0  0  0
  192.9730  176.3610  146.8670 C   0  0  0  0  0  2  0  0  0  0  0  0
  192.4760  174.6430  145.0450 C   0  0  0  0  0  2  0  0  0  0  0  0
  193.5120  175.5980  145.6300 C   0  0  2  0  0  3  0  0  0  0  0  0
  188.8360  177.5440  144.7910 C   0  0  2  0  0  3  0  0  0  0  0  0
  187.9960  177.5460  142.6450 C   0  0  1  0  0  3  0  0  0  0  0  0
  186.6250  177.0770  145.8730 C   0  0  0  0  0  0  0  0  0  0  0  0
  188.7210  176.5600  146.9510 N   0  0  0  0  0  2  0  0  0  0  0  0
  186.9790  177.7260  143.4450 C   0  0  1  0  0  3  0  0  0  0  0  0
  187.2840  176.5440  146.9100 C   0  0  0  0  0  3  0  0  0  0  0  0
  187.3820  177.9190  144.8690 C   0  0  2  0  0  3  0  0  0  0  0  0
  185.8780  178.3420  142.7950 N   0  0  0  0  0  2  0  0  0  0  0  0
  185.1790  177.5640  140.3490 Cl  0  0  0  0  0  0  0  0  0  0  0  0
  187.6990  178.0210  141.2540 C   0  0  0  0  0  2  0  0  0  0  0  0
  189.3100  177.5450  143.3620 C   0  0  0  0  0  2  0  0  0  0  0  0
  186.2510  178.5320  141.3930 C   0  0  2  0  0  3  0  0  0  0  0  0
  189.4860  176.9750  145.8090 C   0  0  1  0  0  3  0  0  0  0  0  0
  184.6280  178.4240  146.0220 N   0  0  0  0  0  1  0  0  0  0  0  0
  185.1300  177.0690  145.8810 C   0  0  0  0  0  2  0  0  0  0  0  0
  194.7620  174.8290  146.0100 C   0  0  0  0  0  2  0  0  0  0  0  0
  197.1800  173.3470  145.7750 O   0  0  0  0  0  0  0  0  0  0  0  0
  196.9660  174.2510  144.9290 C   0  0  0  0  0  0  0  0  0  0  0  0
  195.8070  175.0810  145.0310 N   0  0  0  0  0  2  0  0  0  0  0  0
  197.9390  174.4720  143.8110 C   0  0  0  0  0  2  0  0  0  0  0  0
  197.2660  174.9490  142.6700 O   0  0  0  0  0  0  0  0  0  0  0  0
  196.9050  173.8640  142.0070 O   0  0  0  0  0  0  0  0  0  0  0  0
  195.6810  174.1850  141.4200 C   0  0  0  0  0  2  0  0  0  0  0  0
  195.0810  175.1300  139.2460 C   0  0  0  0  0  2  0  0  0  0  0  0
  194.6100  175.9730  140.2660 O   0  0  0  0  0  0  0  0  0  0  0  0
  195.8610  175.3630  140.4790 C   0  0  1  0  0  3  0  0  0  0  0  0
  190.1060  174.4140  144.8930 O   0  0  0  0  0  0  0  0  0  0  0  0
  189.6870  172.1350  144.2870 C   0  0  0  0  0  1  0  0  0  0  0  0
  190.3080  173.4630  143.8800 C   0  0  1  0  0  3  0  0  0  0  0  0
  188.4670  174.0560  142.4970 O   0  0  0  0  0  0  0  0  0  0  0  0
  189.7140  173.9320  142.5800 C   0  0  0  0  0  0  0  0  0  0  0  0
  190.5180  174.2990  141.4560 N   0  0  0  0  0  2  0  0  0  0  0  0
  191.9390  174.0240  141.3700 C   0  0  0  0  0  2  0  0  0  0  0  0
  192.1890  173.0380  140.2490 C   0  0  2  0  0  3  0  0  0  0  0  0
  191.8190  172.7790  137.6860 C   0  0  2  0  0  3  0  0  0  0  0  0
  191.3830  173.4800  138.9990 C   0  0  1  0  0  3  0  0  0  0  0  0
  189.6350  170.0460  138.1730 C   0  0  0  0  0  1  0  0  0  0  0  0
  193.1110  171.1500  141.4150 O   0  0  0  0  0  1  0  0  0  0  0  0
  191.9700  171.6050  140.7610 C   0  0  2  0  0  3  0  0  0  0  0  0
  192.6120  170.4530  138.5640 C   0  0  0  0  0  2  0  0  0  0  0  0
  190.4570  172.4570  138.3330 C   0  0  2  0  0  0  0  0  0  0  0  0
  190.2560  171.1140  139.0680 C   0  0  2  0  0  3  0  0  0  0  0  0
  192.9780  171.7770  137.8850 C   0  0  0  0  0  2  0  0  0  0  0  0
  191.5570  170.6210  139.6680 C   0  0  2  0  0  3  0  0  0  0  0  0
  189.6870  174.1790  136.6440 C   0  0  0  0  0  1  0  0  0  0  0  0
  189.2560  173.1660  137.6930 C   0  0  0  0  0  3  0  0  0  0  0  0
  188.3480  173.8190  138.7300 C   0  0  0  0  0  1  0  0  0  0  0  0
  1 19  1  0  0  0  0
  1  2  1  1  0  0  0
  3 33  1  1  0  0  0
  3  5  1  0  0  0  0
  3  1  1  0  0  0  0
  4  2  1  0  0  0  0
  5  6  1  0  0  0  0
  6 22  1  1  0  0  0
  6  4  1  0  0  0  0
  7 17  1  6  0  0  0
  7 13  1  0  0  0  0
  7 19  1  0  0  0  0
  8 16  1  6  0  0  0
  8 17  1  0  0  0  0
  8 11  1  0  0  0  0
  9 21  1  0  0  0  0
  9 12  2  0  0  0  0
 11 14  1  6  0  0  0
 11 13  1  0  0  0  0
 12 10  1  0  0  0  0
 13  9  1  1  0  0  0
 16 18  1  0  0  0  0
 18 15  1  6  0  0  0
 18 14  1  0  0  0  0
 19 10  1  6  0  0  0
 21 20  1  0  0  0  0
 24 25  1  0  0  0  0
 24 23  2  0  0  0  0
 25 22  1  0  0  0  0
 26 24  1  0  0  0  0
 27 26  1  0  0  0  0
 28 27  1  0  0  0  0
 29 28  1  0  0  0  0
 30 31  1  0  0  0  0
 30 32  1  0  0  0  0
 31 32  1  0  0  0  0
 32 29  1  1  0  0  0
 35 34  1  1  0  0  0
 35 33  1  0  0  0  0
 36 37  2  0  0  0  0
 37 35  1  0  0  0  0
 38 37  1  0  0  0  0
 39 38  1  0  0  0  0
 40 45  1  0  0  0  0
 40 39  1  1  0  0  0
 41 49  1  1  0  0  0
 41 47  1  0  0  0  0
 41 42  1  0  0  0  0
 42 40  1  0  0  0  0
 43 48  1  0  0  0  0
 45 44  1  0  0  0  0
 46 50  1  0  0  0  0
 47 42  1  0  0  0  0
 47 48  1  0  0  0  0
 48 50  1  0  0  0  0
 49 46  1  0  0  0  0
 50 45  1  0  0  0  0
 51 52  1  0  0  0  0
 52 47  1  0  0  0  0
 52 53  1  0  0  0  0
M  END
>  <MODEL>
1

>  <REMARK>
 VINA RESULT:      -7.2      0.000      0.000
  Name = 
  15 active torsions:
  status: ('A' for Active; 'I' for Inactive)
    1  A    between atoms: C_2  and  C_32
    2  A    between atoms: C_3  and  C_53
    3  A    between atoms: C_7  and  C_13
    4  A    between atoms: C_7  and  O_40
    5  A    between atoms: C_12  and  C_23
    6  A    between atoms: C_18  and  O_35
    7  A    between atoms: C_21  and  C_38
    8  A    between atoms: C_32  and  N_44
    9  A    between atoms: C_34  and  N_47
   10  A    between atoms: C_34  and  C_51
   11  A    between atoms: O_35  and  C_37
   12  A    between atoms: C_36  and  C_37
   13  A    between atoms: O_39  and  O_40
   14  A    between atoms: O_39  and  C_41
   15  A    between atoms: C_41  and  C_43
                            x       y       z     vdW  Elec       q    Type
                         _______ _______ _______ _____ _____    ______ ____

>  <TORSDO>
F 15

$$$$
=
 OpenBabel11042415083D

 53 60  0  0  1  0  0  0  0  0999 V2000
  190.2810  176.6690  142.8710 C   0  0  1  0  0  3  0  0  0  0  0  0
  191.4540  176.9380  143.7020 N   0  0  0  0  0  2  0  0  0  0  0  0
  190.2140  175.1710  142.5150 C   0  0  1  0  0  3  0  0  0  0  0  0
  192.6490  176.8600  142.8510 C   0  0  0  0  0  2  0  0  0  0  0  0
  191.6250  174.5720  142.3610 C   0  0  0  0  0  2  0  0  0  0  0  0
  192.6500  175.6160  141.9260 C   0  0  2  0  0  3  0  0  0  0  0  0
  188.0350  177.7100  142.7900 C   0  0  2  0  0  3  0  0  0  0  0  0
  186.3960  177.5670  141.1770 C   0  0  1  0  0  3  0  0  0  0  0  0
  186.4450  177.4960  144.7140 C   0  0  0  0  0  0  0  0  0  0  0  0
  188.7850  176.9420  144.9100 N   0  0  0  0  0  2  0  0  0  0  0  0
  185.7960  177.8890  142.2920 C   0  0  1  0  0  3  0  0  0  0  0  0
  187.4560  177.0200  145.4520 C   0  0  0  0  0  3  0  0  0  0  0  0
  186.7480  178.1870  143.4020 C   0  0  2  0  0  3  0  0  0  0  0  0
  184.5410  178.5150  142.0740 N   0  0  0  0  0  2  0  0  0  0  0  0
  182.8900  177.5600  140.2200 Cl  0  0  0  0  0  0  0  0  0  0  0  0
  185.5700  177.9290  139.9790 C   0  0  0  0  0  2  0  0  0  0  0  0
  187.8870  177.5450  141.3000 C   0  0  0  0  0  2  0  0  0  0  0  0
  184.3160  178.5470  140.6290 C   0  0  2  0  0  3  0  0  0  0  0  0
  189.0300  177.1960  143.5190 C   0  0  1  0  0  3  0  0  0  0  0  0
  185.0220  176.7830  146.5290 N   0  0  0  0  0  1  0  0  0  0  0  0
  185.0830  177.5890  145.3220 C   0  0  0  0  0  2  0  0  0  0  0  0
  194.0330  174.9990  141.9030 C   0  0  0  0  0  2  0  0  0  0  0  0
  196.0540  175.9410  143.6730 O   0  0  0  0  0  0  0  0  0  0  0  0
  195.3230  174.9990  144.0710 C   0  0  0  0  0  0  0  0  0  0  0  0
  194.3370  174.4310  143.2060 N   0  0  0  0  0  2  0  0  0  0  0  0
  195.4930  174.4580  145.4570 C   0  0  0  0  0  2  0  0  0  0  0  0
  194.9970  175.3770  146.4010 O   0  0  0  0  0  0  0  0  0  0  0  0
  193.7030  175.4630  146.1470 O   0  0  0  0  0  0  0  0  0  0  0  0
  193.2340  176.4800  146.9780 C   0  0  0  0  0  2  0  0  0  0  0  0
  191.3080  175.4290  148.0570 C   0  0  0  0  0  2  0  0  0  0  0  0
  191.3040  176.8060  148.3370 O   0  0  0  0  0  0  0  0  0  0  0  0
  191.7190  176.4250  147.0460 C   0  0  1  0  0  3  0  0  0  0  0  0
  189.5370  174.4530  143.5080 O   0  0  0  0  0  0  0  0  0  0  0  0
  189.7740  172.3470  144.6230 C   0  0  0  0  0  1  0  0  0  0  0  0
  189.8910  173.1090  143.3110 C   0  0  1  0  0  3  0  0  0  0  0  0
  187.7730  172.6150  142.3510 O   0  0  0  0  0  0  0  0  0  0  0  0
  189.0180  172.4720  142.2660 C   0  0  0  0  0  0  0  0  0  0  0  0
  189.5530  171.7610  141.1460 N   0  0  0  0  0  2  0  0  0  0  0  0
  190.9470  171.3750  141.0410 C   0  0  0  0  0  2  0  0  0  0  0  0
  191.4330  171.6420  139.6330 C   0  0  2  0  0  3  0  0  0  0  0  0
  191.2990  173.4600  137.7750 C   0  0  2  0  0  3  0  0  0  0  0  0
  190.6610  172.8570  139.0550 C   0  0  1  0  0  3  0  0  0  0  0  0
  189.5510  171.2760  135.6200 C   0  0  0  0  0  1  0  0  0  0  0  0
  192.5580  169.5930  139.0750 O   0  0  0  0  0  1  0  0  0  0  0  0
  191.4090  170.3370  138.8210 C   0  0  2  0  0  3  0  0  0  0  0  0
  192.3880  171.3560  136.6820 C   0  0  0  0  0  2  0  0  0  0  0  0
  189.9630  172.6960  137.7000 C   0  0  2  0  0  0  0  0  0  0  0  0
  189.9250  171.2740  137.0980 C   0  0  2  0  0  3  0  0  0  0  0  0
  192.5850  172.7290  137.3330 C   0  0  0  0  0  2  0  0  0  0  0  0
  191.2410  170.5550  137.3170 C   0  0  2  0  0  3  0  0  0  0  0  0
  188.8140  174.6290  136.5360 C   0  0  0  0  0  1  0  0  0  0  0  0
  188.7140  173.5850  137.6380 C   0  0  0  0  0  3  0  0  0  0  0  0
  188.4030  174.2460  138.9770 C   0  0  0  0  0  1  0  0  0  0  0  0
  1 19  1  0  0  0  0
  1  2  1  1  0  0  0
  3  1  1  0  0  0  0
  3 33  1  1  0  0  0
  4  2  1  0  0  0  0
  5  3  1  0  0  0  0
  6 22  1  1  0  0  0
  6  5  1  0  0  0  0
  6  4  1  0  0  0  0
  7 17  1  6  0  0  0
  7 13  1  0  0  0  0
  7 19  1  0  0  0  0
  8 16  1  6  0  0  0
  8 17  1  0  0  0  0
  8 11  1  0  0  0  0
  9 21  1  0  0  0  0
  9 12  2  0  0  0  0
 10 12  1  0  0  0  0
 11 14  1  6  0  0  0
 11 13  1  0  0  0  0
 13  9  1  1  0  0  0
 16 18  1  0  0  0  0
 18 15  1  1  0  0  0
 18 14  1  0  0  0  0
 19 10  1  6  0  0  0
 21 20  1  0  0  0  0
 22 25  1  0  0  0  0
 23 24  2  0  0  0  0
 24 26  1  0  0  0  0
 25 24  1  0  0  0  0
 26 27  1  0  0  0  0
 28 27  1  0  0  0  0
 28 29  1  0  0  0  0
 30 31  1  0  0  0  0
 32 29  1  1  0  0  0
 32 30  1  0  0  0  0
 32 31  1  0  0  0  0
 35 33  1  0  0  0  0
 35 34  1  1  0  0  0
 37 36  2  0  0  0  0
 37 35  1  0  0  0  0
 38 37  1  0  0  0  0
 39 38  1  0  0  0  0
 40 39  1  1  0  0  0
 41 49  1  6  0  0  0
 41 42  1  0  0  0  0
 42 40  1  0  0  0  0
 43 48  1  0  0  0  0
 45 44  1  0  0  0  0
 45 40  1  0  0  0  0
 46 50  1  0  0  0  0
 46 49  1  0  0  0  0
 47 41  1  0  0  0  0
 47 42  1  0  0  0  0
 48 50  1  0  0  0  0
 48 47  1  0  0  0  0
 50 45  1  0  0  0  0
 51 52  1  0  0  0  0
 52 47  1  0  0  0  0
 52 53  1  0  0  0  0
M  END
>  <MODEL>
2

>  <REMARK>
 VINA RESULT:      -7.1      1.803      3.248
  Name = 
  15 active torsions:
  status: ('A' for Active; 'I' for Inactive)
    1  A    between atoms: C_2  and  C_32
    2  A    between atoms: C_3  and  C_53
    3  A    between atoms: C_7  and  C_13
    4  A    between atoms: C_7  and  O_40
    5  A    between atoms: C_12  and  C_23
    6  A    between atoms: C_18  and  O_35
    7  A    between atoms: C_21  and  C_38
    8  A    between atoms: C_32  and  N_44
    9  A    between atoms: C_34  and  N_47
   10  A    between atoms: C_34  and  C_51
   11  A    between atoms: O_35  and  C_37
   12  A    between atoms: C_36  and  C_37
   13  A    between atoms: O_39  and  O_40
   14  A    between atoms: O_39  and  C_41
   15  A    between atoms: C_41  and  C_43
                            x       y       z     vdW  Elec       q    Type
                         _______ _______ _______ _____ _____    ______ ____

>  <TORSDO>
F 15

$$$$
=
 OpenBabel11042415083D

 53 60  0  0  1  0  0  0  0  0999 V2000
  191.8600  176.4210  145.5340 C   0  0  1  0  0  3  0  0  0  0  0  0
  192.6770  176.4010  146.7460 N   0  0  0  0  0  2  0  0  0  0  0  0
  192.0330  175.1030  144.7540 C   0  0  1  0  0  3  0  0  0  0  0  0
  194.0840  176.5560  146.3570 C   0  0  0  0  0  2  0  0  0  0  0  0
  193.4620  174.5470  144.9090 C   0  0  0  0  0  2  0  0  0  0  0  0
  194.4840  175.6510  145.1640 C   0  0  2  0  0  3  0  0  0  0  0  0
  189.6580  177.4080  144.9800 C   0  0  2  0  0  3  0  0  0  0  0  0
  188.6020  177.6220  142.9430 C   0  0  1  0  0  3  0  0  0  0  0  0
  187.5880  176.7130  146.2090 C   0  0  0  0  0  0  0  0  0  0  0  0
  189.8010  176.1720  147.0050 N   0  0  0  0  0  2  0  0  0  0  0  0
  187.6660  177.6580  143.8550 C   0  0  1  0  0  3  0  0  0  0  0  0
  188.3690  176.0930  147.1030 C   0  0  0  0  0  3  0  0  0  0  0  0
  188.2070  177.7020  145.2450 C   0  0  2  0  0  3  0  0  0  0  0  0
  186.4840  178.2940  143.3960 N   0  0  0  0  0  2  0  0  0  0  0  0
  185.5650  177.7770  140.9540 Cl  0  0  0  0  0  0  0  0  0  0  0  0
  188.1460  178.2430  141.6570 C   0  0  0  0  0  2  0  0  0  0  0  0
  189.9820  177.5990  143.5220 C   0  0  0  0  0  2  0  0  0  0  0  0
  186.7030  178.6660  141.9980 C   0  0  2  0  0  3  0  0  0  0  0  0
  190.4290  176.7550  145.8530 C   0  0  1  0  0  3  0  0  0  0  0  0
  185.6050  177.8400  146.9960 N   0  0  0  0  0  1  0  0  0  0  0  0
  186.1030  176.6330  146.3620 C   0  0  0  0  0  2  0  0  0  0  0  0
  195.8460  175.0400  145.4220 C   0  0  0  0  0  2  0  0  0  0  0  0
  197.8320  173.0410  145.0140 O   0  0  0  0  0  0  0  0  0  0  0  0
  196.7630  172.6940  145.5760 C   0  0  0  0  0  0  0  0  0  0  0  0
  195.6960  173.6300  145.7470 N   0  0  0  0  0  2  0  0  0  0  0  0
  196.5970  171.2860  146.0590 C   0  0  0  0  0  2  0  0  0  0  0  0
  195.5110  170.6740  145.4040 O   0  0  0  0  0  0  0  0  0  0  0  0
  196.0530  169.9780  144.4190 O   0  0  0  0  0  0  0  0  0  0  0  0
  194.9940  169.2820  143.8370 C   0  0  0  0  0  2  0  0  0  0  0  0
  192.6820  169.6210  143.1180 C   0  0  0  0  0  2  0  0  0  0  0  0
  192.6910  169.0480  144.4010 O   0  0  0  0  0  0  0  0  0  0  0  0
  193.6900  170.0020  144.1290 C   0  0  1  0  0  3  0  0  0  0  0  0
  191.1320  174.1320  145.2100 O   0  0  0  0  0  0  0  0  0  0  0  0
  190.2330  171.9880  144.6380 C   0  0  0  0  0  1  0  0  0  0  0  0
  191.0070  173.2080  144.1610 C   0  0  1  0  0  3  0  0  0  0  0  0
  189.1510  174.2770  143.1310 O   0  0  0  0  0  0  0  0  0  0  0  0
  190.3140  173.8280  142.9800 C   0  0  0  0  0  0  0  0  0  0  0  0
  190.9510  173.9820  141.7090 N   0  0  0  0  0  2  0  0  0  0  0  0
  192.2060  173.3430  141.3650 C   0  0  0  0  0  2  0  0  0  0  0  0
  192.1710  172.9250  139.9110 C   0  0  2  0  0  3  0  0  0  0  0  0
  190.8320  173.3780  137.7250 C   0  0  2  0  0  3  0  0  0  0  0  0
  190.8440  173.4180  139.2770 C   0  0  1  0  0  3  0  0  0  0  0  0
  189.6910  170.0370  137.6110 C   0  0  0  0  0  1  0  0  0  0  0  0
  193.8760  171.2350  139.8160 O   0  0  0  0  0  1  0  0  0  0  0  0
  192.4980  171.4280  139.7940 C   0  0  2  0  0  3  0  0  0  0  0  0
  192.3970  171.3480  137.2350 C   0  0  0  0  0  2  0  0  0  0  0  0
  189.9670  172.3970  138.5420 C   0  0  2  0  0  0  0  0  0  0  0  0
  190.3840  170.9130  138.6500 C   0  0  2  0  0  3  0  0  0  0  0  0
  192.1530  172.8570  137.1190 C   0  0  0  0  0  2  0  0  0  0  0  0
  191.8890  170.7620  138.5610 C   0  0  2  0  0  3  0  0  0  0  0  0
  188.1910  174.1080  137.9690 C   0  0  0  0  0  1  0  0  0  0  0  0
  188.4870  172.7860  138.6600 C   0  0  0  0  0  3  0  0  0  0  0  0
  188.0090  172.8180  140.1080 C   0  0  0  0  0  1  0  0  0  0  0  0
  1 19  1  0  0  0  0
  1  2  1  1  0  0  0
  3  5  1  0  0  0  0
  3 33  1  1  0  0  0
  3  1  1  0  0  0  0
  4  2  1  0  0  0  0
  5  6  1  0  0  0  0
  6 22  1  1  0  0  0
  6  4  1  0  0  0  0
  7 17  1  6  0  0  0
  7 13  1  0  0  0  0
  7 19  1  0  0  0  0
  8 16  1  6  0  0  0
  8 17  1  0  0  0  0
  8 11  1  0  0  0  0
  9 21  1  0  0  0  0
  9 12  2  0  0  0  0
 10 12  1  0  0  0  0
 11 14  1  6  0  0  0
 11 13  1  0  0  0  0
 13  9  1  1  0  0  0
 16 18  1  0  0  0  0
 18 15  1  6  0  0  0
 18 14  1  0  0  0  0
 19 10  1  6  0  0  0
 21 20  1  0  0  0  0
 22 25  1  0  0  0  0
 23 24  2  0  0  0  0
 24 25  1  0  0  0  0
 24 26  1  0  0  0  0
 27 26  1  0  0  0  0
 28 27  1  0  0  0  0
 29 28  1  0  0  0  0
 30 32  1  0  0  0  0
 30 31  1  0  0  0  0
 32 29  1  6  0  0  0
 32 31  1  0  0  0  0
 35 34  1  1  0  0  0
 35 33  1  0  0  0  0
 37 36  2  0  0  0  0
 37 35  1  0  0  0  0
 38 37  1  0  0  0  0
 39 38  1  0  0  0  0
 40 39  1  1  0  0  0
 41 49  1  1  0  0  0
 41 47  1  0  0  0  0
 41 42  1  0  0  0  0
 42 40  1  0  0  0  0
 43 48  1  0  0  0  0
 45 44  1  0  0  0  0
 45 40  1  0  0  0  0
 46 50  1  0  0  0  0
 47 48  1  0  0  0  0
 47 52  1  0  0  0  0
 47 42  1  0  0  0  0
 49 46  1  0  0  0  0
 50 48  1  0  0  0  0
 50 45  1  0  0  0  0
 51 52  1  0  0  0  0
 52 53  1  0  0  0  0
M  END
>  <MODEL>
3

>  <REMARK>
 VINA RESULT:      -7.1      1.649      2.458
  Name = 
  15 active torsions:
  status: ('A' for Active; 'I' for Inactive)
    1  A    between atoms: C_2  and  C_32
    2  A    between atoms: C_3  and  C_53
    3  A    between atoms: C_7  and  C_13
    4  A    between atoms: C_7  and  O_40
    5  A    between atoms: C_12  and  C_23
    6  A    between atoms: C_18  and  O_35
    7  A    between atoms: C_21  and  C_38
    8  A    between atoms: C_32  and  N_44
    9  A    between atoms: C_34  and  N_47
   10  A    between atoms: C_34  and  C_51
   11  A    between atoms: O_35  and  C_37
   12  A    between atoms: C_36  and  C_37
   13  A    between atoms: O_39  and  O_40
   14  A    between atoms: O_39  and  C_41
   15  A    between atoms: C_41  and  C_43
                            x       y       z     vdW  Elec       q    Type
                         _______ _______ _______ _____ _____    ______ ____

>  <TORSDO>
F 15

$$$$
=
 OpenBabel11042415083D

 53 60  0  0  1  0  0  0  0  0999 V2000
  191.3650  176.4340  145.8070 C   0  0  1  0  0  3  0  0  0  0  0  0
  192.0450  176.3600  147.1000 N   0  0  0  0  0  2  0  0  0  0  0  0
  191.5940  175.1340  145.0110 C   0  0  1  0  0  3  0  0  0  0  0  0
  193.4900  176.4930  146.8700 C   0  0  0  0  0  2  0  0  0  0  0  0
  192.9860  174.5410  145.3030 C   0  0  0  0  0  2  0  0  0  0  0  0
  193.9970  175.6120  145.7000 C   0  0  2  0  0  3  0  0  0  0  0  0
  189.2390  177.4300  145.0210 C   0  0  2  0  0  3  0  0  0  0  0  0
  188.3840  177.5980  142.8880 C   0  0  1  0  0  3  0  0  0  0  0  0
  187.0530  176.7940  146.0660 C   0  0  0  0  0  0  0  0  0  0  0  0
  189.1730  176.2510  147.0830 N   0  0  0  0  0  2  0  0  0  0  0  0
  187.3670  177.6710  143.7050 C   0  0  1  0  0  3  0  0  0  0  0  0
  187.7370  176.1910  147.0470 C   0  0  0  0  0  3  0  0  0  0  0  0
  187.7750  177.7470  145.1390 C   0  0  2  0  0  3  0  0  0  0  0  0
  186.2420  178.3070  143.1190 N   0  0  0  0  0  2  0  0  0  0  0  0
  185.5510  177.7310  140.6160 Cl  0  0  0  0  0  0  0  0  0  0  0  0
  188.0600  178.1870  141.5470 C   0  0  0  0  0  2  0  0  0  0  0  0
  189.7020  177.5760  143.5950 C   0  0  0  0  0  2  0  0  0  0  0  0
  186.5980  178.6350  141.7380 C   0  0  2  0  0  3  0  0  0  0  0  0
  189.9160  176.7930  145.9800 C   0  0  1  0  0  3  0  0  0  0  0  0
  185.0220  177.9370  146.6930 N   0  0  0  0  0  1  0  0  0  0  0  0
  185.5590  176.7350  146.0790 C   0  0  0  0  0  2  0  0  0  0  0  0
  195.3110  174.9610  146.0850 C   0  0  0  0  0  2  0  0  0  0  0  0
  197.3640  173.0370  145.6590 O   0  0  0  0  0  0  0  0  0  0  0  0
  197.1590  173.8800  144.7510 C   0  0  0  0  0  0  0  0  0  0  0  0
  196.1920  174.9180  144.9300 N   0  0  0  0  0  2  0  0  0  0  0  0
  197.9400  173.8080  143.4750 C   0  0  0  0  0  2  0  0  0  0  0  0
  197.9020  175.0500  142.8120 O   0  0  0  0  0  0  0  0  0  0  0  0
  197.6210  174.7580  141.5540 O   0  0  0  0  0  0  0  0  0  0  0  0
  196.6860  175.7140  141.1580 C   0  0  0  0  0  2  0  0  0  0  0  0
  194.3680  176.2370  141.7340 C   0  0  0  0  0  2  0  0  0  0  0  0
  194.4270  175.7880  140.4040 O   0  0  0  0  0  0  0  0  0  0  0  0
  195.2850  175.1540  141.3230 C   0  0  1  0  0  3  0  0  0  0  0  0
  190.6290  174.1740  145.3380 O   0  0  0  0  0  0  0  0  0  0  0  0
  189.9460  171.9770  144.6720 C   0  0  0  0  0  1  0  0  0  0  0  0
  190.5920  173.2880  144.2490 C   0  0  1  0  0  3  0  0  0  0  0  0
  188.6560  174.2750  143.2860 O   0  0  0  0  0  0  0  0  0  0  0  0
  189.8350  173.8870  143.0970 C   0  0  0  0  0  0  0  0  0  0  0  0
  190.4260  174.0890  141.8110 N   0  0  0  0  0  2  0  0  0  0  0  0
  191.7020  173.5200  141.4230 C   0  0  0  0  0  2  0  0  0  0  0  0
  191.5420  172.0290  141.2190 C   0  0  2  0  0  3  0  0  0  0  0  0
  192.2860  169.7680  142.2740 C   0  0  2  0  0  3  0  0  0  0  0  0
  192.5730  171.2840  142.1080 C   0  0  1  0  0  3  0  0  0  0  0  0
  194.1030  168.8950  139.3730 C   0  0  0  0  0  1  0  0  0  0  0  0
  190.2760  171.9170  139.1800 O   0  0  0  0  0  1  0  0  0  0  0  0
  191.5440  171.7080  139.7150 C   0  0  2  0  0  3  0  0  0  0  0  0
  191.1510  169.1910  139.9950 C   0  0  0  0  0  2  0  0  0  0  0  0
  193.4930  170.2530  141.4460 C   0  0  2  0  0  0  0  0  0  0  0  0
  193.4500  170.1670  139.9040 C   0  0  2  0  0  3  0  0  0  0  0  0
  191.0230  169.3010  141.5190 C   0  0  0  0  0  2  0  0  0  0  0  0
  192.0300  170.2960  139.3910 C   0  0  2  0  0  3  0  0  0  0  0  0
  194.6710  170.2800  143.6860 C   0  0  0  0  0  1  0  0  0  0  0  0
  194.8410  170.1980  142.1770 C   0  0  0  0  0  3  0  0  0  0  0  0
  195.8130  171.2650  141.6870 C   0  0  0  0  0  1  0  0  0  0  0  0
  1 19  1  0  0  0  0
  1  2  1  1  0  0  0
  3  5  1  0  0  0  0
  3 33  1  1  0  0  0
  3  1  1  0  0  0  0
  4  2  1  0  0  0  0
  5  6  1  0  0  0  0
  6 22  1  1  0  0  0
  6  4  1  0  0  0  0
  7 17  1  6  0  0  0
  7 13  1  0  0  0  0
  7 19  1  0  0  0  0
  8 16  1  6  0  0  0
  8 17  1  0  0  0  0
  8 11  1  0  0  0  0
  9 21  1  0  0  0  0
  9 12  2  0  0  0  0
 11 14  1  6  0  0  0
 11 13  1  0  0  0  0
 12 10  1  0  0  0  0
 13  9  1  1  0  0  0
 16 18  1  0  0  0  0
 18 15  1  6  0  0  0
 18 14  1  0  0  0  0
 19 10  1  6  0  0  0
 21 20  1  0  0  0  0
 24 25  1  0  0  0  0
 24 23  2  0  0  0  0
 25 22  1  0  0  0  0
 26 24  1  0  0  0  0
 27 26  1  0  0  0  0
 28 27  1  0  0  0  0
 29 28  1  0  0  0  0
 31 32  1  0  0  0  0
 31 30  1  0  0  0  0
 32 29  1  6  0  0  0
 32 30  1  0  0  0  0
 35 34  1  1  0  0  0
 35 33  1  0  0  0  0
 37 36  2  0  0  0  0
 37 35  1  0  0  0  0
 38 37  1  0  0  0  0
 39 38  1  0  0  0  0
 40 39  1  6  0  0  0
 40 42  1  0  0  0  0
 41 49  1  6  0  0  0
 42 41  1  0  0  0  0
 43 48  1  0  0  0  0
 44 45  1  0  0  0  0
 45 40  1  0  0  0  0
 46 49  1  0  0  0  0
 47 42  1  0  0  0  0
 47 52  1  0  0  0  0
 47 41  1  0  0  0  0
 48 47  1  0  0  0  0
 50 45  1  0  0  0  0
 50 48  1  0  0  0  0
 50 46  1  0  0  0  0
 52 51  1  0  0  0  0
 53 52  1  0  0  0  0
M  END
>  <MODEL>
4

>  <REMARK>
 VINA RESULT:      -7.0      1.435      2.735
  Name = 
  15 active torsions:
  status: ('A' for Active; 'I' for Inactive)
    1  A    between atoms: C_2  and  C_32
    2  A    between atoms: C_3  and  C_53
    3  A    between atoms: C_7  and  C_13
    4  A    between atoms: C_7  and  O_40
    5  A    between atoms: C_12  and  C_23
    6  A    between atoms: C_18  and  O_35
    7  A    between atoms: C_21  and  C_38
    8  A    between atoms: C_32  and  N_44
    9  A    between atoms: C_34  and  N_47
   10  A    between atoms: C_34  and  C_51
   11  A    between atoms: O_35  and  C_37
   12  A    between atoms: C_36  and  C_37
   13  A    between atoms: O_39  and  O_40
   14  A    between atoms: O_39  and  C_41
   15  A    between atoms: C_41  and  C_43
                            x       y       z     vdW  Elec       q    Type
                         _______ _______ _______ _____ _____    ______ ____

>  <TORSDO>
F 15

$$$$
=
 OpenBabel11042415083D

 53 60  0  0  1  0  0  0  0  0999 V2000
  195.0780  174.8720  140.2930 C   0  0  1  0  0  3  0  0  0  0  0  0
  195.9780  174.4660  139.2140 N   0  0  0  0  0  2  0  0  0  0  0  0
  193.6880  174.2390  140.0910 C   0  0  1  0  0  3  0  0  0  0  0  0
  195.5850  175.1800  137.9920 C   0  0  0  0  0  2  0  0  0  0  0  0
  193.3500  174.1010  138.5940 C   0  0  0  0  0  2  0  0  0  0  0  0
  194.0540  175.1560  137.7460 C   0  0  2  0  0  3  0  0  0  0  0  0
  195.3040  175.2580  142.7280 C   0  0  2  0  0  3  0  0  0  0  0  0
  193.7300  175.9240  144.2730 C   0  0  1  0  0  3  0  0  0  0  0  0
  196.3300  173.5250  144.2180 C   0  0  2  0  0  3  0  0  0  0  0  0
  196.5190  173.4310  141.8140 N   0  0  0  0  0  0  0  0  0  0  0  0
  194.6660  175.3010  144.9380 C   0  0  1  0  0  3  0  0  0  0  0  0
  196.7450  172.8780  143.1220 C   0  0  0  0  0  3  0  0  0  0  0  0
  195.8480  174.9540  144.0960 C   0  0  2  0  0  3  0  0  0  0  0  0
  194.6920  175.6640  146.3100 N   0  0  0  0  0  2  0  0  0  0  0  0
  192.4130  175.9020  147.6600 Cl  0  0  0  0  0  0  0  0  0  0  0  0
  192.9280  176.8290  145.1600 C   0  0  0  0  0  2  0  0  0  0  0  0
  194.0620  176.1040  142.8250 C   0  0  0  0  0  2  0  0  0  0  0  0
  193.5970  176.6090  146.5310 C   0  0  2  0  0  3  0  0  0  0  0  0
  195.6860  174.5880  141.6380 C   0  0  1  0  0  3  0  0  0  0  0  0
  195.7400  171.7930  145.7920 N   0  0  0  0  0  1  0  0  0  0  0  0
  196.6100  172.9320  145.5620 C   0  0  0  0  0  2  0  0  0  0  0  0
  193.7790  174.9020  136.2770 C   0  0  0  0  0  2  0  0  0  0  0  0
  192.0480  176.9160  135.2510 O   0  0  0  0  0  0  0  0  0  0  0  0
  191.5520  175.7850  135.4840 C   0  0  0  0  0  0  0  0  0  0  0  0
  192.3480  174.7510  136.0680 N   0  0  0  0  0  2  0  0  0  0  0  0
  190.1130  175.5210  135.1630 C   0  0  0  0  0  2  0  0  0  0  0  0
  189.6920  174.3250  135.7750 O   0  0  0  0  0  0  0  0  0  0  0  0
  188.7120  174.6820  136.5860 O   0  0  0  0  0  0  0  0  0  0  0  0
  189.0510  174.1470  137.8280 C   0  0  0  0  0  2  0  0  0  0  0  0
  189.1280  171.7810  138.4410 C   0  0  0  0  0  2  0  0  0  0  0  0
  188.4160  172.4930  139.4210 O   0  0  0  0  0  0  0  0  0  0  0  0
  188.2280  172.8970  138.0850 C   0  0  1  0  0  3  0  0  0  0  0  0
  193.6300  172.9670  140.6740 O   0  0  0  0  0  0  0  0  0  0  0  0
  191.8760  171.3360  140.6740 C   0  0  0  0  0  1  0  0  0  0  0  0
  192.2830  172.7640  141.0090 C   0  0  1  0  0  3  0  0  0  0  0  0
  192.9360  172.7090  143.2940 O   0  0  0  0  0  0  0  0  0  0  0  0
  192.0480  173.0360  142.4690 C   0  0  0  0  0  0  0  0  0  0  0  0
  190.8800  173.7070  142.9480 N   0  0  0  0  0  2  0  0  0  0  0  0
  189.7140  173.9620  142.1230 C   0  0  0  0  0  2  0  0  0  0  0  0
  189.2680  175.3950  142.3200 C   0  0  2  0  0  3  0  0  0  0  0  0
  189.5110  177.3570  144.0130 C   0  0  2  0  0  3  0  0  0  0  0  0
  189.5810  175.8250  143.7780 C   0  0  1  0  0  3  0  0  0  0  0  0
  186.0530  177.2980  144.7350 C   0  0  0  0  0  1  0  0  0  0  0  0
  187.7980  175.7420  140.4510 O   0  0  0  0  0  1  0  0  0  0  0  0
  187.8200  175.5580  141.8310 C   0  0  2  0  0  3  0  0  0  0  0  0
  187.6800  178.0740  142.2980 C   0  0  0  0  0  2  0  0  0  0  0  0
  188.4470  176.4200  144.6190 C   0  0  2  0  0  0  0  0  0  0  0  0
  187.0280  176.3750  144.0100 C   0  0  2  0  0  3  0  0  0  0  0  0
  189.1440  178.1530  142.7420 C   0  0  0  0  0  2  0  0  0  0  0  0
  187.0610  176.6870  142.5280 C   0  0  2  0  0  3  0  0  0  0  0  0
  189.3420  177.2140  146.8500 C   0  0  0  0  0  1  0  0  0  0  0  0
  188.6530  176.0830  146.1020 C   0  0  0  0  0  3  0  0  0  0  0  0
  189.4050  174.7710  146.3010 C   0  0  0  0  0  1  0  0  0  0  0  0
  1  2  1  6  0  0  0
  1 19  1  0  0  0  0
  3  1  1  0  0  0  0
  3 33  1  6  0  0  0
  4  2  1  0  0  0  0
  5  3  1  0  0  0  0
  6 22  1  6  0  0  0
  6  4  1  0  0  0  0
  6  5  1  0  0  0  0
  7 17  1  1  0  0  0
  7 13  1  0  0  0  0
  8 17  1  6  0  0  0
  8 11  1  0  0  0  0
  8 16  1  0  0  0  0
  9 21  1  1  0  0  0
 10 12  2  0  0  0  0
 11 14  1  1  0  0  0
 12  9  1  0  0  0  0
 13  9  1  0  0  0  0
 13 11  1  0  0  0  0
 14 18  1  0  0  0  0
 16 18  1  0  0  0  0
 18 15  1  0  0  0  0
 19 10  1  0  0  0  0
 19  7  1  0  0  0  0
 21 20  1  0  0  0  0
 23 24  2  0  0  0  0
 24 25  1  0  0  0  0
 25 22  1  0  0  0  0
 26 24  1  0  0  0  0
 26 27  1  0  0  0  0
 27 28  1  0  0  0  0
 28 29  1  0  0  0  0
 29 32  1  0  0  0  0
 30 31  1  0  0  0  0
 32 30  1  0  0  0  0
 32 31  1  0  0  0  0
 33 35  1  0  0  0  0
 34 35  1  0  0  0  0
 35 37  1  0  0  0  0
 37 38  1  0  0  0  0
 37 36  2  0  0  0  0
 39 40  1  0  0  0  0
 39 38  1  0  0  0  0
 40 42  1  0  0  0  0
 41 47  1  0  0  0  0
 42 41  1  0  0  0  0
 42 47  1  0  0  0  0
 44 45  1  0  0  0  0
 45 40  1  0  0  0  0
 45 50  1  0  0  0  0
 46 50  1  0  0  0  0
 46 49  1  0  0  0  0
 47 52  1  0  0  0  0
 48 47  1  0  0  0  0
 48 43  1  0  0  0  0
 49 41  1  0  0  0  0
 50 48  1  0  0  0  0
 52 53  1  0  0  0  0
 52 51  1  0  0  0  0
M  END
>  <MODEL>
5

>  <REMARK>
 VINA RESULT:      -7.0      2.933      8.356
  Name = 
  15 active torsions:
  status: ('A' for Active; 'I' for Inactive)
    1  A    between atoms: C_2  and  C_32
    2  A    between atoms: C_3  and  C_53
    3  A    between atoms: C_7  and  C_13
    4  A    between atoms: C_7  and  O_40
    5  A    between atoms: C_12  and  C_23
    6  A    between atoms: C_18  and  O_35
    7  A    between atoms: C_21  and  C_38
    8  A    between atoms: C_32  and  N_44
    9  A    between atoms: C_34  and  N_47
   10  A    between atoms: C_34  and  C_51
   11  A    between atoms: O_35  and  C_37
   12  A    between atoms: C_36  and  C_37
   13  A    between atoms: O_39  and  O_40
   14  A    between atoms: O_39  and  C_41
   15  A    between atoms: C_41  and  C_43
                            x       y       z     vdW  Elec       q    Type
                         _______ _______ _______ _____ _____    ______ ____

>  <TORSDO>
F 15

$$$$
=
 OpenBabel11042415083D

 53 60  0  0  1  0  0  0  0  0999 V2000
  191.8980  176.6140  145.3650 C   0  0  1  0  0  3  0  0  0  0  0  0
  192.7230  176.4160  146.5560 N   0  0  0  0  0  2  0  0  0  0  0  0
  192.0720  175.4290  144.3950 C   0  0  1  0  0  3  0  0  0  0  0  0
  194.1270  176.6360  146.1860 C   0  0  0  0  0  2  0  0  0  0  0  0
  193.5040  174.8650  144.4560 C   0  0  0  0  0  2  0  0  0  0  0  0
  194.5230  175.9230  144.8690 C   0  0  2  0  0  3  0  0  0  0  0  0
  189.6390  177.5140  144.8990 C   0  0  2  0  0  3  0  0  0  0  0  0
  188.5000  177.6940  142.9040 C   0  0  1  0  0  3  0  0  0  0  0  0
  187.6460  176.7300  146.1990 C   0  0  0  0  0  0  0  0  0  0  0  0
  189.9070  176.2760  146.9100 N   0  0  0  0  0  2  0  0  0  0  0  0
  187.5990  177.6880  143.8500 C   0  0  1  0  0  3  0  0  0  0  0  0
  188.4840  176.1390  147.0600 C   0  0  0  0  0  3  0  0  0  0  0  0
  188.1890  177.7470  145.2190 C   0  0  2  0  0  3  0  0  0  0  0  0
  186.3750  178.2780  143.4380 N   0  0  0  0  0  2  0  0  0  0  0  0
  185.3880  177.7350  141.0290 Cl  0  0  0  0  0  0  0  0  0  0  0  0
  187.9720  178.3020  141.6390 C   0  0  0  0  0  2  0  0  0  0  0  0
  189.9000  177.7250  143.4310 C   0  0  0  0  0  2  0  0  0  0  0  0
  186.5270  178.6640  142.0350 C   0  0  2  0  0  3  0  0  0  0  0  0
  190.4680  176.8890  145.7390 C   0  0  1  0  0  3  0  0  0  0  0  0
  185.6400  177.7950  147.0170 N   0  0  0  0  0  1  0  0  0  0  0  0
  186.1720  176.5890  146.4060 C   0  0  0  0  0  2  0  0  0  0  0  0
  195.8900  175.2870  145.0240 C   0  0  0  0  0  2  0  0  0  0  0  0
  197.1930  177.0540  143.2130 O   0  0  0  0  0  0  0  0  0  0  0  0
  197.1120  175.8430  142.8880 C   0  0  0  0  0  0  0  0  0  0  0  0
  196.4080  174.9160  143.7170 N   0  0  0  0  0  2  0  0  0  0  0  0
  197.7450  175.3670  141.6170 C   0  0  0  0  0  2  0  0  0  0  0  0
  197.1840  176.0400  140.5150 O   0  0  0  0  0  0  0  0  0  0  0  0
  196.3100  175.1910  140.0040 O   0  0  0  0  0  0  0  0  0  0  0  0
  196.9650  174.5960  138.9260 C   0  0  0  0  0  2  0  0  0  0  0  0
  197.2940  175.6630  136.7500 C   0  0  0  0  0  2  0  0  0  0  0  0
  196.8990  174.3280  136.5590 O   0  0  0  0  0  0  0  0  0  0  0  0
  196.2970  175.0180  137.6290 C   0  0  1  0  0  3  0  0  0  0  0  0
  191.1780  174.3970  144.7040 O   0  0  0  0  0  0  0  0  0  0  0  0
  191.2710  174.7290  142.3340 C   0  0  0  0  0  1  0  0  0  0  0  0
  190.5430  174.0700  143.4960 C   0  0  1  0  0  3  0  0  0  0  0  0
  191.3110  171.8640  143.9400 O   0  0  0  0  0  0  0  0  0  0  0  0
  190.5020  172.5800  143.2990 C   0  0  0  0  0  0  0  0  0  0  0  0
  189.5390  171.9420  142.4570 N   0  0  0  0  0  2  0  0  0  0  0  0
  188.6860  172.6650  141.5330 C   0  0  0  0  0  2  0  0  0  0  0  0
  189.1560  172.4100  140.1170 C   0  0  2  0  0  3  0  0  0  0  0  0
  190.6840  170.7880  138.7720 C   0  0  2  0  0  3  0  0  0  0  0  0
  190.3420  171.4100  140.1520 C   0  0  1  0  0  3  0  0  0  0  0  0
  192.8770  173.4140  137.8960 C   0  0  0  0  0  1  0  0  0  0  0  0
  188.1750  174.2390  138.9070 O   0  0  0  0  0  1  0  0  0  0  0  0
  189.3820  173.7500  139.3970 C   0  0  2  0  0  3  0  0  0  0  0  0
  190.0250  172.7160  137.1420 C   0  0  0  0  0  2  0  0  0  0  0  0
  191.6410  171.7980  139.4360 C   0  0  2  0  0  0  0  0  0  0  0  0
  191.7330  173.2400  138.8900 C   0  0  2  0  0  3  0  0  0  0  0  0
  189.7680  171.2880  137.6340 C   0  0  0  0  0  2  0  0  0  0  0  0
  190.4180  173.6750  138.2760 C   0  0  2  0  0  3  0  0  0  0  0  0
  192.4780  169.8770  140.8560 C   0  0  0  0  0  1  0  0  0  0  0  0
  192.8470  171.1720  140.1490 C   0  0  0  0  0  3  0  0  0  0  0  0
  193.5170  172.1410  141.1170 C   0  0  0  0  0  1  0  0  0  0  0  0
  1 19  1  0  0  0  0
  1  2  1  1  0  0  0
  3  5  1  0  0  0  0
  3 33  1  1  0  0  0
  3  1  1  0  0  0  0
  4  2  1  0  0  0  0
  5  6  1  0  0  0  0
  6 22  1  1  0  0  0
  6  4  1  0  0  0  0
  7 17  1  6  0  0  0
  7 13  1  0  0  0  0
  7 19  1  0  0  0  0
  8 16  1  6  0  0  0
  8 17  1  0  0  0  0
  8 11  1  0  0  0  0
  9 21  1  0  0  0  0
  9 12  2  0  0  0  0
 10 12  1  0  0  0  0
 11 14  1  6  0  0  0
 11 13  1  0  0  0  0
 13  9  1  1  0  0  0
 16 18  1  0  0  0  0
 18 15  1  6  0  0  0
 18 14  1  0  0  0  0
 19 10  1  6  0  0  0
 21 20  1  0  0  0  0
 24 23  2  0  0  0  0
 24 25  1  0  0  0  0
 25 22  1  0  0  0  0
 26 24  1  0  0  0  0
 27 26  1  0  0  0  0
 28 27  1  0  0  0  0
 29 28  1  0  0  0  0
 30 32  1  0  0  0  0
 31 30  1  0  0  0  0
 31 32  1  0  0  0  0
 32 29  1  1  0  0  0
 35 34  1  6  0  0  0
 35 33  1  0  0  0  0
 37 35  1  0  0  0  0
 37 36  2  0  0  0  0
 38 37  1  0  0  0  0
 39 38  1  0  0  0  0
 40 42  1  0  0  0  0
 40 39  1  1  0  0  0
 41 49  1  6  0  0  0
 41 47  1  0  0  0  0
 41 42  1  0  0  0  0
 43 48  1  0  0  0  0
 44 45  1  0  0  0  0
 45 40  1  0  0  0  0
 46 49  1  0  0  0  0
 46 50  1  0  0  0  0
 47 52  1  0  0  0  0
 47 42  1  0  0  0  0
 48 47  1  0  0  0  0
 50 48  1  0  0  0  0
 50 45  1  0  0  0  0
 52 51  1  0  0  0  0
 52 53  1  0  0  0  0
M  END
>  <MODEL>
6

>  <REMARK>
 VINA RESULT:      -6.9      1.671      2.820
  Name = 
  15 active torsions:
  status: ('A' for Active; 'I' for Inactive)
    1  A    between atoms: C_2  and  C_32
    2  A    between atoms: C_3  and  C_53
    3  A    between atoms: C_7  and  C_13
    4  A    between atoms: C_7  and  O_40
    5  A    between atoms: C_12  and  C_23
    6  A    between atoms: C_18  and  O_35
    7  A    between atoms: C_21  and  C_38
    8  A    between atoms: C_32  and  N_44
    9  A    between atoms: C_34  and  N_47
   10  A    between atoms: C_34  and  C_51
   11  A    between atoms: O_35  and  C_37
   12  A    between atoms: C_36  and  C_37
   13  A    between atoms: O_39  and  O_40
   14  A    between atoms: O_39  and  C_41
   15  A    between atoms: C_41  and  C_43
                            x       y       z     vdW  Elec       q    Type
                         _______ _______ _______ _____ _____    ______ ____

>  <TORSDO>
F 15

$$$$
=
 OpenBabel11042415083D

 53 60  0  0  1  0  0  0  0  0999 V2000
  190.9060  175.9320  145.1330 C   0  0  1  0  0  3  0  0  0  0  0  0
  190.5180  177.3140  145.4140 N   0  0  0  0  0  2  0  0  0  0  0  0
  189.7650  175.1990  144.4010 C   0  0  1  0  0  3  0  0  0  0  0  0
  189.5300  177.3040  146.5000 C   0  0  0  0  0  2  0  0  0  0  0  0
  188.3860  175.7070  144.8680 C   0  0  0  0  0  2  0  0  0  0  0  0
  188.4230  176.2370  146.2980 C   0  0  2  0  0  3  0  0  0  0  0  0
  193.1260  174.9320  144.6850 C   0  0  2  0  0  3  0  0  0  0  0  0
  193.8130  172.7370  144.8130 C   0  0  1  0  0  3  0  0  0  0  0  0
  194.3420  175.4000  142.5440 C   0  0  0  0  0  0  0  0  0  0  0  0
  192.4380  176.7010  143.2540 N   0  0  0  0  0  2  0  0  0  0  0  0
  194.6360  173.3390  143.9960 C   0  0  1  0  0  3  0  0  0  0  0  0
  193.4580  176.3740  142.2950 C   0  0  0  0  0  3  0  0  0  0  0  0
  194.4260  174.8150  143.9380 C   0  0  2  0  0  3  0  0  0  0  0  0
  195.8800  172.6650  143.8820 N   0  0  0  0  0  2  0  0  0  0  0  0
  195.9350  170.0130  143.6790 Cl  0  0  0  0  0  0  0  0  0  0  0  0
  194.4130  171.4840  145.3800 C   0  0  0  0  0  2  0  0  0  0  0  0
  192.8430  173.6740  145.4620 C   0  0  0  0  0  2  0  0  0  0  0  0
  195.8000  171.4610  144.7090 C   0  0  2  0  0  3  0  0  0  0  0  0
  192.2240  175.8780  144.4110 C   0  0  1  0  0  3  0  0  0  0  0  0
  194.8180  174.5070  140.3530 N   0  0  0  0  0  1  0  0  0  0  0  0
  195.4070  175.1100  141.5360 C   0  0  0  0  0  2  0  0  0  0  0  0
  187.0750  176.8260  146.6620 C   0  0  0  0  0  2  0  0  0  0  0  0
  184.4390  177.7910  146.1880 O   0  0  0  0  0  0  0  0  0  0  0  0
  185.3830  178.3460  145.5710 C   0  0  0  0  0  0  0  0  0  0  0  0
  186.7210  177.8640  145.7070 N   0  0  0  0  0  2  0  0  0  0  0  0
  185.1030  179.5120  144.6740 C   0  0  0  0  0  2  0  0  0  0  0  0
  185.6730  179.2950  143.4050 O   0  0  0  0  0  0  0  0  0  0  0  0
  184.7640  178.6120  142.7330 O   0  0  0  0  0  0  0  0  0  0  0  0
  185.3530  178.3330  141.5000 C   0  0  0  0  0  2  0  0  0  0  0  0
  187.0720  176.9940  140.3900 C   0  0  0  0  0  2  0  0  0  0  0  0
  187.6330  177.6400  141.5050 O   0  0  0  0  0  0  0  0  0  0  0  0
  186.3130  177.1670  141.6460 C   0  0  1  0  0  3  0  0  0  0  0  0
  189.8570  175.3890  143.0170 O   0  0  0  0  0  0  0  0  0  0  0  0
  189.8140  173.0570  143.5620 C   0  0  0  0  0  1  0  0  0  0  0  0
  189.8610  174.1020  142.4570 C   0  0  1  0  0  3  0  0  0  0  0  0
  187.5380  173.8580  142.0140 O   0  0  0  0  0  0  0  0  0  0  0  0
  188.6940  173.9190  141.5260 C   0  0  0  0  0  0  0  0  0  0  0  0
  188.8440  173.8730  140.1050 N   0  0  0  0  0  2  0  0  0  0  0  0
  190.1280  173.7460  139.4440 C   0  0  0  0  0  2  0  0  0  0  0  0
  190.1930  172.4130  138.7310 C   0  0  2  0  0  3  0  0  0  0  0  0
  190.1900  169.8610  139.2440 C   0  0  2  0  0  3  0  0  0  0  0  0
  190.4560  171.2950  139.7740 C   0  0  1  0  0  3  0  0  0  0  0  0
  193.4660  169.4980  137.9730 C   0  0  0  0  0  1  0  0  0  0  0  0
  190.5090  173.0650  136.4400 O   0  0  0  0  0  1  0  0  0  0  0  0
  191.1590  172.5100  137.5390 C   0  0  2  0  0  3  0  0  0  0  0  0
  190.7780  170.1130  136.7140 C   0  0  0  0  0  2  0  0  0  0  0  0
  191.6280  170.3370  139.5320 C   0  0  2  0  0  0  0  0  0  0  0  0
  192.5740  170.6740  138.3590 C   0  0  2  0  0  3  0  0  0  0  0  0
  189.7100  169.8330  137.7770 C   0  0  0  0  0  2  0  0  0  0  0  0
  191.7970  171.1740  137.1580 C   0  0  2  0  0  3  0  0  0  0  0  0
  191.2190  169.0080  141.6470 C   0  0  0  0  0  1  0  0  0  0  0  0
  192.2090  169.8620  140.8700 C   0  0  0  0  0  3  0  0  0  0  0  0
  192.7130  171.0170  141.7290 C   0  0  0  0  0  1  0  0  0  0  0  0
  1  2  1  6  0  0  0
  2  4  1  0  0  0  0
  3 33  1  6  0  0  0
  3  5  1  0  0  0  0
  3  1  1  0  0  0  0
  5  6  1  0  0  0  0
  6  4  1  0  0  0  0
  6 22  1  6  0  0  0
  7 17  1  6  0  0  0
  8 16  1  1  0  0  0
  8 17  1  0  0  0  0
 11 14  1  1  0  0  0
 11  8  1  0  0  0  0
 12  9  2  0  0  0  0
 12 10  1  0  0  0  0
 13  9  1  6  0  0  0
 13 11  1  0  0  0  0
 13  7  1  0  0  0  0
 14 18  1  0  0  0  0
 18 15  1  6  0  0  0
 18 16  1  0  0  0  0
 19 10  1  6  0  0  0
 19  7  1  0  0  0  0
 19  1  1  0  0  0  0
 20 21  1  0  0  0  0
 21  9  1  0  0  0  0
 24 25  1  0  0  0  0
 24 23  2  0  0  0  0
 25 22  1  0  0  0  0
 26 24  1  0  0  0  0
 27 26  1  0  0  0  0
 28 27  1  0  0  0  0
 29 28  1  0  0  0  0
 30 31  1  0  0  0  0
 30 32  1  0  0  0  0
 31 32  1  0  0  0  0
 32 29  1  6  0  0  0
 35 33  1  0  0  0  0
 35 34  1  1  0  0  0
 37 36  2  0  0  0  0
 37 35  1  0  0  0  0
 38 37  1  0  0  0  0
 39 38  1  0  0  0  0
 40 39  1  1  0  0  0
 40 42  1  0  0  0  0
 41 49  1  6  0  0  0
 41 47  1  0  0  0  0
 41 42  1  0  0  0  0
 43 48  1  0  0  0  0
 44 45  1  0  0  0  0
 45 40  1  0  0  0  0
 46 50  1  0  0  0  0
 46 49  1  0  0  0  0
 47 42  1  0  0  0  0
 47 52  1  0  0  0  0
 48 47  1  0  0  0  0
 50 45  1  0  0  0  0
 50 48  1  0  0  0  0
 52 51  1  0  0  0  0
 52 53  1  0  0  0  0
M  END
>  <MODEL>
7

>  <REMARK>
 VINA RESULT:      -6.9      3.261      7.479
  Name = 
  15 active torsions:
  status: ('A' for Active; 'I' for Inactive)
    1  A    between atoms: C_2  and  C_32
    2  A    between atoms: C_3  and  C_53
    3  A    between atoms: C_7  and  C_13
    4  A    between atoms: C_7  and  O_40
    5  A    between atoms: C_12  and  C_23
    6  A    between atoms: C_18  and  O_35
    7  A    between atoms: C_21  and  C_38
    8  A    between atoms: C_32  and  N_44
    9  A    between atoms: C_34  and  N_47
   10  A    between atoms: C_34  and  C_51
   11  A    between atoms: O_35  and  C_37
   12  A    between atoms: C_36  and  C_37
   13  A    between atoms: O_39  and  O_40
   14  A    between atoms: O_39  and  C_41
   15  A    between atoms: C_41  and  C_43
                            x       y       z     vdW  Elec       q    Type
                         _______ _______ _______ _____ _____    ______ ____

>  <TORSDO>
F 15

$$$$
=
 OpenBabel11042415083D

 53 60  0  0  1  0  0  0  0  0999 V2000
  191.3430  176.4500  144.2580 C   0  0  1  0  0  3  0  0  0  0  0  0
  192.4830  176.1710  145.1310 N   0  0  0  0  0  2  0  0  0  0  0  0
  191.1390  175.2910  143.2630 C   0  0  1  0  0  3  0  0  0  0  0  0
  193.7140  176.3330  144.3470 C   0  0  0  0  0  2  0  0  0  0  0  0
  192.4860  174.6530  142.8680 C   0  0  0  0  0  2  0  0  0  0  0  0
  193.6420  175.6450  142.9600 C   0  0  2  0  0  3  0  0  0  0  0  0
  189.1250  177.5120  144.5450 C   0  0  2  0  0  3  0  0  0  0  0  0
  187.4570  177.8940  143.0020 C   0  0  1  0  0  3  0  0  0  0  0  0
  187.5600  176.7610  146.3520 C   0  0  2  0  0  3  0  0  0  0  0  0
  189.8880  176.1260  146.3190 N   0  0  0  0  0  0  0  0  0  0  0  0
  186.8830  177.8770  144.1760 C   0  0  1  0  0  3  0  0  0  0  0  0
  188.5700  176.0640  146.8890 C   0  0  0  0  0  3  0  0  0  0  0  0
  187.8600  177.8080  145.3020 C   0  0  2  0  0  3  0  0  0  0  0  0
  185.6420  178.5650  144.1840 N   0  0  0  0  0  2  0  0  0  0  0  0
  183.9380  178.2470  142.1670 Cl  0  0  0  0  0  0  0  0  0  0  0  0
  186.6220  178.6160  141.9870 C   0  0  0  0  0  2  0  0  0  0  0  0
  188.9490  177.8050  143.0780 C   0  0  0  0  0  2  0  0  0  0  0  0
  185.3950  179.0360  142.8210 C   0  0  2  0  0  3  0  0  0  0  0  0
  190.1170  176.7820  145.0620 C   0  0  1  0  0  3  0  0  0  0  0  0
  185.9670  177.9010  147.7620 N   0  0  0  0  0  1  0  0  0  0  0  0
  186.2100  176.6940  146.9910 C   0  0  0  0  0  2  0  0  0  0  0  0
  194.9500  174.9370  142.6740 C   0  0  0  0  0  2  0  0  0  0  0  0
  197.5890  175.0190  143.7380 O   0  0  0  0  0  0  0  0  0  0  0  0
  196.7220  174.3740  144.3790 C   0  0  0  0  0  0  0  0  0  0  0  0
  195.3960  174.2320  143.8650 N   0  0  0  0  0  2  0  0  0  0  0  0
  197.0810  173.7370  145.6860 C   0  0  0  0  0  2  0  0  0  0  0  0
  196.1440  172.7380  146.0120 O   0  0  0  0  0  0  0  0  0  0  0  0
  196.8530  171.6300  146.1350 O   0  0  0  0  0  0  0  0  0  0  0  0
  196.2490  170.7110  145.2770 C   0  0  0  0  0  2  0  0  0  0  0  0
  194.6420  168.9200  145.7090 C   0  0  0  0  0  2  0  0  0  0  0  0
  194.9690  169.5540  146.9200 O   0  0  0  0  0  0  0  0  0  0  0  0
  194.8580  170.3800  145.7840 C   0  0  1  0  0  3  0  0  0  0  0  0
  190.3270  174.2940  143.8180 O   0  0  0  0  0  0  0  0  0  0  0  0
  189.7420  172.0110  143.3920 C   0  0  0  0  0  1  0  0  0  0  0  0
  190.1230  173.3570  142.7930 C   0  0  1  0  0  3  0  0  0  0  0  0
  187.8870  173.9940  142.2940 O   0  0  0  0  0  0  0  0  0  0  0  0
  189.0490  173.8230  141.8490 C   0  0  0  0  0  0  0  0  0  0  0  0
  189.3130  174.1360  140.4790 N   0  0  0  0  0  2  0  0  0  0  0  0
  190.5570  173.8040  139.8120 C   0  0  0  0  0  2  0  0  0  0  0  0
  190.3620  172.5490  138.9880 C   0  0  2  0  0  3  0  0  0  0  0  0
  190.8700  169.9970  139.0700 C   0  0  2  0  0  3  0  0  0  0  0  0
  191.2380  171.4150  139.5830 C   0  0  1  0  0  3  0  0  0  0  0  0
  193.0060  170.2290  136.2670 C   0  0  0  0  0  1  0  0  0  0  0  0
  189.3650  173.3990  136.9750 O   0  0  0  0  0  1  0  0  0  0  0  0
  190.5440  172.8750  137.4970 C   0  0  2  0  0  3  0  0  0  0  0  0
  190.0140  170.5120  136.6590 C   0  0  0  0  0  2  0  0  0  0  0  0
  192.1920  170.6670  138.6460 C   0  0  2  0  0  0  0  0  0  0  0  0
  192.3440  171.2250  137.2130 C   0  0  2  0  0  3  0  0  0  0  0  0
  189.6950  169.9980  138.0670 C   0  0  0  0  0  2  0  0  0  0  0  0
  191.0090  171.6820  136.6630 C   0  0  2  0  0  3  0  0  0  0  0  0
  193.0700  169.6380  140.7860 C   0  0  0  0  0  1  0  0  0  0  0  0
  193.4310  170.1930  139.4170 C   0  0  0  0  0  3  0  0  0  0  0  0
  194.4890  171.2840  139.5420 C   0  0  0  0  0  1  0  0  0  0  0  0
  1 19  1  0  0  0  0
  1  2  1  1  0  0  0
  3 33  1  1  0  0  0
  3  1  1  0  0  0  0
  4  2  1  0  0  0  0
  5  6  1  0  0  0  0
  5  3  1  0  0  0  0
  6 22  1  1  0  0  0
  6  4  1  0  0  0  0
  7 17  1  6  0  0  0
  7 19  1  0  0  0  0
  7 13  1  0  0  0  0
  8 16  1  1  0  0  0
  8 17  1  0  0  0  0
  8 11  1  0  0  0  0
  9 12  1  0  0  0  0
  9 21  1  1  0  0  0
 10 12  2  0  0  0  0
 11 14  1  1  0  0  0
 11 13  1  0  0  0  0
 13  9  1  0  0  0  0
 15 18  1  0  0  0  0
 16 18  1  0  0  0  0
 18 14  1  0  0  0  0
 19 10  1  0  0  0  0
 21 20  1  0  0  0  0
 22 25  1  0  0  0  0
 23 24  2  0  0  0  0
 24 26  1  0  0  0  0
 25 24  1  0  0  0  0
 26 27  1  0  0  0  0
 27 28  1  0  0  0  0
 29 32  1  0  0  0  0
 29 28  1  0  0  0  0
 30 32  1  0  0  0  0
 30 31  1  0  0  0  0
 32 31  1  0  0  0  0
 35 34  1  0  0  0  0
 35 33  1  0  0  0  0
 37 36  2  0  0  0  0
 37 35  1  0  0  0  0
 38 37  1  0  0  0  0
 39 38  1  0  0  0  0
 40 42  1  0  0  0  0
 40 39  1  0  0  0  0
 41 42  1  0  0  0  0
 43 48  1  0  0  0  0
 44 45  1  0  0  0  0
 45 40  1  0  0  0  0
 46 50  1  0  0  0  0
 46 49  1  0  0  0  0
 47 41  1  0  0  0  0
 47 52  1  0  0  0  0
 47 42  1  0  0  0  0
 48 47  1  0  0  0  0
 49 41  1  0  0  0  0
 50 48  1  0  0  0  0
 50 45  1  0  0  0  0
 52 53  1  0  0  0  0
 52 51  1  0  0  0  0
M  END
>  <MODEL>
8

>  <REMARK>
 VINA RESULT:      -6.8      1.992      3.476
  Name = 
  15 active torsions:
  status: ('A' for Active; 'I' for Inactive)
    1  A    between atoms: C_2  and  C_32
    2  A    between atoms: C_3  and  C_53
    3  A    between atoms: C_7  and  C_13
    4  A    between atoms: C_7  and  O_40
    5  A    between atoms: C_12  and  C_23
    6  A    between atoms: C_18  and  O_35
    7  A    between atoms: C_21  and  C_38
    8  A    between atoms: C_32  and  N_44
    9  A    between atoms: C_34  and  N_47
   10  A    between atoms: C_34  and  C_51
   11  A    between atoms: O_35  and  C_37
   12  A    between atoms: C_36  and  C_37
   13  A    between atoms: O_39  and  O_40
   14  A    between atoms: O_39  and  C_41
   15  A    between atoms: C_41  and  C_43
                            x       y       z     vdW  Elec       q    Type
                         _______ _______ _______ _____ _____    ______ ____

>  <TORSDO>
F 15

$$$$
=
 OpenBabel11042415083D

 53 60  0  0  1  0  0  0  0  0999 V2000
  190.9520  175.9710  145.3370 C   0  0  1  0  0  3  0  0  0  0  0  0
  190.4440  177.3410  145.3960 N   0  0  0  0  0  2  0  0  0  0  0  0
  189.8660  175.0250  144.7880 C   0  0  1  0  0  3  0  0  0  0  0  0
  189.4880  177.4320  146.5070 C   0  0  0  0  0  2  0  0  0  0  0  0
  188.4590  175.4830  145.2170 C   0  0  0  0  0  2  0  0  0  0  0  0
  188.4810  176.2540  146.5340 C   0  0  2  0  0  3  0  0  0  0  0  0
  193.1890  175.0090  144.8900 C   0  0  2  0  0  3  0  0  0  0  0  0
  193.9470  172.8480  145.1390 C   0  0  1  0  0  3  0  0  0  0  0  0
  194.3310  175.3720  142.6900 C   0  0  0  0  0  0  0  0  0  0  0  0
  192.4080  176.6600  143.3700 N   0  0  0  0  0  2  0  0  0  0  0  0
  194.7290  173.4190  144.2610 C   0  0  1  0  0  3  0  0  0  0  0  0
  193.4110  176.3020  142.4050 C   0  0  0  0  0  3  0  0  0  0  0  0
  194.4710  174.8820  144.1150 C   0  0  2  0  0  3  0  0  0  0  0  0
  195.9890  172.7760  144.1540 N   0  0  0  0  0  2  0  0  0  0  0  0
  196.1210  170.1190  144.1200 Cl  0  0  0  0  0  0  0  0  0  0  0  0
  194.6000  171.6520  145.7670 C   0  0  0  0  0  2  0  0  0  0  0  0
  192.9670  173.7960  145.7540 C   0  0  0  0  0  2  0  0  0  0  0  0
  195.9690  171.6260  145.0590 C   0  0  2  0  0  3  0  0  0  0  0  0
  192.2510  175.9090  144.5830 C   0  0  1  0  0  3  0  0  0  0  0  0
  194.8580  174.0830  140.7190 N   0  0  0  0  0  1  0  0  0  0  0  0
  195.3770  175.0480  141.6720 C   0  0  0  0  0  2  0  0  0  0  0  0
  187.0940  176.7760  146.8470 C   0  0  0  0  0  2  0  0  0  0  0  0
  184.4470  177.7110  146.3690 O   0  0  0  0  0  0  0  0  0  0  0  0
  185.3840  178.2670  145.7420 C   0  0  0  0  0  0  0  0  0  0  0  0
  186.7270  177.7990  145.8800 N   0  0  0  0  0  2  0  0  0  0  0  0
  185.0900  179.4200  144.8320 C   0  0  0  0  0  2  0  0  0  0  0  0
  185.8430  179.3060  143.6480 O   0  0  0  0  0  0  0  0  0  0  0  0
  185.0150  178.7750  142.7650 O   0  0  0  0  0  0  0  0  0  0  0  0
  185.8230  178.3680  141.7040 C   0  0  0  0  0  2  0  0  0  0  0  0
  187.5120  176.6130  141.4810 C   0  0  0  0  0  2  0  0  0  0  0  0
  188.1010  177.8620  141.2210 O   0  0  0  0  0  0  0  0  0  0  0  0
  187.1330  177.8210  142.2430 C   0  0  1  0  0  3  0  0  0  0  0  0
  189.9060  174.9800  143.3890 O   0  0  0  0  0  0  0  0  0  0  0  0
  189.8230  172.7410  144.2350 C   0  0  0  0  0  1  0  0  0  0  0  0
  190.1720  173.6420  143.0600 C   0  0  1  0  0  3  0  0  0  0  0  0
  188.2110  172.8300  141.9890 O   0  0  0  0  0  0  0  0  0  0  0  0
  189.3950  173.2250  141.8430 C   0  0  0  0  0  0  0  0  0  0  0  0
  189.9290  173.3180  140.5200 N   0  0  0  0  0  2  0  0  0  0  0  0
  191.3280  173.5780  140.2430 C   0  0  0  0  0  2  0  0  0  0  0  0
  191.9290  172.3800  139.5400 C   0  0  2  0  0  3  0  0  0  0  0  0
  192.2560  171.4140  137.1450 C   0  0  2  0  0  3  0  0  0  0  0  0
  191.4450  172.3650  138.0660 C   0  0  1  0  0  3  0  0  0  0  0  0
  190.2170  168.6250  137.8810 C   0  0  0  0  0  1  0  0  0  0  0  0
  192.6480  171.0080  141.3770 O   0  0  0  0  0  1  0  0  0  0  0  0
  191.6850  171.1140  140.3770 C   0  0  2  0  0  3  0  0  0  0  0  0
  192.9550  169.5320  138.8110 C   0  0  0  0  0  2  0  0  0  0  0  0
  190.7990  171.0850  137.5270 C   0  0  2  0  0  0  0  0  0  0  0  0
  190.5080  169.9650  138.5500 C   0  0  2  0  0  3  0  0  0  0  0  0
  193.3900  170.6710  137.8830 C   0  0  0  0  0  2  0  0  0  0  0  0
  191.6410  169.8310  139.5470 C   0  0  2  0  0  3  0  0  0  0  0  0
  190.2480  171.0830  135.0560 C   0  0  0  0  0  1  0  0  0  0  0  0
  189.7570  171.4280  136.4530 C   0  0  0  0  0  3  0  0  0  0  0  0
  189.3110  172.8850  136.5210 C   0  0  0  0  0  1  0  0  0  0  0  0
  1  2  1  6  0  0  0
  2  4  1  0  0  0  0
  3 33  1  6  0  0  0
  3  5  1  0  0  0  0
  3  1  1  0  0  0  0
  4  6  1  0  0  0  0
  5  6  1  0  0  0  0
  6 22  1  6  0  0  0
  7 17  1  6  0  0  0
  8 17  1  1  0  0  0
  8 16  1  0  0  0  0
 11 14  1  1  0  0  0
 11  8  1  0  0  0  0
 12  9  2  0  0  0  0
 12 10  1  0  0  0  0
 13  9  1  6  0  0  0
 13 11  1  0  0  0  0
 13  7  1  0  0  0  0
 14 18  1  0  0  0  0
 18 15  1  6  0  0  0
 18 16  1  0  0  0  0
 19 10  1  6  0  0  0
 19  7  1  0  0  0  0
 19  1  1  0  0  0  0
 20 21  1  0  0  0  0
 21  9  1  0  0  0  0
 24 25  1  0  0  0  0
 24 23  2  0  0  0  0
 25 22  1  0  0  0  0
 26 24  1  0  0  0  0
 27 26  1  0  0  0  0
 28 27  1  0  0  0  0
 29 28  1  0  0  0  0
 30 32  1  0  0  0  0
 31 30  1  0  0  0  0
 31 32  1  0  0  0  0
 32 29  1  6  0  0  0
 35 33  1  0  0  0  0
 35 34  1  1  0  0  0
 37 36  2  0  0  0  0
 37 35  1  0  0  0  0
 38 37  1  0  0  0  0
 39 38  1  0  0  0  0
 40 39  1  1  0  0  0
 40 45  1  0  0  0  0
 41 47  1  0  0  0  0
 41 49  1  1  0  0  0
 41 42  1  0  0  0  0
 42 40  1  0  0  0  0
 43 48  1  0  0  0  0
 45 44  1  0  0  0  0
 46 50  1  0  0  0  0
 47 42  1  0  0  0  0
 47 48  1  0  0  0  0
 48 50  1  0  0  0  0
 49 46  1  0  0  0  0
 50 45  1  0  0  0  0
 51 52  1  0  0  0  0
 52 53  1  0  0  0  0
 52 47  1  0  0  0  0
M  END
>  <MODEL>
9

>  <REMARK>
 VINA RESULT:      -6.7      3.001      7.157
  Name = 
  15 active torsions:
  status: ('A' for Active; 'I' for Inactive)
    1  A    between atoms: C_2  and  C_32
    2  A    between atoms: C_3  and  C_53
    3  A    between atoms: C_7  and  C_13
    4  A    between atoms: C_7  and  O_40
    5  A    between atoms: C_12  and  C_23
    6  A    between atoms: C_18  and  O_35
    7  A    between atoms: C_21  and  C_38
    8  A    between atoms: C_32  and  N_44
    9  A    between atoms: C_34  and  N_47
   10  A    between atoms: C_34  and  C_51
   11  A    between atoms: O_35  and  C_37
   12  A    between atoms: C_36  and  C_37
   13  A    between atoms: O_39  and  O_40
   14  A    between atoms: O_39  and  C_41
   15  A    between atoms: C_41  and  C_43
                            x       y       z     vdW  Elec       q    Type
                         _______ _______ _______ _____ _____    ______ ____

>  <TORSDO>
F 15

$$$$
