=
 OpenBabel11042418253D

 28 32  0  0  1  0  0  0  0  0999 V2000
  189.7900  175.3930  146.1360 C   0  0  2  0  0  3  0  0  0  0  0  0
  189.5610  175.3090  144.6680 N   0  0  0  0  0  0  0  0  0  0  0  0
  187.8190  176.6980  146.1570 C   0  0  1  0  0  3  0  0  0  0  0  0
  184.4970  178.4600  144.5140 C   0  0  0  0  0  0  0  0  0  0  0  0
  186.4580  177.2870  146.0170 C   0  0  0  0  0  0  0  0  0  0  0  0
  188.5090  175.7920  146.8240 C   0  0  0  0  0  2  0  0  0  0  0  0
  185.7780  178.3390  143.9170 C   0  0  0  0  0  3  0  0  0  0  0  0
  190.1150  174.2130  143.9220 C   0  0  0  0  0  0  0  0  0  0  0  0
  186.7230  177.7330  144.7180 C   0  0  0  0  0  0  0  0  0  0  0  0
  188.6440  176.2460  143.9650 C   0  0  0  0  0  2  0  0  0  0  0  0
  189.9760  174.1650  142.6690 O   0  0  0  0  0  0  0  0  0  0  0  0
  185.2060  177.4020  146.5820 C   0  0  0  0  0  3  0  0  0  0  0  0
  183.4440  179.0700  143.7780 N   0  0  0  0  0  1  0  0  0  0  0  0
  184.2540  178.0060  145.7990 N   0  0  0  0  0  0  0  0  0  0  0  0
  188.1120  177.3380  144.9070 C   0  0  2  0  0  3  0  0  0  0  0  0
  190.5400  177.1910  147.5590 O   0  0  0  0  0  0  0  0  0  0  0  0
  190.8980  176.4060  146.4500 C   0  0  1  0  0  3  0  0  0  0  0  0
  191.5960  176.6520  148.3110 C   0  0  0  0  0  2  0  0  0  0  0  0
  192.0430  175.7650  147.1850 C   0  0  0  0  0  2  0  0  0  0  0  0
  190.8490  173.1030  144.6060 C   0  0  0  0  0  2  0  0  0  0  0  0
  192.1360  172.8800  143.9650 N   0  0  0  0  0  2  0  0  0  0  0  0
  194.3440  173.8600  144.0200 C   0  0  1  0  0  3  0  0  0  0  0  0
  192.8550  174.1420  143.9920 C   0  0  1  0  0  3  0  0  0  0  0  0
  193.6790  174.2800  142.7280 C   0  0  0  0  0  2  0  0  0  0  0  0
  195.2130  175.2710  144.7670 P   0  0  0  0  0  0  0  0  0  0  0  0
  194.2580  176.6580  144.6030 O   0  0  0  0  0  1  0  0  0  0  0  0
  195.4380  174.9950  146.2360 O   0  0  0  0  0  1  0  0  0  0  0  0
  196.7060  175.5320  144.0130 O   0  0  0  0  0  0  0  0  0  0  0  0
  1 17  1  0  0  0  0
  1  6  1  1  0  0  0
  2  1  1  0  0  0  0
  3  6  1  6  0  0  0
  4 14  1  0  0  0  0
  5  3  1  0  0  0  0
  5 12  1  0  0  0  0
  7  4  2  0  0  0  0
  7  9  1  0  0  0  0
  8 20  1  0  0  0  0
  8  2  1  0  0  0  0
  9 15  1  0  0  0  0
  9  5  2  0  0  0  0
 10  2  1  0  0  0  0
 11  8  2  0  0  0  0
 13  4  1  0  0  0  0
 14 12  2  0  0  0  0
 15 10  1  6  0  0  0
 15  3  1  0  0  0  0
 16 18  1  0  0  0  0
 17 19  1  1  0  0  0
 17 16  1  0  0  0  0
 19 18  1  0  0  0  0
 21 20  1  0  0  0  0
 22 25  1  1  0  0  0
 23 21  1  6  0  0  0
 23 22  1  0  0  0  0
 24 23  1  0  0  0  0
 24 22  1  0  0  0  0
 25 27  1  0  0  0  0
 26 25  1  0  0  0  0
 28 25  2  0  0  0  0
M  END
>  <MODEL>
1

>  <REMARK>
 VINA RESULT:      -7.0      0.000      0.000
  Name = 
  5 active torsions:
  status: ('A' for Active; 'I' for Inactive)
    1  A    between atoms: C_1  and  C_13
    2  A    between atoms: C_7  and  P_11
    3  A    between atoms: N_10  and  C_16
    4  A    between atoms: N_10  and  C_24
    5  A    between atoms: C_12  and  C_24
                            x       y       z     vdW  Elec       q    Type
                         _______ _______ _______ _____ _____    ______ ____

>  <TORSDO>
F 5

$$$$
=
 OpenBabel11042418253D

 28 32  0  0  1  0  0  0  0  0999 V2000
  191.7400  176.4410  145.2440 C   0  0  2  0  0  3  0  0  0  0  0  0
  191.2920  176.2130  143.8430 N   0  0  0  0  0  0  0  0  0  0  0  0
  193.9190  176.1640  144.3720 C   0  0  1  0  0  3  0  0  0  0  0  0
  196.7070  175.6190  141.4100 C   0  0  0  0  0  0  0  0  0  0  0  0
  195.2050  176.2010  143.6210 C   0  0  0  0  0  0  0  0  0  0  0  0
  193.1960  176.8310  145.2510 C   0  0  0  0  0  2  0  0  0  0  0  0
  195.4270  175.0130  141.4940 C   0  0  0  0  0  3  0  0  0  0  0  0
  190.0180  176.7190  143.4110 C   0  0  0  0  0  0  0  0  0  0  0  0
  194.7130  175.3490  142.6250 C   0  0  0  0  0  0  0  0  0  0  0  0
  192.1910  175.6060  142.8250 C   0  0  0  0  0  2  0  0  0  0  0  0
  189.6060  176.4790  142.2440 O   0  0  0  0  0  0  0  0  0  0  0  0
  196.4470  176.7890  143.5220 C   0  0  0  0  0  3  0  0  0  0  0  0
  197.5310  175.3430  140.2840 N   0  0  0  0  0  1  0  0  0  0  0  0
  197.1730  176.4640  142.4030 N   0  0  0  0  0  0  0  0  0  0  0  0
  193.5220  175.1480  143.4400 C   0  0  2  0  0  3  0  0  0  0  0  0
  192.3360  175.2170  147.2360 O   0  0  0  0  0  0  0  0  0  0  0  0
  191.5250  175.1790  146.0890 C   0  0  1  0  0  3  0  0  0  0  0  0
  191.2040  175.2820  148.0640 C   0  0  0  0  0  2  0  0  0  0  0  0
  190.2590  175.2610  146.8970 C   0  0  0  0  0  2  0  0  0  0  0  0
  189.1650  177.5470  144.3190 C   0  0  0  0  0  2  0  0  0  0  0  0
  188.0330  176.7680  144.7960 N   0  0  0  0  0  2  0  0  0  0  0  0
  185.6880  177.2740  144.5110 C   0  0  1  0  0  3  0  0  0  0  0  0
  186.9870  177.7080  145.1600 C   0  0  1  0  0  3  0  0  0  0  0  0
  185.9300  176.9940  145.9780 C   0  0  0  0  0  2  0  0  0  0  0  0
  184.5970  178.7160  144.3180 P   0  0  0  0  0  0  0  0  0  0  0  0
  185.5430  180.0930  144.0530 O   0  0  0  0  0  1  0  0  0  0  0  0
  183.6920  178.4980  143.1280 O   0  0  0  0  0  0  0  0  0  0  0  0
  183.6510  178.9490  145.7030 O   0  0  0  0  0  1  0  0  0  0  0  0
  1  6  1  6  0  0  0
  1 17  1  0  0  0  0
  2  1  1  0  0  0  0
  3  6  1  6  0  0  0
  4  7  2  0  0  0  0
  4 14  1  0  0  0  0
  5  3  1  0  0  0  0
  7  9  1  0  0  0  0
  8  2  1  0  0  0  0
  8 20  1  0  0  0  0
  9 15  1  0  0  0  0
  9  5  2  0  0  0  0
 10  2  1  0  0  0  0
 11  8  2  0  0  0  0
 12  5  1  0  0  0  0
 13  4  1  0  0  0  0
 14 12  2  0  0  0  0
 15 10  1  6  0  0  0
 15  3  1  0  0  0  0
 16 18  1  0  0  0  0
 17 19  1  1  0  0  0
 17 16  1  0  0  0  0
 19 18  1  0  0  0  0
 20 21  1  0  0  0  0
 22 25  1  1  0  0  0
 22 23  1  0  0  0  0
 22 24  1  0  0  0  0
 23 21  1  6  0  0  0
 23 24  1  0  0  0  0
 25 28  1  0  0  0  0
 26 25  1  0  0  0  0
 27 25  2  0  0  0  0
M  END
>  <MODEL>
2

>  <REMARK>
 VINA RESULT:      -6.9      4.066      8.358
  Name = 
  5 active torsions:
  status: ('A' for Active; 'I' for Inactive)
    1  A    between atoms: C_1  and  C_13
    2  A    between atoms: C_7  and  P_11
    3  A    between atoms: N_10  and  C_16
    4  A    between atoms: N_10  and  C_24
    5  A    between atoms: C_12  and  C_24
                            x       y       z     vdW  Elec       q    Type
                         _______ _______ _______ _____ _____    ______ ____

>  <TORSDO>
F 5

$$$$
=
 OpenBabel11042418253D

 28 32  0  0  1  0  0  0  0  0999 V2000
  189.8410  175.5500  144.0070 C   0  0  2  0  0  3  0  0  0  0  0  0
  190.2900  176.3080  145.2070 N   0  0  0  0  0  0  0  0  0  0  0  0
  191.9760  174.5400  144.1050 C   0  0  1  0  0  3  0  0  0  0  0  0
  195.6730  173.7850  145.7210 C   0  0  0  0  0  0  0  0  0  0  0  0
  193.2480  173.8470  144.4570 C   0  0  0  0  0  0  0  0  0  0  0  0
  190.7020  174.3250  143.8320 C   0  0  0  0  0  2  0  0  0  0  0  0
  195.0040  175.0360  145.6760 C   0  0  0  0  0  3  0  0  0  0  0  0
  189.3150  176.8490  146.1130 C   0  0  0  0  0  0  0  0  0  0  0  0
  193.7830  175.0040  145.0340 C   0  0  0  0  0  0  0  0  0  0  0  0
  191.7270  176.3950  145.5830 C   0  0  0  0  0  2  0  0  0  0  0  0
  189.6850  177.5420  147.0990 O   0  0  0  0  0  0  0  0  0  0  0  0
  193.9040  172.6370  144.5150 C   0  0  0  0  0  3  0  0  0  0  0  0
  196.9400  173.7000  146.3600 N   0  0  0  0  0  1  0  0  0  0  0  0
  195.1220  172.6510  145.1490 N   0  0  0  0  0  0  0  0  0  0  0  0
  192.6340  175.7420  144.5290 C   0  0  2  0  0  3  0  0  0  0  0  0
  188.6720  176.4600  142.1020 O   0  0  0  0  0  0  0  0  0  0  0  0
  189.9170  176.4330  142.7540 C   0  0  1  0  0  3  0  0  0  0  0  0
  188.5330  177.8310  142.3720 C   0  0  0  0  0  2  0  0  0  0  0  0
  189.8450  177.8950  143.1010 C   0  0  0  0  0  2  0  0  0  0  0  0
  187.8530  176.5930  145.9210 C   0  0  0  0  0  2  0  0  0  0  0  0
  187.0760  177.3800  146.8660 N   0  0  0  0  0  2  0  0  0  0  0  0
  185.2940  177.5120  145.2400 C   0  0  1  0  0  3  0  0  0  0  0  0
  186.2660  178.3040  146.0910 C   0  0  1  0  0  3  0  0  0  0  0  0
  184.8150  178.1770  146.5120 C   0  0  0  0  0  2  0  0  0  0  0  0
  184.8110  178.5020  143.7940 P   0  0  0  0  0  0  0  0  0  0  0  0
  184.8850  177.5320  142.4100 O   0  0  0  0  0  0  0  0  0  0  0  0
  183.3940  178.9940  143.9790 O   0  0  0  0  0  1  0  0  0  0  0  0
  185.8420  179.8310  143.5970 O   0  0  0  0  0  1  0  0  0  0  0  0
  1  6  1  6  0  0  0
  1  2  1  0  0  0  0
  2 10  1  0  0  0  0
  2  8  1  0  0  0  0
  3  6  1  1  0  0  0
  3  5  1  0  0  0  0
  3 15  1  0  0  0  0
  4 13  1  0  0  0  0
  5 12  2  0  0  0  0
  5  9  1  0  0  0  0
  7  4  1  0  0  0  0
  8 11  2  0  0  0  0
  9  7  2  0  0  0  0
 12 14  1  0  0  0  0
 14  4  2  0  0  0  0
 15  9  1  0  0  0  0
 15 10  1  1  0  0  0
 16 18  1  0  0  0  0
 16 17  1  0  0  0  0
 17 19  1  1  0  0  0
 17  1  1  0  0  0  0
 18 19  1  0  0  0  0
 20  8  1  0  0  0  0
 20 21  1  0  0  0  0
 22 25  1  6  0  0  0
 22 23  1  0  0  0  0
 22 24  1  0  0  0  0
 23 24  1  0  0  0  0
 23 21  1  1  0  0  0
 25 27  1  0  0  0  0
 26 25  2  0  0  0  0
 28 25  1  0  0  0  0
M  END
>  <MODEL>
3

>  <REMARK>
 VINA RESULT:      -6.9      3.631      8.331
  Name = 
  5 active torsions:
  status: ('A' for Active; 'I' for Inactive)
    1  A    between atoms: C_1  and  C_13
    2  A    between atoms: C_7  and  P_11
    3  A    between atoms: N_10  and  C_16
    4  A    between atoms: N_10  and  C_24
    5  A    between atoms: C_12  and  C_24
                            x       y       z     vdW  Elec       q    Type
                         _______ _______ _______ _____ _____    ______ ____

>  <TORSDO>
F 5

$$$$
=
 OpenBabel11042418253D

 28 32  0  0  1  0  0  0  0  0999 V2000
  190.7660  176.4880  145.3560 C   0  0  2  0  0  3  0  0  0  0  0  0
  190.5250  175.2890  144.5080 N   0  0  0  0  0  0  0  0  0  0  0  0
  192.8400  175.4670  145.8470 C   0  0  1  0  0  3  0  0  0  0  0  0
  195.7590  172.6020  145.5020 C   0  0  0  0  0  0  0  0  0  0  0  0
  194.1740  174.8040  145.8540 C   0  0  0  0  0  0  0  0  0  0  0  0
  192.2410  176.6230  145.6320 C   0  0  0  0  0  2  0  0  0  0  0  0
  194.3560  172.3910  145.4990 C   0  0  0  0  0  3  0  0  0  0  0  0
  189.5980  175.3650  143.4130 C   0  0  0  0  0  0  0  0  0  0  0  0
  193.6080  173.5370  145.6720 C   0  0  0  0  0  0  0  0  0  0  0  0
  191.3310  174.0480  144.6630 C   0  0  0  0  0  2  0  0  0  0  0  0
  189.3440  174.3390  142.7270 O   0  0  0  0  0  0  0  0  0  0  0  0
  195.5390  174.9970  145.8460 C   0  0  0  0  0  3  0  0  0  0  0  0
  196.6280  171.4900  145.3310 N   0  0  0  0  0  1  0  0  0  0  0  0
  196.2980  173.8650  145.6770 N   0  0  0  0  0  0  0  0  0  0  0  0
  192.2950  174.1390  145.8560 C   0  0  2  0  0  3  0  0  0  0  0  0
  189.1530  177.4970  146.8410 O   0  0  0  0  0  0  0  0  0  0  0  0
  189.9880  176.3790  146.6740 C   0  0  1  0  0  3  0  0  0  0  0  0
  188.0100  176.6860  146.7530 C   0  0  0  0  0  2  0  0  0  0  0  0
  188.8210  175.4380  146.5530 C   0  0  0  0  0  2  0  0  0  0  0  0
  188.9290  176.6550  143.0530 C   0  0  0  0  0  2  0  0  0  0  0  0
  188.1850  176.5070  141.8110 N   0  0  0  0  0  2  0  0  0  0  0  0
  186.6730  178.2900  142.4220 C   0  0  1  0  0  3  0  0  0  0  0  0
  186.7960  176.8130  142.1040 C   0  0  1  0  0  3  0  0  0  0  0  0
  186.2610  177.7740  141.0600 C   0  0  0  0  0  2  0  0  0  0  0  0
  185.2070  178.5650  143.4600 P   0  0  0  0  0  0  0  0  0  0  0  0
  185.2230  177.4630  144.7430 O   0  0  0  0  0  1  0  0  0  0  0  0
  185.2460  179.9710  144.0130 O   0  0  0  0  0  1  0  0  0  0  0  0
  183.7840  178.3570  142.5660 O   0  0  0  0  0  0  0  0  0  0  0  0
  1  6  1  1  0  0  0
  1 17  1  0  0  0  0
  2 10  1  0  0  0  0
  2  1  1  0  0  0  0
  3  6  1  6  0  0  0
  3  5  1  0  0  0  0
  3 15  1  0  0  0  0
  4 14  1  0  0  0  0
  7  4  2  0  0  0  0
  7  9  1  0  0  0  0
  8  2  1  0  0  0  0
  9  5  2  0  0  0  0
  9 15  1  0  0  0  0
 11  8  2  0  0  0  0
 12  5  1  0  0  0  0
 13  4  1  0  0  0  0
 14 12  2  0  0  0  0
 15 10  1  6  0  0  0
 17 19  1  6  0  0  0
 17 16  1  0  0  0  0
 18 16  1  0  0  0  0
 19 18  1  0  0  0  0
 20  8  1  0  0  0  0
 21 20  1  0  0  0  0
 22 25  1  1  0  0  0
 23 21  1  6  0  0  0
 23 22  1  0  0  0  0
 24 23  1  0  0  0  0
 24 22  1  0  0  0  0
 25 27  1  0  0  0  0
 25 26  1  0  0  0  0
 28 25  2  0  0  0  0
M  END
>  <MODEL>
4

>  <REMARK>
 VINA RESULT:      -6.8      3.734      7.996
  Name = 
  5 active torsions:
  status: ('A' for Active; 'I' for Inactive)
    1  A    between atoms: C_1  and  C_13
    2  A    between atoms: C_7  and  P_11
    3  A    between atoms: N_10  and  C_16
    4  A    between atoms: N_10  and  C_24
    5  A    between atoms: C_12  and  C_24
                            x       y       z     vdW  Elec       q    Type
                         _______ _______ _______ _____ _____    ______ ____

>  <TORSDO>
F 5

$$$$
=
 OpenBabel11042418253D

 28 32  0  0  1  0  0  0  0  0999 V2000
  190.0050  175.0070  146.2360 C   0  0  2  0  0  3  0  0  0  0  0  0
  189.8590  175.1780  144.7650 N   0  0  0  0  0  0  0  0  0  0  0  0
  188.0470  176.3240  146.3730 C   0  0  1  0  0  3  0  0  0  0  0  0
  184.8380  178.3990  144.8780 C   0  0  0  0  0  0  0  0  0  0  0  0
  186.7000  176.9510  146.2620 C   0  0  0  0  0  0  0  0  0  0  0  0
  188.6910  175.3050  146.9110 C   0  0  0  0  0  2  0  0  0  0  0  0
  186.1490  178.3590  144.3390 C   0  0  0  0  0  3  0  0  0  0  0  0
  190.4450  174.2160  143.8730 C   0  0  0  0  0  0  0  0  0  0  0  0
  187.0430  177.6080  145.0750 C   0  0  0  0  0  0  0  0  0  0  0  0
  188.9910  176.2380  144.1840 C   0  0  0  0  0  2  0  0  0  0  0  0
  190.3770  174.3860  142.6250 O   0  0  0  0  0  0  0  0  0  0  0  0
  185.4200  176.9910  146.7700 C   0  0  0  0  0  3  0  0  0  0  0  0
  183.8330  179.1430  144.2010 N   0  0  0  0  0  1  0  0  0  0  0  0
  184.5180  177.7360  146.0510 N   0  0  0  0  0  0  0  0  0  0  0  0
  188.4150  177.1620  145.2690 C   0  0  2  0  0  3  0  0  0  0  0  0
  192.0430  175.1920  147.5150 O   0  0  0  0  0  0  0  0  0  0  0  0
  191.1020  175.9320  146.7780 C   0  0  1  0  0  3  0  0  0  0  0  0
  193.0450  175.4860  146.5760 C   0  0  0  0  0  2  0  0  0  0  0  0
  192.1060  176.2840  145.7160 C   0  0  0  0  0  2  0  0  0  0  0  0
  191.1310  172.9930  144.3960 C   0  0  0  0  0  2  0  0  0  0  0  0
  192.5450  173.0230  144.0530 N   0  0  0  0  0  2  0  0  0  0  0  0
  194.1340  171.2030  144.0590 C   0  0  1  0  0  3  0  0  0  0  0  0
  193.2150  172.0590  144.9080 C   0  0  1  0  0  3  0  0  0  0  0  0
  194.7070  172.3260  144.8970 C   0  0  0  0  0  2  0  0  0  0  0  0
  194.4050  169.6050  144.8830 P   0  0  0  0  0  0  0  0  0  0  0  0
  192.9860  168.6890  144.7890 O   0  0  0  0  0  1  0  0  0  0  0  0
  195.5200  168.8670  144.1790 O   0  0  0  0  0  0  0  0  0  0  0  0
  194.8190  169.8240  146.5100 O   0  0  0  0  0  1  0  0  0  0  0  0
  1 17  1  0  0  0  0
  1  6  1  1  0  0  0
  2  1  1  0  0  0  0
  3  6  1  6  0  0  0
  4 14  1  0  0  0  0
  5  3  1  0  0  0  0
  5 12  1  0  0  0  0
  7  4  2  0  0  0  0
  7  9  1  0  0  0  0
  8 20  1  0  0  0  0
  8  2  1  0  0  0  0
  9 15  1  0  0  0  0
  9  5  2  0  0  0  0
 10  2  1  0  0  0  0
 11  8  2  0  0  0  0
 13  4  1  0  0  0  0
 14 12  2  0  0  0  0
 15 10  1  6  0  0  0
 15  3  1  0  0  0  0
 17 19  1  6  0  0  0
 17 16  1  0  0  0  0
 18 16  1  0  0  0  0
 19 18  1  0  0  0  0
 21 20  1  0  0  0  0
 22 25  1  1  0  0  0
 22 24  1  0  0  0  0
 22 23  1  0  0  0  0
 23 21  1  6  0  0  0
 24 23  1  0  0  0  0
 25 28  1  0  0  0  0
 26 25  1  0  0  0  0
 27 25  2  0  0  0  0
M  END
>  <MODEL>
5

>  <REMARK>
 VINA RESULT:      -6.8      2.499      2.824
  Name = 
  5 active torsions:
  status: ('A' for Active; 'I' for Inactive)
    1  A    between atoms: C_1  and  C_13
    2  A    between atoms: C_7  and  P_11
    3  A    between atoms: N_10  and  C_16
    4  A    between atoms: N_10  and  C_24
    5  A    between atoms: C_12  and  C_24
                            x       y       z     vdW  Elec       q    Type
                         _______ _______ _______ _____ _____    ______ ____

>  <TORSDO>
F 5

$$$$
=
 OpenBabel11042418253D

 28 32  0  0  1  0  0  0  0  0999 V2000
  190.6110  175.4010  144.5080 C   0  0  2  0  0  3  0  0  0  0  0  0
  190.1990  175.4060  145.9380 N   0  0  0  0  0  0  0  0  0  0  0  0
  188.5960  176.5820  144.1410 C   0  0  1  0  0  3  0  0  0  0  0  0
  185.1400  178.4940  145.2550 C   0  0  0  0  0  0  0  0  0  0  0  0
  187.4300  177.5090  144.1300 C   0  0  0  0  0  0  0  0  0  0  0  0
  189.8560  176.4720  143.7620 C   0  0  0  0  0  2  0  0  0  0  0  0
  185.6830  177.3170  145.8310 C   0  0  0  0  0  3  0  0  0  0  0  0
  191.1940  175.2730  146.9670 C   0  0  0  0  0  0  0  0  0  0  0  0
  186.8410  176.8720  145.2270 C   0  0  0  0  0  0  0  0  0  0  0  0
  188.7990  175.6970  146.3470 C   0  0  0  0  0  2  0  0  0  0  0  0
  190.8480  175.2160  148.1780 O   0  0  0  0  0  0  0  0  0  0  0  0
  186.8970  178.6580  143.5860 C   0  0  0  0  0  3  0  0  0  0  0  0
  183.9460  179.0440  145.7980 N   0  0  0  0  0  1  0  0  0  0  0  0
  185.7430  179.1140  144.1740 N   0  0  0  0  0  0  0  0  0  0  0  0
  187.8680  175.8440  145.1330 C   0  0  2  0  0  3  0  0  0  0  0  0
  190.3660  174.1250  142.4750 O   0  0  0  0  0  0  0  0  0  0  0  0
  190.3460  174.0290  143.8770 C   0  0  1  0  0  3  0  0  0  0  0  0
  191.5050  173.3070  142.4110 C   0  0  0  0  0  2  0  0  0  0  0  0
  191.5720  173.1590  143.9050 C   0  0  0  0  0  2  0  0  0  0  0  0
  192.6510  175.2150  146.6320 C   0  0  0  0  0  2  0  0  0  0  0  0
  193.2050  176.5580  146.5570 N   0  0  0  0  0  2  0  0  0  0  0  0
  194.5260  176.6690  144.5370 C   0  0  1  0  0  3  0  0  0  0  0  0
  194.5560  176.4380  146.0350 C   0  0  1  0  0  3  0  0  0  0  0  0
  194.9950  177.7710  145.4630 C   0  0  0  0  0  2  0  0  0  0  0  0
  195.9530  175.8440  143.7700 P   0  0  0  0  0  0  0  0  0  0  0  0
  195.4060  174.8380  142.5260 O   0  0  0  0  0  0  0  0  0  0  0  0
  196.8790  176.8890  143.1930 O   0  0  0  0  0  1  0  0  0  0  0  0
  196.7990  174.9150  144.9060 O   0  0  0  0  0  1  0  0  0  0  0  0
  1  6  1  6  0  0  0
  1  2  1  0  0  0  0
  2 10  1  0  0  0  0
  2  8  1  0  0  0  0
  3  6  1  1  0  0  0
  3 15  1  0  0  0  0
  4 13  1  0  0  0  0
  4  7  1  0  0  0  0
  5  3  1  0  0  0  0
  5  9  1  0  0  0  0
  8 11  2  0  0  0  0
  9  7  2  0  0  0  0
 12  5  2  0  0  0  0
 12 14  1  0  0  0  0
 14  4  2  0  0  0  0
 15  9  1  0  0  0  0
 15 10  1  1  0  0  0
 16 17  1  0  0  0  0
 17 19  1  1  0  0  0
 17  1  1  0  0  0  0
 18 16  1  0  0  0  0
 18 19  1  0  0  0  0
 20  8  1  0  0  0  0
 21 20  1  0  0  0  0
 22 25  1  6  0  0  0
 22 24  1  0  0  0  0
 22 23  1  0  0  0  0
 23 21  1  1  0  0  0
 24 23  1  0  0  0  0
 25 28  1  0  0  0  0
 26 25  2  0  0  0  0
 27 25  1  0  0  0  0
M  END
>  <MODEL>
6

>  <REMARK>
 VINA RESULT:      -6.6      1.817      3.394
  Name = 
  5 active torsions:
  status: ('A' for Active; 'I' for Inactive)
    1  A    between atoms: C_1  and  C_13
    2  A    between atoms: C_7  and  P_11
    3  A    between atoms: N_10  and  C_16
    4  A    between atoms: N_10  and  C_24
    5  A    between atoms: C_12  and  C_24
                            x       y       z     vdW  Elec       q    Type
                         _______ _______ _______ _____ _____    ______ ____

>  <TORSDO>
F 5

$$$$
=
 OpenBabel11042418253D

 28 32  0  0  1  0  0  0  0  0999 V2000
  190.5230  175.2810  145.8490 C   0  0  2  0  0  3  0  0  0  0  0  0
  190.4320  175.7990  144.4570 N   0  0  0  0  0  0  0  0  0  0  0  0
  188.4440  176.3600  146.1640 C   0  0  1  0  0  3  0  0  0  0  0  0
  185.1260  178.4730  144.9950 C   0  0  0  0  0  0  0  0  0  0  0  0
  187.0500  176.8840  146.1140 C   0  0  0  0  0  0  0  0  0  0  0  0
  189.1560  175.2950  146.4830 C   0  0  0  0  0  2  0  0  0  0  0  0
  186.4590  178.6740  144.5560 C   0  0  0  0  0  3  0  0  0  0  0  0
  191.1500  175.1390  143.4020 C   0  0  0  0  0  0  0  0  0  0  0  0
  187.3840  177.8400  145.1480 C   0  0  0  0  0  0  0  0  0  0  0  0
  189.4950  176.8960  144.0910 C   0  0  0  0  0  2  0  0  0  0  0  0
  191.1260  175.6060  142.2310 O   0  0  0  0  0  0  0  0  0  0  0  0
  185.7490  176.6930  146.5250 C   0  0  0  0  0  3  0  0  0  0  0  0
  184.0880  179.2780  144.4500 N   0  0  0  0  0  1  0  0  0  0  0  0
  184.8150  177.5170  145.9470 N   0  0  0  0  0  0  0  0  0  0  0  0
  188.7830  177.4720  145.3240 C   0  0  2  0  0  3  0  0  0  0  0  0
  192.4540  175.3060  147.2950 O   0  0  0  0  0  0  0  0  0  0  0  0
  191.4990  176.1290  146.6750 C   0  0  1  0  0  3  0  0  0  0  0  0
  193.4820  175.8830  146.5320 C   0  0  0  0  0  2  0  0  0  0  0  0
  192.5320  176.7910  145.8050 C   0  0  0  0  0  2  0  0  0  0  0  0
  191.9240  173.8840  143.6600 C   0  0  0  0  0  2  0  0  0  0  0  0
  191.8200  172.9840  142.5210 N   0  0  0  0  0  2  0  0  0  0  0  0
  190.1150  172.6960  140.8340 C   0  0  1  0  0  3  0  0  0  0  0  0
  190.4080  172.7050  142.3210 C   0  0  1  0  0  3  0  0  0  0  0  0
  190.2540  171.3890  141.5850 C   0  0  0  0  0  2  0  0  0  0  0  0
  188.3590  173.0800  140.5620 P   0  0  0  0  0  0  0  0  0  0  0  0
  188.1940  174.7370  140.2690 O   0  0  0  0  0  1  0  0  0  0  0  0
  187.8640  172.3120  139.3590 O   0  0  0  0  0  0  0  0  0  0  0  0
  187.4300  172.6590  141.9140 O   0  0  0  0  0  1  0  0  0  0  0  0
  1  6  1  1  0  0  0
  1 17  1  0  0  0  0
  2  1  1  0  0  0  0
  3  6  1  6  0  0  0
  4 14  1  0  0  0  0
  5  3  1  0  0  0  0
  5 12  1  0  0  0  0
  7  4  2  0  0  0  0
  7  9  1  0  0  0  0
  8 20  1  0  0  0  0
  8  2  1  0  0  0  0
  9 15  1  0  0  0  0
  9  5  2  0  0  0  0
 10  2  1  0  0  0  0
 11  8  2  0  0  0  0
 13  4  1  0  0  0  0
 14 12  2  0  0  0  0
 15 10  1  6  0  0  0
 15  3  1  0  0  0  0
 17 19  1  6  0  0  0
 17 16  1  0  0  0  0
 18 16  1  0  0  0  0
 19 18  1  0  0  0  0
 21 20  1  0  0  0  0
 22 25  1  1  0  0  0
 22 24  1  0  0  0  0
 22 23  1  0  0  0  0
 23 21  1  6  0  0  0
 24 23  1  0  0  0  0
 25 28  1  0  0  0  0
 26 25  1  0  0  0  0
 27 25  2  0  0  0  0
M  END
>  <MODEL>
7

>  <REMARK>
 VINA RESULT:      -6.6      2.451      3.962
  Name = 
  5 active torsions:
  status: ('A' for Active; 'I' for Inactive)
    1  A    between atoms: C_1  and  C_13
    2  A    between atoms: C_7  and  P_11
    3  A    between atoms: N_10  and  C_16
    4  A    between atoms: N_10  and  C_24
    5  A    between atoms: C_12  and  C_24
                            x       y       z     vdW  Elec       q    Type
                         _______ _______ _______ _____ _____    ______ ____

>  <TORSDO>
F 5

$$$$
=
 OpenBabel11042418253D

 28 32  0  0  1  0  0  0  0  0999 V2000
  186.3030  176.8410  142.3280 C   0  0  2  0  0  3  0  0  0  0  0  0
  186.0360  177.8910  143.3480 N   0  0  0  0  0  0  0  0  0  0  0  0
  188.1100  176.2370  143.7270 C   0  0  1  0  0  3  0  0  0  0  0  0
  190.4530  176.4470  147.0900 C   0  0  0  0  0  0  0  0  0  0  0  0
  189.0370  175.8500  144.8270 C   0  0  0  0  0  0  0  0  0  0  0  0
  187.1720  175.7650  142.9270 C   0  0  0  0  0  2  0  0  0  0  0  0
  189.8610  177.5340  146.3980 C   0  0  0  0  0  3  0  0  0  0  0  0
  184.7140  178.4390  143.4780 C   0  0  0  0  0  0  0  0  0  0  0  0
  189.1540  177.1720  145.2700 C   0  0  0  0  0  0  0  0  0  0  0  0
  187.0640  178.2890  144.3480 C   0  0  0  0  0  2  0  0  0  0  0  0
  184.4930  179.3710  144.2980 O   0  0  0  0  0  0  0  0  0  0  0  0
  189.6100  174.8020  145.5150 C   0  0  0  0  0  3  0  0  0  0  0  0
  191.2060  176.7030  148.2690 N   0  0  0  0  0  1  0  0  0  0  0  0
  190.3200  175.1450  146.6390 N   0  0  0  0  0  0  0  0  0  0  0  0
  188.4090  177.5920  144.0910 C   0  0  2  0  0  3  0  0  0  0  0  0
  187.4770  176.4320  140.2590 O   0  0  0  0  0  0  0  0  0  0  0  0
  186.9870  177.4490  141.0970 C   0  0  1  0  0  3  0  0  0  0  0  0
  186.5790  176.8020  139.2450 C   0  0  0  0  0  2  0  0  0  0  0  0
  185.9830  177.9040  140.0730 C   0  0  0  0  0  2  0  0  0  0  0  0
  183.5750  177.9130  142.6630 C   0  0  0  0  0  2  0  0  0  0  0  0
  182.7560  179.0110  142.1730 N   0  0  0  0  0  2  0  0  0  0  0  0
  180.3990  179.5130  142.0030 C   0  0  1  0  0  3  0  0  0  0  0  0
  181.4660  178.4550  141.8050 C   0  0  1  0  0  3  0  0  0  0  0  0
  180.9130  179.2100  140.6120 C   0  0  0  0  0  2  0  0  0  0  0  0
  178.7910  178.7090  142.2670 P   0  0  0  0  0  0  0  0  0  0  0  0
  178.5070  178.5740  143.9290 O   0  0  0  0  0  1  0  0  0  0  0  0
  177.7040  179.5560  141.6460 O   0  0  0  0  0  1  0  0  0  0  0  0
  178.7620  177.1660  141.5710 O   0  0  0  0  0  0  0  0  0  0  0  0
  1  6  1  1  0  0  0
  1  2  1  0  0  0  0
  2  8  1  0  0  0  0
  2 10  1  0  0  0  0
  3  6  1  1  0  0  0
  3 15  1  0  0  0  0
  3  5  1  0  0  0  0
  4 13  1  0  0  0  0
  5  9  2  0  0  0  0
  5 12  1  0  0  0  0
  7  4  2  0  0  0  0
  8 11  2  0  0  0  0
  9  7  1  0  0  0  0
 12 14  2  0  0  0  0
 14  4  1  0  0  0  0
 15 10  1  1  0  0  0
 15  9  1  0  0  0  0
 16 17  1  0  0  0  0
 17 19  1  6  0  0  0
 17  1  1  0  0  0  0
 18 19  1  0  0  0  0
 18 16  1  0  0  0  0
 20  8  1  0  0  0  0
 21 20  1  0  0  0  0
 22 25  1  6  0  0  0
 23 22  1  0  0  0  0
 23 21  1  1  0  0  0
 24 23  1  0  0  0  0
 24 22  1  0  0  0  0
 25 26  1  0  0  0  0
 27 25  1  0  0  0  0
 28 25  2  0  0  0  0
M  END
>  <MODEL>
8

>  <REMARK>
 VINA RESULT:      -6.6      5.979      9.912
  Name = 
  5 active torsions:
  status: ('A' for Active; 'I' for Inactive)
    1  A    between atoms: C_1  and  C_13
    2  A    between atoms: C_7  and  P_11
    3  A    between atoms: N_10  and  C_16
    4  A    between atoms: N_10  and  C_24
    5  A    between atoms: C_12  and  C_24
                            x       y       z     vdW  Elec       q    Type
                         _______ _______ _______ _____ _____    ______ ____

>  <TORSDO>
F 5

$$$$
=
 OpenBabel11042418253D

 28 32  0  0  1  0  0  0  0  0999 V2000
  189.5900  175.0500  146.0960 C   0  0  2  0  0  3  0  0  0  0  0  0
  189.2970  174.8970  144.6450 N   0  0  0  0  0  0  0  0  0  0  0  0
  187.7370  176.5160  146.1020 C   0  0  1  0  0  3  0  0  0  0  0  0
  184.5100  178.4520  144.4640 C   0  0  0  0  0  0  0  0  0  0  0  0
  186.4240  177.2090  145.9710 C   0  0  0  0  0  0  0  0  0  0  0  0
  188.3750  175.5970  146.8010 C   0  0  0  0  0  2  0  0  0  0  0  0
  185.7520  178.1870  143.8320 C   0  0  0  0  0  3  0  0  0  0  0  0
  189.7290  173.7150  143.9510 C   0  0  0  0  0  0  0  0  0  0  0  0
  186.6740  177.5520  144.6380 C   0  0  0  0  0  0  0  0  0  0  0  0
  188.4340  175.8650  143.9160 C   0  0  0  0  0  2  0  0  0  0  0  0
  189.5380  173.6040  142.7100 O   0  0  0  0  0  0  0  0  0  0  0  0
  185.2090  177.4640  146.5700 C   0  0  0  0  0  3  0  0  0  0  0  0
  183.4820  179.1030  143.7270 N   0  0  0  0  0  1  0  0  0  0  0  0
  184.2800  178.0980  145.7830 N   0  0  0  0  0  0  0  0  0  0  0  0
  188.0320  177.0520  144.8040 C   0  0  2  0  0  3  0  0  0  0  0  0
  190.5860  176.7900  147.4390 O   0  0  0  0  0  0  0  0  0  0  0  0
  190.7900  175.9820  146.3070 C   0  0  1  0  0  3  0  0  0  0  0  0
  191.6630  176.1780  148.1000 C   0  0  0  0  0  2  0  0  0  0  0  0
  191.9470  175.2620  146.9440 C   0  0  0  0  0  2  0  0  0  0  0  0
  190.3960  172.5900  144.6790 C   0  0  0  0  0  2  0  0  0  0  0  0
  191.8230  172.5820  144.3960 N   0  0  0  0  0  2  0  0  0  0  0  0
  192.3980  171.6030  142.2630 C   0  0  1  0  0  3  0  0  0  0  0  0
  192.1220  171.3270  143.7280 C   0  0  1  0  0  3  0  0  0  0  0  0
  193.5480  171.3560  143.2150 C   0  0  0  0  0  2  0  0  0  0  0  0
  192.0550  170.1050  141.2910 P   0  0  0  0  0  0  0  0  0  0  0  0
  191.9410  170.5220  139.6560 O   0  0  0  0  0  0  0  0  0  0  0  0
  193.1890  169.1240  141.4750 O   0  0  0  0  0  1  0  0  0  0  0  0
  190.6050  169.3820  141.7830 O   0  0  0  0  0  1  0  0  0  0  0  0
  1 17  1  0  0  0  0
  1  6  1  1  0  0  0
  2  1  1  0  0  0  0
  3  6  1  6  0  0  0
  4 14  1  0  0  0  0
  5  3  1  0  0  0  0
  5 12  1  0  0  0  0
  7  4  2  0  0  0  0
  7  9  1  0  0  0  0
  8  2  1  0  0  0  0
  8 20  1  0  0  0  0
  9 15  1  0  0  0  0
  9  5  2  0  0  0  0
 10  2  1  0  0  0  0
 11  8  2  0  0  0  0
 13  4  1  0  0  0  0
 14 12  2  0  0  0  0
 15 10  1  6  0  0  0
 15  3  1  0  0  0  0
 16 18  1  0  0  0  0
 17 19  1  1  0  0  0
 17 16  1  0  0  0  0
 19 18  1  0  0  0  0
 21 20  1  0  0  0  0
 22 25  1  6  0  0  0
 22 24  1  0  0  0  0
 22 23  1  0  0  0  0
 23 21  1  1  0  0  0
 24 23  1  0  0  0  0
 25 27  1  0  0  0  0
 25 28  1  0  0  0  0
 26 25  2  0  0  0  0
M  END
>  <MODEL>
9

>  <REMARK>
 VINA RESULT:      -6.4      2.520      3.226
  Name = 
  5 active torsions:
  status: ('A' for Active; 'I' for Inactive)
    1  A    between atoms: C_1  and  C_13
    2  A    between atoms: C_7  and  P_11
    3  A    between atoms: N_10  and  C_16
    4  A    between atoms: N_10  and  C_24
    5  A    between atoms: C_12  and  C_24
                            x       y       z     vdW  Elec       q    Type
                         _______ _______ _______ _____ _____    ______ ____

>  <TORSDO>
F 5

$$$$
