=
 OpenBabel11042418223D

 37 40  0  0  1  0  0  0  0  0999 V2000
  190.1810  172.8430  138.5200 C   0  0  0  0  0  3  0  0  0  0  0  0
  187.2150  175.6140  137.5550 C   0  0  0  0  0  0  0  0  0  0  0  0
  186.2680  176.0230  138.5420 N   0  0  0  0  0  2  0  0  0  0  0  0
  188.1120  175.7380  135.3150 C   0  0  0  0  0  3  0  0  0  0  0  0
  187.1790  178.1270  143.5270 C   0  0  1  0  0  3  0  0  0  0  0  0
  187.1820  176.1630  136.2690 C   0  0  0  0  0  3  0  0  0  0  0  0
  190.1060  173.3420  137.2150 C   0  0  0  0  0  3  0  0  0  0  0  0
  186.2770  177.3720  139.0790 C   0  0  0  0  0  2  0  0  0  0  0  0
  189.5030  174.0090  141.7520 N   0  0  0  0  0  0  0  0  0  0  0  0
  189.0500  174.8040  135.6380 N   0  0  0  0  0  0  0  0  0  0  0  0
  189.3670  172.8360  140.8940 C   0  0  0  0  0  2  0  0  0  0  0  0
  187.2210  174.1400  142.2330 O   0  0  0  0  0  0  0  0  0  0  0  0
  189.2490  173.2680  139.4720 C   0  0  0  0  0  0  0  0  0  0  0  0
  189.1100  174.2640  136.8830 C   0  0  0  0  0  0  0  0  0  0  0  0
  188.4150  176.2120  142.4470 C   0  0  0  0  0  2  0  0  0  0  0  0
  187.1320  177.4230  140.2600 N   0  0  0  0  0  2  0  0  0  0  0  0
  188.1830  174.6550  137.8670 C   0  0  0  0  0  0  0  0  0  0  0  0
  185.7640  178.6280  141.8260 C   0  0  0  0  0  2  0  0  0  0  0  0
  186.2710  177.2840  141.4320 C   0  0  2  0  0  3  0  0  0  0  0  0
  188.2740  174.1480  139.1230 N   0  0  0  0  0  0  0  0  0  0  0  0
  188.3290  174.7390  142.1500 C   0  0  0  0  0  0  0  0  0  0  0  0
  187.0490  176.8560  142.6900 C   0  0  2  0  0  3  0  0  0  0  0  0
  186.2580  179.0510  142.9240 N   0  0  0  0  0  2  0  0  0  0  0  0
  185.9800  178.9630  145.4890 N   0  0  0  0  0  1  0  0  0  0  0  0
  186.7910  177.8680  144.9820 C   0  0  1  0  0  3  0  0  0  0  0  0
  185.9990  176.5790  145.0960 C   0  0  0  0  0  1  0  0  0  0  0  0
  190.8370  174.5720  141.9300 C   0  0  0  0  0  2  0  0  0  0  0  0
  191.6390  173.7420  142.9200 C   0  0  0  0  0  2  0  0  0  0  0  0
  192.0350  175.1680  145.0050 C   0  0  0  0  0  0  0  0  0  0  0  0
  192.4560  174.6050  143.7560 N   0  0  0  0  0  2  0  0  0  0  0  0
  192.7690  176.0410  145.5400 O   0  0  0  0  0  0  0  0  0  0  0  0
  190.8100  174.7590  145.6570 N   0  0  0  0  0  0  0  0  0  0  0  0
  190.1830  173.6320  145.2410 O   0  0  0  0  0  1  0  0  0  0  0  0
  190.0300  176.9600  146.4240 C   0  0  0  0  0  1  0  0  0  0  0  0
  191.2150  175.4780  147.9880 C   0  0  0  0  0  1  0  0  0  0  0  0
  188.9470  174.8890  147.2550 C   0  0  0  0  0  1  0  0  0  0  0  0
  190.2610  175.5060  146.8040 C   0  0  0  0  0  0  0  0  0  0  0  0
  1 13  1  0  0  0  0
  2 17  1  0  0  0  0
  2  3  1  0  0  0  0
  3  8  1  0  0  0  0
  4 10  2  0  0  0  0
  4  6  1  0  0  0  0
  5 25  1  1  0  0  0
  6  2  2  0  0  0  0
  7  1  2  0  0  0  0
  8 16  1  0  0  0  0
  9 27  1  0  0  0  0
  9 21  1  0  0  0  0
 10 14  1  0  0  0  0
 11  9  1  0  0  0  0
 13 11  1  0  0  0  0
 14  7  1  0  0  0  0
 14 17  2  0  0  0  0
 16 19  1  0  0  0  0
 17 20  1  0  0  0  0
 18 23  1  0  0  0  0
 19 18  1  1  0  0  0
 19 22  1  0  0  0  0
 20 13  2  0  0  0  0
 21 12  2  0  0  0  0
 21 15  1  0  0  0  0
 22 15  1  6  0  0  0
 22  5  1  0  0  0  0
 23  5  1  0  0  0  0
 25 26  1  6  0  0  0
 25 24  1  0  0  0  0
 27 28  1  0  0  0  0
 28 30  1  0  0  0  0
 29 31  2  0  0  0  0
 29 32  1  0  0  0  0
 30 29  1  0  0  0  0
 32 37  1  0  0  0  0
 33 32  1  0  0  0  0
 34 37  1  0  0  0  0
 37 36  1  0  0  0  0
 37 35  1  0  0  0  0
M  END
>  <MODEL>
1

>  <REMARK>
 VINA RESULT:      -7.8      0.000      0.000
  Name = 
  5 active torsions:
  status: ('A' for Active; 'I' for Inactive)
    1  A    between atoms: C_7  and  C_9
    2  A    between atoms: N_13  and  C_34
    3  A    between atoms: N_14  and  C_25
    4  A    between atoms: C_22  and  N_36
    5  A    between atoms: C_25  and  C_34
                            x       y       z     vdW  Elec       q    Type
                         _______ _______ _______ _____ _____    ______ ____

>  <TORSDO>
F 5

$$$$
=
 OpenBabel11042418223D

 37 40  0  0  1  0  0  0  0  0999 V2000
  193.8940  175.8140  146.1630 C   0  0  0  0  0  3  0  0  0  0  0  0
  194.5080  171.9410  144.7400 C   0  0  0  0  0  0  0  0  0  0  0  0
  193.4210  171.2020  144.1810 N   0  0  0  0  0  2  0  0  0  0  0  0
  196.8390  172.1270  145.3470 C   0  0  0  0  0  3  0  0  0  0  0  0
  190.0480  172.6080  140.0880 C   0  0  1  0  0  3  0  0  0  0  0  0
  195.7930  171.3900  144.7830 C   0  0  0  0  0  3  0  0  0  0  0  0
  195.1650  175.2370  146.2680 C   0  0  0  0  0  3  0  0  0  0  0  0
  193.3750  170.8920  142.7620 C   0  0  0  0  0  2  0  0  0  0  0  0
  191.1770  175.6450  143.9610 N   0  0  0  0  0  0  0  0  0  0  0  0
  196.6120  173.3750  145.8410 N   0  0  0  0  0  0  0  0  0  0  0  0
  191.5130  175.6970  145.3800 C   0  0  0  0  0  2  0  0  0  0  0  0
  189.9550  173.6640  144.1440 O   0  0  0  0  0  0  0  0  0  0  0  0
  192.8490  175.0740  145.6010 C   0  0  0  0  0  0  0  0  0  0  0  0
  195.3750  173.9380  145.8010 C   0  0  0  0  0  0  0  0  0  0  0  0
  190.8530  174.0950  141.9590 C   0  0  0  0  0  2  0  0  0  0  0  0
  192.6720  171.9540  142.0520 N   0  0  0  0  0  2  0  0  0  0  0  0
  194.2940  173.2230  145.2540 C   0  0  0  0  0  0  0  0  0  0  0  0
  191.1710  170.7160  140.6420 C   0  0  0  0  0  2  0  0  0  0  0  0
  191.2850  171.5280  141.8850 C   0  0  2  0  0  3  0  0  0  0  0  0
  193.0690  173.8030  145.1740 N   0  0  0  0  0  0  0  0  0  0  0  0
  190.6230  174.4400  143.4050 C   0  0  0  0  0  0  0  0  0  0  0  0
  190.3360  172.7040  141.5840 C   0  0  2  0  0  3  0  0  0  0  0  0
  190.5230  171.3040  139.7130 N   0  0  0  0  0  2  0  0  0  0  0  0
  187.8190  172.9050  141.0530 N   0  0  0  0  0  1  0  0  0  0  0  0
  188.5490  172.7230  139.8100 C   0  0  1  0  0  3  0  0  0  0  0  0
  188.2700  173.9040  138.9000 C   0  0  0  0  0  1  0  0  0  0  0  0
  191.6880  176.7060  143.1000 C   0  0  0  0  0  2  0  0  0  0  0  0
  190.9360  178.0040  143.3470 C   0  0  0  0  0  2  0  0  0  0  0  0
  188.5210  177.9510  142.5100 C   0  0  0  0  0  0  0  0  0  0  0  0
  189.9200  178.2000  142.3270 N   0  0  0  0  0  2  0  0  0  0  0  0
  187.7740  177.9870  141.4960 O   0  0  0  0  0  0  0  0  0  0  0  0
  187.9560  177.6680  143.8110 N   0  0  0  0  0  0  0  0  0  0  0  0
  188.6920  177.9150  144.9220 O   0  0  0  0  0  1  0  0  0  0  0  0
  186.3470  175.9640  143.0690 C   0  0  0  0  0  1  0  0  0  0  0  0
  185.5630  178.2400  143.5680 C   0  0  0  0  0  1  0  0  0  0  0  0
  186.3030  176.7920  145.4070 C   0  0  0  0  0  1  0  0  0  0  0  0
  186.5740  177.1740  143.9610 C   0  0  0  0  0  0  0  0  0  0  0  0
  1  7  1  0  0  0  0
  2  6  2  0  0  0  0
  2 17  1  0  0  0  0
  3  2  1  0  0  0  0
  4 10  2  0  0  0  0
  5 25  1  1  0  0  0
  5 22  1  0  0  0  0
  6  4  1  0  0  0  0
  8  3  1  0  0  0  0
  9 11  1  0  0  0  0
 11 13  1  0  0  0  0
 13  1  2  0  0  0  0
 14 10  1  0  0  0  0
 14  7  2  0  0  0  0
 15 21  1  0  0  0  0
 16  8  1  0  0  0  0
 17 14  1  0  0  0  0
 19 18  1  6  0  0  0
 19 16  1  0  0  0  0
 20 17  2  0  0  0  0
 20 13  1  0  0  0  0
 21  9  1  0  0  0  0
 21 12  2  0  0  0  0
 22 19  1  0  0  0  0
 22 15  1  6  0  0  0
 23  5  1  0  0  0  0
 23 18  1  0  0  0  0
 25 26  1  6  0  0  0
 25 24  1  0  0  0  0
 27 28  1  0  0  0  0
 27  9  1  0  0  0  0
 29 32  1  0  0  0  0
 30 29  1  0  0  0  0
 30 28  1  0  0  0  0
 31 29  2  0  0  0  0
 32 37  1  0  0  0  0
 32 33  1  0  0  0  0
 34 37  1  0  0  0  0
 35 37  1  0  0  0  0
 37 36  1  0  0  0  0
M  END
>  <MODEL>
2

>  <REMARK>
 VINA RESULT:      -7.2      2.827      7.844
  Name = 
  5 active torsions:
  status: ('A' for Active; 'I' for Inactive)
    1  A    between atoms: C_7  and  C_9
    2  A    between atoms: N_13  and  C_34
    3  A    between atoms: N_14  and  C_25
    4  A    between atoms: C_22  and  N_36
    5  A    between atoms: C_25  and  C_34
                            x       y       z     vdW  Elec       q    Type
                         _______ _______ _______ _____ _____    ______ ____

>  <TORSDO>
F 5

$$$$
=
 OpenBabel11042418223D

 37 40  0  0  1  0  0  0  0  0999 V2000
  189.6020  173.6630  145.3890 C   0  0  0  0  0  3  0  0  0  0  0  0
  192.9410  175.8380  146.6230 C   0  0  0  0  0  0  0  0  0  0  0  0
  194.2030  175.6360  145.9880 N   0  0  0  0  0  2  0  0  0  0  0  0
  191.5580  176.9640  148.2540 C   0  0  0  0  0  3  0  0  0  0  0  0
  195.4650  175.9490  140.6570 C   0  0  1  0  0  3  0  0  0  0  0  0
  192.8010  176.7920  147.6380 C   0  0  0  0  0  3  0  0  0  0  0  0
  189.4790  174.5670  146.4490 C   0  0  0  0  0  3  0  0  0  0  0  0
  194.7980  176.6650  145.1520 C   0  0  0  0  0  2  0  0  0  0  0  0
  191.4960  173.3960  142.4550 N   0  0  0  0  0  0  0  0  0  0  0  0
  190.4880  176.2170  147.8630 N   0  0  0  0  0  0  0  0  0  0  0  0
  190.9870  172.6140  143.5780 C   0  0  0  0  0  2  0  0  0  0  0  0
  193.7260  172.8200  142.8390 O   0  0  0  0  0  0  0  0  0  0  0  0
  190.8470  173.4900  144.7760 C   0  0  0  0  0  0  0  0  0  0  0  0
  190.5940  175.2930  146.8730 C   0  0  0  0  0  0  0  0  0  0  0  0
  193.4090  174.8890  141.6620 C   0  0  0  0  0  2  0  0  0  0  0  0
  194.3710  176.4800  143.7700 N   0  0  0  0  0  2  0  0  0  0  0  0
  191.8320  175.0810  146.2380 C   0  0  0  0  0  0  0  0  0  0  0  0
  196.4390  176.6920  142.5660 C   0  0  0  0  0  2  0  0  0  0  0  0
  195.4220  175.7350  143.0820 C   0  0  2  0  0  3  0  0  0  0  0  0
  191.9250  174.1890  145.2180 N   0  0  0  0  0  0  0  0  0  0  0  0
  192.9080  173.6450  142.3450 C   0  0  0  0  0  0  0  0  0  0  0  0
  194.9240  175.0720  141.7840 C   0  0  2  0  0  3  0  0  0  0  0  0
  196.4400  176.7920  141.2940 N   0  0  0  0  0  2  0  0  0  0  0  0
  197.4180  175.6660  139.2090 N   0  0  0  0  0  1  0  0  0  0  0  0
  196.1280  175.1010  139.5720 C   0  0  1  0  0  3  0  0  0  0  0  0
  196.3380  173.6810  140.0650 C   0  0  0  0  0  1  0  0  0  0  0  0
  190.5340  174.1450  141.6550 C   0  0  0  0  0  2  0  0  0  0  0  0
  189.9410  175.2880  142.4630 C   0  0  0  0  0  2  0  0  0  0  0  0
  187.5880  176.1420  142.9880 C   0  0  0  0  0  0  0  0  0  0  0  0
  188.5250  175.4330  142.1670 N   0  0  0  0  0  2  0  0  0  0  0  0
  186.3630  176.0390  142.7150 O   0  0  0  0  0  0  0  0  0  0  0  0
  188.0120  176.9620  144.1020 N   0  0  0  0  0  0  0  0  0  0  0  0
  189.3180  177.3040  144.2150 O   0  0  0  0  0  1  0  0  0  0  0  0
  186.3200  178.6960  144.5170 C   0  0  0  0  0  1  0  0  0  0  0  0
  187.7400  177.9170  146.3670 C   0  0  0  0  0  1  0  0  0  0  0  0
  186.0280  176.4160  145.4480 C   0  0  0  0  0  1  0  0  0  0  0  0
  187.0440  177.4860  145.0850 C   0  0  0  0  0  0  0  0  0  0  0  0
  1  7  1  0  0  0  0
  2  6  2  0  0  0  0
  3  2  1  0  0  0  0
  5 25  1  6  0  0  0
  5 23  1  0  0  0  0
  5 22  1  0  0  0  0
  6  4  1  0  0  0  0
  7 14  2  0  0  0  0
  8  3  1  0  0  0  0
  9 11  1  0  0  0  0
 10  4  2  0  0  0  0
 11 13  1  0  0  0  0
 13 20  1  0  0  0  0
 13  1  2  0  0  0  0
 14 10  1  0  0  0  0
 15 21  1  0  0  0  0
 16  8  1  0  0  0  0
 17  2  1  0  0  0  0
 17 14  1  0  0  0  0
 19 18  1  6  0  0  0
 19 16  1  0  0  0  0
 20 17  2  0  0  0  0
 21  9  1  0  0  0  0
 21 12  2  0  0  0  0
 22 15  1  1  0  0  0
 22 19  1  0  0  0  0
 23 18  1  0  0  0  0
 24 25  1  0  0  0  0
 25 26  1  1  0  0  0
 27  9  1  0  0  0  0
 27 28  1  0  0  0  0
 29 32  1  0  0  0  0
 30 28  1  0  0  0  0
 30 29  1  0  0  0  0
 31 29  2  0  0  0  0
 32 33  1  0  0  0  0
 32 37  1  0  0  0  0
 34 37  1  0  0  0  0
 37 36  1  0  0  0  0
 37 35  1  0  0  0  0
M  END
>  <MODEL>
3

>  <REMARK>
 VINA RESULT:      -7.1      3.303      8.269
  Name = 
  5 active torsions:
  status: ('A' for Active; 'I' for Inactive)
    1  A    between atoms: C_7  and  C_9
    2  A    between atoms: N_13  and  C_34
    3  A    between atoms: N_14  and  C_25
    4  A    between atoms: C_22  and  N_36
    5  A    between atoms: C_25  and  C_34
                            x       y       z     vdW  Elec       q    Type
                         _______ _______ _______ _____ _____    ______ ____

>  <TORSDO>
F 5

$$$$
=
 OpenBabel11042418223D

 37 40  0  0  1  0  0  0  0  0999 V2000
  190.1740  177.1980  146.9050 C   0  0  0  0  0  3  0  0  0  0  0  0
  187.2030  176.9100  143.9890 C   0  0  0  0  0  0  0  0  0  0  0  0
  187.5530  176.6320  142.6340 N   0  0  0  0  0  2  0  0  0  0  0  0
  185.5430  177.3330  145.6930 C   0  0  0  0  0  3  0  0  0  0  0  0
  190.5000  172.4630  140.6220 C   0  0  1  0  0  3  0  0  0  0  0  0
  185.8620  177.0500  144.3610 C   0  0  0  0  0  3  0  0  0  0  0  0
  188.8370  177.4060  147.2630 C   0  0  0  0  0  3  0  0  0  0  0  0
  187.2110  175.3640  142.0130 C   0  0  0  0  0  2  0  0  0  0  0  0
  191.9300  175.2570  144.5780 N   0  0  0  0  0  0  0  0  0  0  0  0
  186.5290  177.4620  146.6240 N   0  0  0  0  0  0  0  0  0  0  0  0
  191.8900  176.5870  145.1790 C   0  0  0  0  0  2  0  0  0  0  0  0
  191.7580  176.0510  142.3880 O   0  0  0  0  0  0  0  0  0  0  0  0
  190.4900  176.9160  145.5720 C   0  0  0  0  0  0  0  0  0  0  0  0
  187.8390  177.3190  146.2910 C   0  0  0  0  0  0  0  0  0  0  0  0
  190.9960  173.7960  142.7050 C   0  0  0  0  0  2  0  0  0  0  0  0
  188.2990  174.4130  142.2110 N   0  0  0  0  0  2  0  0  0  0  0  0
  188.2010  177.0460  144.9580 C   0  0  0  0  0  0  0  0  0  0  0  0
  188.5660  173.4810  140.0120 C   0  0  0  0  0  2  0  0  0  0  0  0
  189.1270  174.4360  141.0080 C   0  0  2  0  0  3  0  0  0  0  0  0
  189.5060  176.8590  144.6370 N   0  0  0  0  0  0  0  0  0  0  0  0
  191.5830  175.0930  143.1920 C   0  0  0  0  0  0  0  0  0  0  0  0
  190.5340  173.8560  141.2470 C   0  0  2  0  0  3  0  0  0  0  0  0
  189.3000  172.4530  139.8300 N   0  0  0  0  0  2  0  0  0  0  0  0
  191.3570  171.4260  138.5780 N   0  0  0  0  0  1  0  0  0  0  0  0
  191.7210  172.2300  139.7330 C   0  0  1  0  0  3  0  0  0  0  0  0
  192.2820  173.5540  139.2490 C   0  0  0  0  0  1  0  0  0  0  0  0
  192.0310  174.1090  145.4710 C   0  0  0  0  0  2  0  0  0  0  0  0
  193.4870  173.7840  145.7630 C   0  0  0  0  0  2  0  0  0  0  0  0
  194.9480  173.5080  143.6830 C   0  0  0  0  0  0  0  0  0  0  0  0
  194.0550  172.9980  144.6810 N   0  0  0  0  0  2  0  0  0  0  0  0
  195.2230  172.7700  142.7000 O   0  0  0  0  0  0  0  0  0  0  0  0
  195.5330  174.8270  143.7790 N   0  0  0  0  0  0  0  0  0  0  0  0
  195.4740  175.4940  144.9570 O   0  0  0  0  0  1  0  0  0  0  0  0
  195.3070  175.6170  141.4620 C   0  0  0  0  0  1  0  0  0  0  0  0
  197.4080  174.5660  142.1880 C   0  0  0  0  0  1  0  0  0  0  0  0
  196.8160  176.7910  143.0420 C   0  0  0  0  0  1  0  0  0  0  0  0
  196.2480  175.4380  142.6430 C   0  0  0  0  0  0  0  0  0  0  0  0
  1  7  1  0  0  0  0
  2  6  2  0  0  0  0
  2 17  1  0  0  0  0
  3  2  1  0  0  0  0
  4 10  2  0  0  0  0
  5 25  1  6  0  0  0
  5 22  1  0  0  0  0
  6  4  1  0  0  0  0
  8 16  1  0  0  0  0
  8  3  1  0  0  0  0
  9 11  1  0  0  0  0
  9 27  1  0  0  0  0
 11 13  1  0  0  0  0
 12 21  2  0  0  0  0
 13  1  2  0  0  0  0
 14 10  1  0  0  0  0
 14  7  2  0  0  0  0
 15 21  1  0  0  0  0
 17 14  1  0  0  0  0
 19 18  1  6  0  0  0
 19 22  1  0  0  0  0
 19 16  1  0  0  0  0
 20 17  2  0  0  0  0
 20 13  1  0  0  0  0
 21  9  1  0  0  0  0
 22 15  1  1  0  0  0
 23 18  1  0  0  0  0
 23  5  1  0  0  0  0
 24 25  1  0  0  0  0
 25 26  1  6  0  0  0
 27 28  1  0  0  0  0
 29 32  1  0  0  0  0
 29 30  1  0  0  0  0
 30 28  1  0  0  0  0
 31 29  2  0  0  0  0
 32 33  1  0  0  0  0
 34 37  1  0  0  0  0
 35 37  1  0  0  0  0
 37 36  1  0  0  0  0
 37 32  1  0  0  0  0
M  END
>  <MODEL>
4

>  <REMARK>
 VINA RESULT:      -7.1      2.697      7.067
  Name = 
  5 active torsions:
  status: ('A' for Active; 'I' for Inactive)
    1  A    between atoms: C_7  and  C_9
    2  A    between atoms: N_13  and  C_34
    3  A    between atoms: N_14  and  C_25
    4  A    between atoms: C_22  and  N_36
    5  A    between atoms: C_25  and  C_34
                            x       y       z     vdW  Elec       q    Type
                         _______ _______ _______ _____ _____    ______ ____

>  <TORSDO>
F 5

$$$$
=
 OpenBabel11042418223D

 37 40  0  0  1  0  0  0  0  0999 V2000
  190.0810  172.9560  138.1140 C   0  0  0  0  0  3  0  0  0  0  0  0
  187.0870  175.7830  137.4410 C   0  0  0  0  0  0  0  0  0  0  0  0
  186.1800  176.1290  138.4870 N   0  0  0  0  0  2  0  0  0  0  0  0
  187.8990  176.0500  135.1810 C   0  0  0  0  0  3  0  0  0  0  0  0
  187.2860  177.9100  143.5580 C   0  0  1  0  0  3  0  0  0  0  0  0
  187.0070  176.4140  136.1950 C   0  0  0  0  0  3  0  0  0  0  0  0
  189.9570  173.5380  136.8470 C   0  0  0  0  0  3  0  0  0  0  0  0
  186.2130  177.4420  139.1090 C   0  0  0  0  0  2  0  0  0  0  0  0
  189.5290  173.9140  141.4370 N   0  0  0  0  0  0  0  0  0  0  0  0
  188.8460  175.0980  135.4080 N   0  0  0  0  0  0  0  0  0  0  0  0
  189.3570  172.7980  140.5110 C   0  0  0  0  0  2  0  0  0  0  0  0
  187.2680  174.0140  142.0120 O   0  0  0  0  0  0  0  0  0  0  0  0
  189.1860  173.3200  139.1250 C   0  0  0  0  0  0  0  0  0  0  0  0
  188.9520  174.4790  136.6130 C   0  0  0  0  0  0  0  0  0  0  0  0
  188.4750  176.0680  142.3120 C   0  0  0  0  0  2  0  0  0  0  0  0
  187.1120  177.4170  140.2570 N   0  0  0  0  0  2  0  0  0  0  0  0
  188.0640  174.8070  137.6540 C   0  0  0  0  0  0  0  0  0  0  0  0
  185.8090  178.5190  141.9480 C   0  0  0  0  0  2  0  0  0  0  0  0
  186.2960  177.2030  141.4500 C   0  0  2  0  0  3  0  0  0  0  0  0
  188.2010  174.2200  138.8710 N   0  0  0  0  0  0  0  0  0  0  0  0
  188.3730  174.6170  141.9250 C   0  0  0  0  0  0  0  0  0  0  0  0
  187.1200  176.6960  142.6480 C   0  0  2  0  0  3  0  0  0  0  0  0
  186.3450  178.8720  143.0510 N   0  0  0  0  0  2  0  0  0  0  0  0
  188.1620  177.5400  145.8130 N   0  0  0  0  0  1  0  0  0  0  0  0
  186.9520  177.5590  145.0080 C   0  0  1  0  0  3  0  0  0  0  0  0
  185.9930  178.5790  145.5910 C   0  0  0  0  0  1  0  0  0  0  0  0
  190.8700  174.4630  141.6000 C   0  0  0  0  0  2  0  0  0  0  0  0
  191.6220  173.7240  142.6950 C   0  0  0  0  0  2  0  0  0  0  0  0
  192.4890  175.1220  144.6530 C   0  0  0  0  0  0  0  0  0  0  0  0
  191.4540  174.4030  143.9690 N   0  0  0  0  0  2  0  0  0  0  0  0
  192.2630  175.5080  145.8300 O   0  0  0  0  0  0  0  0  0  0  0  0
  193.7620  175.4120  144.0300 N   0  0  0  0  0  0  0  0  0  0  0  0
  193.8940  175.2590  142.6900 O   0  0  0  0  0  1  0  0  0  0  0  0
  195.3450  174.9030  145.8400 C   0  0  0  0  0  1  0  0  0  0  0  0
  194.5290  177.2040  145.5520 C   0  0  0  0  0  1  0  0  0  0  0  0
  196.0670  176.2540  143.8900 C   0  0  0  0  0  1  0  0  0  0  0  0
  194.9010  175.9290  144.8110 C   0  0  0  0  0  0  0  0  0  0  0  0
  1 13  1  0  0  0  0
  2 17  1  0  0  0  0
  2  3  1  0  0  0  0
  3  8  1  0  0  0  0
  4 10  2  0  0  0  0
  4  6  1  0  0  0  0
  5 25  1  1  0  0  0
  6  2  2  0  0  0  0
  7  1  2  0  0  0  0
  8 16  1  0  0  0  0
  9 27  1  0  0  0  0
  9 21  1  0  0  0  0
 10 14  1  0  0  0  0
 11  9  1  0  0  0  0
 13 11  1  0  0  0  0
 14  7  1  0  0  0  0
 14 17  2  0  0  0  0
 16 19  1  0  0  0  0
 17 20  1  0  0  0  0
 18 23  1  0  0  0  0
 19 18  1  1  0  0  0
 19 22  1  0  0  0  0
 20 13  2  0  0  0  0
 21 12  2  0  0  0  0
 21 15  1  0  0  0  0
 22 15  1  6  0  0  0
 22  5  1  0  0  0  0
 23  5  1  0  0  0  0
 25 26  1  1  0  0  0
 25 24  1  0  0  0  0
 27 28  1  0  0  0  0
 28 30  1  0  0  0  0
 29 31  2  0  0  0  0
 30 29  1  0  0  0  0
 32 29  1  0  0  0  0
 32 37  1  0  0  0  0
 33 32  1  0  0  0  0
 36 37  1  0  0  0  0
 37 35  1  0  0  0  0
 37 34  1  0  0  0  0
M  END
>  <MODEL>
5

>  <REMARK>
 VINA RESULT:      -7.0      1.424      2.281
  Name = 
  5 active torsions:
  status: ('A' for Active; 'I' for Inactive)
    1  A    between atoms: C_7  and  C_9
    2  A    between atoms: N_13  and  C_34
    3  A    between atoms: N_14  and  C_25
    4  A    between atoms: C_22  and  N_36
    5  A    between atoms: C_25  and  C_34
                            x       y       z     vdW  Elec       q    Type
                         _______ _______ _______ _____ _____    ______ ____

>  <TORSDO>
F 5

$$$$
=
 OpenBabel11042418223D

 37 40  0  0  1  0  0  0  0  0999 V2000
  193.2000  176.1280  145.6590 C   0  0  0  0  0  3  0  0  0  0  0  0
  195.6340  175.0510  142.4460 C   0  0  0  0  0  0  0  0  0  0  0  0
  195.2410  173.9930  141.5720 N   0  0  0  0  0  2  0  0  0  0  0  0
  197.1870  176.7860  143.0900 C   0  0  0  0  0  3  0  0  0  0  0  0
  190.5690  173.4090  138.7540 C   0  0  1  0  0  3  0  0  0  0  0  0
  196.8170  175.7620  142.2130 C   0  0  0  0  0  3  0  0  0  0  0  0
  194.4160  176.7920  145.4660 C   0  0  0  0  0  3  0  0  0  0  0  0
  194.8540  174.2580  140.1970 C   0  0  0  0  0  2  0  0  0  0  0  0
  190.7580  174.6190  143.6540 N   0  0  0  0  0  0  0  0  0  0  0  0
  196.3990  177.0980  144.1550 N   0  0  0  0  0  0  0  0  0  0  0  0
  191.4980  174.4470  144.9000 C   0  0  0  0  0  2  0  0  0  0  0  0
  191.4210  172.5610  142.7700 O   0  0  0  0  0  0  0  0  0  0  0  0
  192.8330  175.1020  144.7830 C   0  0  0  0  0  0  0  0  0  0  0  0
  195.2400  176.4310  144.3970 C   0  0  0  0  0  0  0  0  0  0  0  0
  190.8070  174.2080  141.1350 C   0  0  0  0  0  2  0  0  0  0  0  0
  193.4160  174.4920  140.1290 N   0  0  0  0  0  2  0  0  0  0  0  0
  194.8390  175.3850  143.5460 C   0  0  0  0  0  0  0  0  0  0  0  0
  192.7660  173.1240  138.2640 C   0  0  0  0  0  2  0  0  0  0  0  0
  192.7840  173.2310  139.7490 C   0  0  2  0  0  3  0  0  0  0  0  0
  193.6590  174.7500  143.7630 N   0  0  0  0  0  0  0  0  0  0  0  0
  191.0110  173.7350  142.5480 C   0  0  0  0  0  0  0  0  0  0  0  0
  191.2820  173.1970  140.0880 C   0  0  2  0  0  3  0  0  0  0  0  0
  191.5960  173.2250  137.7650 N   0  0  0  0  0  2  0  0  0  0  0  0
  189.8620  171.0910  139.0930 N   0  0  0  0  0  1  0  0  0  0  0  0
  189.4560  172.3800  138.5580 C   0  0  1  0  0  3  0  0  0  0  0  0
  188.1910  172.8270  139.2650 C   0  0  0  0  0  1  0  0  0  0  0  0
  190.0090  175.8570  143.4720 C   0  0  0  0  0  2  0  0  0  0  0  0
  188.5460  175.6550  143.8340 C   0  0  0  0  0  2  0  0  0  0  0  0
  187.1110  177.2340  145.2440 C   0  0  0  0  0  0  0  0  0  0  0  0
  188.2300  176.3560  145.0670 N   0  0  0  0  0  2  0  0  0  0  0  0
  187.0530  177.9160  146.3010 O   0  0  0  0  0  0  0  0  0  0  0  0
  186.0620  177.3470  144.2550 N   0  0  0  0  0  0  0  0  0  0  0  0
  185.9710  176.4160  143.2740 O   0  0  0  0  0  1  0  0  0  0  0  0
  185.7210  179.7820  144.2630 C   0  0  0  0  0  1  0  0  0  0  0  0
  184.2570  178.3460  145.6190 C   0  0  0  0  0  1  0  0  0  0  0  0
  184.0660  178.2910  143.1720 C   0  0  0  0  0  1  0  0  0  0  0  0
  185.0510  178.4190  144.3230 C   0  0  0  0  0  0  0  0  0  0  0  0
  2 17  1  0  0  0  0
  3  2  1  0  0  0  0
  4 10  2  0  0  0  0
  5 25  1  6  0  0  0
  5 22  1  0  0  0  0
  6  2  2  0  0  0  0
  6  4  1  0  0  0  0
  7  1  1  0  0  0  0
  8  3  1  0  0  0  0
  9 11  1  0  0  0  0
 10 14  1  0  0  0  0
 13 11  1  0  0  0  0
 13  1  2  0  0  0  0
 14  7  2  0  0  0  0
 15 21  1  0  0  0  0
 16  8  1  0  0  0  0
 17 20  2  0  0  0  0
 17 14  1  0  0  0  0
 19 18  1  6  0  0  0
 19 22  1  0  0  0  0
 19 16  1  0  0  0  0
 20 13  1  0  0  0  0
 21 12  2  0  0  0  0
 21  9  1  0  0  0  0
 22 15  1  1  0  0  0
 23 18  1  0  0  0  0
 23  5  1  0  0  0  0
 25 24  1  0  0  0  0
 25 26  1  1  0  0  0
 27  9  1  0  0  0  0
 27 28  1  0  0  0  0
 28 30  1  0  0  0  0
 29 31  2  0  0  0  0
 30 29  1  0  0  0  0
 32 37  1  0  0  0  0
 32 29  1  0  0  0  0
 33 32  1  0  0  0  0
 34 37  1  0  0  0  0
 36 37  1  0  0  0  0
 37 35  1  0  0  0  0
M  END
>  <MODEL>
6

>  <REMARK>
 VINA RESULT:      -6.9      2.954      7.670
  Name = 
  5 active torsions:
  status: ('A' for Active; 'I' for Inactive)
    1  A    between atoms: C_7  and  C_9
    2  A    between atoms: N_13  and  C_34
    3  A    between atoms: N_14  and  C_25
    4  A    between atoms: C_22  and  N_36
    5  A    between atoms: C_25  and  C_34
                            x       y       z     vdW  Elec       q    Type
                         _______ _______ _______ _____ _____    ______ ____

>  <TORSDO>
F 5

$$$$
=
 OpenBabel11042418223D

 37 40  0  0  1  0  0  0  0  0999 V2000
  191.4070  176.3740  146.0920 C   0  0  0  0  0  3  0  0  0  0  0  0
  193.9620  173.2660  144.9900 C   0  0  0  0  0  0  0  0  0  0  0  0
  193.4570  172.1480  144.2590 N   0  0  0  0  0  2  0  0  0  0  0  0
  195.7900  174.4470  146.0370 C   0  0  0  0  0  3  0  0  0  0  0  0
  190.6890  172.0960  139.5220 C   0  0  1  0  0  3  0  0  0  0  0  0
  195.3210  173.3490  145.3100 C   0  0  0  0  0  3  0  0  0  0  0  0
  192.7530  176.4240  146.4720 C   0  0  0  0  0  3  0  0  0  0  0  0
  193.8340  171.9220  142.8750 C   0  0  0  0  0  2  0  0  0  0  0  0
  189.5470  175.1160  143.4050 N   0  0  0  0  0  0  0  0  0  0  0  0
  194.9340  175.4340  146.4210 N   0  0  0  0  0  0  0  0  0  0  0  0
  189.5380  175.2410  144.8590 C   0  0  0  0  0  2  0  0  0  0  0  0
  189.3370  172.7900  143.4290 O   0  0  0  0  0  0  0  0  0  0  0  0
  190.9390  175.2740  145.3670 C   0  0  0  0  0  0  0  0  0  0  0  0
  193.6120  175.3830  146.1130 C   0  0  0  0  0  0  0  0  0  0  0  0
  190.3550  173.6890  141.4480 C   0  0  0  0  0  2  0  0  0  0  0  0
  192.8840  172.5910  141.9930 N   0  0  0  0  0  2  0  0  0  0  0  0
  193.0980  174.2870  145.3940 C   0  0  0  0  0  0  0  0  0  0  0  0
  192.4100  170.8840  140.3690 C   0  0  0  0  0  2  0  0  0  0  0  0
  191.9000  171.5960  141.5740 C   0  0  2  0  0  3  0  0  0  0  0  0
  191.7860  174.2600  145.0480 N   0  0  0  0  0  0  0  0  0  0  0  0
  189.7150  173.8200  142.8040 C   0  0  0  0  0  0  0  0  0  0  0  0
  190.6040  172.2350  141.0400 C   0  0  2  0  0  3  0  0  0  0  0  0
  191.7630  171.1650  139.3050 N   0  0  0  0  0  2  0  0  0  0  0  0
  188.5630  172.6200  138.4280 N   0  0  0  0  0  1  0  0  0  0  0  0
  189.3860  171.5400  138.9480 C   0  0  1  0  0  3  0  0  0  0  0  0
  189.6780  170.5640  137.8240 C   0  0  0  0  0  1  0  0  0  0  0  0
  189.6850  176.3350  142.6170 C   0  0  0  0  0  2  0  0  0  0  0  0
  189.1820  177.5380  143.4000 C   0  0  0  0  0  2  0  0  0  0  0  0
  186.7250  178.0720  143.8620 C   0  0  0  0  0  0  0  0  0  0  0  0
  187.8370  177.8890  142.9770 N   0  0  0  0  0  2  0  0  0  0  0  0
  185.5780  178.1960  143.3570 O   0  0  0  0  0  0  0  0  0  0  0  0
  186.8880  178.1220  145.2990 N   0  0  0  0  0  0  0  0  0  0  0  0
  188.1290  178.2830  145.8200 O   0  0  0  0  0  1  0  0  0  0  0  0
  186.1530  178.4100  147.6270 C   0  0  0  0  0  1  0  0  0  0  0  0
  185.1140  176.6730  146.2310 C   0  0  0  0  0  1  0  0  0  0  0  0
  184.6520  179.0370  145.7540 C   0  0  0  0  0  1  0  0  0  0  0  0
  185.7280  178.0640  146.2090 C   0  0  0  0  0  0  0  0  0  0  0  0
  1  7  1  0  0  0  0
  2  6  2  0  0  0  0
  2 17  1  0  0  0  0
  3  2  1  0  0  0  0
  4 10  2  0  0  0  0
  5 25  1  1  0  0  0
  5 22  1  0  0  0  0
  6  4  1  0  0  0  0
  8  3  1  0  0  0  0
  9 11  1  0  0  0  0
 11 13  1  0  0  0  0
 13  1  2  0  0  0  0
 14 10  1  0  0  0  0
 14  7  2  0  0  0  0
 15 21  1  0  0  0  0
 16  8  1  0  0  0  0
 17 14  1  0  0  0  0
 19 18  1  6  0  0  0
 19 16  1  0  0  0  0
 20 13  1  0  0  0  0
 20 17  2  0  0  0  0
 21  9  1  0  0  0  0
 21 12  2  0  0  0  0
 22 15  1  6  0  0  0
 22 19  1  0  0  0  0
 23  5  1  0  0  0  0
 23 18  1  0  0  0  0
 24 25  1  0  0  0  0
 25 26  1  6  0  0  0
 27 28  1  0  0  0  0
 27  9  1  0  0  0  0
 29 32  1  0  0  0  0
 30 28  1  0  0  0  0
 30 29  1  0  0  0  0
 31 29  2  0  0  0  0
 32 33  1  0  0  0  0
 32 37  1  0  0  0  0
 36 37  1  0  0  0  0
 37 35  1  0  0  0  0
 37 34  1  0  0  0  0
M  END
>  <MODEL>
7

>  <REMARK>
 VINA RESULT:      -6.9      2.794      7.957
  Name = 
  5 active torsions:
  status: ('A' for Active; 'I' for Inactive)
    1  A    between atoms: C_7  and  C_9
    2  A    between atoms: N_13  and  C_34
    3  A    between atoms: N_14  and  C_25
    4  A    between atoms: C_22  and  N_36
    5  A    between atoms: C_25  and  C_34
                            x       y       z     vdW  Elec       q    Type
                         _______ _______ _______ _____ _____    ______ ____

>  <TORSDO>
F 5

$$$$
=
 OpenBabel11042418223D

 37 40  0  0  1  0  0  0  0  0999 V2000
  191.5620  173.8370  143.4660 C   0  0  0  0  0  3  0  0  0  0  0  0
  190.2030  176.6710  146.2110 C   0  0  0  0  0  0  0  0  0  0  0  0
  189.4160  177.7770  145.7690 N   0  0  0  0  0  2  0  0  0  0  0  0
  191.2750  175.4190  147.9770 C   0  0  0  0  0  3  0  0  0  0  0  0
  184.7560  177.7520  142.8720 C   0  0  1  0  0  3  0  0  0  0  0  0
  190.4930  176.5040  147.5690 C   0  0  0  0  0  3  0  0  0  0  0  0
  191.9090  173.7090  144.8150 C   0  0  0  0  0  3  0  0  0  0  0  0
  188.0110  177.8890  146.1200 C   0  0  0  0  0  2  0  0  0  0  0  0
  188.8480  175.0680  141.6260 N   0  0  0  0  0  0  0  0  0  0  0  0
  191.7420  174.5250  147.0620 N   0  0  0  0  0  0  0  0  0  0  0  0
  190.3070  175.0320  141.6510 C   0  0  0  0  0  2  0  0  0  0  0  0
  188.7320  177.4000  141.5890 O   0  0  0  0  0  0  0  0  0  0  0  0
  190.7810  174.9240  143.0600 C   0  0  0  0  0  0  0  0  0  0  0  0
  191.4640  174.6580  145.7380 C   0  0  0  0  0  0  0  0  0  0  0  0
  186.7870  176.3080  142.4780 C   0  0  0  0  0  2  0  0  0  0  0  0
  187.1980  177.2420  145.0970 N   0  0  0  0  0  2  0  0  0  0  0  0
  190.6920  175.7440  145.2860 C   0  0  0  0  0  0  0  0  0  0  0  0
  185.4830  178.8790  144.7020 C   0  0  0  0  0  2  0  0  0  0  0  0
  186.7420  178.2810  144.1770 C   0  0  2  0  0  3  0  0  0  0  0  0
  190.3780  175.8490  143.9700 N   0  0  0  0  0  0  0  0  0  0  0  0
  188.1630  176.3090  141.8710 C   0  0  0  0  0  0  0  0  0  0  0  0
  186.2820  177.7120  142.8220 C   0  0  2  0  0  3  0  0  0  0  0  0
  184.4550  178.5840  144.0060 N   0  0  0  0  0  2  0  0  0  0  0  0
  184.8840  177.8610  140.4310 N   0  0  0  0  0  1  0  0  0  0  0  0
  184.1810  178.3690  141.5970 C   0  0  1  0  0  3  0  0  0  0  0  0
  182.7080  178.0330  141.4660 C   0  0  0  0  0  1  0  0  0  0  0  0
  188.1350  173.7960  141.6490 C   0  0  0  0  0  2  0  0  0  0  0  0
  188.5470  172.9300  140.4690 C   0  0  0  0  0  2  0  0  0  0  0  0
  188.8450  173.2400  137.9480 C   0  0  0  0  0  0  0  0  0  0  0  0
  188.3170  173.6370  139.2200 N   0  0  0  0  0  2  0  0  0  0  0  0
  188.7220  174.0360  136.9800 O   0  0  0  0  0  0  0  0  0  0  0  0
  189.5020  171.9660  137.7550 N   0  0  0  0  0  0  0  0  0  0  0  0
  189.3770  171.0040  138.7020 O   0  0  0  0  0  1  0  0  0  0  0  0
  191.3590  172.6900  136.3160 C   0  0  0  0  0  1  0  0  0  0  0  0
  189.3490  171.7040  135.3010 C   0  0  0  0  0  1  0  0  0  0  0  0
  190.8650  170.2760  136.6000 C   0  0  0  0  0  1  0  0  0  0  0  0
  190.2540  171.6660  136.5220 C   0  0  0  0  0  0  0  0  0  0  0  0
  1  7  1  0  0  0  0
  2  6  2  0  0  0  0
  3  8  1  0  0  0  0
  3  2  1  0  0  0  0
  5 25  1  6  0  0  0
  5 23  1  0  0  0  0
  6  4  1  0  0  0  0
  7 14  2  0  0  0  0
  9 27  1  0  0  0  0
  9 11  1  0  0  0  0
  9 21  1  0  0  0  0
 10  4  2  0  0  0  0
 11 13  1  0  0  0  0
 12 21  2  0  0  0  0
 13  1  2  0  0  0  0
 13 20  1  0  0  0  0
 14 10  1  0  0  0  0
 16  8  1  0  0  0  0
 17 14  1  0  0  0  0
 17  2  1  0  0  0  0
 19 18  1  1  0  0  0
 19 16  1  0  0  0  0
 20 17  2  0  0  0  0
 21 15  1  0  0  0  0
 22 15  1  1  0  0  0
 22  5  1  0  0  0  0
 22 19  1  0  0  0  0
 23 18  1  0  0  0  0
 24 25  1  0  0  0  0
 25 26  1  6  0  0  0
 28 27  1  0  0  0  0
 29 30  1  0  0  0  0
 30 28  1  0  0  0  0
 31 29  2  0  0  0  0
 32 29  1  0  0  0  0
 32 33  1  0  0  0  0
 34 37  1  0  0  0  0
 35 37  1  0  0  0  0
 37 36  1  0  0  0  0
 37 32  1  0  0  0  0
M  END
>  <MODEL>
8

>  <REMARK>
 VINA RESULT:      -6.8      2.348      7.331
  Name = 
  5 active torsions:
  status: ('A' for Active; 'I' for Inactive)
    1  A    between atoms: C_7  and  C_9
    2  A    between atoms: N_13  and  C_34
    3  A    between atoms: N_14  and  C_25
    4  A    between atoms: C_22  and  N_36
    5  A    between atoms: C_25  and  C_34
                            x       y       z     vdW  Elec       q    Type
                         _______ _______ _______ _____ _____    ______ ____

>  <TORSDO>
F 5

$$$$
=
 OpenBabel11042418223D

 37 40  0  0  1  0  0  0  0  0999 V2000
  186.4320  178.6740  145.4060 C   0  0  0  0  0  3  0  0  0  0  0  0
  185.9690  177.7130  141.3720 C   0  0  0  0  0  0  0  0  0  0  0  0
  187.0850  177.2450  140.6140 N   0  0  0  0  0  2  0  0  0  0  0  0
  183.6300  178.2900  141.5420 C   0  0  0  0  0  3  0  0  0  0  0  0
  190.4270  173.0190  141.6560 C   0  0  1  0  0  3  0  0  0  0  0  0
  184.7050  177.8180  140.7830 C   0  0  0  0  0  3  0  0  0  0  0  0
  185.1840  178.8430  144.7980 C   0  0  0  0  0  3  0  0  0  0  0  0
  187.1510  175.8720  140.1420 C   0  0  0  0  0  2  0  0  0  0  0  0
  189.1660  176.5090  145.0810 N   0  0  0  0  0  0  0  0  0  0  0  0
  183.8080  178.6350  142.8470 N   0  0  0  0  0  0  0  0  0  0  0  0
  188.8210  177.9120  145.2860 C   0  0  0  0  0  2  0  0  0  0  0  0
  190.4590  176.9240  143.1810 O   0  0  0  0  0  0  0  0  0  0  0  0
  187.5070  178.2030  144.6440 C   0  0  0  0  0  0  0  0  0  0  0  0
  185.0240  178.5310  143.4460 C   0  0  0  0  0  0  0  0  0  0  0  0
  189.5580  174.7030  143.3200 C   0  0  0  0  0  2  0  0  0  0  0  0
  187.8180  175.0430  141.1390 N   0  0  0  0  0  2  0  0  0  0  0  0
  186.1330  178.0730  142.7120 C   0  0  0  0  0  0  0  0  0  0  0  0
  189.3710  173.7890  139.8010 C   0  0  0  0  0  2  0  0  0  0  0  0
  189.2210  174.9290  140.7480 C   0  0  2  0  0  3  0  0  0  0  0  0
  187.3360  177.9270  143.3250 N   0  0  0  0  0  0  0  0  0  0  0  0
  189.7670  176.0990  143.8410 C   0  0  0  0  0  0  0  0  0  0  0  0
  190.1270  174.4940  141.9150 C   0  0  2  0  0  3  0  0  0  0  0  0
  190.0020  172.7990  140.3000 N   0  0  0  0  0  2  0  0  0  0  0  0
  192.3340  171.7330  140.8200 N   0  0  0  0  0  1  0  0  0  0  0  0
  191.9220  172.7310  141.7930 C   0  0  1  0  0  3  0  0  0  0  0  0
  192.7270  173.9970  141.5650 C   0  0  0  0  0  1  0  0  0  0  0  0
  188.6210  175.5300  146.0140 C   0  0  0  0  0  2  0  0  0  0  0  0
  189.6590  175.1520  147.0590 C   0  0  0  0  0  2  0  0  0  0  0  0
  191.9610  174.5340  146.1350 C   0  0  0  0  0  0  0  0  0  0  0  0
  190.6150  174.2090  146.5030 N   0  0  0  0  0  2  0  0  0  0  0  0
  192.6260  173.6740  145.4990 O   0  0  0  0  0  0  0  0  0  0  0  0
  192.5640  175.8040  146.4750 N   0  0  0  0  0  0  0  0  0  0  0  0
  191.9650  176.5970  147.3960 O   0  0  0  0  0  1  0  0  0  0  0  0
  193.7100  176.4080  144.3860 C   0  0  0  0  0  1  0  0  0  0  0  0
  194.9370  175.1940  146.1370 C   0  0  0  0  0  1  0  0  0  0  0  0
  194.3080  177.5370  146.5120 C   0  0  0  0  0  1  0  0  0  0  0  0
  193.8500  176.2280  145.8890 C   0  0  0  0  0  0  0  0  0  0  0  0
  2 17  1  0  0  0  0
  3  2  1  0  0  0  0
  4 10  2  0  0  0  0
  5 25  1  6  0  0  0
  5 22  1  0  0  0  0
  6  2  2  0  0  0  0
  6  4  1  0  0  0  0
  7  1  1  0  0  0  0
  8  3  1  0  0  0  0
  8 16  1  0  0  0  0
  9 11  1  0  0  0  0
  9 27  1  0  0  0  0
 10 14  1  0  0  0  0
 12 21  2  0  0  0  0
 13 11  1  0  0  0  0
 13  1  2  0  0  0  0
 14  7  2  0  0  0  0
 15 21  1  0  0  0  0
 17 20  2  0  0  0  0
 17 14  1  0  0  0  0
 18 23  1  0  0  0  0
 19 18  1  6  0  0  0
 19 16  1  0  0  0  0
 19 22  1  0  0  0  0
 20 13  1  0  0  0  0
 21  9  1  0  0  0  0
 22 15  1  1  0  0  0
 23  5  1  0  0  0  0
 24 25  1  0  0  0  0
 25 26  1  6  0  0  0
 27 28  1  0  0  0  0
 29 32  1  0  0  0  0
 29 30  1  0  0  0  0
 30 28  1  0  0  0  0
 31 29  2  0  0  0  0
 32 33  1  0  0  0  0
 34 37  1  0  0  0  0
 37 35  1  0  0  0  0
 37 32  1  0  0  0  0
 37 36  1  0  0  0  0
M  END
>  <MODEL>
9

>  <REMARK>
 VINA RESULT:      -6.8      2.321      5.963
  Name = 
  5 active torsions:
  status: ('A' for Active; 'I' for Inactive)
    1  A    between atoms: C_7  and  C_9
    2  A    between atoms: N_13  and  C_34
    3  A    between atoms: N_14  and  C_25
    4  A    between atoms: C_22  and  N_36
    5  A    between atoms: C_25  and  C_34
                            x       y       z     vdW  Elec       q    Type
                         _______ _______ _______ _____ _____    ______ ____

>  <TORSDO>
F 5

$$$$
