=
 OpenBabel11042413563D

 51 58  0  0  1  0  0  0  0  0999 V2000
  190.2730  171.9160  142.5220 C   0  0  0  0  0  3  0  0  0  0  0  0
  191.0080  171.8230  141.3300 C   0  0  0  0  0  0  0  0  0  0  0  0
  190.2630  171.7790  140.0300 C   0  0  0  0  0  0  0  0  0  0  0  0
  192.2860  172.1870  143.8210 C   0  0  0  0  0  0  0  0  0  0  0  0
  192.4230  171.8610  141.4140 C   0  0  0  0  0  0  0  0  0  0  0  0
  189.1960  172.8450  139.7070 C   0  0  1  0  0  3  0  0  0  0  0  0
  194.3870  172.2110  140.1470 O   0  0  0  0  0  0  0  0  0  0  0  0
  193.0400  172.0630  142.6560 C   0  0  0  0  0  3  0  0  0  0  0  0
  191.7310  170.0530  139.1040 N   0  0  0  0  0  2  0  0  0  0  0  0
  188.3070  172.4460  138.6890 O   0  0  0  0  0  0  0  0  0  0  0  0
  190.6200  170.9470  139.0210 C   0  0  0  0  0  0  0  0  0  0  0  0
  189.0750  172.2010  137.5470 C   0  0  0  0  0  2  0  0  0  0  0  0
  189.8260  170.8970  137.7470 C   0  0  0  0  0  2  0  0  0  0  0  0
  193.2980  171.5880  140.2690 C   0  0  0  0  0  0  0  0  0  0  0  0
  190.8980  172.0940  143.7550 C   0  0  0  0  0  3  0  0  0  0  0  0
  193.0280  170.4880  139.4070 N   0  0  0  0  0  2  0  0  0  0  0  0
  188.4010  173.3980  140.8950 C   0  0  0  0  0  2  0  0  0  0  0  0
  188.9560  174.7240  141.4130 C   0  0  0  0  0  2  0  0  0  0  0  0
  187.9120  176.8190  142.3860 C   0  0  0  0  0  0  0  0  0  0  0  0
  187.9030  175.4990  142.1370 C   0  0  0  0  0  3  0  0  0  0  0  0
  183.1750  178.4630  142.2770 C   0  0  0  0  0  2  0  0  0  0  0  0
  183.3790  178.1590  140.8500 N   0  0  0  0  0  2  0  0  0  0  0  0
  184.3690  178.1610  144.4420 N   0  0  0  0  0  2  0  0  0  0  0  0
  185.8380  178.1130  146.4510 C   0  0  2  0  0  3  0  0  0  0  0  0
  184.5380  178.7490  140.4280 O   0  0  0  0  0  0  0  0  0  0  0  0
  184.5130  178.4620  143.0150 C   0  0  1  0  0  3  0  0  0  0  0  0
  185.7150  179.3260  147.1270 O   0  0  0  0  0  1  0  0  0  0  0  0
  185.4780  177.4860  142.3130 C   0  0  1  0  0  3  0  0  0  0  0  0
  187.7540  177.3110  145.2420 O   0  0  0  0  0  0  0  0  0  0  0  0
  185.6110  177.9170  140.8390 C   0  0  0  0  0  2  0  0  0  0  0  0
  187.2810  177.6110  146.5420 C   0  0  0  0  0  2  0  0  0  0  0  0
  186.7640  177.3970  143.0320 N   0  0  0  0  0  0  0  0  0  0  0  0
  186.5850  177.2430  144.4810 C   0  0  2  0  0  3  0  0  0  0  0  0
  185.7080  178.3370  144.9870 C   0  0  1  0  0  3  0  0  0  0  0  0
  188.9810  177.6700  142.0510 O   0  0  0  0  0  0  0  0  0  0  0  0
  190.1530  177.8640  142.8320 C   0  0  0  0  0  1  0  0  0  0  0  0
  192.9620  172.4260  145.1280 C   0  0  0  0  0  2  0  0  0  0  0  0
  192.8930  174.5880  146.3920 C   0  0  1  0  0  3  0  0  0  0  0  0
  191.0380  174.9640  144.8010 F   0  0  0  0  0  0  0  0  0  0  0  0
  191.5620  175.2450  146.0580 C   0  0  2  0  0  0  0  0  0  0  0  0
  195.3900  176.3240  143.2070 O   0  0  0  0  0  0  0  0  0  0  0  0
  195.6790  175.1660  145.6190 C   0  0  0  0  0  2  0  0  0  0  0  0
  193.5070  173.8450  145.1980 C   0  0  1  0  0  3  0  0  0  0  0  0
  193.2600  176.6240  144.8140 C   0  0  0  0  0  2  0  0  0  0  0  0
  195.0410  173.8240  145.2480 C   0  0  0  0  0  2  0  0  0  0  0  0
  195.0350  176.5250  144.6530 S   0  0  0  0  0  0  0  0  0  0  0  0
  192.8010  176.1210  146.1880 C   0  0  2  0  0  3  0  0  0  0  0  0
  195.6470  177.8070  145.1390 O   0  0  0  0  0  0  0  0  0  0  0  0
  190.6830  175.2610  147.1490 O   0  0  0  0  0  0  0  0  0  0  0  0
  188.6180  174.5260  147.7830 O   0  0  0  0  0  1  0  0  0  0  0  0
  189.5330  174.5830  146.7320 C   0  0  0  0  0  2  0  0  0  0  0  0
  1 15  1  0  0  0  0
  2  5  1  0  0  0  0
  2  1  2  0  0  0  0
  3  2  1  0  0  0  0
  4 37  1  0  0  0  0
  5  8  2  0  0  0  0
  6  3  1  0  0  0  0
  6 17  1  1  0  0  0
  7 14  2  0  0  0  0
  8  4  1  0  0  0  0
  9 16  1  0  0  0  0
 10  6  1  0  0  0  0
 11  9  1  0  0  0  0
 11  3  2  0  0  0  0
 12 13  1  0  0  0  0
 12 10  1  0  0  0  0
 13 11  1  0  0  0  0
 14  5  1  0  0  0  0
 15  4  2  0  0  0  0
 16 14  1  0  0  0  0
 17 18  1  0  0  0  0
 18 20  1  0  0  0  0
 19 32  1  0  0  0  0
 20 19  2  0  0  0  0
 22 21  1  0  0  0  0
 24 31  1  0  0  0  0
 24 27  1  1  0  0  0
 25 30  1  0  0  0  0
 25 22  1  0  0  0  0
 26 21  1  6  0  0  0
 26 23  1  0  0  0  0
 28 30  1  6  0  0  0
 28 26  1  0  0  0  0
 28 32  1  0  0  0  0
 29 31  1  0  0  0  0
 32 33  1  0  0  0  0
 33 34  1  0  0  0  0
 33 29  1  1  0  0  0
 34 23  1  6  0  0  0
 34 24  1  0  0  0  0
 35 19  1  0  0  0  0
 35 36  1  0  0  0  0
 37 43  1  0  0  0  0
 39 40  1  0  0  0  0
 40 47  1  0  0  0  0
 40 38  1  0  0  0  0
 40 49  1  0  0  0  0
 41 46  2  0  0  0  0
 43 45  1  0  0  0  0
 43 38  1  0  0  0  0
 44 47  1  0  0  0  0
 45 42  1  0  0  0  0
 46 44  1  0  0  0  0
 46 48  2  0  0  0  0
 46 42  1  0  0  0  0
 47 38  1  0  0  0  0
 51 49  1  0  0  0  0
 51 50  1  0  0  0  0
M  END
>  <MODEL>
1

>  <REMARK>
 VINA RESULT:      -9.0      0.000      0.000
  Name = 
  9 active torsions:
  status: ('A' for Active; 'I' for Inactive)
    1  A    between atoms: O_1  and  C_18
    2  A    between atoms: C_2  and  C_15
    3  A    between atoms: C_2  and  C_35
    4  A    between atoms: O_8  and  C_12
    5  A    between atoms: O_8  and  C_41
    6  A    between atoms: C_14  and  C_25
    7  A    between atoms: C_15  and  C_17
    8  A    between atoms: C_18  and  N_44
    9  A    between atoms: C_25  and  C_34
                            x       y       z     vdW  Elec       q    Type
                         _______ _______ _______ _____ _____    ______ ____

>  <TORSDO>
F 9

$$$$
=
 OpenBabel11042413563D

 51 58  0  0  1  0  0  0  0  0999 V2000
  190.1410  172.0630  142.4500 C   0  0  0  0  0  3  0  0  0  0  0  0
  190.9110  172.0300  141.2760 C   0  0  0  0  0  0  0  0  0  0  0  0
  190.2020  172.0000  139.9560 C   0  0  0  0  0  0  0  0  0  0  0  0
  192.1090  172.3610  143.8110 C   0  0  0  0  0  0  0  0  0  0  0  0
  192.3210  172.1110  141.4000 C   0  0  0  0  0  0  0  0  0  0  0  0
  189.1090  173.0390  139.6340 C   0  0  1  0  0  3  0  0  0  0  0  0
  194.3050  172.5630  140.1990 O   0  0  0  0  0  0  0  0  0  0  0  0
  192.8980  172.2970  142.6640 C   0  0  0  0  0  3  0  0  0  0  0  0
  191.7520  170.3510  139.0210 N   0  0  0  0  0  2  0  0  0  0  0  0
  188.2610  172.6420  138.5810 O   0  0  0  0  0  0  0  0  0  0  0  0
  190.6150  171.2100  138.9330 C   0  0  0  0  0  0  0  0  0  0  0  0
  189.0680  172.4560  137.4530 C   0  0  0  0  0  2  0  0  0  0  0  0
  189.8570  171.1720  137.6370 C   0  0  0  0  0  2  0  0  0  0  0  0
  193.2350  171.9020  140.2720 C   0  0  0  0  0  0  0  0  0  0  0  0
  190.7280  172.2240  143.7040 C   0  0  0  0  0  3  0  0  0  0  0  0
  193.0260  170.8190  139.3730 N   0  0  0  0  0  2  0  0  0  0  0  0
  188.2650  173.5300  140.8150 C   0  0  0  0  0  2  0  0  0  0  0  0
  188.7060  174.9000  141.3290 C   0  0  0  0  0  2  0  0  0  0  0  0
  187.5070  176.9190  142.2840 C   0  0  0  0  0  0  0  0  0  0  0  0
  187.5770  175.6060  142.0080 C   0  0  0  0  0  3  0  0  0  0  0  0
  184.8970  178.5250  146.2550 C   0  0  0  0  0  2  0  0  0  0  0  0
  186.1420  178.0980  146.9160 N   0  0  0  0  0  2  0  0  0  0  0  0
  184.0140  178.8230  143.9450 N   0  0  0  0  0  2  0  0  0  0  0  0
  183.1710  178.7190  141.6050 C   0  0  2  0  0  3  0  0  0  0  0  0
  186.4550  176.8310  146.5070 O   0  0  0  0  0  0  0  0  0  0  0  0
  184.8520  177.9990  144.8210 C   0  0  1  0  0  3  0  0  0  0  0  0
  181.8890  178.1730  141.6120 O   0  0  0  0  0  1  0  0  0  0  0  0
  186.2910  177.8650  144.2850 C   0  0  1  0  0  3  0  0  0  0  0  0
  185.1760  177.7070  140.7460 O   0  0  0  0  0  0  0  0  0  0  0  0
  187.0750  176.9370  145.2350 C   0  0  0  0  0  2  0  0  0  0  0  0
  183.9270  178.2510  140.3580 C   0  0  0  0  0  2  0  0  0  0  0  0
  186.2970  177.4260  142.8760 N   0  0  0  0  0  0  0  0  0  0  0  0
  185.3390  178.1740  142.0520 C   0  0  2  0  0  3  0  0  0  0  0  0
  183.9890  178.1000  142.6810 C   0  0  1  0  0  3  0  0  0  0  0  0
  188.5510  177.8270  142.0290 O   0  0  0  0  0  0  0  0  0  0  0  0
  189.7520  177.9310  142.7810 C   0  0  0  0  0  1  0  0  0  0  0  0
  192.7420  172.5840  145.1430 C   0  0  0  0  0  2  0  0  0  0  0  0
  192.6490  174.7820  146.3400 C   0  0  1  0  0  3  0  0  0  0  0  0
  190.9620  175.1850  144.5770 F   0  0  0  0  0  0  0  0  0  0  0  0
  191.3820  175.4810  145.8700 C   0  0  2  0  0  0  0  0  0  0  0  0
  195.4930  176.3270  143.3550 O   0  0  0  0  0  0  0  0  0  0  0  0
  195.5140  175.2290  145.8120 C   0  0  0  0  0  2  0  0  0  0  0  0
  193.3370  173.9820  145.2270 C   0  0  1  0  0  3  0  0  0  0  0  0
  193.2400  176.7560  144.7520 C   0  0  0  0  0  2  0  0  0  0  0  0
  194.8570  173.9030  145.4170 C   0  0  0  0  0  2  0  0  0  0  0  0
  195.0170  176.5830  144.7570 S   0  0  0  0  0  0  0  0  0  0  0  0
  192.6380  176.3110  146.0910 C   0  0  2  0  0  3  0  0  0  0  0  0
  195.6350  177.8540  145.2650 O   0  0  0  0  0  0  0  0  0  0  0  0
  190.4090  175.5620  146.8750 O   0  0  0  0  0  0  0  0  0  0  0  0
  188.7080  174.3230  147.7550 O   0  0  0  0  0  1  0  0  0  0  0  0
  189.5090  174.5180  146.6320 C   0  0  0  0  0  2  0  0  0  0  0  0
  1 15  1  0  0  0  0
  2  5  1  0  0  0  0
  2  1  2  0  0  0  0
  3  2  1  0  0  0  0
  4 37  1  0  0  0  0
  5  8  2  0  0  0  0
  6  3  1  0  0  0  0
  6 17  1  1  0  0  0
  7 14  2  0  0  0  0
  8  4  1  0  0  0  0
  9 16  1  0  0  0  0
 10  6  1  0  0  0  0
 11  9  1  0  0  0  0
 11  3  2  0  0  0  0
 12 13  1  0  0  0  0
 12 10  1  0  0  0  0
 13 11  1  0  0  0  0
 14  5  1  0  0  0  0
 15  4  2  0  0  0  0
 16 14  1  0  0  0  0
 17 18  1  0  0  0  0
 18 20  1  0  0  0  0
 19 32  1  0  0  0  0
 20 19  2  0  0  0  0
 21 22  1  0  0  0  0
 23 26  1  0  0  0  0
 24 27  1  6  0  0  0
 24 34  1  0  0  0  0
 25 22  1  0  0  0  0
 26 21  1  1  0  0  0
 28 26  1  0  0  0  0
 28 30  1  1  0  0  0
 30 25  1  0  0  0  0
 31 29  1  0  0  0  0
 31 24  1  0  0  0  0
 32 28  1  0  0  0  0
 33 29  1  6  0  0  0
 33 34  1  0  0  0  0
 33 32  1  0  0  0  0
 34 23  1  1  0  0  0
 35 19  1  0  0  0  0
 35 36  1  0  0  0  0
 37 43  1  0  0  0  0
 39 40  1  0  0  0  0
 40 47  1  0  0  0  0
 40 38  1  0  0  0  0
 40 49  1  0  0  0  0
 41 46  2  0  0  0  0
 43 45  1  0  0  0  0
 43 38  1  0  0  0  0
 44 46  1  0  0  0  0
 44 47  1  0  0  0  0
 45 42  1  0  0  0  0
 46 48  2  0  0  0  0
 46 42  1  0  0  0  0
 47 38  1  0  0  0  0
 51 49  1  0  0  0  0
 51 50  1  0  0  0  0
M  END
>  <MODEL>
2

>  <REMARK>
 VINA RESULT:      -8.9      0.834      2.479
  Name = 
  9 active torsions:
  status: ('A' for Active; 'I' for Inactive)
    1  A    between atoms: O_1  and  C_18
    2  A    between atoms: C_2  and  C_15
    3  A    between atoms: C_2  and  C_35
    4  A    between atoms: O_8  and  C_12
    5  A    between atoms: O_8  and  C_41
    6  A    between atoms: C_14  and  C_25
    7  A    between atoms: C_15  and  C_17
    8  A    between atoms: C_18  and  N_44
    9  A    between atoms: C_25  and  C_34
                            x       y       z     vdW  Elec       q    Type
                         _______ _______ _______ _____ _____    ______ ____

>  <TORSDO>
F 9

$$$$
=
 OpenBabel11042413563D

 51 58  0  0  1  0  0  0  0  0999 V2000
  190.4160  173.8010  145.2730 C   0  0  0  0  0  3  0  0  0  0  0  0
  191.7750  173.8660  144.9260 C   0  0  0  0  0  0  0  0  0  0  0  0
  192.5140  172.5840  144.6850 C   0  0  0  0  0  0  0  0  0  0  0  0
  190.2010  176.1990  145.1420 C   0  0  0  0  0  0  0  0  0  0  0  0
  192.3560  175.1450  144.7400 C   0  0  0  0  0  0  0  0  0  0  0  0
  191.9490  171.5300  143.7120 C   0  0  1  0  0  3  0  0  0  0  0  0
  194.2140  176.2630  143.8000 O   0  0  0  0  0  0  0  0  0  0  0  0
  191.5550  176.2930  144.8300 C   0  0  0  0  0  3  0  0  0  0  0  0
  194.5060  173.3650  145.8750 N   0  0  0  0  0  2  0  0  0  0  0  0
  192.4980  170.2470  143.9070 O   0  0  0  0  0  0  0  0  0  0  0  0
  193.7760  172.3820  145.1400 C   0  0  0  0  0  0  0  0  0  0  0  0
  193.8790  170.3590  143.7150 C   0  0  0  0  0  2  0  0  0  0  0  0
  194.4720  171.0700  144.9180 C   0  0  0  0  0  2  0  0  0  0  0  0
  193.7980  175.3490  144.5600 C   0  0  0  0  0  0  0  0  0  0  0  0
  189.6340  174.9500  145.3830 C   0  0  0  0  0  3  0  0  0  0  0  0
  194.7270  174.6610  145.3900 N   0  0  0  0  0  2  0  0  0  0  0  0
  190.4230  171.4260  143.6280 C   0  0  0  0  0  2  0  0  0  0  0  0
  189.8830  171.7480  142.2350 C   0  0  0  0  0  2  0  0  0  0  0  0
  191.7630  172.0430  140.5590 C   0  0  0  0  0  0  0  0  0  0  0  0
  190.8780  172.5340  141.4430 C   0  0  0  0  0  3  0  0  0  0  0  0
  192.5160  175.1870  136.7250 C   0  0  0  0  0  2  0  0  0  0  0  0
  191.2050  174.6300  136.3520 N   0  0  0  0  0  2  0  0  0  0  0  0
  194.0930  175.1270  138.6520 N   0  0  0  0  0  2  0  0  0  0  0  0
  195.7090  174.6730  140.4910 C   0  0  2  0  0  3  0  0  0  0  0  0
  191.2650  173.2650  136.4120 O   0  0  0  0  0  0  0  0  0  0  0  0
  193.1460  174.3560  137.8420 C   0  0  1  0  0  3  0  0  0  0  0  0
  196.9780  174.4940  139.9410 O   0  0  0  0  0  1  0  0  0  0  0  0
  192.0290  173.7290  138.7000 C   0  0  1  0  0  3  0  0  0  0  0  0
  194.3260  173.0020  141.5250 O   0  0  0  0  0  0  0  0  0  0  0  0
  191.1220  172.8940  137.7730 C   0  0  0  0  0  2  0  0  0  0  0  0
  195.5250  173.7370  141.6870 C   0  0  0  0  0  2  0  0  0  0  0  0
  192.5890  172.9730  139.8360 N   0  0  0  0  0  0  0  0  0  0  0  0
  193.6410  173.7160  140.5400 C   0  0  2  0  0  3  0  0  0  0  0  0
  194.6770  174.1480  139.5580 C   0  0  1  0  0  3  0  0  0  0  0  0
  191.9280  170.6700  140.3000 O   0  0  0  0  0  0  0  0  0  0  0  0
  193.1100  170.0660  139.7910 C   0  0  0  0  0  1  0  0  0  0  0  0
  189.3620  177.4300  145.2080 C   0  0  0  0  0  2  0  0  0  0  0  0
  187.1920  178.3730  144.3840 C   0  0  1  0  0  3  0  0  0  0  0  0
  186.3730  176.3110  145.4750 F   0  0  0  0  0  0  0  0  0  0  0  0
  186.0860  177.6220  145.1110 C   0  0  2  0  0  0  0  0  0  0  0  0
  187.6230  175.8000  140.8370 O   0  0  0  0  0  0  0  0  0  0  0  0
  188.1830  178.3170  141.6090 C   0  0  0  0  0  2  0  0  0  0  0  0
  188.3910  177.4810  144.0370 C   0  0  1  0  0  3  0  0  0  0  0  0
  185.9960  176.7300  142.7600 C   0  0  0  0  0  2  0  0  0  0  0  0
  189.1150  177.9430  142.7650 C   0  0  0  0  0  2  0  0  0  0  0  0
  186.9490  177.0640  141.2870 S   0  0  0  0  0  0  0  0  0  0  0  0
  185.8900  177.9790  143.6440 C   0  0  2  0  0  3  0  0  0  0  0  0
  186.0290  177.5480  140.2040 O   0  0  0  0  0  0  0  0  0  0  0  0
  185.4080  178.4280  146.0340 O   0  0  0  0  0  0  0  0  0  0  0  0
  186.7310  178.5050  147.8910 O   0  0  0  0  0  1  0  0  0  0  0  0
  185.6470  177.8650  147.2930 C   0  0  0  0  0  2  0  0  0  0  0  0
  1 15  1  0  0  0  0
  2  1  2  0  0  0  0
  3  2  1  0  0  0  0
  3 11  2  0  0  0  0
  4 37  1  0  0  0  0
  4 15  2  0  0  0  0
  5  8  2  0  0  0  0
  5  2  1  0  0  0  0
  6 17  1  1  0  0  0
  6 10  1  0  0  0  0
  6  3  1  0  0  0  0
  7 14  2  0  0  0  0
  8  4  1  0  0  0  0
 11  9  1  0  0  0  0
 12 10  1  0  0  0  0
 12 13  1  0  0  0  0
 13 11  1  0  0  0  0
 14  5  1  0  0  0  0
 14 16  1  0  0  0  0
 16  9  1  0  0  0  0
 18 17  1  0  0  0  0
 19 20  2  0  0  0  0
 20 18  1  0  0  0  0
 22 25  1  0  0  0  0
 22 21  1  0  0  0  0
 24 27  1  6  0  0  0
 24 31  1  0  0  0  0
 25 30  1  0  0  0  0
 26 21  1  6  0  0  0
 26 23  1  0  0  0  0
 26 28  1  0  0  0  0
 28 30  1  6  0  0  0
 28 32  1  0  0  0  0
 29 31  1  0  0  0  0
 32 33  1  0  0  0  0
 32 19  1  0  0  0  0
 33 29  1  1  0  0  0
 34 23  1  6  0  0  0
 34 24  1  0  0  0  0
 34 33  1  0  0  0  0
 35 19  1  0  0  0  0
 36 35  1  0  0  0  0
 38 40  1  0  0  0  0
 40 39  1  0  0  0  0
 40 49  1  0  0  0  0
 41 46  2  0  0  0  0
 42 45  1  0  0  0  0
 43 38  1  0  0  0  0
 43 37  1  0  0  0  0
 44 47  1  0  0  0  0
 45 43  1  0  0  0  0
 46 42  1  0  0  0  0
 46 44  1  0  0  0  0
 47 38  1  0  0  0  0
 47 40  1  0  0  0  0
 48 46  2  0  0  0  0
 49 51  1  0  0  0  0
 51 50  1  0  0  0  0
M  END
>  <MODEL>
3

>  <REMARK>
 VINA RESULT:      -8.5      3.386      7.796
  Name = 
  9 active torsions:
  status: ('A' for Active; 'I' for Inactive)
    1  A    between atoms: O_1  and  C_18
    2  A    between atoms: C_2  and  C_15
    3  A    between atoms: C_2  and  C_35
    4  A    between atoms: O_8  and  C_12
    5  A    between atoms: O_8  and  C_41
    6  A    between atoms: C_14  and  C_25
    7  A    between atoms: C_15  and  C_17
    8  A    between atoms: C_18  and  N_44
    9  A    between atoms: C_25  and  C_34
                            x       y       z     vdW  Elec       q    Type
                         _______ _______ _______ _____ _____    ______ ____

>  <TORSDO>
F 9

$$$$
=
 OpenBabel11042413563D

 51 58  0  0  1  0  0  0  0  0999 V2000
  190.2690  173.9450  145.5040 C   0  0  0  0  0  3  0  0  0  0  0  0
  191.6130  174.2380  145.2240 C   0  0  0  0  0  0  0  0  0  0  0  0
  192.5470  173.1030  144.9310 C   0  0  0  0  0  0  0  0  0  0  0  0
  189.6940  176.2860  145.5250 C   0  0  0  0  0  0  0  0  0  0  0  0
  191.9970  175.6010  145.1510 C   0  0  0  0  0  0  0  0  0  0  0  0
  192.1830  172.0500  143.8640 C   0  0  1  0  0  3  0  0  0  0  0  0
  193.6930  177.0500  144.3720 O   0  0  0  0  0  0  0  0  0  0  0  0
  191.0280  176.6050  145.2820 C   0  0  0  0  0  3  0  0  0  0  0  0
  194.3540  174.0840  146.2590 N   0  0  0  0  0  2  0  0  0  0  0  0
  192.9150  170.8530  143.9970 O   0  0  0  0  0  0  0  0  0  0  0  0
  193.8080  173.0600  145.4270 C   0  0  0  0  0  0  0  0  0  0  0  0
  194.2680  171.1850  143.8750 C   0  0  0  0  0  2  0  0  0  0  0  0
  194.7050  171.8870  145.1490 C   0  0  0  0  0  2  0  0  0  0  0  0
  193.3960  176.0310  145.0500 C   0  0  0  0  0  0  0  0  0  0  0  0
  189.3170  174.9530  145.6560 C   0  0  0  0  0  3  0  0  0  0  0  0
  194.3910  175.4310  145.8720 N   0  0  0  0  0  2  0  0  0  0  0  0
  190.6940  171.7250  143.7050 C   0  0  0  0  0  2  0  0  0  0  0  0
  190.3410  171.2440  142.2990 C   0  0  0  0  0  2  0  0  0  0  0  0
  190.9590  172.8730  140.4570 C   0  0  0  0  0  0  0  0  0  0  0  0
  191.2500  171.8520  141.2800 C   0  0  0  0  0  3  0  0  0  0  0  0
  195.2950  175.2920  139.7510 C   0  0  0  0  0  2  0  0  0  0  0  0
  195.1050  175.5130  141.1940 N   0  0  0  0  0  2  0  0  0  0  0  0
  194.2520  173.9820  137.9060 N   0  0  0  0  0  2  0  0  0  0  0  0
  192.8860  172.9100  136.1230 C   0  0  2  0  0  3  0  0  0  0  0  0
  193.8420  175.9900  141.4110 O   0  0  0  0  0  0  0  0  0  0  0  0
  194.0070  174.7640  139.1220 C   0  0  1  0  0  3  0  0  0  0  0  0
  192.8010  173.7800  135.0370 O   0  0  0  0  0  1  0  0  0  0  0  0
  193.2200  173.9600  140.1760 C   0  0  1  0  0  3  0  0  0  0  0  0
  191.1160  172.2780  137.6210 O   0  0  0  0  0  0  0  0  0  0  0  0
  192.9590  174.8800  141.3860 C   0  0  0  0  0  2  0  0  0  0  0  0
  191.5670  172.1500  136.2850 C   0  0  0  0  0  2  0  0  0  0  0  0
  191.9980  173.3700  139.5950 N   0  0  0  0  0  0  0  0  0  0  0  0
  192.2510  172.7190  138.3040 C   0  0  2  0  0  3  0  0  0  0  0  0
  192.9230  173.6870  137.3900 C   0  0  1  0  0  3  0  0  0  0  0  0
  189.6940  173.4850  140.3890 O   0  0  0  0  0  0  0  0  0  0  0  0
  188.5640  172.9620  139.7030 C   0  0  0  0  0  1  0  0  0  0  0  0
  188.6750  177.3700  145.6370 C   0  0  0  0  0  2  0  0  0  0  0  0
  186.6860  178.4380  144.5510 C   0  0  1  0  0  3  0  0  0  0  0  0
  185.6200  176.4170  145.4980 F   0  0  0  0  0  0  0  0  0  0  0  0
  185.4550  177.7450  145.1180 C   0  0  2  0  0  0  0  0  0  0  0  0
  187.4350  175.8670  141.0560 O   0  0  0  0  0  0  0  0  0  0  0  0
  188.0260  178.3440  141.9270 C   0  0  0  0  0  2  0  0  0  0  0  0
  187.8690  177.4830  144.3510 C   0  0  1  0  0  3  0  0  0  0  0  0
  185.6240  176.8750  142.7630 C   0  0  0  0  0  2  0  0  0  0  0  0
  188.7770  177.9110  143.1900 C   0  0  0  0  0  2  0  0  0  0  0  0
  186.7770  177.1640  141.4310 S   0  0  0  0  0  0  0  0  0  0  0  0
  185.4710  178.1220  143.6430 C   0  0  2  0  0  3  0  0  0  0  0  0
  186.0340  177.7050  140.2440 O   0  0  0  0  0  0  0  0  0  0  0  0
  184.7070  178.5820  145.9560 O   0  0  0  0  0  0  0  0  0  0  0  0
  185.9420  179.4170  147.6830 O   0  0  0  0  0  1  0  0  0  0  0  0
  185.1650  178.3410  147.2560 C   0  0  0  0  0  2  0  0  0  0  0  0
  1 15  1  0  0  0  0
  2  1  2  0  0  0  0
  3  2  1  0  0  0  0
  3 11  2  0  0  0  0
  4 37  1  0  0  0  0
  4 15  2  0  0  0  0
  5  2  1  0  0  0  0
  5  8  2  0  0  0  0
  6 17  1  1  0  0  0
  6 10  1  0  0  0  0
  6  3  1  0  0  0  0
  7 14  2  0  0  0  0
  8  4  1  0  0  0  0
 11  9  1  0  0  0  0
 12 10  1  0  0  0  0
 12 13  1  0  0  0  0
 13 11  1  0  0  0  0
 14  5  1  0  0  0  0
 14 16  1  0  0  0  0
 16  9  1  0  0  0  0
 18 17  1  0  0  0  0
 19 20  2  0  0  0  0
 20 18  1  0  0  0  0
 21 22  1  0  0  0  0
 22 25  1  0  0  0  0
 23 26  1  0  0  0  0
 24 27  1  6  0  0  0
 24 31  1  0  0  0  0
 24 34  1  0  0  0  0
 26 21  1  1  0  0  0
 26 28  1  0  0  0  0
 28 30  1  1  0  0  0
 30 25  1  0  0  0  0
 31 29  1  0  0  0  0
 32 28  1  0  0  0  0
 32 19  1  0  0  0  0
 33 29  1  6  0  0  0
 33 32  1  0  0  0  0
 34 23  1  1  0  0  0
 34 33  1  0  0  0  0
 35 19  1  0  0  0  0
 36 35  1  0  0  0  0
 38 40  1  0  0  0  0
 40 39  1  0  0  0  0
 40 49  1  0  0  0  0
 41 46  2  0  0  0  0
 42 45  1  0  0  0  0
 43 38  1  0  0  0  0
 43 37  1  0  0  0  0
 44 47  1  0  0  0  0
 45 43  1  0  0  0  0
 46 42  1  0  0  0  0
 46 44  1  0  0  0  0
 47 38  1  0  0  0  0
 47 40  1  0  0  0  0
 48 46  2  0  0  0  0
 49 51  1  0  0  0  0
 51 50  1  0  0  0  0
M  END
>  <MODEL>
4

>  <REMARK>
 VINA RESULT:      -8.4      3.380      8.213
  Name = 
  9 active torsions:
  status: ('A' for Active; 'I' for Inactive)
    1  A    between atoms: O_1  and  C_18
    2  A    between atoms: C_2  and  C_15
    3  A    between atoms: C_2  and  C_35
    4  A    between atoms: O_8  and  C_12
    5  A    between atoms: O_8  and  C_41
    6  A    between atoms: C_14  and  C_25
    7  A    between atoms: C_15  and  C_17
    8  A    between atoms: C_18  and  N_44
    9  A    between atoms: C_25  and  C_34
                            x       y       z     vdW  Elec       q    Type
                         _______ _______ _______ _____ _____    ______ ____

>  <TORSDO>
F 9

$$$$
=
 OpenBabel11042413563D

 51 58  0  0  1  0  0  0  0  0999 V2000
  192.0570  172.6340  141.3370 C   0  0  0  0  0  3  0  0  0  0  0  0
  191.9760  173.2160  140.0610 C   0  0  0  0  0  0  0  0  0  0  0  0
  190.6430  173.2640  139.3790 C   0  0  0  0  0  0  0  0  0  0  0  0
  194.3620  173.3030  141.5690 C   0  0  0  0  0  0  0  0  0  0  0  0
  193.1480  173.8050  139.5210 C   0  0  0  0  0  0  0  0  0  0  0  0
  189.4130  173.8400  140.1110 C   0  0  1  0  0  3  0  0  0  0  0  0
  193.9250  175.2950  137.8600 O   0  0  0  0  0  0  0  0  0  0  0  0
  194.3180  173.8580  140.2910 C   0  0  0  0  0  3  0  0  0  0  0  0
  191.5940  172.6620  137.2050 N   0  0  0  0  0  2  0  0  0  0  0  0
  188.1900  173.4380  139.5370 O   0  0  0  0  0  0  0  0  0  0  0  0
  190.4990  172.9990  138.0570 C   0  0  0  0  0  0  0  0  0  0  0  0
  188.1910  173.8870  138.2130 C   0  0  0  0  0  2  0  0  0  0  0  0
  189.1420  173.0140  137.4130 C   0  0  0  0  0  2  0  0  0  0  0  0
  193.2380  174.2750  138.1350 C   0  0  0  0  0  0  0  0  0  0  0  0
  193.2330  172.6720  142.0850 C   0  0  0  0  0  3  0  0  0  0  0  0
  192.7260  173.4780  137.0730 N   0  0  0  0  0  2  0  0  0  0  0  0
  189.3610  173.6300  141.6280 C   0  0  0  0  0  2  0  0  0  0  0  0
  189.5910  174.9210  142.4120 C   0  0  0  0  0  2  0  0  0  0  0  0
  188.1160  176.8860  143.0420 C   0  0  0  0  0  0  0  0  0  0  0  0
  188.2930  175.5890  142.7360 C   0  0  0  0  0  3  0  0  0  0  0  0
  184.4320  178.4710  146.0530 C   0  0  0  0  0  2  0  0  0  0  0  0
  185.4480  178.1040  147.0540 N   0  0  0  0  0  2  0  0  0  0  0  0
  184.2390  178.6910  143.5800 N   0  0  0  0  0  2  0  0  0  0  0  0
  184.1050  178.5090  141.1000 C   0  0  2  0  0  3  0  0  0  0  0  0
  185.9030  176.8420  146.7890 O   0  0  0  0  0  0  0  0  0  0  0  0
  184.8150  177.9160  144.6820 C   0  0  1  0  0  3  0  0  0  0  0  0
  182.8910  177.9160  140.7580 O   0  0  0  0  0  1  0  0  0  0  0  0
  186.3520  177.8250  144.5830 C   0  0  1  0  0  3  0  0  0  0  0  0
  186.3010  177.5560  140.8800 O   0  0  0  0  0  0  0  0  0  0  0  0
  186.8570  176.9460  145.7450 C   0  0  0  0  0  2  0  0  0  0  0  0
  185.2000  178.0460  140.1360 C   0  0  0  0  0  2  0  0  0  0  0  0
  186.7740  177.3590  143.2480 N   0  0  0  0  0  0  0  0  0  0  0  0
  186.0700  178.0540  142.1640 C   0  0  2  0  0  3  0  0  0  0  0  0
  184.5990  177.9420  142.3830 C   0  0  1  0  0  3  0  0  0  0  0  0
  189.1710  177.8080  143.1720 O   0  0  0  0  0  0  0  0  0  0  0  0
  190.0320  177.9180  144.2980 C   0  0  0  0  0  1  0  0  0  0  0  0
  195.6100  173.3930  142.3800 C   0  0  0  0  0  2  0  0  0  0  0  0
  196.3760  173.9570  144.6980 C   0  0  1  0  0  3  0  0  0  0  0  0
  194.6160  172.3010  145.2220 F   0  0  0  0  0  0  0  0  0  0  0  0
  195.8180  172.8790  145.6160 C   0  0  2  0  0  0  0  0  0  0  0  0
  193.0780  176.8680  144.8900 O   0  0  0  0  0  0  0  0  0  0  0  0
  195.6960  176.7930  144.2680 C   0  0  0  0  0  2  0  0  0  0  0  0
  195.4140  174.3310  143.5620 C   0  0  1  0  0  3  0  0  0  0  0  0
  194.4310  174.9120  146.1370 C   0  0  0  0  0  2  0  0  0  0  0  0
  195.5750  175.7900  143.1170 C   0  0  0  0  0  2  0  0  0  0  0  0
  194.4190  176.5810  145.5020 S   0  0  0  0  0  0  0  0  0  0  0  0
  195.8450  174.3190  146.1070 C   0  0  2  0  0  3  0  0  0  0  0  0
  194.6630  177.5400  146.6310 O   0  0  0  0  0  0  0  0  0  0  0  0
  196.8160  172.0380  146.1250 O   0  0  0  0  0  0  0  0  0  0  0  0
  196.8490  170.3240  144.6190 O   0  0  0  0  0  1  0  0  0  0  0  0
  197.4790  171.5040  145.0150 C   0  0  0  0  0  2  0  0  0  0  0  0
  1 15  1  0  0  0  0
  2  1  2  0  0  0  0
  3  2  1  0  0  0  0
  3  6  1  0  0  0  0
  4 15  2  0  0  0  0
  4 37  1  0  0  0  0
  5  2  1  0  0  0  0
  5  8  2  0  0  0  0
  6 17  1  1  0  0  0
  7 14  2  0  0  0  0
  8  4  1  0  0  0  0
  9 11  1  0  0  0  0
 10  6  1  0  0  0  0
 11  3  2  0  0  0  0
 12 10  1  0  0  0  0
 13 11  1  0  0  0  0
 13 12  1  0  0  0  0
 14  5  1  0  0  0  0
 16  9  1  0  0  0  0
 16 14  1  0  0  0  0
 17 18  1  0  0  0  0
 18 20  1  0  0  0  0
 19 35  1  0  0  0  0
 19 32  1  0  0  0  0
 20 19  2  0  0  0  0
 21 22  1  0  0  0  0
 23 26  1  0  0  0  0
 24 27  1  6  0  0  0
 24 34  1  0  0  0  0
 25 22  1  0  0  0  0
 26 21  1  1  0  0  0
 28 26  1  0  0  0  0
 28 30  1  1  0  0  0
 30 25  1  0  0  0  0
 31 29  1  0  0  0  0
 31 24  1  0  0  0  0
 32 28  1  0  0  0  0
 33 29  1  6  0  0  0
 33 34  1  0  0  0  0
 33 32  1  0  0  0  0
 34 23  1  1  0  0  0
 35 36  1  0  0  0  0
 37 43  1  0  0  0  0
 38 40  1  0  0  0  0
 38 47  1  0  0  0  0
 39 40  1  0  0  0  0
 40 47  1  0  0  0  0
 40 49  1  0  0  0  0
 41 46  2  0  0  0  0
 42 46  1  0  0  0  0
 43 38  1  0  0  0  0
 45 43  1  0  0  0  0
 45 42  1  0  0  0  0
 46 44  1  0  0  0  0
 46 48  2  0  0  0  0
 47 44  1  0  0  0  0
 50 51  1  0  0  0  0
 51 49  1  0  0  0  0
M  END
>  <MODEL>
5

>  <REMARK>
 VINA RESULT:      -8.3      2.247      3.904
  Name = 
  9 active torsions:
  status: ('A' for Active; 'I' for Inactive)
    1  A    between atoms: O_1  and  C_18
    2  A    between atoms: C_2  and  C_15
    3  A    between atoms: C_2  and  C_35
    4  A    between atoms: O_8  and  C_12
    5  A    between atoms: O_8  and  C_41
    6  A    between atoms: C_14  and  C_25
    7  A    between atoms: C_15  and  C_17
    8  A    between atoms: C_18  and  N_44
    9  A    between atoms: C_25  and  C_34
                            x       y       z     vdW  Elec       q    Type
                         _______ _______ _______ _____ _____    ______ ____

>  <TORSDO>
F 9

$$$$
=
 OpenBabel11042413563D

 51 58  0  0  1  0  0  0  0  0999 V2000
  192.1690  172.6470  140.7760 C   0  0  0  0  0  3  0  0  0  0  0  0
  192.0250  173.3280  139.5570 C   0  0  0  0  0  0  0  0  0  0  0  0
  190.6720  173.3630  138.9120 C   0  0  0  0  0  0  0  0  0  0  0  0
  194.4440  173.4110  141.0110 C   0  0  0  0  0  0  0  0  0  0  0  0
  193.1510  174.0190  139.0420 C   0  0  0  0  0  0  0  0  0  0  0  0
  189.4370  173.8120  139.7190 C   0  0  1  0  0  3  0  0  0  0  0  0
  193.8080  175.6800  137.4950 O   0  0  0  0  0  0  0  0  0  0  0  0
  194.3380  174.0680  139.7860 C   0  0  0  0  0  3  0  0  0  0  0  0
  191.5930  172.9940  136.6740 N   0  0  0  0  0  2  0  0  0  0  0  0
  188.2200  173.3970  139.1410 O   0  0  0  0  0  0  0  0  0  0  0  0
  190.5050  173.2020  137.5760 C   0  0  0  0  0  0  0  0  0  0  0  0
  188.1630  173.9550  137.8600 C   0  0  0  0  0  2  0  0  0  0  0  0
  189.1320  173.2010  136.9670 C   0  0  0  0  0  2  0  0  0  0  0  0
  193.1800  174.6070  137.6980 C   0  0  0  0  0  0  0  0  0  0  0  0
  193.3620  172.6830  141.4970 C   0  0  0  0  0  3  0  0  0  0  0  0
  192.6790  173.8750  136.5850 N   0  0  0  0  0  2  0  0  0  0  0  0
  189.4360  173.4750  141.2130 C   0  0  0  0  0  2  0  0  0  0  0  0
  189.9070  174.6400  142.0830 C   0  0  0  0  0  2  0  0  0  0  0  0
  188.6540  176.7180  142.8190 C   0  0  0  0  0  0  0  0  0  0  0  0
  188.7440  175.3880  142.6520 C   0  0  0  0  0  3  0  0  0  0  0  0
  183.9470  178.2890  142.0900 C   0  0  0  0  0  2  0  0  0  0  0  0
  184.3540  178.0300  140.6990 N   0  0  0  0  0  2  0  0  0  0  0  0
  184.8330  177.9440  144.3930 N   0  0  0  0  0  2  0  0  0  0  0  0
  186.0080  177.8600  146.5860 C   0  0  2  0  0  3  0  0  0  0  0  0
  185.5490  178.6500  140.4590 O   0  0  0  0  0  0  0  0  0  0  0  0
  185.1690  178.2880  143.0080 C   0  0  1  0  0  3  0  0  0  0  0  0
  185.7680  179.0510  147.2700 O   0  0  0  0  0  1  0  0  0  0  0  0
  186.2420  177.3480  142.4230 C   0  0  1  0  0  3  0  0  0  0  0  0
  188.0900  177.1240  145.6360 O   0  0  0  0  0  0  0  0  0  0  0  0
  186.5710  177.8230  140.9940 C   0  0  0  0  0  2  0  0  0  0  0  0
  187.4340  177.3790  146.8650 C   0  0  0  0  0  2  0  0  0  0  0  0
  187.4160  177.2590  143.3130 N   0  0  0  0  0  0  0  0  0  0  0  0
  187.0400  177.0590  144.7180 C   0  0  2  0  0  3  0  0  0  0  0  0
  186.0790  178.1250  145.1250 C   0  0  1  0  0  3  0  0  0  0  0  0
  189.7030  177.6130  142.5390 O   0  0  0  0  0  0  0  0  0  0  0  0
  190.4340  178.3510  143.5080 C   0  0  0  0  0  1  0  0  0  0  0  0
  195.7070  173.4970  141.7980 C   0  0  0  0  0  2  0  0  0  0  0  0
  196.4780  173.7710  144.1660 C   0  0  1  0  0  3  0  0  0  0  0  0
  194.8300  171.9510  144.4610 F   0  0  0  0  0  0  0  0  0  0  0  0
  196.0020  172.5410  144.9240 C   0  0  2  0  0  0  0  0  0  0  0  0
  193.0140  176.4140  144.8010 O   0  0  0  0  0  0  0  0  0  0  0  0
  195.6200  176.5910  144.1530 C   0  0  0  0  0  2  0  0  0  0  0  0
  195.4760  174.2430  143.1040 C   0  0  1  0  0  3  0  0  0  0  0  0
  194.5040  174.3880  145.7430 C   0  0  0  0  0  2  0  0  0  0  0  0
  195.5400  175.7580  142.8710 C   0  0  0  0  0  2  0  0  0  0  0  0
  194.3800  176.1270  145.3540 S   0  0  0  0  0  0  0  0  0  0  0  0
  195.9500  173.8950  145.6170 C   0  0  2  0  0  3  0  0  0  0  0  0
  194.5850  176.9280  146.6070 O   0  0  0  0  0  0  0  0  0  0  0  0
  197.0580  171.7000  145.2990 O   0  0  0  0  0  0  0  0  0  0  0  0
  196.6050  170.0820  146.8420 O   0  0  0  0  0  1  0  0  0  0  0  0
  196.4960  170.4340  145.4970 C   0  0  0  0  0  2  0  0  0  0  0  0
  1 15  1  0  0  0  0
  2  1  2  0  0  0  0
  3  2  1  0  0  0  0
  3  6  1  0  0  0  0
  4 15  2  0  0  0  0
  4 37  1  0  0  0  0
  5  2  1  0  0  0  0
  5  8  2  0  0  0  0
  6 17  1  1  0  0  0
  7 14  2  0  0  0  0
  8  4  1  0  0  0  0
  9 11  1  0  0  0  0
 10  6  1  0  0  0  0
 11  3  2  0  0  0  0
 12 10  1  0  0  0  0
 13 11  1  0  0  0  0
 13 12  1  0  0  0  0
 14  5  1  0  0  0  0
 16  9  1  0  0  0  0
 16 14  1  0  0  0  0
 17 18  1  0  0  0  0
 18 20  1  0  0  0  0
 19 32  1  0  0  0  0
 20 19  2  0  0  0  0
 22 21  1  0  0  0  0
 24 31  1  0  0  0  0
 24 27  1  1  0  0  0
 25 22  1  0  0  0  0
 25 30  1  0  0  0  0
 26 21  1  6  0  0  0
 26 23  1  0  0  0  0
 28 30  1  6  0  0  0
 28 26  1  0  0  0  0
 28 32  1  0  0  0  0
 29 31  1  0  0  0  0
 32 33  1  0  0  0  0
 33 34  1  0  0  0  0
 33 29  1  1  0  0  0
 34 23  1  6  0  0  0
 34 24  1  0  0  0  0
 35 19  1  0  0  0  0
 35 36  1  0  0  0  0
 37 43  1  0  0  0  0
 38 40  1  0  0  0  0
 38 47  1  0  0  0  0
 39 40  1  0  0  0  0
 40 49  1  0  0  0  0
 40 47  1  0  0  0  0
 41 46  2  0  0  0  0
 42 46  1  0  0  0  0
 43 38  1  0  0  0  0
 45 43  1  0  0  0  0
 45 42  1  0  0  0  0
 46 44  1  0  0  0  0
 46 48  2  0  0  0  0
 47 44  1  0  0  0  0
 49 51  1  0  0  0  0
 51 50  1  0  0  0  0
M  END
>  <MODEL>
6

>  <REMARK>
 VINA RESULT:      -8.0      2.388      3.212
  Name = 
  9 active torsions:
  status: ('A' for Active; 'I' for Inactive)
    1  A    between atoms: O_1  and  C_18
    2  A    between atoms: C_2  and  C_15
    3  A    between atoms: C_2  and  C_35
    4  A    between atoms: O_8  and  C_12
    5  A    between atoms: O_8  and  C_41
    6  A    between atoms: C_14  and  C_25
    7  A    between atoms: C_15  and  C_17
    8  A    between atoms: C_18  and  N_44
    9  A    between atoms: C_25  and  C_34
                            x       y       z     vdW  Elec       q    Type
                         _______ _______ _______ _____ _____    ______ ____

>  <TORSDO>
F 9

$$$$
=
 OpenBabel11042413563D

 51 58  0  0  1  0  0  0  0  0999 V2000
  191.7610  174.8350  142.2660 C   0  0  0  0  0  3  0  0  0  0  0  0
  192.4820  174.0170  143.1520 C   0  0  0  0  0  0  0  0  0  0  0  0
  193.4320  174.6670  144.1130 C   0  0  0  0  0  0  0  0  0  0  0  0
  190.4690  172.9570  141.4810 C   0  0  0  0  0  0  0  0  0  0  0  0
  192.2110  172.6260  143.1460 C   0  0  0  0  0  0  0  0  0  0  0  0
  192.9590  175.8300  145.0080 C   0  0  1  0  0  3  0  0  0  0  0  0
  192.4750  170.6400  144.4000 O   0  0  0  0  0  0  0  0  0  0  0  0
  191.1940  172.1190  142.3260 C   0  0  0  0  0  3  0  0  0  0  0  0
  195.1400  172.9450  143.7810 N   0  0  0  0  0  2  0  0  0  0  0  0
  194.0230  176.5980  145.5240 O   0  0  0  0  0  0  0  0  0  0  0  0
  194.6560  174.1470  144.3800 C   0  0  0  0  0  0  0  0  0  0  0  0
  194.8260  175.7330  146.2750 C   0  0  0  0  0  2  0  0  0  0  0  0
  195.6000  174.8450  145.3170 C   0  0  0  0  0  2  0  0  0  0  0  0
  193.0220  171.6520  143.8850 C   0  0  0  0  0  0  0  0  0  0  0  0
  190.7680  174.3160  141.4370 C   0  0  0  0  0  3  0  0  0  0  0  0
  194.4430  171.7320  143.8530 N   0  0  0  0  0  2  0  0  0  0  0  0
  191.8970  176.7610  144.4150 C   0  0  0  0  0  2  0  0  0  0  0  0
  190.9800  177.3660  145.4770 C   0  0  0  0  0  2  0  0  0  0  0  0
  188.6790  176.7770  144.5910 C   0  0  0  0  0  0  0  0  0  0  0  0
  189.6310  177.6700  144.9100 C   0  0  0  0  0  3  0  0  0  0  0  0
  184.1200  178.6740  145.4690 C   0  0  0  0  0  2  0  0  0  0  0  0
  184.5640  178.4120  146.8490 N   0  0  0  0  0  2  0  0  0  0  0  0
  185.0610  178.6350  143.1630 N   0  0  0  0  0  2  0  0  0  0  0  0
  186.0380  178.1970  140.9160 C   0  0  2  0  0  3  0  0  0  0  0  0
  185.0270  177.1280  146.9330 O   0  0  0  0  0  0  0  0  0  0  0  0
  185.0470  177.9790  144.4740 C   0  0  1  0  0  3  0  0  0  0  0  0
  185.0770  177.5740  140.1210 O   0  0  0  0  0  1  0  0  0  0  0  0
  186.4600  177.8750  145.0830 C   0  0  1  0  0  3  0  0  0  0  0  0
  188.0530  177.2220  141.7930 O   0  0  0  0  0  0  0  0  0  0  0  0
  186.3510  177.1210  146.4240 C   0  0  0  0  0  2  0  0  0  0  0  0
  187.4240  177.6330  140.5930 C   0  0  0  0  0  2  0  0  0  0  0  0
  187.4100  177.2710  144.1280 N   0  0  0  0  0  0  0  0  0  0  0  0
  187.2980  177.8510  142.7850 C   0  0  2  0  0  3  0  0  0  0  0  0
  185.8800  177.7660  142.3300 C   0  0  1  0  0  3  0  0  0  0  0  0
  188.8530  175.3830  144.6840 O   0  0  0  0  0  0  0  0  0  0  0  0
  189.2170  174.6780  145.8630 C   0  0  0  0  0  1  0  0  0  0  0  0
  189.3750  172.4000  140.6340 C   0  0  0  0  0  2  0  0  0  0  0  0
  189.6020  171.1000  138.5050 C   0  0  1  0  0  3  0  0  0  0  0  0
  191.8620  170.7650  139.4530 F   0  0  0  0  0  0  0  0  0  0  0  0
  190.8540  170.2460  138.6480 C   0  0  2  0  0  0  0  0  0  0  0  0
  191.3730  174.7040  136.7000 O   0  0  0  0  0  0  0  0  0  0  0  0
  188.9730  173.5090  136.9270 C   0  0  0  0  0  2  0  0  0  0  0  0
  189.7440  172.4800  139.1600 C   0  0  1  0  0  3  0  0  0  0  0  0
  191.5160  172.0410  137.0150 C   0  0  0  0  0  2  0  0  0  0  0  0
  188.9000  173.5500  138.4560 C   0  0  0  0  0  2  0  0  0  0  0  0
  190.6530  173.4420  136.3200 S   0  0  0  0  0  0  0  0  0  0  0  0
  190.5510  170.8840  137.3000 C   0  0  2  0  0  3  0  0  0  0  0  0
  190.6300  173.3150  134.8250 O   0  0  0  0  0  0  0  0  0  0  0  0
  190.5610  168.8800  138.7600 O   0  0  0  0  0  0  0  0  0  0  0  0
  190.4850  168.5430  141.0150 O   0  0  0  0  0  1  0  0  0  0  0  0
  191.2730  168.4190  139.8720 C   0  0  0  0  0  2  0  0  0  0  0  0
  1  2  1  0  0  0  0
  2  3  1  0  0  0  0
  3 11  2  0  0  0  0
  3  6  1  0  0  0  0
  4  8  2  0  0  0  0
  5  2  2  0  0  0  0
  5 14  1  0  0  0  0
  6 17  1  6  0  0  0
  6 10  1  0  0  0  0
  8  5  1  0  0  0  0
  9 16  1  0  0  0  0
  9 11  1  0  0  0  0
 10 12  1  0  0  0  0
 11 13  1  0  0  0  0
 13 12  1  0  0  0  0
 14  7  2  0  0  0  0
 15  4  1  0  0  0  0
 15  1  2  0  0  0  0
 16 14  1  0  0  0  0
 17 18  1  0  0  0  0
 19 35  1  0  0  0  0
 19 20  2  0  0  0  0
 20 18  1  0  0  0  0
 21 22  1  0  0  0  0
 22 25  1  0  0  0  0
 23 26  1  0  0  0  0
 24 27  1  6  0  0  0
 24 34  1  0  0  0  0
 26 28  1  0  0  0  0
 26 21  1  1  0  0  0
 28 30  1  1  0  0  0
 30 25  1  0  0  0  0
 31 24  1  0  0  0  0
 31 29  1  0  0  0  0
 32 19  1  0  0  0  0
 32 28  1  0  0  0  0
 33 29  1  6  0  0  0
 33 32  1  0  0  0  0
 34 33  1  0  0  0  0
 34 23  1  1  0  0  0
 35 36  1  0  0  0  0
 37  4  1  0  0  0  0
 38 40  1  0  0  0  0
 38 43  1  0  0  0  0
 40 49  1  0  0  0  0
 40 39  1  0  0  0  0
 42 45  1  0  0  0  0
 43 37  1  0  0  0  0
 44 47  1  0  0  0  0
 45 43  1  0  0  0  0
 46 41  2  0  0  0  0
 46 42  1  0  0  0  0
 46 44  1  0  0  0  0
 47 38  1  0  0  0  0
 47 40  1  0  0  0  0
 48 46  2  0  0  0  0
 49 51  1  0  0  0  0
 51 50  1  0  0  0  0
M  END
>  <MODEL>
7

>  <REMARK>
 VINA RESULT:      -8.0      2.823      6.735
  Name = 
  9 active torsions:
  status: ('A' for Active; 'I' for Inactive)
    1  A    between atoms: O_1  and  C_18
    2  A    between atoms: C_2  and  C_15
    3  A    between atoms: C_2  and  C_35
    4  A    between atoms: O_8  and  C_12
    5  A    between atoms: O_8  and  C_41
    6  A    between atoms: C_14  and  C_25
    7  A    between atoms: C_15  and  C_17
    8  A    between atoms: C_18  and  N_44
    9  A    between atoms: C_25  and  C_34
                            x       y       z     vdW  Elec       q    Type
                         _______ _______ _______ _____ _____    ______ ____

>  <TORSDO>
F 9

$$$$
=
 OpenBabel11042413563D

 51 58  0  0  1  0  0  0  0  0999 V2000
  193.3940  173.6100  145.8160 C   0  0  0  0  0  3  0  0  0  0  0  0
  194.5020  173.8590  144.9910 C   0  0  0  0  0  0  0  0  0  0  0  0
  195.4140  172.7180  144.6540 C   0  0  0  0  0  0  0  0  0  0  0  0
  192.5590  175.8470  145.4830 C   0  0  0  0  0  0  0  0  0  0  0  0
  194.6520  175.1610  144.4500 C   0  0  0  0  0  0  0  0  0  0  0  0
  194.8400  171.4020  144.0910 C   0  0  1  0  0  3  0  0  0  0  0  0
  195.7570  176.3960  142.7660 O   0  0  0  0  0  0  0  0  0  0  0  0
  193.6670  176.1300  144.6870 C   0  0  0  0  0  3  0  0  0  0  0  0
  197.4270  174.0850  144.9260 N   0  0  0  0  0  2  0  0  0  0  0  0
  195.7240  170.3120  144.2260 O   0  0  0  0  0  0  0  0  0  0  0  0
  196.7640  172.8550  144.6350 C   0  0  0  0  0  0  0  0  0  0  0  0
  196.8910  170.6420  143.5290 C   0  0  0  0  0  2  0  0  0  0  0  0
  197.6510  171.6810  144.3350 C   0  0  0  0  0  2  0  0  0  0  0  0
  195.8560  175.5930  143.7310 C   0  0  0  0  0  0  0  0  0  0  0  0
  192.4330  174.5880  146.0650 C   0  0  0  0  0  3  0  0  0  0  0  0
  197.1460  175.2740  144.2400 N   0  0  0  0  0  2  0  0  0  0  0  0
  193.4490  170.9960  144.5860 C   0  0  0  0  0  2  0  0  0  0  0  0
  192.5760  170.4060  143.4800 C   0  0  0  0  0  2  0  0  0  0  0  0
  192.7180  171.1200  141.0510 C   0  0  0  0  0  0  0  0  0  0  0  0
  192.4330  171.3640  142.3410 C   0  0  0  0  0  3  0  0  0  0  0  0
  194.2200  174.8260  138.0240 C   0  0  0  0  0  2  0  0  0  0  0  0
  195.4880  174.5170  138.7080 N   0  0  0  0  0  2  0  0  0  0  0  0
  191.9100  173.9080  137.8640 N   0  0  0  0  0  2  0  0  0  0  0  0
  189.5720  173.0870  138.0970 C   0  0  2  0  0  3  0  0  0  0  0  0
  195.2750  174.4990  140.0590 O   0  0  0  0  0  0  0  0  0  0  0  0
  193.0520  174.1590  138.7480 C   0  0  1  0  0  3  0  0  0  0  0  0
  188.7170  174.1840  138.1890 O   0  0  0  0  0  1  0  0  0  0  0  0
  193.5490  172.8680  139.4310 C   0  0  1  0  0  3  0  0  0  0  0  0
  190.1140  171.5160  139.8330 O   0  0  0  0  0  0  0  0  0  0  0  0
  194.7040  173.2410  140.3810 C   0  0  0  0  0  2  0  0  0  0  0  0
  189.0630  171.9550  138.9920 C   0  0  0  0  0  2  0  0  0  0  0  0
  192.4390  172.1500  140.0860 N   0  0  0  0  0  0  0  0  0  0  0  0
  191.2550  172.0430  139.2250 C   0  0  2  0  0  3  0  0  0  0  0  0
  190.8700  173.4030  138.7490 C   0  0  1  0  0  3  0  0  0  0  0  0
  193.2750  169.9130  140.5890 O   0  0  0  0  0  0  0  0  0  0  0  0
  192.5720  168.6860  140.4440 C   0  0  0  0  0  1  0  0  0  0  0  0
  191.5110  176.8850  145.7020 C   0  0  0  0  0  2  0  0  0  0  0  0
  189.0480  177.1520  145.3270 C   0  0  1  0  0  3  0  0  0  0  0  0
  189.0950  174.8480  146.2240 F   0  0  0  0  0  0  0  0  0  0  0  0
  188.3670  176.0250  146.0890 C   0  0  2  0  0  0  0  0  0  0  0  0
  189.6060  175.1740  141.4320 O   0  0  0  0  0  0  0  0  0  0  0  0
  189.5060  177.6600  142.4590 C   0  0  0  0  0  2  0  0  0  0  0  0
  190.3800  176.7250  144.6960 C   0  0  1  0  0  3  0  0  0  0  0  0
  188.1380  175.3620  143.6730 C   0  0  0  0  0  2  0  0  0  0  0  0
  190.6950  177.5050  143.4120 C   0  0  0  0  0  2  0  0  0  0  0  0
  188.6710  176.1120  142.1420 S   0  0  0  0  0  0  0  0  0  0  0  0
  187.8170  176.4280  144.7280 C   0  0  2  0  0  3  0  0  0  0  0  0
  187.4730  176.3680  141.2750 O   0  0  0  0  0  0  0  0  0  0  0  0
  187.6500  176.4870  147.2010 O   0  0  0  0  0  0  0  0  0  0  0  0
  185.7620  177.7680  147.1880 O   0  0  0  0  0  1  0  0  0  0  0  0
  187.1090  177.7230  146.8300 C   0  0  0  0  0  2  0  0  0  0  0  0
  1 15  1  0  0  0  0
  2  1  2  0  0  0  0
  3  2  1  0  0  0  0
  4 37  1  0  0  0  0
  4 15  2  0  0  0  0
  5  8  2  0  0  0  0
  5  2  1  0  0  0  0
  6 10  1  0  0  0  0
  6 17  1  1  0  0  0
  6  3  1  0  0  0  0
  7 14  2  0  0  0  0
  8  4  1  0  0  0  0
 11  3  2  0  0  0  0
 11  9  1  0  0  0  0
 12 10  1  0  0  0  0
 12 13  1  0  0  0  0
 13 11  1  0  0  0  0
 14 16  1  0  0  0  0
 14  5  1  0  0  0  0
 16  9  1  0  0  0  0
 18 17  1  0  0  0  0
 19 20  2  0  0  0  0
 20 18  1  0  0  0  0
 21 22  1  0  0  0  0
 22 25  1  0  0  0  0
 23 26  1  0  0  0  0
 24 27  1  1  0  0  0
 24 34  1  0  0  0  0
 24 31  1  0  0  0  0
 25 30  1  0  0  0  0
 26 21  1  6  0  0  0
 26 28  1  0  0  0  0
 28 32  1  0  0  0  0
 28 30  1  1  0  0  0
 31 29  1  0  0  0  0
 32 19  1  0  0  0  0
 33 29  1  1  0  0  0
 33 32  1  0  0  0  0
 34 23  1  6  0  0  0
 34 33  1  0  0  0  0
 35 19  1  0  0  0  0
 36 35  1  0  0  0  0
 38 40  1  0  0  0  0
 40 39  1  0  0  0  0
 40 49  1  0  0  0  0
 41 46  2  0  0  0  0
 42 45  1  0  0  0  0
 43 38  1  0  0  0  0
 43 37  1  0  0  0  0
 44 47  1  0  0  0  0
 45 43  1  0  0  0  0
 46 42  1  0  0  0  0
 46 44  1  0  0  0  0
 47 38  1  0  0  0  0
 47 40  1  0  0  0  0
 48 46  2  0  0  0  0
 51 50  1  0  0  0  0
 51 49  1  0  0  0  0
M  END
>  <MODEL>
8

>  <REMARK>
 VINA RESULT:      -7.8      3.296      7.792
  Name = 
  9 active torsions:
  status: ('A' for Active; 'I' for Inactive)
    1  A    between atoms: O_1  and  C_18
    2  A    between atoms: C_2  and  C_15
    3  A    between atoms: C_2  and  C_35
    4  A    between atoms: O_8  and  C_12
    5  A    between atoms: O_8  and  C_41
    6  A    between atoms: C_14  and  C_25
    7  A    between atoms: C_15  and  C_17
    8  A    between atoms: C_18  and  N_44
    9  A    between atoms: C_25  and  C_34
                            x       y       z     vdW  Elec       q    Type
                         _______ _______ _______ _____ _____    ______ ____

>  <TORSDO>
F 9

$$$$
=
 OpenBabel11042413563D

 51 58  0  0  1  0  0  0  0  0999 V2000
  193.6110  176.4550  142.9410 C   0  0  0  0  0  3  0  0  0  0  0  0
  193.1340  175.3720  143.6980 C   0  0  0  0  0  0  0  0  0  0  0  0
  192.3380  175.6590  144.9350 C   0  0  0  0  0  0  0  0  0  0  0  0
  194.4100  174.9790  141.2110 C   0  0  0  0  0  0  0  0  0  0  0  0
  193.3610  174.0630  143.2050 C   0  0  0  0  0  0  0  0  0  0  0  0
  191.1280  176.6140  144.8780 C   0  0  1  0  0  3  0  0  0  0  0  0
  192.6630  171.8140  143.4130 O   0  0  0  0  0  0  0  0  0  0  0  0
  193.9770  173.8860  141.9580 C   0  0  0  0  0  3  0  0  0  0  0  0
  193.4550  173.8950  146.2130 N   0  0  0  0  0  2  0  0  0  0  0  0
  190.7560  177.1110  146.1440 O   0  0  0  0  0  0  0  0  0  0  0  0
  192.5120  174.9600  146.0840 C   0  0  0  0  0  0  0  0  0  0  0  0
  190.4370  176.0060  146.9410 C   0  0  0  0  0  2  0  0  0  0  0  0
  191.7270  175.3000  147.3180 C   0  0  0  0  0  2  0  0  0  0  0  0
  193.0790  172.8550  143.9890 C   0  0  0  0  0  0  0  0  0  0  0  0
  194.2430  176.2660  141.7130 C   0  0  0  0  0  3  0  0  0  0  0  0
  193.4610  172.7840  145.3580 N   0  0  0  0  0  2  0  0  0  0  0  0
  191.2160  177.7710  143.8790 C   0  0  0  0  0  2  0  0  0  0  0  0
  190.3640  177.5430  142.6320 C   0  0  0  0  0  2  0  0  0  0  0  0
  187.9480  176.9210  143.0860 C   0  0  0  0  0  0  0  0  0  0  0  0
  188.9230  177.8290  142.9080 C   0  0  0  0  0  3  0  0  0  0  0  0
  184.5680  178.4940  146.4400 C   0  0  0  0  0  2  0  0  0  0  0  0
  185.6740  178.1230  147.3380 N   0  0  0  0  0  2  0  0  0  0  0  0
  184.1410  178.7240  143.9970 N   0  0  0  0  0  2  0  0  0  0  0  0
  183.7720  178.5540  141.5410 C   0  0  2  0  0  3  0  0  0  0  0  0
  186.1010  176.8610  147.0260 O   0  0  0  0  0  0  0  0  0  0  0  0
  184.8190  177.9450  145.0360 C   0  0  1  0  0  3  0  0  0  0  0  0
  182.5300  177.9620  141.3120 O   0  0  0  0  0  1  0  0  0  0  0  0
  186.3390  177.8540  144.7910 C   0  0  1  0  0  3  0  0  0  0  0  0
  185.9360  177.6010  141.1090 O   0  0  0  0  0  0  0  0  0  0  0  0
  186.9520  176.9700  145.8960 C   0  0  0  0  0  2  0  0  0  0  0  0
  184.7700  178.0940  140.4750 C   0  0  0  0  0  2  0  0  0  0  0  0
  186.6320  177.3930  143.4200 N   0  0  0  0  0  0  0  0  0  0  0  0
  185.8280  178.0930  142.4110 C   0  0  2  0  0  3  0  0  0  0  0  0
  184.3850  177.9810  142.7680 C   0  0  1  0  0  3  0  0  0  0  0  0
  188.1430  175.5330  142.9630 O   0  0  0  0  0  0  0  0  0  0  0  0
  188.1840  174.8140  141.7370 C   0  0  0  0  0  1  0  0  0  0  0  0
  195.0410  174.7690  139.8760 C   0  0  0  0  0  2  0  0  0  0  0  0
  193.8790  173.7140  137.9230 C   0  0  1  0  0  3  0  0  0  0  0  0
  191.9340  174.1710  139.3810 F   0  0  0  0  0  0  0  0  0  0  0  0
  192.3970  174.0260  138.0780 C   0  0  2  0  0  0  0  0  0  0  0  0
  194.0590  169.8940  140.1050 O   0  0  0  0  0  0  0  0  0  0  0  0
  195.4700  171.2560  138.2610 C   0  0  0  0  0  2  0  0  0  0  0  0
  194.5770  173.4550  139.2640 C   0  0  1  0  0  3  0  0  0  0  0  0
  192.5740  171.5780  138.6320 C   0  0  0  0  0  2  0  0  0  0  0  0
  195.7570  172.4830  139.1310 C   0  0  0  0  0  2  0  0  0  0  0  0
  193.9450  170.4370  138.7090 S   0  0  0  0  0  0  0  0  0  0  0  0
  192.8090  172.6530  137.5640 C   0  0  2  0  0  3  0  0  0  0  0  0
  193.6970  169.3040  137.7550 O   0  0  0  0  0  0  0  0  0  0  0  0
  191.9360  174.9290  137.1110 O   0  0  0  0  0  0  0  0  0  0  0  0
  192.7190  176.7690  136.0120 O   0  0  0  0  0  1  0  0  0  0  0  0
  193.0730  175.5450  136.5780 C   0  0  0  0  0  2  0  0  0  0  0  0
  1  2  1  0  0  0  0
  2  3  1  0  0  0  0
  3 11  2  0  0  0  0
  4 15  1  0  0  0  0
  4  8  2  0  0  0  0
  5  2  2  0  0  0  0
  5 14  1  0  0  0  0
  6 17  1  6  0  0  0
  6  3  1  0  0  0  0
  6 10  1  0  0  0  0
  7 14  2  0  0  0  0
  8  5  1  0  0  0  0
 10 12  1  0  0  0  0
 11  9  1  0  0  0  0
 11 13  1  0  0  0  0
 12 13  1  0  0  0  0
 14 16  1  0  0  0  0
 15  1  2  0  0  0  0
 16  9  1  0  0  0  0
 18 20  1  0  0  0  0
 18 17  1  0  0  0  0
 19 32  1  0  0  0  0
 20 19  2  0  0  0  0
 21 22  1  0  0  0  0
 23 26  1  0  0  0  0
 24 27  1  6  0  0  0
 24 34  1  0  0  0  0
 25 22  1  0  0  0  0
 26 21  1  1  0  0  0
 28 26  1  0  0  0  0
 28 30  1  1  0  0  0
 30 25  1  0  0  0  0
 31 29  1  0  0  0  0
 31 24  1  0  0  0  0
 32 28  1  0  0  0  0
 33 29  1  6  0  0  0
 33 34  1  0  0  0  0
 33 32  1  0  0  0  0
 34 23  1  1  0  0  0
 35 19  1  0  0  0  0
 36 35  1  0  0  0  0
 37  4  1  0  0  0  0
 38 40  1  0  0  0  0
 38 43  1  0  0  0  0
 40 39  1  0  0  0  0
 42 46  1  0  0  0  0
 42 45  1  0  0  0  0
 43 37  1  0  0  0  0
 44 46  1  0  0  0  0
 45 43  1  0  0  0  0
 46 41  2  0  0  0  0
 47 38  1  0  0  0  0
 47 40  1  0  0  0  0
 47 44  1  0  0  0  0
 48 46  2  0  0  0  0
 49 40  1  0  0  0  0
 50 51  1  0  0  0  0
 51 49  1  0  0  0  0
M  END
>  <MODEL>
9

>  <REMARK>
 VINA RESULT:      -7.8      3.119      6.630
  Name = 
  9 active torsions:
  status: ('A' for Active; 'I' for Inactive)
    1  A    between atoms: O_1  and  C_18
    2  A    between atoms: C_2  and  C_15
    3  A    between atoms: C_2  and  C_35
    4  A    between atoms: O_8  and  C_12
    5  A    between atoms: O_8  and  C_41
    6  A    between atoms: C_14  and  C_25
    7  A    between atoms: C_15  and  C_17
    8  A    between atoms: C_18  and  N_44
    9  A    between atoms: C_25  and  C_34
                            x       y       z     vdW  Elec       q    Type
                         _______ _______ _______ _____ _____    ______ ____

>  <TORSDO>
F 9

$$$$
