=
 OpenBabel11042419103D

 59 63  0  0  1  0  0  0  0  0999 V2000
  190.8980  172.3370  138.7620 N   0  0  0  0  0  2  0  0  0  0  0  0
  192.3090  173.3430  140.3880 N   0  0  0  0  0  0  0  0  0  0  0  0
  192.3940  169.8980  142.6970 N   0  0  0  0  0  1  0  0  0  0  0  0
  191.0920  171.3520  141.0810 C   0  0  2  0  0  3  0  0  0  0  0  0
  192.8460  173.4630  141.7440 C   0  0  0  0  0  2  0  0  0  0  0  0
  192.2090  171.1630  142.0740 C   0  0  0  0  0  0  0  0  0  0  0  0
  191.4830  172.3900  140.0670 C   0  0  0  0  0  0  0  0  0  0  0  0
  193.0220  172.1400  142.3450 N   0  0  0  0  0  0  0  0  0  0  0  0
  189.8820  171.7870  141.7660 N   0  0  0  0  0  2  0  0  0  0  0  0
  189.8130  174.0340  145.3600 C   0  0  0  0  0  0  0  0  0  0  0  0
  189.7930  171.8810  144.2310 C   0  0  0  0  0  3  0  0  0  0  0  0
  189.9350  173.9190  142.9360 C   0  0  0  0  0  3  0  0  0  0  0  0
  189.7620  172.6330  145.4110 C   0  0  0  0  0  3  0  0  0  0  0  0
  189.8800  172.5250  142.9880 C   0  0  0  0  0  0  0  0  0  0  0  0
  189.9020  174.6690  144.1140 C   0  0  0  0  0  3  0  0  0  0  0  0
  189.2580  174.3490  147.6440 O   0  0  0  0  0  0  0  0  0  0  0  0
  189.7600  174.8380  146.5960 C   0  0  0  0  0  0  0  0  0  0  0  0
  190.2620  176.2500  146.6310 C   0  0  0  0  0  2  0  0  0  0  0  0
  189.2950  178.2140  147.5520 O   0  0  0  0  0  0  0  0  0  0  0  0
  189.1530  177.2430  146.8210 C   0  0  0  0  0  0  0  0  0  0  0  0
  183.7390  178.9800  144.5190 C   0  0  0  0  0  2  0  0  0  0  0  0
  185.9550  178.6050  145.3900 C   0  0  2  0  0  3  0  0  0  0  0  0
  185.9980  177.3660  147.4630 O   0  0  0  0  0  1  0  0  0  0  0  0
  186.9300  177.0970  143.6320 C   0  0  2  0  0  3  0  0  0  0  0  0
  187.8930  177.0810  146.0310 C   0  0  1  0  0  3  0  0  0  0  0  0
  184.4890  178.0330  143.5830 C   0  0  0  0  0  2  0  0  0  0  0  0
  185.6580  177.5160  144.3970 C   0  0  2  0  0  3  0  0  0  0  0  0
  186.8000  178.0450  146.5440 C   0  0  1  0  0  3  0  0  0  0  0  0
  188.1870  177.2220  144.5250 C   0  0  0  0  0  2  0  0  0  0  0  0
  184.5970  179.1560  145.7680 C   0  0  0  0  0  2  0  0  0  0  0  0
  187.3410  177.0410  141.2220 C   0  0  1  0  0  0  0  0  0  0  0  0
  188.4800  177.6200  141.9060 C   0  0  0  0  0  2  0  0  0  0  0  0
  187.1120  177.8940  142.4140 N   0  0  2  0  0  0  0  0  0  0  0  0
  186.8970  177.6740  139.9200 C   0  0  0  0  0  1  0  0  0  0  0  0
  187.1480  175.6680  141.4100 O   0  0  0  0  0  1  0  0  0  0  0  0
  191.0250  173.4080  137.7820 C   0  0  2  0  0  3  0  0  0  0  0  0
  190.0080  173.2570  136.7490 N   0  0  0  0  0  2  0  0  0  0  0  0
  189.2090  174.4720  136.7250 C   0  0  0  0  0  2  0  0  0  0  0  0
  187.8020  173.1060  138.0420 F   0  0  0  0  0  0  0  0  0  0  0  0
  188.1640  174.4220  137.8170 C   0  0  0  0  0  3  0  0  0  0  0  0
  187.0510  175.1460  137.4360 F   0  0  0  0  0  0  0  0  0  0  0  0
  192.4240  173.3880  137.1660 C   0  0  0  0  0  2  0  0  0  0  0  0
  192.9640  175.0540  136.6640 S   0  0  0  0  0  0  0  0  0  0  0  0
  194.1950  175.1260  137.9920 C   0  0  0  0  0  2  0  0  0  0  0  0
  195.5520  174.7360  137.4420 C   0  0  0  0  0  2  0  0  0  0  0  0
  196.6310  174.9930  138.4800 C   0  0  0  0  0  2  0  0  0  0  0  0
  196.1200  174.6850  139.8920 C   0  0  1  0  0  3  0  0  0  0  0  0
  197.1930  172.6630  139.6010 C   0  0  0  0  0  1  0  0  0  0  0  0
  196.0990  173.3040  140.2040 O   0  0  0  0  0  0  0  0  0  0  0  0
  196.7470  175.5820  140.9800 C   0  0  2  0  0  3  0  0  0  0  0  0
  197.6250  174.8780  141.8060 O   0  0  0  0  0  1  0  0  0  0  0  0
  194.6180  176.7210  141.0430 O   0  0  0  0  0  1  0  0  0  0  0  0
  195.7400  176.3890  141.8060 C   0  0  1  0  0  3  0  0  0  0  0  0
  195.3400  175.7240  143.0930 C   0  0  0  0  0  3  0  0  0  0  0  0
  195.0650  176.4150  144.1400 N   0  0  0  0  0  0  0  0  0  0  0  0
  193.3800  174.7370  145.3320 O   0  0  0  0  0  0  0  0  0  0  0  0
  195.8540  174.6760  146.1810 O   0  0  0  0  0  1  0  0  0  0  0  0
  194.1680  176.7810  146.7650 O   0  0  0  0  0  1  0  0  0  0  0  0
  194.5760  175.6200  145.6050 P   0  0  0  0  0  0  0  0  0  0  0  0
  1  7  1  0  0  0  0
  2  5  1  0  0  0  0
  4  9  1  1  0  0  0
  4  6  1  0  0  0  0
  5  8  1  0  0  0  0
  6  8  2  0  0  0  0
  6  3  1  0  0  0  0
  7  2  2  0  0  0  0
  7  4  1  0  0  0  0
  9 14  1  0  0  0  0
 10 13  1  0  0  0  0
 10 17  1  0  0  0  0
 11 13  2  0  0  0  0
 12 14  2  0  0  0  0
 12 15  1  0  0  0  0
 14 11  1  0  0  0  0
 15 10  2  0  0  0  0
 17 18  1  0  0  0  0
 17 16  2  0  0  0  0
 18 20  1  0  0  0  0
 20 19  2  0  0  0  0
 21 30  1  0  0  0  0
 22 30  1  1  0  0  0
 22 28  1  0  0  0  0
 24 27  1  0  0  0  0
 24 29  1  1  0  0  0
 25 28  1  0  0  0  0
 25 20  1  1  0  0  0
 26 21  1  0  0  0  0
 27 26  1  6  0  0  0
 27 22  1  0  0  0  0
 28 23  1  1  0  0  0
 29 25  1  0  0  0  0
 31 34  1  6  0  0  0
 31 35  1  0  0  0  0
 31 32  1  0  0  0  0
 31 33  1  0  0  0  0
 33 32  1  1  0  0  0
 33 24  1  0  0  0  0
 36 42  1  6  0  0  0
 36  1  1  0  0  0  0
 37 36  1  0  0  0  0
 38 37  1  0  0  0  0
 38 40  1  0  0  0  0
 40 39  1  0  0  0  0
 41 40  1  0  0  0  0
 43 42  1  0  0  0  0
 43 44  1  0  0  0  0
 45 44  1  0  0  0  0
 45 46  1  0  0  0  0
 47 46  1  6  0  0  0
 47 49  1  0  0  0  0
 47 50  1  0  0  0  0
 48 49  1  0  0  0  0
 50 53  1  0  0  0  0
 50 51  1  1  0  0  0
 53 52  1  6  0  0  0
 53 54  1  0  0  0  0
 54 55  2  0  0  0  0
 55 59  1  0  0  0  0
 56 59  2  0  0  0  0
 59 57  1  0  0  0  0
 59 58  1  0  0  0  0
M  END
>  <MODEL>
1

>  <REMARK>
 VINA RESULT:      -6.8      0.000      0.000
  Name = 
  22 active torsions:
  status: ('A' for Active; 'I' for Inactive)
    1  A    between atoms: C_1  and  C_34
    2  A    between atoms: C_3  and  C_33
    3  A    between atoms: C_3  and  C_41
    4  A    between atoms: C_3  and  O_54
    5  A    between atoms: C_4  and  C_8
    6  A    between atoms: C_4  and  N_47
    7  A    between atoms: N_9  and  C_16
    8  A    between atoms: C_12  and  C_16
    9  A    between atoms: C_12  and  S_59
   10  A    between atoms: C_14  and  C_33
   11  A    between atoms: C_14  and  C_49
   12  A    between atoms: C_16  and  N_47
   13  A    between atoms: N_19  and  C_35
   14  A    between atoms: N_19  and  C_48
   15  A    between atoms: C_23  and  N_26
   16  A    between atoms: C_27  and  C_29
   17  A    between atoms: C_29  and  C_56
   18  A    between atoms: C_31  and  C_40
   19  A    between atoms: C_31  and  C_41
   20  A    between atoms: C_34  and  C_56
   21  A    between atoms: N_44  and  P_45
   22  A    between atoms: C_49  and  S_59
                            x       y       z     vdW  Elec       q    Type
                         _______ _______ _______ _____ _____    ______ ____

>  <TORSDO>
F 22

$$$$
=
 OpenBabel11042419103D

 59 63  0  0  1  0  0  0  0  0999 V2000
  193.9180  173.1300  142.7750 N   0  0  0  0  0  2  0  0  0  0  0  0
  193.6840  171.0650  143.9270 N   0  0  0  0  0  0  0  0  0  0  0  0
  191.1180  169.5500  141.0420 N   0  0  0  0  0  1  0  0  0  0  0  0
  191.9780  171.5920  142.2710 C   0  0  2  0  0  3  0  0  0  0  0  0
  192.9540  169.8410  144.2610 C   0  0  0  0  0  2  0  0  0  0  0  0
  191.7940  170.1000  142.1650 C   0  0  0  0  0  0  0  0  0  0  0  0
  193.2410  171.8960  143.0280 C   0  0  0  0  0  0  0  0  0  0  0  0
  192.2750  169.3100  143.0790 N   0  0  0  0  0  0  0  0  0  0  0  0
  190.8480  172.1860  142.9710 N   0  0  0  0  0  2  0  0  0  0  0  0
  188.5330  175.3360  141.3310 C   0  0  0  0  0  0  0  0  0  0  0  0
  188.7190  173.0180  142.0370 C   0  0  0  0  0  3  0  0  0  0  0  0
  190.6090  174.5080  142.2850 C   0  0  0  0  0  3  0  0  0  0  0  0
  187.9670  174.0630  141.4880 C   0  0  0  0  0  3  0  0  0  0  0  0
  190.0450  173.2400  142.4380 C   0  0  0  0  0  0  0  0  0  0  0  0
  189.8580  175.5500  141.7360 C   0  0  0  0  0  3  0  0  0  0  0  0
  186.9600  176.2080  139.7860 O   0  0  0  0  0  0  0  0  0  0  0  0
  187.7570  176.4400  140.7350 C   0  0  0  0  0  0  0  0  0  0  0  0
  187.9170  177.8530  141.2090 C   0  0  0  0  0  2  0  0  0  0  0  0
  185.6470  178.5300  141.3830 O   0  0  0  0  0  0  0  0  0  0  0  0
  186.7110  178.3420  141.9570 C   0  0  0  0  0  0  0  0  0  0  0  0
  184.6660  178.1430  147.7370 C   0  0  0  0  0  2  0  0  0  0  0  0
  185.2890  177.9590  145.4160 C   0  0  2  0  0  3  0  0  0  0  0  0
  185.1080  180.0290  144.1840 O   0  0  0  0  0  1  0  0  0  0  0  0
  187.7420  177.4470  145.6000 C   0  0  2  0  0  3  0  0  0  0  0  0
  186.8010  178.5120  143.4410 C   0  0  1  0  0  3  0  0  0  0  0  0
  186.1660  177.8640  147.6440 C   0  0  0  0  0  2  0  0  0  0  0  0
  186.5410  178.1960  146.2130 C   0  0  2  0  0  3  0  0  0  0  0  0
  185.3930  178.6680  144.0570 C   0  0  1  0  0  3  0  0  0  0  0  0
  187.6240  177.3650  144.0600 C   0  0  0  0  0  2  0  0  0  0  0  0
  184.1680  178.4210  146.3220 C   0  0  0  0  0  2  0  0  0  0  0  0
  189.2320  175.8480  146.6980 C   0  0  1  0  0  0  0  0  0  0  0  0
  188.9120  175.3900  145.3610 C   0  0  0  0  0  2  0  0  0  0  0  0
  187.8740  176.0950  146.1540 N   0  0  2  0  0  0  0  0  0  0  0  0
  189.2700  174.8210  147.8110 C   0  0  0  0  0  1  0  0  0  0  0  0
  190.0670  176.9670  146.7790 O   0  0  0  0  0  1  0  0  0  0  0  0
  195.0100  173.6290  143.6000 C   0  0  2  0  0  3  0  0  0  0  0  0
  194.6000  174.8530  144.2780 N   0  0  0  0  0  2  0  0  0  0  0  0
  194.2400  174.5110  145.6440 C   0  0  0  0  0  2  0  0  0  0  0  0
  192.5460  175.0270  147.2070 F   0  0  0  0  0  0  0  0  0  0  0  0
  192.7660  174.7660  145.8670 C   0  0  0  0  0  3  0  0  0  0  0  0
  192.0340  173.6570  145.4900 F   0  0  0  0  0  0  0  0  0  0  0  0
  196.2450  173.8820  142.7360 C   0  0  0  0  0  2  0  0  0  0  0  0
  197.0530  172.3260  142.2410 S   0  0  0  0  0  0  0  0  0  0  0  0
  197.5550  173.0200  140.6430 C   0  0  0  0  0  2  0  0  0  0  0  0
  197.0160  172.1500  139.5260 C   0  0  0  0  0  2  0  0  0  0  0  0
  195.6120  172.5910  139.1510 C   0  0  0  0  0  2  0  0  0  0  0  0
  195.6280  173.4570  137.8860 C   0  0  1  0  0  3  0  0  0  0  0  0
  194.5830  171.5520  137.1070 C   0  0  0  0  0  1  0  0  0  0  0  0
  195.0330  172.8370  136.7600 O   0  0  0  0  0  0  0  0  0  0  0  0
  195.1770  174.9120  138.1340 C   0  0  2  0  0  3  0  0  0  0  0  0
  195.2270  175.2590  139.4850 O   0  0  0  0  0  1  0  0  0  0  0  0
  193.9010  175.3280  136.1250 O   0  0  0  0  0  1  0  0  0  0  0  0
  193.8220  175.2790  137.5200 C   0  0  1  0  0  3  0  0  0  0  0  0
  192.6940  174.3940  137.9670 C   0  0  0  0  0  3  0  0  0  0  0  0
  191.6380  174.2510  137.2510 N   0  0  0  0  0  0  0  0  0  0  0  0
  190.7690  172.5070  139.0620 O   0  0  0  0  0  1  0  0  0  0  0  0
  188.9620  174.1030  138.0460 O   0  0  0  0  0  1  0  0  0  0  0  0
  190.0620  172.0360  136.5850 O   0  0  0  0  0  0  0  0  0  0  0  0
  190.3630  173.1960  137.7790 P   0  0  0  0  0  0  0  0  0  0  0  0
  1  7  1  0  0  0  0
  1 36  1  0  0  0  0
  2  5  1  0  0  0  0
  3  6  1  0  0  0  0
  4  9  1  1  0  0  0
  4  7  1  0  0  0  0
  6  4  1  0  0  0  0
  6  8  2  0  0  0  0
  7  2  2  0  0  0  0
  8  5  1  0  0  0  0
 10 13  2  0  0  0  0
 10 15  1  0  0  0  0
 11 14  2  0  0  0  0
 12 14  1  0  0  0  0
 13 11  1  0  0  0  0
 14  9  1  0  0  0  0
 15 12  2  0  0  0  0
 16 17  2  0  0  0  0
 17 18  1  0  0  0  0
 17 10  1  0  0  0  0
 18 20  1  0  0  0  0
 19 20  2  0  0  0  0
 22 27  1  0  0  0  0
 22 30  1  1  0  0  0
 24 29  1  6  0  0  0
 24 33  1  0  0  0  0
 24 27  1  0  0  0  0
 25 20  1  6  0  0  0
 25 28  1  0  0  0  0
 25 29  1  0  0  0  0
 26 21  1  0  0  0  0
 27 26  1  1  0  0  0
 28 23  1  1  0  0  0
 28 22  1  0  0  0  0
 30 21  1  0  0  0  0
 31 35  1  0  0  0  0
 31 34  1  1  0  0  0
 32 31  1  0  0  0  0
 33 32  1  6  0  0  0
 33 31  1  0  0  0  0
 36 42  1  6  0  0  0
 36 37  1  0  0  0  0
 37 38  1  0  0  0  0
 38 40  1  0  0  0  0
 40 39  1  0  0  0  0
 41 40  1  0  0  0  0
 43 42  1  0  0  0  0
 44 43  1  0  0  0  0
 45 44  1  0  0  0  0
 46 45  1  0  0  0  0
 47 50  1  0  0  0  0
 47 46  1  1  0  0  0
 49 48  1  0  0  0  0
 49 47  1  0  0  0  0
 50 51  1  1  0  0  0
 53 52  1  6  0  0  0
 53 54  1  0  0  0  0
 53 50  1  0  0  0  0
 55 59  1  0  0  0  0
 55 54  2  0  0  0  0
 58 59  2  0  0  0  0
 59 57  1  0  0  0  0
 59 56  1  0  0  0  0
M  END
>  <MODEL>
2

>  <REMARK>
 VINA RESULT:      -6.7      3.263      5.695
  Name = 
  22 active torsions:
  status: ('A' for Active; 'I' for Inactive)
    1  A    between atoms: C_1  and  C_34
    2  A    between atoms: C_3  and  C_33
    3  A    between atoms: C_3  and  C_41
    4  A    between atoms: C_3  and  O_54
    5  A    between atoms: C_4  and  C_8
    6  A    between atoms: C_4  and  N_47
    7  A    between atoms: N_9  and  C_16
    8  A    between atoms: C_12  and  C_16
    9  A    between atoms: C_12  and  S_59
   10  A    between atoms: C_14  and  C_33
   11  A    between atoms: C_14  and  C_49
   12  A    between atoms: C_16  and  N_47
   13  A    between atoms: N_19  and  C_35
   14  A    between atoms: N_19  and  C_48
   15  A    between atoms: C_23  and  N_26
   16  A    between atoms: C_27  and  C_29
   17  A    between atoms: C_29  and  C_56
   18  A    between atoms: C_31  and  C_40
   19  A    between atoms: C_31  and  C_41
   20  A    between atoms: C_34  and  C_56
   21  A    between atoms: N_44  and  P_45
   22  A    between atoms: C_49  and  S_59
                            x       y       z     vdW  Elec       q    Type
                         _______ _______ _______ _____ _____    ______ ____

>  <TORSDO>
F 22

$$$$
=
 OpenBabel11042419103D

 59 63  0  0  1  0  0  0  0  0999 V2000
  186.3510  178.8010  143.6520 N   0  0  0  0  0  2  0  0  0  0  0  0
  184.5790  178.3110  145.1570 N   0  0  0  0  0  0  0  0  0  0  0  0
  186.8960  179.2550  148.4640 N   0  0  0  0  0  1  0  0  0  0  0  0
  186.8250  178.3620  146.0950 C   0  0  2  0  0  3  0  0  0  0  0  0
  184.0620  177.9150  146.4670 C   0  0  0  0  0  2  0  0  0  0  0  0
  186.1420  178.6990  147.3950 C   0  0  0  0  0  0  0  0  0  0  0  0
  185.8510  178.5010  144.9580 C   0  0  0  0  0  0  0  0  0  0  0  0
  184.8640  178.5100  147.5360 N   0  0  0  0  0  0  0  0  0  0  0  0
  187.3230  176.9940  146.1310 N   0  0  0  0  0  2  0  0  0  0  0  0
  191.2370  175.8000  145.0240 C   0  0  0  0  0  0  0  0  0  0  0  0
  189.4530  177.4500  144.9700 C   0  0  0  0  0  3  0  0  0  0  0  0
  189.1450  175.3840  146.1900 C   0  0  0  0  0  3  0  0  0  0  0  0
  190.7400  177.0420  144.6030 C   0  0  0  0  0  3  0  0  0  0  0  0
  188.6520  176.6190  145.7670 C   0  0  0  0  0  0  0  0  0  0  0  0
  190.4300  174.9760  145.8210 C   0  0  0  0  0  3  0  0  0  0  0  0
  193.5800  176.0970  144.8190 O   0  0  0  0  0  0  0  0  0  0  0  0
  192.5840  175.3490  144.6250 C   0  0  0  0  0  0  0  0  0  0  0  0
  192.7990  174.0250  143.9580 C   0  0  0  0  0  2  0  0  0  0  0  0
  194.0870  172.8930  145.6020 O   0  0  0  0  0  0  0  0  0  0  0  0
  194.0310  173.3290  144.4600 C   0  0  0  0  0  0  0  0  0  0  0  0
  197.1540  170.3150  140.1260 C   0  0  0  0  0  2  0  0  0  0  0  0
  195.6610  171.3950  141.6790 C   0  0  2  0  0  3  0  0  0  0  0  0
  196.1990  170.9910  143.9990 O   0  0  0  0  0  1  0  0  0  0  0  0
  196.1570  173.8190  141.2400 C   0  0  2  0  0  3  0  0  0  0  0  0
  195.1650  173.0920  143.5140 C   0  0  1  0  0  3  0  0  0  0  0  0
  197.3440  171.8280  140.0290 C   0  0  0  0  0  2  0  0  0  0  0  0
  196.7250  172.3860  141.2950 C   0  0  2  0  0  3  0  0  0  0  0  0
  195.2680  171.5950  143.1520 C   0  0  1  0  0  3  0  0  0  0  0  0
  195.0380  174.0190  142.2880 C   0  0  0  0  0  2  0  0  0  0  0  0
  196.2520  170.0470  141.3270 C   0  0  0  0  0  2  0  0  0  0  0  0
  196.4400  175.2070  139.2470 C   0  0  1  0  0  0  0  0  0  0  0  0
  195.2130  175.5640  139.9290 C   0  0  0  0  0  2  0  0  0  0  0  0
  195.6430  174.1430  139.9050 N   0  0  2  0  0  0  0  0  0  0  0  0
  196.4190  175.1420  137.7330 C   0  0  0  0  0  1  0  0  0  0  0  0
  197.6270  175.5670  139.8930 O   0  0  0  0  0  1  0  0  0  0  0  0
  185.5350  178.7350  142.4460 C   0  0  2  0  0  3  0  0  0  0  0  0
  184.1310  178.5820  142.8060 N   0  0  0  0  0  2  0  0  0  0  0  0
  183.4400  177.9860  141.6730 C   0  0  0  0  0  2  0  0  0  0  0  0
  181.6770  179.0310  140.5000 F   0  0  0  0  0  0  0  0  0  0  0  0
  181.9840  178.3930  141.6880 C   0  0  0  0  0  3  0  0  0  0  0  0
  181.7460  179.2510  142.7450 F   0  0  0  0  0  0  0  0  0  0  0  0
  185.9960  177.5720  141.5680 C   0  0  0  0  0  2  0  0  0  0  0  0
  187.8070  177.5510  141.3690 S   0  0  0  0  0  0  0  0  0  0  0  0
  187.8100  175.7760  141.0030 C   0  0  0  0  0  2  0  0  0  0  0  0
  188.6240  175.0480  142.0540 C   0  0  0  0  0  2  0  0  0  0  0  0
  188.2880  173.5670  142.0430 C   0  0  0  0  0  2  0  0  0  0  0  0
  189.5250  172.7240  141.7140 C   0  0  1  0  0  3  0  0  0  0  0  0
  189.6700  171.9990  143.9000 C   0  0  0  0  0  1  0  0  0  0  0  0
  189.6910  171.5970  142.5540 O   0  0  0  0  0  0  0  0  0  0  0  0
  189.6860  172.4340  140.2070 C   0  0  2  0  0  3  0  0  0  0  0  0
  190.1780  171.1500  139.9640 O   0  0  0  0  0  1  0  0  0  0  0  0
  191.7250  173.7180  140.0340 O   0  0  0  0  0  1  0  0  0  0  0  0
  190.4860  173.4860  139.4310 C   0  0  1  0  0  3  0  0  0  0  0  0
  190.6450  173.1730  137.9710 C   0  0  0  0  0  3  0  0  0  0  0  0
  189.7040  173.4150  137.1330 N   0  0  0  0  0  0  0  0  0  0  0  0
  191.4050  173.0430  135.1220 O   0  0  0  0  0  1  0  0  0  0  0  0
  189.2450  171.5670  135.0860 O   0  0  0  0  0  1  0  0  0  0  0  0
  189.1700  174.2670  134.5210 O   0  0  0  0  0  0  0  0  0  0  0  0
  189.9290  173.0700  135.4450 P   0  0  0  0  0  0  0  0  0  0  0  0
  1  7  1  0  0  0  0
  2  5  1  0  0  0  0
  4  9  1  1  0  0  0
  4  6  1  0  0  0  0
  5  8  1  0  0  0  0
  6  8  2  0  0  0  0
  6  3  1  0  0  0  0
  7  2  2  0  0  0  0
  7  4  1  0  0  0  0
 10 15  1  0  0  0  0
 11 14  2  0  0  0  0
 13 11  1  0  0  0  0
 13 10  2  0  0  0  0
 14  9  1  0  0  0  0
 14 12  1  0  0  0  0
 15 12  2  0  0  0  0
 17 16  2  0  0  0  0
 17 10  1  0  0  0  0
 18 20  1  0  0  0  0
 18 17  1  0  0  0  0
 20 19  2  0  0  0  0
 21 30  1  0  0  0  0
 22 30  1  1  0  0  0
 22 28  1  0  0  0  0
 24 27  1  0  0  0  0
 24 29  1  1  0  0  0
 25 20  1  1  0  0  0
 26 21  1  0  0  0  0
 27 26  1  6  0  0  0
 27 22  1  0  0  0  0
 28 25  1  0  0  0  0
 28 23  1  1  0  0  0
 29 25  1  0  0  0  0
 31 34  1  6  0  0  0
 31 35  1  0  0  0  0
 31 33  1  0  0  0  0
 31 32  1  0  0  0  0
 33 32  1  1  0  0  0
 33 24  1  0  0  0  0
 36 42  1  6  0  0  0
 36 37  1  0  0  0  0
 36  1  1  0  0  0  0
 38 40  1  0  0  0  0
 38 37  1  0  0  0  0
 39 40  1  0  0  0  0
 40 41  1  0  0  0  0
 43 42  1  0  0  0  0
 44 43  1  0  0  0  0
 44 45  1  0  0  0  0
 46 45  1  0  0  0  0
 47 46  1  6  0  0  0
 47 49  1  0  0  0  0
 49 48  1  0  0  0  0
 50 51  1  1  0  0  0
 50 47  1  0  0  0  0
 53 52  1  1  0  0  0
 53 50  1  0  0  0  0
 54 53  1  0  0  0  0
 55 54  2  0  0  0  0
 56 59  1  0  0  0  0
 57 59  1  0  0  0  0
 58 59  2  0  0  0  0
 59 55  1  0  0  0  0
M  END
>  <MODEL>
3

>  <REMARK>
 VINA RESULT:      -6.2      3.762      9.348
  Name = 
  22 active torsions:
  status: ('A' for Active; 'I' for Inactive)
    1  A    between atoms: C_1  and  C_34
    2  A    between atoms: C_3  and  C_33
    3  A    between atoms: C_3  and  C_41
    4  A    between atoms: C_3  and  O_54
    5  A    between atoms: C_4  and  C_8
    6  A    between atoms: C_4  and  N_47
    7  A    between atoms: N_9  and  C_16
    8  A    between atoms: C_12  and  C_16
    9  A    between atoms: C_12  and  S_59
   10  A    between atoms: C_14  and  C_33
   11  A    between atoms: C_14  and  C_49
   12  A    between atoms: C_16  and  N_47
   13  A    between atoms: N_19  and  C_35
   14  A    between atoms: N_19  and  C_48
   15  A    between atoms: C_23  and  N_26
   16  A    between atoms: C_27  and  C_29
   17  A    between atoms: C_29  and  C_56
   18  A    between atoms: C_31  and  C_40
   19  A    between atoms: C_31  and  C_41
   20  A    between atoms: C_34  and  C_56
   21  A    between atoms: N_44  and  P_45
   22  A    between atoms: C_49  and  S_59
                            x       y       z     vdW  Elec       q    Type
                         _______ _______ _______ _____ _____    ______ ____

>  <TORSDO>
F 22

$$$$
=
 OpenBabel11042419103D

 59 63  0  0  1  0  0  0  0  0999 V2000
  192.8720  171.7550  139.1890 N   0  0  0  0  0  2  0  0  0  0  0  0
  191.2210  170.6490  137.8880 N   0  0  0  0  0  0  0  0  0  0  0  0
  189.2050  174.1920  137.1220 N   0  0  0  0  0  1  0  0  0  0  0  0
  190.6500  172.8630  138.7240 C   0  0  2  0  0  3  0  0  0  0  0  0
  189.8790  170.5410  137.3140 C   0  0  0  0  0  2  0  0  0  0  0  0
  189.7150  172.9340  137.5440 C   0  0  0  0  0  0  0  0  0  0  0  0
  191.5890  171.7010  138.5590 C   0  0  0  0  0  0  0  0  0  0  0  0
  189.3950  171.8560  136.8920 N   0  0  0  0  0  0  0  0  0  0  0  0
  189.8900  172.6910  139.9540 N   0  0  0  0  0  2  0  0  0  0  0  0
  191.3710  173.7630  143.7790 C   0  0  0  0  0  0  0  0  0  0  0  0
  189.7560  172.5630  142.4160 C   0  0  0  0  0  3  0  0  0  0  0  0
  191.5080  173.8490  141.3540 C   0  0  0  0  0  3  0  0  0  0  0  0
  190.2480  172.9300  143.6730 C   0  0  0  0  0  3  0  0  0  0  0  0
  190.3870  173.0230  141.2510 C   0  0  0  0  0  0  0  0  0  0  0  0
  191.9980  174.2170  142.6100 C   0  0  0  0  0  3  0  0  0  0  0  0
  192.9230  173.6300  145.5670 O   0  0  0  0  0  0  0  0  0  0  0  0
  191.8870  174.1740  145.0990 C   0  0  0  0  0  0  0  0  0  0  0  0
  191.1850  175.2100  145.9230 C   0  0  0  0  0  2  0  0  0  0  0  0
  192.4460  177.1160  145.2730 O   0  0  0  0  0  0  0  0  0  0  0  0
  191.3440  176.5910  145.3560 C   0  0  0  0  0  0  0  0  0  0  0  0
  186.4340  177.2550  141.7400 C   0  0  0  0  0  2  0  0  0  0  0  0
  188.2920  176.6800  143.1640 C   0  0  2  0  0  3  0  0  0  0  0  0
  190.4010  177.6180  142.4520 O   0  0  0  0  0  1  0  0  0  0  0  0
  187.6660  177.8560  145.2940 C   0  0  2  0  0  3  0  0  0  0  0  0
  190.1410  177.2900  144.8070 C   0  0  1  0  0  3  0  0  0  0  0  0
  186.2460  177.9260  143.0990 C   0  0  0  0  0  2  0  0  0  0  0  0
  187.6130  177.8850  143.7530 C   0  0  2  0  0  3  0  0  0  0  0  0
  189.8090  176.7710  143.3910 C   0  0  1  0  0  3  0  0  0  0  0  0
  188.9640  177.1840  145.7980 C   0  0  0  0  0  2  0  0  0  0  0  0
  187.8370  176.6550  141.7200 C   0  0  0  0  0  2  0  0  0  0  0  0
  185.5820  178.0980  146.5510 C   0  0  1  0  0  0  0  0  0  0  0  0
  186.5480  177.3520  147.3320 C   0  0  0  0  0  2  0  0  0  0  0  0
  186.5030  177.1640  145.8590 N   0  0  2  0  0  0  0  0  0  0  0  0
  184.1400  177.6350  146.5730 C   0  0  0  0  0  1  0  0  0  0  0  0
  185.8540  179.4590  146.3790 O   0  0  0  0  0  1  0  0  0  0  0  0
  193.7660  170.6080  139.2890 C   0  0  2  0  0  3  0  0  0  0  0  0
  194.1820  170.1870  137.9570 N   0  0  0  0  0  2  0  0  0  0  0  0
  195.0860  171.1960  137.4290 C   0  0  0  0  0  2  0  0  0  0  0  0
  193.4450  171.7360  135.8190 F   0  0  0  0  0  0  0  0  0  0  0  0
  194.7870  171.4390  135.9670 C   0  0  0  0  0  3  0  0  0  0  0  0
  195.0920  170.3110  135.2300 F   0  0  0  0  0  0  0  0  0  0  0  0
  193.0650  169.4620  140.0200 C   0  0  0  0  0  2  0  0  0  0  0  0
  193.8490  169.1070  141.6260 S   0  0  0  0  0  0  0  0  0  0  0  0
  192.7840  170.2990  142.4820 C   0  0  0  0  0  2  0  0  0  0  0  0
  193.3600  170.5930  143.8520 C   0  0  0  0  0  2  0  0  0  0  0  0
  194.7710  170.0400  143.9560 C   0  0  0  0  0  2  0  0  0  0  0  0
  195.5410  170.7110  145.0990 C   0  0  1  0  0  3  0  0  0  0  0  0
  195.2030  169.2540  146.8560 C   0  0  0  0  0  1  0  0  0  0  0  0
  196.1620  169.7980  145.9860 O   0  0  0  0  0  0  0  0  0  0  0  0
  196.4450  171.8710  144.6310 C   0  0  2  0  0  3  0  0  0  0  0  0
  197.7860  171.4920  144.5370 O   0  0  0  0  0  1  0  0  0  0  0  0
  197.1030  173.1510  146.5700 O   0  0  0  0  0  1  0  0  0  0  0  0
  196.2940  173.1680  145.4310 C   0  0  1  0  0  3  0  0  0  0  0  0
  196.5270  174.4120  144.6220 C   0  0  0  0  0  3  0  0  0  0  0  0
  196.0940  174.5110  143.4170 N   0  0  0  0  0  0  0  0  0  0  0  0
  196.7200  177.0960  143.4590 O   0  0  0  0  0  1  0  0  0  0  0  0
  197.6040  175.7340  141.4080 O   0  0  0  0  0  0  0  0  0  0  0  0
  194.9350  176.3780  141.6830 O   0  0  0  0  0  1  0  0  0  0  0  0
  196.3510  175.9740  142.5160 P   0  0  0  0  0  0  0  0  0  0  0  0
  1 36  1  0  0  0  0
  2  7  2  0  0  0  0
  3  6  1  0  0  0  0
  4  9  1  1  0  0  0
  5  2  1  0  0  0  0
  6  4  1  0  0  0  0
  7  4  1  0  0  0  0
  7  1  1  0  0  0  0
  8  5  1  0  0  0  0
  8  6  2  0  0  0  0
  9 14  1  0  0  0  0
 10 17  1  0  0  0  0
 11 13  2  0  0  0  0
 12 15  1  0  0  0  0
 13 10  1  0  0  0  0
 14 12  2  0  0  0  0
 14 11  1  0  0  0  0
 15 10  2  0  0  0  0
 17 16  2  0  0  0  0
 17 18  1  0  0  0  0
 19 20  2  0  0  0  0
 20 18  1  0  0  0  0
 21 26  1  0  0  0  0
 22 30  1  6  0  0  0
 22 28  1  0  0  0  0
 22 27  1  0  0  0  0
 24 29  1  6  0  0  0
 24 33  1  0  0  0  0
 25 20  1  1  0  0  0
 25 29  1  0  0  0  0
 27 26  1  1  0  0  0
 27 24  1  0  0  0  0
 28 23  1  6  0  0  0
 28 25  1  0  0  0  0
 30 21  1  0  0  0  0
 31 34  1  1  0  0  0
 31 32  1  0  0  0  0
 33 31  1  0  0  0  0
 33 32  1  1  0  0  0
 35 31  1  0  0  0  0
 36 42  1  6  0  0  0
 37 36  1  0  0  0  0
 38 37  1  0  0  0  0
 39 40  1  0  0  0  0
 40 38  1  0  0  0  0
 41 40  1  0  0  0  0
 42 43  1  0  0  0  0
 43 44  1  0  0  0  0
 44 45  1  0  0  0  0
 45 46  1  0  0  0  0
 47 46  1  6  0  0  0
 47 49  1  0  0  0  0
 49 48  1  0  0  0  0
 50 51  1  1  0  0  0
 50 47  1  0  0  0  0
 50 53  1  0  0  0  0
 53 52  1  1  0  0  0
 54 53  1  0  0  0  0
 55 54  2  0  0  0  0
 57 59  2  0  0  0  0
 58 59  1  0  0  0  0
 59 55  1  0  0  0  0
 59 56  1  0  0  0  0
M  END
>  <MODEL>
4

>  <REMARK>
 VINA RESULT:      -6.2      2.970      5.058
  Name = 
  22 active torsions:
  status: ('A' for Active; 'I' for Inactive)
    1  A    between atoms: C_1  and  C_34
    2  A    between atoms: C_3  and  C_33
    3  A    between atoms: C_3  and  C_41
    4  A    between atoms: C_3  and  O_54
    5  A    between atoms: C_4  and  C_8
    6  A    between atoms: C_4  and  N_47
    7  A    between atoms: N_9  and  C_16
    8  A    between atoms: C_12  and  C_16
    9  A    between atoms: C_12  and  S_59
   10  A    between atoms: C_14  and  C_33
   11  A    between atoms: C_14  and  C_49
   12  A    between atoms: C_16  and  N_47
   13  A    between atoms: N_19  and  C_35
   14  A    between atoms: N_19  and  C_48
   15  A    between atoms: C_23  and  N_26
   16  A    between atoms: C_27  and  C_29
   17  A    between atoms: C_29  and  C_56
   18  A    between atoms: C_31  and  C_40
   19  A    between atoms: C_31  and  C_41
   20  A    between atoms: C_34  and  C_56
   21  A    between atoms: N_44  and  P_45
   22  A    between atoms: C_49  and  S_59
                            x       y       z     vdW  Elec       q    Type
                         _______ _______ _______ _____ _____    ______ ____

>  <TORSDO>
F 22

$$$$
=
 OpenBabel11042419103D

 59 63  0  0  1  0  0  0  0  0999 V2000
  187.3210  176.0330  144.6570 N   0  0  0  0  0  2  0  0  0  0  0  0
  187.4710  177.8340  143.1140 N   0  0  0  0  0  0  0  0  0  0  0  0
  187.6060  175.2630  139.8620 N   0  0  0  0  0  1  0  0  0  0  0  0
  188.1590  175.6430  142.3050 C   0  0  2  0  0  3  0  0  0  0  0  0
  187.8570  178.4100  141.8250 C   0  0  0  0  0  2  0  0  0  0  0  0
  187.8000  176.1700  140.9400 C   0  0  0  0  0  0  0  0  0  0  0  0
  187.6210  176.5650  143.3630 C   0  0  0  0  0  0  0  0  0  0  0  0
  187.6400  177.4450  140.7470 N   0  0  0  0  0  0  0  0  0  0  0  0
  189.6060  175.5540  142.4420 N   0  0  0  0  0  2  0  0  0  0  0  0
  191.6690  171.8550  142.6210 C   0  0  0  0  0  0  0  0  0  0  0  0
  191.6610  174.2290  142.1000 C   0  0  0  0  0  3  0  0  0  0  0  0
  189.6670  173.1830  142.9840 C   0  0  0  0  0  3  0  0  0  0  0  0
  192.3300  173.0010  142.1540 C   0  0  0  0  0  3  0  0  0  0  0  0
  190.3250  174.3220  142.5160 C   0  0  0  0  0  0  0  0  0  0  0  0
  190.3350  171.9560  143.0360 C   0  0  0  0  0  3  0  0  0  0  0  0
  192.6310  170.0190  143.7730 O   0  0  0  0  0  0  0  0  0  0  0  0
  192.3570  170.5500  142.6630 C   0  0  0  0  0  0  0  0  0  0  0  0
  192.7740  169.8460  141.4080 C   0  0  0  0  0  2  0  0  0  0  0  0
  190.6930  168.8230  140.8910 O   0  0  0  0  0  0  0  0  0  0  0  0
  191.6080  169.5420  140.5120 C   0  0  0  0  0  0  0  0  0  0  0  0
  190.7770  174.2220  136.6360 C   0  0  0  0  0  2  0  0  0  0  0  0
  191.2290  172.6000  138.3600 C   0  0  2  0  0  3  0  0  0  0  0  0
  189.3600  171.1560  138.8650 O   0  0  0  0  0  1  0  0  0  0  0  0
  192.9650  171.1640  137.2480 C   0  0  2  0  0  3  0  0  0  0  0  0
  191.5320  170.2050  139.1740 C   0  0  1  0  0  3  0  0  0  0  0  0
  191.8050  173.2170  136.1180 C   0  0  0  0  0  2  0  0  0  0  0  0
  191.7030  172.0290  137.0530 C   0  0  2  0  0  3  0  0  0  0  0  0
  190.6630  171.4800  139.2460 C   0  0  1  0  0  3  0  0  0  0  0  0
  192.9500  170.4520  138.6200 C   0  0  0  0  0  2  0  0  0  0  0  0
  190.2570  173.6920  137.9690 C   0  0  0  0  0  2  0  0  0  0  0  0
  194.8980  171.6950  135.8480 C   0  0  1  0  0  0  0  0  0  0  0  0
  195.3300  171.0160  137.0520 C   0  0  0  0  0  2  0  0  0  0  0  0
  194.1890  171.9630  137.1230 N   0  0  2  0  0  0  0  0  0  0  0  0
  195.7300  172.8610  135.3520 C   0  0  0  0  0  1  0  0  0  0  0  0
  194.2050  170.9130  134.9180 O   0  0  0  0  0  1  0  0  0  0  0  0
  187.0140  176.8640  145.8140 C   0  0  2  0  0  3  0  0  0  0  0  0
  186.9030  178.2590  145.4080 N   0  0  0  0  0  2  0  0  0  0  0  0
  185.7140  178.8160  146.0340 C   0  0  0  0  0  2  0  0  0  0  0  0
  184.2970  178.1270  144.2750 F   0  0  0  0  0  0  0  0  0  0  0  0
  184.7250  179.2410  144.9720 C   0  0  0  0  0  3  0  0  0  0  0  0
  185.3260  180.1270  144.0980 F   0  0  0  0  0  0  0  0  0  0  0  0
  188.1000  176.6990  146.8770 C   0  0  0  0  0  2  0  0  0  0  0  0
  189.7700  176.8630  146.1680 S   0  0  0  0  0  0  0  0  0  0  0  0
  190.2930  175.2740  146.8680 C   0  0  0  0  0  2  0  0  0  0  0  0
  191.3010  174.6250  145.9420 C   0  0  0  0  0  2  0  0  0  0  0  0
  192.7120  175.0160  146.3480 C   0  0  0  0  0  2  0  0  0  0  0  0
  193.5080  175.5310  145.1440 C   0  0  1  0  0  3  0  0  0  0  0  0
  194.2820  177.1530  146.5920 C   0  0  0  0  0  1  0  0  0  0  0  0
  193.9160  176.8820  145.2630 O   0  0  0  0  0  0  0  0  0  0  0  0
  194.6150  174.5610  144.6810 C   0  0  2  0  0  3  0  0  0  0  0  0
  195.2090  173.8860  145.7500 O   0  0  0  0  0  1  0  0  0  0  0  0
  196.9440  175.1050  144.3430 O   0  0  0  0  0  1  0  0  0  0  0  0
  195.6740  175.1840  143.7660 C   0  0  1  0  0  3  0  0  0  0  0  0
  195.6780  174.6230  142.3720 C   0  0  0  0  0  3  0  0  0  0  0  0
  195.2320  175.3050  141.3800 N   0  0  0  0  0  0  0  0  0  0  0  0
  195.5740  173.1610  139.8430 O   0  0  0  0  0  1  0  0  0  0  0  0
  193.7810  174.8840  139.0280 O   0  0  0  0  0  1  0  0  0  0  0  0
  196.4850  175.4190  138.8800 O   0  0  0  0  0  0  0  0  0  0  0  0
  195.2780  174.6420  139.7760 P   0  0  0  0  0  0  0  0  0  0  0  0
  1 36  1  0  0  0  0
  2  7  2  0  0  0  0
  3  6  1  0  0  0  0
  4  9  1  6  0  0  0
  4  7  1  0  0  0  0
  5  2  1  0  0  0  0
  6  4  1  0  0  0  0
  7  1  1  0  0  0  0
  8  6  2  0  0  0  0
  8  5  1  0  0  0  0
  9 14  1  0  0  0  0
 10 17  1  0  0  0  0
 10 15  1  0  0  0  0
 11 13  1  0  0  0  0
 11 14  2  0  0  0  0
 12 15  2  0  0  0  0
 13 10  2  0  0  0  0
 14 12  1  0  0  0  0
 17 16  2  0  0  0  0
 18 17  1  0  0  0  0
 20 19  2  0  0  0  0
 20 18  1  0  0  0  0
 21 30  1  0  0  0  0
 22 30  1  6  0  0  0
 22 28  1  0  0  0  0
 24 29  1  1  0  0  0
 25 28  1  0  0  0  0
 25 20  1  1  0  0  0
 26 21  1  0  0  0  0
 27 26  1  6  0  0  0
 27 24  1  0  0  0  0
 27 22  1  0  0  0  0
 28 23  1  6  0  0  0
 29 25  1  0  0  0  0
 31 34  1  6  0  0  0
 31 32  1  0  0  0  0
 31 33  1  0  0  0  0
 33 32  1  1  0  0  0
 33 24  1  0  0  0  0
 35 31  1  0  0  0  0
 36 42  1  1  0  0  0
 37 36  1  0  0  0  0
 37 38  1  0  0  0  0
 39 40  1  0  0  0  0
 40 38  1  0  0  0  0
 41 40  1  0  0  0  0
 43 44  1  0  0  0  0
 43 42  1  0  0  0  0
 45 46  1  0  0  0  0
 45 44  1  0  0  0  0
 47 49  1  0  0  0  0
 47 46  1  1  0  0  0
 49 48  1  0  0  0  0
 50 47  1  0  0  0  0
 50 51  1  1  0  0  0
 53 52  1  1  0  0  0
 53 50  1  0  0  0  0
 54 53  1  0  0  0  0
 55 54  2  0  0  0  0
 57 59  1  0  0  0  0
 58 59  2  0  0  0  0
 59 56  1  0  0  0  0
 59 55  1  0  0  0  0
M  END
>  <MODEL>
5

>  <REMARK>
 VINA RESULT:      -6.2      3.464      8.343
  Name = 
  22 active torsions:
  status: ('A' for Active; 'I' for Inactive)
    1  A    between atoms: C_1  and  C_34
    2  A    between atoms: C_3  and  C_33
    3  A    between atoms: C_3  and  C_41
    4  A    between atoms: C_3  and  O_54
    5  A    between atoms: C_4  and  C_8
    6  A    between atoms: C_4  and  N_47
    7  A    between atoms: N_9  and  C_16
    8  A    between atoms: C_12  and  C_16
    9  A    between atoms: C_12  and  S_59
   10  A    between atoms: C_14  and  C_33
   11  A    between atoms: C_14  and  C_49
   12  A    between atoms: C_16  and  N_47
   13  A    between atoms: N_19  and  C_35
   14  A    between atoms: N_19  and  C_48
   15  A    between atoms: C_23  and  N_26
   16  A    between atoms: C_27  and  C_29
   17  A    between atoms: C_29  and  C_56
   18  A    between atoms: C_31  and  C_40
   19  A    between atoms: C_31  and  C_41
   20  A    between atoms: C_34  and  C_56
   21  A    between atoms: N_44  and  P_45
   22  A    between atoms: C_49  and  S_59
                            x       y       z     vdW  Elec       q    Type
                         _______ _______ _______ _____ _____    ______ ____

>  <TORSDO>
F 22

$$$$
=
 OpenBabel11042419103D

 59 63  0  0  1  0  0  0  0  0999 V2000
  188.1040  175.8440  145.3680 N   0  0  0  0  0  2  0  0  0  0  0  0
  188.7740  177.7540  144.1230 N   0  0  0  0  0  0  0  0  0  0  0  0
  187.4820  176.0910  140.5500 N   0  0  0  0  0  1  0  0  0  0  0  0
  188.4290  175.6970  142.8660 C   0  0  2  0  0  3  0  0  0  0  0  0
  189.2010  178.4140  142.8880 C   0  0  0  0  0  2  0  0  0  0  0  0
  188.1500  176.6030  141.6950 C   0  0  0  0  0  0  0  0  0  0  0  0
  188.4340  176.4970  144.1380 C   0  0  0  0  0  0  0  0  0  0  0  0
  188.4890  177.8570  141.7370 N   0  0  0  0  0  0  0  0  0  0  0  0
  189.7260  175.0540  142.7020 N   0  0  0  0  0  2  0  0  0  0  0  0
  190.2580  171.4890  140.4720 C   0  0  0  0  0  0  0  0  0  0  0  0
  190.4380  173.9070  140.6350 C   0  0  0  0  0  3  0  0  0  0  0  0
  189.5950  172.6330  142.5110 C   0  0  0  0  0  3  0  0  0  0  0  0
  190.6010  172.7250  139.9050 C   0  0  0  0  0  3  0  0  0  0  0  0
  189.9330  173.8620  141.9430 C   0  0  0  0  0  0  0  0  0  0  0  0
  189.7570  171.4520  141.7800 C   0  0  0  0  0  3  0  0  0  0  0  0
  191.1520  169.3180  140.1370 O   0  0  0  0  0  0  0  0  0  0  0  0
  190.4060  170.2370  139.7040 C   0  0  0  0  0  0  0  0  0  0  0  0
  189.7110  170.0400  138.3910 C   0  0  0  0  0  2  0  0  0  0  0  0
  191.0970  168.7430  136.9620 O   0  0  0  0  0  0  0  0  0  0  0  0
  190.6780  169.8540  137.2580 C   0  0  0  0  0  0  0  0  0  0  0  0
  190.2710  175.6440  135.2750 C   0  0  0  0  0  2  0  0  0  0  0  0
  190.3430  173.4840  136.3420 C   0  0  2  0  0  3  0  0  0  0  0  0
  189.1850  171.7490  135.1240 O   0  0  0  0  0  1  0  0  0  0  0  0
  192.7930  172.9450  136.2040 C   0  0  2  0  0  3  0  0  0  0  0  0
  191.0580  171.0410  136.4310 C   0  0  1  0  0  3  0  0  0  0  0  0
  191.7080  175.1250  135.2520 C   0  0  0  0  0  2  0  0  0  0  0  0
  191.5940  173.6380  135.5240 C   0  0  2  0  0  3  0  0  0  0  0  0
  189.8720  172.0220  136.3080 C   0  0  1  0  0  3  0  0  0  0  0  0
  192.3430  171.6880  136.9860 C   0  0  0  0  0  2  0  0  0  0  0  0
  189.3840  174.5040  135.7650 C   0  0  0  0  0  2  0  0  0  0  0  0
  194.9430  173.9600  136.7770 C   0  0  1  0  0  0  0  0  0  0  0  0
  194.5230  173.0600  137.8320 C   0  0  0  0  0  2  0  0  0  0  0  0
  193.5010  173.8570  137.1080 N   0  0  2  0  0  0  0  0  0  0  0  0
  195.5720  175.2790  137.1750 C   0  0  0  0  0  1  0  0  0  0  0  0
  195.3350  173.3570  135.5770 O   0  0  0  0  0  1  0  0  0  0  0  0
  188.2950  176.4540  146.6770 C   0  0  2  0  0  3  0  0  0  0  0  0
  187.4110  177.6040  146.8220 N   0  0  0  0  0  2  0  0  0  0  0  0
  186.0390  177.1230  146.7860 C   0  0  0  0  0  2  0  0  0  0  0  0
  184.7680  178.7000  148.0000 F   0  0  0  0  0  0  0  0  0  0  0  0
  185.0850  178.2940  146.7170 C   0  0  0  0  0  3  0  0  0  0  0  0
  183.9310  177.9220  146.0540 F   0  0  0  0  0  0  0  0  0  0  0  0
  189.7550  176.8740  146.8490 C   0  0  0  0  0  2  0  0  0  0  0  0
  190.7610  175.5390  147.5730 S   0  0  0  0  0  0  0  0  0  0  0  0
  192.3050  176.4150  147.2050 C   0  0  0  0  0  2  0  0  0  0  0  0
  193.2210  175.5060  146.4100 C   0  0  0  0  0  2  0  0  0  0  0  0
  194.3470  176.3140  145.7880 C   0  0  0  0  0  2  0  0  0  0  0  0
  194.8810  175.6300  144.5240 C   0  0  1  0  0  3  0  0  0  0  0  0
  193.2830  175.7400  142.8630 C   0  0  0  0  0  1  0  0  0  0  0  0
  194.5000  176.2720  143.3210 O   0  0  0  0  0  0  0  0  0  0  0  0
  196.3770  175.2610  144.6130 C   0  0  2  0  0  3  0  0  0  0  0  0
  197.1320  175.8640  143.6050 O   0  0  0  0  0  1  0  0  0  0  0  0
  196.6770  173.3200  146.0190 O   0  0  0  0  0  1  0  0  0  0  0  0
  196.6640  173.7580  144.6920 C   0  0  1  0  0  3  0  0  0  0  0  0
  195.7420  172.9180  143.8550 C   0  0  0  0  0  3  0  0  0  0  0  0
  194.7780  172.2580  144.3860 N   0  0  0  0  0  0  0  0  0  0  0  0
  194.3650  170.0080  143.0300 O   0  0  0  0  0  1  0  0  0  0  0  0
  192.2750  171.0230  144.2330 O   0  0  0  0  0  1  0  0  0  0  0  0
  193.3590  172.1830  141.9750 O   0  0  0  0  0  0  0  0  0  0  0  0
  193.7080  171.3210  143.3890 P   0  0  0  0  0  0  0  0  0  0  0  0
  1 36  1  0  0  0  0
  2  7  2  0  0  0  0
  3  6  1  0  0  0  0
  4  9  1  6  0  0  0
  4  7  1  0  0  0  0
  5  2  1  0  0  0  0
  6  8  2  0  0  0  0
  6  4  1  0  0  0  0
  7  1  1  0  0  0  0
  8  5  1  0  0  0  0
 10 15  1  0  0  0  0
 11 14  2  0  0  0  0
 13 10  2  0  0  0  0
 13 11  1  0  0  0  0
 14 12  1  0  0  0  0
 14  9  1  0  0  0  0
 15 12  2  0  0  0  0
 17 16  2  0  0  0  0
 17 10  1  0  0  0  0
 18 17  1  0  0  0  0
 19 20  2  0  0  0  0
 20 18  1  0  0  0  0
 21 30  1  0  0  0  0
 22 30  1  6  0  0  0
 24 29  1  1  0  0  0
 24 33  1  0  0  0  0
 25 29  1  0  0  0  0
 25 20  1  1  0  0  0
 26 21  1  0  0  0  0
 27 26  1  1  0  0  0
 27 24  1  0  0  0  0
 27 22  1  0  0  0  0
 28 23  1  6  0  0  0
 28 22  1  0  0  0  0
 28 25  1  0  0  0  0
 31 33  1  0  0  0  0
 31 34  1  1  0  0  0
 31 32  1  0  0  0  0
 33 32  1  1  0  0  0
 35 31  1  0  0  0  0
 36 37  1  0  0  0  0
 36 42  1  6  0  0  0
 38 37  1  0  0  0  0
 40 38  1  0  0  0  0
 40 39  1  0  0  0  0
 41 40  1  0  0  0  0
 42 43  1  0  0  0  0
 44 43  1  0  0  0  0
 45 44  1  0  0  0  0
 46 45  1  0  0  0  0
 47 50  1  0  0  0  0
 47 46  1  1  0  0  0
 48 49  1  0  0  0  0
 49 47  1  0  0  0  0
 50 51  1  6  0  0  0
 50 53  1  0  0  0  0
 53 52  1  1  0  0  0
 54 55  2  0  0  0  0
 54 53  1  0  0  0  0
 56 59  1  0  0  0  0
 58 59  2  0  0  0  0
 59 57  1  0  0  0  0
 59 55  1  0  0  0  0
M  END
>  <MODEL>
6

>  <REMARK>
 VINA RESULT:      -6.0      3.786      8.614
  Name = 
  22 active torsions:
  status: ('A' for Active; 'I' for Inactive)
    1  A    between atoms: C_1  and  C_34
    2  A    between atoms: C_3  and  C_33
    3  A    between atoms: C_3  and  C_41
    4  A    between atoms: C_3  and  O_54
    5  A    between atoms: C_4  and  C_8
    6  A    between atoms: C_4  and  N_47
    7  A    between atoms: N_9  and  C_16
    8  A    between atoms: C_12  and  C_16
    9  A    between atoms: C_12  and  S_59
   10  A    between atoms: C_14  and  C_33
   11  A    between atoms: C_14  and  C_49
   12  A    between atoms: C_16  and  N_47
   13  A    between atoms: N_19  and  C_35
   14  A    between atoms: N_19  and  C_48
   15  A    between atoms: C_23  and  N_26
   16  A    between atoms: C_27  and  C_29
   17  A    between atoms: C_29  and  C_56
   18  A    between atoms: C_31  and  C_40
   19  A    between atoms: C_31  and  C_41
   20  A    between atoms: C_34  and  C_56
   21  A    between atoms: N_44  and  P_45
   22  A    between atoms: C_49  and  S_59
                            x       y       z     vdW  Elec       q    Type
                         _______ _______ _______ _____ _____    ______ ____

>  <TORSDO>
F 22

$$$$
=
 OpenBabel11042419103D

 59 63  0  0  1  0  0  0  0  0999 V2000
  195.8370  174.9880  139.4980 N   0  0  0  0  0  2  0  0  0  0  0  0
  197.1190  174.5040  137.5560 N   0  0  0  0  0  0  0  0  0  0  0  0
  194.5960  176.7280  135.1280 N   0  0  0  0  0  1  0  0  0  0  0  0
  194.8400  175.2830  137.1950 C   0  0  2  0  0  3  0  0  0  0  0  0
  197.2710  174.3410  136.1100 C   0  0  0  0  0  2  0  0  0  0  0  0
  195.3480  175.7710  135.8630 C   0  0  0  0  0  0  0  0  0  0  0  0
  196.0000  174.9170  138.0780 C   0  0  0  0  0  0  0  0  0  0  0  0
  196.4830  175.3450  135.3950 N   0  0  0  0  0  0  0  0  0  0  0  0
  193.9950  174.1120  137.0090 N   0  0  0  0  0  2  0  0  0  0  0  0
  190.1950  173.7030  138.8430 C   0  0  0  0  0  0  0  0  0  0  0  0
  191.5310  174.1990  136.8740 C   0  0  0  0  0  3  0  0  0  0  0  0
  192.6200  173.5880  138.9460 C   0  0  0  0  0  3  0  0  0  0  0  0
  190.2830  174.0700  137.4920 C   0  0  0  0  0  3  0  0  0  0  0  0
  192.7050  173.9570  137.6030 C   0  0  0  0  0  0  0  0  0  0  0  0
  191.3720  173.4610  139.5630 C   0  0  0  0  0  3  0  0  0  0  0  0
  188.3030  172.4670  139.5610 O   0  0  0  0  0  0  0  0  0  0  0  0
  188.8850  173.5840  139.5110 C   0  0  0  0  0  0  0  0  0  0  0  0
  188.2030  174.7760  140.1100 C   0  0  0  0  0  2  0  0  0  0  0  0
  189.2790  174.1670  142.1390 O   0  0  0  0  0  0  0  0  0  0  0  0
  188.5440  174.9570  141.5610 C   0  0  0  0  0  0  0  0  0  0  0  0
  184.3360  179.0260  143.3920 C   0  0  0  0  0  2  0  0  0  0  0  0
  185.7550  177.2080  142.6930 C   0  0  2  0  0  3  0  0  0  0  0  0
  187.0470  177.6790  140.7080 O   0  0  0  0  0  1  0  0  0  0  0  0
  187.3860  177.0910  144.6000 C   0  0  2  0  0  3  0  0  0  0  0  0
  188.0450  176.1720  142.2750 C   0  0  1  0  0  3  0  0  0  0  0  0
  185.4380  178.8260  144.4310 C   0  0  0  0  0  2  0  0  0  0  0  0
  186.4990  178.0030  143.7290 C   0  0  2  0  0  3  0  0  0  0  0  0
  186.7350  176.6820  141.6330 C   0  0  1  0  0  3  0  0  0  0  0  0
  187.9260  175.8910  143.7860 C   0  0  0  0  0  2  0  0  0  0  0  0
  184.6780  178.1470  142.1930 C   0  0  0  0  0  2  0  0  0  0  0  0
  187.0520  177.3190  147.0120 C   0  0  1  0  0  0  0  0  0  0  0  0
  187.6660  176.0400  146.7160 C   0  0  0  0  0  2  0  0  0  0  0  0
  186.6610  176.5980  145.7760 N   0  0  2  0  0  0  0  0  0  0  0  0
  185.9680  177.3590  148.0690 C   0  0  0  0  0  1  0  0  0  0  0  0
  187.8630  178.4440  146.8290 O   0  0  0  0  0  1  0  0  0  0  0  0
  196.8040  174.4470  140.4440 C   0  0  2  0  0  3  0  0  0  0  0  0
  197.8090  175.4550  140.7570 N   0  0  0  0  0  2  0  0  0  0  0  0
  197.9290  175.5350  142.2040 C   0  0  0  0  0  2  0  0  0  0  0  0
  197.5640  177.5030  143.4570 F   0  0  0  0  0  0  0  0  0  0  0  0
  196.9110  176.5100  142.7510 C   0  0  0  0  0  3  0  0  0  0  0  0
  196.0330  175.8510  143.5910 F   0  0  0  0  0  0  0  0  0  0  0  0
  197.4620  173.1960  139.8610 C   0  0  0  0  0  2  0  0  0  0  0  0
  196.4630  171.7030  140.1670 S   0  0  0  0  0  0  0  0  0  0  0  0
  197.6050  171.1250  141.4520 C   0  0  0  0  0  2  0  0  0  0  0  0
  196.8170  170.7450  142.6890 C   0  0  0  0  0  2  0  0  0  0  0  0
  196.2540  171.9900  143.3530 C   0  0  0  0  0  2  0  0  0  0  0  0
  196.2160  171.8300  144.8770 C   0  0  1  0  0  3  0  0  0  0  0  0
  196.8220  173.7450  146.0130 C   0  0  0  0  0  1  0  0  0  0  0  0
  197.2690  172.4970  145.5490 O   0  0  0  0  0  0  0  0  0  0  0  0
  194.8160  172.0610  145.4830 C   0  0  2  0  0  3  0  0  0  0  0  0
  194.3300  170.9290  146.1410 O   0  0  0  0  0  1  0  0  0  0  0  0
  192.6340  171.8170  144.4770 O   0  0  0  0  0  1  0  0  0  0  0  0
  193.7770  172.6200  144.5060 C   0  0  1  0  0  3  0  0  0  0  0  0
  193.4210  174.0580  144.7550 C   0  0  0  0  0  3  0  0  0  0  0  0
  192.7270  174.7270  143.9070 N   0  0  0  0  0  0  0  0  0  0  0  0
  193.4620  177.0770  144.9150 O   0  0  0  0  0  1  0  0  0  0  0  0
  191.9460  177.1650  142.7840 O   0  0  0  0  0  0  0  0  0  0  0  0
  190.9490  176.4220  145.2480 O   0  0  0  0  0  1  0  0  0  0  0  0
  192.3050  176.3790  144.2370 P   0  0  0  0  0  0  0  0  0  0  0  0
  1 36  1  0  0  0  0
  2  7  2  0  0  0  0
  3  6  1  0  0  0  0
  4  9  1  6  0  0  0
  4  7  1  0  0  0  0
  5  2  1  0  0  0  0
  6  4  1  0  0  0  0
  7  1  1  0  0  0  0
  8  6  2  0  0  0  0
  8  5  1  0  0  0  0
  9 14  1  0  0  0  0
 10 17  1  0  0  0  0
 10 15  1  0  0  0  0
 11 13  1  0  0  0  0
 11 14  2  0  0  0  0
 12 15  2  0  0  0  0
 13 10  2  0  0  0  0
 14 12  1  0  0  0  0
 17 16  2  0  0  0  0
 17 18  1  0  0  0  0
 18 20  1  0  0  0  0
 20 19  2  0  0  0  0
 21 26  1  0  0  0  0
 22 30  1  6  0  0  0
 22 27  1  0  0  0  0
 24 29  1  6  0  0  0
 24 33  1  0  0  0  0
 25 20  1  6  0  0  0
 25 29  1  0  0  0  0
 27 26  1  1  0  0  0
 27 24  1  0  0  0  0
 28 23  1  6  0  0  0
 28 25  1  0  0  0  0
 28 22  1  0  0  0  0
 30 21  1  0  0  0  0
 31 34  1  1  0  0  0
 32 31  1  0  0  0  0
 33 32  1  1  0  0  0
 33 31  1  0  0  0  0
 35 31  1  0  0  0  0
 36 42  1  6  0  0  0
 36 37  1  0  0  0  0
 37 38  1  0  0  0  0
 38 40  1  0  0  0  0
 40 39  1  0  0  0  0
 40 41  1  0  0  0  0
 42 43  1  0  0  0  0
 43 44  1  0  0  0  0
 44 45  1  0  0  0  0
 45 46  1  0  0  0  0
 47 46  1  6  0  0  0
 47 50  1  0  0  0  0
 47 49  1  0  0  0  0
 49 48  1  0  0  0  0
 50 51  1  6  0  0  0
 53 52  1  1  0  0  0
 53 54  1  0  0  0  0
 53 50  1  0  0  0  0
 55 59  1  0  0  0  0
 55 54  2  0  0  0  0
 57 59  2  0  0  0  0
 59 56  1  0  0  0  0
 59 58  1  0  0  0  0
M  END
>  <MODEL>
7

>  <REMARK>
 VINA RESULT:      -6.0      3.521      6.384
  Name = 
  22 active torsions:
  status: ('A' for Active; 'I' for Inactive)
    1  A    between atoms: C_1  and  C_34
    2  A    between atoms: C_3  and  C_33
    3  A    between atoms: C_3  and  C_41
    4  A    between atoms: C_3  and  O_54
    5  A    between atoms: C_4  and  C_8
    6  A    between atoms: C_4  and  N_47
    7  A    between atoms: N_9  and  C_16
    8  A    between atoms: C_12  and  C_16
    9  A    between atoms: C_12  and  S_59
   10  A    between atoms: C_14  and  C_33
   11  A    between atoms: C_14  and  C_49
   12  A    between atoms: C_16  and  N_47
   13  A    between atoms: N_19  and  C_35
   14  A    between atoms: N_19  and  C_48
   15  A    between atoms: C_23  and  N_26
   16  A    between atoms: C_27  and  C_29
   17  A    between atoms: C_29  and  C_56
   18  A    between atoms: C_31  and  C_40
   19  A    between atoms: C_31  and  C_41
   20  A    between atoms: C_34  and  C_56
   21  A    between atoms: N_44  and  P_45
   22  A    between atoms: C_49  and  S_59
                            x       y       z     vdW  Elec       q    Type
                         _______ _______ _______ _____ _____    ______ ____

>  <TORSDO>
F 22

$$$$
=
 OpenBabel11042419103D

 59 63  0  0  1  0  0  0  0  0999 V2000
  192.7740  172.1640  138.8050 N   0  0  0  0  0  2  0  0  0  0  0  0
  191.3480  170.9550  137.3380 N   0  0  0  0  0  0  0  0  0  0  0  0
  188.7510  174.1630  136.9390 N   0  0  0  0  0  1  0  0  0  0  0  0
  190.3950  172.9210  138.4130 C   0  0  2  0  0  3  0  0  0  0  0  0
  190.0500  170.6870  136.7190 C   0  0  0  0  0  2  0  0  0  0  0  0
  189.4700  172.9700  137.2250 C   0  0  0  0  0  0  0  0  0  0  0  0
  191.5230  171.9670  138.1390 C   0  0  0  0  0  0  0  0  0  0  0  0
  189.3460  171.9400  136.4420 N   0  0  0  0  0  0  0  0  0  0  0  0
  189.6690  172.4730  139.5930 N   0  0  0  0  0  2  0  0  0  0  0  0
  190.5810  173.7840  143.5200 C   0  0  0  0  0  0  0  0  0  0  0  0
  189.3870  172.2720  142.0370 C   0  0  0  0  0  3  0  0  0  0  0  0
  190.8730  173.9430  141.1130 C   0  0  0  0  0  3  0  0  0  0  0  0
  189.6880  172.7190  143.3290 C   0  0  0  0  0  3  0  0  0  0  0  0
  189.9810  172.8860  140.9240 C   0  0  0  0  0  0  0  0  0  0  0  0
  191.1720  174.3890  142.4030 C   0  0  0  0  0  3  0  0  0  0  0  0
  191.8590  173.7880  145.5180 O   0  0  0  0  0  0  0  0  0  0  0  0
  190.8910  174.2770  144.8760 C   0  0  0  0  0  0  0  0  0  0  0  0
  190.0560  175.3340  145.5320 C   0  0  0  0  0  2  0  0  0  0  0  0
  191.5310  177.1210  145.0080 O   0  0  0  0  0  0  0  0  0  0  0  0
  190.3780  176.7100  145.0250 C   0  0  0  0  0  0  0  0  0  0  0  0
  185.7360  177.9940  141.2270 C   0  0  0  0  0  2  0  0  0  0  0  0
  187.4570  177.1850  142.7070 C   0  0  2  0  0  3  0  0  0  0  0  0
  189.6810  177.9290  142.1260 O   0  0  0  0  0  1  0  0  0  0  0  0
  186.8510  178.3420  144.8530 C   0  0  2  0  0  3  0  0  0  0  0  0
  189.2780  177.5460  144.4520 C   0  0  1  0  0  3  0  0  0  0  0  0
  185.5520  178.6330  142.6030 C   0  0  0  0  0  2  0  0  0  0  0  0
  186.8750  178.4310  143.3130 C   0  0  2  0  0  3  0  0  0  0  0  0
  188.9630  177.1130  143.0030 C   0  0  1  0  0  3  0  0  0  0  0  0
  188.0520  177.5250  145.3860 C   0  0  0  0  0  2  0  0  0  0  0  0
  187.0710  177.2560  141.2450 C   0  0  0  0  0  2  0  0  0  0  0  0
  185.1830  178.3280  146.6410 C   0  0  1  0  0  0  0  0  0  0  0  0
  185.9020  177.0700  146.6230 C   0  0  0  0  0  2  0  0  0  0  0  0
  185.6000  177.7510  145.3390 N   0  0  2  0  0  0  0  0  0  0  0  0
  183.6880  178.2890  146.8790 C   0  0  0  0  0  1  0  0  0  0  0  0
  185.9100  179.4420  147.0740 O   0  0  0  0  0  1  0  0  0  0  0  0
  193.8530  171.1850  138.7930 C   0  0  2  0  0  3  0  0  0  0  0  0
  194.2460  170.8980  137.4200 N   0  0  0  0  0  2  0  0  0  0  0  0
  194.7570  169.5370  137.3730 C   0  0  0  0  0  2  0  0  0  0  0  0
  197.0430  169.9810  136.9790 F   0  0  0  0  0  0  0  0  0  0  0  0
  195.9060  169.4520  136.3950 C   0  0  0  0  0  3  0  0  0  0  0  0
  195.6040  170.1660  135.2510 F   0  0  0  0  0  0  0  0  0  0  0  0
  193.4060  169.9070  139.5020 C   0  0  0  0  0  2  0  0  0  0  0  0
  194.2450  169.6950  141.1050 S   0  0  0  0  0  0  0  0  0  0  0  0
  192.9410  170.5990  141.9810 C   0  0  0  0  0  2  0  0  0  0  0  0
  193.5690  171.6590  142.8630 C   0  0  0  0  0  2  0  0  0  0  0  0
  194.8990  172.1040  142.2790 C   0  0  0  0  0  2  0  0  0  0  0  0
  195.1970  173.5630  142.6400 C   0  0  1  0  0  3  0  0  0  0  0  0
  194.9220  174.8520  144.5340 C   0  0  0  0  0  1  0  0  0  0  0  0
  195.5980  173.7500  143.9850 O   0  0  0  0  0  0  0  0  0  0  0  0
  196.0780  174.2850  141.5980 C   0  0  2  0  0  3  0  0  0  0  0  0
  197.3390  174.6060  142.1040 O   0  0  0  0  0  1  0  0  0  0  0  0
  196.1890  176.6530  141.1350 O   0  0  0  0  0  1  0  0  0  0  0  0
  195.4240  175.5010  140.9350 C   0  0  1  0  0  3  0  0  0  0  0  0
  195.1140  175.3040  139.4780 C   0  0  0  0  0  3  0  0  0  0  0  0
  196.0380  175.0120  138.6360 N   0  0  0  0  0  0  0  0  0  0  0  0
  196.1190  175.9390  136.1440 O   0  0  0  0  0  0  0  0  0  0  0  0
  196.4060  173.3530  136.4170 O   0  0  0  0  0  1  0  0  0  0  0  0
  193.9700  174.5930  136.7980 O   0  0  0  0  0  1  0  0  0  0  0  0
  195.6450  174.7600  136.9630 P   0  0  0  0  0  0  0  0  0  0  0  0
  2  7  2  0  0  0  0
  3  6  1  0  0  0  0
  4  9  1  1  0  0  0
  5  2  1  0  0  0  0
  6  4  1  0  0  0  0
  7  4  1  0  0  0  0
  7  1  1  0  0  0  0
  8  5  1  0  0  0  0
  8  6  2  0  0  0  0
  9 14  1  0  0  0  0
 10 17  1  0  0  0  0
 11 13  2  0  0  0  0
 12 15  1  0  0  0  0
 13 10  1  0  0  0  0
 14 12  2  0  0  0  0
 14 11  1  0  0  0  0
 15 10  2  0  0  0  0
 17 16  2  0  0  0  0
 17 18  1  0  0  0  0
 19 20  2  0  0  0  0
 20 18  1  0  0  0  0
 21 30  1  0  0  0  0
 21 26  1  0  0  0  0
 22 30  1  6  0  0  0
 22 28  1  0  0  0  0
 22 27  1  0  0  0  0
 24 33  1  0  0  0  0
 24 29  1  6  0  0  0
 25 20  1  1  0  0  0
 25 29  1  0  0  0  0
 27 26  1  6  0  0  0
 27 24  1  0  0  0  0
 28 23  1  6  0  0  0
 28 25  1  0  0  0  0
 31 34  1  1  0  0  0
 31 35  1  0  0  0  0
 32 31  1  0  0  0  0
 33 32  1  1  0  0  0
 33 31  1  0  0  0  0
 36  1  1  0  0  0  0
 36 42  1  6  0  0  0
 37 36  1  0  0  0  0
 38 37  1  0  0  0  0
 40 39  1  0  0  0  0
 40 38  1  0  0  0  0
 41 40  1  0  0  0  0
 42 43  1  0  0  0  0
 43 44  1  0  0  0  0
 44 45  1  0  0  0  0
 46 45  1  0  0  0  0
 47 46  1  6  0  0  0
 47 49  1  0  0  0  0
 49 48  1  0  0  0  0
 50 51  1  1  0  0  0
 50 47  1  0  0  0  0
 53 52  1  6  0  0  0
 53 50  1  0  0  0  0
 54 53  1  0  0  0  0
 55 54  2  0  0  0  0
 56 59  2  0  0  0  0
 57 59  1  0  0  0  0
 58 59  1  0  0  0  0
 59 55  1  0  0  0  0
M  END
>  <MODEL>
8

>  <REMARK>
 VINA RESULT:      -5.9      3.164      5.276
  Name = 
  22 active torsions:
  status: ('A' for Active; 'I' for Inactive)
    1  A    between atoms: C_1  and  C_34
    2  A    between atoms: C_3  and  C_33
    3  A    between atoms: C_3  and  C_41
    4  A    between atoms: C_3  and  O_54
    5  A    between atoms: C_4  and  C_8
    6  A    between atoms: C_4  and  N_47
    7  A    between atoms: N_9  and  C_16
    8  A    between atoms: C_12  and  C_16
    9  A    between atoms: C_12  and  S_59
   10  A    between atoms: C_14  and  C_33
   11  A    between atoms: C_14  and  C_49
   12  A    between atoms: C_16  and  N_47
   13  A    between atoms: N_19  and  C_35
   14  A    between atoms: N_19  and  C_48
   15  A    between atoms: C_23  and  N_26
   16  A    between atoms: C_27  and  C_29
   17  A    between atoms: C_29  and  C_56
   18  A    between atoms: C_31  and  C_40
   19  A    between atoms: C_31  and  C_41
   20  A    between atoms: C_34  and  C_56
   21  A    between atoms: N_44  and  P_45
   22  A    between atoms: C_49  and  S_59
                            x       y       z     vdW  Elec       q    Type
                         _______ _______ _______ _____ _____    ______ ____

>  <TORSDO>
F 22

$$$$
=
 OpenBabel11042419103D

 59 63  0  0  1  0  0  0  0  0999 V2000
  194.2010  174.6890  143.6420 N   0  0  0  0  0  2  0  0  0  0  0  0
  194.0260  172.5330  142.6600 N   0  0  0  0  0  0  0  0  0  0  0  0
  190.6780  173.6170  140.4640 N   0  0  0  0  0  1  0  0  0  0  0  0
  192.0370  173.9350  142.5790 C   0  0  2  0  0  3  0  0  0  0  0  0
  193.2680  171.4540  142.0250 C   0  0  0  0  0  2  0  0  0  0  0  0
  191.6660  173.1280  141.3620 C   0  0  0  0  0  0  0  0  0  0  0  0
  193.4720  173.6770  142.9430 C   0  0  0  0  0  0  0  0  0  0  0  0
  192.2650  172.0010  141.1110 N   0  0  0  0  0  0  0  0  0  0  0  0
  191.1860  173.5650  143.7020 N   0  0  0  0  0  2  0  0  0  0  0  0
  189.6900  176.3670  146.5090 C   0  0  0  0  0  0  0  0  0  0  0  0
  190.0600  174.0580  145.8420 C   0  0  0  0  0  3  0  0  0  0  0  0
  190.8280  175.8600  144.4220 C   0  0  0  0  0  3  0  0  0  0  0  0
  189.5620  174.9920  146.7580 C   0  0  0  0  0  3  0  0  0  0  0  0
  190.6960  174.4930  144.6700 C   0  0  0  0  0  0  0  0  0  0  0  0
  190.3290  176.7920  145.3360 C   0  0  0  0  0  3  0  0  0  0  0  0
  189.8900  178.2850  147.8880 O   0  0  0  0  0  0  0  0  0  0  0  0
  189.1500  177.3610  147.4560 C   0  0  0  0  0  0  0  0  0  0  0  0
  187.7380  177.2810  147.9510 C   0  0  0  0  0  2  0  0  0  0  0  0
  186.7710  179.4260  147.6220 O   0  0  0  0  0  0  0  0  0  0  0  0
  186.8360  178.2600  147.2570 C   0  0  0  0  0  0  0  0  0  0  0  0
  182.8650  178.8460  142.6190 C   0  0  0  0  0  2  0  0  0  0  0  0
  184.4900  178.9280  144.3970 C   0  0  2  0  0  3  0  0  0  0  0  0
  183.7280  177.9470  146.4690 O   0  0  0  0  0  1  0  0  0  0  0  0
  186.2810  177.4100  143.5010 C   0  0  2  0  0  3  0  0  0  0  0  0
  186.0790  177.8120  146.0470 C   0  0  1  0  0  3  0  0  0  0  0  0
  184.0380  177.9330  142.2640 C   0  0  0  0  0  2  0  0  0  0  0  0
  184.7690  177.7020  143.5720 C   0  0  2  0  0  3  0  0  0  0  0  0
  184.7860  178.6400  145.8770 C   0  0  1  0  0  3  0  0  0  0  0  0
  186.9950  177.8320  144.8080 C   0  0  0  0  0  2  0  0  0  0  0  0
  183.0600  179.2930  144.0650 C   0  0  0  0  0  2  0  0  0  0  0  0
  187.3910  177.1230  141.3410 C   0  0  1  0  0  0  0  0  0  0  0  0
  188.3270  177.6520  142.3120 C   0  0  0  0  0  2  0  0  0  0  0  0
  186.9080  178.0860  142.3600 N   0  0  2  0  0  0  0  0  0  0  0  0
  187.4310  177.6850  139.9350 C   0  0  0  0  0  1  0  0  0  0  0  0
  187.0010  175.7930  141.5280 O   0  0  0  0  0  1  0  0  0  0  0  0
  195.5110  174.4660  144.2400 C   0  0  2  0  0  3  0  0  0  0  0  0
  195.5430  175.0250  145.5860 N   0  0  0  0  0  2  0  0  0  0  0  0
  194.1730  175.2920  145.9940 C   0  0  0  0  0  2  0  0  0  0  0  0
  192.9910  176.8430  147.3260 F   0  0  0  0  0  0  0  0  0  0  0  0
  194.0390  176.7330  146.4310 C   0  0  0  0  0  3  0  0  0  0  0  0
  193.7920  177.5360  145.3340 F   0  0  0  0  0  0  0  0  0  0  0  0
  196.5970  175.0980  143.3700 C   0  0  0  0  0  2  0  0  0  0  0  0
  197.8140  173.8650  142.8070 S   0  0  0  0  0  0  0  0  0  0  0  0
  197.3760  174.1320  141.0680 C   0  0  0  0  0  2  0  0  0  0  0  0
  197.8790  172.9680  140.2380 C   0  0  0  0  0  2  0  0  0  0  0  0
  196.7370  172.3600  139.4420 C   0  0  0  0  0  2  0  0  0  0  0  0
  196.7130  172.9070  138.0110 C   0  0  1  0  0  3  0  0  0  0  0  0
  196.5090  172.4770  135.7530 C   0  0  0  0  0  1  0  0  0  0  0  0
  196.7390  171.9020  137.0130 O   0  0  0  0  0  0  0  0  0  0  0  0
  195.6510  174.0050  137.7910 C   0  0  2  0  0  3  0  0  0  0  0  0
  196.1920  175.2900  137.8810 O   0  0  0  0  0  1  0  0  0  0  0  0
  194.3880  174.8380  139.6750 O   0  0  0  0  0  1  0  0  0  0  0  0
  194.3990  173.8720  138.6650 C   0  0  1  0  0  3  0  0  0  0  0  0
  193.1130  173.8890  137.8880 C   0  0  0  0  0  3  0  0  0  0  0  0
  192.6600  172.8240  137.3310 N   0  0  0  0  0  0  0  0  0  0  0  0
  191.3750  172.4290  135.0360 O   0  0  0  0  0  0  0  0  0  0  0  0
  190.0530  171.8230  137.2100 O   0  0  0  0  0  1  0  0  0  0  0  0
  190.5380  174.4420  136.4860 O   0  0  0  0  0  1  0  0  0  0  0  0
  191.1550  172.8670  136.4660 P   0  0  0  0  0  0  0  0  0  0  0  0
  1 36  1  0  0  0  0
  2  7  2  0  0  0  0
  3  6  1  0  0  0  0
  4  7  1  0  0  0  0
  4  9  1  1  0  0  0
  5  2  1  0  0  0  0
  6  4  1  0  0  0  0
  7  1  1  0  0  0  0
  8  6  2  0  0  0  0
  8  5  1  0  0  0  0
  9 14  1  0  0  0  0
 10 13  1  0  0  0  0
 10 17  1  0  0  0  0
 11 13  2  0  0  0  0
 12 14  2  0  0  0  0
 12 15  1  0  0  0  0
 14 11  1  0  0  0  0
 15 10  2  0  0  0  0
 17 16  2  0  0  0  0
 17 18  1  0  0  0  0
 20 19  2  0  0  0  0
 20 18  1  0  0  0  0
 21 30  1  0  0  0  0
 22 30  1  1  0  0  0
 22 28  1  0  0  0  0
 24 27  1  0  0  0  0
 24 29  1  1  0  0  0
 25 20  1  1  0  0  0
 26 21  1  0  0  0  0
 27 26  1  6  0  0  0
 27 22  1  0  0  0  0
 28 25  1  0  0  0  0
 28 23  1  6  0  0  0
 29 25  1  0  0  0  0
 31 34  1  6  0  0  0
 31 35  1  0  0  0  0
 31 32  1  0  0  0  0
 31 33  1  0  0  0  0
 33 32  1  1  0  0  0
 33 24  1  0  0  0  0
 36 42  1  6  0  0  0
 36 37  1  0  0  0  0
 37 38  1  0  0  0  0
 38 40  1  0  0  0  0
 40 39  1  0  0  0  0
 41 40  1  0  0  0  0
 43 42  1  0  0  0  0
 44 43  1  0  0  0  0
 45 44  1  0  0  0  0
 46 45  1  0  0  0  0
 47 46  1  1  0  0  0
 48 49  1  0  0  0  0
 49 47  1  0  0  0  0
 50 51  1  1  0  0  0
 50 47  1  0  0  0  0
 50 53  1  0  0  0  0
 53 52  1  1  0  0  0
 54 53  1  0  0  0  0
 55 54  2  0  0  0  0
 56 59  2  0  0  0  0
 59 58  1  0  0  0  0
 59 57  1  0  0  0  0
 59 55  1  0  0  0  0
M  END
>  <MODEL>
9

>  <REMARK>
 VINA RESULT:      -5.8      3.375      5.367
  Name = 
  22 active torsions:
  status: ('A' for Active; 'I' for Inactive)
    1  A    between atoms: C_1  and  C_34
    2  A    between atoms: C_3  and  C_33
    3  A    between atoms: C_3  and  C_41
    4  A    between atoms: C_3  and  O_54
    5  A    between atoms: C_4  and  C_8
    6  A    between atoms: C_4  and  N_47
    7  A    between atoms: N_9  and  C_16
    8  A    between atoms: C_12  and  C_16
    9  A    between atoms: C_12  and  S_59
   10  A    between atoms: C_14  and  C_33
   11  A    between atoms: C_14  and  C_49
   12  A    between atoms: C_16  and  N_47
   13  A    between atoms: N_19  and  C_35
   14  A    between atoms: N_19  and  C_48
   15  A    between atoms: C_23  and  N_26
   16  A    between atoms: C_27  and  C_29
   17  A    between atoms: C_29  and  C_56
   18  A    between atoms: C_31  and  C_40
   19  A    between atoms: C_31  and  C_41
   20  A    between atoms: C_34  and  C_56
   21  A    between atoms: N_44  and  P_45
   22  A    between atoms: C_49  and  S_59
                            x       y       z     vdW  Elec       q    Type
                         _______ _______ _______ _____ _____    ______ ____

>  <TORSDO>
F 22

$$$$
