=
 OpenBabel11042419593D

 41 44  0  0  1  0  0  0  0  0999 V2000
  192.0710  177.3630  143.6430 C   0  0  0  0  0  3  0  0  0  0  0  0
  190.7490  175.4240  142.0590 C   0  0  0  0  0  0  0  0  0  0  0  0
  190.7510  177.5690  143.2020 C   0  0  0  0  0  3  0  0  0  0  0  0
  194.1160  175.8890  143.7250 C   0  0  0  0  0  0  0  0  0  0  0  0
  190.0880  176.6250  142.3950 C   0  0  0  0  0  0  0  0  0  0  0  0
  190.1380  174.3470  141.3410 C   0  0  0  0  0  3  0  0  0  0  0  0
  190.8550  173.1450  141.0650 C   0  0  0  0  0  3  0  0  0  0  0  0
  192.0770  175.2610  142.5050 C   0  0  0  0  0  0  0  0  0  0  0  0
  192.1740  173.0750  141.5250 C   0  0  0  0  0  0  0  0  0  0  0  0
  194.1750  172.4900  142.1390 N   0  0  0  0  0  0  0  0  0  0  0  0
  192.7690  176.1990  143.2940 C   0  0  0  0  0  0  0  0  0  0  0  0
  194.7060  174.6320  143.3690 C   0  0  2  0  0  3  0  0  0  0  0  0
  193.0800  172.0710  141.4840 N   0  0  0  0  0  0  0  0  0  0  0  0
  193.9380  173.7510  142.5820 C   0  0  0  0  0  0  0  0  0  0  0  0
  192.7120  174.1020  142.1930 C   0  0  0  0  0  0  0  0  0  0  0  0
  187.5710  176.3900  142.6470 C   0  0  0  0  0  0  0  0  0  0  0  0
  187.6690  175.4220  143.4500 O   0  0  0  0  0  0  0  0  0  0  0  0
  188.7380  176.8980  141.9960 N   0  0  0  0  0  2  0  0  0  0  0  0
  184.1370  177.9710  142.5710 C   0  0  0  0  0  1  0  0  0  0  0  0
  186.2960  176.9690  142.3310 N   0  0  0  0  0  0  0  0  0  0  0  0
  185.3910  177.4100  143.1580 C   0  0  0  0  0  0  0  0  0  0  0  0
  185.5940  177.3750  144.6500 C   0  0  0  0  0  2  0  0  0  0  0  0
  186.1550  178.6710  145.2230 C   0  0  0  0  0  2  0  0  0  0  0  0
  185.3450  179.1130  146.4330 C   0  0  1  0  0  3  0  0  0  0  0  0
  183.9220  178.5830  146.3460 C   0  0  0  0  0  1  0  0  0  0  0  0
  187.0240  179.4020  148.3120 N   0  0  0  0  0  1  0  0  0  0  0  0
  185.9950  178.6370  147.6900 C   0  0  0  0  0  0  0  0  0  0  0  0
  185.6240  177.5530  148.2100 O   0  0  0  0  0  0  0  0  0  0  0  0
  196.2730  173.5070  144.9400 C   0  0  0  0  0  1  0  0  0  0  0  0
  195.9990  174.3290  143.8140 O   0  0  0  0  0  0  0  0  0  0  0  0
  194.8990  176.7560  144.5050 O   0  0  0  0  0  0  0  0  0  0  0  0
  194.5680  177.2100  145.8080 C   0  0  0  0  0  2  0  0  0  0  0  0
  194.1080  176.0370  146.6450 C   0  0  0  0  0  2  0  0  0  0  0  0
  192.6610  176.2370  147.0460 C   0  0  0  0  0  2  0  0  0  0  0  0
  191.8760  174.9700  146.7380 C   0  0  0  0  0  2  0  0  0  0  0  0
  190.5590  175.2540  146.0110 C   0  0  2  0  0  3  0  0  0  0  0  0
  189.7480  176.3120  146.7460 C   0  0  0  0  0  2  0  0  0  0  0  0
  188.2920  175.8960  146.8390 C   0  0  0  0  0  1  0  0  0  0  0  0
  189.7430  173.9800  145.7880 C   0  0  0  0  0  2  0  0  0  0  0  0
  190.4860  173.0030  144.8880 C   0  0  0  0  0  2  0  0  0  0  0  0
  189.5240  172.0030  144.2700 C   0  0  0  0  0  1  0  0  0  0  0  0
  2  5  2  0  0  0  0
  2  8  1  0  0  0  0
  3  1  2  0  0  0  0
  4 31  1  0  0  0  0
  5  3  1  0  0  0  0
  6  2  1  0  0  0  0
  7  6  2  0  0  0  0
  7  9  1  0  0  0  0
  8 11  1  0  0  0  0
  9 15  1  0  0  0  0
 10 14  2  0  0  0  0
 11  1  1  0  0  0  0
 11  4  2  0  0  0  0
 12  4  1  0  0  0  0
 12 30  1  1  0  0  0
 13  9  2  0  0  0  0
 13 10  1  0  0  0  0
 14 12  1  0  0  0  0
 15  8  2  0  0  0  0
 15 14  1  0  0  0  0
 16 17  2  0  0  0  0
 18  5  1  0  0  0  0
 18 16  1  0  0  0  0
 19 21  1  0  0  0  0
 20 16  1  0  0  0  0
 20 21  2  0  0  0  0
 21 22  1  0  0  0  0
 22 23  1  0  0  0  0
 23 24  1  0  0  0  0
 24 25  1  6  0  0  0
 24 27  1  0  0  0  0
 27 28  2  0  0  0  0
 27 26  1  0  0  0  0
 30 29  1  0  0  0  0
 31 32  1  0  0  0  0
 32 33  1  0  0  0  0
 33 34  1  0  0  0  0
 35 34  1  0  0  0  0
 36 39  1  1  0  0  0
 36 35  1  0  0  0  0
 36 37  1  0  0  0  0
 37 38  1  0  0  0  0
 40 39  1  0  0  0  0
 41 40  1  0  0  0  0
M  END
>  <MODEL>
1

>  <REMARK>
 VINA RESULT:      -6.4      0.000      0.000
  Name = 
  16 active torsions:
  status: ('A' for Active; 'I' for Inactive)
    1  A    between atoms: C_4  and  C_25
    2  A    between atoms: C_4  and  C_41
    3  A    between atoms: C_5  and  C_36
    4  A    between atoms: C_7  and  C_27
    5  A    between atoms: C_8  and  C_15
    6  A    between atoms: C_8  and  C_40
    7  A    between atoms: C_9  and  C_27
    8  A    between atoms: C_9  and  C_41
    9  A    between atoms: C_12  and  O_17
   10  A    between atoms: C_13  and  N_29
   11  A    between atoms: C_15  and  C_23
   12  A    between atoms: C_16  and  N_24
   13  A    between atoms: O_17  and  C_25
   14  A    between atoms: C_27  and  C_36
   15  A    between atoms: O_28  and  C_32
   16  A    between atoms: C_33  and  C_40
                            x       y       z     vdW  Elec       q    Type
                         _______ _______ _______ _____ _____    ______ ____

>  <TORSDO>
F 16

$$$$
=
 OpenBabel11042419593D

 41 44  0  0  1  0  0  0  0  0999 V2000
  192.0860  176.9190  143.1660 C   0  0  0  0  0  3  0  0  0  0  0  0
  190.2490  175.0640  142.0720 C   0  0  0  0  0  0  0  0  0  0  0  0
  190.7020  177.1710  143.1960 C   0  0  0  0  0  3  0  0  0  0  0  0
  193.9920  175.3960  142.5280 C   0  0  0  0  0  0  0  0  0  0  0  0
  189.7780  176.2700  142.6360 C   0  0  0  0  0  0  0  0  0  0  0  0
  189.3980  174.0260  141.5770 C   0  0  0  0  0  3  0  0  0  0  0  0
  189.9420  172.8160  141.0510 C   0  0  0  0  0  3  0  0  0  0  0  0
  191.6430  174.8560  142.0460 C   0  0  1  0  0  3  0  0  0  0  0  0
  191.3360  172.7000  141.0410 C   0  0  0  0  0  0  0  0  0  0  0  0
  193.4060  172.0480  140.9390 N   0  0  0  0  0  0  0  0  0  0  0  0
  192.5900  175.7510  142.5780 C   0  0  0  0  0  0  0  0  0  0  0  0
  194.3870  174.1360  141.9680 C   0  0  0  0  0  0  0  0  0  0  0  0
  192.1420  171.6770  140.6780 N   0  0  0  0  0  0  0  0  0  0  0  0
  193.3720  173.2990  141.4630 C   0  0  0  0  0  0  0  0  0  0  0  0
  192.0990  173.6920  141.5140 C   0  0  0  0  0  0  0  0  0  0  0  0
  187.7190  177.5800  141.9300 C   0  0  0  0  0  0  0  0  0  0  0  0
  188.3940  178.4490  141.3120 O   0  0  0  0  0  0  0  0  0  0  0  0
  188.3820  176.5880  142.7170 N   0  0  0  0  0  2  0  0  0  0  0  0
  184.0080  178.0840  142.4500 C   0  0  0  0  0  1  0  0  0  0  0  0
  186.2830  177.5940  141.9010 N   0  0  0  0  0  0  0  0  0  0  0  0
  185.4740  178.2380  142.6920 C   0  0  0  0  0  0  0  0  0  0  0  0
  185.9830  179.1200  143.8020 C   0  0  0  0  0  2  0  0  0  0  0  0
  186.3600  178.3580  145.0670 C   0  0  0  0  0  2  0  0  0  0  0  0
  185.6180  178.9220  146.2700 C   0  0  1  0  0  3  0  0  0  0  0  0
  184.1350  178.5960  146.1830 C   0  0  0  0  0  1  0  0  0  0  0  0
  186.8870  179.2200  148.4460 N   0  0  0  0  0  1  0  0  0  0  0  0
  186.1920  178.3730  147.5330 C   0  0  0  0  0  0  0  0  0  0  0  0
  186.0540  177.1500  147.7990 O   0  0  0  0  0  0  0  0  0  0  0  0
  196.5740  173.9150  140.8030 C   0  0  0  0  0  1  0  0  0  0  0  0
  195.7440  173.7890  141.9490 O   0  0  0  0  0  0  0  0  0  0  0  0
  195.0180  176.2180  143.0210 O   0  0  0  0  0  0  0  0  0  0  0  0
  195.5650  176.1510  144.3290 C   0  0  0  0  0  2  0  0  0  0  0  0
  195.1010  177.3500  145.1250 C   0  0  0  0  0  2  0  0  0  0  0  0
  194.1260  176.9020  146.1950 C   0  0  0  0  0  2  0  0  0  0  0  0
  194.2160  175.3910  146.3530 C   0  0  0  0  0  2  0  0  0  0  0  0
  192.8450  174.7330  146.5250 C   0  0  2  0  0  3  0  0  0  0  0  0
  192.5820  173.7240  145.4160 C   0  0  0  0  0  2  0  0  0  0  0  0
  193.7430  172.7550  145.2920 C   0  0  0  0  0  1  0  0  0  0  0  0
  191.7220  175.7670  146.6170 C   0  0  0  0  0  2  0  0  0  0  0  0
  190.7630  175.4350  147.7520 C   0  0  0  0  0  2  0  0  0  0  0  0
  189.4570  174.8820  147.2080 C   0  0  0  0  0  1  0  0  0  0  0  0
  1  3  1  0  0  0  0
  2  5  1  0  0  0  0
  4 11  1  0  0  0  0
  4 31  1  0  0  0  0
  5 18  1  0  0  0  0
  5  3  2  0  0  0  0
  6  2  2  0  0  0  0
  7  6  1  0  0  0  0
  8 15  1  1  0  0  0
  8  2  1  0  0  0  0
  8 11  1  0  0  0  0
  9  7  2  0  0  0  0
  9 15  1  0  0  0  0
 10 14  1  0  0  0  0
 11  1  2  0  0  0  0
 12  4  2  0  0  0  0
 13 10  2  0  0  0  0
 13  9  1  0  0  0  0
 14 15  2  0  0  0  0
 14 12  1  0  0  0  0
 16 18  1  0  0  0  0
 17 16  2  0  0  0  0
 19 21  1  0  0  0  0
 20 16  1  0  0  0  0
 20 21  2  0  0  0  0
 21 22  1  0  0  0  0
 22 23  1  0  0  0  0
 23 24  1  0  0  0  0
 24 25  1  6  0  0  0
 24 27  1  0  0  0  0
 27 28  2  0  0  0  0
 27 26  1  0  0  0  0
 29 30  1  0  0  0  0
 30 12  1  0  0  0  0
 31 32  1  0  0  0  0
 32 33  1  0  0  0  0
 33 34  1  0  0  0  0
 34 35  1  0  0  0  0
 35 36  1  0  0  0  0
 36 37  1  6  0  0  0
 36 39  1  0  0  0  0
 38 37  1  0  0  0  0
 39 40  1  0  0  0  0
 41 40  1  0  0  0  0
M  END
>  <MODEL>
2

>  <REMARK>
 VINA RESULT:      -6.3      1.359      2.123
  Name = 
  16 active torsions:
  status: ('A' for Active; 'I' for Inactive)
    1  A    between atoms: C_4  and  C_25
    2  A    between atoms: C_4  and  C_41
    3  A    between atoms: C_5  and  C_36
    4  A    between atoms: C_7  and  C_27
    5  A    between atoms: C_8  and  C_15
    6  A    between atoms: C_8  and  C_40
    7  A    between atoms: C_9  and  C_27
    8  A    between atoms: C_9  and  C_41
    9  A    between atoms: C_12  and  O_17
   10  A    between atoms: C_13  and  N_29
   11  A    between atoms: C_15  and  C_23
   12  A    between atoms: C_16  and  N_24
   13  A    between atoms: O_17  and  C_25
   14  A    between atoms: C_27  and  C_36
   15  A    between atoms: O_28  and  C_32
   16  A    between atoms: C_33  and  C_40
                            x       y       z     vdW  Elec       q    Type
                         _______ _______ _______ _____ _____    ______ ____

>  <TORSDO>
F 16

$$$$
=
 OpenBabel11042419593D

 41 44  0  0  1  0  0  0  0  0999 V2000
  192.1220  176.7340  143.4110 C   0  0  0  0  0  3  0  0  0  0  0  0
  189.4990  175.7560  142.9830 C   0  0  0  0  0  0  0  0  0  0  0  0
  191.0260  177.2770  144.1070 C   0  0  0  0  0  3  0  0  0  0  0  0
  193.0070  175.0700  141.7360 C   0  0  0  0  0  0  0  0  0  0  0  0
  189.7140  176.8180  143.8890 C   0  0  0  0  0  0  0  0  0  0  0  0
  188.2290  175.1350  142.7650 C   0  0  0  0  0  3  0  0  0  0  0  0
  188.0910  174.0410  141.8580 C   0  0  0  0  0  3  0  0  0  0  0  0
  190.6200  175.2500  142.2920 C   0  0  0  0  0  0  0  0  0  0  0  0
  189.2480  173.6160  141.1970 C   0  0  0  0  0  0  0  0  0  0  0  0
  190.7720  172.5650  140.0600 N   0  0  0  0  0  0  0  0  0  0  0  0
  191.9380  175.7070  142.4750 C   0  0  0  0  0  0  0  0  0  0  0  0
  192.7100  173.9750  140.8590 C   0  0  0  0  0  0  0  0  0  0  0  0
  189.4600  172.5870  140.3450 N   0  0  0  0  0  0  0  0  0  0  0  0
  191.3630  173.5800  140.7400 C   0  0  0  0  0  0  0  0  0  0  0  0
  190.4180  174.2220  141.4280 C   0  0  2  0  0  3  0  0  0  0  0  0
  188.1210  176.8850  145.8670 C   0  0  0  0  0  0  0  0  0  0  0  0
  188.3700  175.6940  146.2010 O   0  0  0  0  0  0  0  0  0  0  0  0
  188.6500  177.4100  144.6460 N   0  0  0  0  0  2  0  0  0  0  0  0
  185.3550  178.9280  147.4400 C   0  0  0  0  0  1  0  0  0  0  0  0
  187.2690  177.7210  146.6660 N   0  0  0  0  0  0  0  0  0  0  0  0
  186.0230  178.0330  146.4490 C   0  0  0  0  0  0  0  0  0  0  0  0
  185.2690  177.5070  145.2550 C   0  0  0  0  0  2  0  0  0  0  0  0
  185.2140  178.4830  144.0860 C   0  0  0  0  0  2  0  0  0  0  0  0
  184.8310  177.7570  142.8040 C   0  0  1  0  0  3  0  0  0  0  0  0
  183.5030  178.2740  142.2740 C   0  0  0  0  0  1  0  0  0  0  0  0
  187.0920  178.6480  142.0800 N   0  0  0  0  0  1  0  0  0  0  0  0
  185.8990  177.9310  141.7750 C   0  0  0  0  0  0  0  0  0  0  0  0
  185.7460  177.4320  140.6300 O   0  0  0  0  0  0  0  0  0  0  0  0
  193.9960  173.5160  138.7790 C   0  0  0  0  0  1  0  0  0  0  0  0
  193.7550  173.3460  140.1680 O   0  0  0  0  0  0  0  0  0  0  0  0
  194.3540  175.4520  141.8360 O   0  0  0  0  0  0  0  0  0  0  0  0
  195.3050  174.8800  142.7220 C   0  0  0  0  0  2  0  0  0  0  0  0
  195.7950  175.9420  143.6810 C   0  0  0  0  0  2  0  0  0  0  0  0
  195.1710  175.7220  145.0440 C   0  0  0  0  0  2  0  0  0  0  0  0
  194.7140  174.2760  145.1580 C   0  0  0  0  0  2  0  0  0  0  0  0
  193.4450  174.1220  146.0000 C   0  0  2  0  0  3  0  0  0  0  0  0
  192.3110  173.5290  145.1770 C   0  0  0  0  0  2  0  0  0  0  0  0
  192.8180  172.3800  144.3250 C   0  0  0  0  0  1  0  0  0  0  0  0
  193.0300  175.4410  146.6540 C   0  0  0  0  0  2  0  0  0  0  0  0
  191.6670  175.3180  147.3210 C   0  0  0  0  0  2  0  0  0  0  0  0
  191.2510  176.6380  147.9450 C   0  0  0  0  0  1  0  0  0  0  0  0
  1  3  1  0  0  0  0
  2  5  1  0  0  0  0
  4 31  1  0  0  0  0
  4 11  1  0  0  0  0
  5  3  2  0  0  0  0
  5 18  1  0  0  0  0
  6  2  1  0  0  0  0
  7  6  2  0  0  0  0
  8 11  1  0  0  0  0
  8  2  2  0  0  0  0
  9 15  1  0  0  0  0
  9  7  1  0  0  0  0
 10 13  1  0  0  0  0
 10 14  2  0  0  0  0
 11  1  2  0  0  0  0
 12  4  2  0  0  0  0
 13  9  2  0  0  0  0
 14 12  1  0  0  0  0
 15 14  1  1  0  0  0
 15  8  1  0  0  0  0
 16 17  2  0  0  0  0
 16 20  1  0  0  0  0
 18 16  1  0  0  0  0
 21 20  2  0  0  0  0
 21 19  1  0  0  0  0
 22 21  1  0  0  0  0
 23 22  1  0  0  0  0
 24 25  1  6  0  0  0
 24 23  1  0  0  0  0
 27 26  1  0  0  0  0
 27 24  1  0  0  0  0
 28 27  2  0  0  0  0
 29 30  1  0  0  0  0
 30 12  1  0  0  0  0
 31 32  1  0  0  0  0
 32 33  1  0  0  0  0
 33 34  1  0  0  0  0
 34 35  1  0  0  0  0
 36 35  1  6  0  0  0
 36 39  1  0  0  0  0
 37 36  1  0  0  0  0
 38 37  1  0  0  0  0
 39 40  1  0  0  0  0
 40 41  1  0  0  0  0
M  END
>  <MODEL>
3

>  <REMARK>
 VINA RESULT:      -6.3      1.943      3.823
  Name = 
  16 active torsions:
  status: ('A' for Active; 'I' for Inactive)
    1  A    between atoms: C_4  and  C_25
    2  A    between atoms: C_4  and  C_41
    3  A    between atoms: C_5  and  C_36
    4  A    between atoms: C_7  and  C_27
    5  A    between atoms: C_8  and  C_15
    6  A    between atoms: C_8  and  C_40
    7  A    between atoms: C_9  and  C_27
    8  A    between atoms: C_9  and  C_41
    9  A    between atoms: C_12  and  O_17
   10  A    between atoms: C_13  and  N_29
   11  A    between atoms: C_15  and  C_23
   12  A    between atoms: C_16  and  N_24
   13  A    between atoms: O_17  and  C_25
   14  A    between atoms: C_27  and  C_36
   15  A    between atoms: O_28  and  C_32
   16  A    between atoms: C_33  and  C_40
                            x       y       z     vdW  Elec       q    Type
                         _______ _______ _______ _____ _____    ______ ____

>  <TORSDO>
F 16

$$$$
=
 OpenBabel11042419593D

 41 44  0  0  1  0  0  0  0  0999 V2000
  190.4580  172.8900  144.9990 C   0  0  0  0  0  3  0  0  0  0  0  0
  191.5980  175.1530  146.2600 C   0  0  0  0  0  0  0  0  0  0  0  0
  189.6460  173.8450  145.6370 C   0  0  0  0  0  3  0  0  0  0  0  0
  192.7620  172.1120  144.3320 C   0  0  0  0  0  0  0  0  0  0  0  0
  190.1990  174.9640  146.2880 C   0  0  0  0  0  0  0  0  0  0  0  0
  192.2600  176.3070  146.7890 C   0  0  0  0  0  3  0  0  0  0  0  0
  193.6760  176.4500  146.6950 C   0  0  0  0  0  3  0  0  0  0  0  0
  192.3790  174.1650  145.6260 C   0  0  0  0  0  0  0  0  0  0  0  0
  194.3780  175.4130  146.0690 C   0  0  0  0  0  0  0  0  0  0  0  0
  195.8330  174.1280  145.0930 N   0  0  0  0  0  0  0  0  0  0  0  0
  191.8520  173.0270  144.9870 C   0  0  0  0  0  0  0  0  0  0  0  0
  194.1680  172.3920  144.3190 C   0  0  0  0  0  0  0  0  0  0  0  0
  195.6900  175.2790  145.7700 N   0  0  0  0  0  2  0  0  0  0  0  0
  194.6060  173.5580  144.9790 C   0  0  0  0  0  0  0  0  0  0  0  0
  193.7230  174.3500  145.5870 C   0  0  0  0  0  0  0  0  0  0  0  0
  188.7160  177.0260  146.2470 C   0  0  0  0  0  0  0  0  0  0  0  0
  189.1800  177.4280  145.1450 O   0  0  0  0  0  0  0  0  0  0  0  0
  189.3070  175.9030  146.9040 N   0  0  0  0  0  2  0  0  0  0  0  0
  185.4580  178.6240  147.3100 C   0  0  0  0  0  1  0  0  0  0  0  0
  187.6260  177.7080  146.8880 N   0  0  0  0  0  0  0  0  0  0  0  0
  186.4130  177.8700  146.4430 C   0  0  0  0  0  0  0  0  0  0  0  0
  185.9720  177.3120  145.1150 C   0  0  0  0  0  2  0  0  0  0  0  0
  185.7980  178.3710  144.0320 C   0  0  0  0  0  2  0  0  0  0  0  0
  185.1530  177.7650  142.7940 C   0  0  1  0  0  3  0  0  0  0  0  0
  183.7370  178.2910  142.6180 C   0  0  0  0  0  1  0  0  0  0  0  0
  187.3730  178.3050  141.6940 N   0  0  0  0  0  1  0  0  0  0  0  0
  185.9710  178.0740  141.5850 C   0  0  0  0  0  0  0  0  0  0  0  0
  185.4180  178.1220  140.4550 O   0  0  0  0  0  0  0  0  0  0  0  0
  195.4860  171.7060  142.3240 C   0  0  0  0  0  1  0  0  0  0  0  0
  195.0380  171.5150  143.6580 O   0  0  0  0  0  0  0  0  0  0  0  0
  192.3460  170.9430  143.6740 O   0  0  0  0  0  0  0  0  0  0  0  0
  191.4180  170.8920  142.6010 C   0  0  0  0  0  2  0  0  0  0  0  0
  191.9200  171.7550  141.4650 C   0  0  0  0  0  2  0  0  0  0  0  0
  190.7500  172.2000  140.6110 C   0  0  0  0  0  2  0  0  0  0  0  0
  190.6920  173.7200  140.5950 C   0  0  0  0  0  2  0  0  0  0  0  0
  189.8330  174.2900  141.7270 C   0  0  2  0  0  3  0  0  0  0  0  0
  188.4340  174.6290  141.2320 C   0  0  0  0  0  2  0  0  0  0  0  0
  187.4960  174.8540  142.4030 C   0  0  0  0  0  1  0  0  0  0  0  0
  190.4960  175.4940  142.3970 C   0  0  0  0  0  2  0  0  0  0  0  0
  192.0110  175.4280  142.2710 C   0  0  0  0  0  2  0  0  0  0  0  0
  192.6590  176.6390  142.9190 C   0  0  0  0  0  1  0  0  0  0  0  0
  1  3  1  0  0  0  0
  2  5  1  0  0  0  0
  2  6  1  0  0  0  0
  3  5  2  0  0  0  0
  4 11  1  0  0  0  0
  5 18  1  0  0  0  0
  7  6  2  0  0  0  0
  8  2  2  0  0  0  0
  9  7  1  0  0  0  0
 10 13  1  0  0  0  0
 11  1  2  0  0  0  0
 11  8  1  0  0  0  0
 12  4  2  0  0  0  0
 12 14  1  0  0  0  0
 13  9  1  0  0  0  0
 14 10  2  0  0  0  0
 14 15  1  0  0  0  0
 15  8  1  0  0  0  0
 15  9  2  0  0  0  0
 16 20  1  0  0  0  0
 16 18  1  0  0  0  0
 17 16  2  0  0  0  0
 21 20  2  0  0  0  0
 21 19  1  0  0  0  0
 22 21  1  0  0  0  0
 23 22  1  0  0  0  0
 24 25  1  6  0  0  0
 24 23  1  0  0  0  0
 27 26  1  0  0  0  0
 27 24  1  0  0  0  0
 28 27  2  0  0  0  0
 29 30  1  0  0  0  0
 30 12  1  0  0  0  0
 31  4  1  0  0  0  0
 32 31  1  0  0  0  0
 33 32  1  0  0  0  0
 34 33  1  0  0  0  0
 35 34  1  0  0  0  0
 36 35  1  6  0  0  0
 36 39  1  0  0  0  0
 37 36  1  0  0  0  0
 37 38  1  0  0  0  0
 40 39  1  0  0  0  0
 40 41  1  0  0  0  0
M  END
>  <MODEL>
4

>  <REMARK>
 VINA RESULT:      -6.2      2.135      4.969
  Name = 
  16 active torsions:
  status: ('A' for Active; 'I' for Inactive)
    1  A    between atoms: C_4  and  C_25
    2  A    between atoms: C_4  and  C_41
    3  A    between atoms: C_5  and  C_36
    4  A    between atoms: C_7  and  C_27
    5  A    between atoms: C_8  and  C_15
    6  A    between atoms: C_8  and  C_40
    7  A    between atoms: C_9  and  C_27
    8  A    between atoms: C_9  and  C_41
    9  A    between atoms: C_12  and  O_17
   10  A    between atoms: C_13  and  N_29
   11  A    between atoms: C_15  and  C_23
   12  A    between atoms: C_16  and  N_24
   13  A    between atoms: O_17  and  C_25
   14  A    between atoms: C_27  and  C_36
   15  A    between atoms: O_28  and  C_32
   16  A    between atoms: C_33  and  C_40
                            x       y       z     vdW  Elec       q    Type
                         _______ _______ _______ _____ _____    ______ ____

>  <TORSDO>
F 16

$$$$
=
 OpenBabel11042419593D

 41 44  0  0  1  0  0  0  0  0999 V2000
  190.2360  173.6380  144.0080 C   0  0  0  0  0  3  0  0  0  0  0  0
  188.9320  173.5430  141.4960 C   0  0  0  0  0  0  0  0  0  0  0  0
  189.1120  174.4430  143.7470 C   0  0  0  0  0  3  0  0  0  0  0  0
  191.8780  171.8980  143.2110 C   0  0  0  0  0  0  0  0  0  0  0  0
  188.4670  174.4250  142.4960 C   0  0  0  0  0  0  0  0  0  0  0  0
  188.2900  173.3570  140.2310 C   0  0  0  0  0  3  0  0  0  0  0  0
  188.7960  172.4220  139.2790 C   0  0  0  0  0  3  0  0  0  0  0  0
  190.0710  172.7650  141.7890 C   0  0  1  0  0  3  0  0  0  0  0  0
  189.9430  171.7070  139.6410 C   0  0  0  0  0  0  0  0  0  0  0  0
  191.6040  170.3180  139.8200 N   0  0  0  0  0  0  0  0  0  0  0  0
  190.7480  172.7820  143.0240 C   0  0  0  0  0  0  0  0  0  0  0  0
  192.2690  171.0090  142.1570 C   0  0  0  0  0  0  0  0  0  0  0  0
  190.6170  170.7230  139.0040 N   0  0  0  0  0  0  0  0  0  0  0  0
  191.5320  171.0550  140.9570 C   0  0  0  0  0  0  0  0  0  0  0  0
  190.5150  171.9080  140.8330 C   0  0  0  0  0  0  0  0  0  0  0  0
  187.3280  176.5360  141.6590 C   0  0  0  0  0  0  0  0  0  0  0  0
  188.4210  177.1360  141.4650 O   0  0  0  0  0  0  0  0  0  0  0  0
  187.3180  175.2620  142.3090 N   0  0  0  0  0  2  0  0  0  0  0  0
  184.0760  178.4400  141.3480 C   0  0  0  0  0  1  0  0  0  0  0  0
  186.0760  177.1300  141.2820 N   0  0  0  0  0  0  0  0  0  0  0  0
  185.3500  177.9660  141.9680 C   0  0  0  0  0  0  0  0  0  0  0  0
  185.7730  178.4560  143.3280 C   0  0  0  0  0  2  0  0  0  0  0  0
  185.1970  177.6420  144.4810 C   0  0  0  0  0  2  0  0  0  0  0  0
  186.3050  177.1910  145.4200 C   0  0  1  0  0  3  0  0  0  0  0  0
  187.6440  177.7620  144.9800 C   0  0  0  0  0  1  0  0  0  0  0  0
  185.5140  178.9290  147.0900 N   0  0  0  0  0  1  0  0  0  0  0  0
  186.0000  177.6160  146.8180 C   0  0  0  0  0  0  0  0  0  0  0  0
  186.1640  176.8040  147.7650 O   0  0  0  0  0  0  0  0  0  0  0  0
  193.2010  168.7740  142.7290 C   0  0  0  0  0  1  0  0  0  0  0  0
  193.3480  170.1370  142.3580 O   0  0  0  0  0  0  0  0  0  0  0  0
  192.6290  171.8410  144.3970 O   0  0  0  0  0  0  0  0  0  0  0  0
  193.9240  172.3940  144.5750 C   0  0  0  0  0  2  0  0  0  0  0  0
  193.8070  173.8910  144.7530 C   0  0  0  0  0  2  0  0  0  0  0  0
  193.2480  174.1970  146.1270 C   0  0  0  0  0  2  0  0  0  0  0  0
  193.3410  175.6940  146.3830 C   0  0  0  0  0  2  0  0  0  0  0  0
  192.0050  176.3020  146.8170 C   0  0  2  0  0  3  0  0  0  0  0  0
  191.1980  175.3120  147.6440 C   0  0  0  0  0  2  0  0  0  0  0  0
  189.7340  175.3540  147.2450 C   0  0  0  0  0  1  0  0  0  0  0  0
  191.1990  176.8230  145.6260 C   0  0  0  0  0  2  0  0  0  0  0  0
  192.1150  177.2470  144.4870 C   0  0  0  0  0  2  0  0  0  0  0  0
  191.3340  177.3890  143.1920 C   0  0  0  0  0  1  0  0  0  0  0  0
  2  8  1  0  0  0  0
  2  5  1  0  0  0  0
  3  1  1  0  0  0  0
  4 31  1  0  0  0  0
  5  3  2  0  0  0  0
  6  2  2  0  0  0  0
  7  9  2  0  0  0  0
  7  6  1  0  0  0  0
  8 15  1  1  0  0  0
  8 11  1  0  0  0  0
  9 15  1  0  0  0  0
 10 14  1  0  0  0  0
 11  4  1  0  0  0  0
 11  1  2  0  0  0  0
 12 30  1  0  0  0  0
 12  4  2  0  0  0  0
 13  9  1  0  0  0  0
 13 10  2  0  0  0  0
 14 12  1  0  0  0  0
 15 14  2  0  0  0  0
 16 18  1  0  0  0  0
 17 16  2  0  0  0  0
 18  5  1  0  0  0  0
 19 21  1  0  0  0  0
 20 16  1  0  0  0  0
 20 21  2  0  0  0  0
 21 22  1  0  0  0  0
 22 23  1  0  0  0  0
 23 24  1  0  0  0  0
 24 25  1  6  0  0  0
 24 27  1  0  0  0  0
 27 26  1  0  0  0  0
 27 28  2  0  0  0  0
 30 29  1  0  0  0  0
 31 32  1  0  0  0  0
 32 33  1  0  0  0  0
 33 34  1  0  0  0  0
 34 35  1  0  0  0  0
 35 36  1  0  0  0  0
 36 39  1  6  0  0  0
 36 37  1  0  0  0  0
 38 37  1  0  0  0  0
 40 39  1  0  0  0  0
 41 40  1  0  0  0  0
M  END
>  <MODEL>
5

>  <REMARK>
 VINA RESULT:      -6.0      2.144      3.336
  Name = 
  16 active torsions:
  status: ('A' for Active; 'I' for Inactive)
    1  A    between atoms: C_4  and  C_25
    2  A    between atoms: C_4  and  C_41
    3  A    between atoms: C_5  and  C_36
    4  A    between atoms: C_7  and  C_27
    5  A    between atoms: C_8  and  C_15
    6  A    between atoms: C_8  and  C_40
    7  A    between atoms: C_9  and  C_27
    8  A    between atoms: C_9  and  C_41
    9  A    between atoms: C_12  and  O_17
   10  A    between atoms: C_13  and  N_29
   11  A    between atoms: C_15  and  C_23
   12  A    between atoms: C_16  and  N_24
   13  A    between atoms: O_17  and  C_25
   14  A    between atoms: C_27  and  C_36
   15  A    between atoms: O_28  and  C_32
   16  A    between atoms: C_33  and  C_40
                            x       y       z     vdW  Elec       q    Type
                         _______ _______ _______ _____ _____    ______ ____

>  <TORSDO>
F 16

$$$$
=
 OpenBabel11042419593D

 41 44  0  0  1  0  0  0  0  0999 V2000
  191.4900  172.9670  144.4120 C   0  0  0  0  0  3  0  0  0  0  0  0
  189.3330  174.5910  143.5610 C   0  0  0  0  0  0  0  0  0  0  0  0
  190.7300  173.7010  145.3400 C   0  0  0  0  0  3  0  0  0  0  0  0
  191.9170  172.2940  142.0190 C   0  0  0  0  0  0  0  0  0  0  0  0
  189.6690  174.5310  144.9310 C   0  0  0  0  0  0  0  0  0  0  0  0
  188.2090  175.3090  143.0440 C   0  0  0  0  0  3  0  0  0  0  0  0
  187.9070  175.2980  141.6490 C   0  0  0  0  0  3  0  0  0  0  0  0
  190.1290  173.8540  142.6600 C   0  0  0  0  0  0  0  0  0  0  0  0
  188.7600  174.5600  140.8220 C   0  0  0  0  0  0  0  0  0  0  0  0
  189.7270  173.4710  139.2090 N   0  0  0  0  0  0  0  0  0  0  0  0
  191.2090  173.0350  143.0410 C   0  0  0  0  0  0  0  0  0  0  0  0
  191.4920  172.3830  140.6530 C   0  0  0  0  0  0  0  0  0  0  0  0
  188.7100  174.3010  139.4950 N   0  0  0  0  0  0  0  0  0  0  0  0
  190.3980  173.2230  140.3620 C   0  0  0  0  0  0  0  0  0  0  0  0
  189.8010  173.9010  141.3430 C   0  0  2  0  0  3  0  0  0  0  0  0
  189.1050  176.6180  146.2660 C   0  0  0  0  0  0  0  0  0  0  0  0
  190.1390  177.2310  145.8820 O   0  0  0  0  0  0  0  0  0  0  0  0
  188.9300  175.2380  145.9370 N   0  0  0  0  0  2  0  0  0  0  0  0
  186.1830  178.5220  147.7260 C   0  0  0  0  0  1  0  0  0  0  0  0
  188.1120  177.2670  147.0750 N   0  0  0  0  0  0  0  0  0  0  0  0
  187.0700  177.9390  146.6750 C   0  0  0  0  0  0  0  0  0  0  0  0
  186.7510  178.1170  145.2130 C   0  0  0  0  0  2  0  0  0  0  0  0
  185.4880  177.3890  144.7680 C   0  0  0  0  0  2  0  0  0  0  0  0
  184.5160  178.3620  144.1170 C   0  0  1  0  0  3  0  0  0  0  0  0
  185.0150  179.7910  144.2580 C   0  0  0  0  0  1  0  0  0  0  0  0
  183.1090  178.3060  142.0070 N   0  0  0  0  0  1  0  0  0  0  0  0
  184.3350  178.0200  142.6750 C   0  0  0  0  0  0  0  0  0  0  0  0
  185.2800  177.4820  142.0400 O   0  0  0  0  0  0  0  0  0  0  0  0
  191.6970  170.4000  139.1640 C   0  0  0  0  0  1  0  0  0  0  0  0
  192.1660  171.6400  139.6740 O   0  0  0  0  0  0  0  0  0  0  0  0
  193.0120  171.4570  142.2870 O   0  0  0  0  0  0  0  0  0  0  0  0
  194.2600  171.8820  142.8110 C   0  0  0  0  0  2  0  0  0  0  0  0
  194.6790  173.1630  142.1250 C   0  0  0  0  0  2  0  0  0  0  0  0
  195.3370  174.0850  143.1310 C   0  0  0  0  0  2  0  0  0  0  0  0
  194.8920  175.5160  142.8650 C   0  0  0  0  0  2  0  0  0  0  0  0
  193.5160  175.8260  143.4600 C   0  0  2  0  0  3  0  0  0  0  0  0
  192.5770  176.3860  142.4020 C   0  0  0  0  0  2  0  0  0  0  0  0
  191.6060  177.3730  143.0220 C   0  0  0  0  0  1  0  0  0  0  0  0
  193.6140  176.7570  144.6700 C   0  0  0  0  0  2  0  0  0  0  0  0
  193.4820  175.9790  145.9720 C   0  0  0  0  0  2  0  0  0  0  0  0
  194.8410  175.5030  146.4550 C   0  0  0  0  0  1  0  0  0  0  0  0
  1  3  1  0  0  0  0
  2  5  1  0  0  0  0
  4 31  1  0  0  0  0
  4 11  1  0  0  0  0
  5  3  2  0  0  0  0
  5 18  1  0  0  0  0
  6  2  1  0  0  0  0
  7  6  2  0  0  0  0
  8 11  1  0  0  0  0
  8  2  2  0  0  0  0
  9 15  1  0  0  0  0
  9  7  1  0  0  0  0
 10 13  1  0  0  0  0
 10 14  2  0  0  0  0
 11  1  2  0  0  0  0
 12  4  2  0  0  0  0
 13  9  2  0  0  0  0
 14 12  1  0  0  0  0
 15 14  1  1  0  0  0
 15  8  1  0  0  0  0
 16 20  1  0  0  0  0
 17 16  2  0  0  0  0
 18 16  1  0  0  0  0
 21 20  2  0  0  0  0
 21 19  1  0  0  0  0
 22 21  1  0  0  0  0
 23 22  1  0  0  0  0
 24 25  1  6  0  0  0
 24 23  1  0  0  0  0
 26 27  1  0  0  0  0
 27 24  1  0  0  0  0
 28 27  2  0  0  0  0
 29 30  1  0  0  0  0
 30 12  1  0  0  0  0
 31 32  1  0  0  0  0
 33 32  1  0  0  0  0
 33 34  1  0  0  0  0
 35 34  1  0  0  0  0
 35 36  1  0  0  0  0
 36 37  1  6  0  0  0
 36 39  1  0  0  0  0
 37 38  1  0  0  0  0
 39 40  1  0  0  0  0
 40 41  1  0  0  0  0
M  END
>  <MODEL>
6

>  <REMARK>
 VINA RESULT:      -6.0      2.306      4.726
  Name = 
  16 active torsions:
  status: ('A' for Active; 'I' for Inactive)
    1  A    between atoms: C_4  and  C_25
    2  A    between atoms: C_4  and  C_41
    3  A    between atoms: C_5  and  C_36
    4  A    between atoms: C_7  and  C_27
    5  A    between atoms: C_8  and  C_15
    6  A    between atoms: C_8  and  C_40
    7  A    between atoms: C_9  and  C_27
    8  A    between atoms: C_9  and  C_41
    9  A    between atoms: C_12  and  O_17
   10  A    between atoms: C_13  and  N_29
   11  A    between atoms: C_15  and  C_23
   12  A    between atoms: C_16  and  N_24
   13  A    between atoms: O_17  and  C_25
   14  A    between atoms: C_27  and  C_36
   15  A    between atoms: O_28  and  C_32
   16  A    between atoms: C_33  and  C_40
                            x       y       z     vdW  Elec       q    Type
                         _______ _______ _______ _____ _____    ______ ____

>  <TORSDO>
F 16

$$$$
=
 OpenBabel11042419593D

 41 44  0  0  1  0  0  0  0  0999 V2000
  190.3900  172.9680  144.9720 C   0  0  0  0  0  3  0  0  0  0  0  0
  191.5930  175.1720  146.2800 C   0  0  0  0  0  0  0  0  0  0  0  0
  189.6040  173.9430  145.6150 C   0  0  0  0  0  3  0  0  0  0  0  0
  192.6730  172.1180  144.3220 C   0  0  0  0  0  0  0  0  0  0  0  0
  190.1880  175.0320  146.2890 C   0  0  0  0  0  0  0  0  0  0  0  0
  192.2890  176.2940  146.8340 C   0  0  0  0  0  3  0  0  0  0  0  0
  193.7110  176.3880  146.7590 C   0  0  0  0  0  3  0  0  0  0  0  0
  192.3470  174.1660  145.6410 C   0  0  0  0  0  0  0  0  0  0  0  0
  194.3830  175.3360  146.1270 C   0  0  0  0  0  0  0  0  0  0  0  0
  195.8040  174.0140  145.1500 N   0  0  0  0  0  0  0  0  0  0  0  0
  191.7890  173.0560  144.9800 C   0  0  0  0  0  0  0  0  0  0  0  0
  194.0880  172.3490  144.3310 C   0  0  0  0  0  0  0  0  0  0  0  0
  195.6930  175.1600  145.8420 N   0  0  0  0  0  2  0  0  0  0  0  0
  194.5600  173.4890  145.0120 C   0  0  0  0  0  0  0  0  0  0  0  0
  193.6980  174.3040  145.6210 C   0  0  0  0  0  0  0  0  0  0  0  0
  188.7330  177.1150  146.2450 C   0  0  0  0  0  0  0  0  0  0  0  0
  189.1810  177.4920  145.1270 O   0  0  0  0  0  0  0  0  0  0  0  0
  189.3230  175.9930  146.9080 N   0  0  0  0  0  2  0  0  0  0  0  0
  185.5050  178.7230  147.3790 C   0  0  0  0  0  1  0  0  0  0  0  0
  187.6670  177.8220  146.8970 N   0  0  0  0  0  0  0  0  0  0  0  0
  186.4250  177.9230  146.5170 C   0  0  0  0  0  0  0  0  0  0  0  0
  185.9200  177.2510  145.2660 C   0  0  0  0  0  2  0  0  0  0  0  0
  185.6880  178.2110  144.1060 C   0  0  0  0  0  2  0  0  0  0  0  0
  186.3370  177.6780  142.8360 C   0  0  1  0  0  3  0  0  0  0  0  0
  186.6520  176.1980  142.9790 C   0  0  0  0  0  1  0  0  0  0  0  0
  185.9580  177.9020  140.3390 N   0  0  0  0  0  1  0  0  0  0  0  0
  185.4380  177.9030  141.6660 C   0  0  0  0  0  0  0  0  0  0  0  0
  184.2070  178.0850  141.8530 O   0  0  0  0  0  0  0  0  0  0  0  0
  195.6780  170.4350  144.3270 C   0  0  0  0  0  1  0  0  0  0  0  0
  194.9350  171.4510  143.6680 O   0  0  0  0  0  0  0  0  0  0  0  0
  192.2240  170.9740  143.6430 O   0  0  0  0  0  0  0  0  0  0  0  0
  192.1590  170.8320  142.2320 C   0  0  0  0  0  2  0  0  0  0  0  0
  191.3620  171.9770  141.6500 C   0  0  0  0  0  2  0  0  0  0  0  0
  192.1670  172.6540  140.5600 C   0  0  0  0  0  2  0  0  0  0  0  0
  192.0820  174.1630  140.7390 C   0  0  0  0  0  2  0  0  0  0  0  0
  192.9480  174.6700  141.8950 C   0  0  2  0  0  3  0  0  0  0  0  0
  192.3980  175.9730  142.4580 C   0  0  0  0  0  2  0  0  0  0  0  0
  190.8960  175.8780  142.6480 C   0  0  0  0  0  1  0  0  0  0  0  0
  194.4160  174.8110  141.4920 C   0  0  0  0  0  2  0  0  0  0  0  0
  195.0750  175.9750  142.2180 C   0  0  0  0  0  2  0  0  0  0  0  0
  195.9290  176.7910  141.2630 C   0  0  0  0  0  1  0  0  0  0  0  0
  1 11  2  0  0  0  0
  1  3  1  0  0  0  0
  2  5  1  0  0  0  0
  2  6  1  0  0  0  0
  3  5  2  0  0  0  0
  4 12  2  0  0  0  0
  4 11  1  0  0  0  0
  5 18  1  0  0  0  0
  7  6  2  0  0  0  0
  8  2  2  0  0  0  0
  9  7  1  0  0  0  0
 10 13  1  0  0  0  0
 11  8  1  0  0  0  0
 12 14  1  0  0  0  0
 13  9  1  0  0  0  0
 14 10  2  0  0  0  0
 14 15  1  0  0  0  0
 15  8  1  0  0  0  0
 15  9  2  0  0  0  0
 16 20  1  0  0  0  0
 16 18  1  0  0  0  0
 17 16  2  0  0  0  0
 21 20  2  0  0  0  0
 21 19  1  0  0  0  0
 22 21  1  0  0  0  0
 23 22  1  0  0  0  0
 24 25  1  1  0  0  0
 24 23  1  0  0  0  0
 26 27  1  0  0  0  0
 27 28  2  0  0  0  0
 27 24  1  0  0  0  0
 30 29  1  0  0  0  0
 30 12  1  0  0  0  0
 31  4  1  0  0  0  0
 32 31  1  0  0  0  0
 33 32  1  0  0  0  0
 34 35  1  0  0  0  0
 34 33  1  0  0  0  0
 36 35  1  6  0  0  0
 36 37  1  0  0  0  0
 37 38  1  0  0  0  0
 39 36  1  0  0  0  0
 39 40  1  0  0  0  0
 41 40  1  0  0  0  0
M  END
>  <MODEL>
7

>  <REMARK>
 VINA RESULT:      -6.0      2.232      5.187
  Name = 
  16 active torsions:
  status: ('A' for Active; 'I' for Inactive)
    1  A    between atoms: C_4  and  C_25
    2  A    between atoms: C_4  and  C_41
    3  A    between atoms: C_5  and  C_36
    4  A    between atoms: C_7  and  C_27
    5  A    between atoms: C_8  and  C_15
    6  A    between atoms: C_8  and  C_40
    7  A    between atoms: C_9  and  C_27
    8  A    between atoms: C_9  and  C_41
    9  A    between atoms: C_12  and  O_17
   10  A    between atoms: C_13  and  N_29
   11  A    between atoms: C_15  and  C_23
   12  A    between atoms: C_16  and  N_24
   13  A    between atoms: O_17  and  C_25
   14  A    between atoms: C_27  and  C_36
   15  A    between atoms: O_28  and  C_32
   16  A    between atoms: C_33  and  C_40
                            x       y       z     vdW  Elec       q    Type
                         _______ _______ _______ _____ _____    ______ ____

>  <TORSDO>
F 16

$$$$
=
 OpenBabel11042419593D

 41 44  0  0  1  0  0  0  0  0999 V2000
  190.3740  177.8380  142.9290 C   0  0  0  0  0  3  0  0  0  0  0  0
  191.6010  176.1410  144.8340 C   0  0  0  0  0  0  0  0  0  0  0  0
  191.7250  177.4670  142.8010 C   0  0  0  0  0  3  0  0  0  0  0  0
  188.2070  177.6960  144.2110 C   0  0  0  0  0  0  0  0  0  0  0  0
  192.3560  176.6430  143.7510 C   0  0  0  0  0  0  0  0  0  0  0  0
  192.1040  175.2090  145.7970 C   0  0  0  0  0  3  0  0  0  0  0  0
  191.2740  174.7160  146.8470 C   0  0  0  0  0  3  0  0  0  0  0  0
  190.2550  176.5500  144.9380 C   0  0  0  0  0  0  0  0  0  0  0  0
  189.9580  175.1890  146.8900 C   0  0  0  0  0  0  0  0  0  0  0  0
  187.8490  175.5530  147.2690 N   0  0  0  0  0  0  0  0  0  0  0  0
  189.6070  177.3900  144.0130 C   0  0  0  0  0  0  0  0  0  0  0  0
  187.5020  177.1200  145.3180 C   0  0  2  0  0  3  0  0  0  0  0  0
  188.9240  174.8730  147.7030 N   0  0  0  0  0  0  0  0  0  0  0  0
  188.2280  176.2860  146.1910 C   0  0  0  0  0  0  0  0  0  0  0  0
  189.5240  176.0600  145.9720 C   0  0  0  0  0  0  0  0  0  0  0  0
  194.8040  176.6290  144.4310 C   0  0  0  0  0  0  0  0  0  0  0  0
  194.6390  177.5140  145.3150 O   0  0  0  0  0  0  0  0  0  0  0  0
  193.7320  176.2950  143.5460 N   0  0  0  0  0  2  0  0  0  0  0  0
  197.8150  174.3430  144.3730 C   0  0  0  0  0  1  0  0  0  0  0  0
  196.0710  175.9760  144.2600 N   0  0  0  0  0  0  0  0  0  0  0  0
  196.4270  174.7970  144.6860 C   0  0  0  0  0  0  0  0  0  0  0  0
  195.4810  173.9100  145.4530 C   0  0  0  0  0  2  0  0  0  0  0  0
  196.0530  172.5350  145.7740 C   0  0  0  0  0  2  0  0  0  0  0  0
  194.9730  171.4690  145.6610 C   0  0  1  0  0  3  0  0  0  0  0  0
  193.7200  172.0450  145.0210 C   0  0  0  0  0  1  0  0  0  0  0  0
  194.8610  169.0300  144.9770 N   0  0  0  0  0  1  0  0  0  0  0  0
  195.4740  170.3120  144.8620 C   0  0  0  0  0  0  0  0  0  0  0  0
  196.4410  170.4720  144.0730 O   0  0  0  0  0  0  0  0  0  0  0  0
  185.5310  177.6290  146.7490 C   0  0  0  0  0  1  0  0  0  0  0  0
  186.1390  177.4000  145.4860 O   0  0  0  0  0  0  0  0  0  0  0  0
  187.4670  178.5300  143.3560 O   0  0  0  0  0  0  0  0  0  0  0  0
  187.1070  178.2200  142.0190 C   0  0  0  0  0  2  0  0  0  0  0  0
  186.7950  176.7440  141.9150 C   0  0  0  0  0  2  0  0  0  0  0  0
  187.8050  176.0750  141.0050 C   0  0  0  0  0  2  0  0  0  0  0  0
  188.1900  174.7250  141.5920 C   0  0  0  0  0  2  0  0  0  0  0  0
  189.6410  174.3430  141.2900 C   0  0  2  0  0  3  0  0  0  0  0  0
  189.7280  173.4610  140.0530 C   0  0  0  0  0  2  0  0  0  0  0  0
  188.4280  172.7050  139.8460 C   0  0  0  0  0  1  0  0  0  0  0  0
  190.3220  173.6860  142.4930 C   0  0  0  0  0  2  0  0  0  0  0  0
  189.2960  173.2210  143.5170 C   0  0  0  0  0  2  0  0  0  0  0  0
  189.9290  172.2720  144.5200 C   0  0  0  0  0  1  0  0  0  0  0  0
  1 11  1  0  0  0  0
  2  8  1  0  0  0  0
  2  6  1  0  0  0  0
  3  1  2  0  0  0  0
  3  5  1  0  0  0  0
  4 12  1  0  0  0  0
  5  2  2  0  0  0  0
  6  7  2  0  0  0  0
  7  9  1  0  0  0  0
  8 15  2  0  0  0  0
  9 13  2  0  0  0  0
 10 13  1  0  0  0  0
 11  4  2  0  0  0  0
 11  8  1  0  0  0  0
 12 30  1  6  0  0  0
 12 14  1  0  0  0  0
 14 10  2  0  0  0  0
 15 14  1  0  0  0  0
 15  9  1  0  0  0  0
 16 17  2  0  0  0  0
 18  5  1  0  0  0  0
 18 16  1  0  0  0  0
 19 21  1  0  0  0  0
 20 16  1  0  0  0  0
 20 21  2  0  0  0  0
 21 22  1  0  0  0  0
 22 23  1  0  0  0  0
 24 25  1  6  0  0  0
 24 23  1  0  0  0  0
 27 26  1  0  0  0  0
 27 24  1  0  0  0  0
 28 27  2  0  0  0  0
 30 29  1  0  0  0  0
 31  4  1  0  0  0  0
 32 31  1  0  0  0  0
 33 32  1  0  0  0  0
 34 35  1  0  0  0  0
 34 33  1  0  0  0  0
 36 37  1  6  0  0  0
 36 35  1  0  0  0  0
 36 39  1  0  0  0  0
 38 37  1  0  0  0  0
 39 40  1  0  0  0  0
 40 41  1  0  0  0  0
M  END
>  <MODEL>
8

>  <REMARK>
 VINA RESULT:      -6.0      2.381      8.279
  Name = 
  16 active torsions:
  status: ('A' for Active; 'I' for Inactive)
    1  A    between atoms: C_4  and  C_25
    2  A    between atoms: C_4  and  C_41
    3  A    between atoms: C_5  and  C_36
    4  A    between atoms: C_7  and  C_27
    5  A    between atoms: C_8  and  C_15
    6  A    between atoms: C_8  and  C_40
    7  A    between atoms: C_9  and  C_27
    8  A    between atoms: C_9  and  C_41
    9  A    between atoms: C_12  and  O_17
   10  A    between atoms: C_13  and  N_29
   11  A    between atoms: C_15  and  C_23
   12  A    between atoms: C_16  and  N_24
   13  A    between atoms: O_17  and  C_25
   14  A    between atoms: C_27  and  C_36
   15  A    between atoms: O_28  and  C_32
   16  A    between atoms: C_33  and  C_40
                            x       y       z     vdW  Elec       q    Type
                         _______ _______ _______ _____ _____    ______ ____

>  <TORSDO>
F 16

$$$$
=
 OpenBabel11042419593D

 41 44  0  0  1  0  0  0  0  0999 V2000
  189.9540  173.8430  143.9120 C   0  0  0  0  0  3  0  0  0  0  0  0
  189.2020  174.1300  141.1970 C   0  0  0  0  0  0  0  0  0  0  0  0
  188.8350  174.6150  143.5500 C   0  0  0  0  0  3  0  0  0  0  0  0
  191.8820  172.3740  143.2140 C   0  0  0  0  0  0  0  0  0  0  0  0
  188.4620  174.7870  142.2040 C   0  0  0  0  0  0  0  0  0  0  0  0
  188.8510  174.1390  139.8100 C   0  0  0  0  0  3  0  0  0  0  0  0
  189.6260  173.4230  138.8490 C   0  0  0  0  0  3  0  0  0  0  0  0
  190.3270  173.3790  141.5970 C   0  0  1  0  0  3  0  0  0  0  0  0
  190.7380  172.7220  139.3280 C   0  0  0  0  0  0  0  0  0  0  0  0
  192.4520  171.4220  139.6310 N   0  0  0  0  0  0  0  0  0  0  0  0
  190.7340  173.2100  142.9340 C   0  0  0  0  0  0  0  0  0  0  0  0
  192.5610  171.7150  142.1380 C   0  0  0  0  0  0  0  0  0  0  0  0
  191.6180  171.9110  138.6980 N   0  0  0  0  0  0  0  0  0  0  0  0
  192.0820  171.9350  140.8310 C   0  0  0  0  0  0  0  0  0  0  0  0
  191.0350  172.7370  140.6330 C   0  0  0  0  0  0  0  0  0  0  0  0
  187.3220  176.8920  141.3520 C   0  0  0  0  0  0  0  0  0  0  0  0
  188.3930  177.5580  141.3500 O   0  0  0  0  0  0  0  0  0  0  0  0
  187.3010  175.5760  141.9130 N   0  0  0  0  0  2  0  0  0  0  0  0
  184.0440  178.6630  140.7100 C   0  0  0  0  0  1  0  0  0  0  0  0
  186.0990  177.4460  140.8450 N   0  0  0  0  0  0  0  0  0  0  0  0
  185.2520  178.2170  141.4670 C   0  0  0  0  0  0  0  0  0  0  0  0
  185.4780  178.6620  142.8890 C   0  0  0  0  0  2  0  0  0  0  0  0
  184.7930  177.7770  143.9240 C   0  0  0  0  0  2  0  0  0  0  0  0
  185.8070  177.2460  144.9250 C   0  0  1  0  0  3  0  0  0  0  0  0
  187.1450  177.9480  144.7540 C   0  0  0  0  0  1  0  0  0  0  0  0
  185.9970  176.8650  147.4260 N   0  0  0  0  0  1  0  0  0  0  0  0
  185.3030  177.4330  146.3180 C   0  0  0  0  0  0  0  0  0  0  0  0
  184.2590  178.1080  146.5160 O   0  0  0  0  0  0  0  0  0  0  0  0
  194.9960  171.2090  142.0880 C   0  0  0  0  0  1  0  0  0  0  0  0
  193.6540  170.8850  142.4210 O   0  0  0  0  0  0  0  0  0  0  0  0
  192.3780  172.1460  144.5080 O   0  0  0  0  0  0  0  0  0  0  0  0
  193.4890  172.8110  145.0890 C   0  0  0  0  0  2  0  0  0  0  0  0
  193.3410  174.3030  144.8850 C   0  0  0  0  0  2  0  0  0  0  0  0
  193.7840  175.0320  146.1370 C   0  0  0  0  0  2  0  0  0  0  0  0
  193.1410  176.4110  146.1670 C   0  0  0  0  0  2  0  0  0  0  0  0
  191.8490  176.4770  145.3490 C   0  0  2  0  0  3  0  0  0  0  0  0
  191.9430  177.5440  144.2670 C   0  0  0  0  0  2  0  0  0  0  0  0
  191.5490  176.9700  142.9190 C   0  0  0  0  0  1  0  0  0  0  0  0
  190.6210  176.6880  146.2360 C   0  0  0  0  0  2  0  0  0  0  0  0
  190.5260  175.6090  147.3070 C   0  0  0  0  0  2  0  0  0  0  0  0
  189.1770  174.9130  147.2510 C   0  0  0  0  0  1  0  0  0  0  0  0
  2  8  1  0  0  0  0
  2  5  1  0  0  0  0
  3  1  1  0  0  0  0
  4 31  1  0  0  0  0
  5  3  2  0  0  0  0
  6  2  2  0  0  0  0
  7  9  2  0  0  0  0
  7  6  1  0  0  0  0
  8 15  1  1  0  0  0
  8 11  1  0  0  0  0
  9 15  1  0  0  0  0
 10 14  1  0  0  0  0
 11  4  1  0  0  0  0
 11  1  2  0  0  0  0
 12 30  1  0  0  0  0
 12  4  2  0  0  0  0
 13  9  1  0  0  0  0
 13 10  2  0  0  0  0
 14 12  1  0  0  0  0
 15 14  2  0  0  0  0
 16 18  1  0  0  0  0
 17 16  2  0  0  0  0
 18  5  1  0  0  0  0
 19 21  1  0  0  0  0
 20 16  1  0  0  0  0
 20 21  2  0  0  0  0
 21 22  1  0  0  0  0
 22 23  1  0  0  0  0
 23 24  1  0  0  0  0
 24 25  1  1  0  0  0
 24 27  1  0  0  0  0
 27 28  2  0  0  0  0
 27 26  1  0  0  0  0
 29 30  1  0  0  0  0
 31 32  1  0  0  0  0
 33 32  1  0  0  0  0
 33 34  1  0  0  0  0
 34 35  1  0  0  0  0
 36 37  1  6  0  0  0
 36 35  1  0  0  0  0
 36 39  1  0  0  0  0
 38 37  1  0  0  0  0
 39 40  1  0  0  0  0
 41 40  1  0  0  0  0
M  END
>  <MODEL>
9

>  <REMARK>
 VINA RESULT:      -6.0      2.052      3.114
  Name = 
  16 active torsions:
  status: ('A' for Active; 'I' for Inactive)
    1  A    between atoms: C_4  and  C_25
    2  A    between atoms: C_4  and  C_41
    3  A    between atoms: C_5  and  C_36
    4  A    between atoms: C_7  and  C_27
    5  A    between atoms: C_8  and  C_15
    6  A    between atoms: C_8  and  C_40
    7  A    between atoms: C_9  and  C_27
    8  A    between atoms: C_9  and  C_41
    9  A    between atoms: C_12  and  O_17
   10  A    between atoms: C_13  and  N_29
   11  A    between atoms: C_15  and  C_23
   12  A    between atoms: C_16  and  N_24
   13  A    between atoms: O_17  and  C_25
   14  A    between atoms: C_27  and  C_36
   15  A    between atoms: O_28  and  C_32
   16  A    between atoms: C_33  and  C_40
                            x       y       z     vdW  Elec       q    Type
                         _______ _______ _______ _____ _____    ______ ____

>  <TORSDO>
F 16

$$$$
