=
 OpenBabel11042415513D

 34 38  0  0  1  0  0  0  0  0999 V2000
  185.5880  177.5390  140.0960 N   0  0  0  0  0  0  0  0  0  0  0  0
  186.6430  177.1700  145.1720 C   0  0  0  0  0  0  0  0  0  0  0  0
  190.8500  176.6040  146.3780 C   0  0  0  0  0  2  0  0  0  0  0  0
  186.1480  177.4000  143.8640 C   0  0  0  0  0  0  0  0  0  0  0  0
  186.3100  176.8130  147.6860 C   0  0  0  0  0  2  0  0  0  0  0  0
  184.0930  178.7930  144.2170 N   0  0  0  0  0  0  0  0  0  0  0  0
  184.0360  178.6970  141.2000 N   0  0  0  0  0  0  0  0  0  0  0  0
  189.7490  175.7410  147.0160 C   0  0  0  0  0  2  0  0  0  0  0  0
  184.9970  178.1380  143.4560 C   0  0  0  0  0  0  0  0  0  0  0  0
  188.4010  176.4140  146.8310 C   0  0  2  0  0  3  0  0  0  0  0  0
  186.8970  176.7660  142.4340 S   0  0  0  0  0  0  0  0  0  0  0  0
  185.7870  177.4520  141.4140 C   0  0  0  0  0  0  0  0  0  0  0  0
  183.9470  178.8140  145.5540 C   0  0  0  0  0  3  0  0  0  0  0  0
  184.4990  178.3130  140.0020 N   0  0  0  0  0  0  0  0  0  0  0  0
  187.3360  175.7830  147.5710 N   0  0  0  0  0  2  0  0  0  0  0  0
  184.7130  178.1330  146.4800 C   0  0  0  0  0  3  0  0  0  0  0  0
  188.0120  176.4870  145.3490 C   0  0  2  0  0  3  0  0  0  0  0  0
  189.1830  177.0530  144.4880 C   0  0  1  0  0  3  0  0  0  0  0  0
  190.3160  177.6340  145.3620 C   0  0  0  0  0  2  0  0  0  0  0  0
  185.8600  177.3690  146.3470 C   0  0  0  0  0  0  0  0  0  0  0  0
  184.8810  178.1320  142.0730 C   0  0  0  0  0  0  0  0  0  0  0  0
  192.0670  175.4440  142.7730 C   0  0  0  0  0  0  0  0  0  0  0  0
  189.7720  175.9880  143.5920 C   0  0  0  0  0  0  0  0  0  0  0  0
  192.2840  174.5330  143.8590 N   0  0  0  0  0  2  0  0  0  0  0  0
  192.9340  175.5760  141.8700 O   0  0  0  0  0  0  0  0  0  0  0  0
  189.3190  174.8100  143.6130 O   0  0  0  0  0  0  0  0  0  0  0  0
  190.9100  176.2890  142.7750 N   0  0  0  0  0  2  0  0  0  0  0  0
  193.2610  172.3930  143.5280 C   0  0  0  0  0  2  0  0  0  0  0  0
  193.3890  173.6320  143.9810 C   0  0  0  0  0  0  0  0  0  0  0  0
  194.6320  174.0210  144.5800 N   0  0  0  0  0  2  0  0  0  0  0  0
  195.5820  174.8950  144.0070 N   0  0  0  0  0  2  0  0  0  0  0  0
  194.7520  176.9370  144.8280 O   0  0  0  0  0  1  0  0  0  0  0  0
  196.5950  177.0490  143.4780 O   0  0  0  0  0  0  0  0  0  0  0  0
  195.6180  176.3230  144.1510 C   0  0  0  0  0  0  0  0  0  0  0  0
  1 12  2  0  0  0  0
  2 20  1  0  0  0  0
  3  8  1  0  0  0  0
  4  2  2  0  0  0  0
  6 13  2  0  0  0  0
  7 21  1  0  0  0  0
  9  4  1  0  0  0  0
  9  6  1  0  0  0  0
 10  8  1  6  0  0  0
 10 15  1  0  0  0  0
 11  4  1  0  0  0  0
 12 21  1  0  0  0  0
 12 11  1  0  0  0  0
 13 16  1  0  0  0  0
 14  1  1  0  0  0  0
 14  7  2  0  0  0  0
 15  5  1  0  0  0  0
 17  2  1  1  0  0  0
 17 10  1  0  0  0  0
 18 23  1  1  0  0  0
 18 17  1  0  0  0  0
 18 19  1  0  0  0  0
 19  3  1  0  0  0  0
 20 16  2  0  0  0  0
 20  5  1  0  0  0  0
 21  9  2  0  0  0  0
 22 27  1  0  0  0  0
 22 24  1  0  0  0  0
 23 26  2  0  0  0  0
 24 29  1  0  0  0  0
 25 22  2  0  0  0  0
 27 23  1  0  0  0  0
 28 29  2  0  0  0  0
 29 30  1  0  0  0  0
 31 34  1  0  0  0  0
 31 30  1  0  0  0  0
 33 34  2  0  0  0  0
 34 32  1  0  0  0  0
M  END
>  <MODEL>
1

>  <REMARK>
 VINA RESULT:      -8.7      0.000      0.000
  Name = 
  4 active torsions:
  status: ('A' for Active; 'I' for Inactive)
    1  A    between atoms: N_10  and  C_22
    2  A    between atoms: N_10  and  N_25
    3  A    between atoms: C_12  and  C_28
    4  A    between atoms: N_17  and  C_22
                            x       y       z     vdW  Elec       q    Type
                         _______ _______ _______ _____ _____    ______ ____

>  <TORSDO>
F 4

$$$$
=
 OpenBabel11042415513D

 34 38  0  0  1  0  0  0  0  0999 V2000
  185.6110  177.5100  140.0430 N   0  0  0  0  0  0  0  0  0  0  0  0
  186.6290  177.1950  145.1300 C   0  0  0  0  0  0  0  0  0  0  0  0
  190.8270  176.6350  146.3720 C   0  0  0  0  0  2  0  0  0  0  0  0
  186.1440  177.4110  143.8160 C   0  0  0  0  0  0  0  0  0  0  0  0
  186.2780  176.8660  147.6460 C   0  0  0  0  0  2  0  0  0  0  0  0
  184.0890  178.8120  144.1390 N   0  0  0  0  0  0  0  0  0  0  0  0
  184.0530  178.6830  141.1240 N   0  0  0  0  0  0  0  0  0  0  0  0
  189.7190  175.7810  147.0110 C   0  0  0  0  0  2  0  0  0  0  0  0
  184.9970  178.1470  143.3920 C   0  0  0  0  0  0  0  0  0  0  0  0
  188.3740  176.4540  146.8100 C   0  0  2  0  0  3  0  0  0  0  0  0
  186.9020  176.7610  142.3980 S   0  0  0  0  0  0  0  0  0  0  0  0
  185.8000  177.4380  141.3630 C   0  0  0  0  0  0  0  0  0  0  0  0
  183.9330  178.8470  145.4750 C   0  0  0  0  0  3  0  0  0  0  0  0
  184.5230  178.2850  139.9330 N   0  0  0  0  0  0  0  0  0  0  0  0
  187.3030  175.8320  147.5490 N   0  0  0  0  0  2  0  0  0  0  0  0
  184.6920  178.1760  146.4140 C   0  0  0  0  0  3  0  0  0  0  0  0
  187.9950  176.5110  145.3240 C   0  0  2  0  0  3  0  0  0  0  0  0
  189.1740  177.0660  144.4650 C   0  0  1  0  0  3  0  0  0  0  0  0
  190.3020  177.6540  145.3410 C   0  0  0  0  0  2  0  0  0  0  0  0
  185.8390  177.4080  146.2970 C   0  0  0  0  0  0  0  0  0  0  0  0
  184.8910  178.1260  142.0080 C   0  0  0  0  0  0  0  0  0  0  0  0
  192.0590  175.4660  142.7430 C   0  0  0  0  0  0  0  0  0  0  0  0
  189.7680  175.9910  143.5850 C   0  0  0  0  0  0  0  0  0  0  0  0
  192.3070  174.5840  143.8470 N   0  0  0  0  0  2  0  0  0  0  0  0
  192.9090  175.5910  141.8240 O   0  0  0  0  0  0  0  0  0  0  0  0
  189.3350  174.8060  143.6400 O   0  0  0  0  0  0  0  0  0  0  0  0
  190.8870  176.2910  142.7430 N   0  0  0  0  0  2  0  0  0  0  0  0
  194.4750  174.0960  144.6860 C   0  0  0  0  0  2  0  0  0  0  0  0
  193.4290  173.7050  143.9720 C   0  0  0  0  0  0  0  0  0  0  0  0
  193.4650  172.4140  143.3500 N   0  0  0  0  0  2  0  0  0  0  0  0
  192.3670  171.5340  143.2190 N   0  0  0  0  0  2  0  0  0  0  0  0
  191.4750  172.3520  141.2010 O   0  0  0  0  0  0  0  0  0  0  0  0
  190.3510  170.6240  142.1920 O   0  0  0  0  0  1  0  0  0  0  0  0
  191.4090  171.5260  142.1480 C   0  0  0  0  0  0  0  0  0  0  0  0
  1 12  2  0  0  0  0
  2 20  1  0  0  0  0
  3  8  1  0  0  0  0
  4  2  2  0  0  0  0
  6 13  2  0  0  0  0
  7 21  1  0  0  0  0
  9  4  1  0  0  0  0
  9  6  1  0  0  0  0
 10  8  1  6  0  0  0
 10 15  1  0  0  0  0
 11  4  1  0  0  0  0
 12 21  1  0  0  0  0
 12 11  1  0  0  0  0
 13 16  1  0  0  0  0
 14  1  1  0  0  0  0
 14  7  2  0  0  0  0
 15  5  1  0  0  0  0
 17  2  1  1  0  0  0
 17 10  1  0  0  0  0
 18 23  1  1  0  0  0
 18 17  1  0  0  0  0
 18 19  1  0  0  0  0
 19  3  1  0  0  0  0
 20 16  2  0  0  0  0
 20  5  1  0  0  0  0
 21  9  2  0  0  0  0
 22 24  1  0  0  0  0
 23 26  2  0  0  0  0
 24 29  1  0  0  0  0
 25 22  2  0  0  0  0
 27 22  1  0  0  0  0
 27 23  1  0  0  0  0
 29 28  2  0  0  0  0
 30 29  1  0  0  0  0
 31 30  1  0  0  0  0
 32 34  2  0  0  0  0
 34 33  1  0  0  0  0
 34 31  1  0  0  0  0
M  END
>  <MODEL>
2

>  <REMARK>
 VINA RESULT:      -8.2      1.301      2.456
  Name = 
  4 active torsions:
  status: ('A' for Active; 'I' for Inactive)
    1  A    between atoms: N_10  and  C_22
    2  A    between atoms: N_10  and  N_25
    3  A    between atoms: C_12  and  C_28
    4  A    between atoms: N_17  and  C_22
                            x       y       z     vdW  Elec       q    Type
                         _______ _______ _______ _____ _____    ______ ____

>  <TORSDO>
F 4

$$$$
=
 OpenBabel11042415513D

 34 38  0  0  1  0  0  0  0  0999 V2000
  186.9750  176.7810  139.6110 N   0  0  0  0  0  0  0  0  0  0  0  0
  187.1650  176.9210  144.8040 C   0  0  0  0  0  0  0  0  0  0  0  0
  191.1070  176.5110  146.7440 C   0  0  0  0  0  2  0  0  0  0  0  0
  186.8970  177.0160  143.4150 C   0  0  0  0  0  0  0  0  0  0  0  0
  186.4140  176.8090  147.2500 C   0  0  0  0  0  2  0  0  0  0  0  0
  184.8230  178.4200  143.2820 N   0  0  0  0  0  0  0  0  0  0  0  0
  185.2690  178.0280  140.3220 N   0  0  0  0  0  0  0  0  0  0  0  0
  189.9080  175.7050  147.2710 C   0  0  0  0  0  2  0  0  0  0  0  0
  185.8360  177.7010  142.7500 C   0  0  0  0  0  0  0  0  0  0  0  0
  188.6150  176.3450  146.7990 C   0  0  2  0  0  3  0  0  0  0  0  0
  187.8690  176.2520  142.1990 S   0  0  0  0  0  0  0  0  0  0  0  0
  186.9500  176.8250  140.9460 C   0  0  0  0  0  0  0  0  0  0  0  0
  184.4560  178.5710  144.5680 C   0  0  0  0  0  3  0  0  0  0  0  0
  185.9230  177.5320  139.2620 N   0  0  0  0  0  0  0  0  0  0  0  0
  187.4370  175.7810  147.4090 N   0  0  0  0  0  2  0  0  0  0  0  0
  185.0520  177.9910  145.6710 C   0  0  0  0  0  3  0  0  0  0  0  0
  188.4790  176.2690  145.2720 C   0  0  2  0  0  3  0  0  0  0  0  0
  189.7830  176.7580  144.5670 C   0  0  1  0  0  3  0  0  0  0  0  0
  190.7590  177.4310  145.5580 C   0  0  0  0  0  2  0  0  0  0  0  0
  186.1990  177.2270  145.8060 C   0  0  0  0  0  0  0  0  0  0  0  0
  185.9520  177.5590  141.3750 C   0  0  0  0  0  0  0  0  0  0  0  0
  192.8690  175.1710  143.2250 C   0  0  0  0  0  0  0  0  0  0  0  0
  190.5040  175.6150  143.8910 C   0  0  0  0  0  0  0  0  0  0  0  0
  193.1350  174.4970  144.4630 N   0  0  0  0  0  2  0  0  0  0  0  0
  193.7500  175.2270  142.3270 O   0  0  0  0  0  0  0  0  0  0  0  0
  190.1680  174.4200  144.1200 O   0  0  0  0  0  0  0  0  0  0  0  0
  191.6350  175.8790  143.0520 N   0  0  0  0  0  2  0  0  0  0  0  0
  195.2720  174.3250  145.4850 C   0  0  0  0  0  2  0  0  0  0  0  0
  194.3180  173.7510  144.7650 C   0  0  0  0  0  0  0  0  0  0  0  0
  194.5100  172.4040  144.3150 N   0  0  0  0  0  2  0  0  0  0  0  0
  194.1690  171.2390  145.0390 N   0  0  0  0  0  2  0  0  0  0  0  0
  196.2340  170.8370  146.0900 O   0  0  0  0  0  0  0  0  0  0  0  0
  194.5610  169.3350  146.5100 O   0  0  0  0  0  1  0  0  0  0  0  0
  195.0370  170.4940  145.9070 C   0  0  0  0  0  0  0  0  0  0  0  0
  1 12  2  0  0  0  0
  2 20  1  0  0  0  0
  3  8  1  0  0  0  0
  4  2  2  0  0  0  0
  5 15  1  0  0  0  0
  6 13  2  0  0  0  0
  7 21  1  0  0  0  0
  9  6  1  0  0  0  0
  9  4  1  0  0  0  0
 10  8  1  1  0  0  0
 10 15  1  0  0  0  0
 11  4  1  0  0  0  0
 12 21  1  0  0  0  0
 12 11  1  0  0  0  0
 13 16  1  0  0  0  0
 14  1  1  0  0  0  0
 14  7  2  0  0  0  0
 16 20  2  0  0  0  0
 17  2  1  6  0  0  0
 17 10  1  0  0  0  0
 18 23  1  1  0  0  0
 18 17  1  0  0  0  0
 18 19  1  0  0  0  0
 19  3  1  0  0  0  0
 20  5  1  0  0  0  0
 21  9  2  0  0  0  0
 22 24  1  0  0  0  0
 23 26  2  0  0  0  0
 24 29  1  0  0  0  0
 25 22  2  0  0  0  0
 27 22  1  0  0  0  0
 27 23  1  0  0  0  0
 29 28  2  0  0  0  0
 30 29  1  0  0  0  0
 30 31  1  0  0  0  0
 31 34  1  0  0  0  0
 34 32  2  0  0  0  0
 34 33  1  0  0  0  0
M  END
>  <MODEL>
3

>  <REMARK>
 VINA RESULT:      -7.8      2.126      2.493
  Name = 
  4 active torsions:
  status: ('A' for Active; 'I' for Inactive)
    1  A    between atoms: N_10  and  C_22
    2  A    between atoms: N_10  and  N_25
    3  A    between atoms: C_12  and  C_28
    4  A    between atoms: N_17  and  C_22
                            x       y       z     vdW  Elec       q    Type
                         _______ _______ _______ _____ _____    ______ ____

>  <TORSDO>
F 4

$$$$
=
 OpenBabel11042415513D

 34 38  0  0  1  0  0  0  0  0999 V2000
  186.9120  177.0650  140.0100 N   0  0  0  0  0  0  0  0  0  0  0  0
  188.0790  176.4150  145.0340 C   0  0  0  0  0  0  0  0  0  0  0  0
  192.3370  176.1020  146.1480 C   0  0  0  0  0  2  0  0  0  0  0  0
  187.5450  176.6990  143.7520 C   0  0  0  0  0  0  0  0  0  0  0  0
  187.8170  175.8510  147.5180 C   0  0  0  0  0  2  0  0  0  0  0  0
  185.3930  177.8940  144.2290 N   0  0  0  0  0  0  0  0  0  0  0  0
  185.2920  178.0120  141.2140 N   0  0  0  0  0  0  0  0  0  0  0  0
  191.3180  175.1100  146.7330 C   0  0  0  0  0  2  0  0  0  0  0  0
  186.3320  177.3700  143.4120 C   0  0  0  0  0  0  0  0  0  0  0  0
  189.9190  175.6840  146.6130 C   0  0  2  0  0  3  0  0  0  0  0  0
  188.3180  176.2330  142.2700 S   0  0  0  0  0  0  0  0  0  0  0  0
  187.1390  176.8990  141.3160 C   0  0  0  0  0  0  0  0  0  0  0  0
  185.2680  177.8050  145.5660 C   0  0  0  0  0  3  0  0  0  0  0  0
  185.7630  177.7540  139.9860 N   0  0  0  0  0  0  0  0  0  0  0  0
  188.9200  174.9170  147.3160 N   0  0  0  0  0  2  0  0  0  0  0  0
  186.1020  177.1240  146.4300 C   0  0  0  0  0  3  0  0  0  0  0  0
  189.5000  175.8320  145.1440 C   0  0  2  0  0  3  0  0  0  0  0  0
  190.6080  176.5520  144.3140 C   0  0  1  0  0  3  0  0  0  0  0  0
  191.7070  177.1560  145.2170 C   0  0  0  0  0  2  0  0  0  0  0  0
  187.3030  176.4650  146.2290 C   0  0  0  0  0  0  0  0  0  0  0  0
  186.1940  177.4550  142.0340 C   0  0  0  0  0  0  0  0  0  0  0  0
  190.6670  173.3880  142.3570 C   0  0  0  0  0  0  0  0  0  0  0  0
  191.2640  175.6050  143.3360 C   0  0  0  0  0  0  0  0  0  0  0  0
  190.0560  174.0090  141.2180 N   0  0  0  0  0  2  0  0  0  0  0  0
  190.7590  172.1340  142.4260 O   0  0  0  0  0  0  0  0  0  0  0  0
  191.9180  176.0520  142.3520 O   0  0  0  0  0  0  0  0  0  0  0  0
  191.0750  174.1920  143.4700 N   0  0  0  0  0  2  0  0  0  0  0  0
  188.3200  173.0440  139.9140 C   0  0  0  0  0  2  0  0  0  0  0  0
  189.6080  173.3290  140.0410 C   0  0  0  0  0  0  0  0  0  0  0  0
  190.5060  172.9420  138.9910 N   0  0  0  0  0  2  0  0  0  0  0  0
  190.9800  173.7870  137.9630 N   0  0  0  0  0  2  0  0  0  0  0  0
  189.1130  173.7150  136.5340 O   0  0  0  0  0  1  0  0  0  0  0  0
  190.8980  174.9570  135.8250 O   0  0  0  0  0  0  0  0  0  0  0  0
  190.2690  174.1520  136.7690 C   0  0  0  0  0  0  0  0  0  0  0  0
  1 12  2  0  0  0  0
  2 20  1  0  0  0  0
  3  8  1  0  0  0  0
  4  2  2  0  0  0  0
  6 13  2  0  0  0  0
  7 21  1  0  0  0  0
  9  4  1  0  0  0  0
  9  6  1  0  0  0  0
 10  8  1  6  0  0  0
 10 15  1  0  0  0  0
 11  4  1  0  0  0  0
 12 21  1  0  0  0  0
 12 11  1  0  0  0  0
 13 16  1  0  0  0  0
 14  1  1  0  0  0  0
 14  7  2  0  0  0  0
 15  5  1  0  0  0  0
 17  2  1  1  0  0  0
 17 10  1  0  0  0  0
 18 23  1  6  0  0  0
 18 17  1  0  0  0  0
 18 19  1  0  0  0  0
 19  3  1  0  0  0  0
 20 16  2  0  0  0  0
 20  5  1  0  0  0  0
 21  9  2  0  0  0  0
 22 25  2  0  0  0  0
 22 27  1  0  0  0  0
 23 27  1  0  0  0  0
 24 22  1  0  0  0  0
 26 23  2  0  0  0  0
 28 29  2  0  0  0  0
 29 24  1  0  0  0  0
 30 29  1  0  0  0  0
 31 30  1  0  0  0  0
 32 34  1  0  0  0  0
 33 34  2  0  0  0  0
 34 31  1  0  0  0  0
M  END
>  <MODEL>
4

>  <REMARK>
 VINA RESULT:      -7.4      2.908      4.117
  Name = 
  4 active torsions:
  status: ('A' for Active; 'I' for Inactive)
    1  A    between atoms: N_10  and  C_22
    2  A    between atoms: N_10  and  N_25
    3  A    between atoms: C_12  and  C_28
    4  A    between atoms: N_17  and  C_22
                            x       y       z     vdW  Elec       q    Type
                         _______ _______ _______ _____ _____    ______ ____

>  <TORSDO>
F 4

$$$$
=
 OpenBabel11042415513D

 34 38  0  0  1  0  0  0  0  0999 V2000
  189.5170  173.5090  139.3940 N   0  0  0  0  0  0  0  0  0  0  0  0
  189.2420  175.5140  144.1820 C   0  0  0  0  0  0  0  0  0  0  0  0
  192.9780  175.8460  146.5070 C   0  0  0  0  0  2  0  0  0  0  0  0
  189.1040  175.1010  142.8330 C   0  0  0  0  0  0  0  0  0  0  0  0
  188.2700  176.2900  146.4210 C   0  0  0  0  0  2  0  0  0  0  0  0
  187.0950  176.3560  142.0070 N   0  0  0  0  0  0  0  0  0  0  0  0
  187.7940  174.9230  139.4430 N   0  0  0  0  0  0  0  0  0  0  0  0
  191.7120  175.2810  147.1710 C   0  0  0  0  0  2  0  0  0  0  0  0
  188.1290  175.4970  141.8680 C   0  0  0  0  0  0  0  0  0  0  0  0
  190.4880  175.7030  146.3790 C   0  0  2  0  0  3  0  0  0  0  0  0
  190.1570  173.9530  142.0720 S   0  0  0  0  0  0  0  0  0  0  0  0
  189.3730  174.0330  140.6150 C   0  0  0  0  0  0  0  0  0  0  0  0
  186.6180  176.9590  143.1110 C   0  0  0  0  0  3  0  0  0  0  0  0
  188.5240  174.0810  138.6990 N   0  0  0  0  0  0  0  0  0  0  0  0
  189.2420  175.3920  147.0360 N   0  0  0  0  0  2  0  0  0  0  0  0
  187.0940  176.8180  144.4000 C   0  0  0  0  0  3  0  0  0  0  0  0
  190.4880  175.0800  144.9770 C   0  0  2  0  0  3  0  0  0  0  0  0
  191.8640  175.2870  144.2700 C   0  0  1  0  0  3  0  0  0  0  0  0
  192.7670  176.2750  145.0410 C   0  0  0  0  0  2  0  0  0  0  0  0
  188.1990  176.1580  144.9100 C   0  0  0  0  0  0  0  0  0  0  0  0
  188.3640  174.8680  140.6540 C   0  0  0  0  0  0  0  0  0  0  0  0
  194.9920  173.3390  143.7490 C   0  0  0  0  0  0  0  0  0  0  0  0
  192.6080  173.9790  144.1230 C   0  0  0  0  0  0  0  0  0  0  0  0
  195.2230  173.2160  145.1590 N   0  0  0  0  0  2  0  0  0  0  0  0
  195.8980  173.0460  142.9260 O   0  0  0  0  0  0  0  0  0  0  0  0
  192.2680  172.9680  144.7980 O   0  0  0  0  0  0  0  0  0  0  0  0
  193.7620  173.9040  143.2780 N   0  0  0  0  0  2  0  0  0  0  0  0
  197.1810  173.4610  146.4810 C   0  0  0  0  0  2  0  0  0  0  0  0
  196.3980  172.6670  145.7630 C   0  0  0  0  0  0  0  0  0  0  0  0
  196.7630  171.2890  145.6180 N   0  0  0  0  0  2  0  0  0  0  0  0
  196.6220  170.2920  146.6100 N   0  0  0  0  0  2  0  0  0  0  0  0
  194.5860  169.3500  145.9010 O   0  0  0  0  0  0  0  0  0  0  0  0
  195.5250  168.4610  147.7880 O   0  0  0  0  0  1  0  0  0  0  0  0
  195.5420  169.3510  146.7190 C   0  0  0  0  0  0  0  0  0  0  0  0
  1 12  2  0  0  0  0
  2 20  1  0  0  0  0
  3  8  1  0  0  0  0
  4  2  2  0  0  0  0
  5 15  1  0  0  0  0
  6 13  2  0  0  0  0
  7 21  1  0  0  0  0
  9  6  1  0  0  0  0
  9  4  1  0  0  0  0
 10 15  1  0  0  0  0
 10  8  1  1  0  0  0
 11  4  1  0  0  0  0
 12 21  1  0  0  0  0
 12 11  1  0  0  0  0
 13 16  1  0  0  0  0
 14  1  1  0  0  0  0
 14  7  2  0  0  0  0
 16 20  2  0  0  0  0
 17  2  1  6  0  0  0
 17 10  1  0  0  0  0
 18 23  1  1  0  0  0
 18 17  1  0  0  0  0
 18 19  1  0  0  0  0
 19  3  1  0  0  0  0
 20  5  1  0  0  0  0
 21  9  2  0  0  0  0
 22 24  1  0  0  0  0
 23 26  2  0  0  0  0
 24 29  1  0  0  0  0
 25 22  2  0  0  0  0
 27 22  1  0  0  0  0
 27 23  1  0  0  0  0
 29 28  2  0  0  0  0
 30 29  1  0  0  0  0
 30 31  1  0  0  0  0
 31 34  1  0  0  0  0
 32 34  2  0  0  0  0
 34 33  1  0  0  0  0
M  END
>  <MODEL>
5

>  <REMARK>
 VINA RESULT:      -7.4      3.459      4.508
  Name = 
  4 active torsions:
  status: ('A' for Active; 'I' for Inactive)
    1  A    between atoms: N_10  and  C_22
    2  A    between atoms: N_10  and  N_25
    3  A    between atoms: C_12  and  C_28
    4  A    between atoms: N_17  and  C_22
                            x       y       z     vdW  Elec       q    Type
                         _______ _______ _______ _____ _____    ______ ____

>  <TORSDO>
F 4

$$$$
=
 OpenBabel11042415513D

 34 38  0  0  1  0  0  0  0  0999 V2000
  187.0190  176.7820  139.6550 N   0  0  0  0  0  0  0  0  0  0  0  0
  187.2730  176.8520  144.8460 C   0  0  0  0  0  0  0  0  0  0  0  0
  191.2380  176.4140  146.7330 C   0  0  0  0  0  2  0  0  0  0  0  0
  186.9880  176.9660  143.4630 C   0  0  0  0  0  0  0  0  0  0  0  0
  186.5520  176.7070  147.3000 C   0  0  0  0  0  2  0  0  0  0  0  0
  184.9140  178.3730  143.3740 N   0  0  0  0  0  0  0  0  0  0  0  0
  185.3230  178.0210  140.4040 N   0  0  0  0  0  0  0  0  0  0  0  0
  190.0450  175.6020  147.2630 C   0  0  0  0  0  2  0  0  0  0  0  0
  185.9200  177.6610  142.8200 C   0  0  0  0  0  0  0  0  0  0  0  0
  188.7470  176.2490  146.8150 C   0  0  2  0  0  3  0  0  0  0  0  0
  187.9450  176.2180  142.2250 S   0  0  0  0  0  0  0  0  0  0  0  0
  187.0100  176.8090  140.9910 C   0  0  0  0  0  0  0  0  0  0  0  0
  184.5620  178.5060  144.6660 C   0  0  0  0  0  3  0  0  0  0  0  0
  185.9630  177.5390  139.3290 N   0  0  0  0  0  0  0  0  0  0  0  0
  187.5760  175.6770  147.4330 N   0  0  0  0  0  2  0  0  0  0  0  0
  185.1720  177.9110  145.7540 C   0  0  0  0  0  3  0  0  0  0  0  0
  188.5930  176.1930  145.2900 C   0  0  2  0  0  3  0  0  0  0  0  0
  189.8870  176.6920  144.5760 C   0  0  1  0  0  3  0  0  0  0  0  0
  190.8760  177.3510  145.5630 C   0  0  0  0  0  2  0  0  0  0  0  0
  186.3190  177.1450  145.8650 C   0  0  0  0  0  0  0  0  0  0  0  0
  186.0190  177.5370  141.4420 C   0  0  0  0  0  0  0  0  0  0  0  0
  189.9140  173.3340  142.9730 C   0  0  0  0  0  0  0  0  0  0  0  0
  190.6000  175.5580  143.8750 C   0  0  0  0  0  0  0  0  0  0  0  0
  189.6870  173.8860  141.6680 N   0  0  0  0  0  2  0  0  0  0  0  0
  189.7930  172.0960  143.1700 O   0  0  0  0  0  0  0  0  0  0  0  0
  191.5250  175.7950  143.0490 O   0  0  0  0  0  0  0  0  0  0  0  0
  190.1700  174.2070  144.0790 N   0  0  0  0  0  2  0  0  0  0  0  0
  188.1810  173.0360  140.0400 C   0  0  0  0  0  2  0  0  0  0  0  0
  189.4280  173.1330  140.4800 C   0  0  0  0  0  0  0  0  0  0  0  0
  190.4690  172.4740  139.7470 N   0  0  0  0  0  2  0  0  0  0  0  0
  190.8580  171.1250  139.9050 N   0  0  0  0  0  2  0  0  0  0  0  0
  189.6740  170.1840  138.1040 O   0  0  0  0  0  0  0  0  0  0  0  0
  190.8870  168.7410  139.3970 O   0  0  0  0  0  1  0  0  0  0  0  0
  190.4540  170.0230  139.0780 C   0  0  0  0  0  0  0  0  0  0  0  0
  1 12  2  0  0  0  0
  2 20  1  0  0  0  0
  3  8  1  0  0  0  0
  4  2  2  0  0  0  0
  5 15  1  0  0  0  0
  6 13  2  0  0  0  0
  7 21  1  0  0  0  0
  9  6  1  0  0  0  0
  9  4  1  0  0  0  0
 10  8  1  6  0  0  0
 10 15  1  0  0  0  0
 11  4  1  0  0  0  0
 12 21  1  0  0  0  0
 12 11  1  0  0  0  0
 13 16  1  0  0  0  0
 14  1  1  0  0  0  0
 14  7  2  0  0  0  0
 16 20  2  0  0  0  0
 17  2  1  1  0  0  0
 17 10  1  0  0  0  0
 18 23  1  1  0  0  0
 18 17  1  0  0  0  0
 18 19  1  0  0  0  0
 19  3  1  0  0  0  0
 20  5  1  0  0  0  0
 21  9  2  0  0  0  0
 22 25  2  0  0  0  0
 22 27  1  0  0  0  0
 23 27  1  0  0  0  0
 24 22  1  0  0  0  0
 26 23  2  0  0  0  0
 28 29  2  0  0  0  0
 29 24  1  0  0  0  0
 30 31  1  0  0  0  0
 30 29  1  0  0  0  0
 32 34  2  0  0  0  0
 34 33  1  0  0  0  0
 34 31  1  0  0  0  0
M  END
>  <MODEL>
6

>  <REMARK>
 VINA RESULT:      -7.4      2.903      4.103
  Name = 
  4 active torsions:
  status: ('A' for Active; 'I' for Inactive)
    1  A    between atoms: N_10  and  C_22
    2  A    between atoms: N_10  and  N_25
    3  A    between atoms: C_12  and  C_28
    4  A    between atoms: N_17  and  C_22
                            x       y       z     vdW  Elec       q    Type
                         _______ _______ _______ _____ _____    ______ ____

>  <TORSDO>
F 4

$$$$
=
 OpenBabel11042415513D

 34 38  0  0  1  0  0  0  0  0999 V2000
  192.4320  173.7340  139.4290 N   0  0  0  0  0  0  0  0  0  0  0  0
  193.3240  174.8960  144.4170 C   0  0  0  0  0  0  0  0  0  0  0  0
  189.8480  175.7250  147.0050 C   0  0  0  0  0  2  0  0  0  0  0  0
  193.3060  174.4590  143.0680 C   0  0  0  0  0  0  0  0  0  0  0  0
  194.5530  175.6260  146.5410 C   0  0  0  0  0  2  0  0  0  0  0  0
  195.3970  173.0950  142.8340 N   0  0  0  0  0  0  0  0  0  0  0  0
  194.3270  172.7280  140.0350 N   0  0  0  0  0  0  0  0  0  0  0  0
  191.0730  176.6530  147.0500 C   0  0  0  0  0  2  0  0  0  0  0  0
  194.2510  173.6440  142.3760 C   0  0  0  0  0  0  0  0  0  0  0  0
  192.2810  175.9320  146.4780 C   0  0  2  0  0  3  0  0  0  0  0  0
  192.0560  174.8810  141.9430 S   0  0  0  0  0  0  0  0  0  0  0  0
  192.7340  174.0250  140.6980 C   0  0  0  0  0  0  0  0  0  0  0  0
  196.0310  173.2760  144.0070 C   0  0  0  0  0  3  0  0  0  0  0  0
  193.4370  172.9330  139.0530 N   0  0  0  0  0  0  0  0  0  0  0  0
  193.5190  176.6480  146.6650 N   0  0  0  0  0  2  0  0  0  0  0  0
  195.6370  174.1050  145.0390 C   0  0  0  0  0  3  0  0  0  0  0  0
  192.0940  175.6260  144.9870 C   0  0  2  0  0  3  0  0  0  0  0  0
  190.7090  174.9580  144.7190 C   0  0  1  0  0  3  0  0  0  0  0  0
  190.0050  174.5420  146.0300 C   0  0  0  0  0  2  0  0  0  0  0  0
  194.4950  174.8640  145.2300 C   0  0  0  0  0  0  0  0  0  0  0  0
  193.8450  173.4360  141.0650 C   0  0  0  0  0  0  0  0  0  0  0  0
  187.3280  175.9830  143.5520 C   0  0  0  0  0  0  0  0  0  0  0  0
  189.7890  175.8850  143.9600 C   0  0  0  0  0  0  0  0  0  0  0  0
  187.1330  176.8490  144.6790 N   0  0  0  0  0  2  0  0  0  0  0  0
  186.3600  175.6820  142.8050 O   0  0  0  0  0  0  0  0  0  0  0  0
  190.0120  177.1280  143.9300 O   0  0  0  0  0  0  0  0  0  0  0  0
  188.6050  175.3700  143.3400 N   0  0  0  0  0  2  0  0  0  0  0  0
  185.2970  177.2270  146.1380 C   0  0  0  0  0  2  0  0  0  0  0  0
  185.9170  177.5280  145.0050 C   0  0  0  0  0  0  0  0  0  0  0  0
  185.3420  178.5240  144.1490 N   0  0  0  0  0  2  0  0  0  0  0  0
  184.1310  178.3910  143.4330 N   0  0  0  0  0  2  0  0  0  0  0  0
  185.0020  178.2360  141.2540 O   0  0  0  0  0  0  0  0  0  0  0  0
  182.7240  178.1760  141.4530 O   0  0  0  0  0  1  0  0  0  0  0  0
  183.9960  178.2460  142.0110 C   0  0  0  0  0  0  0  0  0  0  0  0
  1 12  2  0  0  0  0
  2 20  1  0  0  0  0
  3  8  1  0  0  0  0
  4  2  2  0  0  0  0
  5 15  1  0  0  0  0
  6 13  2  0  0  0  0
  7 21  1  0  0  0  0
  9  6  1  0  0  0  0
  9  4  1  0  0  0  0
 10 15  1  0  0  0  0
 10  8  1  6  0  0  0
 11  4  1  0  0  0  0
 12 21  1  0  0  0  0
 12 11  1  0  0  0  0
 13 16  1  0  0  0  0
 14  1  1  0  0  0  0
 14  7  2  0  0  0  0
 16 20  2  0  0  0  0
 17  2  1  1  0  0  0
 17 10  1  0  0  0  0
 18 23  1  1  0  0  0
 18 17  1  0  0  0  0
 18 19  1  0  0  0  0
 19  3  1  0  0  0  0
 20  5  1  0  0  0  0
 21  9  2  0  0  0  0
 22 24  1  0  0  0  0
 24 29  1  0  0  0  0
 25 22  2  0  0  0  0
 26 23  2  0  0  0  0
 27 22  1  0  0  0  0
 27 23  1  0  0  0  0
 29 28  2  0  0  0  0
 30 29  1  0  0  0  0
 31 30  1  0  0  0  0
 32 34  2  0  0  0  0
 33 34  1  0  0  0  0
 34 31  1  0  0  0  0
M  END
>  <MODEL>
7

>  <REMARK>
 VINA RESULT:      -7.2      3.022      8.457
  Name = 
  4 active torsions:
  status: ('A' for Active; 'I' for Inactive)
    1  A    between atoms: N_10  and  C_22
    2  A    between atoms: N_10  and  N_25
    3  A    between atoms: C_12  and  C_28
    4  A    between atoms: N_17  and  C_22
                            x       y       z     vdW  Elec       q    Type
                         _______ _______ _______ _____ _____    ______ ____

>  <TORSDO>
F 4

$$$$
=
 OpenBabel11042415513D

 34 38  0  0  1  0  0  0  0  0999 V2000
  194.8770  175.1830  139.1850 N   0  0  0  0  0  0  0  0  0  0  0  0
  193.9610  175.3990  144.2970 C   0  0  0  0  0  0  0  0  0  0  0  0
  189.7630  175.3230  145.6540 C   0  0  0  0  0  2  0  0  0  0  0  0
  194.4380  175.2450  142.9710 C   0  0  0  0  0  0  0  0  0  0  0  0
  194.3260  175.8090  146.7990 C   0  0  0  0  0  2  0  0  0  0  0  0
  196.6920  174.1800  143.2460 N   0  0  0  0  0  0  0  0  0  0  0  0
  196.6260  174.2770  140.2300 N   0  0  0  0  0  0  0  0  0  0  0  0
  190.7420  176.3450  146.2550 C   0  0  0  0  0  2  0  0  0  0  0  0
  195.6730  174.6890  142.5200 C   0  0  0  0  0  0  0  0  0  0  0  0
  192.1690  175.8840  146.0200 C   0  0  2  0  0  3  0  0  0  0  0  0
  193.5510  175.7530  141.5710 S   0  0  0  0  0  0  0  0  0  0  0  0
  194.7150  175.2420  140.5100 C   0  0  0  0  0  0  0  0  0  0  0  0
  196.8870  174.1860  144.5780 C   0  0  0  0  0  3  0  0  0  0  0  0
  196.0680  174.5830  139.0500 N   0  0  0  0  0  0  0  0  0  0  0  0
  193.1510  176.6720  146.7230 N   0  0  0  0  0  2  0  0  0  0  0  0
  196.0600  174.7440  145.5320 C   0  0  0  0  0  3  0  0  0  0  0  0
  192.5120  175.8680  144.5240 C   0  0  2  0  0  3  0  0  0  0  0  0
  191.4100  175.1270  143.7040 C   0  0  1  0  0  3  0  0  0  0  0  0
  190.4100  174.3840  144.6170 C   0  0  0  0  0  2  0  0  0  0  0  0
  194.8070  175.3250  145.4430 C   0  0  0  0  0  0  0  0  0  0  0  0
  195.7370  174.7090  141.1340 C   0  0  0  0  0  0  0  0  0  0  0  0
  188.2890  176.1990  141.9840 C   0  0  0  0  0  0  0  0  0  0  0  0
  190.6340  176.0890  142.8330 C   0  0  0  0  0  0  0  0  0  0  0  0
  187.8800  177.0080  143.0960 N   0  0  0  0  0  2  0  0  0  0  0  0
  187.4790  175.9330  141.0580 O   0  0  0  0  0  0  0  0  0  0  0  0
  190.8440  177.3320  142.9050 O   0  0  0  0  0  0  0  0  0  0  0  0
  189.5910  175.6010  141.9810 N   0  0  0  0  0  2  0  0  0  0  0  0
  186.3880  178.7610  142.5130 C   0  0  0  0  0  2  0  0  0  0  0  0
  186.6170  177.6670  143.2250 C   0  0  0  0  0  0  0  0  0  0  0  0
  185.5880  177.1870  144.1010 N   0  0  0  0  0  2  0  0  0  0  0  0
  185.5020  177.4470  145.4870 N   0  0  0  0  0  2  0  0  0  0  0  0
  183.6530  178.9020  145.4760 O   0  0  0  0  0  0  0  0  0  0  0  0
  184.6170  178.4850  147.5080 O   0  0  0  0  0  1  0  0  0  0  0  0
  184.5360  178.2910  146.1330 C   0  0  0  0  0  0  0  0  0  0  0  0
  1 12  2  0  0  0  0
  2 20  1  0  0  0  0
  3  8  1  0  0  0  0
  4  2  2  0  0  0  0
  6 13  2  0  0  0  0
  7 21  1  0  0  0  0
  9  4  1  0  0  0  0
  9  6  1  0  0  0  0
 10  8  1  6  0  0  0
 10 15  1  0  0  0  0
 11  4  1  0  0  0  0
 12 21  1  0  0  0  0
 12 11  1  0  0  0  0
 13 16  1  0  0  0  0
 14  1  1  0  0  0  0
 14  7  2  0  0  0  0
 15  5  1  0  0  0  0
 17  2  1  1  0  0  0
 17 10  1  0  0  0  0
 18 23  1  1  0  0  0
 18 17  1  0  0  0  0
 18 19  1  0  0  0  0
 19  3  1  0  0  0  0
 20 16  2  0  0  0  0
 20  5  1  0  0  0  0
 21  9  2  0  0  0  0
 22 24  1  0  0  0  0
 23 26  2  0  0  0  0
 24 29  1  0  0  0  0
 25 22  2  0  0  0  0
 27 22  1  0  0  0  0
 27 23  1  0  0  0  0
 28 29  2  0  0  0  0
 29 30  1  0  0  0  0
 30 31  1  0  0  0  0
 31 34  1  0  0  0  0
 32 34  2  0  0  0  0
 34 33  1  0  0  0  0
M  END
>  <MODEL>
8

>  <REMARK>
 VINA RESULT:      -7.1      3.232      8.678
  Name = 
  4 active torsions:
  status: ('A' for Active; 'I' for Inactive)
    1  A    between atoms: N_10  and  C_22
    2  A    between atoms: N_10  and  N_25
    3  A    between atoms: C_12  and  C_28
    4  A    between atoms: N_17  and  C_22
                            x       y       z     vdW  Elec       q    Type
                         _______ _______ _______ _____ _____    ______ ____

>  <TORSDO>
F 4

$$$$
=
 OpenBabel11042415513D

 34 38  0  0  1  0  0  0  0  0999 V2000
  187.0380  177.4280  147.6200 N   0  0  0  0  0  0  0  0  0  0  0  0
  186.4750  176.9350  142.4770 C   0  0  0  0  0  0  0  0  0  0  0  0
  188.4320  173.5100  140.4970 C   0  0  0  0  0  2  0  0  0  0  0  0
  186.4100  177.2000  143.8670 C   0  0  0  0  0  0  0  0  0  0  0  0
  185.9860  177.5320  140.0340 C   0  0  0  0  0  2  0  0  0  0  0  0
  184.2390  178.4200  144.1610 N   0  0  0  0  0  0  0  0  0  0  0  0
  185.0870  178.3490  147.0570 N   0  0  0  0  0  0  0  0  0  0  0  0
  188.5470  174.9160  139.8840 C   0  0  0  0  0  2  0  0  0  0  0  0
  185.3890  177.8690  144.6070 C   0  0  0  0  0  0  0  0  0  0  0  0
  187.4410  175.8020  140.4280 C   0  0  2  0  0  3  0  0  0  0  0  0
  187.6500  176.7390  144.9880 S   0  0  0  0  0  0  0  0  0  0  0  0
  186.8520  177.3630  146.2990 C   0  0  0  0  0  0  0  0  0  0  0  0
  183.8090  178.6150  142.9000 C   0  0  0  0  0  3  0  0  0  0  0  0
  185.9300  178.0440  148.0540 N   0  0  0  0  0  0  0  0  0  0  0  0
  187.3450  177.0760  139.7590 N   0  0  0  0  0  2  0  0  0  0  0  0
  184.4810  178.2910  141.7390 C   0  0  0  0  0  3  0  0  0  0  0  0
  187.6020  176.0340  141.9360 C   0  0  2  0  0  3  0  0  0  0  0  0
  187.8310  174.6880  142.6900 C   0  0  1  0  0  3  0  0  0  0  0  0
  187.5790  173.4650  141.7810 C   0  0  0  0  0  2  0  0  0  0  0  0
  185.6640  177.6070  141.5160 C   0  0  0  0  0  0  0  0  0  0  0  0
  185.7060  177.8990  145.9570 C   0  0  0  0  0  0  0  0  0  0  0  0
  190.8580  176.2150  144.2230 C   0  0  0  0  0  0  0  0  0  0  0  0
  189.2390  174.5940  143.2320 C   0  0  0  0  0  0  0  0  0  0  0  0
  190.4150  175.9090  145.5530 N   0  0  0  0  0  2  0  0  0  0  0  0
  191.8190  177.0070  144.0390 O   0  0  0  0  0  0  0  0  0  0  0  0
  189.6130  173.5720  143.8720 O   0  0  0  0  0  0  0  0  0  0  0  0
  190.1330  175.7050  143.0980 N   0  0  0  0  0  2  0  0  0  0  0  0
  190.5240  177.3670  147.4240 C   0  0  0  0  0  2  0  0  0  0  0  0
  191.0460  176.3460  146.7600 C   0  0  0  0  0  0  0  0  0  0  0  0
  192.2270  175.7190  147.2780 N   0  0  0  0  0  2  0  0  0  0  0  0
  193.3370  175.3000  146.5130 N   0  0  0  0  0  2  0  0  0  0  0  0
  194.5660  177.3050  146.5120 O   0  0  0  0  0  1  0  0  0  0  0  0
  195.4660  175.5520  145.3510 O   0  0  0  0  0  0  0  0  0  0  0  0
  194.4750  176.1020  146.1570 C   0  0  0  0  0  0  0  0  0  0  0  0
  1 14  1  0  0  0  0
  2  4  2  0  0  0  0
  3 19  1  0  0  0  0
  4  9  1  0  0  0  0
  4 11  1  0  0  0  0
  5 20  1  0  0  0  0
  6  9  1  0  0  0  0
  7 14  2  0  0  0  0
  8  3  1  0  0  0  0
  9 21  2  0  0  0  0
 10  8  1  6  0  0  0
 10 17  1  0  0  0  0
 11 12  1  0  0  0  0
 12  1  2  0  0  0  0
 13  6  2  0  0  0  0
 15  5  1  0  0  0  0
 15 10  1  0  0  0  0
 16 13  1  0  0  0  0
 17  2  1  1  0  0  0
 17 18  1  0  0  0  0
 18 23  1  6  0  0  0
 19 18  1  0  0  0  0
 20 16  2  0  0  0  0
 20  2  1  0  0  0  0
 21 12  1  0  0  0  0
 21  7  1  0  0  0  0
 22 24  1  0  0  0  0
 23 26  2  0  0  0  0
 24 29  1  0  0  0  0
 25 22  2  0  0  0  0
 27 23  1  0  0  0  0
 27 22  1  0  0  0  0
 29 30  1  0  0  0  0
 29 28  2  0  0  0  0
 31 30  1  0  0  0  0
 33 34  2  0  0  0  0
 34 32  1  0  0  0  0
 34 31  1  0  0  0  0
M  END
>  <MODEL>
9

>  <REMARK>
 VINA RESULT:      -7.0      2.181      4.650
  Name = 
  4 active torsions:
  status: ('A' for Active; 'I' for Inactive)
    1  A    between atoms: N_10  and  C_22
    2  A    between atoms: N_10  and  N_25
    3  A    between atoms: C_12  and  C_28
    4  A    between atoms: N_17  and  C_22
                            x       y       z     vdW  Elec       q    Type
                         _______ _______ _______ _____ _____    ______ ____

>  <TORSDO>
F 4

$$$$
