=
 OpenBabel11042416573D

 35 36  0  0  1  0  0  0  0  0999 V2000
  189.5990  174.9380  143.8080 C   0  0  1  0  0  3  0  0  0  0  0  0
  189.0890  173.8340  141.7500 O   0  0  0  0  0  0  0  0  0  0  0  0
  188.6710  174.5850  142.6750 C   0  0  0  0  0  0  0  0  0  0  0  0
  187.3820  175.1210  142.6130 O   0  0  0  0  0  0  0  0  0  0  0  0
  187.1310  176.3490  141.9470 C   0  0  0  0  0  2  0  0  0  0  0  0
  184.4830  177.9310  146.3940 C   0  0  0  0  0  3  0  0  0  0  0  0
  188.1930  178.2290  144.1330 N   0  0  0  0  0  1  0  0  0  0  0  0
  184.4780  178.2720  143.9710 C   0  0  0  0  0  0  0  0  0  0  0  0
  185.8940  176.9980  142.4850 C   0  0  0  0  0  3  0  0  0  0  0  0
  186.9310  177.7420  144.5900 C   0  0  0  0  0  0  0  0  0  0  0  0
  184.0580  178.5300  145.3230 N   0  0  0  0  0  0  0  0  0  0  0  0
  186.7950  177.3430  145.8610 C   0  0  0  0  0  0  0  0  0  0  0  0
  185.4860  176.8280  146.3610 C   0  0  0  0  0  2  0  0  0  0  0  0
  183.6950  178.5830  143.0340 O   0  0  0  0  0  0  0  0  0  0  0  0
  185.7970  177.6760  143.6340 C   0  0  0  0  0  0  0  0  0  0  0  0
  187.9220  177.4450  146.8340 C   0  0  0  0  0  1  0  0  0  0  0  0
  189.4790  174.3410  146.2470 C   0  0  0  0  0  1  0  0  0  0  0  0
  189.6860  173.8000  144.8400 C   0  0  2  0  0  3  0  0  0  0  0  0
  190.9920  173.1650  144.7880 N   0  0  0  0  0  2  0  0  0  0  0  0
  190.3230  171.3660  143.4550 O   0  0  0  0  0  0  0  0  0  0  0  0
  191.2650  172.0140  143.9850 C   0  0  0  0  0  0  0  0  0  0  0  0
  192.6770  171.5920  143.7710 C   0  0  0  0  0  2  0  0  0  0  0  0
  193.5750  172.2670  144.7930 C   0  0  0  0  0  2  0  0  0  0  0  0
  194.4620  173.3060  144.1240 C   0  0  0  0  0  2  0  0  0  0  0  0
  193.4600  175.8810  146.7090 C   0  0  0  0  0  3  0  0  0  0  0  0
  194.2320  176.9830  146.3310 C   0  0  0  0  0  3  0  0  0  0  0  0
  195.1400  175.7240  144.4660 C   0  0  0  0  0  0  0  0  0  0  0  0
  194.3720  174.6060  144.8550 C   0  0  0  0  0  0  0  0  0  0  0  0
  193.5350  174.6970  145.9740 C   0  0  0  0  0  3  0  0  0  0  0  0
  195.0690  176.9050  145.2130 C   0  0  0  0  0  3  0  0  0  0  0  0
  196.0640  175.6760  143.2940 C   0  0  0  0  0  2  0  0  0  0  0  0
  196.8130  176.9190  143.2050 N   0  0  0  0  0  1  0  0  0  0  0  0
  190.9730  175.3080  143.2620 C   0  0  0  0  0  2  0  0  0  0  0  0
  191.6420  177.3590  143.7120 C   0  0  0  0  0  1  0  0  0  0  0  0
  190.9430  176.6110  142.7640 O   0  0  0  0  0  0  0  0  0  0  0  0
  1 33  1  6  0  0  0
  1 18  1  0  0  0  0
  2  3  2  0  0  0  0
  3  1  1  0  0  0  0
  4  3  1  0  0  0  0
  5  9  1  0  0  0  0
  5  4  1  0  0  0  0
  7 10  1  0  0  0  0
  8 11  1  0  0  0  0
  9 15  2  0  0  0  0
 10 12  2  0  0  0  0
 11  6  2  0  0  0  0
 12 13  1  0  0  0  0
 12 16  1  0  0  0  0
 13  6  1  0  0  0  0
 14  8  2  0  0  0  0
 15  8  1  0  0  0  0
 15 10  1  0  0  0  0
 18 17  1  1  0  0  0
 19 18  1  0  0  0  0
 20 21  2  0  0  0  0
 21 19  1  0  0  0  0
 22 21  1  0  0  0  0
 22 23  1  0  0  0  0
 24 23  1  0  0  0  0
 24 28  1  0  0  0  0
 26 25  1  0  0  0  0
 27 28  2  0  0  0  0
 27 30  1  0  0  0  0
 28 29  1  0  0  0  0
 29 25  2  0  0  0  0
 30 26  2  0  0  0  0
 31 27  1  0  0  0  0
 32 31  1  0  0  0  0
 35 33  1  0  0  0  0
 35 34  1  0  0  0  0
M  END
>  <MODEL>
1

>  <REMARK>
 VINA RESULT:      -6.6      0.000      0.000
  Name = 
  13 active torsions:
  status: ('A' for Active; 'I' for Inactive)
    1  A    between atoms: O_4  and  C_8
    2  A    between atoms: O_4  and  C_24
    3  A    between atoms: C_5  and  C_11
    4  A    between atoms: N_7  and  C_34
    5  A    between atoms: C_8  and  C_30
    6  A    between atoms: C_14  and  C_24
    7  A    between atoms: C_16  and  C_22
    8  A    between atoms: C_17  and  C_18
    9  A    between atoms: C_17  and  C_19
   10  A    between atoms: C_18  and  C_22
   11  A    between atoms: O_28  and  C_35
   12  A    between atoms: C_30  and  C_34
   13  A    between atoms: C_30  and  C_35
                            x       y       z     vdW  Elec       q    Type
                         _______ _______ _______ _____ _____    ______ ____

>  <TORSDO>
F 13

$$$$
=
 OpenBabel11042416573D

 35 36  0  0  1  0  0  0  0  0999 V2000
  192.9100  175.0750  146.1230 C   0  0  1  0  0  3  0  0  0  0  0  0
  193.7080  172.8480  145.7790 O   0  0  0  0  0  0  0  0  0  0  0  0
  192.9480  173.7720  145.3700 C   0  0  0  0  0  0  0  0  0  0  0  0
  192.2000  173.5970  144.2040 O   0  0  0  0  0  0  0  0  0  0  0  0
  190.9850  172.8630  144.2160 C   0  0  0  0  0  2  0  0  0  0  0  0
  189.3200  173.7090  139.1360 C   0  0  0  0  0  3  0  0  0  0  0  0
  190.3220  170.7070  142.1280 N   0  0  0  0  0  1  0  0  0  0  0  0
  188.5170  173.8860  141.4420 C   0  0  0  0  0  0  0  0  0  0  0  0
  189.9620  173.5200  143.3430 C   0  0  0  0  0  3  0  0  0  0  0  0
  190.2480  171.9650  141.4570 C   0  0  0  0  0  0  0  0  0  0  0  0
  188.3820  173.9240  140.0090 N   0  0  0  0  0  0  0  0  0  0  0  0
  190.7930  172.1010  140.2410 C   0  0  0  0  0  0  0  0  0  0  0  0
  190.7290  173.4060  139.5190 C   0  0  0  0  0  2  0  0  0  0  0  0
  187.6890  174.5330  142.1360 O   0  0  0  0  0  0  0  0  0  0  0  0
  189.5750  173.1030  142.1330 C   0  0  0  0  0  0  0  0  0  0  0  0
  191.4340  170.9480  139.5420 C   0  0  0  0  0  1  0  0  0  0  0  0
  194.3950  177.1030  146.1040 C   0  0  0  0  0  1  0  0  0  0  0  0
  193.4620  176.2330  145.2750 C   0  0  2  0  0  3  0  0  0  0  0  0
  192.3780  177.0700  144.7890 N   0  0  0  0  0  2  0  0  0  0  0  0
  192.6180  176.4790  142.5400 O   0  0  0  0  0  0  0  0  0  0  0  0
  191.9370  177.0580  143.4290 C   0  0  0  0  0  0  0  0  0  0  0  0
  190.6560  177.7290  143.0710 C   0  0  0  0  0  2  0  0  0  0  0  0
  189.5860  177.3660  144.0850 C   0  0  0  0  0  2  0  0  0  0  0  0
  188.2030  177.7100  143.5530 C   0  0  0  0  0  2  0  0  0  0  0  0
  186.6340  176.7270  146.8520 C   0  0  0  0  0  3  0  0  0  0  0  0
  185.3340  177.2180  146.7100 C   0  0  0  0  0  3  0  0  0  0  0  0
  185.8610  178.0020  144.4760 C   0  0  0  0  0  0  0  0  0  0  0  0
  187.1780  177.5200  144.6230 C   0  0  0  0  0  0  0  0  0  0  0  0
  187.5520  176.8820  145.8120 C   0  0  0  0  0  3  0  0  0  0  0  0
  184.9480  177.8540  145.5260 C   0  0  0  0  0  3  0  0  0  0  0  0
  185.4150  178.7080  143.2370 C   0  0  0  0  0  2  0  0  0  0  0  0
  184.6210  177.8080  142.4160 N   0  0  0  0  0  1  0  0  0  0  0  0
  191.4920  175.3590  146.6060 C   0  0  0  0  0  2  0  0  0  0  0  0
  191.3050  176.8030  148.2600 C   0  0  0  0  0  1  0  0  0  0  0  0
  191.4800  175.4430  147.9980 O   0  0  0  0  0  0  0  0  0  0  0  0
  1 33  1  6  0  0  0
  3  2  2  0  0  0  0
  3  1  1  0  0  0  0
  4  5  1  0  0  0  0
  4  3  1  0  0  0  0
  6 13  1  0  0  0  0
  6 11  2  0  0  0  0
  8 15  1  0  0  0  0
  8 14  2  0  0  0  0
  9  5  1  0  0  0  0
 10  7  1  0  0  0  0
 10 15  1  0  0  0  0
 11  8  1  0  0  0  0
 12 10  2  0  0  0  0
 13 12  1  0  0  0  0
 15  9  2  0  0  0  0
 16 12  1  0  0  0  0
 18 17  1  1  0  0  0
 18  1  1  0  0  0  0
 19 18  1  0  0  0  0
 20 21  2  0  0  0  0
 21 19  1  0  0  0  0
 22 21  1  0  0  0  0
 22 23  1  0  0  0  0
 24 23  1  0  0  0  0
 24 28  1  0  0  0  0
 26 25  1  0  0  0  0
 27 28  2  0  0  0  0
 27 30  1  0  0  0  0
 28 29  1  0  0  0  0
 29 25  2  0  0  0  0
 30 26  2  0  0  0  0
 31 27  1  0  0  0  0
 32 31  1  0  0  0  0
 33 35  1  0  0  0  0
 35 34  1  0  0  0  0
M  END
>  <MODEL>
2

>  <REMARK>
 VINA RESULT:      -6.6      2.626      7.292
  Name = 
  13 active torsions:
  status: ('A' for Active; 'I' for Inactive)
    1  A    between atoms: O_4  and  C_8
    2  A    between atoms: O_4  and  C_24
    3  A    between atoms: C_5  and  C_11
    4  A    between atoms: N_7  and  C_34
    5  A    between atoms: C_8  and  C_30
    6  A    between atoms: C_14  and  C_24
    7  A    between atoms: C_16  and  C_22
    8  A    between atoms: C_17  and  C_18
    9  A    between atoms: C_17  and  C_19
   10  A    between atoms: C_18  and  C_22
   11  A    between atoms: O_28  and  C_35
   12  A    between atoms: C_30  and  C_34
   13  A    between atoms: C_30  and  C_35
                            x       y       z     vdW  Elec       q    Type
                         _______ _______ _______ _____ _____    ______ ____

>  <TORSDO>
F 13

$$$$
=
 OpenBabel11042416573D

 35 36  0  0  1  0  0  0  0  0999 V2000
  191.9400  174.3500  145.5160 C   0  0  1  0  0  3  0  0  0  0  0  0
  193.6440  172.6790  145.3850 O   0  0  0  0  0  0  0  0  0  0  0  0
  192.6760  173.2460  144.8040 C   0  0  0  0  0  0  0  0  0  0  0  0
  192.3340  172.8840  143.4990 O   0  0  0  0  0  0  0  0  0  0  0  0
  193.3330  172.6340  142.5220 C   0  0  0  0  0  2  0  0  0  0  0  0
  196.7440  176.7910  143.1380 C   0  0  0  0  0  3  0  0  0  0  0  0
  196.3780  172.4580  142.9010 N   0  0  0  0  0  1  0  0  0  0  0  0
  195.3630  175.7180  141.4250 C   0  0  0  0  0  0  0  0  0  0  0  0
  193.8360  173.9180  141.9410 C   0  0  0  0  0  3  0  0  0  0  0  0
  196.0240  173.8310  143.0650 C   0  0  0  0  0  0  0  0  0  0  0  0
  196.3420  176.6550  141.9100 N   0  0  0  0  0  0  0  0  0  0  0  0
  196.5590  174.5390  144.0690 C   0  0  0  0  0  0  0  0  0  0  0  0
  196.2020  175.9750  144.2620 C   0  0  0  0  0  2  0  0  0  0  0  0
  194.7580  175.9880  140.3540 O   0  0  0  0  0  0  0  0  0  0  0  0
  195.0530  174.4410  142.1220 C   0  0  0  0  0  0  0  0  0  0  0  0
  197.5650  173.9390  144.9940 C   0  0  0  0  0  1  0  0  0  0  0  0
  193.4340  176.0800  146.5620 C   0  0  0  0  0  1  0  0  0  0  0  0
  192.6360  175.7080  145.3210 C   0  0  2  0  0  3  0  0  0  0  0  0
  191.6540  176.7530  145.0860 N   0  0  0  0  0  2  0  0  0  0  0  0
  192.2140  177.0960  142.8430 O   0  0  0  0  0  0  0  0  0  0  0  0
  191.4200  177.3230  143.7950 C   0  0  0  0  0  0  0  0  0  0  0  0
  190.2210  178.1800  143.5830 C   0  0  0  0  0  2  0  0  0  0  0  0
  189.1980  177.9130  144.6730 C   0  0  0  0  0  2  0  0  0  0  0  0
  187.8650  177.4990  144.0690 C   0  0  0  0  0  2  0  0  0  0  0  0
  185.8920  177.6670  147.2930 C   0  0  0  0  0  3  0  0  0  0  0  0
  184.7570  178.3790  146.8980 C   0  0  0  0  0  3  0  0  0  0  0  0
  185.6010  178.4920  144.6270 C   0  0  0  0  0  0  0  0  0  0  0  0
  186.7550  177.7860  145.0270 C   0  0  0  0  0  0  0  0  0  0  0  0
  186.8880  177.3760  146.3590 C   0  0  0  0  0  3  0  0  0  0  0  0
  184.6110  178.7910  145.5700 C   0  0  0  0  0  3  0  0  0  0  0  0
  185.4180  178.9710  143.2240 C   0  0  0  0  0  2  0  0  0  0  0  0
  184.2860  178.2900  142.6150 N   0  0  0  0  0  1  0  0  0  0  0  0
  190.4870  174.3920  145.0570 C   0  0  0  0  0  2  0  0  0  0  0  0
  189.3130  174.6400  146.9060 C   0  0  0  0  0  1  0  0  0  0  0  0
  189.6910  173.6860  145.9600 O   0  0  0  0  0  0  0  0  0  0  0  0
  1 33  1  6  0  0  0
  3  2  2  0  0  0  0
  3  1  1  0  0  0  0
  4  3  1  0  0  0  0
  5  4  1  0  0  0  0
  6 13  1  0  0  0  0
  7 10  1  0  0  0  0
  8 11  1  0  0  0  0
  8 15  1  0  0  0  0
  9 15  2  0  0  0  0
  9  5  1  0  0  0  0
 10 12  2  0  0  0  0
 11  6  2  0  0  0  0
 12 13  1  0  0  0  0
 12 16  1  0  0  0  0
 14  8  2  0  0  0  0
 15 10  1  0  0  0  0
 18  1  1  0  0  0  0
 18 17  1  1  0  0  0
 19 18  1  0  0  0  0
 20 21  2  0  0  0  0
 21 19  1  0  0  0  0
 22 21  1  0  0  0  0
 22 23  1  0  0  0  0
 24 23  1  0  0  0  0
 24 28  1  0  0  0  0
 26 25  1  0  0  0  0
 27 28  2  0  0  0  0
 27 30  1  0  0  0  0
 28 29  1  0  0  0  0
 29 25  2  0  0  0  0
 30 26  2  0  0  0  0
 31 27  1  0  0  0  0
 32 31  1  0  0  0  0
 33 35  1  0  0  0  0
 35 34  1  0  0  0  0
M  END
>  <MODEL>
3

>  <REMARK>
 VINA RESULT:      -6.4      2.450      8.520
  Name = 
  13 active torsions:
  status: ('A' for Active; 'I' for Inactive)
    1  A    between atoms: O_4  and  C_8
    2  A    between atoms: O_4  and  C_24
    3  A    between atoms: C_5  and  C_11
    4  A    between atoms: N_7  and  C_34
    5  A    between atoms: C_8  and  C_30
    6  A    between atoms: C_14  and  C_24
    7  A    between atoms: C_16  and  C_22
    8  A    between atoms: C_17  and  C_18
    9  A    between atoms: C_17  and  C_19
   10  A    between atoms: C_18  and  C_22
   11  A    between atoms: O_28  and  C_35
   12  A    between atoms: C_30  and  C_34
   13  A    between atoms: C_30  and  C_35
                            x       y       z     vdW  Elec       q    Type
                         _______ _______ _______ _____ _____    ______ ____

>  <TORSDO>
F 13

$$$$
=
 OpenBabel11042416573D

 35 36  0  0  1  0  0  0  0  0999 V2000
  188.9820  173.9140  140.9770 C   0  0  1  0  0  3  0  0  0  0  0  0
  187.2830  172.5230  141.9210 O   0  0  0  0  0  0  0  0  0  0  0  0
  187.7900  173.6790  141.8670 C   0  0  0  0  0  0  0  0  0  0  0  0
  187.2150  174.7300  142.5850 O   0  0  0  0  0  0  0  0  0  0  0  0
  187.2740  176.0650  142.1040 C   0  0  0  0  0  2  0  0  0  0  0  0
  184.4420  177.9520  146.3130 C   0  0  0  0  0  3  0  0  0  0  0  0
  188.3320  177.8660  144.3580 N   0  0  0  0  0  1  0  0  0  0  0  0
  184.6630  178.2590  143.8940 C   0  0  0  0  0  0  0  0  0  0  0  0
  186.0660  176.8360  142.5370 C   0  0  0  0  0  3  0  0  0  0  0  0
  186.9970  177.5070  144.7140 C   0  0  0  0  0  0  0  0  0  0  0  0
  184.1640  178.5740  145.2070 N   0  0  0  0  0  0  0  0  0  0  0  0
  186.7220  177.1400  145.9720 C   0  0  0  0  0  0  0  0  0  0  0  0
  185.3350  176.7590  146.3680 C   0  0  0  0  0  2  0  0  0  0  0  0
  183.9910  178.6280  142.8960 O   0  0  0  0  0  0  0  0  0  0  0  0
  185.9420  177.5350  143.6690 C   0  0  0  0  0  0  0  0  0  0  0  0
  187.7720  177.1500  147.0330 C   0  0  0  0  0  1  0  0  0  0  0  0
  190.5480  171.9670  141.2470 C   0  0  0  0  0  1  0  0  0  0  0  0
  190.2810  173.4140  141.6310 C   0  0  2  0  0  3  0  0  0  0  0  0
  190.1820  173.4850  143.0800 N   0  0  0  0  0  2  0  0  0  0  0  0
  191.1390  175.6090  143.2730 O   0  0  0  0  0  0  0  0  0  0  0  0
  190.5240  174.6570  143.8240 C   0  0  0  0  0  0  0  0  0  0  0  0
  190.1380  174.7470  145.2600 C   0  0  0  0  0  2  0  0  0  0  0  0
  191.0350  175.7450  145.9720 C   0  0  0  0  0  2  0  0  0  0  0  0
  192.1990  175.0350  146.6470 C   0  0  0  0  0  2  0  0  0  0  0  0
  195.1000  176.7600  144.9380 C   0  0  0  0  0  3  0  0  0  0  0  0
  195.8440  175.6750  144.4670 C   0  0  0  0  0  3  0  0  0  0  0  0
  194.1950  174.1390  145.3680 C   0  0  0  0  0  0  0  0  0  0  0  0
  193.4510  175.2340  145.8560 C   0  0  0  0  0  0  0  0  0  0  0  0
  193.9100  176.5370  145.6330 C   0  0  0  0  0  3  0  0  0  0  0  0
  195.3930  174.3680  144.6820 C   0  0  0  0  0  3  0  0  0  0  0  0
  193.7610  172.7280  145.5950 C   0  0  0  0  0  2  0  0  0  0  0  0
  193.2050  172.1800  144.3680 N   0  0  0  0  0  1  0  0  0  0  0  0
  188.7530  173.2690  139.6150 C   0  0  0  0  0  2  0  0  0  0  0  0
  188.5580  174.0620  137.5680 C   0  0  0  0  0  1  0  0  0  0  0  0
  189.4500  173.9800  138.6380 O   0  0  0  0  0  0  0  0  0  0  0  0
  1 33  1  6  0  0  0
  1 18  1  0  0  0  0
  1  3  1  0  0  0  0
  3  2  2  0  0  0  0
  3  4  1  0  0  0  0
  5  9  1  0  0  0  0
  5  4  1  0  0  0  0
  6 13  1  0  0  0  0
  7 10  1  0  0  0  0
  8 11  1  0  0  0  0
  9 15  2  0  0  0  0
 10 12  2  0  0  0  0
 11  6  2  0  0  0  0
 12 13  1  0  0  0  0
 12 16  1  0  0  0  0
 14  8  2  0  0  0  0
 15  8  1  0  0  0  0
 15 10  1  0  0  0  0
 18 17  1  1  0  0  0
 18 19  1  0  0  0  0
 19 21  1  0  0  0  0
 20 21  2  0  0  0  0
 21 22  1  0  0  0  0
 22 23  1  0  0  0  0
 23 24  1  0  0  0  0
 25 29  1  0  0  0  0
 26 30  1  0  0  0  0
 26 25  2  0  0  0  0
 27 31  1  0  0  0  0
 27 28  1  0  0  0  0
 28 24  1  0  0  0  0
 29 28  2  0  0  0  0
 30 27  2  0  0  0  0
 32 31  1  0  0  0  0
 34 35  1  0  0  0  0
 35 33  1  0  0  0  0
M  END
>  <MODEL>
4

>  <REMARK>
 VINA RESULT:      -6.4      1.667      3.105
  Name = 
  13 active torsions:
  status: ('A' for Active; 'I' for Inactive)
    1  A    between atoms: O_4  and  C_8
    2  A    between atoms: O_4  and  C_24
    3  A    between atoms: C_5  and  C_11
    4  A    between atoms: N_7  and  C_34
    5  A    between atoms: C_8  and  C_30
    6  A    between atoms: C_14  and  C_24
    7  A    between atoms: C_16  and  C_22
    8  A    between atoms: C_17  and  C_18
    9  A    between atoms: C_17  and  C_19
   10  A    between atoms: C_18  and  C_22
   11  A    between atoms: O_28  and  C_35
   12  A    between atoms: C_30  and  C_34
   13  A    between atoms: C_30  and  C_35
                            x       y       z     vdW  Elec       q    Type
                         _______ _______ _______ _____ _____    ______ ____

>  <TORSDO>
F 13

$$$$
=
 OpenBabel11042416573D

 35 36  0  0  1  0  0  0  0  0999 V2000
  192.4420  176.8040  144.7840 C   0  0  1  0  0  3  0  0  0  0  0  0
  191.4990  177.8660  142.8610 O   0  0  0  0  0  0  0  0  0  0  0  0
  191.3320  177.5250  144.0660 C   0  0  0  0  0  0  0  0  0  0  0  0
  190.1510  177.8630  144.7320 O   0  0  0  0  0  0  0  0  0  0  0  0
  188.9070  177.2930  144.3520 C   0  0  0  0  0  2  0  0  0  0  0  0
  183.8750  178.7100  145.7530 C   0  0  0  0  0  3  0  0  0  0  0  0
  186.3000  176.2400  143.1110 N   0  0  0  0  0  1  0  0  0  0  0  0
  185.7800  177.4270  146.5970 C   0  0  0  0  0  0  0  0  0  0  0  0
  187.9170  177.3970  145.4700 C   0  0  0  0  0  3  0  0  0  0  0  0
  185.9310  177.2770  144.0200 C   0  0  0  0  0  0  0  0  0  0  0  0
  184.4250  177.9110  146.6170 N   0  0  0  0  0  0  0  0  0  0  0  0
  185.0150  178.1830  143.6560 C   0  0  0  0  0  0  0  0  0  0  0  0
  184.6140  179.2770  144.5890 C   0  0  0  0  0  2  0  0  0  0  0  0
  186.2950  177.0520  147.6840 O   0  0  0  0  0  0  0  0  0  0  0  0
  186.5870  177.3330  145.3520 C   0  0  0  0  0  0  0  0  0  0  0  0
  184.3260  178.1060  142.3340 C   0  0  0  0  0  1  0  0  0  0  0  0
  192.9660  175.4140  146.8120 C   0  0  0  0  0  1  0  0  0  0  0  0
  191.8900  175.7950  145.8060 C   0  0  2  0  0  3  0  0  0  0  0  0
  191.4480  174.5830  145.1380 N   0  0  0  0  0  2  0  0  0  0  0  0
  189.4920  174.3270  146.3910 O   0  0  0  0  0  0  0  0  0  0  0  0
  190.1850  173.9670  145.4030 C   0  0  0  0  0  0  0  0  0  0  0  0
  189.6890  172.8990  144.4900 C   0  0  0  0  0  2  0  0  0  0  0  0
  189.2170  173.5160  143.1860 C   0  0  0  0  0  2  0  0  0  0  0  0
  188.6050  172.4570  142.2810 C   0  0  0  0  0  2  0  0  0  0  0  0
  188.8660  173.9610  138.8200 C   0  0  0  0  0  3  0  0  0  0  0  0
  189.8840  173.1930  138.2490 C   0  0  0  0  0  3  0  0  0  0  0  0
  190.0590  171.8880  140.2860 C   0  0  0  0  0  0  0  0  0  0  0  0
  189.0420  172.6710  140.8690 C   0  0  0  0  0  0  0  0  0  0  0  0
  188.4510  173.7010  140.1270 C   0  0  0  0  0  3  0  0  0  0  0  0
  190.4800  172.1600  138.9790 C   0  0  0  0  0  3  0  0  0  0  0  0
  190.7370  170.7910  141.0390 C   0  0  0  0  0  2  0  0  0  0  0  0
  191.2720  169.8100  140.1070 N   0  0  0  0  0  1  0  0  0  0  0  0
  193.3680  176.1320  143.7760 C   0  0  0  0  0  2  0  0  0  0  0  0
  195.3940  176.0510  142.9140 C   0  0  0  0  0  1  0  0  0  0  0  0
  194.6840  176.5230  144.0190 O   0  0  0  0  0  0  0  0  0  0  0  0
  1 33  1  6  0  0  0
  1 18  1  0  0  0  0
  2  3  2  0  0  0  0
  3  4  1  0  0  0  0
  3  1  1  0  0  0  0
  5  4  1  0  0  0  0
  5  9  1  0  0  0  0
  6 11  2  0  0  0  0
  7 10  1  0  0  0  0
  8 11  1  0  0  0  0
  8 14  2  0  0  0  0
 10 15  1  0  0  0  0
 12 10  2  0  0  0  0
 12 13  1  0  0  0  0
 13  6  1  0  0  0  0
 15  9  2  0  0  0  0
 15  8  1  0  0  0  0
 16 12  1  0  0  0  0
 18 17  1  1  0  0  0
 19 21  1  0  0  0  0
 19 18  1  0  0  0  0
 21 20  2  0  0  0  0
 22 21  1  0  0  0  0
 23 22  1  0  0  0  0
 24 23  1  0  0  0  0
 25 29  1  0  0  0  0
 26 25  2  0  0  0  0
 26 30  1  0  0  0  0
 27 28  1  0  0  0  0
 27 31  1  0  0  0  0
 28 24  1  0  0  0  0
 29 28  2  0  0  0  0
 30 27  2  0  0  0  0
 32 31  1  0  0  0  0
 33 35  1  0  0  0  0
 34 35  1  0  0  0  0
M  END
>  <MODEL>
5

>  <REMARK>
 VINA RESULT:      -6.4      2.676      5.214
  Name = 
  13 active torsions:
  status: ('A' for Active; 'I' for Inactive)
    1  A    between atoms: O_4  and  C_8
    2  A    between atoms: O_4  and  C_24
    3  A    between atoms: C_5  and  C_11
    4  A    between atoms: N_7  and  C_34
    5  A    between atoms: C_8  and  C_30
    6  A    between atoms: C_14  and  C_24
    7  A    between atoms: C_16  and  C_22
    8  A    between atoms: C_17  and  C_18
    9  A    between atoms: C_17  and  C_19
   10  A    between atoms: C_18  and  C_22
   11  A    between atoms: O_28  and  C_35
   12  A    between atoms: C_30  and  C_34
   13  A    between atoms: C_30  and  C_35
                            x       y       z     vdW  Elec       q    Type
                         _______ _______ _______ _____ _____    ______ ____

>  <TORSDO>
F 13

$$$$
=
 OpenBabel11042416573D

 35 36  0  0  1  0  0  0  0  0999 V2000
  190.0470  174.3760  142.7160 C   0  0  1  0  0  3  0  0  0  0  0  0
  188.6640  174.7080  140.7950 O   0  0  0  0  0  0  0  0  0  0  0  0
  188.8900  175.0190  141.9990 C   0  0  0  0  0  0  0  0  0  0  0  0
  188.1050  175.9870  142.6310 O   0  0  0  0  0  0  0  0  0  0  0  0
  188.3130  177.3700  142.3910 C   0  0  0  0  0  2  0  0  0  0  0  0
  184.9410  177.9500  146.5840 C   0  0  0  0  0  3  0  0  0  0  0  0
  189.1050  177.6300  145.3490 N   0  0  0  0  0  1  0  0  0  0  0  0
  185.8040  179.2030  144.6670 C   0  0  0  0  0  0  0  0  0  0  0  0
  187.2030  178.1810  142.9830 C   0  0  0  0  0  3  0  0  0  0  0  0
  187.6800  177.5450  145.3120 C   0  0  0  0  0  0  0  0  0  0  0  0
  185.0660  179.0420  145.8920 N   0  0  0  0  0  0  0  0  0  0  0  0
  187.0400  176.7610  146.1900 C   0  0  0  0  0  0  0  0  0  0  0  0
  185.5510  176.6540  146.1700 C   0  0  0  0  0  2  0  0  0  0  0  0
  185.4800  180.1430  143.8950 O   0  0  0  0  0  0  0  0  0  0  0  0
  186.9390  178.3220  144.2860 C   0  0  0  0  0  0  0  0  0  0  0  0
  187.7790  176.0110  147.2470 C   0  0  0  0  0  1  0  0  0  0  0  0
  192.2870  174.9130  141.7090 C   0  0  0  0  0  1  0  0  0  0  0  0
  191.2680  175.3100  142.7660 C   0  0  2  0  0  3  0  0  0  0  0  0
  191.9140  175.2340  144.0660 N   0  0  0  0  0  2  0  0  0  0  0  0
  192.3280  177.5260  144.2550 O   0  0  0  0  0  0  0  0  0  0  0  0
  192.3170  176.3910  144.8030 C   0  0  0  0  0  0  0  0  0  0  0  0
  192.7150  176.2450  146.2310 C   0  0  0  0  0  2  0  0  0  0  0  0
  194.2140  176.4430  146.3690 C   0  0  0  0  0  2  0  0  0  0  0  0
  194.9560  175.1490  146.0720 C   0  0  0  0  0  2  0  0  0  0  0  0
  196.6990  176.7760  143.1350 C   0  0  0  0  0  3  0  0  0  0  0  0
  197.5340  175.7470  142.6900 C   0  0  0  0  0  3  0  0  0  0  0  0
  196.6680  174.2800  144.4170 C   0  0  0  0  0  0  0  0  0  0  0  0
  195.8350  175.3220  144.8770 C   0  0  0  0  0  0  0  0  0  0  0  0
  195.8570  176.5620  144.2270 C   0  0  0  0  0  3  0  0  0  0  0  0
  197.5190  174.5030  143.3290 C   0  0  0  0  0  3  0  0  0  0  0  0
  196.6990  172.9450  145.0860 C   0  0  0  0  0  2  0  0  0  0  0  0
  197.8750  172.2050  144.6550 N   0  0  0  0  0  1  0  0  0  0  0  0
  189.6190  173.9360  144.1120 C   0  0  0  0  0  2  0  0  0  0  0  0
  190.5410  171.9410  144.2820 C   0  0  0  0  0  1  0  0  0  0  0  0
  189.3110  172.5750  144.0980 O   0  0  0  0  0  0  0  0  0  0  0  0
  1 18  1  0  0  0  0
  1 33  1  1  0  0  0
  2  3  2  0  0  0  0
  3  4  1  0  0  0  0
  3  1  1  0  0  0  0
  5  4  1  0  0  0  0
  5  9  1  0  0  0  0
  8 11  1  0  0  0  0
  9 15  2  0  0  0  0
 10  7  1  0  0  0  0
 10 12  2  0  0  0  0
 11  6  2  0  0  0  0
 12 16  1  0  0  0  0
 13 12  1  0  0  0  0
 13  6  1  0  0  0  0
 14  8  2  0  0  0  0
 15  8  1  0  0  0  0
 15 10  1  0  0  0  0
 18 17  1  6  0  0  0
 18 19  1  0  0  0  0
 19 21  1  0  0  0  0
 20 21  2  0  0  0  0
 21 22  1  0  0  0  0
 22 23  1  0  0  0  0
 24 23  1  0  0  0  0
 25 29  1  0  0  0  0
 26 25  2  0  0  0  0
 26 30  1  0  0  0  0
 27 28  1  0  0  0  0
 27 31  1  0  0  0  0
 28 24  1  0  0  0  0
 29 28  2  0  0  0  0
 30 27  2  0  0  0  0
 32 31  1  0  0  0  0
 35 33  1  0  0  0  0
 35 34  1  0  0  0  0
M  END
>  <MODEL>
6

>  <REMARK>
 VINA RESULT:      -6.3      1.754      3.255
  Name = 
  13 active torsions:
  status: ('A' for Active; 'I' for Inactive)
    1  A    between atoms: O_4  and  C_8
    2  A    between atoms: O_4  and  C_24
    3  A    between atoms: C_5  and  C_11
    4  A    between atoms: N_7  and  C_34
    5  A    between atoms: C_8  and  C_30
    6  A    between atoms: C_14  and  C_24
    7  A    between atoms: C_16  and  C_22
    8  A    between atoms: C_17  and  C_18
    9  A    between atoms: C_17  and  C_19
   10  A    between atoms: C_18  and  C_22
   11  A    between atoms: O_28  and  C_35
   12  A    between atoms: C_30  and  C_34
   13  A    between atoms: C_30  and  C_35
                            x       y       z     vdW  Elec       q    Type
                         _______ _______ _______ _____ _____    ______ ____

>  <TORSDO>
F 13

$$$$
=
 OpenBabel11042416573D

 35 36  0  0  1  0  0  0  0  0999 V2000
  193.3880  175.4400  144.2790 C   0  0  1  0  0  3  0  0  0  0  0  0
  193.4870  173.3270  145.3910 O   0  0  0  0  0  0  0  0  0  0  0  0
  192.7530  174.2740  144.9880 C   0  0  0  0  0  0  0  0  0  0  0  0
  191.3680  174.2060  145.1550 O   0  0  0  0  0  0  0  0  0  0  0  0
  190.6130  173.1480  144.5840 C   0  0  0  0  0  2  0  0  0  0  0  0
  189.4300  173.6140  139.3230 C   0  0  0  0  0  3  0  0  0  0  0  0
  190.3390  170.8490  142.5620 N   0  0  0  0  0  1  0  0  0  0  0  0
  188.3790  173.8340  141.5230 C   0  0  0  0  0  0  0  0  0  0  0  0
  189.6410  173.6770  143.5770 C   0  0  0  0  0  3  0  0  0  0  0  0
  190.2400  172.0630  141.8180 C   0  0  0  0  0  0  0  0  0  0  0  0
  188.3930  173.7940  140.0840 N   0  0  0  0  0  0  0  0  0  0  0  0
  190.8980  172.1860  140.6580 C   0  0  0  0  0  0  0  0  0  0  0  0
  190.8100  173.4460  139.8620 C   0  0  0  0  0  2  0  0  0  0  0  0
  187.4360  174.4430  142.0930 O   0  0  0  0  0  0  0  0  0  0  0  0
  189.4150  173.1730  142.3590 C   0  0  0  0  0  0  0  0  0  0  0  0
  191.6940  171.0580  140.0920 C   0  0  0  0  0  1  0  0  0  0  0  0
  193.7280  176.6010  146.4830 C   0  0  0  0  0  1  0  0  0  0  0  0
  193.1980  176.7490  145.0650 C   0  0  2  0  0  3  0  0  0  0  0  0
  191.7880  177.0940  145.1440 N   0  0  0  0  0  2  0  0  0  0  0  0
  191.6310  177.9290  142.9670 O   0  0  0  0  0  0  0  0  0  0  0  0
  191.0420  177.5740  144.0230 C   0  0  0  0  0  0  0  0  0  0  0  0
  189.5560  177.6420  144.1110 C   0  0  0  0  0  2  0  0  0  0  0  0
  189.0920  177.0470  145.4290 C   0  0  0  0  0  2  0  0  0  0  0  0
  187.8060  176.2570  145.2380 C   0  0  0  0  0  2  0  0  0  0  0  0
  185.5340  178.1260  147.6170 C   0  0  0  0  0  3  0  0  0  0  0  0
  184.5370  178.5910  146.7560 C   0  0  0  0  0  3  0  0  0  0  0  0
  185.6260  177.4990  144.8830 C   0  0  0  0  0  0  0  0  0  0  0  0
  186.6410  177.0400  145.7480 C   0  0  0  0  0  0  0  0  0  0  0  0
  186.5830  177.3560  147.1110 C   0  0  0  0  0  3  0  0  0  0  0  0
  184.5820  178.2800  145.3930 C   0  0  0  0  0  3  0  0  0  0  0  0
  185.6490  177.2080  143.4180 C   0  0  0  0  0  2  0  0  0  0  0  0
  185.7780  178.4500  142.6720 N   0  0  0  0  0  1  0  0  0  0  0  0
  194.8620  175.1540  144.0140 C   0  0  0  0  0  2  0  0  0  0  0  0
  196.4160  176.4780  143.1850 C   0  0  0  0  0  1  0  0  0  0  0  0
  195.2560  175.7850  142.8350 O   0  0  0  0  0  0  0  0  0  0  0  0
  1 33  1  1  0  0  0
  1  3  1  0  0  0  0
  1 18  1  0  0  0  0
  3  4  1  0  0  0  0
  3  2  2  0  0  0  0
  5  4  1  0  0  0  0
  6 13  1  0  0  0  0
  6 11  2  0  0  0  0
  8 14  2  0  0  0  0
  8 15  1  0  0  0  0
  9  5  1  0  0  0  0
 10 15  1  0  0  0  0
 10  7  1  0  0  0  0
 11  8  1  0  0  0  0
 12 10  2  0  0  0  0
 13 12  1  0  0  0  0
 15  9  2  0  0  0  0
 16 12  1  0  0  0  0
 18 19  1  0  0  0  0
 18 17  1  1  0  0  0
 20 21  2  0  0  0  0
 21 22  1  0  0  0  0
 21 19  1  0  0  0  0
 22 23  1  0  0  0  0
 24 23  1  0  0  0  0
 24 28  1  0  0  0  0
 26 25  2  0  0  0  0
 27 30  2  0  0  0  0
 27 28  1  0  0  0  0
 28 29  2  0  0  0  0
 29 25  1  0  0  0  0
 30 26  1  0  0  0  0
 31 27  1  0  0  0  0
 32 31  1  0  0  0  0
 35 34  1  0  0  0  0
 35 33  1  0  0  0  0
M  END
>  <MODEL>
7

>  <REMARK>
 VINA RESULT:      -6.3      2.439      7.276
  Name = 
  13 active torsions:
  status: ('A' for Active; 'I' for Inactive)
    1  A    between atoms: O_4  and  C_8
    2  A    between atoms: O_4  and  C_24
    3  A    between atoms: C_5  and  C_11
    4  A    between atoms: N_7  and  C_34
    5  A    between atoms: C_8  and  C_30
    6  A    between atoms: C_14  and  C_24
    7  A    between atoms: C_16  and  C_22
    8  A    between atoms: C_17  and  C_18
    9  A    between atoms: C_17  and  C_19
   10  A    between atoms: C_18  and  C_22
   11  A    between atoms: O_28  and  C_35
   12  A    between atoms: C_30  and  C_34
   13  A    between atoms: C_30  and  C_35
                            x       y       z     vdW  Elec       q    Type
                         _______ _______ _______ _____ _____    ______ ____

>  <TORSDO>
F 13

$$$$
=
 OpenBabel11042416573D

 35 36  0  0  1  0  0  0  0  0999 V2000
  192.5740  174.5570  143.5440 C   0  0  1  0  0  3  0  0  0  0  0  0
  193.1850  176.6270  142.5170 O   0  0  0  0  0  0  0  0  0  0  0  0
  193.0500  175.9850  143.5970 C   0  0  0  0  0  0  0  0  0  0  0  0
  193.3910  176.5810  144.8130 O   0  0  0  0  0  0  0  0  0  0  0  0
  194.7450  176.8540  145.1410 C   0  0  0  0  0  2  0  0  0  0  0  0
  197.2600  172.4600  143.2290 C   0  0  0  0  0  3  0  0  0  0  0  0
  197.1190  176.8120  143.1890 N   0  0  0  0  0  1  0  0  0  0  0  0
  197.0170  173.7480  145.2960 C   0  0  0  0  0  0  0  0  0  0  0  0
  195.4680  175.5920  145.4920 C   0  0  0  0  0  3  0  0  0  0  0  0
  196.7180  175.4540  143.3760 C   0  0  0  0  0  0  0  0  0  0  0  0
  197.5770  172.7170  144.4630 N   0  0  0  0  0  0  0  0  0  0  0  0
  196.6280  174.6380  142.3190 C   0  0  0  0  0  0  0  0  0  0  0  0
  196.2090  173.2150  142.4890 C   0  0  0  0  0  2  0  0  0  0  0  0
  197.0750  173.6020  146.5460 O   0  0  0  0  0  0  0  0  0  0  0  0
  196.3950  174.9820  144.7470 C   0  0  0  0  0  0  0  0  0  0  0  0
  196.9900  175.0990  140.9460 C   0  0  0  0  0  1  0  0  0  0  0  0
  192.7720  172.4900  144.9620 C   0  0  0  0  0  1  0  0  0  0  0  0
  192.4060  173.9670  144.9550 C   0  0  2  0  0  3  0  0  0  0  0  0
  191.0270  174.0920  145.3980 N   0  0  0  0  0  2  0  0  0  0  0  0
  191.5140  175.3120  147.3310 O   0  0  0  0  0  0  0  0  0  0  0  0
  190.6440  174.8740  146.5320 C   0  0  0  0  0  0  0  0  0  0  0  0
  189.2030  175.1750  146.7560 C   0  0  0  0  0  2  0  0  0  0  0  0
  188.8540  176.5130  146.1270 C   0  0  0  0  0  2  0  0  0  0  0  0
  187.7310  176.3540  145.1140 C   0  0  0  0  0  2  0  0  0  0  0  0
  185.2850  178.1410  147.3800 C   0  0  0  0  0  3  0  0  0  0  0  0
  184.3230  178.5870  146.4700 C   0  0  0  0  0  3  0  0  0  0  0  0
  185.5400  177.5400  144.6510 C   0  0  0  0  0  0  0  0  0  0  0  0
  186.5200  177.1020  145.5660 C   0  0  0  0  0  0  0  0  0  0  0  0
  186.3800  177.4050  146.9260 C   0  0  0  0  0  3  0  0  0  0  0  0
  184.4490  178.2880  145.1090 C   0  0  0  0  0  3  0  0  0  0  0  0
  185.6490  177.2610  143.1870 C   0  0  0  0  0  2  0  0  0  0  0  0
  184.4940  177.8090  142.4940 N   0  0  0  0  0  1  0  0  0  0  0  0
  191.2830  174.4640  142.7390 C   0  0  0  0  0  2  0  0  0  0  0  0
  190.9320  173.7960  140.6680 C   0  0  0  0  0  1  0  0  0  0  0  0
  191.3200  173.3310  141.9260 O   0  0  0  0  0  0  0  0  0  0  0  0
  1 33  1  1  0  0  0
  1  3  1  0  0  0  0
  1 18  1  0  0  0  0
  2  3  2  0  0  0  0
  3  4  1  0  0  0  0
  4  5  1  0  0  0  0
  5  9  1  0  0  0  0
  6 11  2  0  0  0  0
  7 10  1  0  0  0  0
  8 14  2  0  0  0  0
 10 15  1  0  0  0  0
 11  8  1  0  0  0  0
 12 13  1  0  0  0  0
 12 10  2  0  0  0  0
 13  6  1  0  0  0  0
 15  8  1  0  0  0  0
 15  9  2  0  0  0  0
 16 12  1  0  0  0  0
 18 17  1  6  0  0  0
 18 19  1  0  0  0  0
 19 21  1  0  0  0  0
 21 22  1  0  0  0  0
 21 20  2  0  0  0  0
 23 22  1  0  0  0  0
 24 28  1  0  0  0  0
 24 23  1  0  0  0  0
 26 25  2  0  0  0  0
 27 30  2  0  0  0  0
 27 28  1  0  0  0  0
 28 29  2  0  0  0  0
 29 25  1  0  0  0  0
 30 26  1  0  0  0  0
 31 27  1  0  0  0  0
 32 31  1  0  0  0  0
 34 35  1  0  0  0  0
 35 33  1  0  0  0  0
M  END
>  <MODEL>
8

>  <REMARK>
 VINA RESULT:      -6.2      2.447      8.925
  Name = 
  13 active torsions:
  status: ('A' for Active; 'I' for Inactive)
    1  A    between atoms: O_4  and  C_8
    2  A    between atoms: O_4  and  C_24
    3  A    between atoms: C_5  and  C_11
    4  A    between atoms: N_7  and  C_34
    5  A    between atoms: C_8  and  C_30
    6  A    between atoms: C_14  and  C_24
    7  A    between atoms: C_16  and  C_22
    8  A    between atoms: C_17  and  C_18
    9  A    between atoms: C_17  and  C_19
   10  A    between atoms: C_18  and  C_22
   11  A    between atoms: O_28  and  C_35
   12  A    between atoms: C_30  and  C_34
   13  A    between atoms: C_30  and  C_35
                            x       y       z     vdW  Elec       q    Type
                         _______ _______ _______ _____ _____    ______ ____

>  <TORSDO>
F 13

$$$$
=
 OpenBabel11042416573D

 35 36  0  0  1  0  0  0  0  0999 V2000
  191.0260  173.4340  142.5490 C   0  0  1  0  0  3  0  0  0  0  0  0
  192.4840  174.5870  141.0470 O   0  0  0  0  0  0  0  0  0  0  0  0
  191.6400  174.6860  141.9820 C   0  0  0  0  0  0  0  0  0  0  0  0
  191.3260  175.9400  142.5110 O   0  0  0  0  0  0  0  0  0  0  0  0
  192.3410  176.8920  142.7920 C   0  0  0  0  0  2  0  0  0  0  0  0
  195.7680  173.7340  145.5450 C   0  0  0  0  0  3  0  0  0  0  0  0
  195.2870  176.3520  142.0990 N   0  0  0  0  0  1  0  0  0  0  0  0
  194.6230  175.8900  145.7290 C   0  0  0  0  0  0  0  0  0  0  0  0
  192.9720  176.6140  144.1210 C   0  0  0  0  0  3  0  0  0  0  0  0
  194.9610  175.4980  143.1960 C   0  0  0  0  0  0  0  0  0  0  0  0
  195.5500  174.8690  146.1400 N   0  0  0  0  0  0  0  0  0  0  0  0
  195.3640  174.2210  143.1840 C   0  0  0  0  0  0  0  0  0  0  0  0
  195.0350  173.3090  144.3190 C   0  0  0  0  0  2  0  0  0  0  0  0
  194.1950  176.6920  146.6000 O   0  0  0  0  0  0  0  0  0  0  0  0
  194.1660  176.0470  144.3230 C   0  0  0  0  0  0  0  0  0  0  0  0
  196.1980  173.6780  142.0720 C   0  0  0  0  0  1  0  0  0  0  0  0
  191.4830  171.8840  144.4750 C   0  0  0  0  0  1  0  0  0  0  0  0
  191.2550  173.3320  144.0670 C   0  0  2  0  0  3  0  0  0  0  0  0
  190.0960  173.8270  144.7910 N   0  0  0  0  0  2  0  0  0  0  0  0
  191.3150  174.8800  146.4850 O   0  0  0  0  0  0  0  0  0  0  0  0
  190.2010  174.6890  145.9270 C   0  0  0  0  0  0  0  0  0  0  0  0
  188.9800  175.3700  146.4400 C   0  0  0  0  0  2  0  0  0  0  0  0
  188.2370  176.0280  145.2910 C   0  0  0  0  0  2  0  0  0  0  0  0
  188.1260  177.5290  145.5110 C   0  0  0  0  0  2  0  0  0  0  0  0
  184.7860  178.2360  147.1430 C   0  0  0  0  0  3  0  0  0  0  0  0
  184.0420  178.7330  146.0700 C   0  0  0  0  0  3  0  0  0  0  0  0
  185.9350  178.4080  144.5880 C   0  0  0  0  0  0  0  0  0  0  0  0
  186.6930  177.9200  145.6740 C   0  0  0  0  0  0  0  0  0  0  0  0
  186.1080  177.8360  146.9430 C   0  0  0  0  0  3  0  0  0  0  0  0
  184.6140  178.8190  144.7960 C   0  0  0  0  0  3  0  0  0  0  0  0
  186.5160  178.5390  143.2190 C   0  0  0  0  0  2  0  0  0  0  0  0
  186.0910  177.4180  142.3950 N   0  0  0  0  0  1  0  0  0  0  0  0
  189.5430  173.3730  142.2000 C   0  0  0  0  0  2  0  0  0  0  0  0
  190.0380  171.6100  140.9740 C   0  0  0  0  0  1  0  0  0  0  0  0
  189.3860  172.8420  140.9190 O   0  0  0  0  0  0  0  0  0  0  0  0
  1 33  1  1  0  0  0
  1 18  1  0  0  0  0
  2  3  2  0  0  0  0
  3  4  1  0  0  0  0
  3  1  1  0  0  0  0
  4  5  1  0  0  0  0
  5  9  1  0  0  0  0
  6 11  2  0  0  0  0
  7 10  1  0  0  0  0
  8 11  1  0  0  0  0
  8 14  2  0  0  0  0
  9 15  2  0  0  0  0
 10 15  1  0  0  0  0
 12 10  2  0  0  0  0
 12 13  1  0  0  0  0
 13  6  1  0  0  0  0
 15  8  1  0  0  0  0
 16 12  1  0  0  0  0
 18 17  1  6  0  0  0
 18 19  1  0  0  0  0
 19 21  1  0  0  0  0
 21 22  1  0  0  0  0
 21 20  2  0  0  0  0
 23 24  1  0  0  0  0
 23 22  1  0  0  0  0
 24 28  1  0  0  0  0
 26 25  2  0  0  0  0
 27 30  2  0  0  0  0
 27 28  1  0  0  0  0
 28 29  2  0  0  0  0
 29 25  1  0  0  0  0
 30 26  1  0  0  0  0
 31 27  1  0  0  0  0
 32 31  1  0  0  0  0
 35 34  1  0  0  0  0
 35 33  1  0  0  0  0
M  END
>  <MODEL>
9

>  <REMARK>
 VINA RESULT:      -6.2      2.194      7.867
  Name = 
  13 active torsions:
  status: ('A' for Active; 'I' for Inactive)
    1  A    between atoms: O_4  and  C_8
    2  A    between atoms: O_4  and  C_24
    3  A    between atoms: C_5  and  C_11
    4  A    between atoms: N_7  and  C_34
    5  A    between atoms: C_8  and  C_30
    6  A    between atoms: C_14  and  C_24
    7  A    between atoms: C_16  and  C_22
    8  A    between atoms: C_17  and  C_18
    9  A    between atoms: C_17  and  C_19
   10  A    between atoms: C_18  and  C_22
   11  A    between atoms: O_28  and  C_35
   12  A    between atoms: C_30  and  C_34
   13  A    between atoms: C_30  and  C_35
                            x       y       z     vdW  Elec       q    Type
                         _______ _______ _______ _____ _____    ______ ____

>  <TORSDO>
F 13

$$$$
