=
 OpenBabel11042418013D

 35 39  0  0  1  0  0  0  0  0999 V2000
  187.7200  176.3210  142.3530 C   0  0  0  0  0  0  0  0  0  0  0  0
  187.2000  175.0350  142.4200 O   0  0  0  0  0  1  0  0  0  0  0  0
  187.8400  178.5020  142.1710 O   0  0  0  0  0  0  0  0  0  0  0  0
  187.0010  177.4930  142.2550 C   0  0  0  0  0  0  0  0  0  0  0  0
  189.0800  178.0580  142.2350 C   0  0  0  0  0  3  0  0  0  0  0  0
  189.0500  176.6770  142.3520 C   0  0  0  0  0  0  0  0  0  0  0  0
  191.5170  173.9390  142.2290 N   0  0  0  0  0  0  0  0  0  0  0  0
  192.8260  176.2420  144.9510 C   0  0  0  0  0  0  0  0  0  0  0  0
  193.4750  174.5580  143.4340 N   0  0  0  0  0  0  0  0  0  0  0  0
  193.2330  176.6280  146.1290 O   0  0  0  0  0  0  0  0  0  0  0  0
  191.6020  176.1880  142.8380 C   0  0  2  0  0  3  0  0  0  0  0  0
  191.7620  176.6780  144.2650 C   0  0  0  0  0  3  0  0  0  0  0  0
  190.2200  175.7870  142.4500 C   0  0  0  0  0  0  0  0  0  0  0  0
  190.2290  174.5200  142.0490 C   0  0  0  0  0  3  0  0  0  0  0  0
  193.6810  175.2710  144.5030 C   0  0  0  0  0  0  0  0  0  0  0  0
  194.3240  175.9260  146.4020 C   0  0  0  0  0  3  0  0  0  0  0  0
  192.3000  174.8670  142.6670 C   0  0  0  0  0  0  0  0  0  0  0  0
  194.6450  175.0510  145.4100 N   0  0  0  0  0  0  0  0  0  0  0  0
  185.5370  177.6420  142.1850 C   0  0  0  0  0  0  0  0  0  0  0  0
  184.7500  177.7200  143.2730 C   0  0  0  0  0  3  0  0  0  0  0  0
  184.9540  178.8370  146.8930 C   0  0  0  0  0  3  0  0  0  0  0  0
  184.5660  178.7750  145.5520 C   0  0  0  0  0  3  0  0  0  0  0  0
  186.1300  176.9690  145.1780 C   0  0  0  0  0  3  0  0  0  0  0  0
  185.9340  177.9660  147.3740 C   0  0  0  0  0  3  0  0  0  0  0  0
  186.5260  177.0260  146.5180 C   0  0  0  0  0  0  0  0  0  0  0  0
  185.1660  177.8540  144.6810 C   0  0  0  0  0  0  0  0  0  0  0  0
  187.5220  176.1140  146.9900 N   0  0  0  0  0  2  0  0  0  0  0  0
  188.8970  176.1030  146.5100 C   0  0  1  0  0  3  0  0  0  0  0  0
  189.6430  177.2780  147.1150 C   0  0  0  0  0  1  0  0  0  0  0  0
  189.5720  174.8000  146.9090 C   0  0  0  0  0  2  0  0  0  0  0  0
  189.7610  173.9090  145.6960 C   0  0  0  0  0  1  0  0  0  0  0  0
  184.9460  177.6680  140.8790 N   0  0  0  0  0  2  0  0  0  0  0  0
  183.8790  178.5790  140.4780 C   0  0  0  0  0  2  0  0  0  0  0  0
  182.5620  177.8330  140.3380 C   0  0  0  0  0  2  0  0  0  0  0  0
  181.4900  178.4910  141.1860 C   0  0  0  0  0  1  0  0  0  0  0  0
  1  2  1  0  0  0  0
  3  5  1  0  0  0  0
  3  4  1  0  0  0  0
  4  1  2  0  0  0  0
  5  6  2  0  0  0  0
  6  1  1  0  0  0  0
  6 13  1  0  0  0  0
  7 17  2  0  0  0  0
  8 10  1  0  0  0  0
  9 15  2  0  0  0  0
 10 16  1  0  0  0  0
 11 12  1  1  0  0  0
 12  8  2  0  0  0  0
 13 11  1  0  0  0  0
 14  7  1  0  0  0  0
 14 13  2  0  0  0  0
 15  8  1  0  0  0  0
 15 18  1  0  0  0  0
 17 11  1  0  0  0  0
 17  9  1  0  0  0  0
 18 16  2  0  0  0  0
 19  4  1  0  0  0  0
 19 20  2  0  0  0  0
 20 26  1  0  0  0  0
 21 24  1  0  0  0  0
 22 21  2  0  0  0  0
 23 25  1  0  0  0  0
 25 27  1  0  0  0  0
 25 24  2  0  0  0  0
 26 23  2  0  0  0  0
 26 22  1  0  0  0  0
 28 30  1  0  0  0  0
 28 27  1  0  0  0  0
 28 29  1  1  0  0  0
 31 30  1  0  0  0  0
 32 19  1  0  0  0  0
 33 32  1  0  0  0  0
 34 33  1  0  0  0  0
 34 35  1  0  0  0  0
M  END
>  <MODEL>
1

>  <REMARK>
 VINA RESULT:      -8.1      0.000      0.000
  Name = 
  9 active torsions:
  status: ('A' for Active; 'I' for Inactive)
    1  A    between atoms: C_5  and  C_8
    2  A    between atoms: C_8  and  N_19
    3  A    between atoms: C_10  and  C_23
    4  A    between atoms: N_14  and  C_23
    5  A    between atoms: N_14  and  C_28
    6  A    between atoms: C_15  and  N_19
    7  A    between atoms: C_15  and  C_30
    8  A    between atoms: C_17  and  C_35
    9  A    between atoms: C_25  and  C_31
                            x       y       z     vdW  Elec       q    Type
                         _______ _______ _______ _____ _____    ______ ____

>  <TORSDO>
F 9

$$$$
=
 OpenBabel11042418013D

 35 39  0  0  1  0  0  0  0  0999 V2000
  190.5210  174.9350  144.3540 C   0  0  0  0  0  0  0  0  0  0  0  0
  191.1110  175.8550  143.4950 O   0  0  0  0  0  1  0  0  0  0  0  0
  189.6870  174.0290  146.1670 O   0  0  0  0  0  0  0  0  0  0  0  0
  190.1820  175.1430  145.6730 C   0  0  0  0  0  0  0  0  0  0  0  0
  189.6600  173.1000  145.2320 C   0  0  0  0  0  3  0  0  0  0  0  0
  190.1800  173.6330  144.0620 C   0  0  0  0  0  0  0  0  0  0  0  0
  191.2370  171.6350  141.1490 N   0  0  0  0  0  0  0  0  0  0  0  0
  188.5560  173.9420  139.7640 C   0  0  0  0  0  0  0  0  0  0  0  0
  189.6760  171.9040  139.3720 N   0  0  0  0  0  0  0  0  0  0  0  0
  188.0000  174.8480  139.0080 O   0  0  0  0  0  0  0  0  0  0  0  0
  189.2650  172.7190  141.7570 C   0  0  2  0  0  3  0  0  0  0  0  0
  188.7450  173.9790  141.0890 C   0  0  0  0  0  3  0  0  0  0  0  0
  190.3310  172.9290  142.7770 C   0  0  0  0  0  0  0  0  0  0  0  0
  191.4120  172.2420  142.4260 C   0  0  0  0  0  3  0  0  0  0  0  0
  188.9460  172.9020  138.9640 C   0  0  0  0  0  0  0  0  0  0  0  0
  188.0290  174.3790  137.7690 C   0  0  0  0  0  3  0  0  0  0  0  0
  190.0320  171.8910  140.7640 C   0  0  0  0  0  0  0  0  0  0  0  0
  188.6220  173.1560  137.6870 N   0  0  0  0  0  0  0  0  0  0  0  0
  190.3780  176.3700  146.4650 C   0  0  0  0  0  0  0  0  0  0  0  0
  189.4370  177.3210  146.5990 C   0  0  0  0  0  3  0  0  0  0  0  0
  185.6830  176.7740  146.5690 C   0  0  0  0  0  3  0  0  0  0  0  0
  187.0130  176.7640  146.9960 C   0  0  0  0  0  3  0  0  0  0  0  0
  187.6900  177.8120  144.9240 C   0  0  0  0  0  3  0  0  0  0  0  0
  185.3570  177.3000  145.3170 C   0  0  0  0  0  3  0  0  0  0  0  0
  186.3610  177.8230  144.4880 C   0  0  0  0  0  0  0  0  0  0  0  0
  188.0280  177.2650  146.1660 C   0  0  0  0  0  0  0  0  0  0  0  0
  186.0520  178.3800  143.2070 N   0  0  0  0  0  2  0  0  0  0  0  0
  185.3620  177.6460  142.1550 C   0  0  1  0  0  3  0  0  0  0  0  0
  183.9440  178.1720  142.0320 C   0  0  0  0  0  1  0  0  0  0  0  0
  186.0960  177.8240  140.8350 C   0  0  0  0  0  2  0  0  0  0  0  0
  187.5930  177.6950  141.0410 C   0  0  0  0  0  1  0  0  0  0  0  0
  191.6580  176.5470  147.0850 N   0  0  0  0  0  2  0  0  0  0  0  0
  192.8280  175.7220  146.8040 C   0  0  0  0  0  2  0  0  0  0  0  0
  194.0390  176.5920  146.5070 C   0  0  0  0  0  2  0  0  0  0  0  0
  194.2470  176.7120  145.0090 C   0  0  0  0  0  1  0  0  0  0  0  0
  1  4  2  0  0  0  0
  2  1  1  0  0  0  0
  4  3  1  0  0  0  0
  4 19  1  0  0  0  0
  5  3  1  0  0  0  0
  6  1  1  0  0  0  0
  6  5  2  0  0  0  0
  7 14  1  0  0  0  0
  8 12  2  0  0  0  0
  9 17  1  0  0  0  0
 10  8  1  0  0  0  0
 11 12  1  6  0  0  0
 11 13  1  0  0  0  0
 13  6  1  0  0  0  0
 14 13  2  0  0  0  0
 15  9  2  0  0  0  0
 15  8  1  0  0  0  0
 16 10  1  0  0  0  0
 17  7  2  0  0  0  0
 17 11  1  0  0  0  0
 18 16  2  0  0  0  0
 18 15  1  0  0  0  0
 19 20  2  0  0  0  0
 19 32  1  0  0  0  0
 21 22  1  0  0  0  0
 23 26  1  0  0  0  0
 24 21  2  0  0  0  0
 25 23  2  0  0  0  0
 25 24  1  0  0  0  0
 26 20  1  0  0  0  0
 26 22  2  0  0  0  0
 27 25  1  0  0  0  0
 28 29  1  6  0  0  0
 28 27  1  0  0  0  0
 30 31  1  0  0  0  0
 30 28  1  0  0  0  0
 33 32  1  0  0  0  0
 34 33  1  0  0  0  0
 35 34  1  0  0  0  0
M  END
>  <MODEL>
2

>  <REMARK>
 VINA RESULT:      -7.7      2.504      6.696
  Name = 
  9 active torsions:
  status: ('A' for Active; 'I' for Inactive)
    1  A    between atoms: C_5  and  C_8
    2  A    between atoms: C_8  and  N_19
    3  A    between atoms: C_10  and  C_23
    4  A    between atoms: N_14  and  C_23
    5  A    between atoms: N_14  and  C_28
    6  A    between atoms: C_15  and  N_19
    7  A    between atoms: C_15  and  C_30
    8  A    between atoms: C_17  and  C_35
    9  A    between atoms: C_25  and  C_31
                            x       y       z     vdW  Elec       q    Type
                         _______ _______ _______ _____ _____    ______ ____

>  <TORSDO>
F 9

$$$$
=
 OpenBabel11042418013D

 35 39  0  0  1  0  0  0  0  0999 V2000
  189.3120  176.7060  145.7740 C   0  0  0  0  0  0  0  0  0  0  0  0
  189.5130  177.7210  144.8460 O   0  0  0  0  0  1  0  0  0  0  0  0
  189.6440  174.9140  146.9910 O   0  0  0  0  0  0  0  0  0  0  0  0
  190.2060  175.7130  146.1110 C   0  0  0  0  0  0  0  0  0  0  0  0
  188.4290  175.3440  147.2720 C   0  0  0  0  0  3  0  0  0  0  0  0
  188.1780  176.4820  146.5210 C   0  0  0  0  0  0  0  0  0  0  0  0
  185.0500  178.2700  147.3070 N   0  0  0  0  0  0  0  0  0  0  0  0
  184.9890  177.9190  143.5260 C   0  0  0  0  0  0  0  0  0  0  0  0
  184.1140  179.1790  145.3150 N   0  0  0  0  0  0  0  0  0  0  0  0
  184.5610  177.5820  142.3400 O   0  0  0  0  0  0  0  0  0  0  0  0
  186.4630  178.1880  145.4540 C   0  0  2  0  0  3  0  0  0  0  0  0
  186.1070  177.5160  144.1410 C   0  0  0  0  0  3  0  0  0  0  0  0
  186.9360  177.2750  146.5330 C   0  0  0  0  0  0  0  0  0  0  0  0
  186.1430  177.4020  147.5910 C   0  0  0  0  0  3  0  0  0  0  0  0
  184.0760  178.7770  144.0780 C   0  0  0  0  0  0  0  0  0  0  0  0
  183.4180  178.2260  142.1520 C   0  0  0  0  0  3  0  0  0  0  0  0
  185.2210  178.7230  146.1110 C   0  0  0  0  0  0  0  0  0  0  0  0
  183.0650  178.9890  143.2220 N   0  0  0  0  0  0  0  0  0  0  0  0
  191.5560  175.4980  145.5590 C   0  0  0  0  0  0  0  0  0  0  0  0
  191.8240  174.6010  144.5940 C   0  0  0  0  0  3  0  0  0  0  0  0
  189.4180  171.8940  143.4650 C   0  0  0  0  0  3  0  0  0  0  0  0
  190.3660  172.5810  144.2280 C   0  0  0  0  0  3  0  0  0  0  0  0
  190.3690  174.3790  142.6110 C   0  0  0  0  0  3  0  0  0  0  0  0
  188.9490  172.4490  142.2730 C   0  0  0  0  0  3  0  0  0  0  0  0
  189.4220  173.6970  141.8400 C   0  0  0  0  0  0  0  0  0  0  0  0
  190.8630  173.8190  143.7940 C   0  0  0  0  0  0  0  0  0  0  0  0
  188.9470  174.2930  140.6300 N   0  0  0  0  0  2  0  0  0  0  0  0
  188.8160  173.5700  139.3730 C   0  0  1  0  0  3  0  0  0  0  0  0
  188.0900  174.4460  138.3690 C   0  0  0  0  0  1  0  0  0  0  0  0
  190.1930  173.2060  138.8410 C   0  0  0  0  0  2  0  0  0  0  0  0
  190.3320  171.7010  138.7170 C   0  0  0  0  0  1  0  0  0  0  0  0
  192.6210  176.2730  146.1230 N   0  0  0  0  0  2  0  0  0  0  0  0
  193.9980  175.8070  146.2490 C   0  0  0  0  0  2  0  0  0  0  0  0
  194.9190  176.6070  145.3420 C   0  0  0  0  0  2  0  0  0  0  0  0
  195.5850  175.6950  144.3290 C   0  0  0  0  0  1  0  0  0  0  0  0
  1  4  2  0  0  0  0
  1  6  1  0  0  0  0
  2  1  1  0  0  0  0
  3  5  1  0  0  0  0
  4  3  1  0  0  0  0
  6 13  1  0  0  0  0
  6  5  2  0  0  0  0
  7 14  1  0  0  0  0
  8 15  1  0  0  0  0
  8 12  2  0  0  0  0
  9 17  1  0  0  0  0
 10  8  1  0  0  0  0
 11 12  1  6  0  0  0
 11 17  1  0  0  0  0
 11 13  1  0  0  0  0
 13 14  2  0  0  0  0
 15  9  2  0  0  0  0
 16 10  1  0  0  0  0
 16 18  2  0  0  0  0
 17  7  2  0  0  0  0
 18 15  1  0  0  0  0
 19  4  1  0  0  0  0
 19 32  1  0  0  0  0
 20 19  2  0  0  0  0
 21 22  1  0  0  0  0
 23 26  1  0  0  0  0
 24 21  2  0  0  0  0
 25 24  1  0  0  0  0
 25 23  2  0  0  0  0
 26 22  2  0  0  0  0
 26 20  1  0  0  0  0
 27 25  1  0  0  0  0
 28 29  1  6  0  0  0
 28 27  1  0  0  0  0
 30 28  1  0  0  0  0
 31 30  1  0  0  0  0
 32 33  1  0  0  0  0
 34 33  1  0  0  0  0
 35 34  1  0  0  0  0
M  END
>  <MODEL>
3

>  <REMARK>
 VINA RESULT:      -7.5      2.449      8.511
  Name = 
  9 active torsions:
  status: ('A' for Active; 'I' for Inactive)
    1  A    between atoms: C_5  and  C_8
    2  A    between atoms: C_8  and  N_19
    3  A    between atoms: C_10  and  C_23
    4  A    between atoms: N_14  and  C_23
    5  A    between atoms: N_14  and  C_28
    6  A    between atoms: C_15  and  N_19
    7  A    between atoms: C_15  and  C_30
    8  A    between atoms: C_17  and  C_35
    9  A    between atoms: C_25  and  C_31
                            x       y       z     vdW  Elec       q    Type
                         _______ _______ _______ _____ _____    ______ ____

>  <TORSDO>
F 9

$$$$
=
 OpenBabel11042418013D

 35 39  0  0  1  0  0  0  0  0999 V2000
  187.0960  176.3940  142.5370 C   0  0  0  0  0  0  0  0  0  0  0  0
  186.4630  175.1930  142.8330 O   0  0  0  0  0  1  0  0  0  0  0  0
  187.4190  178.5250  142.1380 O   0  0  0  0  0  0  0  0  0  0  0  0
  186.5130  177.6420  142.4960 C   0  0  0  0  0  0  0  0  0  0  0  0
  188.5810  177.9260  141.9630 C   0  0  0  0  0  3  0  0  0  0  0  0
  188.4210  176.5700  142.2070 C   0  0  0  0  0  0  0  0  0  0  0  0
  191.5030  174.5470  142.3150 N   0  0  0  0  0  0  0  0  0  0  0  0
  189.3120  172.7610  139.7770 C   0  0  0  0  0  0  0  0  0  0  0  0
  191.1360  172.4550  141.2390 N   0  0  0  0  0  0  0  0  0  0  0  0
  188.9420  172.2360  138.6410 O   0  0  0  0  0  0  0  0  0  0  0  0
  189.2690  174.0960  141.8230 C   0  0  2  0  0  3  0  0  0  0  0  0
  188.7490  173.7850  140.4310 C   0  0  0  0  0  3  0  0  0  0  0  0
  189.4730  175.5420  142.1220 C   0  0  0  0  0  0  0  0  0  0  0  0
  190.7420  175.7430  142.4600 C   0  0  0  0  0  3  0  0  0  0  0  0
  190.4180  172.0860  140.2180 C   0  0  0  0  0  0  0  0  0  0  0  0
  189.7890  171.2470  138.3870 C   0  0  0  0  0  3  0  0  0  0  0  0
  190.6860  173.6130  141.9610 C   0  0  0  0  0  0  0  0  0  0  0  0
  190.7430  171.1160  139.3490 N   0  0  0  0  0  0  0  0  0  0  0  0
  185.1000  177.9780  142.7420 C   0  0  0  0  0  0  0  0  0  0  0  0
  184.5810  178.1340  143.9730 C   0  0  0  0  0  3  0  0  0  0  0  0
  185.7090  179.1530  147.4490 C   0  0  0  0  0  3  0  0  0  0  0  0
  185.0390  179.1680  146.2220 C   0  0  0  0  0  3  0  0  0  0  0  0
  186.2150  177.1650  145.5500 C   0  0  0  0  0  3  0  0  0  0  0  0
  186.6350  178.1450  147.7230 C   0  0  0  0  0  3  0  0  0  0  0  0
  186.8920  177.1440  146.7740 C   0  0  0  0  0  0  0  0  0  0  0  0
  185.3030  178.1850  145.2580 C   0  0  0  0  0  0  0  0  0  0  0  0
  187.8260  176.0930  147.0370 N   0  0  0  0  0  2  0  0  0  0  0  0
  188.8670  175.6890  146.1020 C   0  0  1  0  0  3  0  0  0  0  0  0
  189.8780  176.8130  145.9690 C   0  0  0  0  0  1  0  0  0  0  0  0
  189.5560  174.4320  146.6100 C   0  0  0  0  0  2  0  0  0  0  0  0
  189.7770  173.4530  145.4730 C   0  0  0  0  0  1  0  0  0  0  0  0
  184.2510  178.1050  141.5940 N   0  0  0  0  0  2  0  0  0  0  0  0
  182.8290  178.4290  141.6550 C   0  0  0  0  0  2  0  0  0  0  0  0
  182.1140  177.9370  140.4070 C   0  0  0  0  0  2  0  0  0  0  0  0
  180.6440  178.3030  140.4630 C   0  0  0  0  0  1  0  0  0  0  0  0
  1  2  1  0  0  0  0
  3  4  1  0  0  0  0
  4  1  2  0  0  0  0
  4 19  1  0  0  0  0
  5  3  1  0  0  0  0
  5  6  2  0  0  0  0
  6  1  1  0  0  0  0
  7 14  1  0  0  0  0
  8 15  1  0  0  0  0
  8 12  2  0  0  0  0
  9 17  1  0  0  0  0
 10  8  1  0  0  0  0
 11 12  1  6  0  0  0
 11 17  1  0  0  0  0
 11 13  1  0  0  0  0
 13  6  1  0  0  0  0
 13 14  2  0  0  0  0
 15  9  2  0  0  0  0
 16 10  1  0  0  0  0
 16 18  2  0  0  0  0
 17  7  2  0  0  0  0
 18 15  1  0  0  0  0
 19 20  2  0  0  0  0
 20 26  1  0  0  0  0
 21 24  1  0  0  0  0
 22 21  2  0  0  0  0
 23 25  1  0  0  0  0
 25 27  1  0  0  0  0
 25 24  2  0  0  0  0
 26 23  2  0  0  0  0
 26 22  1  0  0  0  0
 28 29  1  1  0  0  0
 28 30  1  0  0  0  0
 28 27  1  0  0  0  0
 31 30  1  0  0  0  0
 32 33  1  0  0  0  0
 32 19  1  0  0  0  0
 34 35  1  0  0  0  0
 34 33  1  0  0  0  0
M  END
>  <MODEL>
4

>  <REMARK>
 VINA RESULT:      -7.4      2.052      3.539
  Name = 
  9 active torsions:
  status: ('A' for Active; 'I' for Inactive)
    1  A    between atoms: C_5  and  C_8
    2  A    between atoms: C_8  and  N_19
    3  A    between atoms: C_10  and  C_23
    4  A    between atoms: N_14  and  C_23
    5  A    between atoms: N_14  and  C_28
    6  A    between atoms: C_15  and  N_19
    7  A    between atoms: C_15  and  C_30
    8  A    between atoms: C_17  and  C_35
    9  A    between atoms: C_25  and  C_31
                            x       y       z     vdW  Elec       q    Type
                         _______ _______ _______ _____ _____    ______ ____

>  <TORSDO>
F 9

$$$$
=
 OpenBabel11042418013D

 35 39  0  0  1  0  0  0  0  0999 V2000
  188.8290  176.2330  142.7250 C   0  0  0  0  0  0  0  0  0  0  0  0
  190.0530  176.8750  142.8690 O   0  0  0  0  0  1  0  0  0  0  0  0
  186.7010  175.7540  142.9420 O   0  0  0  0  0  0  0  0  0  0  0  0
  187.6230  176.6370  143.2570 C   0  0  0  0  0  0  0  0  0  0  0  0
  187.2330  174.7970  142.2060 C   0  0  0  0  0  3  0  0  0  0  0  0
  188.5840  175.0630  142.0430 C   0  0  0  0  0  0  0  0  0  0  0  0
  190.5220  173.1570  139.5520 N   0  0  0  0  0  0  0  0  0  0  0  0
  191.7230  171.8020  142.8910 C   0  0  0  0  0  0  0  0  0  0  0  0
  192.3210  172.0210  140.6210 N   0  0  0  0  0  0  0  0  0  0  0  0
  191.9820  170.9380  143.8340 O   0  0  0  0  0  0  0  0  0  0  0  0
  190.8900  173.8020  141.7620 C   0  0  2  0  0  3  0  0  0  0  0  0
  190.8850  172.8450  142.9400 C   0  0  0  0  0  3  0  0  0  0  0  0
  189.5470  174.2420  141.2890 C   0  0  0  0  0  0  0  0  0  0  0  0
  189.4060  173.9130  140.0090 C   0  0  0  0  0  3  0  0  0  0  0  0
  192.4610  171.4630  141.7890 C   0  0  0  0  0  0  0  0  0  0  0  0
  192.8720  170.0890  143.3360 C   0  0  0  0  0  3  0  0  0  0  0  0
  191.3670  173.0910  140.5260 C   0  0  0  0  0  0  0  0  0  0  0  0
  193.2020  170.3740  142.0460 N   0  0  0  0  0  0  0  0  0  0  0  0
  187.3670  177.8180  144.0990 C   0  0  0  0  0  0  0  0  0  0  0  0
  187.7260  177.8940  145.3930 C   0  0  0  0  0  3  0  0  0  0  0  0
  188.8700  174.9110  147.4390 C   0  0  0  0  0  3  0  0  0  0  0  0
  188.0330  175.8080  146.7700 C   0  0  0  0  0  3  0  0  0  0  0  0
  189.9480  177.1630  146.1830 C   0  0  0  0  0  3  0  0  0  0  0  0
  190.2460  175.1440  147.4840 C   0  0  0  0  0  3  0  0  0  0  0  0
  190.7930  176.2720  146.8540 C   0  0  0  0  0  0  0  0  0  0  0  0
  188.5660  176.9510  146.1540 C   0  0  0  0  0  0  0  0  0  0  0  0
  192.2010  176.5260  146.8730 N   0  0  0  0  0  2  0  0  0  0  0  0
  193.0270  176.5700  145.6750 C   0  0  1  0  0  3  0  0  0  0  0  0
  194.4750  176.7790  146.0790 C   0  0  0  0  0  1  0  0  0  0  0  0
  192.8880  175.2670  144.9040 C   0  0  0  0  0  2  0  0  0  0  0  0
  193.4510  174.1130  145.7090 C   0  0  0  0  0  1  0  0  0  0  0  0
  186.6680  178.9120  143.4920 N   0  0  0  0  0  2  0  0  0  0  0  0
  185.5780  179.6450  144.1290 C   0  0  0  0  0  2  0  0  0  0  0  0
  184.3870  178.7320  144.3710 C   0  0  0  0  0  2  0  0  0  0  0  0
  184.0710  178.6590  145.8530 C   0  0  0  0  0  1  0  0  0  0  0  0
  1  2  1  0  0  0  0
  1  4  2  0  0  0  0
  3  4  1  0  0  0  0
  4 19  1  0  0  0  0
  5  3  1  0  0  0  0
  6  5  2  0  0  0  0
  6  1  1  0  0  0  0
  7 14  1  0  0  0  0
  7 17  2  0  0  0  0
  8 12  2  0  0  0  0
  8 10  1  0  0  0  0
  9 15  2  0  0  0  0
 11 12  1  1  0  0  0
 13 11  1  0  0  0  0
 13  6  1  0  0  0  0
 14 13  2  0  0  0  0
 15 18  1  0  0  0  0
 15  8  1  0  0  0  0
 16 10  1  0  0  0  0
 17  9  1  0  0  0  0
 17 11  1  0  0  0  0
 18 16  2  0  0  0  0
 19 20  2  0  0  0  0
 20 26  1  0  0  0  0
 21 24  1  0  0  0  0
 22 21  2  0  0  0  0
 23 25  1  0  0  0  0
 25 27  1  0  0  0  0
 25 24  2  0  0  0  0
 26 23  2  0  0  0  0
 26 22  1  0  0  0  0
 28 29  1  1  0  0  0
 28 27  1  0  0  0  0
 30 28  1  0  0  0  0
 30 31  1  0  0  0  0
 32 19  1  0  0  0  0
 32 33  1  0  0  0  0
 33 34  1  0  0  0  0
 34 35  1  0  0  0  0
M  END
>  <MODEL>
5

>  <REMARK>
 VINA RESULT:      -7.4      2.446      4.133
  Name = 
  9 active torsions:
  status: ('A' for Active; 'I' for Inactive)
    1  A    between atoms: C_5  and  C_8
    2  A    between atoms: C_8  and  N_19
    3  A    between atoms: C_10  and  C_23
    4  A    between atoms: N_14  and  C_23
    5  A    between atoms: N_14  and  C_28
    6  A    between atoms: C_15  and  N_19
    7  A    between atoms: C_15  and  C_30
    8  A    between atoms: C_17  and  C_35
    9  A    between atoms: C_25  and  C_31
                            x       y       z     vdW  Elec       q    Type
                         _______ _______ _______ _____ _____    ______ ____

>  <TORSDO>
F 9

$$$$
=
 OpenBabel11042418013D

 35 39  0  0  1  0  0  0  0  0999 V2000
  189.9550  175.0580  143.5760 C   0  0  0  0  0  0  0  0  0  0  0  0
  190.0880  176.1350  142.7090 O   0  0  0  0  0  1  0  0  0  0  0  0
  189.9510  173.8640  145.4140 O   0  0  0  0  0  0  0  0  0  0  0  0
  190.1150  175.0810  144.9450 C   0  0  0  0  0  0  0  0  0  0  0  0
  189.6660  173.0390  144.4250 C   0  0  0  0  0  3  0  0  0  0  0  0
  189.6570  173.7570  143.2390 C   0  0  0  0  0  0  0  0  0  0  0  0
  188.3010  172.7890  139.9490 N   0  0  0  0  0  0  0  0  0  0  0  0
  191.0270  170.2290  140.6150 C   0  0  0  0  0  0  0  0  0  0  0  0
  189.7630  171.2320  138.8970 N   0  0  0  0  0  0  0  0  0  0  0  0
  191.5900  169.0640  140.7860 O   0  0  0  0  0  0  0  0  0  0  0  0
  190.3700  172.5510  140.9980 C   0  0  2  0  0  3  0  0  0  0  0  0
  190.9230  171.2290  141.4990 C   0  0  0  0  0  3  0  0  0  0  0  0
  189.3840  173.2140  141.8970 C   0  0  0  0  0  0  0  0  0  0  0  0
  188.2430  173.3900  141.2400 C   0  0  0  0  0  3  0  0  0  0  0  0
  190.5260  170.2760  139.3420 C   0  0  0  0  0  0  0  0  0  0  0  0
  191.4550  168.4070  139.6430 C   0  0  0  0  0  3  0  0  0  0  0  0
  189.4930  172.3180  139.7980 C   0  0  0  0  0  0  0  0  0  0  0  0
  190.7850  169.1260  138.7010 N   0  0  0  0  0  0  0  0  0  0  0  0
  190.4730  176.2370  145.7850 C   0  0  0  0  0  0  0  0  0  0  0  0
  189.6000  177.2020  146.1250 C   0  0  0  0  0  3  0  0  0  0  0  0
  185.8600  176.8270  146.6380 C   0  0  0  0  0  3  0  0  0  0  0  0
  187.2360  176.7470  146.8650 C   0  0  0  0  0  3  0  0  0  0  0  0
  187.6530  177.8100  144.7330 C   0  0  0  0  0  3  0  0  0  0  0  0
  185.3810  177.3950  145.4560 C   0  0  0  0  0  3  0  0  0  0  0  0
  186.2760  177.8910  144.4970 C   0  0  0  0  0  0  0  0  0  0  0  0
  188.1420  177.2200  145.9030 C   0  0  0  0  0  0  0  0  0  0  0  0
  185.8100  178.4900  143.2840 N   0  0  0  0  0  2  0  0  0  0  0  0
  185.2300  177.7340  142.1840 C   0  0  1  0  0  3  0  0  0  0  0  0
  183.7960  178.1840  141.9750 C   0  0  0  0  0  1  0  0  0  0  0  0
  186.0350  177.9690  140.9160 C   0  0  0  0  0  2  0  0  0  0  0  0
  187.1930  176.9930  140.8360 C   0  0  0  0  0  1  0  0  0  0  0  0
  191.8360  176.3300  146.2190 N   0  0  0  0  0  2  0  0  0  0  0  0
  192.9710  176.5280  145.3240 C   0  0  0  0  0  2  0  0  0  0  0  0
  194.2610  176.6640  146.1170 C   0  0  0  0  0  2  0  0  0  0  0  0
  195.0240  175.3540  146.1120 C   0  0  0  0  0  1  0  0  0  0  0  0
  1  4  2  0  0  0  0
  2  1  1  0  0  0  0
  4  3  1  0  0  0  0
  4 19  1  0  0  0  0
  5  3  1  0  0  0  0
  6  1  1  0  0  0  0
  6  5  2  0  0  0  0
  7 14  1  0  0  0  0
  8 10  1  0  0  0  0
  8 12  2  0  0  0  0
  9 15  2  0  0  0  0
  9 17  1  0  0  0  0
 11 12  1  1  0  0  0
 11 13  1  0  0  0  0
 13  6  1  0  0  0  0
 14 13  2  0  0  0  0
 15  8  1  0  0  0  0
 16 10  1  0  0  0  0
 17  7  2  0  0  0  0
 17 11  1  0  0  0  0
 18 15  1  0  0  0  0
 18 16  2  0  0  0  0
 19 20  2  0  0  0  0
 19 32  1  0  0  0  0
 21 22  1  0  0  0  0
 23 26  1  0  0  0  0
 24 21  2  0  0  0  0
 25 23  2  0  0  0  0
 25 24  1  0  0  0  0
 26 20  1  0  0  0  0
 26 22  2  0  0  0  0
 27 25  1  0  0  0  0
 28 29  1  6  0  0  0
 28 27  1  0  0  0  0
 30 28  1  0  0  0  0
 31 30  1  0  0  0  0
 33 34  1  0  0  0  0
 33 32  1  0  0  0  0
 35 34  1  0  0  0  0
M  END
>  <MODEL>
6

>  <REMARK>
 VINA RESULT:      -7.3      3.087      6.743
  Name = 
  9 active torsions:
  status: ('A' for Active; 'I' for Inactive)
    1  A    between atoms: C_5  and  C_8
    2  A    between atoms: C_8  and  N_19
    3  A    between atoms: C_10  and  C_23
    4  A    between atoms: N_14  and  C_23
    5  A    between atoms: N_14  and  C_28
    6  A    between atoms: C_15  and  N_19
    7  A    between atoms: C_15  and  C_30
    8  A    between atoms: C_17  and  C_35
    9  A    between atoms: C_25  and  C_31
                            x       y       z     vdW  Elec       q    Type
                         _______ _______ _______ _____ _____    ______ ____

>  <TORSDO>
F 9

$$$$
=
 OpenBabel11042418013D

 35 39  0  0  1  0  0  0  0  0999 V2000
  189.7430  175.3890  142.4550 C   0  0  0  0  0  0  0  0  0  0  0  0
  188.9760  174.2400  142.3080 O   0  0  0  0  0  1  0  0  0  0  0  0
  191.4780  176.7100  142.6800 O   0  0  0  0  0  0  0  0  0  0  0  0
  191.1190  175.4610  142.4820 C   0  0  0  0  0  0  0  0  0  0  0  0
  190.4060  177.4740  142.7620 C   0  0  0  0  0  3  0  0  0  0  0  0
  189.2810  176.6750  142.6230 C   0  0  0  0  0  0  0  0  0  0  0  0
  185.9240  178.0570  141.9740 N   0  0  0  0  0  0  0  0  0  0  0  0
  186.1150  177.8320  145.7600 C   0  0  0  0  0  0  0  0  0  0  0  0
  184.6060  177.9460  143.9530 N   0  0  0  0  0  0  0  0  0  0  0  0
  186.0910  178.2160  147.0070 O   0  0  0  0  0  0  0  0  0  0  0  0
  186.8630  176.7820  143.6850 C   0  0  2  0  0  3  0  0  0  0  0  0
  187.1430  177.3060  145.0820 C   0  0  0  0  0  3  0  0  0  0  0  0
  187.8810  177.1330  142.6540 C   0  0  0  0  0  0  0  0  0  0  0  0
  187.2920  177.8000  141.6680 C   0  0  0  0  0  3  0  0  0  0  0  0
  184.8790  178.0660  145.2200 C   0  0  0  0  0  0  0  0  0  0  0  0
  184.8660  178.6660  147.2420 C   0  0  0  0  0  3  0  0  0  0  0  0
  185.6690  177.4860  143.1030 C   0  0  0  0  0  0  0  0  0  0  0  0
  184.0640  178.5970  146.1440 N   0  0  0  0  0  0  0  0  0  0  0  0
  192.0750  174.3450  142.3750 C   0  0  0  0  0  0  0  0  0  0  0  0
  193.1280  174.1940  143.1990 C   0  0  0  0  0  3  0  0  0  0  0  0
  194.7790  176.5390  145.6820 C   0  0  0  0  0  3  0  0  0  0  0  0
  194.5520  175.7950  144.5210 C   0  0  0  0  0  3  0  0  0  0  0  0
  192.5230  174.9000  145.4860 C   0  0  0  0  0  3  0  0  0  0  0  0
  193.8790  176.4590  146.7470 C   0  0  0  0  0  3  0  0  0  0  0  0
  192.7440  175.6390  146.6530 C   0  0  0  0  0  0  0  0  0  0  0  0
  193.4330  174.9550  144.4240 C   0  0  0  0  0  0  0  0  0  0  0  0
  191.8000  175.5510  147.7240 N   0  0  0  0  0  2  0  0  0  0  0  0
  190.4410  176.0660  147.6430 C   0  0  1  0  0  3  0  0  0  0  0  0
  190.3350  177.0030  146.4540 C   0  0  0  0  0  1  0  0  0  0  0  0
  189.4610  174.9150  147.4830 C   0  0  0  0  0  2  0  0  0  0  0  0
  189.3160  174.5420  146.0210 C   0  0  0  0  0  1  0  0  0  0  0  0
  191.8680  173.4080  141.3110 N   0  0  0  0  0  2  0  0  0  0  0  0
  191.5850  173.7830  139.9290 C   0  0  0  0  0  2  0  0  0  0  0  0
  190.4720  172.9210  139.3570 C   0  0  0  0  0  2  0  0  0  0  0  0
  189.3750  173.7930  138.7760 C   0  0  0  0  0  1  0  0  0  0  0  0
  1  4  2  0  0  0  0
  1  6  1  0  0  0  0
  2  1  1  0  0  0  0
  3  5  1  0  0  0  0
  4  3  1  0  0  0  0
  6 13  1  0  0  0  0
  6  5  2  0  0  0  0
  7 17  2  0  0  0  0
  8 10  1  0  0  0  0
  9 15  2  0  0  0  0
 10 16  1  0  0  0  0
 11 12  1  1  0  0  0
 12  8  2  0  0  0  0
 13 11  1  0  0  0  0
 14  7  1  0  0  0  0
 14 13  2  0  0  0  0
 15  8  1  0  0  0  0
 15 18  1  0  0  0  0
 17 11  1  0  0  0  0
 17  9  1  0  0  0  0
 18 16  2  0  0  0  0
 19  4  1  0  0  0  0
 19 20  2  0  0  0  0
 20 26  1  0  0  0  0
 21 24  1  0  0  0  0
 22 21  2  0  0  0  0
 23 25  1  0  0  0  0
 25 24  2  0  0  0  0
 25 27  1  0  0  0  0
 26 22  1  0  0  0  0
 26 23  2  0  0  0  0
 28 29  1  6  0  0  0
 28 27  1  0  0  0  0
 30 28  1  0  0  0  0
 31 30  1  0  0  0  0
 32 19  1  0  0  0  0
 33 32  1  0  0  0  0
 34 33  1  0  0  0  0
 35 34  1  0  0  0  0
M  END
>  <MODEL>
7

>  <REMARK>
 VINA RESULT:      -7.2      2.117      6.870
  Name = 
  9 active torsions:
  status: ('A' for Active; 'I' for Inactive)
    1  A    between atoms: C_5  and  C_8
    2  A    between atoms: C_8  and  N_19
    3  A    between atoms: C_10  and  C_23
    4  A    between atoms: N_14  and  C_23
    5  A    between atoms: N_14  and  C_28
    6  A    between atoms: C_15  and  N_19
    7  A    between atoms: C_15  and  C_30
    8  A    between atoms: C_17  and  C_35
    9  A    between atoms: C_25  and  C_31
                            x       y       z     vdW  Elec       q    Type
                         _______ _______ _______ _____ _____    ______ ____

>  <TORSDO>
F 9

$$$$
=
 OpenBabel11042418013D

 35 39  0  0  1  0  0  0  0  0999 V2000
  189.7400  176.2100  145.5800 C   0  0  0  0  0  0  0  0  0  0  0  0
  189.6860  175.0020  146.2630 O   0  0  0  0  0  1  0  0  0  0  0  0
  189.1110  178.0440  144.5580 O   0  0  0  0  0  0  0  0  0  0  0  0
  188.6700  177.0060  145.2330 C   0  0  0  0  0  0  0  0  0  0  0  0
  190.4250  177.9880  144.4610 C   0  0  0  0  0  3  0  0  0  0  0  0
  190.8660  176.8380  145.0980 C   0  0  0  0  0  0  0  0  0  0  0  0
  194.2900  175.9580  146.1480 N   0  0  0  0  0  0  0  0  0  0  0  0
  194.5040  176.1460  142.3600 C   0  0  0  0  0  0  0  0  0  0  0  0
  195.5550  175.2360  144.2630 N   0  0  0  0  0  0  0  0  0  0  0  0
  194.9060  176.5300  141.1790 O   0  0  0  0  0  0  0  0  0  0  0  0
  193.0260  175.5890  144.2240 C   0  0  2  0  0  3  0  0  0  0  0  0
  193.2820  176.2720  142.8930 C   0  0  0  0  0  3  0  0  0  0  0  0
  192.2660  176.3950  145.2210 C   0  0  0  0  0  0  0  0  0  0  0  0
  192.9960  176.5250  146.3240 C   0  0  0  0  0  3  0  0  0  0  0  0
  195.5680  175.5790  143.0080 C   0  0  0  0  0  0  0  0  0  0  0  0
  196.1860  176.1960  141.0880 C   0  0  0  0  0  3  0  0  0  0  0  0
  194.3190  175.4240  144.9730 C   0  0  0  0  0  0  0  0  0  0  0  0
  196.6530  175.5990  142.2190 N   0  0  0  0  0  0  0  0  0  0  0  0
  187.2420  176.7500  145.4940 C   0  0  0  0  0  0  0  0  0  0  0  0
  186.3040  176.7450  144.5290 C   0  0  0  0  0  3  0  0  0  0  0  0
  186.2270  177.8810  140.9100 C   0  0  0  0  0  3  0  0  0  0  0  0
  185.9680  177.8320  142.2830 C   0  0  0  0  0  3  0  0  0  0  0  0
  187.3440  175.8520  142.4750 C   0  0  0  0  0  3  0  0  0  0  0  0
  187.0420  176.9120  140.3210 C   0  0  0  0  0  3  0  0  0  0  0  0
  187.6060  175.8920  141.1020 C   0  0  0  0  0  0  0  0  0  0  0  0
  186.5090  176.8040  143.0700 C   0  0  0  0  0  0  0  0  0  0  0  0
  188.4550  174.8960  140.5240 N   0  0  0  0  0  2  0  0  0  0  0  0
  188.9090  173.7120  141.2380 C   0  0  1  0  0  3  0  0  0  0  0  0
  189.0800  172.5720  140.2510 C   0  0  0  0  0  1  0  0  0  0  0  0
  190.2320  174.0020  141.9280 C   0  0  0  0  0  2  0  0  0  0  0  0
  190.3270  173.2380  143.2350 C   0  0  0  0  0  1  0  0  0  0  0  0
  186.8570  176.5330  146.8570 N   0  0  0  0  0  2  0  0  0  0  0  0
  185.6430  177.0680  147.4640 C   0  0  0  0  0  2  0  0  0  0  0  0
  185.5140  178.5560  147.1790 C   0  0  0  0  0  2  0  0  0  0  0  0
  184.2310  178.8380  146.4200 C   0  0  0  0  0  1  0  0  0  0  0  0
  1  2  1  0  0  0  0
  3  4  1  0  0  0  0
  4 19  1  0  0  0  0
  4  1  2  0  0  0  0
  5  3  1  0  0  0  0
  5  6  2  0  0  0  0
  6 13  1  0  0  0  0
  6  1  1  0  0  0  0
  7 14  1  0  0  0  0
  8 12  2  0  0  0  0
  8 15  1  0  0  0  0
  9 17  1  0  0  0  0
 10  8  1  0  0  0  0
 11 12  1  6  0  0  0
 11 17  1  0  0  0  0
 11 13  1  0  0  0  0
 13 14  2  0  0  0  0
 15  9  2  0  0  0  0
 16 10  1  0  0  0  0
 16 18  2  0  0  0  0
 17  7  2  0  0  0  0
 18 15  1  0  0  0  0
 19 32  1  0  0  0  0
 20 19  2  0  0  0  0
 21 22  1  0  0  0  0
 22 26  2  0  0  0  0
 23 26  1  0  0  0  0
 24 21  2  0  0  0  0
 24 25  1  0  0  0  0
 25 23  2  0  0  0  0
 26 20  1  0  0  0  0
 27 25  1  0  0  0  0
 27 28  1  0  0  0  0
 28 29  1  6  0  0  0
 28 30  1  0  0  0  0
 30 31  1  0  0  0  0
 32 33  1  0  0  0  0
 34 33  1  0  0  0  0
 35 34  1  0  0  0  0
M  END
>  <MODEL>
8

>  <REMARK>
 VINA RESULT:      -7.1      2.217      4.755
  Name = 
  9 active torsions:
  status: ('A' for Active; 'I' for Inactive)
    1  A    between atoms: C_5  and  C_8
    2  A    between atoms: C_8  and  N_19
    3  A    between atoms: C_10  and  C_23
    4  A    between atoms: N_14  and  C_23
    5  A    between atoms: N_14  and  C_28
    6  A    between atoms: C_15  and  N_19
    7  A    between atoms: C_15  and  C_30
    8  A    between atoms: C_17  and  C_35
    9  A    between atoms: C_25  and  C_31
                            x       y       z     vdW  Elec       q    Type
                         _______ _______ _______ _____ _____    ______ ____

>  <TORSDO>
F 9

$$$$
=
 OpenBabel11042418013D

 35 39  0  0  1  0  0  0  0  0999 V2000
  191.0830  174.6330  143.0600 C   0  0  0  0  0  0  0  0  0  0  0  0
  191.9760  175.2480  142.1910 O   0  0  0  0  0  1  0  0  0  0  0  0
  189.8340  174.2490  144.8200 O   0  0  0  0  0  0  0  0  0  0  0  0
  190.6320  175.1330  144.2620 C   0  0  0  0  0  0  0  0  0  0  0  0
  189.7150  173.1980  144.0320 C   0  0  0  0  0  3  0  0  0  0  0  0
  190.4920  173.4000  142.9020 C   0  0  0  0  0  0  0  0  0  0  0  0
  191.4360  170.7580  140.5100 N   0  0  0  0  0  0  0  0  0  0  0  0
  189.5190  173.2700  138.4030 C   0  0  0  0  0  0  0  0  0  0  0  0
  190.2040  171.0160  138.4890 N   0  0  0  0  0  0  0  0  0  0  0  0
  189.2730  174.1230  137.4470 O   0  0  0  0  0  0  0  0  0  0  0  0
  189.6900  172.2980  140.6370 C   0  0  2  0  0  3  0  0  0  0  0  0
  189.5460  173.5000  139.7220 C   0  0  0  0  0  3  0  0  0  0  0  0
  190.6420  172.4670  141.7720 C   0  0  0  0  0  0  0  0  0  0  0  0
  191.5810  171.5310  141.6970 C   0  0  0  0  0  3  0  0  0  0  0  0
  189.7670  172.0510  137.8320 C   0  0  0  0  0  0  0  0  0  0  0  0
  189.3510  173.4490  136.3070 C   0  0  0  0  0  3  0  0  0  0  0  0
  190.3740  171.1750  139.9070 C   0  0  0  0  0  0  0  0  0  0  0  0
  189.6670  172.1380  136.4960 N   0  0  0  0  0  0  0  0  0  0  0  0
  191.0020  176.4110  144.8960 C   0  0  0  0  0  0  0  0  0  0  0  0
  190.4100  177.5810  144.5980 C   0  0  0  0  0  3  0  0  0  0  0  0
  188.1230  178.0620  141.6090 C   0  0  0  0  0  3  0  0  0  0  0  0
  189.2860  177.9040  142.3680 C   0  0  0  0  0  3  0  0  0  0  0  0
  187.9610  177.8200  144.3890 C   0  0  0  0  0  3  0  0  0  0  0  0
  186.8790  178.1030  142.2430 C   0  0  0  0  0  3  0  0  0  0  0  0
  186.7920  177.9810  143.6380 C   0  0  0  0  0  0  0  0  0  0  0  0
  189.2130  177.8020  143.7650 C   0  0  0  0  0  0  0  0  0  0  0  0
  185.5290  178.0060  144.3090 N   0  0  0  0  0  2  0  0  0  0  0  0
  185.3860  178.1520  145.7500 C   0  0  1  0  0  3  0  0  0  0  0  0
  184.0690  178.8440  146.0500 C   0  0  0  0  0  1  0  0  0  0  0  0
  185.4130  176.7840  146.4130 C   0  0  0  0  0  2  0  0  0  0  0  0
  186.3180  176.8030  147.6290 C   0  0  0  0  0  1  0  0  0  0  0  0
  192.0730  176.3810  145.8480 N   0  0  0  0  0  2  0  0  0  0  0  0
  192.2050  175.3820  146.9040 C   0  0  0  0  0  2  0  0  0  0  0  0
  191.1940  175.6350  148.0110 C   0  0  0  0  0  2  0  0  0  0  0  0
  191.1860  177.1030  148.3920 C   0  0  0  0  0  1  0  0  0  0  0  0
  1  4  2  0  0  0  0
  2  1  1  0  0  0  0
  4  3  1  0  0  0  0
  4 19  1  0  0  0  0
  5  3  1  0  0  0  0
  6  1  1  0  0  0  0
  6  5  2  0  0  0  0
  7 14  1  0  0  0  0
  8 12  2  0  0  0  0
  9 17  1  0  0  0  0
 10  8  1  0  0  0  0
 11 12  1  6  0  0  0
 11 13  1  0  0  0  0
 13  6  1  0  0  0  0
 14 13  2  0  0  0  0
 15  8  1  0  0  0  0
 15  9  2  0  0  0  0
 16 18  2  0  0  0  0
 16 10  1  0  0  0  0
 17  7  2  0  0  0  0
 17 11  1  0  0  0  0
 18 15  1  0  0  0  0
 19 32  1  0  0  0  0
 20 19  2  0  0  0  0
 21 24  2  0  0  0  0
 21 22  1  0  0  0  0
 22 26  2  0  0  0  0
 24 25  1  0  0  0  0
 25 27  1  0  0  0  0
 25 23  2  0  0  0  0
 26 23  1  0  0  0  0
 26 20  1  0  0  0  0
 27 28  1  0  0  0  0
 28 29  1  6  0  0  0
 28 30  1  0  0  0  0
 30 31  1  0  0  0  0
 32 33  1  0  0  0  0
 33 34  1  0  0  0  0
 34 35  1  0  0  0  0
M  END
>  <MODEL>
9

>  <REMARK>
 VINA RESULT:      -7.1      3.037      6.701
  Name = 
  9 active torsions:
  status: ('A' for Active; 'I' for Inactive)
    1  A    between atoms: C_5  and  C_8
    2  A    between atoms: C_8  and  N_19
    3  A    between atoms: C_10  and  C_23
    4  A    between atoms: N_14  and  C_23
    5  A    between atoms: N_14  and  C_28
    6  A    between atoms: C_15  and  N_19
    7  A    between atoms: C_15  and  C_30
    8  A    between atoms: C_17  and  C_35
    9  A    between atoms: C_25  and  C_31
                            x       y       z     vdW  Elec       q    Type
                         _______ _______ _______ _____ _____    ______ ____

>  <TORSDO>
F 9

$$$$
