=
 OpenBabel11042419083D

 57 64  0  0  1  0  0  0  0  0999 V2000
  189.8240  177.8680  145.9050 O   0  0  0  0  0  0  0  0  0  0  0  0
  188.4480  177.8940  141.6030 C   0  0  0  0  0  1  0  0  0  0  0  0
  187.5220  175.9370  142.8420 C   0  0  1  0  0  3  0  0  0  0  0  0
  187.6230  175.3590  144.2520 C   0  0  0  0  0  2  0  0  0  0  0  0
  190.5570  174.7940  143.5830 O   0  0  0  0  0  0  0  0  0  0  0  0
  192.4300  175.9130  145.7250 C   0  0  2  0  0  0  0  0  0  0  0  0
  188.0350  175.8810  146.5670 O   0  0  0  0  0  0  0  0  0  0  0  0
  189.3880  175.5340  146.6790 C   0  0  0  0  0  2  0  0  0  0  0  0
  190.1980  176.8210  146.7900 C   0  0  1  0  0  3  0  0  0  0  0  0
  188.8050  176.6640  142.4170 C   0  0  2  0  0  3  0  0  0  0  0  0
  191.7160  176.6310  146.8850 C   0  0  0  0  0  2  0  0  0  0  0  0
  189.7380  177.0520  143.5780 C   0  0  1  0  0  3  0  0  0  0  0  0
  191.9740  176.3940  144.4510 O   0  0  0  0  0  0  0  0  0  0  0  0
  188.9700  177.4300  144.8620 C   0  0  1  0  0  3  0  0  0  0  0  0
  187.7950  176.4730  145.2990 C   0  0  1  0  0  0  0  0  0  0  0  0
  190.7770  176.0070  143.8440 C   0  0  0  0  0  0  0  0  0  0  0  0
  192.2200  174.4110  145.8630 C   0  0  0  0  0  1  0  0  0  0  0  0
  185.8470  177.7630  144.1100 C   0  0  2  0  0  3  0  0  0  0  0  0
  184.5890  178.1820  146.7020 C   0  0  0  0  0  3  0  0  0  0  0  0
  185.8620  177.4530  146.5980 C   0  0  0  0  0  0  0  0  0  0  0  0
  184.5710  178.5880  144.2660 C   0  0  1  0  0  0  0  0  0  0  0  0
  186.4760  177.2530  145.4000 C   0  0  0  0  0  0  0  0  0  0  0  0
  186.4340  176.9580  147.8840 C   0  0  0  0  0  1  0  0  0  0  0  0
  183.9880  178.7080  145.6400 C   0  0  0  0  0  3  0  0  0  0  0  0
  185.9020  179.2920  144.0770 C   0  0  0  0  0  2  0  0  0  0  0  0
  183.6540  178.6430  143.0700 C   0  0  0  0  0  0  0  0  0  0  0  0
  182.5140  179.0570  143.2000 O   0  0  0  0  0  0  0  0  0  0  0  0
  184.0980  178.1770  141.7220 C   0  0  0  0  0  1  0  0  0  0  0  0
  187.2310  174.9130  141.9340 O   0  0  0  0  0  0  0  0  0  0  0  0
  188.3250  172.8770  142.5390 C   0  0  0  0  0  1  0  0  0  0  0  0
  188.4250  174.1960  141.7860 C   0  0  1  0  0  3  0  0  0  0  0  0
  188.7390  173.9800  140.3030 C   0  0  1  0  0  3  0  0  0  0  0  0
  188.1410  174.9770  139.5300 O   0  0  0  0  0  1  0  0  0  0  0  0
  190.1800  173.9600  140.0610 N   0  0  0  0  0  2  0  0  0  0  0  0
  191.8630  173.1160  138.4650 C   0  0  2  0  0  3  0  0  0  0  0  0
  192.5220  171.7730  138.0890 C   0  0  0  0  0  2  0  0  0  0  0  0
  190.5890  170.4770  137.1480 C   0  0  0  0  0  3  0  0  0  0  0  0
  190.0470  171.4990  139.3760 C   0  0  0  0  0  2  0  0  0  0  0  0
  190.4650  172.9450  139.0510 C   0  0  1  0  0  0  0  0  0  0  0  0
  189.7500  170.6560  138.1720 C   0  0  0  0  0  3  0  0  0  0  0  0
  191.8590  171.0650  137.0410 O   0  0  0  0  0  0  0  0  0  0  0  0
  190.6300  173.4580  137.6300 C   0  0  0  0  0  2  0  0  0  0  0  0
  193.8730  176.1520  145.8570 N   0  0  0  0  0  2  0  0  0  0  0  0
  195.6320  174.7010  146.0230 C   0  0  0  0  0  1  0  0  0  0  0  0
  194.5950  175.1890  145.1290 N   0  0  0  0  0  0  0  0  0  0  0  0
  195.2640  175.8850  144.0350 C   0  0  0  0  0  2  0  0  0  0  0  0
  194.9020  175.2900  142.6530 C   0  0  2  0  0  0  0  0  0  0  0  0
  193.9270  176.2100  141.9100 C   0  0  0  0  0  1  0  0  0  0  0  0
  194.9800  172.6880  142.9430 C   0  0  2  0  0  0  0  0  0  0  0  0
  193.0020  172.2670  141.6350 O   0  0  0  0  0  1  0  0  0  0  0  0
  194.1860  173.0020  141.6820 C   0  0  1  0  0  3  0  0  0  0  0  0
  194.4450  171.6780  143.7460 O   0  0  0  0  0  1  0  0  0  0  0  0
  194.1410  173.9600  142.8810 C   0  0  2  0  0  3  0  0  0  0  0  0
  196.4680  172.7220  142.7930 C   0  0  0  0  0  3  0  0  0  0  0  0
  197.1860  172.5380  143.7600 O   0  0  0  0  0  0  0  0  0  0  0  0
  196.5050  176.2910  141.2990 C   0  0  0  0  0  1  0  0  0  0  0  0
  196.0710  175.0780  141.8700 O   0  0  0  0  0  0  0  0  0  0  0  0
  1  9  1  0  0  0  0
  3 29  1  6  0  0  0
  3  4  1  0  0  0  0
  4 15  1  0  0  0  0
  5 16  2  0  0  0  0
  6 43  1  0  0  0  0
  6 17  1  1  0  0  0
  6 11  1  0  0  0  0
  7  8  1  0  0  0  0
  9  8  1  6  0  0  0
  9 11  1  0  0  0  0
 10  2  1  1  0  0  0
 10  3  1  0  0  0  0
 10 12  1  0  0  0  0
 12 16  1  1  0  0  0
 12 14  1  0  0  0  0
 13  6  1  0  0  0  0
 14 15  1  0  0  0  0
 14  1  1  1  0  0  0
 15 22  1  1  0  0  0
 15  7  1  0  0  0  0
 16 13  1  0  0  0  0
 18 25  1  1  0  0  0
 18 21  1  0  0  0  0
 18 22  1  0  0  0  0
 20 19  1  0  0  0  0
 20 23  1  0  0  0  0
 21 26  1  6  0  0  0
 21 24  1  0  0  0  0
 22 20  2  0  0  0  0
 24 19  2  0  0  0  0
 25 21  1  0  0  0  0
 26 27  2  0  0  0  0
 28 26  1  0  0  0  0
 31 29  1  0  0  0  0
 31 30  1  1  0  0  0
 32 33  1  6  0  0  0
 32 31  1  0  0  0  0
 34 32  1  0  0  0  0
 35 42  1  6  0  0  0
 35 39  1  0  0  0  0
 36 35  1  0  0  0  0
 37 40  2  0  0  0  0
 39 38  1  0  0  0  0
 39 34  1  1  0  0  0
 40 38  1  0  0  0  0
 41 37  1  0  0  0  0
 41 36  1  0  0  0  0
 42 39  1  0  0  0  0
 45 43  1  0  0  0  0
 45 44  1  0  0  0  0
 46 45  1  0  0  0  0
 47 48  1  6  0  0  0
 47 46  1  0  0  0  0
 49 52  1  1  0  0  0
 51 50  1  1  0  0  0
 51 53  1  0  0  0  0
 51 49  1  0  0  0  0
 53 47  1  6  0  0  0
 53 49  1  0  0  0  0
 54 49  1  0  0  0  0
 54 55  2  0  0  0  0
 56 57  1  0  0  0  0
 57 47  1  0  0  0  0
M  END
>  <MODEL>
1

>  <REMARK>
 VINA RESULT:      -8.1      0.000      0.000
  Name = 
  14 active torsions:
  status: ('A' for Active; 'I' for Inactive)
    1  A    between atoms: C_1  and  C_10
    2  A    between atoms: C_8  and  O_46
    3  A    between atoms: N_9  and  C_16
    4  A    between atoms: N_9  and  C_33
    5  A    between atoms: C_16  and  C_43
    6  A    between atoms: C_18  and  N_35
    7  A    between atoms: C_18  and  C_54
    8  A    between atoms: C_19  and  N_49
    9  A    between atoms: C_25  and  C_42
   10  A    between atoms: O_28  and  C_54
   11  A    between atoms: C_29  and  C_54
   12  A    between atoms: N_35  and  N_49
   13  A    between atoms: C_37  and  C_45
   14  A    between atoms: C_43  and  O_46
                            x       y       z     vdW  Elec       q    Type
                         _______ _______ _______ _____ _____    ______ ____

>  <TORSDO>
F 14

$$$$
=
 OpenBabel11042419083D

 57 64  0  0  1  0  0  0  0  0999 V2000
  192.5610  174.6750  146.2660 O   0  0  0  0  0  0  0  0  0  0  0  0
  192.2420  172.2910  142.4430 C   0  0  0  0  0  1  0  0  0  0  0  0
  193.3090  174.5100  142.0440 C   0  0  1  0  0  3  0  0  0  0  0  0
  193.6650  175.7420  142.8720 C   0  0  0  0  0  2  0  0  0  0  0  0
  190.6460  176.1500  143.1770 O   0  0  0  0  0  0  0  0  0  0  0  0
  189.8520  176.4870  146.1110 C   0  0  2  0  0  0  0  0  0  0  0  0
  194.2060  176.5390  145.0800 O   0  0  0  0  0  0  0  0  0  0  0  0
  192.9590  177.0190  145.5010 C   0  0  0  0  0  2  0  0  0  0  0  0
  192.4140  176.0590  146.5520 C   0  0  1  0  0  3  0  0  0  0  0  0
  192.0610  173.7920  142.5740 C   0  0  2  0  0  3  0  0  0  0  0  0
  191.0280  176.4120  147.1020 C   0  0  0  0  0  2  0  0  0  0  0  0
  191.6790  174.1520  144.0220 C   0  0  1  0  0  3  0  0  0  0  0  0
  189.8610  175.3740  145.2030 O   0  0  0  0  0  0  0  0  0  0  0  0
  192.9080  174.4260  144.9140 C   0  0  1  0  0  3  0  0  0  0  0  0
  194.0330  175.3560  144.3150 C   0  0  1  0  0  0  0  0  0  0  0  0
  190.6910  175.2750  144.0840 C   0  0  0  0  0  0  0  0  0  0  0  0
  189.9110  177.8150  145.3680 C   0  0  0  0  0  1  0  0  0  0  0  0
  195.4360  173.2100  144.8620 C   0  0  2  0  0  3  0  0  0  0  0  0
  197.7810  174.4910  143.7060 C   0  0  0  0  0  3  0  0  0  0  0  0
  196.4900  175.1930  143.7490 C   0  0  0  0  0  0  0  0  0  0  0  0
  196.8110  172.5450  144.8770 C   0  0  1  0  0  0  0  0  0  0  0  0
  195.3810  174.6210  144.2930 C   0  0  0  0  0  0  0  0  0  0  0  0
  196.4780  176.5680  143.1680 C   0  0  0  0  0  1  0  0  0  0  0  0
  197.9410  173.2770  144.2200 C   0  0  0  0  0  3  0  0  0  0  0  0
  196.2790  173.1980  146.1380 C   0  0  0  0  0  2  0  0  0  0  0  0
  196.8300  171.0370  144.9080 C   0  0  0  0  0  0  0  0  0  0  0  0
  197.4210  170.4580  145.8030 O   0  0  0  0  0  0  0  0  0  0  0  0
  196.1590  170.2240  143.8480 C   0  0  0  0  0  1  0  0  0  0  0  0
  193.1140  174.8810  140.7090 O   0  0  0  0  0  0  0  0  0  0  0  0
  195.0580  173.4910  140.6580 C   0  0  0  0  0  1  0  0  0  0  0  0
  194.3610  174.7200  140.0910 C   0  0  1  0  0  3  0  0  0  0  0  0
  194.1990  174.6300  138.5710 C   0  0  1  0  0  3  0  0  0  0  0  0
  195.3350  175.1280  137.9310 O   0  0  0  0  0  1  0  0  0  0  0  0
  193.9470  173.2570  138.1430 N   0  0  0  0  0  2  0  0  0  0  0  0
  191.7220  172.3790  138.7540 C   0  0  2  0  0  3  0  0  0  0  0  0
  190.2700  172.8910  138.8570 C   0  0  0  0  0  2  0  0  0  0  0  0
  189.7120  173.3880  136.4610 C   0  0  0  0  0  3  0  0  0  0  0  0
  191.8930  174.4180  137.1560 C   0  0  0  0  0  2  0  0  0  0  0  0
  192.5500  173.1500  137.7310 C   0  0  1  0  0  0  0  0  0  0  0  0
  190.7740  174.1520  136.1930 C   0  0  0  0  0  3  0  0  0  0  0  0
  189.4970  172.7100  137.6700 O   0  0  0  0  0  0  0  0  0  0  0  0
  192.0640  171.7470  137.4050 C   0  0  0  0  0  2  0  0  0  0  0  0
  188.6030  176.4880  146.8820 N   0  0  0  0  0  2  0  0  0  0  0  0
  187.1970  178.1310  147.6270 C   0  0  0  0  0  1  0  0  0  0  0  0
  187.7540  177.5170  146.4330 N   0  0  0  0  0  0  0  0  0  0  0  0
  186.6490  176.8860  145.7180 C   0  0  0  0  0  2  0  0  0  0  0  0
  186.3720  177.5610  144.3540 C   0  0  2  0  0  0  0  0  0  0  0  0
  184.9310  177.2950  143.9040 C   0  0  0  0  0  1  0  0  0  0  0  0
  186.7960  176.9450  141.8430 C   0  0  2  0  0  0  0  0  0  0  0  0
  187.6740  174.7500  142.3060 O   0  0  0  0  0  1  0  0  0  0  0  0
  186.6610  175.6500  142.6340 C   0  0  1  0  0  3  0  0  0  0  0  0
  187.8180  176.9550  140.8910 O   0  0  0  0  0  1  0  0  0  0  0  0
  187.2780  176.8940  143.2890 C   0  0  2  0  0  3  0  0  0  0  0  0
  185.5100  177.6100  141.4690 C   0  0  0  0  0  3  0  0  0  0  0  0
  185.5050  178.5320  140.6730 O   0  0  0  0  0  0  0  0  0  0  0  0
  185.3960  179.6680  144.4650 C   0  0  0  0  0  1  0  0  0  0  0  0
  186.6150  178.9610  144.4210 O   0  0  0  0  0  0  0  0  0  0  0  0
  1  9  1  0  0  0  0
  3 29  1  6  0  0  0
  3 10  1  0  0  0  0
  3  4  1  0  0  0  0
  4 15  1  0  0  0  0
  5 16  2  0  0  0  0
  6 17  1  6  0  0  0
  6 43  1  0  0  0  0
  6 11  1  0  0  0  0
  7  8  1  0  0  0  0
  9  8  1  6  0  0  0
  9 11  1  0  0  0  0
 10  2  1  1  0  0  0
 10 12  1  0  0  0  0
 12 16  1  6  0  0  0
 12 14  1  0  0  0  0
 13  6  1  0  0  0  0
 14  1  1  1  0  0  0
 15 22  1  6  0  0  0
 15 14  1  0  0  0  0
 15  7  1  0  0  0  0
 16 13  1  0  0  0  0
 18 21  1  0  0  0  0
 18 25  1  1  0  0  0
 19 20  1  0  0  0  0
 19 24  2  0  0  0  0
 20 22  2  0  0  0  0
 21 26  1  6  0  0  0
 21 25  1  0  0  0  0
 22 18  1  0  0  0  0
 23 20  1  0  0  0  0
 24 21  1  0  0  0  0
 26 27  2  0  0  0  0
 28 26  1  0  0  0  0
 31 30  1  1  0  0  0
 31 29  1  0  0  0  0
 32 33  1  6  0  0  0
 32 31  1  0  0  0  0
 34 32  1  0  0  0  0
 35 42  1  6  0  0  0
 35 36  1  0  0  0  0
 37 41  1  0  0  0  0
 38 39  1  0  0  0  0
 39 34  1  1  0  0  0
 39 35  1  0  0  0  0
 40 37  2  0  0  0  0
 40 38  1  0  0  0  0
 41 36  1  0  0  0  0
 42 39  1  0  0  0  0
 45 43  1  0  0  0  0
 45 44  1  0  0  0  0
 46 45  1  0  0  0  0
 47 48  1  6  0  0  0
 47 57  1  0  0  0  0
 47 46  1  0  0  0  0
 49 52  1  6  0  0  0
 49 51  1  0  0  0  0
 49 53  1  0  0  0  0
 51 50  1  6  0  0  0
 51 53  1  0  0  0  0
 53 47  1  1  0  0  0
 54 49  1  0  0  0  0
 55 54  2  0  0  0  0
 57 56  1  0  0  0  0
M  END
>  <MODEL>
2

>  <REMARK>
 VINA RESULT:      -8.1      2.238      8.283
  Name = 
  14 active torsions:
  status: ('A' for Active; 'I' for Inactive)
    1  A    between atoms: C_1  and  C_10
    2  A    between atoms: C_8  and  O_46
    3  A    between atoms: N_9  and  C_16
    4  A    between atoms: N_9  and  C_33
    5  A    between atoms: C_16  and  C_43
    6  A    between atoms: C_18  and  N_35
    7  A    between atoms: C_18  and  C_54
    8  A    between atoms: C_19  and  N_49
    9  A    between atoms: C_25  and  C_42
   10  A    between atoms: O_28  and  C_54
   11  A    between atoms: C_29  and  C_54
   12  A    between atoms: N_35  and  N_49
   13  A    between atoms: C_37  and  C_45
   14  A    between atoms: C_43  and  O_46
                            x       y       z     vdW  Elec       q    Type
                         _______ _______ _______ _____ _____    ______ ____

>  <TORSDO>
F 14

$$$$
=
 OpenBabel11042419083D

 57 64  0  0  1  0  0  0  0  0999 V2000
  189.7520  173.6980  141.0470 O   0  0  0  0  0  0  0  0  0  0  0  0
  193.9590  173.3650  139.4380 C   0  0  0  0  0  1  0  0  0  0  0  0
  193.4710  171.5580  141.0870 C   0  0  1  0  0  3  0  0  0  0  0  0
  192.3010  171.1450  141.9760 C   0  0  0  0  0  2  0  0  0  0  0  0
  192.8110  173.7500  143.5010 O   0  0  0  0  0  0  0  0  0  0  0  0
  190.2540  175.4030  143.7830 C   0  0  2  0  0  0  0  0  0  0  0  0
  189.9070  171.2180  142.2360 O   0  0  0  0  0  0  0  0  0  0  0  0
  189.7700  172.3000  143.1160 C   0  0  0  0  0  2  0  0  0  0  0  0
  189.1940  173.4740  142.3340 C   0  0  1  0  0  3  0  0  0  0  0  0
  193.5250  173.0760  140.8630 C   0  0  2  0  0  3  0  0  0  0  0  0
  189.0090  174.7660  143.1380 C   0  0  0  0  0  2  0  0  0  0  0  0
  192.2130  173.8180  141.1750 C   0  0  1  0  0  3  0  0  0  0  0  0
  191.3610  175.4300  142.8690 O   0  0  0  0  0  0  0  0  0  0  0  0
  190.9590  172.9850  140.8380 C   0  0  1  0  0  3  0  0  0  0  0  0
  190.9530  171.4800  141.3130 C   0  0  1  0  0  0  0  0  0  0  0  0
  192.1730  174.3310  142.5810 C   0  0  0  0  0  0  0  0  0  0  0  0
  190.5990  174.6420  145.0570 C   0  0  0  0  0  1  0  0  0  0  0  0
  190.6170  171.1630  138.7320 C   0  0  2  0  0  3  0  0  0  0  0  0
  190.5680  168.2800  139.1270 C   0  0  0  0  0  3  0  0  0  0  0  0
  190.7390  169.1880  140.2710 C   0  0  0  0  0  0  0  0  0  0  0  0
  190.3570  170.1930  137.5820 C   0  0  1  0  0  0  0  0  0  0  0  0
  190.7540  170.5400  140.1150 C   0  0  0  0  0  0  0  0  0  0  0  0
  190.8840  168.5340  141.6050 C   0  0  0  0  0  1  0  0  0  0  0  0
  190.3910  168.7280  137.8900 C   0  0  0  0  0  3  0  0  0  0  0  0
  189.1970  170.9470  138.2050 C   0  0  0  0  0  2  0  0  0  0  0  0
  190.7450  170.6640  136.2020 C   0  0  0  0  0  0  0  0  0  0  0  0
  191.8730  170.4590  135.7880 O   0  0  0  0  0  0  0  0  0  0  0  0
  189.7840  171.4040  135.3290 C   0  0  0  0  0  1  0  0  0  0  0  0
  194.6720  171.1180  141.6550 O   0  0  0  0  0  0  0  0  0  0  0  0
  194.7060  168.7300  141.5790 C   0  0  0  0  0  1  0  0  0  0  0  0
  194.3400  169.9690  142.3850 C   0  0  1  0  0  3  0  0  0  0  0  0
  195.0310  169.9830  143.7510 C   0  0  1  0  0  3  0  0  0  0  0  0
  195.2210  168.6800  144.2120 O   0  0  0  0  0  1  0  0  0  0  0  0
  196.3120  170.6830  143.6920 N   0  0  0  0  0  2  0  0  0  0  0  0
  196.4820  171.9830  145.7830 C   0  0  2  0  0  3  0  0  0  0  0  0
  197.1140  173.3040  146.2710 C   0  0  0  0  0  2  0  0  0  0  0  0
  195.8040  175.0230  144.9940 C   0  0  0  0  0  3  0  0  0  0  0  0
  196.6850  173.2070  143.5020 C   0  0  0  0  0  2  0  0  0  0  0  0
  196.1460  172.0020  144.2960 C   0  0  1  0  0  0  0  0  0  0  0  0
  195.9740  174.4970  143.7780 C   0  0  0  0  0  3  0  0  0  0  0  0
  196.2470  174.4360  146.1890 O   0  0  0  0  0  0  0  0  0  0  0  0
  195.0310  172.1220  145.3230 C   0  0  0  0  0  2  0  0  0  0  0  0
  189.9100  176.7720  144.1880 N   0  0  0  0  0  2  0  0  0  0  0  0
  189.3670  177.9210  142.2870 C   0  0  0  0  0  1  0  0  0  0  0  0
  188.8110  177.2380  143.4440 N   0  0  0  0  0  0  0  0  0  0  0  0
  188.1370  178.2480  144.2550 C   0  0  0  0  0  2  0  0  0  0  0  0
  186.5960  178.1320  144.1720 C   0  0  2  0  0  0  0  0  0  0  0  0
  186.0260  179.1940  143.2240 C   0  0  0  0  0  1  0  0  0  0  0  0
  186.3460  177.4810  146.6970 C   0  0  2  0  0  0  0  0  0  0  0  0
  184.0190  178.0880  146.8460 O   0  0  0  0  0  1  0  0  0  0  0  0
  184.9650  177.4360  146.0550 C   0  0  1  0  0  3  0  0  0  0  0  0
  186.3910  178.0600  147.9670 O   0  0  0  0  0  1  0  0  0  0  0  0
  186.0090  178.4510  145.5690 C   0  0  2  0  0  3  0  0  0  0  0  0
  187.2040  176.2790  146.4660 C   0  0  0  0  0  3  0  0  0  0  0  0
  188.1560  176.0570  147.1930 O   0  0  0  0  0  0  0  0  0  0  0  0
  185.6430  176.8900  142.4530 C   0  0  0  0  0  1  0  0  0  0  0  0
  186.2070  176.8330  143.7430 O   0  0  0  0  0  0  0  0  0  0  0  0
  1  9  1  0  0  0  0
  3 29  1  1  0  0  0
  3  4  1  0  0  0  0
  6 43  1  0  0  0  0
  6 17  1  1  0  0  0
  7  8  1  0  0  0  0
  9  8  1  1  0  0  0
  9 11  1  0  0  0  0
 10  2  1  6  0  0  0
 10  3  1  0  0  0  0
 10 12  1  0  0  0  0
 11  6  1  0  0  0  0
 12 16  1  1  0  0  0
 13  6  1  0  0  0  0
 14  1  1  1  0  0  0
 14 12  1  0  0  0  0
 14 15  1  0  0  0  0
 15 22  1  6  0  0  0
 15  4  1  0  0  0  0
 15  7  1  0  0  0  0
 16 13  1  0  0  0  0
 16  5  2  0  0  0  0
 18 25  1  1  0  0  0
 18 22  1  0  0  0  0
 19 20  1  0  0  0  0
 20 23  1  0  0  0  0
 21 26  1  6  0  0  0
 21 24  1  0  0  0  0
 21 25  1  0  0  0  0
 21 18  1  0  0  0  0
 22 20  2  0  0  0  0
 24 19  2  0  0  0  0
 27 26  2  0  0  0  0
 28 26  1  0  0  0  0
 29 31  1  0  0  0  0
 31 30  1  6  0  0  0
 31 32  1  0  0  0  0
 32 33  1  6  0  0  0
 34 32  1  0  0  0  0
 35 42  1  1  0  0  0
 35 36  1  0  0  0  0
 37 41  1  0  0  0  0
 38 40  1  0  0  0  0
 38 39  1  0  0  0  0
 39 34  1  6  0  0  0
 39 42  1  0  0  0  0
 39 35  1  0  0  0  0
 40 37  2  0  0  0  0
 41 36  1  0  0  0  0
 44 45  1  0  0  0  0
 45 43  1  0  0  0  0
 45 46  1  0  0  0  0
 47 48  1  6  0  0  0
 47 46  1  0  0  0  0
 49 52  1  1  0  0  0
 51 49  1  0  0  0  0
 51 50  1  1  0  0  0
 53 47  1  6  0  0  0
 53 51  1  0  0  0  0
 53 49  1  0  0  0  0
 54 49  1  0  0  0  0
 54 55  2  0  0  0  0
 56 57  1  0  0  0  0
 57 47  1  0  0  0  0
M  END
>  <MODEL>
3

>  <REMARK>
 VINA RESULT:      -7.9      2.335      8.957
  Name = 
  14 active torsions:
  status: ('A' for Active; 'I' for Inactive)
    1  A    between atoms: C_1  and  C_10
    2  A    between atoms: C_8  and  O_46
    3  A    between atoms: N_9  and  C_16
    4  A    between atoms: N_9  and  C_33
    5  A    between atoms: C_16  and  C_43
    6  A    between atoms: C_18  and  N_35
    7  A    between atoms: C_18  and  C_54
    8  A    between atoms: C_19  and  N_49
    9  A    between atoms: C_25  and  C_42
   10  A    between atoms: O_28  and  C_54
   11  A    between atoms: C_29  and  C_54
   12  A    between atoms: N_35  and  N_49
   13  A    between atoms: C_37  and  C_45
   14  A    between atoms: C_43  and  O_46
                            x       y       z     vdW  Elec       q    Type
                         _______ _______ _______ _____ _____    ______ ____

>  <TORSDO>
F 14

$$$$
=
 OpenBabel11042419083D

 57 64  0  0  1  0  0  0  0  0999 V2000
  189.9670  177.7110  145.7340 O   0  0  0  0  0  0  0  0  0  0  0  0
  188.5760  178.2830  141.4740 C   0  0  0  0  0  1  0  0  0  0  0  0
  187.6320  176.1980  142.4670 C   0  0  1  0  0  3  0  0  0  0  0  0
  187.7320  175.4490  143.7940 C   0  0  0  0  0  2  0  0  0  0  0  0
  190.6560  174.9390  143.0470 O   0  0  0  0  0  0  0  0  0  0  0  0
  192.5490  175.7650  145.3010 C   0  0  2  0  0  0  0  0  0  0  0  0
  188.1570  175.6770  146.1530 O   0  0  0  0  0  0  0  0  0  0  0  0
  189.5070  175.3040  146.2160 C   0  0  0  0  0  2  0  0  0  0  0  0
  190.3310  176.5590  146.4800 C   0  0  1  0  0  3  0  0  0  0  0  0
  188.9220  176.9580  142.1280 C   0  0  2  0  0  3  0  0  0  0  0  0
  191.8470  176.3420  146.5440 C   0  0  0  0  0  2  0  0  0  0  0  0
  189.8630  177.1900  143.3240 C   0  0  1  0  0  3  0  0  0  0  0  0
  192.0940  176.4040  144.0980 O   0  0  0  0  0  0  0  0  0  0  0  0
  189.1040  177.4140  144.6490 C   0  0  1  0  0  3  0  0  0  0  0  0
  187.9190  176.4230  144.9700 C   0  0  1  0  0  0  0  0  0  0  0  0
  190.8910  176.1090  143.4550 C   0  0  0  0  0  0  0  0  0  0  0  0
  192.3220  174.2600  145.2540 C   0  0  0  0  0  1  0  0  0  0  0  0
  185.8950  177.7300  143.9360 C   0  0  2  0  0  3  0  0  0  0  0  0
  184.8150  178.1040  146.6130 C   0  0  0  0  0  3  0  0  0  0  0  0
  186.0780  177.3790  146.4120 C   0  0  0  0  0  0  0  0  0  0  0  0
  184.6330  178.5500  144.1920 C   0  0  1  0  0  0  0  0  0  0  0  0
  186.6100  177.2000  145.1720 C   0  0  0  0  0  0  0  0  0  0  0  0
  186.7360  176.8640  147.6480 C   0  0  0  0  0  1  0  0  0  0  0  0
  184.1430  178.6470  145.6040 C   0  0  0  0  0  3  0  0  0  0  0  0
  185.9470  179.2590  143.9250 C   0  0  0  0  0  2  0  0  0  0  0  0
  183.6360  178.6230  143.0620 C   0  0  0  0  0  0  0  0  0  0  0  0
  182.5140  179.0520  143.2710 O   0  0  0  0  0  0  0  0  0  0  0  0
  183.9810  178.1580  141.6840 C   0  0  0  0  0  1  0  0  0  0  0  0
  187.3260  175.2980  141.4400 O   0  0  0  0  0  0  0  0  0  0  0  0
  187.6820  173.0930  142.2910 C   0  0  0  0  0  1  0  0  0  0  0  0
  188.2800  174.2770  141.5430 C   0  0  1  0  0  3  0  0  0  0  0  0
  188.7860  173.8750  140.1550 C   0  0  1  0  0  3  0  0  0  0  0  0
  188.3240  174.7720  139.1910 O   0  0  0  0  0  1  0  0  0  0  0  0
  190.2450  173.8120  140.1180 N   0  0  0  0  0  2  0  0  0  0  0  0
  191.1180  171.8770  141.3780 C   0  0  2  0  0  3  0  0  0  0  0  0
  190.7730  170.3870  141.5850 C   0  0  0  0  0  2  0  0  0  0  0  0
  191.1790  169.4250  139.3020 C   0  0  0  0  0  3  0  0  0  0  0  0
  189.7300  171.4730  139.2200 C   0  0  0  0  0  2  0  0  0  0  0  0
  190.6450  172.4110  140.0290 C   0  0  1  0  0  0  0  0  0  0  0  0
  190.4320  170.2940  138.6160 C   0  0  0  0  0  3  0  0  0  0  0  0
  191.4310  169.4990  140.6810 O   0  0  0  0  0  0  0  0  0  0  0  0
  192.1230  172.1310  140.2550 C   0  0  0  0  0  2  0  0  0  0  0  0
  193.9950  175.9690  145.4560 N   0  0  0  0  0  2  0  0  0  0  0  0
  195.5830  174.5630  146.3100 C   0  0  0  0  0  1  0  0  0  0  0  0
  194.6880  174.7750  145.1840 N   0  0  0  0  0  0  0  0  0  0  0  0
  195.5230  175.0160  144.0110 C   0  0  0  0  0  2  0  0  0  0  0  0
  195.7110  173.7420  143.1540 C   0  0  2  0  0  0  0  0  0  0  0  0
  196.6830  172.7730  143.8350 C   0  0  0  0  0  1  0  0  0  0  0  0
  195.6530  175.1840  140.9680 C   0  0  2  0  0  0  0  0  0  0  0  0
  196.4990  173.4400  139.5380 O   0  0  0  0  0  1  0  0  0  0  0  0
  195.6020  173.7150  140.5700 C   0  0  1  0  0  3  0  0  0  0  0  0
  196.4880  175.9830  140.1830 O   0  0  0  0  0  1  0  0  0  0  0  0
  196.3820  174.1490  141.8190 C   0  0  2  0  0  3  0  0  0  0  0  0
  194.3530  175.7800  141.4020 C   0  0  0  0  0  3  0  0  0  0  0  0
  193.3010  175.3330  140.9780 O   0  0  0  0  0  0  0  0  0  0  0  0
  194.4980  171.7730  143.3900 C   0  0  0  0  0  1  0  0  0  0  0  0
  194.4630  173.1000  142.9190 O   0  0  0  0  0  0  0  0  0  0  0  0
  1  9  1  0  0  0  0
  3 29  1  6  0  0  0
  3  4  1  0  0  0  0
  4 15  1  0  0  0  0
  5 16  2  0  0  0  0
  6 17  1  6  0  0  0
  6 43  1  0  0  0  0
  6 11  1  0  0  0  0
  7  8  1  0  0  0  0
  9  8  1  6  0  0  0
  9 11  1  0  0  0  0
 10  2  1  1  0  0  0
 10  3  1  0  0  0  0
 10 12  1  0  0  0  0
 12 16  1  1  0  0  0
 12 14  1  0  0  0  0
 13  6  1  0  0  0  0
 14 15  1  0  0  0  0
 14  1  1  1  0  0  0
 15 22  1  1  0  0  0
 15  7  1  0  0  0  0
 16 13  1  0  0  0  0
 18 25  1  1  0  0  0
 18 21  1  0  0  0  0
 18 22  1  0  0  0  0
 20 19  1  0  0  0  0
 20 23  1  0  0  0  0
 21 26  1  6  0  0  0
 21 24  1  0  0  0  0
 22 20  2  0  0  0  0
 24 19  2  0  0  0  0
 25 21  1  0  0  0  0
 26 27  2  0  0  0  0
 28 26  1  0  0  0  0
 29 31  1  0  0  0  0
 31 30  1  6  0  0  0
 32 33  1  6  0  0  0
 32 31  1  0  0  0  0
 34 32  1  0  0  0  0
 35 42  1  6  0  0  0
 35 36  1  0  0  0  0
 37 41  1  0  0  0  0
 38 39  1  0  0  0  0
 39 34  1  6  0  0  0
 39 42  1  0  0  0  0
 39 35  1  0  0  0  0
 40 38  1  0  0  0  0
 40 37  2  0  0  0  0
 41 36  1  0  0  0  0
 45 43  1  0  0  0  0
 45 44  1  0  0  0  0
 46 45  1  0  0  0  0
 47 48  1  1  0  0  0
 47 46  1  0  0  0  0
 49 52  1  6  0  0  0
 49 54  1  0  0  0  0
 49 53  1  0  0  0  0
 51 50  1  6  0  0  0
 51 49  1  0  0  0  0
 51 53  1  0  0  0  0
 53 47  1  1  0  0  0
 55 54  2  0  0  0  0
 57 47  1  0  0  0  0
 57 56  1  0  0  0  0
M  END
>  <MODEL>
4

>  <REMARK>
 VINA RESULT:      -7.9      1.167      2.104
  Name = 
  14 active torsions:
  status: ('A' for Active; 'I' for Inactive)
    1  A    between atoms: C_1  and  C_10
    2  A    between atoms: C_8  and  O_46
    3  A    between atoms: N_9  and  C_16
    4  A    between atoms: N_9  and  C_33
    5  A    between atoms: C_16  and  C_43
    6  A    between atoms: C_18  and  N_35
    7  A    between atoms: C_18  and  C_54
    8  A    between atoms: C_19  and  N_49
    9  A    between atoms: C_25  and  C_42
   10  A    between atoms: O_28  and  C_54
   11  A    between atoms: C_29  and  C_54
   12  A    between atoms: N_35  and  N_49
   13  A    between atoms: C_37  and  C_45
   14  A    between atoms: C_43  and  O_46
                            x       y       z     vdW  Elec       q    Type
                         _______ _______ _______ _____ _____    ______ ____

>  <TORSDO>
F 14

$$$$
=
 OpenBabel11042419083D

 57 64  0  0  1  0  0  0  0  0999 V2000
  192.6150  174.0670  146.0360 O   0  0  0  0  0  0  0  0  0  0  0  0
  192.2910  172.2370  141.9190 C   0  0  0  0  0  1  0  0  0  0  0  0
  193.6000  174.3600  141.8700 C   0  0  1  0  0  3  0  0  0  0  0  0
  194.0270  175.4310  142.8700 C   0  0  0  0  0  2  0  0  0  0  0  0
  191.0520  176.1220  143.0830 O   0  0  0  0  0  0  0  0  0  0  0  0
  190.1180  176.1660  145.9940 C   0  0  2  0  0  0  0  0  0  0  0  0
  194.5100  175.8770  145.1870 O   0  0  0  0  0  0  0  0  0  0  0  0
  193.2940  176.4320  145.6090 C   0  0  0  0  0  2  0  0  0  0  0  0
  192.5920  175.4110  146.4960 C   0  0  1  0  0  3  0  0  0  0  0  0
  192.2550  173.7200  142.2400 C   0  0  2  0  0  3  0  0  0  0  0  0
  191.2170  175.8390  147.0220 C   0  0  0  0  0  2  0  0  0  0  0  0
  191.8240  173.9320  143.7030 C   0  0  1  0  0  3  0  0  0  0  0  0
  190.0700  175.1830  144.9480 O   0  0  0  0  0  0  0  0  0  0  0  0
  193.0170  173.9560  144.6810 C   0  0  1  0  0  3  0  0  0  0  0  0
  194.2650  174.8270  144.2650 C   0  0  1  0  0  0  0  0  0  0  0  0
  190.9520  175.1390  143.8670 C   0  0  0  0  0  0  0  0  0  0  0  0
  190.3560  177.5640  145.4380 C   0  0  0  0  0  1  0  0  0  0  0  0
  195.4020  172.4840  144.5610 C   0  0  2  0  0  3  0  0  0  0  0  0
  197.9410  173.6520  143.7480 C   0  0  0  0  0  3  0  0  0  0  0  0
  196.7280  174.4790  143.8220 C   0  0  0  0  0  0  0  0  0  0  0  0
  196.6990  171.6770  144.5550 C   0  0  1  0  0  0  0  0  0  0  0  0
  195.5310  173.9600  144.2100 C   0  0  0  0  0  0  0  0  0  0  0  0
  196.8960  175.9160  143.4550 C   0  0  0  0  0  1  0  0  0  0  0  0
  197.9410  172.3660  144.0820 C   0  0  0  0  0  3  0  0  0  0  0  0
  196.1440  172.1960  145.8680 C   0  0  0  0  0  2  0  0  0  0  0  0
  196.5650  170.1870  144.3590 C   0  0  0  0  0  0  0  0  0  0  0  0
  197.5330  169.5330  144.0110 O   0  0  0  0  0  0  0  0  0  0  0  0
  195.2600  169.4860  144.5580 C   0  0  0  0  0  1  0  0  0  0  0  0
  193.5250  174.9160  140.5880 O   0  0  0  0  0  0  0  0  0  0  0  0
  192.9550  173.8630  138.5200 C   0  0  0  0  0  1  0  0  0  0  0  0
  193.9000  173.8880  139.7130 C   0  0  1  0  0  3  0  0  0  0  0  0
  195.3580  174.0600  139.2790 C   0  0  1  0  0  3  0  0  0  0  0  0
  195.6640  175.4130  139.1280 O   0  0  0  0  0  1  0  0  0  0  0  0
  196.2750  173.4460  140.2370 N   0  0  0  0  0  2  0  0  0  0  0  0
  195.8830  171.0810  140.8240 C   0  0  2  0  0  3  0  0  0  0  0  0
  195.3610  169.7970  140.1460 C   0  0  0  0  0  2  0  0  0  0  0  0
  197.1270  169.3530  138.4180 C   0  0  0  0  0  3  0  0  0  0  0  0
  196.3070  171.7250  138.3450 C   0  0  0  0  0  2  0  0  0  0  0  0
  196.5040  172.0620  139.8350 C   0  0  1  0  0  0  0  0  0  0  0  0
  197.1260  170.5670  137.8590 C   0  0  0  0  0  3  0  0  0  0  0  0
  196.3780  168.9920  139.5480 O   0  0  0  0  0  0  0  0  0  0  0  0
  197.4010  171.2470  140.7540 C   0  0  0  0  0  2  0  0  0  0  0  0
  188.8300  176.2050  146.6980 N   0  0  0  0  0  2  0  0  0  0  0  0
  187.3830  177.9060  147.1910 C   0  0  0  0  0  1  0  0  0  0  0  0
  187.9760  177.1500  146.1000 N   0  0  0  0  0  0  0  0  0  0  0  0
  186.8960  176.4100  145.4550 C   0  0  0  0  0  2  0  0  0  0  0  0
  186.5710  176.9580  144.0440 C   0  0  2  0  0  0  0  0  0  0  0  0
  187.7420  177.7890  143.5070 C   0  0  0  0  0  1  0  0  0  0  0  0
  184.6920  178.3520  142.8690 C   0  0  2  0  0  0  0  0  0  0  0  0
  184.9380  180.2840  144.2870 O   0  0  0  0  0  1  0  0  0  0  0  0
  185.6400  179.3220  143.5610 C   0  0  1  0  0  3  0  0  0  0  0  0
  183.3350  178.6550  142.9990 O   0  0  0  0  0  1  0  0  0  0  0  0
  185.3770  177.9360  144.1660 C   0  0  2  0  0  3  0  0  0  0  0  0
  185.1500  177.8400  141.5410 C   0  0  0  0  0  3  0  0  0  0  0  0
  185.5550  178.6140  140.6910 O   0  0  0  0  0  0  0  0  0  0  0  0
  187.4470  175.4250  142.5320 C   0  0  0  0  0  1  0  0  0  0  0  0
  186.2700  175.8970  143.1450 O   0  0  0  0  0  0  0  0  0  0  0  0
  1  9  1  0  0  0  0
  3 29  1  6  0  0  0
  3 10  1  0  0  0  0
  3  4  1  0  0  0  0
  4 15  1  0  0  0  0
  5 16  2  0  0  0  0
  6 17  1  6  0  0  0
  6 43  1  0  0  0  0
  6 11  1  0  0  0  0
  7  8  1  0  0  0  0
  9  8  1  6  0  0  0
  9 11  1  0  0  0  0
 10  2  1  1  0  0  0
 10 12  1  0  0  0  0
 12 16  1  6  0  0  0
 12 14  1  0  0  0  0
 13  6  1  0  0  0  0
 14  1  1  1  0  0  0
 15 22  1  6  0  0  0
 15 14  1  0  0  0  0
 15  7  1  0  0  0  0
 16 13  1  0  0  0  0
 18 25  1  1  0  0  0
 19 20  1  0  0  0  0
 19 24  2  0  0  0  0
 20 22  2  0  0  0  0
 21 26  1  6  0  0  0
 21 18  1  0  0  0  0
 21 25  1  0  0  0  0
 22 18  1  0  0  0  0
 23 20  1  0  0  0  0
 24 21  1  0  0  0  0
 26 28  1  0  0  0  0
 27 26  2  0  0  0  0
 31 30  1  6  0  0  0
 31 29  1  0  0  0  0
 32 33  1  1  0  0  0
 32 31  1  0  0  0  0
 32 34  1  0  0  0  0
 35 36  1  6  0  0  0
 37 41  1  0  0  0  0
 38 39  1  0  0  0  0
 39 34  1  1  0  0  0
 39 42  1  0  0  0  0
 39 35  1  0  0  0  0
 40 38  1  0  0  0  0
 40 37  2  0  0  0  0
 41 36  1  0  0  0  0
 42 35  1  0  0  0  0
 45 43  1  0  0  0  0
 45 44  1  0  0  0  0
 46 45  1  0  0  0  0
 47 48  1  6  0  0  0
 47 46  1  0  0  0  0
 49 52  1  1  0  0  0
 49 51  1  0  0  0  0
 49 53  1  0  0  0  0
 51 53  1  0  0  0  0
 51 50  1  1  0  0  0
 53 47  1  6  0  0  0
 54 49  1  0  0  0  0
 55 54  2  0  0  0  0
 56 57  1  0  0  0  0
 57 47  1  0  0  0  0
M  END
>  <MODEL>
5

>  <REMARK>
 VINA RESULT:      -7.6      2.651      8.873
  Name = 
  14 active torsions:
  status: ('A' for Active; 'I' for Inactive)
    1  A    between atoms: C_1  and  C_10
    2  A    between atoms: C_8  and  O_46
    3  A    between atoms: N_9  and  C_16
    4  A    between atoms: N_9  and  C_33
    5  A    between atoms: C_16  and  C_43
    6  A    between atoms: C_18  and  N_35
    7  A    between atoms: C_18  and  C_54
    8  A    between atoms: C_19  and  N_49
    9  A    between atoms: C_25  and  C_42
   10  A    between atoms: O_28  and  C_54
   11  A    between atoms: C_29  and  C_54
   12  A    between atoms: N_35  and  N_49
   13  A    between atoms: C_37  and  C_45
   14  A    between atoms: C_43  and  O_46
                            x       y       z     vdW  Elec       q    Type
                         _______ _______ _______ _____ _____    ______ ____

>  <TORSDO>
F 14

$$$$
=
 OpenBabel11042419083D

 57 64  0  0  1  0  0  0  0  0999 V2000
  189.7450  173.7890  140.9920 O   0  0  0  0  0  0  0  0  0  0  0  0
  193.9050  173.4740  139.2610 C   0  0  0  0  0  1  0  0  0  0  0  0
  193.5190  171.7480  141.0200 C   0  0  1  0  0  3  0  0  0  0  0  0
  192.3900  171.3550  141.9680 C   0  0  0  0  0  2  0  0  0  0  0  0
  192.8800  174.0500  143.3350 O   0  0  0  0  0  0  0  0  0  0  0  0
  190.2900  175.6510  143.6150 C   0  0  2  0  0  0  0  0  0  0  0  0
  190.0050  171.3820  142.3050 O   0  0  0  0  0  0  0  0  0  0  0  0
  189.8670  172.5060  143.1310 C   0  0  0  0  0  2  0  0  0  0  0  0
  189.2350  173.6220  142.3070 C   0  0  1  0  0  3  0  0  0  0  0  0
  193.5260  173.2520  140.7130 C   0  0  2  0  0  3  0  0  0  0  0  0
  189.0420  174.9500  143.0470 C   0  0  0  0  0  2  0  0  0  0  0  0
  192.2050  173.9770  141.0300 C   0  0  1  0  0  3  0  0  0  0  0  0
  191.3660  175.6560  142.6640 O   0  0  0  0  0  0  0  0  0  0  0  0
  190.9630  173.0960  140.7810 C   0  0  1  0  0  3  0  0  0  0  0  0
  191.0130  171.6190  141.3350 C   0  0  1  0  0  0  0  0  0  0  0  0
  192.1970  174.5640  142.4070 C   0  0  0  0  0  0  0  0  0  0  0  0
  190.6970  174.9700  144.9150 C   0  0  0  0  0  1  0  0  0  0  0  0
  190.6220  171.1550  138.7850 C   0  0  2  0  0  3  0  0  0  0  0  0
  190.6230  168.2970  139.3400 C   0  0  0  0  0  3  0  0  0  0  0  0
  190.8070  169.2700  140.4270 C   0  0  0  0  0  0  0  0  0  0  0  0
  190.3490  170.1180  137.6960 C   0  0  1  0  0  0  0  0  0  0  0  0
  190.8000  170.6110  140.1960 C   0  0  0  0  0  0  0  0  0  0  0  0
  190.9930  168.6940  141.7910 C   0  0  0  0  0  1  0  0  0  0  0  0
  190.4120  168.6730  138.0840 C   0  0  0  0  0  3  0  0  0  0  0  0
  189.1940  170.8900  138.3040 C   0  0  0  0  0  2  0  0  0  0  0  0
  190.6990  170.5160  136.2840 C   0  0  0  0  0  0  0  0  0  0  0  0
  189.8910  171.1360  135.6120 O   0  0  0  0  0  0  0  0  0  0  0  0
  192.0100  170.1480  135.6690 C   0  0  0  0  0  1  0  0  0  0  0  0
  194.7490  171.3690  141.5700 O   0  0  0  0  0  0  0  0  0  0  0  0
  194.7220  169.3090  140.3590 C   0  0  0  0  0  1  0  0  0  0  0  0
  194.6750  169.9780  141.7250 C   0  0  1  0  0  3  0  0  0  0  0  0
  195.7980  169.4820  142.6400 C   0  0  1  0  0  3  0  0  0  0  0  0
  196.9520  169.2260  141.8980 O   0  0  0  0  0  1  0  0  0  0  0  0
  196.0880  170.4460  143.6980 N   0  0  0  0  0  2  0  0  0  0  0  0
  194.2130  169.4670  144.9690 C   0  0  2  0  0  3  0  0  0  0  0  0
  193.9300  168.2120  145.8210 C   0  0  0  0  0  2  0  0  0  0  0  0
  195.4380  168.5600  147.7970 C   0  0  0  0  0  3  0  0  0  0  0  0
  196.6510  168.8540  145.6190 C   0  0  0  0  0  2  0  0  0  0  0  0
  195.6850  169.8660  144.9750 C   0  0  1  0  0  0  0  0  0  0  0  0
  196.5650  168.7810  147.1140 C   0  0  0  0  0  3  0  0  0  0  0  0
  194.1720  168.3820  147.2180 O   0  0  0  0  0  0  0  0  0  0  0  0
  194.6810  170.6750  145.7800 C   0  0  0  0  0  2  0  0  0  0  0  0
  189.9240  177.0310  143.9570 N   0  0  0  0  0  2  0  0  0  0  0  0
  189.0450  178.0550  142.1110 C   0  0  0  0  0  1  0  0  0  0  0  0
  188.7030  177.3770  143.3500 N   0  0  0  0  0  0  0  0  0  0  0  0
  188.0530  178.3600  144.2120 C   0  0  0  0  0  2  0  0  0  0  0  0
  186.5100  178.2770  144.1360 C   0  0  2  0  0  0  0  0  0  0  0  0
  185.9530  179.4000  143.2540 C   0  0  0  0  0  1  0  0  0  0  0  0
  186.3810  177.5690  146.6540 C   0  0  2  0  0  0  0  0  0  0  0  0
  184.0200  177.9920  146.8760 O   0  0  0  0  0  1  0  0  0  0  0  0
  184.9910  177.4280  146.0490 C   0  0  1  0  0  3  0  0  0  0  0  0
  186.4170  178.1290  147.9330 O   0  0  0  0  0  1  0  0  0  0  0  0
  185.9400  178.5280  145.5540 C   0  0  2  0  0  3  0  0  0  0  0  0
  187.3220  176.4400  146.3800 C   0  0  0  0  0  3  0  0  0  0  0  0
  188.1310  176.0960  147.2230 O   0  0  0  0  0  0  0  0  0  0  0  0
  185.4570  177.1600  142.3910 C   0  0  0  0  0  1  0  0  0  0  0  0
  186.0940  177.0110  143.6390 O   0  0  0  0  0  0  0  0  0  0  0  0
  1  9  1  0  0  0  0
  3 29  1  1  0  0  0
  3  4  1  0  0  0  0
  6 43  1  0  0  0  0
  6 17  1  1  0  0  0
  7  8  1  0  0  0  0
  9 11  1  1  0  0  0
  9  8  1  0  0  0  0
 10  2  1  6  0  0  0
 10  3  1  0  0  0  0
 10 12  1  0  0  0  0
 11  6  1  0  0  0  0
 12 16  1  1  0  0  0
 13  6  1  0  0  0  0
 14  1  1  1  0  0  0
 14 12  1  0  0  0  0
 14 15  1  0  0  0  0
 15 22  1  6  0  0  0
 15  4  1  0  0  0  0
 15  7  1  0  0  0  0
 16 13  1  0  0  0  0
 16  5  2  0  0  0  0
 18 25  1  1  0  0  0
 18 22  1  0  0  0  0
 19 20  1  0  0  0  0
 20 23  1  0  0  0  0
 21 26  1  6  0  0  0
 21 24  1  0  0  0  0
 21 25  1  0  0  0  0
 21 18  1  0  0  0  0
 22 20  2  0  0  0  0
 24 19  2  0  0  0  0
 27 26  2  0  0  0  0
 28 26  1  0  0  0  0
 29 31  1  0  0  0  0
 31 30  1  6  0  0  0
 31 32  1  0  0  0  0
 32 33  1  6  0  0  0
 32 34  1  0  0  0  0
 35 39  1  0  0  0  0
 35 42  1  1  0  0  0
 35 36  1  0  0  0  0
 36 41  1  0  0  0  0
 38 40  1  0  0  0  0
 39 34  1  6  0  0  0
 39 38  1  0  0  0  0
 39 42  1  0  0  0  0
 40 37  2  0  0  0  0
 41 37  1  0  0  0  0
 44 45  1  0  0  0  0
 45 43  1  0  0  0  0
 45 46  1  0  0  0  0
 47 48  1  6  0  0  0
 47 46  1  0  0  0  0
 49 52  1  1  0  0  0
 51 49  1  0  0  0  0
 51 50  1  1  0  0  0
 53 47  1  6  0  0  0
 53 51  1  0  0  0  0
 53 49  1  0  0  0  0
 54 49  1  0  0  0  0
 54 55  2  0  0  0  0
 56 57  1  0  0  0  0
 57 47  1  0  0  0  0
M  END
>  <MODEL>
6

>  <REMARK>
 VINA RESULT:      -7.6      2.895      9.066
  Name = 
  14 active torsions:
  status: ('A' for Active; 'I' for Inactive)
    1  A    between atoms: C_1  and  C_10
    2  A    between atoms: C_8  and  O_46
    3  A    between atoms: N_9  and  C_16
    4  A    between atoms: N_9  and  C_33
    5  A    between atoms: C_16  and  C_43
    6  A    between atoms: C_18  and  N_35
    7  A    between atoms: C_18  and  C_54
    8  A    between atoms: C_19  and  N_49
    9  A    between atoms: C_25  and  C_42
   10  A    between atoms: O_28  and  C_54
   11  A    between atoms: C_29  and  C_54
   12  A    between atoms: N_35  and  N_49
   13  A    between atoms: C_37  and  C_45
   14  A    between atoms: C_43  and  O_46
                            x       y       z     vdW  Elec       q    Type
                         _______ _______ _______ _____ _____    ______ ____

>  <TORSDO>
F 14

$$$$
=
 OpenBabel11042419083D

 57 64  0  0  1  0  0  0  0  0999 V2000
  189.8030  173.9870  142.0190 O   0  0  0  0  0  0  0  0  0  0  0  0
  193.7870  174.2630  139.9090 C   0  0  0  0  0  1  0  0  0  0  0  0
  193.6080  172.1630  141.2440 C   0  0  1  0  0  3  0  0  0  0  0  0
  192.5820  171.5120  142.1690 C   0  0  0  0  0  2  0  0  0  0  0  0
  193.1370  173.8400  144.0780 O   0  0  0  0  0  0  0  0  0  0  0  0
  190.5500  175.2180  144.9470 C   0  0  2  0  0  0  0  0  0  0  0  0
  190.2400  171.3570  142.7070 O   0  0  0  0  0  0  0  0  0  0  0  0
  190.1550  172.2530  143.7810 C   0  0  0  0  0  2  0  0  0  0  0  0
  189.4230  173.5000  143.2980 C   0  0  1  0  0  3  0  0  0  0  0  0
  193.5510  173.6960  141.2970 C   0  0  2  0  0  3  0  0  0  0  0  0
  189.2700  174.6120  144.3410 C   0  0  0  0  0  2  0  0  0  0  0  0
  192.2500  174.2700  141.8870 C   0  0  1  0  0  3  0  0  0  0  0  0
  191.5310  175.4900  143.9330 O   0  0  0  0  0  0  0  0  0  0  0  0
  191.0110  173.4150  141.5480 C   0  0  1  0  0  3  0  0  0  0  0  0
  191.1460  171.8550  141.7350 C   0  0  1  0  0  0  0  0  0  0  0  0
  192.3590  174.5230  143.3590 C   0  0  0  0  0  0  0  0  0  0  0  0
  191.0930  174.2750  146.0120 C   0  0  0  0  0  1  0  0  0  0  0  0
  190.6330  171.9720  139.1670 C   0  0  2  0  0  3  0  0  0  0  0  0
  190.5540  169.0630  139.0860 C   0  0  0  0  0  3  0  0  0  0  0  0
  190.8180  169.7690  140.3480 C   0  0  0  0  0  0  0  0  0  0  0  0
  190.2780  171.2080  137.8940 C   0  0  1  0  0  0  0  0  0  0  0  0
  190.8490  171.1280  140.4160 C   0  0  0  0  0  0  0  0  0  0  0  0
  191.0390  168.9020  141.5440 C   0  0  0  0  0  1  0  0  0  0  0  0
  190.3040  169.7110  137.9540 C   0  0  0  0  0  3  0  0  0  0  0  0
  189.1770  171.8570  138.7100 C   0  0  0  0  0  2  0  0  0  0  0  0
  190.5830  171.8970  136.5870 C   0  0  0  0  0  0  0  0  0  0  0  0
  189.6940  172.4760  135.9860 O   0  0  0  0  0  0  0  0  0  0  0  0
  191.9520  171.8680  135.9880 C   0  0  0  0  0  1  0  0  0  0  0  0
  194.8920  171.7220  141.5820 O   0  0  0  0  0  0  0  0  0  0  0  0
  195.0340  169.7750  140.2030 C   0  0  0  0  0  1  0  0  0  0  0  0
  194.8120  170.3230  141.6050 C   0  0  1  0  0  3  0  0  0  0  0  0
  195.8170  169.7470  142.6060 C   0  0  1  0  0  3  0  0  0  0  0  0
  197.0260  169.4590  141.9700 O   0  0  0  0  0  1  0  0  0  0  0  0
  196.0460  170.6640  143.7200 N   0  0  0  0  0  2  0  0  0  0  0  0
  194.2230  169.4770  144.8860 C   0  0  2  0  0  3  0  0  0  0  0  0
  194.0220  168.1660  145.6730 C   0  0  0  0  0  2  0  0  0  0  0  0
  195.4390  168.5450  147.7100 C   0  0  0  0  0  3  0  0  0  0  0  0
  196.6850  169.0370  145.5870 C   0  0  0  0  0  2  0  0  0  0  0  0
  195.6560  169.9950  144.9570 C   0  0  1  0  0  0  0  0  0  0  0  0
  196.5620  168.8890  147.0740 C   0  0  0  0  0  3  0  0  0  0  0  0
  194.2090  168.2910  147.0840 O   0  0  0  0  0  0  0  0  0  0  0  0
  194.5650  170.6820  145.7630 C   0  0  0  0  0  2  0  0  0  0  0  0
  190.1860  176.4650  145.6320 N   0  0  0  0  0  2  0  0  0  0  0  0
  190.2340  178.2960  144.2620 C   0  0  0  0  0  1  0  0  0  0  0  0
  189.3720  177.2580  144.8020 N   0  0  0  0  0  0  0  0  0  0  0  0
  188.3910  177.9160  145.6600 C   0  0  0  0  0  2  0  0  0  0  0  0
  186.9620  177.8570  145.0690 C   0  0  2  0  0  0  0  0  0  0  0  0
  186.2160  176.6230  145.5880 C   0  0  0  0  0  1  0  0  0  0  0  0
  185.7920  177.8010  142.7260 C   0  0  2  0  0  0  0  0  0  0  0  0
  187.0580  175.9250  141.8990 O   0  0  0  0  0  1  0  0  0  0  0  0
  186.3650  176.4170  143.0040 C   0  0  1  0  0  3  0  0  0  0  0  0
  185.9730  178.2660  141.4210 O   0  0  0  0  0  1  0  0  0  0  0  0
  187.0780  177.6690  143.5360 C   0  0  2  0  0  3  0  0  0  0  0  0
  184.4820  178.1000  143.3790 C   0  0  0  0  0  3  0  0  0  0  0  0
  183.5850  178.6270  142.7440 O   0  0  0  0  0  0  0  0  0  0  0  0
  185.7090  178.9600  146.6860 C   0  0  0  0  0  1  0  0  0  0  0  0
  186.2350  179.0390  145.3810 O   0  0  0  0  0  0  0  0  0  0  0  0
  1  9  1  0  0  0  0
  3 10  1  0  0  0  0
  3 29  1  1  0  0  0
  3  4  1  0  0  0  0
  6 43  1  0  0  0  0
  6 17  1  1  0  0  0
  7  8  1  0  0  0  0
  9  8  1  1  0  0  0
  9 11  1  0  0  0  0
 10  2  1  6  0  0  0
 10 12  1  0  0  0  0
 11  6  1  0  0  0  0
 12 16  1  1  0  0  0
 13  6  1  0  0  0  0
 14 15  1  0  0  0  0
 14 12  1  0  0  0  0
 14  1  1  1  0  0  0
 15 22  1  6  0  0  0
 15  4  1  0  0  0  0
 15  7  1  0  0  0  0
 16 13  1  0  0  0  0
 16  5  2  0  0  0  0
 18 25  1  1  0  0  0
 18 22  1  0  0  0  0
 19 20  1  0  0  0  0
 20 22  2  0  0  0  0
 20 23  1  0  0  0  0
 21 26  1  6  0  0  0
 21 24  1  0  0  0  0
 21 25  1  0  0  0  0
 21 18  1  0  0  0  0
 24 19  2  0  0  0  0
 27 26  2  0  0  0  0
 28 26  1  0  0  0  0
 29 31  1  0  0  0  0
 31 30  1  6  0  0  0
 31 32  1  0  0  0  0
 32 33  1  6  0  0  0
 32 34  1  0  0  0  0
 35 39  1  0  0  0  0
 35 36  1  1  0  0  0
 35 42  1  0  0  0  0
 36 41  1  0  0  0  0
 38 40  1  0  0  0  0
 39 34  1  6  0  0  0
 39 38  1  0  0  0  0
 39 42  1  0  0  0  0
 40 37  2  0  0  0  0
 41 37  1  0  0  0  0
 44 45  1  0  0  0  0
 45 43  1  0  0  0  0
 45 46  1  0  0  0  0
 47 57  1  0  0  0  0
 47 48  1  1  0  0  0
 47 46  1  0  0  0  0
 49 52  1  6  0  0  0
 49 51  1  0  0  0  0
 49 54  1  0  0  0  0
 49 53  1  0  0  0  0
 51 50  1  6  0  0  0
 51 53  1  0  0  0  0
 53 47  1  1  0  0  0
 55 54  2  0  0  0  0
 57 56  1  0  0  0  0
M  END
>  <MODEL>
7

>  <REMARK>
 VINA RESULT:      -7.5      2.797      8.792
  Name = 
  14 active torsions:
  status: ('A' for Active; 'I' for Inactive)
    1  A    between atoms: C_1  and  C_10
    2  A    between atoms: C_8  and  O_46
    3  A    between atoms: N_9  and  C_16
    4  A    between atoms: N_9  and  C_33
    5  A    between atoms: C_16  and  C_43
    6  A    between atoms: C_18  and  N_35
    7  A    between atoms: C_18  and  C_54
    8  A    between atoms: C_19  and  N_49
    9  A    between atoms: C_25  and  C_42
   10  A    between atoms: O_28  and  C_54
   11  A    between atoms: C_29  and  C_54
   12  A    between atoms: N_35  and  N_49
   13  A    between atoms: C_37  and  C_45
   14  A    between atoms: C_43  and  O_46
                            x       y       z     vdW  Elec       q    Type
                         _______ _______ _______ _____ _____    ______ ____

>  <TORSDO>
F 14

$$$$
=
 OpenBabel11042419083D

 57 64  0  0  1  0  0  0  0  0999 V2000
  189.7040  174.4010  141.5010 O   0  0  0  0  0  0  0  0  0  0  0  0
  193.8320  174.3470  139.6690 C   0  0  0  0  0  1  0  0  0  0  0  0
  193.2300  172.1200  140.6200 C   0  0  1  0  0  3  0  0  0  0  0  0
  192.0480  171.5100  141.3700 C   0  0  0  0  0  2  0  0  0  0  0  0
  192.8090  173.3820  143.6690 O   0  0  0  0  0  0  0  0  0  0  0  0
  190.4070  175.0130  144.6280 C   0  0  2  0  0  0  0  0  0  0  0  0
  189.6760  171.6590  141.7570 O   0  0  0  0  0  0  0  0  0  0  0  0
  189.6490  172.3760  142.9610 C   0  0  0  0  0  2  0  0  0  0  0  0
  189.1570  173.7870  142.6590 C   0  0  1  0  0  3  0  0  0  0  0  0
  193.4060  173.6140  140.9280 C   0  0  2  0  0  3  0  0  0  0  0  0
  189.0990  174.7290  143.8660 C   0  0  0  0  0  2  0  0  0  0  0  0
  192.1680  174.2940  141.5410 C   0  0  1  0  0  3  0  0  0  0  0  0
  191.4920  175.2750  143.7250 O   0  0  0  0  0  0  0  0  0  0  0  0
  190.8420  173.7200  141.0010 C   0  0  1  0  0  3  0  0  0  0  0  0
  190.7190  172.1490  140.9290 C   0  0  1  0  0  0  0  0  0  0  0  0
  192.2020  174.2890  143.0380 C   0  0  0  0  0  0  0  0  0  0  0  0
  190.7140  173.8360  145.5450 C   0  0  0  0  0  1  0  0  0  0  0  0
  190.2050  172.7750  138.4360 C   0  0  2  0  0  3  0  0  0  0  0  0
  190.1020  169.9400  137.7820 C   0  0  0  0  0  3  0  0  0  0  0  0
  190.3730  170.3800  139.1580 C   0  0  0  0  0  0  0  0  0  0  0  0
  189.8430  172.2800  137.0380 C   0  0  1  0  0  0  0  0  0  0  0  0
  190.4160  171.6990  139.4930 C   0  0  0  0  0  0  0  0  0  0  0  0
  190.5880  169.2930  140.1580 C   0  0  0  0  0  1  0  0  0  0  0  0
  189.8570  170.8010  136.8010 C   0  0  0  0  0  3  0  0  0  0  0  0
  188.7490  172.7640  137.9690 C   0  0  0  0  0  2  0  0  0  0  0  0
  190.1530  173.2110  135.8920 C   0  0  0  0  0  0  0  0  0  0  0  0
  190.8840  172.8380  134.9900 O   0  0  0  0  0  0  0  0  0  0  0  0
  189.6030  174.5990  135.8420 C   0  0  0  0  0  1  0  0  0  0  0  0
  194.4010  171.4260  140.9420 O   0  0  0  0  0  0  0  0  0  0  0  0
  194.1720  169.0480  140.9340 C   0  0  0  0  0  1  0  0  0  0  0  0
  193.9870  170.3370  141.7210 C   0  0  1  0  0  3  0  0  0  0  0  0
  194.7490  170.3080  143.0490 C   0  0  1  0  0  3  0  0  0  0  0  0
  194.5640  169.0810  143.6870 O   0  0  0  0  0  1  0  0  0  0  0  0
  196.1750  170.5570  142.8500 N   0  0  0  0  0  2  0  0  0  0  0  0
  196.7000  172.9690  142.8270 C   0  0  2  0  0  3  0  0  0  0  0  0
  196.2920  174.2440  143.5950 C   0  0  0  0  0  2  0  0  0  0  0  0
  197.2000  173.7950  145.8910 C   0  0  0  0  0  3  0  0  0  0  0  0
  195.8430  171.8720  145.0190 C   0  0  0  0  0  2  0  0  0  0  0  0
  196.5610  171.7030  143.6670 C   0  0  1  0  0  0  0  0  0  0  0  0
  196.6460  172.5920  146.0610 C   0  0  0  0  0  3  0  0  0  0  0  0
  197.1270  174.5510  144.7110 O   0  0  0  0  0  0  0  0  0  0  0  0
  197.9410  172.2770  143.3880 C   0  0  0  0  0  2  0  0  0  0  0  0
  190.1890  176.1780  145.4950 N   0  0  0  0  0  2  0  0  0  0  0  0
  190.3790  178.1550  144.3620 C   0  0  0  0  0  1  0  0  0  0  0  0
  189.4310  177.1520  144.8190 N   0  0  0  0  0  0  0  0  0  0  0  0
  188.5710  177.7950  145.8090 C   0  0  0  0  0  2  0  0  0  0  0  0
  187.0780  177.7490  145.4050 C   0  0  2  0  0  0  0  0  0  0  0  0
  186.4420  176.4260  145.8450 C   0  0  0  0  0  1  0  0  0  0  0  0
  185.6270  178.0660  143.2480 C   0  0  2  0  0  0  0  0  0  0  0  0
  186.6640  176.2680  142.0250 O   0  0  0  0  0  1  0  0  0  0  0  0
  186.1440  176.6330  143.2660 C   0  0  1  0  0  3  0  0  0  0  0  0
  185.6730  178.6970  142.0020 O   0  0  0  0  0  1  0  0  0  0  0  0
  186.9920  177.7680  143.8590 C   0  0  2  0  0  3  0  0  0  0  0  0
  184.4270  178.3290  144.1000 C   0  0  0  0  0  3  0  0  0  0  0  0
  183.6430  179.2120  143.7990 O   0  0  0  0  0  0  0  0  0  0  0  0
  185.8830  178.5130  147.2470 C   0  0  0  0  0  1  0  0  0  0  0  0
  186.3670  178.8460  145.9660 O   0  0  0  0  0  0  0  0  0  0  0  0
  1  9  1  0  0  0  0
  3 10  1  0  0  0  0
  3 29  1  1  0  0  0
  3  4  1  0  0  0  0
  6 43  1  0  0  0  0
  6 17  1  1  0  0  0
  7  8  1  0  0  0  0
  9  8  1  1  0  0  0
  9 11  1  0  0  0  0
 10  2  1  6  0  0  0
 10 12  1  0  0  0  0
 11  6  1  0  0  0  0
 12 16  1  1  0  0  0
 13  6  1  0  0  0  0
 14  1  1  1  0  0  0
 14 12  1  0  0  0  0
 15 22  1  6  0  0  0
 15 14  1  0  0  0  0
 15  4  1  0  0  0  0
 15  7  1  0  0  0  0
 16  5  2  0  0  0  0
 16 13  1  0  0  0  0
 18 25  1  1  0  0  0
 18 22  1  0  0  0  0
 19 20  1  0  0  0  0
 20 22  2  0  0  0  0
 20 23  1  0  0  0  0
 21 26  1  6  0  0  0
 21 25  1  0  0  0  0
 21 18  1  0  0  0  0
 24 21  1  0  0  0  0
 24 19  2  0  0  0  0
 27 26  2  0  0  0  0
 28 26  1  0  0  0  0
 29 31  1  0  0  0  0
 31 30  1  6  0  0  0
 31 32  1  0  0  0  0
 32 33  1  6  0  0  0
 34 32  1  0  0  0  0
 35 42  1  1  0  0  0
 35 36  1  0  0  0  0
 35 39  1  0  0  0  0
 36 41  1  0  0  0  0
 37 40  2  0  0  0  0
 38 40  1  0  0  0  0
 39 34  1  6  0  0  0
 39 38  1  0  0  0  0
 41 37  1  0  0  0  0
 42 39  1  0  0  0  0
 44 45  1  0  0  0  0
 45 43  1  0  0  0  0
 45 46  1  0  0  0  0
 47 46  1  0  0  0  0
 47 48  1  1  0  0  0
 47 57  1  0  0  0  0
 49 52  1  6  0  0  0
 49 51  1  0  0  0  0
 49 53  1  0  0  0  0
 49 54  1  0  0  0  0
 51 50  1  6  0  0  0
 51 53  1  0  0  0  0
 53 47  1  1  0  0  0
 55 54  2  0  0  0  0
 57 56  1  0  0  0  0
M  END
>  <MODEL>
8

>  <REMARK>
 VINA RESULT:      -7.4      2.179      8.615
  Name = 
  14 active torsions:
  status: ('A' for Active; 'I' for Inactive)
    1  A    between atoms: C_1  and  C_10
    2  A    between atoms: C_8  and  O_46
    3  A    between atoms: N_9  and  C_16
    4  A    between atoms: N_9  and  C_33
    5  A    between atoms: C_16  and  C_43
    6  A    between atoms: C_18  and  N_35
    7  A    between atoms: C_18  and  C_54
    8  A    between atoms: C_19  and  N_49
    9  A    between atoms: C_25  and  C_42
   10  A    between atoms: O_28  and  C_54
   11  A    between atoms: C_29  and  C_54
   12  A    between atoms: N_35  and  N_49
   13  A    between atoms: C_37  and  C_45
   14  A    between atoms: C_43  and  O_46
                            x       y       z     vdW  Elec       q    Type
                         _______ _______ _______ _____ _____    ______ ____

>  <TORSDO>
F 14

$$$$
=
 OpenBabel11042419083D

 57 64  0  0  1  0  0  0  0  0999 V2000
  191.5820  174.1480  141.5790 O   0  0  0  0  0  0  0  0  0  0  0  0
  190.7250  178.3920  142.8660 C   0  0  0  0  0  1  0  0  0  0  0  0
  190.2900  176.7760  144.7150 C   0  0  1  0  0  3  0  0  0  0  0  0
  190.3510  175.2630  144.9120 C   0  0  0  0  0  2  0  0  0  0  0  0
  188.0290  175.1200  142.9230 O   0  0  0  0  0  0  0  0  0  0  0  0
  188.6150  173.1550  140.6550 C   0  0  2  0  0  0  0  0  0  0  0  0
  191.3900  173.2220  144.1650 O   0  0  0  0  0  0  0  0  0  0  0  0
  190.4170  172.7390  143.2800 C   0  0  0  0  0  2  0  0  0  0  0  0
  190.9460  172.9100  141.8600 C   0  0  1  0  0  3  0  0  0  0  0  0
  189.9360  177.1610  143.2720 C   0  0  2  0  0  3  0  0  0  0  0  0
  189.9880  172.4640  140.7490 C   0  0  0  0  0  2  0  0  0  0  0  0
  190.1410  176.0390  142.2390 C   0  0  1  0  0  3  0  0  0  0  0  0
  188.7350  174.5790  140.7940 O   0  0  0  0  0  0  0  0  0  0  0  0
  191.3430  175.1300  142.5730 C   0  0  1  0  0  3  0  0  0  0  0  0
  191.4720  174.6360  144.0650 C   0  0  1  0  0  0  0  0  0  0  0  0
  188.8930  175.2420  142.0130 C   0  0  0  0  0  0  0  0  0  0  0  0
  187.6880  172.5660  141.7100 C   0  0  0  0  0  1  0  0  0  0  0  0
  193.9580  175.3760  143.6910 C   0  0  2  0  0  3  0  0  0  0  0  0
  194.2850  175.6140  146.5740 C   0  0  0  0  0  3  0  0  0  0  0  0
  192.9990  175.1900  146.0000 C   0  0  0  0  0  0  0  0  0  0  0  0
  195.3010  175.7310  144.3270 C   0  0  1  0  0  0  0  0  0  0  0  0
  192.8240  175.0600  144.6560 C   0  0  0  0  0  0  0  0  0  0  0  0
  191.9110  174.9050  146.9810 C   0  0  0  0  0  1  0  0  0  0  0  0
  195.3480  175.8650  145.8180 C   0  0  0  0  0  3  0  0  0  0  0  0
  195.0590  174.3210  143.8230 C   0  0  0  0  0  2  0  0  0  0  0  0
  196.2500  176.5470  143.4860 C   0  0  0  0  0  0  0  0  0  0  0  0
  196.7830  177.5360  143.9600 O   0  0  0  0  0  0  0  0  0  0  0  0
  196.5420  176.1880  142.0650 C   0  0  0  0  0  1  0  0  0  0  0  0
  189.3560  177.3280  145.5980 O   0  0  0  0  0  0  0  0  0  0  0  0
  188.5110  175.7500  147.1810 C   0  0  0  0  0  1  0  0  0  0  0  0
  188.3840  176.3360  145.7820 C   0  0  1  0  0  3  0  0  0  0  0  0
  186.9850  176.9040  145.5280 C   0  0  1  0  0  3  0  0  0  0  0  0
  186.2030  176.8020  146.6800 O   0  0  0  0  0  1  0  0  0  0  0  0
  187.0470  178.2960  145.0890 N   0  0  0  0  0  2  0  0  0  0  0  0
  187.2010  178.6780  142.6560 C   0  0  2  0  0  3  0  0  0  0  0  0
  186.6770  178.0370  141.3540 C   0  0  0  0  0  2  0  0  0  0  0  0
  184.2030  178.4250  141.5290 C   0  0  0  0  0  3  0  0  0  0  0  0
  185.1500  177.4100  143.6200 C   0  0  0  0  0  2  0  0  0  0  0  0
  186.2860  178.4240  143.8500 C   0  0  1  0  0  0  0  0  0  0  0  0
  184.0370  177.9150  142.7520 C   0  0  0  0  0  3  0  0  0  0  0  0
  185.4410  178.5800  140.8870 O   0  0  0  0  0  0  0  0  0  0  0  0
  186.3120  179.7970  143.1990 C   0  0  0  0  0  2  0  0  0  0  0  0
  188.0290  172.8310  139.3490 N   0  0  0  0  0  2  0  0  0  0  0  0
  187.8370  174.5190  137.8170 C   0  0  0  0  0  1  0  0  0  0  0  0
  188.7310  173.4890  138.3230 N   0  0  0  0  0  0  0  0  0  0  0  0
  188.9290  172.5250  137.2450 C   0  0  0  0  0  2  0  0  0  0  0  0
  190.3880  172.5120  136.7300 C   0  0  2  0  0  0  0  0  0  0  0  0
  191.1240  171.2640  137.2300 C   0  0  0  0  0  1  0  0  0  0  0  0
  192.3400  174.2520  136.5850 C   0  0  2  0  0  0  0  0  0  0  0  0
  192.8590  174.1900  138.9370 O   0  0  0  0  0  1  0  0  0  0  0  0
  192.5550  173.3990  137.8290 C   0  0  1  0  0  3  0  0  0  0  0  0
  192.5800  175.6180  136.7540 O   0  0  0  0  0  1  0  0  0  0  0  0
  191.1320  173.7210  137.3500 C   0  0  2  0  0  3  0  0  0  0  0  0
  192.7850  173.6370  135.2970 C   0  0  0  0  0  3  0  0  0  0  0  0
  193.7320  172.8700  135.2780 O   0  0  0  0  0  0  0  0  0  0  0  0
  190.0480  171.3250  134.7600 C   0  0  0  0  0  1  0  0  0  0  0  0
  190.4250  172.5670  135.3090 O   0  0  0  0  0  0  0  0  0  0  0  0
  1  9  1  0  0  0  0
  3  4  1  0  0  0  0
  3 29  1  1  0  0  0
  6 11  1  0  0  0  0
  6 13  1  0  0  0  0
  6 17  1  1  0  0  0
  8  7  1  0  0  0  0
  9 11  1  6  0  0  0
  9  8  1  0  0  0  0
 10  2  1  6  0  0  0
 10  3  1  0  0  0  0
 12 16  1  1  0  0  0
 12 14  1  0  0  0  0
 12 10  1  0  0  0  0
 13 16  1  0  0  0  0
 14  1  1  6  0  0  0
 14 15  1  0  0  0  0
 15  7  1  0  0  0  0
 15 22  1  1  0  0  0
 15  4  1  0  0  0  0
 16  5  2  0  0  0  0
 18 25  1  6  0  0  0
 18 21  1  0  0  0  0
 18 22  1  0  0  0  0
 20 19  1  0  0  0  0
 20 23  1  0  0  0  0
 21 26  1  6  0  0  0
 21 24  1  0  0  0  0
 22 20  2  0  0  0  0
 24 19  2  0  0  0  0
 25 21  1  0  0  0  0
 26 27  2  0  0  0  0
 28 26  1  0  0  0  0
 29 31  1  0  0  0  0
 31 30  1  1  0  0  0
 32 31  1  0  0  0  0
 32 33  1  1  0  0  0
 34 32  1  0  0  0  0
 35 36  1  6  0  0  0
 35 42  1  0  0  0  0
 35 39  1  0  0  0  0
 37 40  2  0  0  0  0
 38 39  1  0  0  0  0
 39 34  1  1  0  0  0
 40 38  1  0  0  0  0
 41 36  1  0  0  0  0
 41 37  1  0  0  0  0
 42 39  1  0  0  0  0
 43  6  1  0  0  0  0
 44 45  1  0  0  0  0
 45 43  1  0  0  0  0
 46 45  1  0  0  0  0
 47 48  1  1  0  0  0
 47 46  1  0  0  0  0
 49 52  1  1  0  0  0
 49 53  1  0  0  0  0
 49 51  1  0  0  0  0
 51 50  1  1  0  0  0
 53 47  1  6  0  0  0
 53 51  1  0  0  0  0
 54 49  1  0  0  0  0
 55 54  2  0  0  0  0
 56 57  1  0  0  0  0
 57 47  1  0  0  0  0
M  END
>  <MODEL>
9

>  <REMARK>
 VINA RESULT:      -7.4      2.371      7.932
  Name = 
  14 active torsions:
  status: ('A' for Active; 'I' for Inactive)
    1  A    between atoms: C_1  and  C_10
    2  A    between atoms: C_8  and  O_46
    3  A    between atoms: N_9  and  C_16
    4  A    between atoms: N_9  and  C_33
    5  A    between atoms: C_16  and  C_43
    6  A    between atoms: C_18  and  N_35
    7  A    between atoms: C_18  and  C_54
    8  A    between atoms: C_19  and  N_49
    9  A    between atoms: C_25  and  C_42
   10  A    between atoms: O_28  and  C_54
   11  A    between atoms: C_29  and  C_54
   12  A    between atoms: N_35  and  N_49
   13  A    between atoms: C_37  and  C_45
   14  A    between atoms: C_43  and  O_46
                            x       y       z     vdW  Elec       q    Type
                         _______ _______ _______ _____ _____    ______ ____

>  <TORSDO>
F 14

$$$$
