=
 OpenBabel11042413453D

 30 36  0  0  1  0  0  0  0  0999 V2000
  187.4930  176.3250  141.9830 C   0  0  0  0  0  0  0  0  0  0  0  0
  185.6110  177.5960  140.8640 C   0  0  0  0  0  0  0  0  0  0  0  0
  185.9800  178.0820  145.7420 N   0  0  0  0  0  0  0  0  0  0  0  0
  188.2270  176.0830  143.1720 C   0  0  0  0  0  0  0  0  0  0  0  0
  187.8550  175.6210  140.8190 C   0  0  0  0  0  3  0  0  0  0  0  0
  190.8900  173.2450  141.8040 S   0  0  0  0  0  0  0  0  0  0  0  0
  190.3350  175.8570  145.3550 C   0  0  1  0  0  3  0  0  0  0  0  0
  189.5780  174.4400  142.0170 C   0  0  0  0  0  0  0  0  0  0  0  0
  189.3450  173.9820  139.7240 N   0  0  0  0  0  2  0  0  0  0  0  0
  189.1990  176.3170  146.2660 C   0  0  2  0  0  3  0  0  0  0  0  0
  186.7960  177.0850  146.3790 C   0  0  0  0  0  0  0  0  0  0  0  0
  188.9070  174.7110  140.8540 C   0  0  0  0  0  0  0  0  0  0  0  0
  189.2510  175.1060  143.2080 C   0  0  0  0  0  0  0  0  0  0  0  0
  184.2960  178.1960  140.9930 N   0  0  0  0  0  0  0  0  0  0  0  0
  189.2920  175.4330  147.4890 C   0  0  0  0  0  2  0  0  0  0  0  0
  191.4310  175.3900  146.3040 C   0  0  0  0  0  2  0  0  0  0  0  0
  191.6380  173.4100  139.1650 C   0  0  0  0  0  1  0  0  0  0  0  0
  186.2210  177.5370  139.5770 N   0  0  0  0  0  1  0  0  0  0  0  0
  185.5450  177.9810  144.5240 C   0  0  0  0  0  0  0  0  0  0  0  0
  183.7050  178.3710  142.3340 C   0  0  0  0  0  2  0  0  0  0  0  0
  190.4400  173.0700  140.0270 C   0  0  1  0  0  3  0  0  0  0  0  0
  186.2500  177.1720  141.9940 C   0  0  1  0  0  3  0  0  0  0  0  0
  187.9280  176.8350  144.3000 O   0  0  0  0  0  0  0  0  0  0  0  0
  186.6780  176.9060  147.6200 O   0  0  0  0  0  0  0  0  0  0  0  0
  187.8170  176.2840  145.6010 C   0  0  1  0  0  3  0  0  0  0  0  0
  190.7740  175.1520  147.6580 C   0  0  0  0  0  2  0  0  0  0  0  0
  189.8710  173.3930  144.9000 C   0  0  0  0  0  1  0  0  0  0  0  0
  184.8790  178.5920  143.2750 C   0  0  2  0  0  3  0  0  0  0  0  0
  185.3590  177.2250  143.2260 C   0  0  2  0  0  3  0  0  0  0  0  0
  189.9150  174.7790  144.4430 N   0  0  0  0  0  0  0  0  0  0  0  0
  1 22  1  0  0  0  0
  1  4  1  0  0  0  0
  2 14  2  0  0  0  0
  3 11  1  0  0  0  0
  4 13  2  0  0  0  0
  4 23  1  0  0  0  0
  5 12  1  0  0  0  0
  5  1  2  0  0  0  0
  6  8  1  0  0  0  0
  7 10  1  0  0  0  0
  7 16  1  1  0  0  0
  8 13  1  0  0  0  0
  9 21  1  0  0  0  0
  9 12  1  0  0  0  0
 10 15  1  1  0  0  0
 11 24  2  0  0  0  0
 12  8  2  0  0  0  0
 13 30  1  0  0  0  0
 14 20  1  0  0  0  0
 15 26  1  0  0  0  0
 16 26  1  0  0  0  0
 18  2  1  0  0  0  0
 19  3  2  0  0  0  0
 21 17  1  6  0  0  0
 21  6  1  0  0  0  0
 22  2  1  6  0  0  0
 22 29  1  0  0  0  0
 25 23  1  6  0  0  0
 25 10  1  0  0  0  0
 25 11  1  0  0  0  0
 28 20  1  1  0  0  0
 28 19  1  0  0  0  0
 29 28  1  0  0  0  0
 29 19  1  1  0  0  0
 30 27  1  0  0  0  0
 30  7  1  0  0  0  0
M  END
>  <MODEL>
1

>  <REMARK>
 VINA RESULT:      -9.2      0.000      0.000
  Name = 
  0 active torsions:
  status: ('A' for Active; 'I' for Inactive)
                            x       y       z     vdW  Elec       q    Type
                         _______ _______ _______ _____ _____    ______ ____

>  <TORSDO>
F 0

$$$$
=
 OpenBabel11042413453D

 30 36  0  0  1  0  0  0  0  0999 V2000
  188.2560  176.0330  143.5060 C   0  0  0  0  0  0  0  0  0  0  0  0
  185.9640  176.9750  144.0220 C   0  0  0  0  0  0  0  0  0  0  0  0
  189.4220  177.6390  147.4520 N   0  0  0  0  0  0  0  0  0  0  0  0
  189.6190  175.9370  143.8870 C   0  0  0  0  0  0  0  0  0  0  0  0
  187.8390  175.3630  142.3420 C   0  0  0  0  0  3  0  0  0  0  0  0
  191.0330  173.5010  140.8730 S   0  0  0  0  0  0  0  0  0  0  0  0
  192.6510  176.0900  144.1000 C   0  0  1  0  0  3  0  0  0  0  0  0
  190.0560  174.4880  141.9980 C   0  0  0  0  0  0  0  0  0  0  0  0
  188.4170  173.9400  140.4060 N   0  0  0  0  0  2  0  0  0  0  0  0
  192.3640  176.3960  145.5690 C   0  0  2  0  0  3  0  0  0  0  0  0
  190.5750  176.7940  147.3060 C   0  0  0  0  0  0  0  0  0  0  0  0
  188.7530  174.6230  141.5970 C   0  0  0  0  0  0  0  0  0  0  0  0
  190.5230  175.1270  143.1560 C   0  0  0  0  0  0  0  0  0  0  0  0
  185.0060  177.3720  145.0370 N   0  0  0  0  0  2  0  0  0  0  0  0
  193.3630  175.5690  146.3460 C   0  0  0  0  0  2  0  0  0  0  0  0
  194.1490  175.8200  144.0440 C   0  0  0  0  0  2  0  0  0  0  0  0
  189.8030  173.7080  138.4250 C   0  0  0  0  0  1  0  0  0  0  0  0
  185.5620  176.9760  142.6550 N   0  0  0  0  0  1  0  0  0  0  0  0
  188.3040  177.4410  146.8250 C   0  0  0  0  0  0  0  0  0  0  0  0
  185.4430  177.4910  146.4420 C   0  0  0  0  0  2  0  0  0  0  0  0
  189.5420  173.2130  139.8320 C   0  0  1  0  0  3  0  0  0  0  0  0
  187.2410  176.6830  144.4070 C   0  0  0  0  0  0  0  0  0  0  0  0
  190.0530  176.6650  144.9870 O   0  0  0  0  0  0  0  0  0  0  0  0
  191.3390  176.6320  148.2940 O   0  0  0  0  0  0  0  0  0  0  0  0
  190.9110  176.1370  145.9850 C   0  0  1  0  0  3  0  0  0  0  0  0
  194.6000  175.5200  145.4680 C   0  0  0  0  0  2  0  0  0  0  0  0
  192.3280  173.5730  143.8670 C   0  0  0  0  0  1  0  0  0  0  0  0
  186.9030  177.9120  146.3840 C   0  0  2  0  0  3  0  0  0  0  0  0
  187.4010  176.6330  145.9190 C   0  0  2  0  0  3  0  0  0  0  0  0
  191.8750  174.9370  143.6100 N   0  0  0  0  0  0  0  0  0  0  0  0
  1  4  1  0  0  0  0
  1 22  1  0  0  0  0
  2 22  2  0  0  0  0
  2 14  1  0  0  0  0
  4 23  1  0  0  0  0
  5  1  2  0  0  0  0
  6  8  1  0  0  0  0
  7 16  1  1  0  0  0
  7 10  1  0  0  0  0
  8 13  1  0  0  0  0
  9 12  1  0  0  0  0
 10 25  1  0  0  0  0
 10 15  1  1  0  0  0
 11  3  1  0  0  0  0
 11 24  2  0  0  0  0
 12  8  2  0  0  0  0
 12  5  1  0  0  0  0
 13 30  1  0  0  0  0
 13  4  2  0  0  0  0
 14 20  1  0  0  0  0
 16 26  1  0  0  0  0
 18  2  1  0  0  0  0
 19  3  2  0  0  0  0
 21 17  1  6  0  0  0
 21  9  1  0  0  0  0
 21  6  1  0  0  0  0
 25 23  1  6  0  0  0
 25 11  1  0  0  0  0
 26 15  1  0  0  0  0
 28 20  1  1  0  0  0
 28 19  1  0  0  0  0
 29 22  1  6  0  0  0
 29 28  1  0  0  0  0
 29 19  1  0  0  0  0
 30 27  1  0  0  0  0
 30  7  1  0  0  0  0
M  END
>  <MODEL>
2

>  <REMARK>
 VINA RESULT:      -9.1      2.015      2.995
  Name = 
  0 active torsions:
  status: ('A' for Active; 'I' for Inactive)
                            x       y       z     vdW  Elec       q    Type
                         _______ _______ _______ _____ _____    ______ ____

>  <TORSDO>
F 0

$$$$
=
 OpenBabel11042413453D

 30 36  0  0  1  0  0  0  0  0999 V2000
  187.9660  175.9950  142.4220 C   0  0  0  0  0  0  0  0  0  0  0  0
  189.6980  174.6120  141.1990 C   0  0  0  0  0  0  0  0  0  0  0  0
  190.5150  175.4070  145.9810 N   0  0  0  0  0  0  0  0  0  0  0  0
  187.4960  176.4890  143.6650 C   0  0  0  0  0  0  0  0  0  0  0  0
  187.2590  176.3390  141.2550 C   0  0  0  0  0  3  0  0  0  0  0  0
  184.2360  178.6660  142.3820 S   0  0  0  0  0  0  0  0  0  0  0  0
  185.9280  177.1330  146.1930 C   0  0  1  0  0  3  0  0  0  0  0  0
  185.7090  177.6680  142.5340 C   0  0  0  0  0  0  0  0  0  0  0  0
  185.3520  177.5190  140.2160 N   0  0  0  0  0  2  0  0  0  0  0  0
  187.2920  177.0130  146.8680 C   0  0  2  0  0  3  0  0  0  0  0  0
  189.7390  176.4760  146.5470 C   0  0  0  0  0  0  0  0  0  0  0  0
  186.1300  177.1480  141.3380 C   0  0  0  0  0  0  0  0  0  0  0  0
  186.3850  177.3660  143.7260 C   0  0  0  0  0  0  0  0  0  0  0  0
  191.0760  174.1630  141.1290 N   0  0  0  0  0  0  0  0  0  0  0  0
  187.3610  178.1790  147.8270 C   0  0  0  0  0  2  0  0  0  0  0  0
  185.0230  177.7540  147.2490 C   0  0  0  0  0  2  0  0  0  0  0  0
  182.9360  177.7570  140.1380 C   0  0  0  0  0  1  0  0  0  0  0  0
  188.8100  174.2840  140.1340 N   0  0  0  0  0  1  0  0  0  0  0  0
  190.6450  175.2140  144.7040 C   0  0  0  0  0  0  0  0  0  0  0  0
  191.9750  174.3920  142.2780 C   0  0  0  0  0  2  0  0  0  0  0  0
  184.2420  178.3970  140.5610 C   0  0  1  0  0  3  0  0  0  0  0  0
  189.2820  175.2720  142.3190 C   0  0  1  0  0  3  0  0  0  0  0  0
  188.1420  176.0850  144.8260 O   0  0  0  0  0  0  0  0  0  0  0  0
  190.1110  176.9840  147.6380 O   0  0  0  0  0  0  0  0  0  0  0  0
  188.4700  176.9680  145.8860 C   0  0  1  0  0  3  0  0  0  0  0  0
  185.9330  178.3880  148.2950 C   0  0  0  0  0  2  0  0  0  0  0  0
  185.9410  179.4160  145.0600 C   0  0  0  0  0  1  0  0  0  0  0  0
  191.0860  174.3440  143.5100 C   0  0  2  0  0  3  0  0  0  0  0  0
  190.4280  175.6110  143.2600 C   0  0  2  0  0  3  0  0  0  0  0  0
  185.9810  177.9590  144.9740 N   0  0  0  0  0  0  0  0  0  0  0  0
  1  4  1  0  0  0  0
  3 11  1  0  0  0  0
  4 13  2  0  0  0  0
  4 23  1  0  0  0  0
  5 12  1  0  0  0  0
  5  1  2  0  0  0  0
  6  8  1  0  0  0  0
  7 10  1  0  0  0  0
  7 16  1  1  0  0  0
  8 13  1  0  0  0  0
  9 21  1  0  0  0  0
  9 12  1  0  0  0  0
 10 15  1  1  0  0  0
 11 24  2  0  0  0  0
 12  8  2  0  0  0  0
 13 30  1  0  0  0  0
 14  2  2  0  0  0  0
 14 20  1  0  0  0  0
 15 26  1  0  0  0  0
 16 26  1  0  0  0  0
 18  2  1  0  0  0  0
 19  3  2  0  0  0  0
 21 17  1  1  0  0  0
 21  6  1  0  0  0  0
 22  2  1  6  0  0  0
 22  1  1  0  0  0  0
 22 29  1  0  0  0  0
 25 23  1  6  0  0  0
 25 11  1  0  0  0  0
 25 10  1  0  0  0  0
 28 20  1  6  0  0  0
 28 19  1  0  0  0  0
 29 28  1  0  0  0  0
 29 19  1  1  0  0  0
 30 27  1  0  0  0  0
 30  7  1  0  0  0  0
M  END
>  <MODEL>
3

>  <REMARK>
 VINA RESULT:      -8.3      2.186      5.446
  Name = 
  0 active torsions:
  status: ('A' for Active; 'I' for Inactive)
                            x       y       z     vdW  Elec       q    Type
                         _______ _______ _______ _____ _____    ______ ____

>  <TORSDO>
F 0

$$$$
=
 OpenBabel11042413453D

 30 36  0  0  1  0  0  0  0  0999 V2000
  189.0790  174.6390  141.3860 C   0  0  0  0  0  0  0  0  0  0  0  0
  189.5170  173.4160  139.2130 C   0  0  0  0  0  0  0  0  0  0  0  0
  192.6120  172.4720  142.9140 N   0  0  0  0  0  0  0  0  0  0  0  0
  189.4100  174.7900  142.7560 C   0  0  0  0  0  0  0  0  0  0  0  0
  188.0760  175.4650  140.8450 C   0  0  0  0  0  3  0  0  0  0  0  0
  186.8300  177.8410  143.7820 S   0  0  0  0  0  0  0  0  0  0  0  0
  189.4570  174.8800  145.7980 C   0  0  1  0  0  3  0  0  0  0  0  0
  187.7980  176.5850  142.9590 C   0  0  0  0  0  0  0  0  0  0  0  0
  186.4070  177.2540  141.1880 N   0  0  0  0  0  2  0  0  0  0  0  0
  190.8570  174.2930  145.6260 C   0  0  2  0  0  3  0  0  0  0  0  0
  192.5710  173.4320  143.9830 C   0  0  0  0  0  0  0  0  0  0  0  0
  187.4380  176.4040  141.6490 C   0  0  0  0  0  0  0  0  0  0  0  0
  188.7990  175.7960  143.5450 C   0  0  0  0  0  0  0  0  0  0  0  0
  190.4850  172.7590  138.3540 N   0  0  0  0  0  0  0  0  0  0  0  0
  191.7260  175.0570  146.5980 C   0  0  0  0  0  2  0  0  0  0  0  0
  189.3840  175.2910  147.2630 C   0  0  0  0  0  2  0  0  0  0  0  0
  184.4410  177.9590  142.4280 C   0  0  0  0  0  1  0  0  0  0  0  0
  188.1910  173.6200  138.7310 N   0  0  0  0  0  1  0  0  0  0  0  0
  192.0810  172.6760  141.7480 C   0  0  0  0  0  0  0  0  0  0  0  0
  191.8240  172.4340  138.8830 C   0  0  0  0  0  2  0  0  0  0  0  0
  185.9260  178.1710  142.2120 C   0  0  1  0  0  3  0  0  0  0  0  0
  189.8910  173.7510  140.4830 C   0  0  1  0  0  3  0  0  0  0  0  0
  190.3390  173.9220  143.3140 O   0  0  0  0  0  0  0  0  0  0  0  0
  193.5370  173.4850  144.7890 O   0  0  0  0  0  0  0  0  0  0  0  0
  191.3770  174.3410  144.1840 C   0  0  1  0  0  3  0  0  0  0  0  0
  190.8180  175.3730  147.7730 C   0  0  0  0  0  2  0  0  0  0  0  0
  189.6990  177.3580  145.2570 C   0  0  0  0  0  1  0  0  0  0  0  0
  191.6260  172.1650  140.3660 C   0  0  2  0  0  3  0  0  0  0  0  0
  191.3790  173.5460  140.7290 C   0  0  2  0  0  3  0  0  0  0  0  0
  189.2190  176.0250  144.9020 N   0  0  0  0  0  0  0  0  0  0  0  0
  1  4  1  0  0  0  0
  3 11  1  0  0  0  0
  4 23  1  0  0  0  0
  4 13  2  0  0  0  0
  5  1  2  0  0  0  0
  5 12  1  0  0  0  0
  7 16  1  1  0  0  0
  8 13  1  0  0  0  0
  8  6  1  0  0  0  0
  9 12  1  0  0  0  0
  9 21  1  0  0  0  0
 10  7  1  0  0  0  0
 10 15  1  1  0  0  0
 11 25  1  0  0  0  0
 11 24  2  0  0  0  0
 12  8  2  0  0  0  0
 13 30  1  0  0  0  0
 14 20  1  0  0  0  0
 14  2  2  0  0  0  0
 15 26  1  0  0  0  0
 16 26  1  0  0  0  0
 18  2  1  0  0  0  0
 19  3  2  0  0  0  0
 21 17  1  1  0  0  0
 21  6  1  0  0  0  0
 22  2  1  6  0  0  0
 22 29  1  0  0  0  0
 22  1  1  0  0  0  0
 25 23  1  6  0  0  0
 25 10  1  0  0  0  0
 28 20  1  6  0  0  0
 28 29  1  0  0  0  0
 28 19  1  0  0  0  0
 29 19  1  1  0  0  0
 30 27  1  0  0  0  0
 30  7  1  0  0  0  0
M  END
>  <MODEL>
4

>  <REMARK>
 VINA RESULT:      -8.1      2.339      5.767
  Name = 
  0 active torsions:
  status: ('A' for Active; 'I' for Inactive)
                            x       y       z     vdW  Elec       q    Type
                         _______ _______ _______ _____ _____    ______ ____

>  <TORSDO>
F 0

$$$$
=
 OpenBabel11042413453D

 30 36  0  0  1  0  0  0  0  0999 V2000
  191.3510  175.4270  145.0280 C   0  0  0  0  0  0  0  0  0  0  0  0
  189.8810  176.6300  146.7020 C   0  0  0  0  0  0  0  0  0  0  0  0
  187.7420  175.2850  142.4850 N   0  0  0  0  0  0  0  0  0  0  0  0
  191.4270  174.7140  143.8050 C   0  0  0  0  0  0  0  0  0  0  0  0
  192.5370  175.6380  145.7540 C   0  0  0  0  0  3  0  0  0  0  0  0
  195.4850  173.9850  143.6550 S   0  0  0  0  0  0  0  0  0  0  0  0
  191.7810  172.6440  141.6020 C   0  0  1  0  0  3  0  0  0  0  0  0
  193.8270  174.5160  144.0570 C   0  0  0  0  0  0  0  0  0  0  0  0
  194.9780  175.3080  145.9460 N   0  0  0  0  0  2  0  0  0  0  0  0
  190.4960  173.2590  141.0500 C   0  0  2  0  0  3  0  0  0  0  0  0
  188.6620  174.9520  141.4310 C   0  0  0  0  0  0  0  0  0  0  0  0
  193.7480  175.1560  145.2660 C   0  0  0  0  0  0  0  0  0  0  0  0
  192.6760  174.2870  143.2880 C   0  0  0  0  0  0  0  0  0  0  0  0
  188.7120  177.4600  146.9270 N   0  0  0  0  0  2  0  0  0  0  0  0
  190.7340  173.3990  139.5640 C   0  0  0  0  0  2  0  0  0  0  0  0
  192.3070  171.7640  140.4750 C   0  0  0  0  0  2  0  0  0  0  0  0
  196.7860  173.6890  146.0580 C   0  0  0  0  0  1  0  0  0  0  0  0
  190.7440  176.3400  147.7980 N   0  0  0  0  0  1  0  0  0  0  0  0
  188.0900  175.9080  143.5690 C   0  0  0  0  0  0  0  0  0  0  0  0
  187.7470  177.6690  145.8300 C   0  0  0  0  0  2  0  0  0  0  0  0
  196.1050  174.7460  145.2130 C   0  0  1  0  0  3  0  0  0  0  0  0
  190.0740  176.0960  145.4600 C   0  0  0  0  0  0  0  0  0  0  0  0
  190.2490  174.4300  143.1270 O   0  0  0  0  0  0  0  0  0  0  0  0
  188.2440  174.9360  140.2430 O   0  0  0  0  0  0  0  0  0  0  0  0
  190.0980  174.5760  141.7250 C   0  0  1  0  0  3  0  0  0  0  0  0
  191.6210  172.2250  139.1950 C   0  0  0  0  0  2  0  0  0  0  0  0
  193.6260  174.2920  140.9920 C   0  0  0  0  0  1  0  0  0  0  0  0
  187.7870  176.3960  145.0000 C   0  0  2  0  0  3  0  0  0  0  0  0
  189.0960  176.6400  144.4290 C   0  0  2  0  0  3  0  0  0  0  0  0
  192.7650  173.6680  141.9920 N   0  0  0  0  0  0  0  0  0  0  0  0
  1 22  1  0  0  0  0
  1  5  1  0  0  0  0
  2 14  1  0  0  0  0
  2 18  1  0  0  0  0
  3 19  2  0  0  0  0
  4  1  2  0  0  0  0
  6  8  1  0  0  0  0
  6 21  1  0  0  0  0
  7 16  1  6  0  0  0
  7 30  1  0  0  0  0
  8 12  1  0  0  0  0
 10 15  1  6  0  0  0
 10  7  1  0  0  0  0
 10 25  1  0  0  0  0
 11  3  1  0  0  0  0
 12  5  2  0  0  0  0
 12  9  1  0  0  0  0
 13  4  1  0  0  0  0
 13  8  2  0  0  0  0
 19 28  1  0  0  0  0
 20 14  1  0  0  0  0
 21  9  1  0  0  0  0
 21 17  1  1  0  0  0
 22  2  2  0  0  0  0
 23  4  1  0  0  0  0
 24 11  2  0  0  0  0
 25 11  1  1  0  0  0
 25 23  1  0  0  0  0
 26 15  1  0  0  0  0
 26 16  1  0  0  0  0
 27 30  1  0  0  0  0
 28 20  1  6  0  0  0
 29 19  1  6  0  0  0
 29 28  1  0  0  0  0
 29 22  1  0  0  0  0
 30 13  1  0  0  0  0
M  END
>  <MODEL>
5

>  <REMARK>
 VINA RESULT:      -7.5      2.903      6.196
  Name = 
  0 active torsions:
  status: ('A' for Active; 'I' for Inactive)
                            x       y       z     vdW  Elec       q    Type
                         _______ _______ _______ _____ _____    ______ ____

>  <TORSDO>
F 0

$$$$
=
 OpenBabel11042413453D

 30 36  0  0  1  0  0  0  0  0999 V2000
  189.8790  174.5960  144.5300 C   0  0  0  0  0  0  0  0  0  0  0  0
  188.8980  175.9030  146.4640 C   0  0  0  0  0  0  0  0  0  0  0  0
  186.6610  176.4230  142.1180 N   0  0  0  0  0  0  0  0  0  0  0  0
  189.7440  174.1840  143.1810 C   0  0  0  0  0  0  0  0  0  0  0  0
  191.0080  174.1670  145.2510 C   0  0  0  0  0  3  0  0  0  0  0  0
  193.1970  171.9640  142.7640 S   0  0  0  0  0  0  0  0  0  0  0  0
  189.3940  172.6520  140.5740 C   0  0  1  0  0  3  0  0  0  0  0  0
  191.8570  173.0080  143.3180 C   0  0  0  0  0  0  0  0  0  0  0  0
  193.1110  172.8700  145.3000 N   0  0  0  0  0  2  0  0  0  0  0  0
  188.4860  173.8230  140.2030 C   0  0  2  0  0  3  0  0  0  0  0  0
  187.4390  175.9820  140.9920 C   0  0  0  0  0  0  0  0  0  0  0  0
  191.9620  173.3600  144.6380 C   0  0  0  0  0  0  0  0  0  0  0  0
  190.7560  173.4180  142.5500 C   0  0  0  0  0  0  0  0  0  0  0  0
  188.1350  177.0590  146.8950 N   0  0  0  0  0  2  0  0  0  0  0  0
  188.8490  174.1660  138.7770 C   0  0  0  0  0  2  0  0  0  0  0  0
  189.6010  171.8920  139.2710 C   0  0  0  0  0  2  0  0  0  0  0  0
  194.1330  170.6850  145.0100 C   0  0  0  0  0  1  0  0  0  0  0  0
  189.5120  175.0750  147.4480 N   0  0  0  0  0  1  0  0  0  0  0  0
  187.1590  176.6170  143.3000 C   0  0  0  0  0  0  0  0  0  0  0  0
  187.3950  177.8560  145.8960 C   0  0  0  0  0  2  0  0  0  0  0  0
  193.9710  172.0760  144.4320 C   0  0  1  0  0  3  0  0  0  0  0  0
  188.9410  175.6080  145.1310 C   0  0  0  0  0  0  0  0  0  0  0  0
  188.5920  174.5350  142.4910 O   0  0  0  0  0  0  0  0  0  0  0  0
  187.1210  176.3800  139.8410 O   0  0  0  0  0  0  0  0  0  0  0  0
  188.5940  175.0180  141.1580 C   0  0  1  0  0  3  0  0  0  0  0  0
  189.2280  172.8420  138.1390 C   0  0  0  0  0  2  0  0  0  0  0  0
  191.7690  173.5270  140.2820 C   0  0  0  0  0  1  0  0  0  0  0  0
  186.9850  176.8740  144.8100 C   0  0  2  0  0  3  0  0  0  0  0  0
  188.3170  176.6950  144.2700 C   0  0  2  0  0  3  0  0  0  0  0  0
  190.6740  173.0990  141.1490 N   0  0  0  0  0  0  0  0  0  0  0  0
  1 22  1  0  0  0  0
  1  5  1  0  0  0  0
  2 14  1  0  0  0  0
  2 18  1  0  0  0  0
  3 19  2  0  0  0  0
  4  1  2  0  0  0  0
  6  8  1  0  0  0  0
  6 21  1  0  0  0  0
  7 16  1  6  0  0  0
  7 30  1  0  0  0  0
  8 12  1  0  0  0  0
 10 15  1  6  0  0  0
 10  7  1  0  0  0  0
 10 25  1  0  0  0  0
 11  3  1  0  0  0  0
 12  5  2  0  0  0  0
 12  9  1  0  0  0  0
 13  4  1  0  0  0  0
 13  8  2  0  0  0  0
 19 28  1  0  0  0  0
 20 14  1  0  0  0  0
 21 17  1  1  0  0  0
 21  9  1  0  0  0  0
 22  2  2  0  0  0  0
 23  4  1  0  0  0  0
 24 11  2  0  0  0  0
 25 11  1  1  0  0  0
 25 23  1  0  0  0  0
 26 15  1  0  0  0  0
 26 16  1  0  0  0  0
 27 30  1  0  0  0  0
 28 20  1  6  0  0  0
 29 19  1  6  0  0  0
 29 28  1  0  0  0  0
 29 22  1  0  0  0  0
 30 13  1  0  0  0  0
M  END
>  <MODEL>
6

>  <REMARK>
 VINA RESULT:      -7.5      2.373      5.690
  Name = 
  0 active torsions:
  status: ('A' for Active; 'I' for Inactive)
                            x       y       z     vdW  Elec       q    Type
                         _______ _______ _______ _____ _____    ______ ____

>  <TORSDO>
F 0

$$$$
=
 OpenBabel11042413453D

 30 36  0  0  1  0  0  0  0  0999 V2000
  191.1980  174.8680  143.9730 C   0  0  0  0  0  0  0  0  0  0  0  0
  193.5820  174.1760  144.4720 C   0  0  0  0  0  0  0  0  0  0  0  0
  191.3340  176.8970  147.8950 N   0  0  0  0  0  0  0  0  0  0  0  0
  190.0070  175.4720  144.4510 C   0  0  0  0  0  0  0  0  0  0  0  0
  191.2190  174.3860  142.6520 C   0  0  0  0  0  3  0  0  0  0  0  0
  187.6500  175.1690  141.0790 S   0  0  0  0  0  0  0  0  0  0  0  0
  187.1860  176.1140  145.3950 C   0  0  1  0  0  3  0  0  0  0  0  0
  188.9610  175.1430  142.2920 C   0  0  0  0  0  0  0  0  0  0  0  0
  190.0270  174.0330  140.5170 N   0  0  0  0  0  2  0  0  0  0  0  0
  187.9100  176.9210  146.4700 C   0  0  2  0  0  3  0  0  0  0  0  0
  190.1510  177.5720  147.4350 C   0  0  0  0  0  0  0  0  0  0  0  0
  190.0920  174.5110  141.8460 C   0  0  0  0  0  0  0  0  0  0  0  0
  188.8900  175.6520  143.5980 C   0  0  0  0  0  0  0  0  0  0  0  0
  194.8150  174.4650  145.1800 N   0  0  0  0  0  2  0  0  0  0  0  0
  187.1500  178.2250  146.5620 C   0  0  0  0  0  2  0  0  0  0  0  0
  185.7280  176.5410  145.5020 C   0  0  0  0  0  2  0  0  0  0  0  0
  188.1060  173.0170  139.4310 C   0  0  0  0  0  1  0  0  0  0  0  0
  193.5590  173.1060  143.5320 N   0  0  0  0  0  1  0  0  0  0  0  0
  192.2040  176.3550  147.1000 C   0  0  0  0  0  0  0  0  0  0  0  0
  194.8210  175.4910  146.2420 C   0  0  0  0  0  2  0  0  0  0  0  0
  188.7500  174.3140  139.8740 C   0  0  1  0  0  3  0  0  0  0  0  0
  192.4640  174.8960  144.7860 C   0  0  0  0  0  0  0  0  0  0  0  0
  189.9530  175.8740  145.7790 O   0  0  0  0  0  0  0  0  0  0  0  0
  189.7080  178.5440  148.1030 O   0  0  0  0  0  0  0  0  0  0  0  0
  189.4070  177.1130  146.2000 C   0  0  1  0  0  3  0  0  0  0  0  0
  185.7070  177.8600  146.2650 C   0  0  0  0  0  2  0  0  0  0  0  0
  187.3080  177.5440  143.2890 C   0  0  0  0  0  1  0  0  0  0  0  0
  193.4310  175.4540  146.8570 C   0  0  2  0  0  3  0  0  0  0  0  0
  192.7590  176.0570  145.7240 C   0  0  2  0  0  3  0  0  0  0  0  0
  187.7260  176.3690  144.0480 N   0  0  0  0  0  0  0  0  0  0  0  0
  1  4  1  0  0  0  0
  1 22  1  0  0  0  0
  2 22  2  0  0  0  0
  2 14  1  0  0  0  0
  4 23  1  0  0  0  0
  5  1  2  0  0  0  0
  6  8  1  0  0  0  0
  7 16  1  6  0  0  0
  7 10  1  0  0  0  0
  8 13  1  0  0  0  0
  9 12  1  0  0  0  0
 10 15  1  6  0  0  0
 11  3  1  0  0  0  0
 11 24  2  0  0  0  0
 12  8  2  0  0  0  0
 12  5  1  0  0  0  0
 13 30  1  0  0  0  0
 13  4  2  0  0  0  0
 14 20  1  0  0  0  0
 16 26  1  0  0  0  0
 18  2  1  0  0  0  0
 19  3  2  0  0  0  0
 21 17  1  1  0  0  0
 21  9  1  0  0  0  0
 21  6  1  0  0  0  0
 25 23  1  1  0  0  0
 25 10  1  0  0  0  0
 25 11  1  0  0  0  0
 26 15  1  0  0  0  0
 27 30  1  0  0  0  0
 28 20  1  1  0  0  0
 28 19  1  0  0  0  0
 29 22  1  6  0  0  0
 29 28  1  0  0  0  0
 29 19  1  0  0  0  0
 30  7  1  0  0  0  0
M  END
>  <MODEL>
7

>  <REMARK>
 VINA RESULT:      -7.5      2.462      5.793
  Name = 
  0 active torsions:
  status: ('A' for Active; 'I' for Inactive)
                            x       y       z     vdW  Elec       q    Type
                         _______ _______ _______ _____ _____    ______ ____

>  <TORSDO>
F 0

$$$$
=
 OpenBabel11042413453D

 30 36  0  0  1  0  0  0  0  0999 V2000
  187.9380  177.4800  146.0270 C   0  0  0  0  0  0  0  0  0  0  0  0
  185.7300  178.7150  145.9220 C   0  0  0  0  0  0  0  0  0  0  0  0
  186.7360  175.7120  142.1620 N   0  0  0  0  0  0  0  0  0  0  0  0
  188.7740  176.4840  145.4630 C   0  0  0  0  0  0  0  0  0  0  0  0
  188.4010  178.1820  147.1550 C   0  0  0  0  0  3  0  0  0  0  0  0
  192.0290  176.7760  147.9800 S   0  0  0  0  0  0  0  0  0  0  0  0
  190.4570  174.0180  144.8720 C   0  0  1  0  0  3  0  0  0  0  0  0
  190.4820  176.9710  147.1080 C   0  0  0  0  0  0  0  0  0  0  0  0
  190.1800  178.5400  148.8310 N   0  0  0  0  0  2  0  0  0  0  0  0
  189.8000  174.1060  143.4970 C   0  0  2  0  0  3  0  0  0  0  0  0
  188.1170  175.3250  142.0620 C   0  0  0  0  0  0  0  0  0  0  0  0
  189.6540  177.8960  147.6880 C   0  0  0  0  0  0  0  0  0  0  0  0
  190.0740  176.2500  145.9760 C   0  0  0  0  0  0  0  0  0  0  0  0
  184.6710  179.2570  145.0900 N   0  0  0  0  0  0  0  0  0  0  0  0
  190.9190  173.8620  142.5100 C   0  0  0  0  0  2  0  0  0  0  0  0
  191.5840  173.0070  144.7030 C   0  0  0  0  0  2  0  0  0  0  0  0
  191.5310  177.5260  150.5770 C   0  0  0  0  0  1  0  0  0  0  0  0
  185.7140  178.9810  147.3220 N   0  0  0  0  0  1  0  0  0  0  0  0
  186.3170  176.6900  142.9050 C   0  0  0  0  0  0  0  0  0  0  0  0
  184.6100  178.8900  143.6620 C   0  0  0  0  0  2  0  0  0  0  0  0
  191.5230  178.0870  149.1700 C   0  0  1  0  0  3  0  0  0  0  0  0
  186.6670  177.9070  145.3430 C   0  0  1  0  0  3  0  0  0  0  0  0
  188.2880  175.7320  144.4020 O   0  0  0  0  0  0  0  0  0  0  0  0
  188.5400  174.8610  140.9710 O   0  0  0  0  0  0  0  0  0  0  0  0
  189.0520  175.4210  143.2480 C   0  0  1  0  0  3  0  0  0  0  0  0
  191.8530  172.8900  143.2070 C   0  0  0  0  0  2  0  0  0  0  0  0
  192.2580  175.8210  144.8690 C   0  0  0  0  0  1  0  0  0  0  0  0
  185.1760  177.4820  143.5730 C   0  0  2  0  0  3  0  0  0  0  0  0
  186.5500  177.8670  143.8270 C   0  0  2  0  0  3  0  0  0  0  0  0
  190.9660  175.3230  145.3310 N   0  0  0  0  0  0  0  0  0  0  0  0
  1  5  1  0  0  0  0
  2 18  1  0  0  0  0
  3 19  2  0  0  0  0
  4 13  1  0  0  0  0
  4  1  2  0  0  0  0
  5 12  2  0  0  0  0
  6 21  1  0  0  0  0
  7 16  1  6  0  0  0
  7 30  1  0  0  0  0
  8 12  1  0  0  0  0
  8  6  1  0  0  0  0
  9 21  1  0  0  0  0
 10 15  1  6  0  0  0
 10  7  1  0  0  0  0
 11  3  1  0  0  0  0
 12  9  1  0  0  0  0
 13  8  2  0  0  0  0
 14  2  2  0  0  0  0
 15 26  1  0  0  0  0
 19 28  1  0  0  0  0
 20 14  1  0  0  0  0
 21 17  1  1  0  0  0
 22  2  1  6  0  0  0
 22  1  1  0  0  0  0
 23  4  1  0  0  0  0
 24 11  2  0  0  0  0
 25 11  1  6  0  0  0
 25 10  1  0  0  0  0
 25 23  1  0  0  0  0
 26 16  1  0  0  0  0
 27 30  1  0  0  0  0
 28 20  1  6  0  0  0
 28 29  1  0  0  0  0
 29 19  1  1  0  0  0
 29 22  1  0  0  0  0
 30 13  1  0  0  0  0
M  END
>  <MODEL>
8

>  <REMARK>
 VINA RESULT:      -7.4      2.470      5.516
  Name = 
  0 active torsions:
  status: ('A' for Active; 'I' for Inactive)
                            x       y       z     vdW  Elec       q    Type
                         _______ _______ _______ _____ _____    ______ ____

>  <TORSDO>
F 0

$$$$
=
 OpenBabel11042413453D

 30 36  0  0  1  0  0  0  0  0999 V2000
  187.7000  177.2440  145.0370 C   0  0  0  0  0  0  0  0  0  0  0  0
  185.8950  178.8630  145.7650 C   0  0  0  0  0  0  0  0  0  0  0  0
  185.6290  177.2300  141.1360 N   0  0  0  0  0  0  0  0  0  0  0  0
  188.1740  176.3590  144.0360 C   0  0  0  0  0  0  0  0  0  0  0  0
  188.4600  177.3940  146.2110 C   0  0  0  0  0  3  0  0  0  0  0  0
  191.6670  175.0730  145.8160 S   0  0  0  0  0  0  0  0  0  0  0  0
  189.0730  173.9660  142.3840 C   0  0  1  0  0  3  0  0  0  0  0  0
  190.1330  175.8760  145.3750 C   0  0  0  0  0  0  0  0  0  0  0  0
  190.4570  176.7670  147.5250 N   0  0  0  0  0  2  0  0  0  0  0  0
  188.3030  174.6630  141.2640 C   0  0  2  0  0  3  0  0  0  0  0  0
  186.8390  176.6270  140.6470 C   0  0  0  0  0  0  0  0  0  0  0  0
  189.6490  176.6880  146.3680 C   0  0  0  0  0  0  0  0  0  0  0  0
  189.4190  175.6980  144.1800 C   0  0  0  0  0  0  0  0  0  0  0  0
  184.9240  179.8670  145.3720 N   0  0  0  0  0  2  0  0  0  0  0  0
  189.1950  174.5560  140.0480 C   0  0  0  0  0  2  0  0  0  0  0  0
  189.8690  172.8700  141.6860 C   0  0  0  0  0  2  0  0  0  0  0  0
  191.6930  174.9510  148.5610 C   0  0  0  0  0  1  0  0  0  0  0  0
  186.1150  178.6190  147.1510 N   0  0  0  0  0  1  0  0  0  0  0  0
  185.5720  177.9480  142.2140 C   0  0  0  0  0  0  0  0  0  0  0  0
  184.6000  180.0450  143.9430 C   0  0  0  0  0  2  0  0  0  0  0  0
  191.6650  175.9590  147.4300 C   0  0  1  0  0  3  0  0  0  0  0  0
  186.5130  178.1350  144.7890 C   0  0  0  0  0  0  0  0  0  0  0  0
  187.3870  176.1440  142.9130 O   0  0  0  0  0  0  0  0  0  0  0  0
  186.9950  176.4980  139.4040 O   0  0  0  0  0  0  0  0  0  0  0  0
  187.9010  176.1060  141.5920 C   0  0  1  0  0  3  0  0  0  0  0  0
  189.9180  173.2320  140.2060 C   0  0  0  0  0  2  0  0  0  0  0  0
  191.2690  175.2440  142.5830 C   0  0  0  0  0  1  0  0  0  0  0  0
  184.7650  178.6730  143.3100 C   0  0  2  0  0  3  0  0  0  0  0  0
  186.2110  178.6530  143.3910 C   0  0  2  0  0  3  0  0  0  0  0  0
  189.9550  174.8930  143.1140 N   0  0  0  0  0  0  0  0  0  0  0  0
  1  5  1  0  0  0  0
  2 18  1  0  0  0  0
  3 19  2  0  0  0  0
  4 13  1  0  0  0  0
  4  1  2  0  0  0  0
  5 12  2  0  0  0  0
  6 21  1  0  0  0  0
  7 16  1  6  0  0  0
  7 30  1  0  0  0  0
  8  6  1  0  0  0  0
  8 12  1  0  0  0  0
 10 15  1  6  0  0  0
 10 25  1  0  0  0  0
 10  7  1  0  0  0  0
 11  3  1  0  0  0  0
 12  9  1  0  0  0  0
 13  8  2  0  0  0  0
 14  2  1  0  0  0  0
 15 26  1  0  0  0  0
 19 28  1  0  0  0  0
 20 14  1  0  0  0  0
 21  9  1  0  0  0  0
 21 17  1  1  0  0  0
 22  1  1  0  0  0  0
 22  2  2  0  0  0  0
 23  4  1  0  0  0  0
 24 11  2  0  0  0  0
 25 11  1  6  0  0  0
 25 23  1  0  0  0  0
 26 16  1  0  0  0  0
 27 30  1  0  0  0  0
 28 29  1  0  0  0  0
 28 20  1  6  0  0  0
 29 19  1  6  0  0  0
 29 22  1  0  0  0  0
 30 13  1  0  0  0  0
M  END
>  <MODEL>
9

>  <REMARK>
 VINA RESULT:      -7.2      1.840      5.201
  Name = 
  0 active torsions:
  status: ('A' for Active; 'I' for Inactive)
                            x       y       z     vdW  Elec       q    Type
                         _______ _______ _______ _____ _____    ______ ____

>  <TORSDO>
F 0

$$$$
