=
 OpenBabel11042418033D

 57 61  0  0  1  0  0  0  0  0999 V2000
  193.5490  172.3710  144.8510 C   0  0  0  0  0  3  0  0  0  0  0  0
  192.2780  172.1000  144.5300 C   0  0  0  0  0  3  0  0  0  0  0  0
  191.8820  171.3360  143.3040 C   0  0  0  0  0  2  0  0  0  0  0  0
  191.7480  172.2350  142.0840 C   0  0  1  0  0  3  0  0  0  0  0  0
  191.4540  171.4510  140.9670 O   0  0  0  0  0  1  0  0  0  0  0  0
  191.8030  175.0550  141.3240 F   0  0  0  0  0  0  0  0  0  0  0  0
  188.7950  175.3850  141.8050 C   0  0  0  0  0  2  0  0  0  0  0  0
  189.9580  175.6190  142.7400 C   0  0  2  0  0  3  0  0  0  0  0  0
  188.6520  174.2400  141.1320 C   0  0  0  0  0  3  0  0  0  0  0  0
  190.6200  173.2320  142.3310 C   0  0  2  0  0  3  0  0  0  0  0  0
  189.6090  173.1790  141.2770 N   0  0  0  0  0  0  0  0  0  0  0  0
  191.1410  174.6660  142.4760 C   0  0  1  0  0  3  0  0  0  0  0  0
  189.4960  175.7700  144.2060 C   0  0  2  0  0  3  0  0  0  0  0  0
  188.7960  177.0920  144.4910 C   0  0  2  0  0  3  0  0  0  0  0  0
  190.2510  176.8750  144.9320 C   0  0  1  0  0  3  0  0  0  0  0  0
  189.9680  177.7040  147.6730 O   0  0  0  0  0  1  0  0  0  0  0  0
  190.5100  176.4360  146.6940 P   0  0  1  0  0  0  0  0  0  0  0  0
  189.7690  175.1650  147.0560 O   0  0  0  0  0  0  0  0  0  0  0  0
  192.2880  176.1880  146.9720 C   0  0  0  0  0  2  0  0  0  0  0  0
  194.4540  176.0660  145.8390 C   0  0  0  0  0  2  0  0  0  0  0  0
  192.9950  176.0330  145.6420 C   0  0  2  0  0  3  0  0  0  0  0  0
  193.7470  177.1890  145.3850 O   0  0  0  0  0  0  0  0  0  0  0  0
  187.7300  176.9000  145.5630 C   0  0  0  0  0  2  0  0  0  0  0  0
  186.4400  177.6100  145.1680 C   0  0  2  0  0  3  0  0  0  0  0  0
  185.3740  177.1780  145.9670 O   0  0  0  0  0  0  0  0  0  0  0  0
  185.0610  178.2800  146.7700 C   0  0  0  0  0  1  0  0  0  0  0  0
  186.1270  177.3810  143.6880 C   0  0  0  0  0  2  0  0  0  0  0  0
  185.6840  178.6270  142.9950 C   0  0  0  0  0  0  0  0  0  0  0  0
  185.4540  178.6150  141.7600 O   0  0  0  0  0  0  0  0  0  0  0  0
  185.5690  179.8110  143.7080 O   0  0  0  0  0  1  0  0  0  0  0  0
  194.9580  171.7820  143.8960 S   0  0  0  0  0  0  0  0  0  0  0  0
  195.8140  173.4000  143.7680 C   0  0  2  0  0  3  0  0  0  0  0  0
  195.9860  175.4160  139.9120 C   0  0  0  0  0  2  0  0  0  0  0  0
  195.1200  175.4350  142.2710 C   0  0  0  0  0  2  0  0  0  0  0  0
  194.8280  175.8230  140.8220 C   0  0  0  0  0  2  0  0  0  0  0  0
  196.1700  173.8960  139.9600 C   0  0  1  0  0  3  0  0  0  0  0  0
  195.7470  174.0640  142.4240 C   0  0  0  0  0  0  0  0  0  0  0  0
  196.2790  173.4080  141.3790 C   0  0  0  0  0  3  0  0  0  0  0  0
  195.0020  173.1800  139.2940 C   0  0  0  0  0  2  0  0  0  0  0  0
  194.9470  173.4700  137.7980 C   0  0  0  0  0  2  0  0  0  0  0  0
  192.5190  173.3940  138.2420 C   0  0  0  0  0  1  0  0  0  0  0  0
  193.5700  173.1410  137.1620 C   0  0  2  0  0  0  0  0  0  0  0  0
  195.0810  169.9710  137.2520 C   0  0  0  0  0  2  0  0  0  0  0  0
  192.9350  170.8270  137.7020 O   0  0  0  0  0  0  0  0  0  0  0  0
  193.7000  169.6510  137.7440 C   0  0  0  0  0  2  0  0  0  0  0  0
  193.4670  171.6410  136.6740 C   0  0  2  0  0  0  0  0  0  0  0  0
  194.8400  171.0920  136.3000 C   0  0  0  0  0  2  0  0  0  0  0  0
  192.5950  171.5140  135.4100 C   0  0  0  0  0  2  0  0  0  0  0  0
  190.1370  171.6130  135.1550 C   0  0  0  0  0  1  0  0  0  0  0  0
  191.3070  169.4700  134.8110 C   0  0  0  0  0  1  0  0  0  0  0  0
  191.2910  170.7530  135.6170 C   0  0  0  0  0  3  0  0  0  0  0  0
  193.2630  174.0580  136.1210 O   0  0  0  0  0  0  0  0  0  0  0  0
  193.3010  176.4390  136.2070 C   0  0  0  0  0  1  0  0  0  0  0  0
  192.5710  175.1770  136.6160 C   0  0  0  0  0  2  0  0  0  0  0  0
  197.7210  174.4750  144.7550 O   0  0  0  0  0  1  0  0  0  0  0  0
  197.8810  172.2110  144.4950 O   0  0  0  0  0  0  0  0  0  0  0  0
  197.1840  173.4020  144.3770 C   0  0  0  0  0  0  0  0  0  0  0  0
  2  1  2  0  0  0  0
  3  2  1  0  0  0  0
  4  5  1  6  0  0  0
  4  3  1  0  0  0  0
  8  7  1  6  0  0  0
  9 11  2  0  0  0  0
  9  7  1  0  0  0  0
 10  4  1  6  0  0  0
 10 12  1  0  0  0  0
 11 10  1  0  0  0  0
 12  6  1  6  0  0  0
 12  8  1  0  0  0  0
 13  8  1  6  0  0  0
 13 14  1  0  0  0  0
 13 15  1  0  0  0  0
 14 15  1  0  0  0  0
 14 23  1  1  0  0  0
 15 17  1  1  0  0  0
 17 19  1  0  0  0  0
 17 18  2  1  0  0  0
 17 16  1  0  0  0  0
 21 20  1  0  0  0  0
 21 19  1  1  0  0  0
 22 21  1  0  0  0  0
 22 20  1  0  0  0  0
 24 27  1  6  0  0  0
 24 23  1  0  0  0  0
 24 25  1  0  0  0  0
 25 26  1  0  0  0  0
 28 27  1  0  0  0  0
 28 30  1  0  0  0  0
 29 28  2  0  0  0  0
 31  1  1  0  0  0  0
 32 31  1  6  0  0  0
 32 57  1  0  0  0  0
 33 36  1  0  0  0  0
 33 35  1  0  0  0  0
 34 37  1  0  0  0  0
 35 34  1  0  0  0  0
 36 39  1  1  0  0  0
 36 38  1  0  0  0  0
 37 32  1  0  0  0  0
 38 37  2  0  0  0  0
 40 39  1  0  0  0  0
 42 40  1  0  0  0  0
 42 41  1  1  0  0  0
 43 45  1  0  0  0  0
 44 45  1  0  0  0  0
 46 48  1  6  0  0  0
 46 42  1  0  0  0  0
 46 44  1  0  0  0  0
 47 46  1  0  0  0  0
 47 43  1  0  0  0  0
 48 51  1  0  0  0  0
 49 51  1  0  0  0  0
 50 51  1  0  0  0  0
 52 54  1  0  0  0  0
 52 42  1  0  0  0  0
 53 54  1  0  0  0  0
 57 56  2  0  0  0  0
 57 55  1  0  0  0  0
M  END
>  <MODEL>
1

>  <REMARK>
 VINA RESULT:      -5.3      0.000      0.000
  Name = 
  24 active torsions:
  status: ('A' for Active; 'I' for Inactive)
    1  A    between atoms: C_1  and  C_29
    2  A    between atoms: C_5  and  C_18
    3  A    between atoms: C_5  and  C_34
    4  A    between atoms: C_7  and  C_15
    5  A    between atoms: C_7  and  C_27
    6  A    between atoms: S_11  and  C_13
    7  A    between atoms: S_11  and  C_52
    8  A    between atoms: C_15  and  C_55
    9  A    between atoms: C_16  and  O_38
   10  A    between atoms: P_17  and  C_44
   11  A    between atoms: P_17  and  C_57
   12  A    between atoms: C_18  and  C_41
   13  A    between atoms: O_19  and  C_30
   14  A    between atoms: C_23  and  C_25
   15  A    between atoms: C_28  and  C_39
   16  A    between atoms: C_29  and  C_30
   17  A    between atoms: C_30  and  C_39
   18  A    between atoms: C_31  and  C_52
   19  A    between atoms: C_37  and  C_42
   20  A    between atoms: O_38  and  C_55
   21  A    between atoms: C_42  and  C_54
   22  A    between atoms: C_46  and  C_57
   23  A    between atoms: C_48  and  C_52
   24  A    between atoms: C_54  and  C_55
                            x       y       z     vdW  Elec       q    Type
                         _______ _______ _______ _____ _____    ______ ____

>  <TORSDO>
F 24

$$$$
=
 OpenBabel11042418033D

 57 61  0  0  1  0  0  0  0  0999 V2000
  188.4360  177.6720  146.5880 C   0  0  0  0  0  3  0  0  0  0  0  0
  189.6570  177.6890  146.0410 C   0  0  0  0  0  3  0  0  0  0  0  0
  190.2660  176.5110  145.3450 C   0  0  0  0  0  2  0  0  0  0  0  0
  191.1080  175.6600  146.2850 C   0  0  1  0  0  3  0  0  0  0  0  0
  190.4790  174.4270  146.4700 O   0  0  0  0  0  1  0  0  0  0  0  0
  192.5930  177.6830  144.7910 F   0  0  0  0  0  0  0  0  0  0  0  0
  195.1840  176.0510  144.8900 C   0  0  0  0  0  3  0  0  0  0  0  0
  194.0980  176.0820  143.8420 C   0  0  2  0  0  3  0  0  0  0  0  0
  194.9100  175.8600  146.1840 C   0  0  0  0  0  3  0  0  0  0  0  0
  192.4840  175.4540  145.6600 C   0  0  2  0  0  3  0  0  0  0  0  0
  193.5570  175.6740  146.6270 N   0  0  0  0  0  2  0  0  0  0  0  0
  192.6990  176.3490  144.4350 C   0  0  1  0  0  3  0  0  0  0  0  0
  194.2220  174.9050  142.8490 C   0  0  2  0  0  3  0  0  0  0  0  0
  194.9600  173.7020  143.4210 C   0  0  2  0  0  3  0  0  0  0  0  0
  195.6670  174.6510  142.4420 C   0  0  1  0  0  3  0  0  0  0  0  0
  197.1200  174.7850  139.9620 O   0  0  0  0  0  0  0  0  0  0  0  0
  195.7610  174.0960  140.6960 P   0  0  1  0  0  0  0  0  0  0  0  0
  195.8490  172.5860  140.6060 O   0  0  0  0  0  1  0  0  0  0  0  0
  194.2670  174.6580  139.8300 C   0  0  0  0  0  2  0  0  0  0  0  0
  194.7350  175.2050  137.4910 C   0  0  0  0  0  2  0  0  0  0  0  0
  194.2800  174.1450  138.4060 C   0  0  2  0  0  3  0  0  0  0  0  0
  193.3760  174.8960  137.6400 O   0  0  0  0  0  0  0  0  0  0  0  0
  194.4020  172.4140  142.8290 C   0  0  0  0  0  2  0  0  0  0  0  0
  194.8630  171.2090  143.6390 C   0  0  2  0  0  3  0  0  0  0  0  0
  193.8550  170.2370  143.6970 O   0  0  0  0  0  0  0  0  0  0  0  0
  192.7910  170.8640  144.3530 C   0  0  0  0  0  1  0  0  0  0  0  0
  195.2810  171.6300  145.0490 C   0  0  0  0  0  2  0  0  0  0  0  0
  196.1850  170.6370  145.7020 C   0  0  0  0  0  0  0  0  0  0  0  0
  197.4130  170.6320  145.4380 O   0  0  0  0  0  0  0  0  0  0  0  0
  195.6600  169.6910  146.5700 O   0  0  0  0  0  1  0  0  0  0  0  0
  187.3270  176.2560  146.4900 S   0  0  0  0  0  0  0  0  0  0  0  0
  186.0010  177.0960  145.5380 C   0  0  2  0  0  3  0  0  0  0  0  0
  186.8470  177.6560  141.3040 C   0  0  0  0  0  2  0  0  0  0  0  0
  185.1390  177.7220  143.1450 C   0  0  0  0  0  2  0  0  0  0  0  0
  185.3790  177.4360  141.6630 C   0  0  0  0  0  2  0  0  0  0  0  0
  187.7260  176.6950  142.1120 C   0  0  1  0  0  3  0  0  0  0  0  0
  186.2220  177.1810  144.0560 C   0  0  0  0  0  0  0  0  0  0  0  0
  187.4140  176.7830  143.5810 C   0  0  0  0  0  3  0  0  0  0  0  0
  187.5210  175.2540  141.6610 C   0  0  0  0  0  2  0  0  0  0  0  0
  188.5110  174.8620  140.5710 C   0  0  0  0  0  2  0  0  0  0  0  0
  190.6860  174.5910  141.7080 C   0  0  0  0  0  1  0  0  0  0  0  0
  189.5530  173.8120  141.0410 C   0  0  2  0  0  0  0  0  0  0  0  0
  188.9490  172.5930  137.8020 C   0  0  0  0  0  2  0  0  0  0  0  0
  190.6710  173.8100  138.8500 O   0  0  0  0  0  0  0  0  0  0  0  0
  190.2510  173.3130  137.6060 C   0  0  0  0  0  2  0  0  0  0  0  0
  190.1390  172.9580  139.8470 C   0  0  2  0  0  0  0  0  0  0  0  0
  189.0530  172.1000  139.2040 C   0  0  0  0  0  2  0  0  0  0  0  0
  191.2290  171.9810  140.3280 C   0  0  0  0  0  2  0  0  0  0  0  0
  191.9330  169.8290  139.3320 C   0  0  0  0  0  1  0  0  0  0  0  0
  190.8080  169.8420  141.5270 C   0  0  0  0  0  1  0  0  0  0  0  0
  190.8720  170.5080  140.1690 C   0  0  0  0  0  3  0  0  0  0  0  0
  189.0140  172.9880  142.0650 O   0  0  0  0  0  0  0  0  0  0  0  0
  189.3180  172.0210  144.2220 C   0  0  0  0  0  1  0  0  0  0  0  0
  189.7600  173.0960  143.2510 C   0  0  0  0  0  2  0  0  0  0  0  0
  184.8450  178.3830  147.2030 O   0  0  0  0  0  1  0  0  0  0  0  0
  185.8670  179.5850  145.5510 O   0  0  0  0  0  0  0  0  0  0  0  0
  185.5440  178.3820  146.1570 C   0  0  0  0  0  0  0  0  0  0  0  0
  2  1  2  0  0  0  0
  3  2  1  0  0  0  0
  3  4  1  0  0  0  0
  4  5  1  6  0  0  0
  7  9  2  0  0  0  0
  8 12  1  0  0  0  0
  8  7  1  1  0  0  0
  9 11  1  0  0  0  0
 10  4  1  1  0  0  0
 10 11  1  0  0  0  0
 12  6  1  1  0  0  0
 12 10  1  0  0  0  0
 13 14  1  0  0  0  0
 13  8  1  1  0  0  0
 14 23  1  6  0  0  0
 15 17  1  6  0  0  0
 15 13  1  0  0  0  0
 15 14  1  0  0  0  0
 17 16  2  6  0  0  0
 18 17  1  0  0  0  0
 19 17  1  0  0  0  0
 20 22  1  0  0  0  0
 20 21  1  0  0  0  0
 21 19  1  1  0  0  0
 22 21  1  0  0  0  0
 24 23  1  6  0  0  0
 24 25  1  0  0  0  0
 24 27  1  0  0  0  0
 25 26  1  0  0  0  0
 27 28  1  0  0  0  0
 28 30  1  0  0  0  0
 29 28  2  0  0  0  0
 31  1  1  0  0  0  0
 32 57  1  1  0  0  0
 32 31  1  0  0  0  0
 33 35  1  0  0  0  0
 33 36  1  0  0  0  0
 34 37  1  0  0  0  0
 35 34  1  0  0  0  0
 36 39  1  6  0  0  0
 36 38  1  0  0  0  0
 37 32  1  0  0  0  0
 38 37  2  0  0  0  0
 40 42  1  0  0  0  0
 40 39  1  0  0  0  0
 42 41  1  1  0  0  0
 42 52  1  0  0  0  0
 43 47  1  0  0  0  0
 44 46  1  0  0  0  0
 45 43  1  0  0  0  0
 45 44  1  0  0  0  0
 46 48  1  1  0  0  0
 46 42  1  0  0  0  0
 47 46  1  0  0  0  0
 49 51  1  0  0  0  0
 51 48  1  0  0  0  0
 51 50  1  0  0  0  0
 52 54  1  0  0  0  0
 54 53  1  0  0  0  0
 56 57  2  0  0  0  0
 57 55  1  0  0  0  0
M  END
>  <MODEL>
2

>  <REMARK>
 VINA RESULT:      -5.1      2.959      8.588
  Name = 
  24 active torsions:
  status: ('A' for Active; 'I' for Inactive)
    1  A    between atoms: C_1  and  C_29
    2  A    between atoms: C_5  and  C_18
    3  A    between atoms: C_5  and  C_34
    4  A    between atoms: C_7  and  C_15
    5  A    between atoms: C_7  and  C_27
    6  A    between atoms: S_11  and  C_13
    7  A    between atoms: S_11  and  C_52
    8  A    between atoms: C_15  and  C_55
    9  A    between atoms: C_16  and  O_38
   10  A    between atoms: P_17  and  C_44
   11  A    between atoms: P_17  and  C_57
   12  A    between atoms: C_18  and  C_41
   13  A    between atoms: O_19  and  C_30
   14  A    between atoms: C_23  and  C_25
   15  A    between atoms: C_28  and  C_39
   16  A    between atoms: C_29  and  C_30
   17  A    between atoms: C_30  and  C_39
   18  A    between atoms: C_31  and  C_52
   19  A    between atoms: C_37  and  C_42
   20  A    between atoms: O_38  and  C_55
   21  A    between atoms: C_42  and  C_54
   22  A    between atoms: C_46  and  C_57
   23  A    between atoms: C_48  and  C_52
   24  A    between atoms: C_54  and  C_55
                            x       y       z     vdW  Elec       q    Type
                         _______ _______ _______ _____ _____    ______ ____

>  <TORSDO>
F 24

$$$$
=
 OpenBabel11042418033D

 57 61  0  0  1  0  0  0  0  0999 V2000
  192.8910  171.4810  141.6170 C   0  0  0  0  0  3  0  0  0  0  0  0
  194.1730  171.1110  141.5040 C   0  0  0  0  0  3  0  0  0  0  0  0
  194.6290  169.6860  141.5640 C   0  0  0  0  0  2  0  0  0  0  0  0
  194.9850  169.2550  142.9800 C   0  0  1  0  0  3  0  0  0  0  0  0
  195.8940  168.1980  142.9210 O   0  0  0  0  0  1  0  0  0  0  0  0
  194.6340  169.8540  145.8170 F   0  0  0  0  0  0  0  0  0  0  0  0
  196.9210  171.8930  145.8100 C   0  0  0  0  0  2  0  0  0  0  0  0
  195.4410  172.0960  145.5890 C   0  0  2  0  0  3  0  0  0  0  0  0
  197.6160  170.9770  145.1290 C   0  0  0  0  0  3  0  0  0  0  0  0
  195.6110  170.4390  143.7100 C   0  0  2  0  0  3  0  0  0  0  0  0
  196.9730  170.1470  144.1510 N   0  0  0  0  0  0  0  0  0  0  0  0
  194.7650  170.8890  144.9060 C   0  0  1  0  0  3  0  0  0  0  0  0
  195.1330  173.4920  145.0040 C   0  0  2  0  0  3  0  0  0  0  0  0
  196.3730  174.3520  144.7950 C   0  0  2  0  0  3  0  0  0  0  0  0
  195.4460  174.6070  145.9930 C   0  0  1  0  0  3  0  0  0  0  0  0
  193.5330  176.3030  147.3140 O   0  0  0  0  0  1  0  0  0  0  0  0
  194.2490  175.9860  145.8150 P   0  0  1  0  0  0  0  0  0  0  0  0
  194.9300  177.2390  145.3050 O   0  0  0  0  0  0  0  0  0  0  0  0
  192.9630  175.4860  144.6350 C   0  0  0  0  0  2  0  0  0  0  0  0
  191.8340  176.1410  142.5640 C   0  0  0  0  0  2  0  0  0  0  0  0
  192.7030  176.6120  143.6560 C   0  0  2  0  0  3  0  0  0  0  0  0
  193.2220  176.2580  142.4020 O   0  0  0  0  0  0  0  0  0  0  0  0
  196.1820  175.2610  143.5880 C   0  0  0  0  0  2  0  0  0  0  0  0
  196.8730  174.6740  142.3620 C   0  0  2  0  0  3  0  0  0  0  0  0
  197.9400  175.4870  141.9590 O   0  0  0  0  0  0  0  0  0  0  0  0
  197.7910  176.6650  142.6980 C   0  0  0  0  0  1  0  0  0  0  0  0
  195.8780  174.4890  141.2150 C   0  0  0  0  0  2  0  0  0  0  0  0
  196.4510  173.7100  140.0770 C   0  0  0  0  0  0  0  0  0  0  0  0
  196.1230  173.9840  138.8960 O   0  0  0  0  0  0  0  0  0  0  0  0
  197.3130  172.6530  140.3280 O   0  0  0  0  0  1  0  0  0  0  0  0
  191.5330  170.3080  141.7720 S   0  0  0  0  0  0  0  0  0  0  0  0
  190.3020  171.5000  142.4280 C   0  0  2  0  0  3  0  0  0  0  0  0
  188.5050  174.0890  139.4230 C   0  0  0  0  0  2  0  0  0  0  0  0
  190.5360  172.8150  140.1740 C   0  0  0  0  0  2  0  0  0  0  0  0
  190.0320  174.0600  139.4460 C   0  0  0  0  0  2  0  0  0  0  0  0
  187.9680  174.1380  140.8570 C   0  0  1  0  0  3  0  0  0  0  0  0
  189.7620  172.4870  141.4350 C   0  0  0  0  0  0  0  0  0  0  0  0
  188.5680  173.0440  141.6970 C   0  0  0  0  0  3  0  0  0  0  0  0
  188.2810  175.4770  141.5140 C   0  0  0  0  0  2  0  0  0  0  0  0
  187.0290  176.1210  142.0980 C   0  0  0  0  0  2  0  0  0  0  0  0
  188.7630  177.7870  142.6580 C   0  0  0  0  0  1  0  0  0  0  0  0
  187.3350  177.3560  142.9870 C   0  0  2  0  0  0  0  0  0  0  0  0
  185.7820  178.2390  146.0120 C   0  0  0  0  0  2  0  0  0  0  0  0
  186.0810  176.2480  144.7910 O   0  0  0  0  0  0  0  0  0  0  0  0
  185.4610  176.7750  145.9340 C   0  0  0  0  0  2  0  0  0  0  0  0
  187.2280  177.0360  144.5310 C   0  0  2  0  0  0  0  0  0  0  0  0
  187.1150  178.3190  145.3490 C   0  0  0  0  0  2  0  0  0  0  0  0
  188.4830  176.3070  145.0480 C   0  0  0  0  0  2  0  0  0  0  0  0
  188.7320  175.0790  147.1810 C   0  0  0  0  0  1  0  0  0  0  0  0
  190.0610  177.1200  146.7930 C   0  0  0  0  0  1  0  0  0  0  0  0
  188.7250  176.4510  146.5460 C   0  0  0  0  0  3  0  0  0  0  0  0
  186.5180  178.4580  142.6180 O   0  0  0  0  0  0  0  0  0  0  0  0
  184.1400  178.3100  142.6210 C   0  0  0  0  0  1  0  0  0  0  0  0
  185.4170  178.0420  141.8510 C   0  0  0  0  0  2  0  0  0  0  0  0
  191.9140  172.2880  144.0240 O   0  0  0  0  0  0  0  0  0  0  0  0
  189.7250  172.4690  144.6520 O   0  0  0  0  0  1  0  0  0  0  0  0
  190.7020  172.1150  143.7350 C   0  0  0  0  0  0  0  0  0  0  0  0
  1 31  1  0  0  0  0
  2  3  1  0  0  0  0
  2  1  2  0  0  0  0
  3  4  1  0  0  0  0
  4  5  1  6  0  0  0
  8  7  1  6  0  0  0
  9  7  1  0  0  0  0
 10  4  1  1  0  0  0
 10 11  1  0  0  0  0
 10 12  1  0  0  0  0
 11  9  2  0  0  0  0
 12  8  1  0  0  0  0
 12  6  1  1  0  0  0
 13  8  1  1  0  0  0
 13 15  1  0  0  0  0
 14 23  1  6  0  0  0
 14 13  1  0  0  0  0
 14 15  1  0  0  0  0
 15 17  1  6  0  0  0
 17 18  2  6  0  0  0
 17 16  1  0  0  0  0
 19 17  1  0  0  0  0
 20 21  1  0  0  0  0
 21 19  1  1  0  0  0
 22 20  1  0  0  0  0
 22 21  1  0  0  0  0
 24 27  1  6  0  0  0
 24 23  1  0  0  0  0
 25 24  1  0  0  0  0
 25 26  1  0  0  0  0
 28 30  1  0  0  0  0
 28 27  1  0  0  0  0
 29 28  2  0  0  0  0
 32 31  1  6  0  0  0
 32 57  1  0  0  0  0
 33 35  1  0  0  0  0
 33 36  1  0  0  0  0
 34 37  1  0  0  0  0
 35 34  1  0  0  0  0
 36 39  1  1  0  0  0
 36 38  1  0  0  0  0
 37 38  2  0  0  0  0
 37 32  1  0  0  0  0
 39 40  1  0  0  0  0
 40 42  1  0  0  0  0
 42 41  1  6  0  0  0
 42 46  1  0  0  0  0
 44 45  1  0  0  0  0
 45 43  1  0  0  0  0
 46 44  1  0  0  0  0
 46 48  1  1  0  0  0
 46 47  1  0  0  0  0
 47 43  1  0  0  0  0
 48 51  1  0  0  0  0
 51 50  1  0  0  0  0
 51 49  1  0  0  0  0
 52 42  1  0  0  0  0
 54 52  1  0  0  0  0
 54 53  1  0  0  0  0
 57 55  2  0  0  0  0
 57 56  1  0  0  0  0
M  END
>  <MODEL>
3

>  <REMARK>
 VINA RESULT:      -5.0      3.268      8.945
  Name = 
  24 active torsions:
  status: ('A' for Active; 'I' for Inactive)
    1  A    between atoms: C_1  and  C_29
    2  A    between atoms: C_5  and  C_18
    3  A    between atoms: C_5  and  C_34
    4  A    between atoms: C_7  and  C_15
    5  A    between atoms: C_7  and  C_27
    6  A    between atoms: S_11  and  C_13
    7  A    between atoms: S_11  and  C_52
    8  A    between atoms: C_15  and  C_55
    9  A    between atoms: C_16  and  O_38
   10  A    between atoms: P_17  and  C_44
   11  A    between atoms: P_17  and  C_57
   12  A    between atoms: C_18  and  C_41
   13  A    between atoms: O_19  and  C_30
   14  A    between atoms: C_23  and  C_25
   15  A    between atoms: C_28  and  C_39
   16  A    between atoms: C_29  and  C_30
   17  A    between atoms: C_30  and  C_39
   18  A    between atoms: C_31  and  C_52
   19  A    between atoms: C_37  and  C_42
   20  A    between atoms: O_38  and  C_55
   21  A    between atoms: C_42  and  C_54
   22  A    between atoms: C_46  and  C_57
   23  A    between atoms: C_48  and  C_52
   24  A    between atoms: C_54  and  C_55
                            x       y       z     vdW  Elec       q    Type
                         _______ _______ _______ _____ _____    ______ ____

>  <TORSDO>
F 24

$$$$
=
 OpenBabel11042418033D

 57 61  0  0  1  0  0  0  0  0999 V2000
  189.8070  174.5430  145.7660 C   0  0  0  0  0  3  0  0  0  0  0  0
  191.0980  174.5970  145.4170 C   0  0  0  0  0  3  0  0  0  0  0  0
  192.2090  174.8190  146.3970 C   0  0  0  0  0  2  0  0  0  0  0  0
  193.2230  175.8370  145.8960 C   0  0  1  0  0  3  0  0  0  0  0  0
  193.7090  176.5690  146.9810 O   0  0  0  0  0  1  0  0  0  0  0  0
  195.5550  177.1050  144.6780 F   0  0  0  0  0  0  0  0  0  0  0  0
  197.0630  174.4460  144.4710 C   0  0  0  0  0  3  0  0  0  0  0  0
  196.1700  175.1350  143.4660 C   0  0  2  0  0  3  0  0  0  0  0  0
  196.6710  174.2280  145.7300 C   0  0  0  0  0  3  0  0  0  0  0  0
  194.3670  175.0950  145.2140 C   0  0  2  0  0  3  0  0  0  0  0  0
  195.3710  174.6430  146.1750 N   0  0  0  0  0  2  0  0  0  0  0  0
  195.0360  175.9450  144.1280 C   0  0  1  0  0  3  0  0  0  0  0  0
  195.7720  174.1920  142.3090 C   0  0  2  0  0  3  0  0  0  0  0  0
  196.5100  172.8600  142.3270 C   0  0  2  0  0  3  0  0  0  0  0  0
  196.9220  173.9620  141.3390 C   0  0  1  0  0  3  0  0  0  0  0  0
  196.8920  172.3520  138.9540 O   0  0  0  0  0  0  0  0  0  0  0  0
  196.2980  173.7880  139.6220 P   0  0  1  0  0  0  0  0  0  0  0  0
  194.7840  173.7740  139.5890 O   0  0  0  0  0  1  0  0  0  0  0  0
  196.9030  175.1940  138.6440 C   0  0  0  0  0  2  0  0  0  0  0  0
  197.0380  175.9060  136.3060 C   0  0  0  0  0  2  0  0  0  0  0  0
  197.1470  174.7530  137.2160 C   0  0  2  0  0  3  0  0  0  0  0  0
  195.9890  174.9880  136.4590 O   0  0  0  0  0  0  0  0  0  0  0  0
  195.6150  171.7580  141.7750 C   0  0  0  0  0  2  0  0  0  0  0  0
  195.6430  170.5390  142.6900 C   0  0  2  0  0  3  0  0  0  0  0  0
  196.0460  169.3990  141.9830 O   0  0  0  0  0  0  0  0  0  0  0  0
  195.1630  168.3940  142.3900 C   0  0  0  0  0  1  0  0  0  0  0  0
  194.2740  170.3130  143.3340 C   0  0  0  0  0  2  0  0  0  0  0  0
  194.0790  171.1240  144.5720 C   0  0  0  0  0  0  0  0  0  0  0  0
  193.0440  171.8220  144.7120 O   0  0  0  0  0  0  0  0  0  0  0  0
  195.0620  171.1400  145.5500 O   0  0  0  0  0  1  0  0  0  0  0  0
  189.2370  174.6470  147.4710 S   0  0  0  0  0  0  0  0  0  0  0  0
  188.8290  176.4360  147.4460 C   0  0  2  0  0  3  0  0  0  0  0  0
  185.5160  177.9170  145.0380 C   0  0  0  0  0  2  0  0  0  0  0  0
  186.2430  176.6440  147.0790 C   0  0  0  0  0  2  0  0  0  0  0  0
  185.1860  176.7620  145.9820 C   0  0  0  0  0  2  0  0  0  0  0  0
  186.8650  177.6590  144.3590 C   0  0  1  0  0  3  0  0  0  0  0  0
  187.6630  176.8220  146.5820 C   0  0  0  0  0  0  0  0  0  0  0  0
  187.9310  177.3470  145.3750 C   0  0  0  0  0  3  0  0  0  0  0  0
  186.7740  176.4930  143.3830 C   0  0  0  0  0  2  0  0  0  0  0  0
  188.0990  175.7490  143.2740 C   0  0  0  0  0  2  0  0  0  0  0  0
  187.6600  176.4500  140.9480 C   0  0  0  0  0  1  0  0  0  0  0  0
  188.6970  175.7730  141.8420 C   0  0  2  0  0  0  0  0  0  0  0  0
  187.6960  172.4050  141.8690 C   0  0  0  0  0  2  0  0  0  0  0  0
  188.1300  174.0200  140.2110 O   0  0  0  0  0  0  0  0  0  0  0  0
  187.6790  172.7040  140.3980 C   0  0  0  0  0  2  0  0  0  0  0  0
  189.0010  174.3250  141.2840 C   0  0  2  0  0  0  0  0  0  0  0  0
  188.8040  173.2690  142.3670 C   0  0  0  0  0  2  0  0  0  0  0  0
  190.4630  174.1920  140.8160 C   0  0  0  0  0  2  0  0  0  0  0  0
  191.8970  172.1820  140.9720 C   0  0  0  0  0  1  0  0  0  0  0  0
  192.5020  174.2070  142.2430 C   0  0  0  0  0  1  0  0  0  0  0  0
  191.3490  173.3640  141.7390 C   0  0  0  0  0  3  0  0  0  0  0  0
  189.8420  176.6110  141.7860 O   0  0  0  0  0  0  0  0  0  0  0  0
  191.4090  177.9580  142.9740 C   0  0  0  0  0  1  0  0  0  0  0  0
  190.3070  176.9240  143.0750 C   0  0  0  0  0  2  0  0  0  0  0  0
  190.2460  177.9090  146.1860 O   0  0  0  0  0  0  0  0  0  0  0  0
  190.9210  177.4690  148.3240 O   0  0  0  0  0  1  0  0  0  0  0  0
  190.0260  177.3210  147.2760 C   0  0  0  0  0  0  0  0  0  0  0  0
  1 31  1  0  0  0  0
  2  1  2  0  0  0  0
  2  3  1  0  0  0  0
  4  3  1  0  0  0  0
  4  5  1  1  0  0  0
  7  9  2  0  0  0  0
  8 12  1  0  0  0  0
  8  7  1  1  0  0  0
  9 11  1  0  0  0  0
 10  4  1  1  0  0  0
 10 11  1  0  0  0  0
 12  6  1  1  0  0  0
 12 10  1  0  0  0  0
 13 14  1  0  0  0  0
 13  8  1  1  0  0  0
 14 23  1  6  0  0  0
 15 17  1  6  0  0  0
 15 13  1  0  0  0  0
 15 14  1  0  0  0  0
 17 16  2  6  0  0  0
 18 17  1  0  0  0  0
 19 17  1  0  0  0  0
 20 22  1  0  0  0  0
 20 21  1  0  0  0  0
 21 19  1  1  0  0  0
 22 21  1  0  0  0  0
 24 23  1  6  0  0  0
 24 27  1  0  0  0  0
 25 26  1  0  0  0  0
 25 24  1  0  0  0  0
 27 28  1  0  0  0  0
 28 29  2  0  0  0  0
 28 30  1  0  0  0  0
 32 57  1  6  0  0  0
 32 31  1  0  0  0  0
 33 35  1  0  0  0  0
 35 34  1  0  0  0  0
 36 39  1  6  0  0  0
 36 33  1  0  0  0  0
 36 38  1  0  0  0  0
 37 34  1  0  0  0  0
 37 32  1  0  0  0  0
 38 37  2  0  0  0  0
 40 39  1  0  0  0  0
 42 41  1  6  0  0  0
 42 40  1  0  0  0  0
 43 47  1  0  0  0  0
 44 45  1  0  0  0  0
 44 46  1  0  0  0  0
 45 43  1  0  0  0  0
 46 48  1  6  0  0  0
 46 42  1  0  0  0  0
 46 47  1  0  0  0  0
 48 51  1  0  0  0  0
 49 51  1  0  0  0  0
 51 50  1  0  0  0  0
 52 42  1  0  0  0  0
 52 54  1  0  0  0  0
 53 54  1  0  0  0  0
 55 57  2  0  0  0  0
 57 56  1  0  0  0  0
M  END
>  <MODEL>
4

>  <REMARK>
 VINA RESULT:      -4.9      3.638      8.898
  Name = 
  24 active torsions:
  status: ('A' for Active; 'I' for Inactive)
    1  A    between atoms: C_1  and  C_29
    2  A    between atoms: C_5  and  C_18
    3  A    between atoms: C_5  and  C_34
    4  A    between atoms: C_7  and  C_15
    5  A    between atoms: C_7  and  C_27
    6  A    between atoms: S_11  and  C_13
    7  A    between atoms: S_11  and  C_52
    8  A    between atoms: C_15  and  C_55
    9  A    between atoms: C_16  and  O_38
   10  A    between atoms: P_17  and  C_44
   11  A    between atoms: P_17  and  C_57
   12  A    between atoms: C_18  and  C_41
   13  A    between atoms: O_19  and  C_30
   14  A    between atoms: C_23  and  C_25
   15  A    between atoms: C_28  and  C_39
   16  A    between atoms: C_29  and  C_30
   17  A    between atoms: C_30  and  C_39
   18  A    between atoms: C_31  and  C_52
   19  A    between atoms: C_37  and  C_42
   20  A    between atoms: O_38  and  C_55
   21  A    between atoms: C_42  and  C_54
   22  A    between atoms: C_46  and  C_57
   23  A    between atoms: C_48  and  C_52
   24  A    between atoms: C_54  and  C_55
                            x       y       z     vdW  Elec       q    Type
                         _______ _______ _______ _____ _____    ______ ____

>  <TORSDO>
F 24

$$$$
=
 OpenBabel11042418033D

 57 61  0  0  1  0  0  0  0  0999 V2000
  189.9430  174.6290  145.5320 C   0  0  0  0  0  3  0  0  0  0  0  0
  191.2340  174.6270  145.1810 C   0  0  0  0  0  3  0  0  0  0  0  0
  192.3590  174.6390  146.1710 C   0  0  0  0  0  2  0  0  0  0  0  0
  193.5020  175.5420  145.7320 C   0  0  1  0  0  3  0  0  0  0  0  0
  193.8780  176.3570  146.8020 O   0  0  0  0  0  1  0  0  0  0  0  0
  195.9420  176.5250  144.4640 F   0  0  0  0  0  0  0  0  0  0  0  0
  197.4080  173.8720  144.9140 C   0  0  0  0  0  3  0  0  0  0  0  0
  196.6050  174.3470  143.7260 C   0  0  2  0  0  3  0  0  0  0  0  0
  196.9190  173.9160  146.1570 C   0  0  0  0  0  3  0  0  0  0  0  0
  194.6780  174.6720  145.3030 C   0  0  2  0  0  3  0  0  0  0  0  0
  195.5990  174.4190  146.4090 N   0  0  0  0  0  2  0  0  0  0  0  0
  195.4420  175.2800  144.1220 C   0  0  1  0  0  3  0  0  0  0  0  0
  196.2730  173.1920  142.7560 C   0  0  2  0  0  3  0  0  0  0  0  0
  194.8170  173.1690  142.3110 C   0  0  2  0  0  3  0  0  0  0  0  0
  195.3170  172.1820  143.3770 C   0  0  1  0  0  3  0  0  0  0  0  0
  194.3460  169.8440  142.0090 O   0  0  0  0  0  1  0  0  0  0  0  0
  195.6990  170.4840  142.7960 P   0  0  1  0  0  0  0  0  0  0  0  0
  196.8830  170.4820  141.8510 O   0  0  0  0  0  0  0  0  0  0  0  0
  196.0890  169.4540  144.2410 C   0  0  0  0  0  2  0  0  0  0  0  0
  197.3720  169.3720  146.3230 C   0  0  0  0  0  2  0  0  0  0  0  0
  197.1290  170.1480  145.0950 C   0  0  2  0  0  3  0  0  0  0  0  0
  196.5490  170.5070  146.3210 O   0  0  0  0  0  0  0  0  0  0  0  0
  194.7120  172.6320  140.8900 C   0  0  0  0  0  2  0  0  0  0  0  0
  194.1780  173.7080  139.9500 C   0  0  2  0  0  3  0  0  0  0  0  0
  193.3790  173.1380  138.9500 O   0  0  0  0  0  0  0  0  0  0  0  0
  192.3570  172.4800  139.6410 C   0  0  0  0  0  1  0  0  0  0  0  0
  195.3270  174.5040  139.3290 C   0  0  0  0  0  2  0  0  0  0  0  0
  195.7590  175.6500  140.1830 C   0  0  0  0  0  0  0  0  0  0  0  0
  196.9820  175.8890  140.3470 O   0  0  0  0  0  0  0  0  0  0  0  0
  194.8100  176.4260  140.8310 O   0  0  0  0  0  1  0  0  0  0  0  0
  189.3820  174.5640  147.2420 S   0  0  0  0  0  0  0  0  0  0  0  0
  188.9720  176.3460  147.3950 C   0  0  2  0  0  3  0  0  0  0  0  0
  185.5340  178.0150  145.3090 C   0  0  0  0  0  2  0  0  0  0  0  0
  186.3720  176.6200  147.2240 C   0  0  0  0  0  2  0  0  0  0  0  0
  185.2440  176.8170  146.2110 C   0  0  0  0  0  2  0  0  0  0  0  0
  186.8260  177.7700  144.5240 C   0  0  1  0  0  3  0  0  0  0  0  0
  187.7580  176.8000  146.6380 C   0  0  0  0  0  0  0  0  0  0  0  0
  187.9530  177.3840  145.4440 C   0  0  0  0  0  3  0  0  0  0  0  0
  186.6420  176.6600  143.4960 C   0  0  0  0  0  2  0  0  0  0  0  0
  187.8160  175.6880  143.5050 C   0  0  0  0  0  2  0  0  0  0  0  0
  187.9200  176.6790  141.2450 C   0  0  0  0  0  1  0  0  0  0  0  0
  188.6200  175.6900  142.1770 C   0  0  2  0  0  0  0  0  0  0  0  0
  188.8800  172.2300  142.7290 C   0  0  0  0  0  2  0  0  0  0  0  0
  187.3980  173.6440  141.5690 O   0  0  0  0  0  0  0  0  0  0  0  0
  187.6110  172.3060  141.9330 C   0  0  0  0  0  2  0  0  0  0  0  0
  188.6660  174.2680  141.4900 C   0  0  2  0  0  0  0  0  0  0  0  0
  189.6810  173.3600  142.1790 C   0  0  0  0  0  2  0  0  0  0  0  0
  189.1050  174.3620  140.0160 C   0  0  0  0  0  2  0  0  0  0  0  0
  187.9020  174.5800  137.8660 C   0  0  0  0  0  1  0  0  0  0  0  0
  188.8230  172.3900  138.5250 C   0  0  0  0  0  1  0  0  0  0  0  0
  188.1750  173.6600  139.0340 C   0  0  0  0  0  3  0  0  0  0  0  0
  189.9220  176.2230  142.3760 O   0  0  0  0  0  0  0  0  0  0  0  0
  191.1720  178.1300  143.0720 C   0  0  0  0  0  1  0  0  0  0  0  0
  189.8940  177.6270  142.4310 C   0  0  0  0  0  2  0  0  0  0  0  0
  190.9730  177.4190  148.1770 O   0  0  0  0  0  1  0  0  0  0  0  0
  190.3410  177.9290  146.0410 O   0  0  0  0  0  0  0  0  0  0  0  0
  190.1580  177.2490  147.2340 C   0  0  0  0  0  0  0  0  0  0  0  0
  1 31  1  0  0  0  0
  2  1  2  0  0  0  0
  2  3  1  0  0  0  0
  4  3  1  0  0  0  0
  4  5  1  1  0  0  0
  7  9  2  0  0  0  0
  8 12  1  0  0  0  0
  8  7  1  1  0  0  0
  9 11  1  0  0  0  0
 10  4  1  1  0  0  0
 10 11  1  0  0  0  0
 12  6  1  1  0  0  0
 12 10  1  0  0  0  0
 13 15  1  0  0  0  0
 13  8  1  1  0  0  0
 14 23  1  6  0  0  0
 14 13  1  0  0  0  0
 14 15  1  0  0  0  0
 15 17  1  6  0  0  0
 16 17  1  0  0  0  0
 17 18  2  6  0  0  0
 17 19  1  0  0  0  0
 21 19  1  6  0  0  0
 21 22  1  0  0  0  0
 21 20  1  0  0  0  0
 22 20  1  0  0  0  0
 24 27  1  6  0  0  0
 24 23  1  0  0  0  0
 25 26  1  0  0  0  0
 25 24  1  0  0  0  0
 27 28  1  0  0  0  0
 28 29  2  0  0  0  0
 28 30  1  0  0  0  0
 31 32  1  0  0  0  0
 32 57  1  6  0  0  0
 33 35  1  0  0  0  0
 35 34  1  0  0  0  0
 36 39  1  6  0  0  0
 36 33  1  0  0  0  0
 36 38  1  0  0  0  0
 37 34  1  0  0  0  0
 37 32  1  0  0  0  0
 38 37  2  0  0  0  0
 39 40  1  0  0  0  0
 42 41  1  6  0  0  0
 42 52  1  0  0  0  0
 42 40  1  0  0  0  0
 44 45  1  0  0  0  0
 45 43  1  0  0  0  0
 46 48  1  6  0  0  0
 46 44  1  0  0  0  0
 46 42  1  0  0  0  0
 46 47  1  0  0  0  0
 47 43  1  0  0  0  0
 49 51  1  0  0  0  0
 50 51  1  0  0  0  0
 51 48  1  0  0  0  0
 52 54  1  0  0  0  0
 54 53  1  0  0  0  0
 56 57  2  0  0  0  0
 57 55  1  0  0  0  0
M  END
>  <MODEL>
5

>  <REMARK>
 VINA RESULT:      -4.8      3.327      8.400
  Name = 
  24 active torsions:
  status: ('A' for Active; 'I' for Inactive)
    1  A    between atoms: C_1  and  C_29
    2  A    between atoms: C_5  and  C_18
    3  A    between atoms: C_5  and  C_34
    4  A    between atoms: C_7  and  C_15
    5  A    between atoms: C_7  and  C_27
    6  A    between atoms: S_11  and  C_13
    7  A    between atoms: S_11  and  C_52
    8  A    between atoms: C_15  and  C_55
    9  A    between atoms: C_16  and  O_38
   10  A    between atoms: P_17  and  C_44
   11  A    between atoms: P_17  and  C_57
   12  A    between atoms: C_18  and  C_41
   13  A    between atoms: O_19  and  C_30
   14  A    between atoms: C_23  and  C_25
   15  A    between atoms: C_28  and  C_39
   16  A    between atoms: C_29  and  C_30
   17  A    between atoms: C_30  and  C_39
   18  A    between atoms: C_31  and  C_52
   19  A    between atoms: C_37  and  C_42
   20  A    between atoms: O_38  and  C_55
   21  A    between atoms: C_42  and  C_54
   22  A    between atoms: C_46  and  C_57
   23  A    between atoms: C_48  and  C_52
   24  A    between atoms: C_54  and  C_55
                            x       y       z     vdW  Elec       q    Type
                         _______ _______ _______ _____ _____    ______ ____

>  <TORSDO>
F 24

$$$$
=
 OpenBabel11042418033D

 57 61  0  0  1  0  0  0  0  0999 V2000
  188.8470  176.0700  145.8550 C   0  0  0  0  0  3  0  0  0  0  0  0
  188.9660  177.3270  145.4090 C   0  0  0  0  0  3  0  0  0  0  0  0
  190.2420  177.8930  144.8660 C   0  0  0  0  0  2  0  0  0  0  0  0
  190.3010  177.8240  143.3470 C   0  0  1  0  0  3  0  0  0  0  0  0
  191.3780  177.0190  142.9680 O   0  0  0  0  0  1  0  0  0  0  0  0
  188.9180  178.6540  140.9130 F   0  0  0  0  0  0  0  0  0  0  0  0
  187.0900  176.1950  140.9490 C   0  0  0  0  0  3  0  0  0  0  0  0
  186.8760  177.5710  141.5340 C   0  0  2  0  0  3  0  0  0  0  0  0
  188.1960  175.4880  141.1980 C   0  0  0  0  0  3  0  0  0  0  0  0
  188.9970  177.2240  142.8320 C   0  0  2  0  0  3  0  0  0  0  0  0
  189.2300  176.0160  142.0430 N   0  0  0  0  0  2  0  0  0  0  0  0
  188.1860  178.2310  142.0100 C   0  0  1  0  0  3  0  0  0  0  0  0
  185.6830  177.6000  142.5150 C   0  0  2  0  0  3  0  0  0  0  0  0
  184.6730  178.6990  142.2140 C   0  0  2  0  0  3  0  0  0  0  0  0
  185.6750  178.8620  143.3670 C   0  0  1  0  0  3  0  0  0  0  0  0
  183.4450  179.0480  145.1750 O   0  0  0  0  0  0  0  0  0  0  0  0
  185.0410  178.5050  145.0510 P   0  0  1  0  0  0  0  0  0  0  0  0
  185.0960  177.0220  145.3530 O   0  0  0  0  0  1  0  0  0  0  0  0
  186.0680  179.3960  146.2550 C   0  0  0  0  0  2  0  0  0  0  0  0
  186.8930  179.2970  148.5570 C   0  0  0  0  0  2  0  0  0  0  0  0
  185.8430  178.8240  147.6390 C   0  0  2  0  0  3  0  0  0  0  0  0
  186.9390  178.0180  147.9850 O   0  0  0  0  0  0  0  0  0  0  0  0
  183.2710  178.2410  142.5970 C   0  0  0  0  0  2  0  0  0  0  0  0
  182.3950  178.1070  141.3570 C   0  0  2  0  0  3  0  0  0  0  0  0
  183.1620  178.2480  140.1920 O   0  0  0  0  0  0  0  0  0  0  0  0
  182.8630  177.1150  139.4290 C   0  0  0  0  0  1  0  0  0  0  0  0
  181.2620  179.1350  141.3790 C   0  0  0  0  0  2  0  0  0  0  0  0
  179.9880  178.5740  141.9180 C   0  0  0  0  0  0  0  0  0  0  0  0
  179.5330  178.9830  143.0150 O   0  0  0  0  0  1  0  0  0  0  0  0
  179.3280  177.5690  141.2260 O   0  0  0  0  0  0  0  0  0  0  0  0
  190.1840  174.8660  145.7850 S   0  0  0  0  0  0  0  0  0  0  0  0
  191.4700  175.9380  146.5360 C   0  0  2  0  0  3  0  0  0  0  0  0
  195.6300  174.9890  145.6670 C   0  0  0  0  0  2  0  0  0  0  0  0
  193.8880  176.7740  145.9700 C   0  0  0  0  0  2  0  0  0  0  0  0
  195.1590  176.3730  145.2230 C   0  0  0  0  0  2  0  0  0  0  0  0
  194.5520  173.9490  145.3450 C   0  0  1  0  0  3  0  0  0  0  0  0
  192.8820  175.6510  146.1140 C   0  0  0  0  0  0  0  0  0  0  0  0
  193.2150  174.3680  145.8930 C   0  0  0  0  0  3  0  0  0  0  0  0
  194.4150  173.7490  143.8400 C   0  0  0  0  0  2  0  0  0  0  0  0
  194.2820  172.2740  143.4820 C   0  0  0  0  0  2  0  0  0  0  0  0
  192.9880  170.5320  142.3030 C   0  0  0  0  0  1  0  0  0  0  0  0
  193.3310  172.0210  142.2810 C   0  0  2  0  0  0  0  0  0  0  0  0
  195.9410  171.2790  140.0500 C   0  0  0  0  0  2  0  0  0  0  0  0
  193.5980  171.4520  139.9030 O   0  0  0  0  0  0  0  0  0  0  0  0
  194.7420  171.1180  139.1630 C   0  0  0  0  0  2  0  0  0  0  0  0
  193.9920  172.3840  140.8930 C   0  0  2  0  0  0  0  0  0  0  0  0
  195.5150  172.3560  140.9880 C   0  0  0  0  0  2  0  0  0  0  0  0
  193.6170  173.8090  140.4400 C   0  0  0  0  0  2  0  0  0  0  0  0
  194.6970  175.0790  138.6130 C   0  0  0  0  0  1  0  0  0  0  0  0
  194.8090  175.9390  140.9220 C   0  0  0  0  0  1  0  0  0  0  0  0
  194.8050  174.6870  140.0700 C   0  0  0  0  0  3  0  0  0  0  0  0
  192.0920  172.6910  142.4680 O   0  0  0  0  0  0  0  0  0  0  0  0
  190.7470  171.8510  144.2480 C   0  0  0  0  0  1  0  0  0  0  0  0
  191.0620  171.7830  142.7680 C   0  0  0  0  0  2  0  0  0  0  0  0
  191.4030  177.2640  148.5370 O   0  0  0  0  0  0  0  0  0  0  0  0
  191.0780  175.0200  148.8200 O   0  0  0  0  0  1  0  0  0  0  0  0
  191.3070  176.1240  148.0140 C   0  0  0  0  0  0  0  0  0  0  0  0
  2  1  2  0  0  0  0
  3  2  1  0  0  0  0
  4  5  1  1  0  0  0
  4  3  1  0  0  0  0
  7  9  2  0  0  0  0
  8  7  1  1  0  0  0
  8 12  1  0  0  0  0
  9 11  1  0  0  0  0
 10  4  1  6  0  0  0
 11 10  1  0  0  0  0
 12  6  1  6  0  0  0
 12 10  1  0  0  0  0
 13  8  1  6  0  0  0
 13 15  1  0  0  0  0
 14 13  1  0  0  0  0
 14 23  1  1  0  0  0
 14 15  1  0  0  0  0
 15 17  1  1  0  0  0
 17 16  2  1  0  0  0
 17 18  1  0  0  0  0
 17 19  1  0  0  0  0
 21 19  1  6  0  0  0
 21 22  1  0  0  0  0
 21 20  1  0  0  0  0
 22 20  1  0  0  0  0
 24 27  1  1  0  0  0
 24 23  1  0  0  0  0
 25 24  1  0  0  0  0
 26 25  1  0  0  0  0
 27 28  1  0  0  0  0
 28 29  1  0  0  0  0
 30 28  2  0  0  0  0
 31  1  1  0  0  0  0
 32 31  1  1  0  0  0
 32 57  1  0  0  0  0
 34 37  1  0  0  0  0
 35 33  1  0  0  0  0
 35 34  1  0  0  0  0
 36 39  1  6  0  0  0
 36 33  1  0  0  0  0
 36 38  1  0  0  0  0
 37 32  1  0  0  0  0
 38 37  2  0  0  0  0
 40 39  1  0  0  0  0
 42 41  1  6  0  0  0
 42 52  1  0  0  0  0
 42 40  1  0  0  0  0
 43 47  1  0  0  0  0
 44 46  1  0  0  0  0
 45 44  1  0  0  0  0
 45 43  1  0  0  0  0
 46 48  1  6  0  0  0
 46 47  1  0  0  0  0
 46 42  1  0  0  0  0
 49 51  1  0  0  0  0
 51 48  1  0  0  0  0
 51 50  1  0  0  0  0
 52 54  1  0  0  0  0
 54 53  1  0  0  0  0
 57 55  2  0  0  0  0
 57 56  1  0  0  0  0
M  END
>  <MODEL>
6

>  <REMARK>
 VINA RESULT:      -4.8      2.926      5.952
  Name = 
  24 active torsions:
  status: ('A' for Active; 'I' for Inactive)
    1  A    between atoms: C_1  and  C_29
    2  A    between atoms: C_5  and  C_18
    3  A    between atoms: C_5  and  C_34
    4  A    between atoms: C_7  and  C_15
    5  A    between atoms: C_7  and  C_27
    6  A    between atoms: S_11  and  C_13
    7  A    between atoms: S_11  and  C_52
    8  A    between atoms: C_15  and  C_55
    9  A    between atoms: C_16  and  O_38
   10  A    between atoms: P_17  and  C_44
   11  A    between atoms: P_17  and  C_57
   12  A    between atoms: C_18  and  C_41
   13  A    between atoms: O_19  and  C_30
   14  A    between atoms: C_23  and  C_25
   15  A    between atoms: C_28  and  C_39
   16  A    between atoms: C_29  and  C_30
   17  A    between atoms: C_30  and  C_39
   18  A    between atoms: C_31  and  C_52
   19  A    between atoms: C_37  and  C_42
   20  A    between atoms: O_38  and  C_55
   21  A    between atoms: C_42  and  C_54
   22  A    between atoms: C_46  and  C_57
   23  A    between atoms: C_48  and  C_52
   24  A    between atoms: C_54  and  C_55
                            x       y       z     vdW  Elec       q    Type
                         _______ _______ _______ _____ _____    ______ ____

>  <TORSDO>
F 24

$$$$
=
 OpenBabel11042418033D

 57 61  0  0  1  0  0  0  0  0999 V2000
  188.2930  172.2080  141.7600 C   0  0  0  0  0  3  0  0  0  0  0  0
  187.4030  173.2000  141.6310 C   0  0  0  0  0  3  0  0  0  0  0  0
  187.1040  174.1870  142.7180 C   0  0  0  0  0  2  0  0  0  0  0  0
  187.0840  175.6190  142.2040 C   0  0  1  0  0  3  0  0  0  0  0  0
  185.9070  176.2400  142.6250 O   0  0  0  0  0  1  0  0  0  0  0  0
  189.8280  175.3200  141.2500 F   0  0  0  0  0  0  0  0  0  0  0  0
  190.7760  177.8020  142.7770 C   0  0  0  0  0  2  0  0  0  0  0  0
  190.7680  176.3500  143.1960 C   0  0  2  0  0  3  0  0  0  0  0  0
  189.6820  178.4030  142.2990 C   0  0  0  0  0  3  0  0  0  0  0  0
  188.2930  176.3590  142.7670 C   0  0  2  0  0  3  0  0  0  0  0  0
  188.4470  177.6830  142.1670 N   0  0  0  0  0  0  0  0  0  0  0  0
  189.5890  175.5580  142.5930 C   0  0  1  0  0  3  0  0  0  0  0  0
  191.0160  176.1870  144.7110 C   0  0  2  0  0  3  0  0  0  0  0  0
  190.5860  177.3960  145.5320 C   0  0  2  0  0  3  0  0  0  0  0  0
  192.0720  177.1570  145.2240 C   0  0  1  0  0  3  0  0  0  0  0  0
  192.7890  177.2140  148.0110 O   0  0  0  0  0  1  0  0  0  0  0  0
  193.0650  176.3870  146.5610 P   0  0  1  0  0  0  0  0  0  0  0  0
  192.7080  174.9260  146.7360 O   0  0  0  0  0  0  0  0  0  0  0  0
  194.8230  176.5220  146.1250 C   0  0  0  0  0  2  0  0  0  0  0  0
  196.1910  175.9000  144.1940 C   0  0  0  0  0  2  0  0  0  0  0  0
  195.1970  175.4130  145.1640 C   0  0  2  0  0  3  0  0  0  0  0  0
  194.8330  175.7920  143.8630 O   0  0  0  0  0  0  0  0  0  0  0  0
  190.1010  176.9500  146.9060 C   0  0  0  0  0  2  0  0  0  0  0  0
  188.6010  176.6780  146.8800 C   0  0  2  0  0  3  0  0  0  0  0  0
  188.3450  175.3610  146.4760 O   0  0  0  0  0  0  0  0  0  0  0  0
  189.0220  174.5640  147.4050 C   0  0  0  0  0  1  0  0  0  0  0  0
  187.8850  177.6690  145.9600 C   0  0  0  0  0  2  0  0  0  0  0  0
  186.4380  177.8210  146.2940 C   0  0  0  0  0  0  0  0  0  0  0  0
  186.0300  178.8560  146.8760 O   0  0  0  0  0  1  0  0  0  0  0  0
  185.5490  176.7980  145.9970 O   0  0  0  0  0  0  0  0  0  0  0  0
  189.3110  171.9770  143.2280 S   0  0  0  0  0  0  0  0  0  0  0  0
  190.9180  172.3610  142.4290 C   0  0  2  0  0  3  0  0  0  0  0  0
  191.1720  170.8000  138.3720 C   0  0  0  0  0  2  0  0  0  0  0  0
  190.8650  170.2980  140.8150 C   0  0  0  0  0  2  0  0  0  0  0  0
  191.4280  169.7890  139.4880 C   0  0  0  0  0  2  0  0  0  0  0  0
  191.8750  172.1210  138.7010 C   0  0  1  0  0  3  0  0  0  0  0  0
  191.1210  171.7700  141.0640 C   0  0  0  0  0  0  0  0  0  0  0  0
  191.5130  172.5980  140.0810 C   0  0  0  0  0  3  0  0  0  0  0  0
  193.3890  171.9710  138.6250 C   0  0  0  0  0  2  0  0  0  0  0  0
  194.0640  173.2850  138.2500 C   0  0  0  0  0  2  0  0  0  0  0  0
  195.9270  171.7010  137.9040 C   0  0  0  0  0  1  0  0  0  0  0  0
  195.6100  173.1740  138.1600 C   0  0  2  0  0  0  0  0  0  0  0  0
  197.5850  175.6740  139.6400 C   0  0  0  0  0  2  0  0  0  0  0  0
  195.5500  174.6100  140.1570 O   0  0  0  0  0  0  0  0  0  0  0  0
  196.4170  175.6280  140.5810 C   0  0  0  0  0  2  0  0  0  0  0  0
  196.3330  173.6400  139.4860 C   0  0  2  0  0  0  0  0  0  0  0  0
  197.6920  174.2610  139.1790 C   0  0  0  0  0  2  0  0  0  0  0  0
  196.6060  172.4540  140.4320 C   0  0  0  0  0  2  0  0  0  0  0  0
  194.9740  170.9100  141.4670 C   0  0  0  0  0  1  0  0  0  0  0  0
  196.2630  172.4510  142.8970 C   0  0  0  0  0  1  0  0  0  0  0  0
  195.5860  172.2910  141.5520 C   0  0  0  0  0  3  0  0  0  0  0  0
  196.1010  173.8650  137.0200 O   0  0  0  0  0  0  0  0  0  0  0  0
  196.1810  173.9970  134.6420 C   0  0  0  0  0  1  0  0  0  0  0  0
  195.4580  173.4330  135.8480 C   0  0  0  0  0  2  0  0  0  0  0  0
  192.7940  173.1820  143.6830 O   0  0  0  0  0  0  0  0  0  0  0  0
  192.4370  170.9280  143.7910 O   0  0  0  0  0  1  0  0  0  0  0  0
  192.0950  172.1930  143.3420 C   0  0  0  0  0  0  0  0  0  0  0  0
  1 31  1  0  0  0  0
  2  1  2  0  0  0  0
  2  3  1  0  0  0  0
  4  5  1  1  0  0  0
  4  3  1  0  0  0  0
  8  7  1  1  0  0  0
  9  7  1  0  0  0  0
 10  4  1  6  0  0  0
 11  9  2  0  0  0  0
 11 10  1  0  0  0  0
 12  6  1  6  0  0  0
 12 10  1  0  0  0  0
 12  8  1  0  0  0  0
 13  8  1  6  0  0  0
 13 15  1  0  0  0  0
 13 14  1  0  0  0  0
 14 23  1  1  0  0  0
 15 14  1  0  0  0  0
 15 17  1  1  0  0  0
 17 18  2  1  0  0  0
 17 16  1  0  0  0  0
 19 17  1  0  0  0  0
 20 21  1  0  0  0  0
 21 19  1  1  0  0  0
 22 20  1  0  0  0  0
 22 21  1  0  0  0  0
 24 27  1  6  0  0  0
 24 23  1  0  0  0  0
 25 24  1  0  0  0  0
 25 26  1  0  0  0  0
 27 28  1  0  0  0  0
 28 29  1  0  0  0  0
 30 28  2  0  0  0  0
 32 31  1  1  0  0  0
 32 57  1  0  0  0  0
 33 36  1  0  0  0  0
 33 35  1  0  0  0  0
 34 37  1  0  0  0  0
 35 34  1  0  0  0  0
 36 39  1  1  0  0  0
 36 38  1  0  0  0  0
 37 32  1  0  0  0  0
 38 37  2  0  0  0  0
 40 39  1  0  0  0  0
 42 41  1  6  0  0  0
 42 40  1  0  0  0  0
 42 46  1  0  0  0  0
 43 45  1  0  0  0  0
 44 45  1  0  0  0  0
 46 44  1  0  0  0  0
 46 48  1  1  0  0  0
 47 46  1  0  0  0  0
 47 43  1  0  0  0  0
 48 51  1  0  0  0  0
 49 51  1  0  0  0  0
 51 50  1  0  0  0  0
 52 42  1  0  0  0  0
 53 54  1  0  0  0  0
 54 52  1  0  0  0  0
 57 55  2  0  0  0  0
 57 56  1  0  0  0  0
M  END
>  <MODEL>
7

>  <REMARK>
 VINA RESULT:      -4.6      2.418      4.786
  Name = 
  24 active torsions:
  status: ('A' for Active; 'I' for Inactive)
    1  A    between atoms: C_1  and  C_29
    2  A    between atoms: C_5  and  C_18
    3  A    between atoms: C_5  and  C_34
    4  A    between atoms: C_7  and  C_15
    5  A    between atoms: C_7  and  C_27
    6  A    between atoms: S_11  and  C_13
    7  A    between atoms: S_11  and  C_52
    8  A    between atoms: C_15  and  C_55
    9  A    between atoms: C_16  and  O_38
   10  A    between atoms: P_17  and  C_44
   11  A    between atoms: P_17  and  C_57
   12  A    between atoms: C_18  and  C_41
   13  A    between atoms: O_19  and  C_30
   14  A    between atoms: C_23  and  C_25
   15  A    between atoms: C_28  and  C_39
   16  A    between atoms: C_29  and  C_30
   17  A    between atoms: C_30  and  C_39
   18  A    between atoms: C_31  and  C_52
   19  A    between atoms: C_37  and  C_42
   20  A    between atoms: O_38  and  C_55
   21  A    between atoms: C_42  and  C_54
   22  A    between atoms: C_46  and  C_57
   23  A    between atoms: C_48  and  C_52
   24  A    between atoms: C_54  and  C_55
                            x       y       z     vdW  Elec       q    Type
                         _______ _______ _______ _____ _____    ______ ____

>  <TORSDO>
F 24

$$$$
=
 OpenBabel11042418033D

 57 61  0  0  1  0  0  0  0  0999 V2000
  190.5410  175.3480  145.1780 C   0  0  0  0  0  3  0  0  0  0  0  0
  191.6740  174.8820  144.6390 C   0  0  0  0  0  3  0  0  0  0  0  0
  192.9650  175.6410  144.6470 C   0  0  0  0  0  2  0  0  0  0  0  0
  193.8930  175.1870  145.7640 C   0  0  1  0  0  3  0  0  0  0  0  0
  193.1830  174.3670  146.6430 O   0  0  0  0  0  1  0  0  0  0  0  0
  196.0530  176.3630  144.1880 F   0  0  0  0  0  0  0  0  0  0  0  0
  197.7500  173.8170  144.3600 C   0  0  0  0  0  3  0  0  0  0  0  0
  196.7540  174.2500  143.3090 C   0  0  2  0  0  3  0  0  0  0  0  0
  197.4420  173.8080  145.6600 C   0  0  0  0  0  3  0  0  0  0  0  0
  195.0540  174.4100  145.1510 C   0  0  2  0  0  3  0  0  0  0  0  0
  196.1390  174.2100  146.1090 N   0  0  0  0  0  2  0  0  0  0  0  0
  195.5970  175.0900  143.8890 C   0  0  1  0  0  3  0  0  0  0  0  0
  196.3690  173.0870  142.3680 C   0  0  2  0  0  3  0  0  0  0  0  0
  195.0940  173.3430  141.5750 C   0  0  2  0  0  3  0  0  0  0  0  0
  195.0740  172.4110  142.7960 C   0  0  1  0  0  3  0  0  0  0  0  0
  194.0420  170.2450  141.2090 O   0  0  0  0  0  0  0  0  0  0  0  0
  195.1350  170.6110  142.4470 P   0  0  1  0  0  0  0  0  0  0  0  0
  196.5270  170.1800  142.0370 O   0  0  0  0  0  1  0  0  0  0  0  0
  194.6520  169.7150  143.9510 C   0  0  0  0  0  2  0  0  0  0  0  0
  196.1170  169.0420  145.7920 C   0  0  0  0  0  2  0  0  0  0  0  0
  195.4890  170.1910  145.1190 C   0  0  2  0  0  3  0  0  0  0  0  0
  194.9660  169.6560  146.3060 O   0  0  0  0  0  0  0  0  0  0  0  0
  195.1810  172.6680  140.2120 C   0  0  0  0  0  2  0  0  0  0  0  0
  194.8050  173.6460  139.1060 C   0  0  2  0  0  3  0  0  0  0  0  0
  195.1160  173.1140  137.8480 O   0  0  0  0  0  0  0  0  0  0  0  0
  195.6400  171.8450  138.1160 C   0  0  0  0  0  1  0  0  0  0  0  0
  195.5080  174.9900  139.3070 C   0  0  0  0  0  2  0  0  0  0  0  0
  196.9150  174.9830  138.8090 C   0  0  0  0  0  0  0  0  0  0  0  0
  197.1680  175.3320  137.6290 O   0  0  0  0  0  0  0  0  0  0  0  0
  197.9390  174.5490  139.6370 O   0  0  0  0  0  1  0  0  0  0  0  0
  190.4360  176.9150  146.0590 S   0  0  0  0  0  0  0  0  0  0  0  0
  189.8110  177.9060  144.6460 C   0  0  2  0  0  3  0  0  0  0  0  0
  186.2120  176.6890  142.5190 C   0  0  0  0  0  2  0  0  0  0  0  0
  187.2690  177.2760  144.7220 C   0  0  0  0  0  2  0  0  0  0  0  0
  186.2190  176.4150  144.0220 C   0  0  0  0  0  2  0  0  0  0  0  0
  187.5770  176.3330  141.9230 C   0  0  1  0  0  3  0  0  0  0  0  0
  188.5820  177.3700  143.9710 C   0  0  0  0  0  0  0  0  0  0  0  0
  188.6900  177.0030  142.6830 C   0  0  0  0  0  3  0  0  0  0  0  0
  187.8130  174.8280  141.9510 C   0  0  0  0  0  2  0  0  0  0  0  0
  189.2400  174.4770  141.5460 C   0  0  0  0  0  2  0  0  0  0  0  0
  187.9700  172.6450  140.4830 C   0  0  0  0  0  1  0  0  0  0  0  0
  189.3120  173.3760  140.4550 C   0  0  2  0  0  0  0  0  0  0  0  0
  191.5030  172.0400  142.8540 C   0  0  0  0  0  2  0  0  0  0  0  0
  189.9620  171.1610  141.3060 O   0  0  0  0  0  0  0  0  0  0  0  0
  190.8370  170.7970  142.3410 C   0  0  0  0  0  2  0  0  0  0  0  0
  190.4760  172.3390  140.7120 C   0  0  2  0  0  0  0  0  0  0  0  0
  191.5290  172.9200  141.6520 C   0  0  0  0  0  2  0  0  0  0  0  0
  191.2160  171.9790  139.4090 C   0  0  0  0  0  2  0  0  0  0  0  0
  189.7800  170.5290  138.0110 C   0  0  0  0  0  1  0  0  0  0  0  0
  192.1970  170.0630  138.1600 C   0  0  0  0  0  1  0  0  0  0  0  0
  190.9850  170.5530  138.9250 C   0  0  0  0  0  3  0  0  0  0  0  0
  189.3950  173.9530  139.1590 O   0  0  0  0  0  0  0  0  0  0  0  0
  187.7380  175.0730  137.8640 C   0  0  0  0  0  1  0  0  0  0  0  0
  188.2080  173.7510  138.4350 C   0  0  0  0  0  2  0  0  0  0  0  0
  191.5530  179.3800  143.8980 O   0  0  0  0  0  1  0  0  0  0  0  0
  191.1290  177.5820  142.5540 O   0  0  0  0  0  0  0  0  0  0  0  0
  190.8870  178.3330  143.6930 C   0  0  0  0  0  0  0  0  0  0  0  0
  1 31  1  0  0  0  0
  2  3  1  0  0  0  0
  2  1  2  0  0  0  0
  3  4  1  0  0  0  0
  4  5  1  1  0  0  0
  7  9  2  0  0  0  0
  8 12  1  0  0  0  0
  8  7  1  1  0  0  0
  9 11  1  0  0  0  0
 10  4  1  1  0  0  0
 10 11  1  0  0  0  0
 12  6  1  1  0  0  0
 12 10  1  0  0  0  0
 13 15  1  0  0  0  0
 13  8  1  1  0  0  0
 14 23  1  6  0  0  0
 14 13  1  0  0  0  0
 14 15  1  0  0  0  0
 15 17  1  6  0  0  0
 17 16  2  6  0  0  0
 17 19  1  0  0  0  0
 18 17  1  0  0  0  0
 20 22  1  0  0  0  0
 21 19  1  6  0  0  0
 21 20  1  0  0  0  0
 21 22  1  0  0  0  0
 24 27  1  1  0  0  0
 24 23  1  0  0  0  0
 25 26  1  0  0  0  0
 25 24  1  0  0  0  0
 28 27  1  0  0  0  0
 28 30  1  0  0  0  0
 29 28  2  0  0  0  0
 32 57  1  6  0  0  0
 32 31  1  0  0  0  0
 33 35  1  0  0  0  0
 35 34  1  0  0  0  0
 36 39  1  1  0  0  0
 36 33  1  0  0  0  0
 36 38  1  0  0  0  0
 37 32  1  0  0  0  0
 37 34  1  0  0  0  0
 38 37  2  0  0  0  0
 40 39  1  0  0  0  0
 42 41  1  1  0  0  0
 42 46  1  0  0  0  0
 42 40  1  0  0  0  0
 44 45  1  0  0  0  0
 45 43  1  0  0  0  0
 46 48  1  6  0  0  0
 46 44  1  0  0  0  0
 46 47  1  0  0  0  0
 47 43  1  0  0  0  0
 49 51  1  0  0  0  0
 50 51  1  0  0  0  0
 51 48  1  0  0  0  0
 52 42  1  0  0  0  0
 53 54  1  0  0  0  0
 54 52  1  0  0  0  0
 56 57  2  0  0  0  0
 57 55  1  0  0  0  0
M  END
>  <MODEL>
8

>  <REMARK>
 VINA RESULT:      -4.5      3.236      8.040
  Name = 
  24 active torsions:
  status: ('A' for Active; 'I' for Inactive)
    1  A    between atoms: C_1  and  C_29
    2  A    between atoms: C_5  and  C_18
    3  A    between atoms: C_5  and  C_34
    4  A    between atoms: C_7  and  C_15
    5  A    between atoms: C_7  and  C_27
    6  A    between atoms: S_11  and  C_13
    7  A    between atoms: S_11  and  C_52
    8  A    between atoms: C_15  and  C_55
    9  A    between atoms: C_16  and  O_38
   10  A    between atoms: P_17  and  C_44
   11  A    between atoms: P_17  and  C_57
   12  A    between atoms: C_18  and  C_41
   13  A    between atoms: O_19  and  C_30
   14  A    between atoms: C_23  and  C_25
   15  A    between atoms: C_28  and  C_39
   16  A    between atoms: C_29  and  C_30
   17  A    between atoms: C_30  and  C_39
   18  A    between atoms: C_31  and  C_52
   19  A    between atoms: C_37  and  C_42
   20  A    between atoms: O_38  and  C_55
   21  A    between atoms: C_42  and  C_54
   22  A    between atoms: C_46  and  C_57
   23  A    between atoms: C_48  and  C_52
   24  A    between atoms: C_54  and  C_55
                            x       y       z     vdW  Elec       q    Type
                         _______ _______ _______ _____ _____    ______ ____

>  <TORSDO>
F 24

$$$$
=
 OpenBabel11042418033D

 57 61  0  0  1  0  0  0  0  0999 V2000
  191.9200  173.9890  143.6100 C   0  0  0  0  0  3  0  0  0  0  0  0
  192.1710  173.8360  142.3040 C   0  0  0  0  0  3  0  0  0  0  0  0
  193.3390  173.0640  141.7730 C   0  0  0  0  0  2  0  0  0  0  0  0
  194.5420  173.9560  141.5020 C   0  0  1  0  0  3  0  0  0  0  0  0
  195.6050  173.5470  142.3100 O   0  0  0  0  0  1  0  0  0  0  0  0
  193.8570  175.8780  139.4130 F   0  0  0  0  0  0  0  0  0  0  0  0
  195.8260  174.6270  137.4250 C   0  0  0  0  0  3  0  0  0  0  0  0
  194.3580  174.3470  137.6420 C   0  0  2  0  0  3  0  0  0  0  0  0
  196.7010  174.6190  138.4350 C   0  0  0  0  0  3  0  0  0  0  0  0
  194.9270  173.8260  140.0320 C   0  0  2  0  0  3  0  0  0  0  0  0
  196.2720  174.3380  139.7760 N   0  0  0  0  0  2  0  0  0  0  0  0
  193.9230  174.5280  139.1110 C   0  0  1  0  0  3  0  0  0  0  0  0
  193.9090  173.0490  136.9360 C   0  0  2  0  0  3  0  0  0  0  0  0
  192.7720  172.3290  137.6500 C   0  0  2  0  0  3  0  0  0  0  0  0
  194.2140  171.8110  137.7710 C   0  0  1  0  0  3  0  0  0  0  0  0
  193.7210  169.0540  137.1120 O   0  0  0  0  0  1  0  0  0  0  0  0
  194.6610  170.3960  136.6930 P   0  0  1  0  0  0  0  0  0  0  0  0
  194.4440  170.7300  135.2320 O   0  0  0  0  0  0  0  0  0  0  0  0
  196.4140  170.0000  136.9590 C   0  0  0  0  0  2  0  0  0  0  0  0
  197.8650  170.6190  138.8300 C   0  0  0  0  0  2  0  0  0  0  0  0
  196.6800  169.8360  138.4410 C   0  0  2  0  0  3  0  0  0  0  0  0
  197.9360  169.2350  138.6160 O   0  0  0  0  0  0  0  0  0  0  0  0
  191.8830  171.6210  136.6360 C   0  0  0  0  0  2  0  0  0  0  0  0
  190.4390  171.5880  137.1230 C   0  0  2  0  0  3  0  0  0  0  0  0
  189.9070  170.2970  137.0050 O   0  0  0  0  0  0  0  0  0  0  0  0
  190.0120  169.7490  138.2880 C   0  0  0  0  0  1  0  0  0  0  0  0
  189.5820  172.5920  136.3490 C   0  0  0  0  0  2  0  0  0  0  0  0
  188.9550  173.6170  137.2360 C   0  0  0  0  0  0  0  0  0  0  0  0
  188.4830  174.6720  136.7460 O   0  0  0  0  0  0  0  0  0  0  0  0
  188.9330  173.4210  138.6090 O   0  0  0  0  0  1  0  0  0  0  0  0
  192.9080  173.2190  144.9040 S   0  0  0  0  0  0  0  0  0  0  0  0
  192.8800  174.6420  146.0620 C   0  0  2  0  0  3  0  0  0  0  0  0
  189.3260  177.1330  146.4180 C   0  0  0  0  0  2  0  0  0  0  0  0
  190.3380  174.8470  146.6660 C   0  0  0  0  0  2  0  0  0  0  0  0
  189.0740  175.6300  146.3140 C   0  0  0  0  0  2  0  0  0  0  0  0
  190.4190  177.5430  145.4260 C   0  0  1  0  0  3  0  0  0  0  0  0
  191.6060  175.4360  146.0820 C   0  0  0  0  0  0  0  0  0  0  0  0
  191.6440  176.6840  145.5850 C   0  0  0  0  0  3  0  0  0  0  0  0
  189.9290  177.4210  143.9880 C   0  0  0  0  0  2  0  0  0  0  0  0
  188.7050  178.2940  143.7380 C   0  0  0  0  0  2  0  0  0  0  0  0
  187.8190  177.8710  141.4730 C   0  0  0  0  0  1  0  0  0  0  0  0
  187.5850  177.5640  142.9510 C   0  0  2  0  0  0  0  0  0  0  0  0
  185.6350  178.9720  145.5120 C   0  0  0  0  0  2  0  0  0  0  0  0
  186.0390  179.4550  143.2430 O   0  0  0  0  0  0  0  0  0  0  0  0
  185.3700  179.9260  144.3830 C   0  0  0  0  0  2  0  0  0  0  0  0
  186.1370  178.0480  143.3610 C   0  0  2  0  0  0  0  0  0  0  0  0
  185.8240  177.6730  144.8070 C   0  0  0  0  0  2  0  0  0  0  0  0
  185.0490  177.3790  142.4990 C   0  0  0  0  0  2  0  0  0  0  0  0
  184.3970  177.9590  140.1850 C   0  0  0  0  0  1  0  0  0  0  0  0
  182.7780  178.2780  142.0180 C   0  0  0  0  0  1  0  0  0  0  0  0
  184.2430  178.3450  141.6390 C   0  0  0  0  0  3  0  0  0  0  0  0
  187.7230  176.1540  143.0660 O   0  0  0  0  0  0  0  0  0  0  0  0
  188.0830  174.0850  141.9410 C   0  0  0  0  0  1  0  0  0  0  0  0
  188.2120  175.5920  141.8740 C   0  0  0  0  0  2  0  0  0  0  0  0
  195.0420  175.2220  145.1940 O   0  0  0  0  0  0  0  0  0  0  0  0
  194.2610  176.5490  146.8820 O   0  0  0  0  0  1  0  0  0  0  0  0
  194.1180  175.4850  146.0060 C   0  0  0  0  0  0  0  0  0  0  0  0
  1 31  1  0  0  0  0
  2  1  2  0  0  0  0
  3  2  1  0  0  0  0
  4  3  1  0  0  0  0
  4  5  1  1  0  0  0
  7  9  2  0  0  0  0
  8  7  1  1  0  0  0
  8 12  1  0  0  0  0
  9 11  1  0  0  0  0
 10  4  1  1  0  0  0
 11 10  1  0  0  0  0
 12  6  1  1  0  0  0
 12 10  1  0  0  0  0
 13  8  1  1  0  0  0
 13 14  1  0  0  0  0
 13 15  1  0  0  0  0
 14 23  1  6  0  0  0
 14 15  1  0  0  0  0
 15 17  1  6  0  0  0
 17 18  2  6  0  0  0
 17 19  1  0  0  0  0
 17 16  1  0  0  0  0
 21 19  1  6  0  0  0
 21 22  1  0  0  0  0
 21 20  1  0  0  0  0
 22 20  1  0  0  0  0
 23 24  1  0  0  0  0
 24 27  1  6  0  0  0
 25 24  1  0  0  0  0
 25 26  1  0  0  0  0
 27 28  1  0  0  0  0
 28 30  1  0  0  0  0
 29 28  2  0  0  0  0
 32 31  1  6  0  0  0
 32 37  1  0  0  0  0
 35 33  1  0  0  0  0
 35 34  1  0  0  0  0
 36 39  1  6  0  0  0
 36 38  1  0  0  0  0
 36 33  1  0  0  0  0
 37 34  1  0  0  0  0
 38 37  2  0  0  0  0
 40 39  1  0  0  0  0
 42 41  1  6  0  0  0
 42 52  1  0  0  0  0
 42 46  1  0  0  0  0
 42 40  1  0  0  0  0
 44 46  1  0  0  0  0
 44 45  1  0  0  0  0
 45 43  1  0  0  0  0
 46 48  1  6  0  0  0
 46 47  1  0  0  0  0
 47 43  1  0  0  0  0
 49 51  1  0  0  0  0
 51 50  1  0  0  0  0
 51 48  1  0  0  0  0
 54 53  1  0  0  0  0
 54 52  1  0  0  0  0
 55 57  2  0  0  0  0
 57 32  1  0  0  0  0
 57 56  1  0  0  0  0
M  END
>  <MODEL>
9

>  <REMARK>
 VINA RESULT:      -4.5      2.893      9.301
  Name = 
  24 active torsions:
  status: ('A' for Active; 'I' for Inactive)
    1  A    between atoms: C_1  and  C_29
    2  A    between atoms: C_5  and  C_18
    3  A    between atoms: C_5  and  C_34
    4  A    between atoms: C_7  and  C_15
    5  A    between atoms: C_7  and  C_27
    6  A    between atoms: S_11  and  C_13
    7  A    between atoms: S_11  and  C_52
    8  A    between atoms: C_15  and  C_55
    9  A    between atoms: C_16  and  O_38
   10  A    between atoms: P_17  and  C_44
   11  A    between atoms: P_17  and  C_57
   12  A    between atoms: C_18  and  C_41
   13  A    between atoms: O_19  and  C_30
   14  A    between atoms: C_23  and  C_25
   15  A    between atoms: C_28  and  C_39
   16  A    between atoms: C_29  and  C_30
   17  A    between atoms: C_30  and  C_39
   18  A    between atoms: C_31  and  C_52
   19  A    between atoms: C_37  and  C_42
   20  A    between atoms: O_38  and  C_55
   21  A    between atoms: C_42  and  C_54
   22  A    between atoms: C_46  and  C_57
   23  A    between atoms: C_48  and  C_52
   24  A    between atoms: C_54  and  C_55
                            x       y       z     vdW  Elec       q    Type
                         _______ _______ _______ _____ _____    ______ ____

>  <TORSDO>
F 24

$$$$
