=
 OpenBabel11042418053D

 45 50  0  0  1  0  0  0  0  0999 V2000
  193.7630  174.0380  145.2040 N   0  0  0  0  0  2  0  0  0  0  0  0
  192.9020  171.8630  144.7060 N   0  0  0  0  0  0  0  0  0  0  0  0
  195.9930  174.5960  145.9420 N   0  0  0  0  0  0  0  0  0  0  0  0
  193.8230  172.6090  145.2360 C   0  0  0  0  0  3  0  0  0  0  0  0
  194.7340  174.9080  145.8060 C   0  0  0  0  0  0  0  0  0  0  0  0
  195.2030  174.9200  141.1840 C   0  0  0  0  0  3  0  0  0  0  0  0
  196.4680  172.6260  142.0870 C   0  0  0  0  0  0  0  0  0  0  0  0
  196.4800  173.7650  142.8490 C   0  0  0  0  0  0  0  0  0  0  0  0
  196.6820  173.4810  145.3650 C   0  0  1  0  0  3  0  0  0  0  0  0
  195.7890  172.5670  140.8730 C   0  0  0  0  0  3  0  0  0  0  0  0
  196.8020  172.2830  145.9420 C   0  0  0  0  0  2  0  0  0  0  0  0
  197.5850  172.0470  143.8530 C   0  0  0  0  0  0  0  0  0  0  0  0
  197.1030  171.5490  142.7550 N   0  0  0  0  0  0  0  0  0  0  0  0
  197.3410  173.5140  144.0300 C   0  0  1  0  0  3  0  0  0  0  0  0
  195.1540  173.7360  140.4190 C   0  0  0  0  0  3  0  0  0  0  0  0
  195.8800  174.9440  142.4130 C   0  0  0  0  0  3  0  0  0  0  0  0
  197.4370  171.3440  145.0770 N   0  0  0  0  0  2  0  0  0  0  0  0
  190.6760  172.6210  144.7270 O   0  0  0  0  0  0  0  0  0  0  0  0
  191.7050  172.3220  144.0590 C   0  0  0  0  0  0  0  0  0  0  0  0
  190.4570  173.0100  140.0620 N   0  0  0  0  0  0  0  0  0  0  0  0
  189.6010  172.3310  141.0340 C   0  0  0  0  0  2  0  0  0  0  0  0
  191.7380  173.7850  142.0300 C   0  0  0  0  0  2  0  0  0  0  0  0
  190.7980  173.6090  137.8260 O   0  0  0  0  0  0  0  0  0  0  0  0
  190.1140  172.9670  138.6710 C   0  0  0  0  0  0  0  0  0  0  0  0
  189.0340  172.2100  138.2370 O   0  0  0  0  0  1  0  0  0  0  0  0
  190.4440  171.5640  142.0560 C   0  0  0  0  0  2  0  0  0  0  0  0
  191.6150  173.7930  140.5080 C   0  0  0  0  0  2  0  0  0  0  0  0
  191.6630  172.3530  142.5660 C   0  0  0  0  0  3  0  0  0  0  0  0
  194.1780  176.4910  146.4240 S   0  0  0  0  0  0  0  0  0  0  0  0
  192.5090  175.8780  146.8130 C   0  0  0  0  0  2  0  0  0  0  0  0
  190.1140  176.3010  146.1110 C   0  0  0  0  0  0  0  0  0  0  0  0
  191.5120  176.5850  146.0230 N   0  0  0  0  0  2  0  0  0  0  0  0
  189.6830  175.4480  146.9360 O   0  0  0  0  0  0  0  0  0  0  0  0
  188.7180  175.4640  143.4060 C   0  0  1  0  0  3  0  0  0  0  0  0
  187.9730  176.1050  141.4750 C   0  0  1  0  0  3  0  0  0  0  0  0
  189.9100  177.9250  144.2120 C   0  0  0  0  0  2  0  0  0  0  0  0
  189.1790  176.4700  142.3450 C   0  0  1  0  0  3  0  0  0  0  0  0
  189.2150  177.9120  142.8620 C   0  0  0  0  0  2  0  0  0  0  0  0
  189.1670  177.0360  145.2210 C   0  0  1  0  0  3  0  0  0  0  0  0
  188.1830  176.1250  144.6060 N   0  0  0  0  0  2  0  0  0  0  0  0
  187.5580  175.0650  142.5070 C   0  0  0  0  0  2  0  0  0  0  0  0
  186.9750  177.1690  141.4270 N   0  0  0  0  0  2  0  0  0  0  0  0
  186.2990  177.5250  140.2210 C   0  0  0  0  0  0  0  0  0  0  0  0
  185.3900  178.3930  140.2530 O   0  0  0  0  0  1  0  0  0  0  0  0
  186.6330  176.9180  139.0150 O   0  0  0  0  0  0  0  0  0  0  0  0
  1  4  1  0  0  0  0
  1  5  1  0  0  0  0
  2  4  2  0  0  0  0
  5  3  2  0  0  0  0
  5 29  1  0  0  0  0
  6 16  1  0  0  0  0
  7 13  1  0  0  0  0
  7  8  1  0  0  0  0
  9  3  1  6  0  0  0
  9 11  1  0  0  0  0
 10  7  2  0  0  0  0
 12 14  1  0  0  0  0
 12 17  1  0  0  0  0
 13 12  2  0  0  0  0
 14  8  1  6  0  0  0
 14  9  1  0  0  0  0
 15 10  1  0  0  0  0
 15  6  2  0  0  0  0
 16  8  2  0  0  0  0
 17 11  1  0  0  0  0
 19  2  1  0  0  0  0
 19 18  2  0  0  0  0
 20 27  1  0  0  0  0
 20 21  1  0  0  0  0
 21 26  1  0  0  0  0
 22 28  1  0  0  0  0
 23 24  2  0  0  0  0
 24 20  1  0  0  0  0
 25 24  1  0  0  0  0
 26 28  1  0  0  0  0
 27 22  1  0  0  0  0
 28 19  1  0  0  0  0
 29 30  1  0  0  0  0
 31 33  2  0  0  0  0
 32 31  1  0  0  0  0
 32 30  1  0  0  0  0
 34 41  1  6  0  0  0
 34 40  1  0  0  0  0
 35 42  1  1  0  0  0
 35 37  1  0  0  0  0
 35 41  1  0  0  0  0
 36 39  1  0  0  0  0
 37 38  1  1  0  0  0
 37 34  1  0  0  0  0
 38 36  1  0  0  0  0
 39 31  1  6  0  0  0
 40 39  1  0  0  0  0
 43 44  1  0  0  0  0
 43 42  1  0  0  0  0
 45 43  2  0  0  0  0
M  END
>  <MODEL>
1

>  <REMARK>
 VINA RESULT:      -7.6      0.000      0.000
  Name = 
  8 active torsions:
  status: ('A' for Active; 'I' for Inactive)
    1  A    between atoms: C_1  and  C_28
    2  A    between atoms: S_9  and  C_17
    3  A    between atoms: S_9  and  C_39
    4  A    between atoms: C_12  and  N_18
    5  A    between atoms: C_17  and  N_33
    6  A    between atoms: C_19  and  N_26
    7  A    between atoms: N_22  and  C_23
    8  A    between atoms: C_23  and  C_36
                            x       y       z     vdW  Elec       q    Type
                         _______ _______ _______ _____ _____    ______ ____

>  <TORSDO>
F 8

$$$$
=
 OpenBabel11042418053D

 45 50  0  0  1  0  0  0  0  0999 V2000
  193.3190  173.8910  145.2250 N   0  0  0  0  0  2  0  0  0  0  0  0
  192.0660  175.9290  145.2170 N   0  0  0  0  0  0  0  0  0  0  0  0
  195.0540  173.2340  143.6790 N   0  0  0  0  0  0  0  0  0  0  0  0
  192.8640  175.1010  144.6120 C   0  0  0  0  0  3  0  0  0  0  0  0
  194.1700  172.9260  144.5860 C   0  0  0  0  0  0  0  0  0  0  0  0
  195.2890  173.1550  138.8520 C   0  0  0  0  0  3  0  0  0  0  0  0
  196.2910  175.4090  140.1150 C   0  0  0  0  0  0  0  0  0  0  0  0
  195.3950  174.5980  140.7610 C   0  0  0  0  0  0  0  0  0  0  0  0
  195.4930  174.5430  143.2990 C   0  0  1  0  0  3  0  0  0  0  0  0
  196.7590  175.1080  138.8390 C   0  0  0  0  0  3  0  0  0  0  0  0
  196.3550  175.2860  143.9960 C   0  0  0  0  0  2  0  0  0  0  0  0
  196.0470  176.3570  142.0490 C   0  0  0  0  0  0  0  0  0  0  0  0
  196.7360  176.4610  140.9530 N   0  0  0  0  0  0  0  0  0  0  0  0
  195.0540  175.2360  142.0550 C   0  0  1  0  0  3  0  0  0  0  0  0
  196.2430  173.9660  138.2030 C   0  0  0  0  0  3  0  0  0  0  0  0
  194.8480  173.4740  140.1460 C   0  0  0  0  0  3  0  0  0  0  0  0
  196.6890  176.4890  143.3080 N   0  0  0  0  0  2  0  0  0  0  0  0
  192.0510  175.0070  147.3800 O   0  0  0  0  0  0  0  0  0  0  0  0
  191.5050  175.7620  146.5280 C   0  0  0  0  0  0  0  0  0  0  0  0
  187.5190  177.1910  146.2410 N   0  0  0  0  0  0  0  0  0  0  0  0
  188.5190  177.4730  145.2110 C   0  0  0  0  0  2  0  0  0  0  0  0
  189.0690  175.4090  146.9740 C   0  0  0  0  0  2  0  0  0  0  0  0
  185.3810  177.6400  147.0780 O   0  0  0  0  0  1  0  0  0  0  0  0
  186.2860  177.9210  146.2430 C   0  0  0  0  0  0  0  0  0  0  0  0
  186.0780  178.9520  145.3370 O   0  0  0  0  0  0  0  0  0  0  0  0
  189.9210  177.5420  145.8210 C   0  0  0  0  0  2  0  0  0  0  0  0
  187.7400  176.1200  147.2190 C   0  0  0  0  0  2  0  0  0  0  0  0
  190.2040  176.4270  146.8430 C   0  0  0  0  0  3  0  0  0  0  0  0
  193.9850  171.2070  145.0460 S   0  0  0  0  0  0  0  0  0  0  0  0
  192.8580  170.8440  143.6630 C   0  0  0  0  0  2  0  0  0  0  0  0
  190.5060  171.4250  142.9310 C   0  0  0  0  0  0  0  0  0  0  0  0
  191.6260  171.6070  143.7990 N   0  0  0  0  0  2  0  0  0  0  0  0
  190.5270  170.5380  142.0330 O   0  0  0  0  0  0  0  0  0  0  0  0
  189.4200  173.8580  141.2380 C   0  0  1  0  0  3  0  0  0  0  0  0
  188.3890  175.7630  141.2550 C   0  0  1  0  0  3  0  0  0  0  0  0
  189.5830  173.4670  144.0570 C   0  0  0  0  0  2  0  0  0  0  0  0
  189.3940  175.0700  142.1780 C   0  0  1  0  0  3  0  0  0  0  0  0
  188.8840  174.7280  143.5820 C   0  0  0  0  0  2  0  0  0  0  0  0
  189.3020  172.2910  143.1080 C   0  0  1  0  0  3  0  0  0  0  0  0
  188.7290  172.6940  141.8100 N   0  0  0  0  0  2  0  0  0  0  0  0
  188.4690  174.5820  140.2980 C   0  0  0  0  0  2  0  0  0  0  0  0
  187.0510  175.8300  141.8350 N   0  0  0  0  0  2  0  0  0  0  0  0
  186.4270  177.0700  142.1690 C   0  0  0  0  0  0  0  0  0  0  0  0
  185.2420  177.0750  142.5900 O   0  0  0  0  0  1  0  0  0  0  0  0
  187.1140  178.2700  142.0290 O   0  0  0  0  0  0  0  0  0  0  0  0
  2 19  1  0  0  0  0
  3  5  2  0  0  0  0
  4  2  2  0  0  0  0
  4  1  1  0  0  0  0
  5 29  1  0  0  0  0
  5  1  1  0  0  0  0
  6 16  1  0  0  0  0
  7  8  1  0  0  0  0
  7 13  1  0  0  0  0
  9  3  1  6  0  0  0
  9 11  1  0  0  0  0
 10  7  2  0  0  0  0
 12 14  1  0  0  0  0
 12 17  1  0  0  0  0
 13 12  2  0  0  0  0
 14  8  1  6  0  0  0
 14  9  1  0  0  0  0
 15 10  1  0  0  0  0
 15  6  2  0  0  0  0
 16  8  2  0  0  0  0
 17 11  1  0  0  0  0
 19 28  1  0  0  0  0
 19 18  2  0  0  0  0
 20 24  1  0  0  0  0
 20 27  1  0  0  0  0
 21 26  1  0  0  0  0
 21 20  1  0  0  0  0
 22 27  1  0  0  0  0
 24 23  1  0  0  0  0
 25 24  2  0  0  0  0
 26 28  1  0  0  0  0
 28 22  1  0  0  0  0
 30 32  1  0  0  0  0
 30 29  1  0  0  0  0
 31 32  1  0  0  0  0
 33 31  2  0  0  0  0
 34 41  1  6  0  0  0
 34 40  1  0  0  0  0
 34 37  1  0  0  0  0
 35 42  1  1  0  0  0
 35 37  1  0  0  0  0
 37 38  1  1  0  0  0
 38 36  1  0  0  0  0
 39 31  1  6  0  0  0
 39 36  1  0  0  0  0
 40 39  1  0  0  0  0
 41 35  1  0  0  0  0
 42 43  1  0  0  0  0
 43 44  1  0  0  0  0
 45 43  2  0  0  0  0
M  END
>  <MODEL>
2

>  <REMARK>
 VINA RESULT:      -7.4      2.361      5.082
  Name = 
  8 active torsions:
  status: ('A' for Active; 'I' for Inactive)
    1  A    between atoms: C_1  and  C_28
    2  A    between atoms: S_9  and  C_17
    3  A    between atoms: S_9  and  C_39
    4  A    between atoms: C_12  and  N_18
    5  A    between atoms: C_17  and  N_33
    6  A    between atoms: C_19  and  N_26
    7  A    between atoms: N_22  and  C_23
    8  A    between atoms: C_23  and  C_36
                            x       y       z     vdW  Elec       q    Type
                         _______ _______ _______ _____ _____    ______ ____

>  <TORSDO>
F 8

$$$$
=
 OpenBabel11042418053D

 45 50  0  0  1  0  0  0  0  0999 V2000
  191.9070  173.9990  141.7440 N   0  0  0  0  0  2  0  0  0  0  0  0
  189.6730  173.6820  142.5380 N   0  0  0  0  0  0  0  0  0  0  0  0
  193.8970  172.8410  142.4730 N   0  0  0  0  0  0  0  0  0  0  0  0
  190.9500  173.4950  142.6810 C   0  0  0  0  0  3  0  0  0  0  0  0
  193.3300  173.8520  141.8760 C   0  0  0  0  0  0  0  0  0  0  0  0
  196.5350  171.3390  146.2350 C   0  0  0  0  0  3  0  0  0  0  0  0
  194.5770  169.6090  145.3120 C   0  0  0  0  0  0  0  0  0  0  0  0
  194.5010  170.9480  145.0320 C   0  0  0  0  0  0  0  0  0  0  0  0
  193.2760  171.6280  142.9120 C   0  0  1  0  0  3  0  0  0  0  0  0
  195.6500  169.0710  146.0180 C   0  0  0  0  0  3  0  0  0  0  0  0
  192.6990  170.7360  142.1040 C   0  0  0  0  0  2  0  0  0  0  0  0
  192.7660  169.7820  144.1340 C   0  0  0  0  0  0  0  0  0  0  0  0
  193.5260  168.8890  144.6910 N   0  0  0  0  0  0  0  0  0  0  0  0
  193.2150  171.1960  144.3370 C   0  0  1  0  0  3  0  0  0  0  0  0
  196.6360  169.9560  146.4870 C   0  0  0  0  0  3  0  0  0  0  0  0
  195.4510  171.8510  145.5040 C   0  0  0  0  0  3  0  0  0  0  0  0
  192.2750  169.5760  142.8180 N   0  0  0  0  0  2  0  0  0  0  0  0
  189.2230  174.1210  140.2710 O   0  0  0  0  0  0  0  0  0  0  0  0
  189.0360  174.4200  141.4840 C   0  0  0  0  0  0  0  0  0  0  0  0
  185.8370  177.1960  141.7550 N   0  0  0  0  0  0  0  0  0  0  0  0
  186.3520  176.7320  140.4670 C   0  0  0  0  0  2  0  0  0  0  0  0
  187.0110  175.2370  142.7040 C   0  0  0  0  0  2  0  0  0  0  0  0
  184.4480  178.6980  142.8890 O   0  0  0  0  0  1  0  0  0  0  0  0
  184.9620  178.3290  141.7960 C   0  0  0  0  0  0  0  0  0  0  0  0
  184.6800  179.0410  140.6380 O   0  0  0  0  0  0  0  0  0  0  0  0
  187.8430  176.3990  140.5680 C   0  0  0  0  0  2  0  0  0  0  0  0
  186.1490  176.4640  142.9890 C   0  0  0  0  0  2  0  0  0  0  0  0
  188.2150  175.6170  141.8400 C   0  0  0  0  0  3  0  0  0  0  0  0
  194.3740  175.1390  141.2050 S   0  0  0  0  0  0  0  0  0  0  0  0
  194.9580  175.6740  142.8440 C   0  0  0  0  0  2  0  0  0  0  0  0
  193.3110  176.0130  144.7360 C   0  0  0  0  0  0  0  0  0  0  0  0
  193.9270  176.4470  143.5220 N   0  0  0  0  0  2  0  0  0  0  0  0
  193.6860  174.9490  145.3030 O   0  0  0  0  0  0  0  0  0  0  0  0
  190.5560  175.2050  146.0500 C   0  0  1  0  0  3  0  0  0  0  0  0
  188.4810  175.7310  146.3810 C   0  0  1  0  0  3  0  0  0  0  0  0
  191.2260  177.3250  144.2660 C   0  0  0  0  0  2  0  0  0  0  0  0
  189.4580  175.8700  145.2110 C   0  0  1  0  0  3  0  0  0  0  0  0
  189.8050  177.3050  144.8000 C   0  0  0  0  0  2  0  0  0  0  0  0
  192.2210  176.8420  145.3330 C   0  0  1  0  0  3  0  0  0  0  0  0
  191.5870  176.1610  146.4780 N   0  0  0  0  0  2  0  0  0  0  0  0
  189.5600  175.0160  147.1830 C   0  0  0  0  0  2  0  0  0  0  0  0
  188.1750  177.0120  147.0100 N   0  0  0  0  0  2  0  0  0  0  0  0
  186.8370  177.4840  147.1660 C   0  0  0  0  0  0  0  0  0  0  0  0
  186.6250  178.5560  147.7880 O   0  0  0  0  0  1  0  0  0  0  0  0
  185.7660  176.7670  146.6430 O   0  0  0  0  0  0  0  0  0  0  0  0
  1  5  1  0  0  0  0
  1  4  1  0  0  0  0
  2  4  2  0  0  0  0
  5  3  2  0  0  0  0
  6 15  1  0  0  0  0
  7 10  1  0  0  0  0
  8  7  2  0  0  0  0
  8 16  1  0  0  0  0
  9  3  1  6  0  0  0
  9 14  1  0  0  0  0
 10 15  2  0  0  0  0
 11 17  1  0  0  0  0
 11  9  1  0  0  0  0
 12 13  2  0  0  0  0
 13  7  1  0  0  0  0
 14 12  1  6  0  0  0
 14  8  1  0  0  0  0
 16  6  2  0  0  0  0
 17 12  1  0  0  0  0
 18 19  2  0  0  0  0
 19 28  1  0  0  0  0
 19  2  1  0  0  0  0
 20 24  1  0  0  0  0
 20 27  1  0  0  0  0
 21 26  1  0  0  0  0
 21 20  1  0  0  0  0
 22 27  1  0  0  0  0
 24 23  1  0  0  0  0
 25 24  2  0  0  0  0
 26 28  1  0  0  0  0
 28 22  1  0  0  0  0
 29  5  1  0  0  0  0
 29 30  1  0  0  0  0
 30 32  1  0  0  0  0
 31 33  2  0  0  0  0
 32 31  1  0  0  0  0
 34 40  1  0  0  0  0
 34 41  1  1  0  0  0
 35 42  1  1  0  0  0
 35 41  1  0  0  0  0
 36 38  1  0  0  0  0
 36 39  1  0  0  0  0
 37 38  1  1  0  0  0
 37 34  1  0  0  0  0
 37 35  1  0  0  0  0
 39 31  1  6  0  0  0
 39 40  1  0  0  0  0
 42 43  1  0  0  0  0
 43 44  1  0  0  0  0
 45 43  2  0  0  0  0
M  END
>  <MODEL>
3

>  <REMARK>
 VINA RESULT:      -7.3      2.495      5.379
  Name = 
  8 active torsions:
  status: ('A' for Active; 'I' for Inactive)
    1  A    between atoms: C_1  and  C_28
    2  A    between atoms: S_9  and  C_17
    3  A    between atoms: S_9  and  C_39
    4  A    between atoms: C_12  and  N_18
    5  A    between atoms: C_17  and  N_33
    6  A    between atoms: C_19  and  N_26
    7  A    between atoms: N_22  and  C_23
    8  A    between atoms: C_23  and  C_36
                            x       y       z     vdW  Elec       q    Type
                         _______ _______ _______ _____ _____    ______ ____

>  <TORSDO>
F 8

$$$$
=
 OpenBabel11042418053D

 45 50  0  0  1  0  0  0  0  0999 V2000
  191.1400  174.9210  143.6780 N   0  0  0  0  0  2  0  0  0  0  0  0
  192.5140  176.8760  143.5720 N   0  0  0  0  0  0  0  0  0  0  0  0
  188.7280  174.8300  143.7670 N   0  0  0  0  0  0  0  0  0  0  0  0
  191.3550  176.3310  143.7910 C   0  0  0  0  0  3  0  0  0  0  0  0
  189.8900  174.2650  143.9450 C   0  0  0  0  0  0  0  0  0  0  0  0
  185.6900  177.1920  146.6910 C   0  0  0  0  0  3  0  0  0  0  0  0
  186.1540  178.3150  144.2020 C   0  0  0  0  0  0  0  0  0  0  0  0
  187.0510  177.4260  144.7340 C   0  0  0  0  0  0  0  0  0  0  0  0
  188.4540  176.0710  143.1080 C   0  0  1  0  0  3  0  0  0  0  0  0
  184.9730  178.6440  144.8610 C   0  0  0  0  0  3  0  0  0  0  0  0
  188.3590  176.2220  141.7850 C   0  0  0  0  0  2  0  0  0  0  0  0
  187.6920  178.1680  142.6810 C   0  0  0  0  0  0  0  0  0  0  0  0
  186.5350  178.7170  142.8960 N   0  0  0  0  0  0  0  0  0  0  0  0
  188.2190  177.3560  143.8240 C   0  0  1  0  0  3  0  0  0  0  0  0
  184.7470  178.0740  146.1250 C   0  0  0  0  0  3  0  0  0  0  0  0
  186.8650  176.8650  145.9960 C   0  0  0  0  0  3  0  0  0  0  0  0
  187.9620  177.5450  141.4340 N   0  0  0  0  0  2  0  0  0  0  0  0
  194.4350  175.6350  144.1190 O   0  0  0  0  0  0  0  0  0  0  0  0
  193.7260  176.1860  143.2310 C   0  0  0  0  0  0  0  0  0  0  0  0
  195.8000  175.2890  139.6390 N   0  0  0  0  0  0  0  0  0  0  0  0
  196.5040  175.5890  140.8850 C   0  0  0  0  0  2  0  0  0  0  0  0
  193.8250  174.9150  141.0790 C   0  0  0  0  0  2  0  0  0  0  0  0
  195.9540  174.9420  137.3300 O   0  0  0  0  0  0  0  0  0  0  0  0
  196.5280  175.2720  138.4050 C   0  0  0  0  0  0  0  0  0  0  0  0
  197.8700  175.6300  138.3760 O   0  0  0  0  0  1  0  0  0  0  0  0
  195.6880  176.5520  141.7500 C   0  0  0  0  0  2  0  0  0  0  0  0
  194.3770  174.9320  139.6550 C   0  0  0  0  0  2  0  0  0  0  0  0
  194.1900  176.2090  141.8110 C   0  0  0  0  0  3  0  0  0  0  0  0
  189.9350  172.5930  144.5770 S   0  0  0  0  0  0  0  0  0  0  0  0
  188.9760  171.9220  143.1830 C   0  0  0  0  0  2  0  0  0  0  0  0
  189.1990  172.4770  140.7240 C   0  0  0  0  0  0  0  0  0  0  0  0
  189.7500  171.9980  141.9520 N   0  0  0  0  0  2  0  0  0  0  0  0
  188.0150  172.9120  140.6770 O   0  0  0  0  0  0  0  0  0  0  0  0
  190.0380  170.1310  138.7850 C   0  0  1  0  0  3  0  0  0  0  0  0
  191.5680  169.3050  137.4930 C   0  0  1  0  0  3  0  0  0  0  0  0
  191.5400  172.3140  139.8370 C   0  0  0  0  0  2  0  0  0  0  0  0
  191.5690  170.0520  138.8290 C   0  0  1  0  0  3  0  0  0  0  0  0
  192.2410  171.4290  138.8220 C   0  0  0  0  0  2  0  0  0  0  0  0
  190.0490  172.4680  139.4950 C   0  0  1  0  0  3  0  0  0  0  0  0
  189.5590  171.4920  138.5040 N   0  0  0  0  0  2  0  0  0  0  0  0
  190.0460  169.3350  137.4900 C   0  0  0  0  0  2  0  0  0  0  0  0
  192.0740  170.1220  136.3950 N   0  0  0  0  0  2  0  0  0  0  0  0
  193.0740  169.6510  135.4910 C   0  0  0  0  0  0  0  0  0  0  0  0
  193.4150  170.3650  134.5140 O   0  0  0  0  0  0  0  0  0  0  0  0
  193.6690  168.4080  135.6780 O   0  0  0  0  0  1  0  0  0  0  0  0
  1  4  1  0  0  0  0
  1  5  1  0  0  0  0
  2  4  2  0  0  0  0
  3  5  2  0  0  0  0
  5 29  1  0  0  0  0
  7  8  2  0  0  0  0
  7 10  1  0  0  0  0
  8 16  1  0  0  0  0
  9  3  1  1  0  0  0
  9 14  1  0  0  0  0
 10 15  2  0  0  0  0
 11  9  1  0  0  0  0
 12 13  2  0  0  0  0
 13  7  1  0  0  0  0
 14 12  1  6  0  0  0
 14  8  1  0  0  0  0
 15  6  1  0  0  0  0
 16  6  2  0  0  0  0
 17 11  1  0  0  0  0
 17 12  1  0  0  0  0
 19  2  1  0  0  0  0
 19 18  2  0  0  0  0
 20 27  1  0  0  0  0
 20 21  1  0  0  0  0
 21 26  1  0  0  0  0
 22 28  1  0  0  0  0
 23 24  2  0  0  0  0
 24 20  1  0  0  0  0
 25 24  1  0  0  0  0
 26 28  1  0  0  0  0
 27 22  1  0  0  0  0
 28 19  1  0  0  0  0
 30 29  1  0  0  0  0
 31 32  1  0  0  0  0
 32 30  1  0  0  0  0
 33 31  2  0  0  0  0
 34 41  1  6  0  0  0
 34 37  1  0  0  0  0
 35 42  1  6  0  0  0
 35 37  1  0  0  0  0
 37 38  1  6  0  0  0
 38 36  1  0  0  0  0
 39 36  1  0  0  0  0
 39 31  1  1  0  0  0
 40 34  1  0  0  0  0
 40 39  1  0  0  0  0
 41 35  1  0  0  0  0
 43 45  1  0  0  0  0
 43 42  1  0  0  0  0
 44 43  2  0  0  0  0
M  END
>  <MODEL>
4

>  <REMARK>
 VINA RESULT:      -7.3      3.416      8.542
  Name = 
  8 active torsions:
  status: ('A' for Active; 'I' for Inactive)
    1  A    between atoms: C_1  and  C_28
    2  A    between atoms: S_9  and  C_17
    3  A    between atoms: S_9  and  C_39
    4  A    between atoms: C_12  and  N_18
    5  A    between atoms: C_17  and  N_33
    6  A    between atoms: C_19  and  N_26
    7  A    between atoms: N_22  and  C_23
    8  A    between atoms: C_23  and  C_36
                            x       y       z     vdW  Elec       q    Type
                         _______ _______ _______ _____ _____    ______ ____

>  <TORSDO>
F 8

$$$$
=
 OpenBabel11042418053D

 45 50  0  0  1  0  0  0  0  0999 V2000
  192.3080  174.2370  144.9540 N   0  0  0  0  0  2  0  0  0  0  0  0
  192.4390  176.4670  145.8090 N   0  0  0  0  0  0  0  0  0  0  0  0
  193.9120  173.1150  143.5390 N   0  0  0  0  0  0  0  0  0  0  0  0
  192.8590  175.5570  144.9820 C   0  0  0  0  0  3  0  0  0  0  0  0
  192.7100  173.2070  144.0360 C   0  0  0  0  0  0  0  0  0  0  0  0
  195.6580  175.0590  139.4730 C   0  0  0  0  0  3  0  0  0  0  0  0
  197.2190  175.3090  141.7480 C   0  0  0  0  0  0  0  0  0  0  0  0
  195.8750  175.0670  141.8580 C   0  0  0  0  0  0  0  0  0  0  0  0
  195.0780  173.8440  143.9370 C   0  0  1  0  0  3  0  0  0  0  0  0
  197.8470  175.3890  140.5080 C   0  0  0  0  0  3  0  0  0  0  0  0
  195.9130  173.4680  144.9080 C   0  0  0  0  0  2  0  0  0  0  0  0
  196.8920  175.2100  143.8890 C   0  0  0  0  0  0  0  0  0  0  0  0
  197.8480  175.3300  143.0180 N   0  0  0  0  0  0  0  0  0  0  0  0
  195.5200  175.1150  143.2970 C   0  0  1  0  0  3  0  0  0  0  0  0
  197.0480  175.2660  139.3580 C   0  0  0  0  0  3  0  0  0  0  0  0
  195.0540  174.9650  140.7370 C   0  0  0  0  0  3  0  0  0  0  0  0
  197.0440  174.3320  144.9940 N   0  0  0  0  0  2  0  0  0  0  0  0
  191.5180  175.5940  147.7880 O   0  0  0  0  0  0  0  0  0  0  0  0
  191.3780  176.3210  146.7650 C   0  0  0  0  0  0  0  0  0  0  0  0
  187.2900  177.4370  146.9810 N   0  0  0  0  0  0  0  0  0  0  0  0
  187.7070  176.0370  146.8990 C   0  0  0  0  0  2  0  0  0  0  0  0
  189.6320  177.8890  147.6310 C   0  0  0  0  0  2  0  0  0  0  0  0
  185.5210  178.9670  146.9090 O   0  0  0  0  0  1  0  0  0  0  0  0
  185.9140  177.7750  146.7680 C   0  0  0  0  0  0  0  0  0  0  0  0
  185.0000  176.7990  146.3930 O   0  0  0  0  0  0  0  0  0  0  0  0
  189.0150  175.9070  146.1150 C   0  0  0  0  0  2  0  0  0  0  0  0
  188.2520  178.4800  147.3530 C   0  0  0  0  0  2  0  0  0  0  0  0
  190.0630  176.9720  146.4840 C   0  0  0  0  0  3  0  0  0  0  0  0
  191.4860  172.0040  143.5330 S   0  0  0  0  0  0  0  0  0  0  0  0
  191.3390  172.6920  141.8540 C   0  0  0  0  0  2  0  0  0  0  0  0
  189.6750  174.5970  141.7750 C   0  0  0  0  0  0  0  0  0  0  0  0
  189.9980  173.2130  141.6340 N   0  0  0  0  0  2  0  0  0  0  0  0
  190.5740  175.4420  142.0450 O   0  0  0  0  0  0  0  0  0  0  0  0
  188.2460  177.3490  142.3690 C   0  0  1  0  0  3  0  0  0  0  0  0
  186.4290  178.3530  142.9880 C   0  0  1  0  0  3  0  0  0  0  0  0
  187.3850  174.6650  142.7940 C   0  0  0  0  0  2  0  0  0  0  0  0
  187.1390  177.0570  143.3880 C   0  0  1  0  0  3  0  0  0  0  0  0
  186.3770  175.7610  143.0910 C   0  0  0  0  0  2  0  0  0  0  0  0
  188.2600  175.0360  141.5860 C   0  0  1  0  0  3  0  0  0  0  0  0
  188.1790  176.4580  141.2030 N   0  0  0  0  0  2  0  0  0  0  0  0
  187.5650  178.6640  142.0240 C   0  0  0  0  0  2  0  0  0  0  0  0
  185.2030  178.1100  142.2340 N   0  0  0  0  0  2  0  0  0  0  0  0
  183.9140  178.4450  142.7470 C   0  0  0  0  0  0  0  0  0  0  0  0
  182.8980  178.2900  142.0240 O   0  0  0  0  0  0  0  0  0  0  0  0
  183.7720  178.9470  144.0370 O   0  0  0  0  0  1  0  0  0  0  0  0
  1  4  1  0  0  0  0
  2 19  1  0  0  0  0
  3  5  2  0  0  0  0
  4  2  2  0  0  0  0
  5  1  1  0  0  0  0
  6 16  1  0  0  0  0
  7  8  1  0  0  0  0
  7 13  1  0  0  0  0
  9  3  1  6  0  0  0
  9 11  1  0  0  0  0
 10  7  2  0  0  0  0
 11 17  1  0  0  0  0
 12 17  1  0  0  0  0
 13 12  2  0  0  0  0
 14  8  1  6  0  0  0
 14 12  1  0  0  0  0
 14  9  1  0  0  0  0
 15  6  2  0  0  0  0
 15 10  1  0  0  0  0
 16  8  2  0  0  0  0
 19 18  2  0  0  0  0
 20 27  1  0  0  0  0
 21 20  1  0  0  0  0
 24 23  1  0  0  0  0
 24 20  1  0  0  0  0
 25 24  2  0  0  0  0
 26 28  1  0  0  0  0
 26 21  1  0  0  0  0
 27 22  1  0  0  0  0
 28 19  1  0  0  0  0
 28 22  1  0  0  0  0
 29  5  1  0  0  0  0
 30 29  1  0  0  0  0
 31 33  2  0  0  0  0
 32 31  1  0  0  0  0
 32 30  1  0  0  0  0
 34 41  1  6  0  0  0
 34 37  1  0  0  0  0
 35 42  1  6  0  0  0
 35 37  1  0  0  0  0
 36 38  1  0  0  0  0
 37 38  1  6  0  0  0
 39 31  1  1  0  0  0
 39 36  1  0  0  0  0
 40 39  1  0  0  0  0
 40 34  1  0  0  0  0
 41 35  1  0  0  0  0
 42 43  1  0  0  0  0
 43 45  1  0  0  0  0
 44 43  2  0  0  0  0
M  END
>  <MODEL>
5

>  <REMARK>
 VINA RESULT:      -7.2      2.509      5.129
  Name = 
  8 active torsions:
  status: ('A' for Active; 'I' for Inactive)
    1  A    between atoms: C_1  and  C_28
    2  A    between atoms: S_9  and  C_17
    3  A    between atoms: S_9  and  C_39
    4  A    between atoms: C_12  and  N_18
    5  A    between atoms: C_17  and  N_33
    6  A    between atoms: C_19  and  N_26
    7  A    between atoms: N_22  and  C_23
    8  A    between atoms: C_23  and  C_36
                            x       y       z     vdW  Elec       q    Type
                         _______ _______ _______ _____ _____    ______ ____

>  <TORSDO>
F 8

$$$$
=
 OpenBabel11042418053D

 45 50  0  0  1  0  0  0  0  0999 V2000
  193.3810  173.8020  142.9340 N   0  0  0  0  0  2  0  0  0  0  0  0
  193.5190  175.4470  144.6650 N   0  0  0  0  0  0  0  0  0  0  0  0
  194.3130  173.9350  140.7100 N   0  0  0  0  0  0  0  0  0  0  0  0
  193.6550  175.1210  143.4150 C   0  0  0  0  0  3  0  0  0  0  0  0
  193.4790  173.4010  141.5580 C   0  0  0  0  0  0  0  0  0  0  0  0
  196.6160  172.0050  144.4960 C   0  0  0  0  0  3  0  0  0  0  0  0
  197.4190  174.5360  143.7030 C   0  0  0  0  0  0  0  0  0  0  0  0
  196.7550  173.7170  142.8270 C   0  0  0  0  0  0  0  0  0  0  0  0
  195.3920  174.8320  140.9960 C   0  0  1  0  0  3  0  0  0  0  0  0
  197.6670  174.1500  145.0180 C   0  0  0  0  0  3  0  0  0  0  0  0
  195.3330  176.1580  140.8570 C   0  0  0  0  0  2  0  0  0  0  0  0
  197.2730  175.7300  141.9000 C   0  0  0  0  0  0  0  0  0  0  0  0
  197.6750  175.8080  143.1320 N   0  0  0  0  0  0  0  0  0  0  0  0
  196.7210  174.3940  141.5080 C   0  0  1  0  0  3  0  0  0  0  0  0
  197.2620  172.8620  145.4110 C   0  0  0  0  0  3  0  0  0  0  0  0
  196.3630  172.4290  143.1820 C   0  0  0  0  0  3  0  0  0  0  0  0
  196.5200  176.7900  141.3310 N   0  0  0  0  0  2  0  0  0  0  0  0
  193.6980  173.5480  146.0400 O   0  0  0  0  0  0  0  0  0  0  0  0
  193.0590  174.5890  145.7200 C   0  0  0  0  0  0  0  0  0  0  0  0
  189.2390  176.2390  146.5540 N   0  0  0  0  0  0  0  0  0  0  0  0
  190.4060  177.0820  146.2910 C   0  0  0  0  0  2  0  0  0  0  0  0
  190.5700  174.4230  145.5320 C   0  0  0  0  0  2  0  0  0  0  0  0
  187.0130  176.1340  147.2650 O   0  0  0  0  0  0  0  0  0  0  0  0
  188.0540  176.8300  147.1020 C   0  0  0  0  0  0  0  0  0  0  0  0
  188.0420  178.1680  147.4710 O   0  0  0  0  0  1  0  0  0  0  0  0
  191.6900  176.3880  146.7530 C   0  0  0  0  0  2  0  0  0  0  0  0
  189.2500  174.8180  146.1900 C   0  0  0  0  0  2  0  0  0  0  0  0
  191.7530  174.8970  146.3790 C   0  0  0  0  0  3  0  0  0  0  0  0
  192.3800  172.1160  140.9760 S   0  0  0  0  0  0  0  0  0  0  0  0
  191.1380  173.3000  140.3680 C   0  0  0  0  0  2  0  0  0  0  0  0
  189.2020  174.5910  141.3640 C   0  0  0  0  0  0  0  0  0  0  0  0
  190.4790  173.9610  141.4850 N   0  0  0  0  0  2  0  0  0  0  0  0
  188.5640  174.5460  140.2750 O   0  0  0  0  0  0  0  0  0  0  0  0
  186.8970  176.7350  141.5970 C   0  0  1  0  0  3  0  0  0  0  0  0
  186.1400  178.4790  142.6370 C   0  0  1  0  0  3  0  0  0  0  0  0
  189.4250  176.5590  142.9020 C   0  0  0  0  0  2  0  0  0  0  0  0
  187.5260  177.9920  142.2110 C   0  0  1  0  0  3  0  0  0  0  0  0
  188.5020  177.6780  143.3500 C   0  0  0  0  0  2  0  0  0  0  0  0
  188.6250  175.2950  142.5480 C   0  0  1  0  0  3  0  0  0  0  0  0
  187.1770  175.5290  142.3880 N   0  0  0  0  0  2  0  0  0  0  0  0
  185.5190  177.2590  141.9710 C   0  0  0  0  0  2  0  0  0  0  0  0
  185.9380  178.4010  144.0800 N   0  0  0  0  0  2  0  0  0  0  0  0
  185.5250  179.5270  144.8540 C   0  0  0  0  0  0  0  0  0  0  0  0
  185.2870  179.3850  146.0800 O   0  0  0  0  0  1  0  0  0  0  0  0
  185.3770  180.7780  144.2630 O   0  0  0  0  0  0  0  0  0  0  0  0
  1  4  1  0  0  0  0
  2 19  1  0  0  0  0
  3  5  2  0  0  0  0
  4  2  2  0  0  0  0
  5  1  1  0  0  0  0
  6 15  1  0  0  0  0
  7 10  1  0  0  0  0
  8 16  1  0  0  0  0
  8  7  2  0  0  0  0
  9  3  1  1  0  0  0
  9 14  1  0  0  0  0
 10 15  2  0  0  0  0
 11  9  1  0  0  0  0
 11 17  1  0  0  0  0
 12 13  2  0  0  0  0
 13  7  1  0  0  0  0
 14 12  1  1  0  0  0
 14  8  1  0  0  0  0
 16  6  2  0  0  0  0
 17 12  1  0  0  0  0
 19 18  2  0  0  0  0
 19 28  1  0  0  0  0
 20 24  1  0  0  0  0
 21 20  1  0  0  0  0
 21 26  1  0  0  0  0
 22 27  1  0  0  0  0
 22 28  1  0  0  0  0
 24 23  2  0  0  0  0
 24 25  1  0  0  0  0
 27 20  1  0  0  0  0
 28 26  1  0  0  0  0
 29  5  1  0  0  0  0
 30 29  1  0  0  0  0
 30 32  1  0  0  0  0
 31 32  1  0  0  0  0
 33 31  2  0  0  0  0
 34 41  1  1  0  0  0
 34 37  1  0  0  0  0
 34 40  1  0  0  0  0
 35 42  1  1  0  0  0
 36 38  1  0  0  0  0
 37 35  1  0  0  0  0
 37 38  1  1  0  0  0
 39 31  1  6  0  0  0
 39 36  1  0  0  0  0
 40 39  1  0  0  0  0
 41 35  1  0  0  0  0
 42 43  1  0  0  0  0
 43 44  1  0  0  0  0
 45 43  2  0  0  0  0
M  END
>  <MODEL>
6

>  <REMARK>
 VINA RESULT:      -7.2      2.638      5.302
  Name = 
  8 active torsions:
  status: ('A' for Active; 'I' for Inactive)
    1  A    between atoms: C_1  and  C_28
    2  A    between atoms: S_9  and  C_17
    3  A    between atoms: S_9  and  C_39
    4  A    between atoms: C_12  and  N_18
    5  A    between atoms: C_17  and  N_33
    6  A    between atoms: C_19  and  N_26
    7  A    between atoms: N_22  and  C_23
    8  A    between atoms: C_23  and  C_36
                            x       y       z     vdW  Elec       q    Type
                         _______ _______ _______ _____ _____    ______ ____

>  <TORSDO>
F 8

$$$$
=
 OpenBabel11042418053D

 45 50  0  0  1  0  0  0  0  0999 V2000
  193.1770  173.6850  144.7790 N   0  0  0  0  0  2  0  0  0  0  0  0
  191.6090  171.9530  144.2650 N   0  0  0  0  0  0  0  0  0  0  0  0
  195.5750  173.4780  144.9720 N   0  0  0  0  0  0  0  0  0  0  0  0
  192.8050  172.3120  144.6220 C   0  0  0  0  0  3  0  0  0  0  0  0
  194.4720  174.1330  145.2080 C   0  0  0  0  0  0  0  0  0  0  0  0
  194.0320  174.9430  140.6320 C   0  0  0  0  0  3  0  0  0  0  0  0
  194.6530  172.2560  140.8950 C   0  0  0  0  0  0  0  0  0  0  0  0
  195.1710  173.1720  141.7720 C   0  0  0  0  0  0  0  0  0  0  0  0
  195.7510  172.3520  144.1050 C   0  0  1  0  0  3  0  0  0  0  0  0
  193.7710  172.6300  139.8850 C   0  0  0  0  0  3  0  0  0  0  0  0
  195.5930  171.0790  144.4750 C   0  0  0  0  0  2  0  0  0  0  0  0
  195.8460  171.0510  142.2460 C   0  0  0  0  0  0  0  0  0  0  0  0
  195.0300  170.9340  141.2420 N   0  0  0  0  0  0  0  0  0  0  0  0
  196.1180  172.4630  142.6660 C   0  0  1  0  0  3  0  0  0  0  0  0
  193.4650  173.9960  139.7540 C   0  0  0  0  0  3  0  0  0  0  0  0
  194.9040  174.5340  141.6520 C   0  0  0  0  0  3  0  0  0  0  0  0
  195.7210  170.1900  143.3670 N   0  0  0  0  0  2  0  0  0  0  0  0
  189.6900  173.1380  144.9310 O   0  0  0  0  0  0  0  0  0  0  0  0
  190.4990  172.8290  144.0120 C   0  0  0  0  0  0  0  0  0  0  0  0
  189.0040  173.1520  140.0540 N   0  0  0  0  0  0  0  0  0  0  0  0
  189.5830  171.9090  140.5630 C   0  0  0  0  0  2  0  0  0  0  0  0
  188.8280  173.8110  142.4310 C   0  0  0  0  0  2  0  0  0  0  0  0
  188.2090  174.3320  138.1960 O   0  0  0  0  0  1  0  0  0  0  0  0
  188.7770  173.2970  138.6460 C   0  0  0  0  0  0  0  0  0  0  0  0
  189.1890  172.3090  137.7620 O   0  0  0  0  0  0  0  0  0  0  0  0
  190.6590  172.2030  141.6120 C   0  0  0  0  0  2  0  0  0  0  0  0
  188.5870  174.2130  140.9780 C   0  0  0  0  0  2  0  0  0  0  0  0
  190.2590  173.3000  142.6140 C   0  0  0  0  0  3  0  0  0  0  0  0
  194.5700  175.6590  146.1350 S   0  0  0  0  0  0  0  0  0  0  0  0
  194.2340  176.6960  144.6780 C   0  0  0  0  0  2  0  0  0  0  0  0
  191.8960  177.1750  143.8320 C   0  0  0  0  0  0  0  0  0  0  0  0
  192.9330  177.3380  144.8020 N   0  0  0  0  0  2  0  0  0  0  0  0
  192.0580  176.4070  142.8420 O   0  0  0  0  0  0  0  0  0  0  0  0
  189.4100  176.6220  145.6970 C   0  0  1  0  0  3  0  0  0  0  0  0
  187.2610  176.7460  145.9380 C   0  0  1  0  0  3  0  0  0  0  0  0
  189.5570  177.4810  142.9820 C   0  0  0  0  0  2  0  0  0  0  0  0
  188.2010  176.4340  144.7720 C   0  0  1  0  0  3  0  0  0  0  0  0
  188.1750  177.4330  143.6100 C   0  0  0  0  0  2  0  0  0  0  0  0
  190.6120  177.9170  144.0110 C   0  0  1  0  0  3  0  0  0  0  0  0
  190.1440  177.8620  145.4090 N   0  0  0  0  0  2  0  0  0  0  0  0
  188.4650  176.8690  146.8620 C   0  0  0  0  0  2  0  0  0  0  0  0
  186.6150  178.0480  145.8040 N   0  0  0  0  0  2  0  0  0  0  0  0
  185.2400  178.2540  146.1280 C   0  0  0  0  0  0  0  0  0  0  0  0
  184.7550  179.4130  146.0710 O   0  0  0  0  0  0  0  0  0  0  0  0
  184.4340  177.1870  146.5110 O   0  0  0  0  0  1  0  0  0  0  0  0
  1  5  1  0  0  0  0
  2  4  2  0  0  0  0
  3  5  2  0  0  0  0
  4  1  1  0  0  0  0
  5 29  1  0  0  0  0
  6 16  1  0  0  0  0
  7 13  1  0  0  0  0
  7  8  1  0  0  0  0
  9 11  1  0  0  0  0
  9  3  1  6  0  0  0
 10  7  2  0  0  0  0
 12 14  1  0  0  0  0
 12 17  1  0  0  0  0
 13 12  2  0  0  0  0
 14  8  1  6  0  0  0
 14  9  1  0  0  0  0
 15 10  1  0  0  0  0
 15  6  2  0  0  0  0
 16  8  2  0  0  0  0
 17 11  1  0  0  0  0
 19  2  1  0  0  0  0
 19 18  2  0  0  0  0
 20 21  1  0  0  0  0
 20 27  1  0  0  0  0
 21 26  1  0  0  0  0
 22 28  1  0  0  0  0
 23 24  1  0  0  0  0
 24 20  1  0  0  0  0
 25 24  2  0  0  0  0
 26 28  1  0  0  0  0
 27 22  1  0  0  0  0
 28 19  1  0  0  0  0
 30 32  1  0  0  0  0
 30 29  1  0  0  0  0
 31 32  1  0  0  0  0
 33 31  2  0  0  0  0
 34 41  1  1  0  0  0
 35 42  1  6  0  0  0
 35 41  1  0  0  0  0
 36 38  1  0  0  0  0
 36 39  1  0  0  0  0
 37 38  1  6  0  0  0
 37 34  1  0  0  0  0
 37 35  1  0  0  0  0
 39 31  1  1  0  0  0
 39 40  1  0  0  0  0
 40 34  1  0  0  0  0
 42 43  1  0  0  0  0
 43 45  1  0  0  0  0
 44 43  2  0  0  0  0
M  END
>  <MODEL>
7

>  <REMARK>
 VINA RESULT:      -7.1      2.147      2.868
  Name = 
  8 active torsions:
  status: ('A' for Active; 'I' for Inactive)
    1  A    between atoms: C_1  and  C_28
    2  A    between atoms: S_9  and  C_17
    3  A    between atoms: S_9  and  C_39
    4  A    between atoms: C_12  and  N_18
    5  A    between atoms: C_17  and  N_33
    6  A    between atoms: C_19  and  N_26
    7  A    between atoms: N_22  and  C_23
    8  A    between atoms: C_23  and  C_36
                            x       y       z     vdW  Elec       q    Type
                         _______ _______ _______ _____ _____    ______ ____

>  <TORSDO>
F 8

$$$$
=
 OpenBabel11042418053D

 45 50  0  0  1  0  0  0  0  0999 V2000
  191.0500  174.7150  143.9920 N   0  0  0  0  0  2  0  0  0  0  0  0
  190.9990  172.5360  143.0060 N   0  0  0  0  0  0  0  0  0  0  0  0
  192.9470  176.1990  144.1650 N   0  0  0  0  0  0  0  0  0  0  0  0
  191.6790  173.5420  143.4680 C   0  0  0  0  0  3  0  0  0  0  0  0
  191.7540  175.8370  144.5480 C   0  0  0  0  0  0  0  0  0  0  0  0
  196.7340  173.8240  146.0060 C   0  0  0  0  0  3  0  0  0  0  0  0
  196.7100  174.2010  143.2620 C   0  0  0  0  0  0  0  0  0  0  0  0
  195.5430  174.2700  143.9770 C   0  0  0  0  0  0  0  0  0  0  0  0
  193.6830  175.7210  143.0340 C   0  0  1  0  0  3  0  0  0  0  0  0
  197.9370  173.9910  143.8850 C   0  0  0  0  0  3  0  0  0  0  0  0
  193.8050  176.3760  141.8770 C   0  0  0  0  0  2  0  0  0  0  0  0
  195.2120  174.6330  141.7550 C   0  0  0  0  0  0  0  0  0  0  0  0
  196.4960  174.4940  141.8910 N   0  0  0  0  0  0  0  0  0  0  0  0
  194.4270  174.4310  143.0140 C   0  0  1  0  0  3  0  0  0  0  0  0
  197.9400  173.7950  145.2770 C   0  0  0  0  0  3  0  0  0  0  0  0
  195.5130  174.0570  145.3530 C   0  0  0  0  0  3  0  0  0  0  0  0
  194.6920  175.7060  140.9840 N   0  0  0  0  0  2  0  0  0  0  0  0
  188.9340  171.9150  143.9430 O   0  0  0  0  0  0  0  0  0  0  0  0
  189.5680  172.4220  142.9760 C   0  0  0  0  0  0  0  0  0  0  0  0
  188.2390  174.6350  139.6070 N   0  0  0  0  0  0  0  0  0  0  0  0
  188.2260  175.1970  140.9580 C   0  0  0  0  0  2  0  0  0  0  0  0
  189.7900  172.9500  140.5410 C   0  0  0  0  0  2  0  0  0  0  0  0
  187.5890  174.8750  137.3730 O   0  0  0  0  0  0  0  0  0  0  0  0
  187.5280  175.3040  138.5590 C   0  0  0  0  0  0  0  0  0  0  0  0
  186.7530  176.4220  138.8380 O   0  0  0  0  0  1  0  0  0  0  0  0
  188.0130  174.0970  142.0010 C   0  0  0  0  0  2  0  0  0  0  0  0
  189.0360  173.4390  139.3070 C   0  0  0  0  0  2  0  0  0  0  0  0
  188.8410  172.8280  141.7360 C   0  0  0  0  0  3  0  0  0  0  0  0
  190.9580  176.7690  145.8500 S   0  0  0  0  0  0  0  0  0  0  0  0
  189.7920  175.4290  146.2470 C   0  0  0  0  0  2  0  0  0  0  0  0
  187.6140  176.7120  146.3790 C   0  0  0  0  0  0  0  0  0  0  0  0
  188.4620  175.7500  145.7490 N   0  0  0  0  0  2  0  0  0  0  0  0
  188.0190  177.3700  147.3780 O   0  0  0  0  0  0  0  0  0  0  0  0
  186.6350  177.7780  143.5730 C   0  0  1  0  0  3  0  0  0  0  0  0
  185.1450  178.9110  142.4830 C   0  0  1  0  0  3  0  0  0  0  0  0
  185.7020  178.3260  146.2100 C   0  0  0  0  0  2  0  0  0  0  0  0
  185.8260  179.0520  143.8460 C   0  0  1  0  0  3  0  0  0  0  0  0
  184.9070  178.9290  145.0660 C   0  0  0  0  0  2  0  0  0  0  0  0
  186.2420  176.9380  145.8330 C   0  0  1  0  0  3  0  0  0  0  0  0
  186.1780  176.6430  144.3890 N   0  0  0  0  0  2  0  0  0  0  0  0
  185.9970  177.6820  142.1960 C   0  0  0  0  0  2  0  0  0  0  0  0
  183.7440  178.5170  142.5950 N   0  0  0  0  0  2  0  0  0  0  0  0
  182.9190  178.2980  141.4510 C   0  0  0  0  0  0  0  0  0  0  0  0
  181.7430  177.8810  141.6040 O   0  0  0  0  0  1  0  0  0  0  0  0
  183.4060  178.5360  140.1700 O   0  0  0  0  0  0  0  0  0  0  0  0
  1  5  1  0  0  0  0
  2  4  2  0  0  0  0
  3  5  2  0  0  0  0
  4  1  1  0  0  0  0
  5 29  1  0  0  0  0
  7 10  2  0  0  0  0
  7  8  1  0  0  0  0
  8 16  2  0  0  0  0
  9  3  1  1  0  0  0
 10 15  1  0  0  0  0
 11  9  1  0  0  0  0
 12 13  2  0  0  0  0
 13  7  1  0  0  0  0
 14 12  1  6  0  0  0
 14  9  1  0  0  0  0
 14  8  1  0  0  0  0
 15  6  2  0  0  0  0
 16  6  1  0  0  0  0
 17 12  1  0  0  0  0
 17 11  1  0  0  0  0
 19  2  1  0  0  0  0
 19 18  2  0  0  0  0
 20 21  1  0  0  0  0
 21 26  1  0  0  0  0
 22 28  1  0  0  0  0
 23 24  2  0  0  0  0
 24 25  1  0  0  0  0
 24 20  1  0  0  0  0
 27 20  1  0  0  0  0
 27 22  1  0  0  0  0
 28 26  1  0  0  0  0
 28 19  1  0  0  0  0
 29 30  1  0  0  0  0
 31 33  2  0  0  0  0
 32 30  1  0  0  0  0
 32 31  1  0  0  0  0
 34 41  1  6  0  0  0
 34 37  1  0  0  0  0
 34 40  1  0  0  0  0
 35 42  1  1  0  0  0
 35 37  1  0  0  0  0
 37 38  1  1  0  0  0
 38 36  1  0  0  0  0
 39 36  1  0  0  0  0
 39 31  1  6  0  0  0
 40 39  1  0  0  0  0
 41 35  1  0  0  0  0
 43 44  1  0  0  0  0
 43 42  1  0  0  0  0
 45 43  2  0  0  0  0
M  END
>  <MODEL>
8

>  <REMARK>
 VINA RESULT:      -7.1      2.452      3.678
  Name = 
  8 active torsions:
  status: ('A' for Active; 'I' for Inactive)
    1  A    between atoms: C_1  and  C_28
    2  A    between atoms: S_9  and  C_17
    3  A    between atoms: S_9  and  C_39
    4  A    between atoms: C_12  and  N_18
    5  A    between atoms: C_17  and  N_33
    6  A    between atoms: C_19  and  N_26
    7  A    between atoms: N_22  and  C_23
    8  A    between atoms: C_23  and  C_36
                            x       y       z     vdW  Elec       q    Type
                         _______ _______ _______ _____ _____    ______ ____

>  <TORSDO>
F 8

$$$$
=
 OpenBabel11042418053D

 45 50  0  0  1  0  0  0  0  0999 V2000
  195.5790  174.3350  145.0410 N   0  0  0  0  0  2  0  0  0  0  0  0
  197.0420  172.5370  144.4510 N   0  0  0  0  0  0  0  0  0  0  0  0
  195.6500  176.6070  144.2280 N   0  0  0  0  0  0  0  0  0  0  0  0
  196.7750  173.8080  144.4590 C   0  0  0  0  0  3  0  0  0  0  0  0
  195.2550  175.7320  145.1100 C   0  0  0  0  0  0  0  0  0  0  0  0
  192.2120  174.6120  141.4790 C   0  0  0  0  0  3  0  0  0  0  0  0
  194.7790  174.6500  140.4370 C   0  0  0  0  0  0  0  0  0  0  0  0
  194.4260  175.5240  141.4320 C   0  0  0  0  0  0  0  0  0  0  0  0
  196.2750  176.3510  142.9650 C   0  0  1  0  0  3  0  0  0  0  0  0
  193.8880  173.6950  139.9550 C   0  0  0  0  0  3  0  0  0  0  0  0
  197.5490  175.9850  142.8090 C   0  0  0  0  0  2  0  0  0  0  0  0
  196.5930  175.7820  140.7890 C   0  0  0  0  0  0  0  0  0  0  0  0
  196.1480  174.7800  140.0940 N   0  0  0  0  0  0  0  0  0  0  0  0
  195.5670  176.4430  141.6570 C   0  0  1  0  0  3  0  0  0  0  0  0
  192.5860  173.6850  140.4850 C   0  0  0  0  0  3  0  0  0  0  0  0
  193.1370  175.5530  141.9580 C   0  0  0  0  0  3  0  0  0  0  0  0
  197.8480  175.6890  141.4470 N   0  0  0  0  0  2  0  0  0  0  0  0
  196.4620  171.0690  146.1940 O   0  0  0  0  0  0  0  0  0  0  0  0
  196.2380  171.4960  145.0270 C   0  0  0  0  0  0  0  0  0  0  0  0
  192.8870  170.9180  142.4880 N   0  0  0  0  0  0  0  0  0  0  0  0
  192.7930  171.6830  143.7320 C   0  0  0  0  0  2  0  0  0  0  0  0
  195.3290  171.2360  142.7110 C   0  0  0  0  0  2  0  0  0  0  0  0
  191.7470  169.9200  140.7050 O   0  0  0  0  0  0  0  0  0  0  0  0
  191.6870  170.5150  141.8180 C   0  0  0  0  0  0  0  0  0  0  0  0
  190.4460  170.7610  142.3900 O   0  0  0  0  0  1  0  0  0  0  0  0
  193.7900  171.1560  144.7670 C   0  0  0  0  0  2  0  0  0  0  0  0
  194.1950  170.6320  141.8870 C   0  0  0  0  0  2  0  0  0  0  0  0
  195.1820  170.8550  144.1860 C   0  0  0  0  0  3  0  0  0  0  0  0
  194.2750  176.3010  146.4940 S   0  0  0  0  0  0  0  0  0  0  0  0
  192.8800  175.1990  146.1030 C   0  0  0  0  0  2  0  0  0  0  0  0
  190.5980  176.2930  146.0570 C   0  0  0  0  0  0  0  0  0  0  0  0
  191.8270  175.9370  145.4200 N   0  0  0  0  0  2  0  0  0  0  0  0
  190.4040  176.0230  147.2750 O   0  0  0  0  0  0  0  0  0  0  0  0
  189.0120  175.4400  143.4640 C   0  0  1  0  0  3  0  0  0  0  0  0
  188.0810  176.0790  141.6150 C   0  0  1  0  0  3  0  0  0  0  0  0
  190.1660  177.9370  144.2130 C   0  0  0  0  0  2  0  0  0  0  0  0
  189.3400  176.4820  142.3870 C   0  0  1  0  0  3  0  0  0  0  0  0
  189.3600  177.9160  142.9270 C   0  0  0  0  0  2  0  0  0  0  0  0
  189.5490  177.0020  145.2640 C   0  0  1  0  0  3  0  0  0  0  0  0
  188.5550  176.0590  144.7160 N   0  0  0  0  0  2  0  0  0  0  0  0
  187.7980  175.0060  142.6580 C   0  0  0  0  0  2  0  0  0  0  0  0
  187.0390  177.1000  141.6720 N   0  0  0  0  0  2  0  0  0  0  0  0
  186.3420  177.5430  140.5080 C   0  0  0  0  0  0  0  0  0  0  0  0
  185.3980  178.3650  140.6240 O   0  0  0  0  0  1  0  0  0  0  0  0
  186.6930  177.0690  139.2480 O   0  0  0  0  0  0  0  0  0  0  0  0
  1  5  1  0  0  0  0
  2  4  2  0  0  0  0
  2 19  1  0  0  0  0
  3  5  2  0  0  0  0
  4  1  1  0  0  0  0
  5 29  1  0  0  0  0
  6 16  1  0  0  0  0
  7  8  1  0  0  0  0
  8 14  1  0  0  0  0
  8 16  2  0  0  0  0
  9  3  1  1  0  0  0
 10  7  2  0  0  0  0
 10 15  1  0  0  0  0
 11  9  1  0  0  0  0
 12 17  1  0  0  0  0
 13  7  1  0  0  0  0
 13 12  2  0  0  0  0
 14 12  1  6  0  0  0
 14  9  1  0  0  0  0
 15  6  2  0  0  0  0
 17 11  1  0  0  0  0
 19 18  2  0  0  0  0
 20 21  1  0  0  0  0
 21 26  1  0  0  0  0
 22 28  1  0  0  0  0
 23 24  2  0  0  0  0
 24 25  1  0  0  0  0
 24 20  1  0  0  0  0
 27 20  1  0  0  0  0
 27 22  1  0  0  0  0
 28 26  1  0  0  0  0
 28 19  1  0  0  0  0
 30 29  1  0  0  0  0
 31 33  2  0  0  0  0
 32 31  1  0  0  0  0
 32 30  1  0  0  0  0
 34 41  1  6  0  0  0
 34 40  1  0  0  0  0
 35 42  1  1  0  0  0
 35 37  1  0  0  0  0
 35 41  1  0  0  0  0
 36 39  1  0  0  0  0
 37 38  1  1  0  0  0
 37 34  1  0  0  0  0
 38 36  1  0  0  0  0
 39 31  1  6  0  0  0
 40 39  1  0  0  0  0
 43 44  1  0  0  0  0
 43 42  1  0  0  0  0
 45 43  2  0  0  0  0
M  END
>  <MODEL>
9

>  <REMARK>
 VINA RESULT:      -7.0      1.967      3.179
  Name = 
  8 active torsions:
  status: ('A' for Active; 'I' for Inactive)
    1  A    between atoms: C_1  and  C_28
    2  A    between atoms: S_9  and  C_17
    3  A    between atoms: S_9  and  C_39
    4  A    between atoms: C_12  and  N_18
    5  A    between atoms: C_17  and  N_33
    6  A    between atoms: C_19  and  N_26
    7  A    between atoms: N_22  and  C_23
    8  A    between atoms: C_23  and  C_36
                            x       y       z     vdW  Elec       q    Type
                         _______ _______ _______ _____ _____    ______ ____

>  <TORSDO>
F 8

$$$$
