=
 OpenBabel11042413443D

 30 35  0  0  1  0  0  0  0  0999 V2000
  184.2090  178.6380  146.5130 N   0  0  0  0  0  0  0  0  0  0  0  0
  184.1570  179.3180  144.2360 O   0  0  0  0  0  0  0  0  0  0  0  0
  187.4160  177.0190  146.8320 C   0  0  0  0  0  3  0  0  0  0  0  0
  187.6170  176.4700  142.4830 C   0  0  0  0  0  0  0  0  0  0  0  0
  189.7660  175.7080  143.2470 N   0  0  0  0  0  0  0  0  0  0  0  0
  189.1490  174.0680  140.2020 N   0  0  0  0  0  0  0  0  0  0  0  0
  188.6420  176.4630  143.4220 C   0  0  0  0  0  0  0  0  0  0  0  0
  186.6110  177.3840  142.9580 C   0  0  0  0  0  0  0  0  0  0  0  0
  185.5080  177.6120  142.3950 O   0  0  0  0  0  0  0  0  0  0  0  0
  188.3590  177.4210  144.5460 C   0  0  1  0  0  3  0  0  0  0  0  0
  189.8230  174.9370  142.1260 C   0  0  0  0  0  0  0  0  0  0  0  0
  187.0200  177.9550  144.2010 N   0  0  0  0  0  0  0  0  0  0  0  0
  188.3710  176.7540  145.9220 C   0  0  0  0  0  0  0  0  0  0  0  0
  190.3700  173.6140  140.5940 C   0  0  0  0  0  0  0  0  0  0  0  0
  184.7650  178.8130  145.2160 C   0  0  0  0  0  0  0  0  0  0  0  0
  186.2790  177.8780  146.4740 C   0  0  0  0  0  0  0  0  0  0  0  0
  191.1510  172.6340  139.7940 C   0  0  0  0  0  1  0  0  0  0  0  0
  185.0940  178.0840  147.2470 N   0  0  0  0  0  0  0  0  0  0  0  0
  187.6630  175.6810  141.3240 C   0  0  0  0  0  3  0  0  0  0  0  0
  190.8240  174.1210  141.7710 N   0  0  0  0  0  2  0  0  0  0  0  0
  188.8220  174.9090  141.1930 C   0  0  0  0  0  0  0  0  0  0  0  0
  186.1250  178.3270  145.2510 C   0  0  0  0  0  0  0  0  0  0  0  0
  189.5470  175.9350  146.3380 C   0  0  0  0  0  2  0  0  0  0  0  0
  191.1740  175.8660  148.0220 C   0  0  0  0  0  2  0  0  0  0  0  0
  190.4990  176.7640  147.0730 N   0  0  0  0  0  0  0  0  0  0  0  0
  191.9240  176.3750  146.8790 C   0  0  2  0  0  3  0  0  0  0  0  0
  192.7840  174.1920  146.4680 F   0  0  0  0  0  0  0  0  0  0  0  0
  192.1660  175.2650  145.8520 C   0  0  2  0  0  3  0  0  0  0  0  0
  192.7160  177.1120  144.4510 O   0  0  0  0  0  1  0  0  0  0  0  0
  193.0520  175.7900  144.7390 C   0  0  0  0  0  2  0  0  0  0  0  0
  1 18  2  0  0  0  0
  2 15  2  0  0  0  0
  4  8  1  0  0  0  0
  4  7  2  0  0  0  0
  5  7  1  0  0  0  0
  6 14  2  0  0  0  0
  6 21  1  0  0  0  0
  8 12  1  0  0  0  0
  9  8  2  0  0  0  0
 10  7  1  6  0  0  0
 10 13  1  0  0  0  0
 11  5  2  0  0  0  0
 12 10  1  0  0  0  0
 12 22  1  0  0  0  0
 13 23  1  0  0  0  0
 13  3  2  0  0  0  0
 14 20  1  0  0  0  0
 15 22  1  0  0  0  0
 15  1  1  0  0  0  0
 16  3  1  0  0  0  0
 16 18  1  0  0  0  0
 17 14  1  0  0  0  0
 19  4  1  0  0  0  0
 20 11  1  0  0  0  0
 21 19  2  0  0  0  0
 21 11  1  0  0  0  0
 22 16  2  0  0  0  0
 23 25  1  0  0  0  0
 25 24  1  0  0  0  0
 26 28  1  6  0  0  0
 26 25  1  0  0  0  0
 26 24  1  0  0  0  0
 28 27  1  1  0  0  0
 29 30  1  0  0  0  0
 30 28  1  0  0  0  0
M  END
>  <MODEL>
1

>  <REMARK>
 VINA RESULT:      -7.8      0.000      0.000
  Name = 
  4 active torsions:
  status: ('A' for Active; 'I' for Inactive)
    1  A    between atoms: N_10  and  C_23
    2  A    between atoms: C_11  and  C_20
    3  A    between atoms: C_18  and  C_23
    4  A    between atoms: C_20  and  C_26
                            x       y       z     vdW  Elec       q    Type
                         _______ _______ _______ _____ _____    ______ ____

>  <TORSDO>
F 4

$$$$
=
 OpenBabel11042413443D

 30 35  0  0  1  0  0  0  0  0999 V2000
  183.8990  178.9720  144.7330 N   0  0  0  0  0  0  0  0  0  0  0  0
  184.4190  178.4960  147.0030 O   0  0  0  0  0  0  0  0  0  0  0  0
  186.3670  177.0930  142.8940 C   0  0  0  0  0  3  0  0  0  0  0  0
  188.9190  176.8800  146.4590 C   0  0  0  0  0  0  0  0  0  0  0  0
  190.0650  175.4940  144.8610 N   0  0  0  0  0  0  0  0  0  0  0  0
  192.5000  176.6400  147.1210 N   0  0  0  0  0  0  0  0  0  0  0  0
  188.9200  176.0780  145.3230 C   0  0  0  0  0  0  0  0  0  0  0  0
  187.5600  177.3030  146.6790 C   0  0  0  0  0  0  0  0  0  0  0  0
  187.1780  178.0850  147.5890 O   0  0  0  0  0  0  0  0  0  0  0  0
  187.5310  175.9100  144.7720 C   0  0  1  0  0  3  0  0  0  0  0  0
  191.2120  175.7600  145.5460 C   0  0  0  0  0  0  0  0  0  0  0  0
  186.7090  176.7520  145.6730 N   0  0  0  0  0  0  0  0  0  0  0  0
  187.4060  176.3450  143.3120 C   0  0  0  0  0  0  0  0  0  0  0  0
  193.1870  175.8610  146.2420 C   0  0  0  0  0  0  0  0  0  0  0  0
  184.6090  178.3110  145.7730 C   0  0  0  0  0  0  0  0  0  0  0  0
  185.3870  177.5940  143.8670 C   0  0  0  0  0  0  0  0  0  0  0  0
  194.6530  175.6390  146.3510 C   0  0  0  0  0  1  0  0  0  0  0  0
  184.3600  178.5570  143.6180 N   0  0  0  0  0  0  0  0  0  0  0  0
  190.0930  177.1610  147.1730 C   0  0  0  0  0  3  0  0  0  0  0  0
  192.4350  175.2990  145.2580 N   0  0  0  0  0  2  0  0  0  0  0  0
  191.2450  176.5600  146.6560 C   0  0  0  0  0  0  0  0  0  0  0  0
  185.5480  177.4030  145.1550 C   0  0  0  0  0  0  0  0  0  0  0  0
  188.3460  175.7950  142.2910 C   0  0  0  0  0  2  0  0  0  0  0  0
  188.6420  174.3630  140.4610 C   0  0  0  0  0  2  0  0  0  0  0  0
  187.6610  174.8050  141.4640 N   0  0  0  0  0  0  0  0  0  0  0  0
  188.2570  173.4410  141.5240 C   0  0  2  0  0  3  0  0  0  0  0  0
  190.6080  173.2600  141.8610 F   0  0  0  0  0  0  0  0  0  0  0  0
  189.3980  173.2690  142.5300 C   0  0  2  0  0  3  0  0  0  0  0  0
  189.5400  172.1400  144.6230 O   0  0  0  0  0  1  0  0  0  0  0  0
  189.2210  171.9620  143.2780 C   0  0  0  0  0  2  0  0  0  0  0  0
  1 15  1  0  0  0  0
  3 13  2  0  0  0  0
  3 16  1  0  0  0  0
  4  8  1  0  0  0  0
  4 19  1  0  0  0  0
  5  7  1  0  0  0  0
  5 11  2  0  0  0  0
  7  4  2  0  0  0  0
  8  9  2  0  0  0  0
 10 13  1  6  0  0  0
 10  7  1  0  0  0  0
 10 12  1  0  0  0  0
 11 21  1  0  0  0  0
 12  8  1  0  0  0  0
 14 17  1  0  0  0  0
 14  6  2  0  0  0  0
 15  2  2  0  0  0  0
 16 22  2  0  0  0  0
 18 16  1  0  0  0  0
 18  1  2  0  0  0  0
 20 11  1  0  0  0  0
 20 14  1  0  0  0  0
 21  6  1  0  0  0  0
 21 19  2  0  0  0  0
 22 12  1  0  0  0  0
 22 15  1  0  0  0  0
 23 13  1  0  0  0  0
 24 25  1  0  0  0  0
 24 26  1  0  0  0  0
 25 26  1  0  0  0  0
 25 23  1  0  0  0  0
 26 28  1  1  0  0  0
 28 27  1  6  0  0  0
 28 30  1  0  0  0  0
 30 29  1  0  0  0  0
M  END
>  <MODEL>
2

>  <REMARK>
 VINA RESULT:      -7.5      2.352      4.882
  Name = 
  4 active torsions:
  status: ('A' for Active; 'I' for Inactive)
    1  A    between atoms: N_10  and  C_23
    2  A    between atoms: C_11  and  C_20
    3  A    between atoms: C_18  and  C_23
    4  A    between atoms: C_20  and  C_26
                            x       y       z     vdW  Elec       q    Type
                         _______ _______ _______ _____ _____    ______ ____

>  <TORSDO>
F 4

$$$$
=
 OpenBabel11042413443D

 30 35  0  0  1  0  0  0  0  0999 V2000
  193.5730  175.5150  146.1390 N   0  0  0  0  0  0  0  0  0  0  0  0
  193.2070  174.1290  144.2430 O   0  0  0  0  0  0  0  0  0  0  0  0
  190.2970  176.8440  146.8510 C   0  0  0  0  0  3  0  0  0  0  0  0
  188.9850  175.9060  142.7700 C   0  0  0  0  0  0  0  0  0  0  0  0
  186.9750  176.6750  143.8450 N   0  0  0  0  0  0  0  0  0  0  0  0
  186.5590  177.2680  140.4070 N   0  0  0  0  0  0  0  0  0  0  0  0
  188.2240  176.1280  143.9120 C   0  0  0  0  0  0  0  0  0  0  0  0
  190.2190  175.2980  143.1920 C   0  0  0  0  0  0  0  0  0  0  0  0
  191.1820  175.0000  142.4360 O   0  0  0  0  0  0  0  0  0  0  0  0
  188.9280  175.6250  145.1420 C   0  0  1  0  0  3  0  0  0  0  0  0
  186.5210  177.0250  142.6100 C   0  0  0  0  0  0  0  0  0  0  0  0
  190.2210  175.1330  144.6100 N   0  0  0  0  0  0  0  0  0  0  0  0
  189.1220  176.7040  146.2080 C   0  0  0  0  0  0  0  0  0  0  0  0
  185.4050  177.7110  140.9730 C   0  0  0  0  0  0  0  0  0  0  0  0
  192.7680  174.8710  145.1600 C   0  0  0  0  0  0  0  0  0  0  0  0
  191.4500  176.0250  146.4590 C   0  0  0  0  0  0  0  0  0  0  0  0
  184.2960  178.2950  140.1720 C   0  0  0  0  0  1  0  0  0  0  0  0
  192.8010  176.1950  146.8940 N   0  0  0  0  0  0  0  0  0  0  0  0
  188.5280  176.2610  141.4920 C   0  0  0  0  0  3  0  0  0  0  0  0
  185.3370  177.5810  142.3250 N   0  0  0  0  0  2  0  0  0  0  0  0
  187.2530  176.8360  141.4690 C   0  0  0  0  0  0  0  0  0  0  0  0
  191.3900  175.2130  145.4290 C   0  0  0  0  0  0  0  0  0  0  0  0
  187.9520  177.5030  146.6760 C   0  0  0  0  0  2  0  0  0  0  0  0
  186.1980  177.2370  148.2060 C   0  0  0  0  0  2  0  0  0  0  0  0
  186.8560  176.6110  147.0490 N   0  0  0  0  0  0  0  0  0  0  0  0
  185.5030  177.2220  146.9240 C   0  0  2  0  0  3  0  0  0  0  0  0
  185.5340  179.5710  147.3140 F   0  0  0  0  0  0  0  0  0  0  0  0
  185.4720  178.6240  146.3090 C   0  0  2  0  0  3  0  0  0  0  0  0
  184.3820  179.7410  144.5080 O   0  0  0  0  0  1  0  0  0  0  0  0
  184.1880  178.8040  145.5220 C   0  0  0  0  0  2  0  0  0  0  0  0
  1 18  2  0  0  0  0
  2 15  2  0  0  0  0
  4  8  1  0  0  0  0
  4  7  2  0  0  0  0
  5  7  1  0  0  0  0
  6 14  2  0  0  0  0
  6 21  1  0  0  0  0
  8 12  1  0  0  0  0
  9  8  2  0  0  0  0
 10  7  1  6  0  0  0
 10 13  1  0  0  0  0
 11  5  2  0  0  0  0
 12 10  1  0  0  0  0
 12 22  1  0  0  0  0
 13 23  1  0  0  0  0
 13  3  2  0  0  0  0
 14 20  1  0  0  0  0
 15 22  1  0  0  0  0
 15  1  1  0  0  0  0
 16  3  1  0  0  0  0
 16 18  1  0  0  0  0
 17 14  1  0  0  0  0
 19  4  1  0  0  0  0
 20 11  1  0  0  0  0
 21 19  2  0  0  0  0
 21 11  1  0  0  0  0
 22 16  2  0  0  0  0
 23 25  1  0  0  0  0
 25 24  1  0  0  0  0
 26 28  1  6  0  0  0
 26 25  1  0  0  0  0
 26 24  1  0  0  0  0
 28 27  1  1  0  0  0
 29 30  1  0  0  0  0
 30 28  1  0  0  0  0
M  END
>  <MODEL>
3

>  <REMARK>
 VINA RESULT:      -7.5      2.601      6.081
  Name = 
  4 active torsions:
  status: ('A' for Active; 'I' for Inactive)
    1  A    between atoms: N_10  and  C_23
    2  A    between atoms: C_11  and  C_20
    3  A    between atoms: C_18  and  C_23
    4  A    between atoms: C_20  and  C_26
                            x       y       z     vdW  Elec       q    Type
                         _______ _______ _______ _____ _____    ______ ____

>  <TORSDO>
F 4

$$$$
=
 OpenBabel11042413443D

 30 35  0  0  1  0  0  0  0  0999 V2000
  191.1810  177.0040  148.0200 N   0  0  0  0  0  0  0  0  0  0  0  0
  192.1770  174.9160  147.4740 O   0  0  0  0  0  0  0  0  0  0  0  0
  188.4490  177.2670  145.6800 C   0  0  0  0  0  3  0  0  0  0  0  0
  190.3480  174.2970  143.0670 C   0  0  0  0  0  0  0  0  0  0  0  0
  188.2190  174.6890  142.0190 N   0  0  0  0  0  0  0  0  0  0  0  0
  190.3900  173.5850  139.4870 N   0  0  0  0  0  0  0  0  0  0  0  0
  189.0180  174.6980  143.1260 C   0  0  0  0  0  0  0  0  0  0  0  0
  190.8840  174.4000  144.3990 C   0  0  0  0  0  0  0  0  0  0  0  0
  192.0780  174.1690  144.7250 O   0  0  0  0  0  0  0  0  0  0  0  0
  188.6160  175.0460  144.5330 C   0  0  1  0  0  3  0  0  0  0  0  0
  188.7920  174.3000  140.8470 C   0  0  0  0  0  0  0  0  0  0  0  0
  189.8730  174.8630  145.2950 N   0  0  0  0  0  0  0  0  0  0  0  0
  188.0660  176.4660  144.6680 C   0  0  0  0  0  0  0  0  0  0  0  0
  189.2030  173.7900  138.8550 C   0  0  0  0  0  0  0  0  0  0  0  0
  191.2650  175.7690  147.3190 C   0  0  0  0  0  0  0  0  0  0  0  0
  189.4900  176.8210  146.6150 C   0  0  0  0  0  0  0  0  0  0  0  0
  189.0220  173.5500  137.3990 C   0  0  0  0  0  1  0  0  0  0  0  0
  190.1450  177.6210  147.6020 N   0  0  0  0  0  0  0  0  0  0  0  0
  190.9500  173.8930  141.8660 C   0  0  0  0  0  3  0  0  0  0  0  0
  188.1920  174.2290  139.6530 N   0  0  0  0  0  2  0  0  0  0  0  0
  190.1030  173.9170  140.7540 C   0  0  0  0  0  0  0  0  0  0  0  0
  190.1250  175.6860  146.4360 C   0  0  0  0  0  0  0  0  0  0  0  0
  186.9590  176.9210  143.7770 C   0  0  0  0  0  2  0  0  0  0  0  0
  186.2720  178.6230  142.3210 C   0  0  0  0  0  2  0  0  0  0  0  0
  187.0810  178.3530  143.5190 N   0  0  0  0  0  0  0  0  0  0  0  0
  185.7970  179.1020  143.6140 C   0  0  2  0  0  3  0  0  0  0  0  0
  183.5950  178.3330  143.1330 F   0  0  0  0  0  0  0  0  0  0  0  0
  184.5940  178.2820  144.0880 C   0  0  2  0  0  3  0  0  0  0  0  0
  184.3330  177.9570  146.4330 O   0  0  0  0  0  1  0  0  0  0  0  0
  184.0760  178.8510  145.3950 C   0  0  0  0  0  2  0  0  0  0  0  0
  3 16  1  0  0  0  0
  4  7  2  0  0  0  0
  4  8  1  0  0  0  0
  5  7  1  0  0  0  0
  6 21  1  0  0  0  0
  8  9  2  0  0  0  0
  8 12  1  0  0  0  0
 10  7  1  6  0  0  0
 10 13  1  0  0  0  0
 10 12  1  0  0  0  0
 11  5  2  0  0  0  0
 12 22  1  0  0  0  0
 13  3  2  0  0  0  0
 14  6  2  0  0  0  0
 14 20  1  0  0  0  0
 15  2  2  0  0  0  0
 15  1  1  0  0  0  0
 16 18  1  0  0  0  0
 17 14  1  0  0  0  0
 18  1  2  0  0  0  0
 19  4  1  0  0  0  0
 20 11  1  0  0  0  0
 21 11  1  0  0  0  0
 21 19  2  0  0  0  0
 22 16  2  0  0  0  0
 22 15  1  0  0  0  0
 23 13  1  0  0  0  0
 24 25  1  0  0  0  0
 24 26  1  0  0  0  0
 25 26  1  0  0  0  0
 25 23  1  0  0  0  0
 26 28  1  1  0  0  0
 28 27  1  6  0  0  0
 28 30  1  0  0  0  0
 30 29  1  0  0  0  0
M  END
>  <MODEL>
4

>  <REMARK>
 VINA RESULT:      -7.1      2.799      5.664
  Name = 
  4 active torsions:
  status: ('A' for Active; 'I' for Inactive)
    1  A    between atoms: N_10  and  C_23
    2  A    between atoms: C_11  and  C_20
    3  A    between atoms: C_18  and  C_23
    4  A    between atoms: C_20  and  C_26
                            x       y       z     vdW  Elec       q    Type
                         _______ _______ _______ _____ _____    ______ ____

>  <TORSDO>
F 4

$$$$
=
 OpenBabel11042413443D

 30 35  0  0  1  0  0  0  0  0999 V2000
  194.8050  173.9250  144.8980 N   0  0  0  0  0  0  0  0  0  0  0  0
  194.7400  175.6690  146.5130 O   0  0  0  0  0  0  0  0  0  0  0  0
  191.8990  174.5620  142.8600 C   0  0  0  0  0  3  0  0  0  0  0  0
  190.1370  176.9940  146.0600 C   0  0  0  0  0  0  0  0  0  0  0  0
  188.6010  177.2740  144.2300 N   0  0  0  0  0  0  0  0  0  0  0  0
  186.7640  177.8380  147.1710 N   0  0  0  0  0  0  0  0  0  0  0  0
  189.8500  176.9840  144.6990 C   0  0  0  0  0  0  0  0  0  0  0  0
  191.5340  176.6790  146.2030 C   0  0  0  0  0  0  0  0  0  0  0  0
  192.1440  176.5460  147.2970 O   0  0  0  0  0  0  0  0  0  0  0  0
  191.0810  176.6980  143.8850 C   0  0  1  0  0  3  0  0  0  0  0  0
  187.6400  177.5410  145.1570 C   0  0  0  0  0  0  0  0  0  0  0  0
  192.1220  176.4790  144.9170 N   0  0  0  0  0  0  0  0  0  0  0  0
  190.9260  175.4870  142.9640 C   0  0  0  0  0  0  0  0  0  0  0  0
  185.8630  178.0090  146.1660 C   0  0  0  0  0  0  0  0  0  0  0  0
  194.2880  175.1180  145.4760 C   0  0  0  0  0  0  0  0  0  0  0  0
  193.0880  174.6490  143.7170 C   0  0  0  0  0  0  0  0  0  0  0  0
  184.4410  178.3610  146.4210 C   0  0  0  0  0  1  0  0  0  0  0  0
  194.0970  173.6480  143.8730 N   0  0  0  0  0  0  0  0  0  0  0  0
  189.1560  177.2680  147.0240 C   0  0  0  0  0  3  0  0  0  0  0  0
  186.3580  177.8370  144.9110 N   0  0  0  0  0  2  0  0  0  0  0  0
  187.8880  177.5410  146.5030 C   0  0  0  0  0  0  0  0  0  0  0  0
  193.1880  175.5640  144.6520 C   0  0  0  0  0  0  0  0  0  0  0  0
  189.7630  175.4090  142.0320 C   0  0  0  0  0  2  0  0  0  0  0  0
  187.5260  174.7140  142.0130 C   0  0  0  0  0  2  0  0  0  0  0  0
  188.8800  174.3140  142.4260 N   0  0  0  0  0  0  0  0  0  0  0  0
  188.1960  173.6420  141.2850 C   0  0  2  0  0  3  0  0  0  0  0  0
  187.8160  175.1680  139.4960 F   0  0  0  0  0  0  0  0  0  0  0  0
  188.6220  174.1170  139.8940 C   0  0  2  0  0  3  0  0  0  0  0  0
  188.5650  173.4650  137.6030 O   0  0  0  0  0  1  0  0  0  0  0  0
  188.4900  172.9740  138.9060 C   0  0  0  0  0  2  0  0  0  0  0  0
  1 15  1  0  0  0  0
  3 13  2  0  0  0  0
  3 16  1  0  0  0  0
  4  8  1  0  0  0  0
  4 19  1  0  0  0  0
  5  7  1  0  0  0  0
  5 11  2  0  0  0  0
  7  4  2  0  0  0  0
  8  9  2  0  0  0  0
 10 13  1  1  0  0  0
 10  7  1  0  0  0  0
 10 12  1  0  0  0  0
 11 21  1  0  0  0  0
 12  8  1  0  0  0  0
 14 17  1  0  0  0  0
 14  6  2  0  0  0  0
 15  2  2  0  0  0  0
 16 18  1  0  0  0  0
 16 22  2  0  0  0  0
 18  1  2  0  0  0  0
 20 11  1  0  0  0  0
 20 14  1  0  0  0  0
 21 19  2  0  0  0  0
 21  6  1  0  0  0  0
 22 12  1  0  0  0  0
 22 15  1  0  0  0  0
 23 25  1  0  0  0  0
 23 13  1  0  0  0  0
 24 25  1  0  0  0  0
 26 28  1  6  0  0  0
 26 24  1  0  0  0  0
 26 25  1  0  0  0  0
 28 27  1  6  0  0  0
 29 30  1  0  0  0  0
 30 28  1  0  0  0  0
M  END
>  <MODEL>
5

>  <REMARK>
 VINA RESULT:      -6.8      3.095      7.414
  Name = 
  4 active torsions:
  status: ('A' for Active; 'I' for Inactive)
    1  A    between atoms: N_10  and  C_23
    2  A    between atoms: C_11  and  C_20
    3  A    between atoms: C_18  and  C_23
    4  A    between atoms: C_20  and  C_26
                            x       y       z     vdW  Elec       q    Type
                         _______ _______ _______ _____ _____    ______ ____

>  <TORSDO>
F 4

$$$$
=
 OpenBabel11042413443D

 30 35  0  0  1  0  0  0  0  0999 V2000
  192.3740  173.0510  139.1410 N   0  0  0  0  0  0  0  0  0  0  0  0
  190.0840  172.6000  138.6890 O   0  0  0  0  0  0  0  0  0  0  0  0
  192.2810  174.7630  142.3140 C   0  0  0  0  0  3  0  0  0  0  0  0
  188.0500  175.7520  141.7030 C   0  0  0  0  0  0  0  0  0  0  0  0
  188.4910  176.5220  143.9380 N   0  0  0  0  0  0  0  0  0  0  0  0
  185.7970  178.4310  142.7360 N   0  0  0  0  0  0  0  0  0  0  0  0
  188.7840  175.7070  142.8820 C   0  0  0  0  0  0  0  0  0  0  0  0
  188.5980  174.7540  140.8220 C   0  0  0  0  0  0  0  0  0  0  0  0
  188.2220  174.5370  139.6400 O   0  0  0  0  0  0  0  0  0  0  0  0
  189.8330  174.6310  142.8320 C   0  0  1  0  0  3  0  0  0  0  0  0
  187.4670  177.4040  143.7710 C   0  0  0  0  0  0  0  0  0  0  0  0
  189.6800  174.0790  141.4650 N   0  0  0  0  0  0  0  0  0  0  0  0
  191.2470  175.1570  143.0800 C   0  0  0  0  0  0  0  0  0  0  0  0
  186.0100  178.8950  143.9980 C   0  0  0  0  0  0  0  0  0  0  0  0
  190.9870  173.0300  139.4530 C   0  0  0  0  0  0  0  0  0  0  0  0
  192.0440  173.8980  141.1510 C   0  0  0  0  0  0  0  0  0  0  0  0
  185.1910  179.9810  144.5970 C   0  0  0  0  0  1  0  0  0  0  0  0
  192.9910  173.5660  140.1320 N   0  0  0  0  0  0  0  0  0  0  0  0
  186.9920  176.6540  141.5190 C   0  0  0  0  0  3  0  0  0  0  0  0
  187.0260  178.2910  144.6710 N   0  0  0  0  0  2  0  0  0  0  0  0
  186.7370  177.4830  142.6160 C   0  0  0  0  0  0  0  0  0  0  0  0
  190.8280  173.5670  140.7850 C   0  0  0  0  0  0  0  0  0  0  0  0
  191.5300  175.9790  144.2930 C   0  0  0  0  0  2  0  0  0  0  0  0
  192.8920  176.1630  146.1900 C   0  0  0  0  0  2  0  0  0  0  0  0
  192.2880  175.1940  145.2640 N   0  0  0  0  0  0  0  0  0  0  0  0
  191.8010  175.3210  146.6660 C   0  0  2  0  0  3  0  0  0  0  0  0
  190.7210  177.1080  147.8120 F   0  0  0  0  0  0  0  0  0  0  0  0
  190.5210  176.1420  146.8420 C   0  0  2  0  0  3  0  0  0  0  0  0
  189.3160  174.1350  146.4010 O   0  0  0  0  0  1  0  0  0  0  0  0
  189.3860  175.2280  147.2630 C   0  0  0  0  0  2  0  0  0  0  0  0
  1 15  1  0  0  0  0
  1 18  2  0  0  0  0
  2 15  2  0  0  0  0
  3 13  2  0  0  0  0
  4  7  2  0  0  0  0
  6 14  2  0  0  0  0
  7  5  1  0  0  0  0
  8 12  1  0  0  0  0
  8  4  1  0  0  0  0
  9  8  2  0  0  0  0
 10  7  1  6  0  0  0
 10 13  1  0  0  0  0
 11  5  2  0  0  0  0
 11 20  1  0  0  0  0
 12 10  1  0  0  0  0
 13 23  1  0  0  0  0
 14 17  1  0  0  0  0
 14 20  1  0  0  0  0
 15 22  1  0  0  0  0
 16  3  1  0  0  0  0
 18 16  1  0  0  0  0
 19  4  1  0  0  0  0
 19 21  2  0  0  0  0
 21  6  1  0  0  0  0
 21 11  1  0  0  0  0
 22 16  2  0  0  0  0
 22 12  1  0  0  0  0
 23 25  1  0  0  0  0
 24 26  1  0  0  0  0
 25 24  1  0  0  0  0
 25 26  1  0  0  0  0
 26 28  1  6  0  0  0
 28 30  1  0  0  0  0
 28 27  1  1  0  0  0
 29 30  1  0  0  0  0
M  END
>  <MODEL>
6

>  <REMARK>
 VINA RESULT:      -6.7      2.548      6.230
  Name = 
  4 active torsions:
  status: ('A' for Active; 'I' for Inactive)
    1  A    between atoms: N_10  and  C_23
    2  A    between atoms: C_11  and  C_20
    3  A    between atoms: C_18  and  C_23
    4  A    between atoms: C_20  and  C_26
                            x       y       z     vdW  Elec       q    Type
                         _______ _______ _______ _____ _____    ______ ____

>  <TORSDO>
F 4

$$$$
=
 OpenBabel11042413443D

 30 35  0  0  1  0  0  0  0  0999 V2000
  185.9440  178.4860  145.4260 N   0  0  0  0  0  0  0  0  0  0  0  0
  186.9310  178.3160  147.5820 O   0  0  0  0  0  0  0  0  0  0  0  0
  187.7880  176.0840  143.4680 C   0  0  0  0  0  3  0  0  0  0  0  0
  191.0610  176.1520  146.3910 C   0  0  0  0  0  0  0  0  0  0  0  0
  191.7110  174.4170  144.8570 N   0  0  0  0  0  0  0  0  0  0  0  0
  194.6720  175.6280  146.3110 N   0  0  0  0  0  0  0  0  0  0  0  0
  190.7460  175.1880  145.4400 C   0  0  0  0  0  0  0  0  0  0  0  0
  189.8220  176.7510  146.8150 C   0  0  0  0  0  0  0  0  0  0  0  0
  189.7140  177.7030  147.6330 O   0  0  0  0  0  0  0  0  0  0  0  0
  189.2600  175.0880  145.2340 C   0  0  1  0  0  3  0  0  0  0  0  0
  193.0000  174.6590  145.2250 C   0  0  0  0  0  0  0  0  0  0  0  0
  188.7280  176.1450  146.1260 N   0  0  0  0  0  0  0  0  0  0  0  0
  188.8380  175.3020  143.7800 C   0  0  0  0  0  0  0  0  0  0  0  0
  195.0830  174.6510  145.4580 C   0  0  0  0  0  0  0  0  0  0  0  0
  186.8220  177.9220  146.3920 C   0  0  0  0  0  0  0  0  0  0  0  0
  187.0930  176.8350  144.5210 C   0  0  0  0  0  0  0  0  0  0  0  0
  196.5160  174.2900  145.2910 C   0  0  0  0  0  1  0  0  0  0  0  0
  186.1090  177.8540  144.3300 N   0  0  0  0  0  0  0  0  0  0  0  0
  192.3840  176.4110  146.7790 C   0  0  0  0  0  3  0  0  0  0  0  0
  194.0890  174.0280  144.7700 N   0  0  0  0  0  2  0  0  0  0  0  0
  193.3420  175.6140  146.1440 C   0  0  0  0  0  0  0  0  0  0  0  0
  187.5290  176.8310  145.7600 C   0  0  0  0  0  0  0  0  0  0  0  0
  189.4790  174.4990  142.6970 C   0  0  0  0  0  2  0  0  0  0  0  0
  188.5900  174.1750  140.5540 C   0  0  0  0  0  2  0  0  0  0  0  0
  188.4620  173.7560  141.9590 N   0  0  0  0  0  0  0  0  0  0  0  0
  189.0110  172.8290  140.9290 C   0  0  2  0  0  3  0  0  0  0  0  0
  191.0220  173.2660  139.7300 F   0  0  0  0  0  0  0  0  0  0  0  0
  190.5370  172.7120  140.9010 C   0  0  2  0  0  3  0  0  0  0  0  0
  190.4580  170.6880  142.1560 O   0  0  0  0  0  1  0  0  0  0  0  0
  190.9340  171.2500  140.9720 C   0  0  0  0  0  2  0  0  0  0  0  0
  1 15  1  0  0  0  0
  3 13  2  0  0  0  0
  3 16  1  0  0  0  0
  4 19  1  0  0  0  0
  4  8  1  0  0  0  0
  5 11  2  0  0  0  0
  5  7  1  0  0  0  0
  7  4  2  0  0  0  0
  8  9  2  0  0  0  0
 10 13  1  6  0  0  0
 10  7  1  0  0  0  0
 10 12  1  0  0  0  0
 11 21  1  0  0  0  0
 12  8  1  0  0  0  0
 14  6  2  0  0  0  0
 15  2  2  0  0  0  0
 16 22  2  0  0  0  0
 17 14  1  0  0  0  0
 18 16  1  0  0  0  0
 18  1  2  0  0  0  0
 20 11  1  0  0  0  0
 20 14  1  0  0  0  0
 21  6  1  0  0  0  0
 21 19  2  0  0  0  0
 22 12  1  0  0  0  0
 22 15  1  0  0  0  0
 23 13  1  0  0  0  0
 24 26  1  0  0  0  0
 24 25  1  0  0  0  0
 25 23  1  0  0  0  0
 26 28  1  1  0  0  0
 26 25  1  0  0  0  0
 28 27  1  6  0  0  0
 28 30  1  0  0  0  0
 30 29  1  0  0  0  0
M  END
>  <MODEL>
7

>  <REMARK>
 VINA RESULT:      -6.7      2.847      5.382
  Name = 
  4 active torsions:
  status: ('A' for Active; 'I' for Inactive)
    1  A    between atoms: N_10  and  C_23
    2  A    between atoms: C_11  and  C_20
    3  A    between atoms: C_18  and  C_23
    4  A    between atoms: C_20  and  C_26
                            x       y       z     vdW  Elec       q    Type
                         _______ _______ _______ _____ _____    ______ ____

>  <TORSDO>
F 4

$$$$
=
 OpenBabel11042413443D

 30 35  0  0  1  0  0  0  0  0999 V2000
  185.1860  177.9430  140.9710 N   0  0  0  0  0  0  0  0  0  0  0  0
  186.4760  177.1320  139.1460 O   0  0  0  0  0  0  0  0  0  0  0  0
  187.2190  177.1630  143.8460 C   0  0  0  0  0  3  0  0  0  0  0  0
  189.4290  174.1670  141.5220 C   0  0  0  0  0  0  0  0  0  0  0  0
  190.6020  174.2290  143.6210 N   0  0  0  0  0  0  0  0  0  0  0  0
  191.1880  171.0520  142.2410 N   0  0  0  0  0  0  0  0  0  0  0  0
  189.7950  174.8220  142.6920 C   0  0  0  0  0  0  0  0  0  0  0  0
  188.6110  175.0770  140.7630 C   0  0  0  0  0  0  0  0  0  0  0  0
  188.0510  174.8140  139.6660 O   0  0  0  0  0  0  0  0  0  0  0  0
  189.2550  176.2250  142.7250 C   0  0  1  0  0  3  0  0  0  0  0  0
  191.0050  172.9540  143.3630 C   0  0  0  0  0  0  0  0  0  0  0  0
  188.4740  176.3120  141.4680 N   0  0  0  0  0  0  0  0  0  0  0  0
  188.3910  176.5090  143.9540 C   0  0  0  0  0  0  0  0  0  0  0  0
  191.8690  171.0450  143.4190 C   0  0  0  0  0  0  0  0  0  0  0  0
  186.3440  177.3700  140.3740 C   0  0  0  0  0  0  0  0  0  0  0  0
  186.6990  177.5220  142.5200 C   0  0  0  0  0  0  0  0  0  0  0  0
  192.6490  169.8670  143.8820 C   0  0  0  0  0  1  0  0  0  0  0  0
  185.3930  178.0240  142.2280 N   0  0  0  0  0  0  0  0  0  0  0  0
  189.8380  172.8550  141.2440 C   0  0  0  0  0  3  0  0  0  0  0  0
  191.7850  172.1940  144.1420 N   0  0  0  0  0  2  0  0  0  0  0  0
  190.6470  172.2780  142.2290 C   0  0  0  0  0  0  0  0  0  0  0  0
  187.3100  177.1400  141.4230 C   0  0  0  0  0  0  0  0  0  0  0  0
  188.9240  176.2200  145.3170 C   0  0  0  0  0  2  0  0  0  0  0  0
  189.6110  177.4210  147.2070 C   0  0  0  0  0  2  0  0  0  0  0  0
  189.7980  177.3060  145.7530 N   0  0  0  0  0  0  0  0  0  0  0  0
  190.8690  176.8860  146.6990 C   0  0  2  0  0  3  0  0  0  0  0  0
  190.6110  175.1140  148.2700 F   0  0  0  0  0  0  0  0  0  0  0  0
  190.9600  175.3800  146.9580 C   0  0  2  0  0  3  0  0  0  0  0  0
  193.1960  175.9990  146.4130 O   0  0  0  0  0  1  0  0  0  0  0  0
  192.3790  174.9070  146.7060 C   0  0  0  0  0  2  0  0  0  0  0  0
  1 18  2  0  0  0  0
  2 15  2  0  0  0  0
  3 13  2  0  0  0  0
  4  7  2  0  0  0  0
  6 14  2  0  0  0  0
  7  5  1  0  0  0  0
  8 12  1  0  0  0  0
  8  4  1  0  0  0  0
  9  8  2  0  0  0  0
 10  7  1  1  0  0  0
 10 13  1  0  0  0  0
 11  5  2  0  0  0  0
 11 20  1  0  0  0  0
 12 10  1  0  0  0  0
 13 23  1  0  0  0  0
 14 17  1  0  0  0  0
 14 20  1  0  0  0  0
 15  1  1  0  0  0  0
 15 22  1  0  0  0  0
 16  3  1  0  0  0  0
 18 16  1  0  0  0  0
 19  4  1  0  0  0  0
 19 21  2  0  0  0  0
 21  6  1  0  0  0  0
 21 11  1  0  0  0  0
 22 12  1  0  0  0  0
 22 16  2  0  0  0  0
 23 25  1  0  0  0  0
 25 26  1  0  0  0  0
 25 24  1  0  0  0  0
 26 28  1  1  0  0  0
 26 24  1  0  0  0  0
 28 27  1  1  0  0  0
 29 30  1  0  0  0  0
 30 28  1  0  0  0  0
M  END
>  <MODEL>
8

>  <REMARK>
 VINA RESULT:      -6.6      2.452      3.529
  Name = 
  4 active torsions:
  status: ('A' for Active; 'I' for Inactive)
    1  A    between atoms: N_10  and  C_23
    2  A    between atoms: C_11  and  C_20
    3  A    between atoms: C_18  and  C_23
    4  A    between atoms: C_20  and  C_26
                            x       y       z     vdW  Elec       q    Type
                         _______ _______ _______ _____ _____    ______ ____

>  <TORSDO>
F 4

$$$$
=
 OpenBabel11042413443D

 30 35  0  0  1  0  0  0  0  0999 V2000
  185.0570  178.2530  140.7610 N   0  0  0  0  0  0  0  0  0  0  0  0
  186.2620  177.1780  139.0160 O   0  0  0  0  0  0  0  0  0  0  0  0
  187.2020  177.8530  143.6320 C   0  0  0  0  0  3  0  0  0  0  0  0
  189.2880  174.5330  141.6620 C   0  0  0  0  0  0  0  0  0  0  0  0
  190.5490  174.8700  143.6820 N   0  0  0  0  0  0  0  0  0  0  0  0
  191.0510  171.5230  142.7370 N   0  0  0  0  0  0  0  0  0  0  0  0
  189.7090  175.3390  142.7140 C   0  0  0  0  0  0  0  0  0  0  0  0
  188.4470  175.3400  140.8170 C   0  0  0  0  0  0  0  0  0  0  0  0
  187.8390  174.9340  139.7910 O   0  0  0  0  0  0  0  0  0  0  0  0
  189.1810  176.7400  142.5720 C   0  0  1  0  0  3  0  0  0  0  0  0
  190.9310  173.5660  143.5890 C   0  0  0  0  0  0  0  0  0  0  0  0
  188.3500  176.6620  141.3480 N   0  0  0  0  0  0  0  0  0  0  0  0
  188.3720  177.2040  143.7830 C   0  0  0  0  0  0  0  0  0  0  0  0
  191.7810  171.6710  143.8760 C   0  0  0  0  0  0  0  0  0  0  0  0
  186.1840  177.5870  140.2040 C   0  0  0  0  0  0  0  0  0  0  0  0
  186.6300  178.0310  142.2920 C   0  0  0  0  0  0  0  0  0  0  0  0
  192.5700  170.5590  144.4670 C   0  0  0  0  0  1  0  0  0  0  0  0
  185.3170  178.5060  141.9850 N   0  0  0  0  0  0  0  0  0  0  0  0
  189.6750  173.1890  141.5540 C   0  0  0  0  0  3  0  0  0  0  0  0
  191.7370  172.9110  144.4340 N   0  0  0  0  0  2  0  0  0  0  0  0
  190.5200  172.7430  142.5760 C   0  0  0  0  0  0  0  0  0  0  0  0
  187.1920  177.4920  141.2350 C   0  0  0  0  0  0  0  0  0  0  0  0
  188.9600  177.1000  145.1510 C   0  0  0  0  0  2  0  0  0  0  0  0
  188.8720  176.0550  147.2460 C   0  0  0  0  0  2  0  0  0  0  0  0
  188.3560  175.9820  145.8710 N   0  0  0  0  0  0  0  0  0  0  0  0
  187.4730  176.3880  147.0010 C   0  0  2  0  0  3  0  0  0  0  0  0
  188.0550  178.3950  148.1440 F   0  0  0  0  0  0  0  0  0  0  0  0
  187.2430  177.8950  147.1420 C   0  0  2  0  0  3  0  0  0  0  0  0
  184.9720  177.2620  146.7980 O   0  0  0  0  0  1  0  0  0  0  0  0
  185.7900  178.1550  147.4890 C   0  0  0  0  0  2  0  0  0  0  0  0
  1 18  2  0  0  0  0
  2 15  2  0  0  0  0
  3 13  2  0  0  0  0
  4  7  2  0  0  0  0
  6 14  2  0  0  0  0
  7  5  1  0  0  0  0
  8 12  1  0  0  0  0
  8  4  1  0  0  0  0
  9  8  2  0  0  0  0
 10  7  1  1  0  0  0
 10 13  1  0  0  0  0
 11  5  2  0  0  0  0
 11 20  1  0  0  0  0
 12 10  1  0  0  0  0
 13 23  1  0  0  0  0
 14 20  1  0  0  0  0
 14 17  1  0  0  0  0
 15  1  1  0  0  0  0
 15 22  1  0  0  0  0
 16  3  1  0  0  0  0
 18 16  1  0  0  0  0
 19  4  1  0  0  0  0
 19 21  2  0  0  0  0
 21  6  1  0  0  0  0
 21 11  1  0  0  0  0
 22 12  1  0  0  0  0
 22 16  2  0  0  0  0
 23 25  1  0  0  0  0
 25 26  1  0  0  0  0
 25 24  1  0  0  0  0
 26 28  1  6  0  0  0
 26 24  1  0  0  0  0
 28 30  1  0  0  0  0
 28 27  1  1  0  0  0
 29 30  1  0  0  0  0
M  END
>  <MODEL>
9

>  <REMARK>
 VINA RESULT:      -6.6      2.882      4.382
  Name = 
  4 active torsions:
  status: ('A' for Active; 'I' for Inactive)
    1  A    between atoms: N_10  and  C_23
    2  A    between atoms: C_11  and  C_20
    3  A    between atoms: C_18  and  C_23
    4  A    between atoms: C_20  and  C_26
                            x       y       z     vdW  Elec       q    Type
                         _______ _______ _______ _____ _____    ______ ____

>  <TORSDO>
F 4

$$$$
