=
 OpenBabel11042418293D

 30 32  0  0  1  0  0  0  0  0999 V2000
  191.9690  175.0420  144.7110 C   0  0  0  0  0  3  0  0  0  0  0  0
  190.3120  176.4420  146.5480 C   0  0  0  0  0  0  0  0  0  0  0  0
  188.1420  176.9850  143.0200 C   0  0  0  0  0  2  0  0  0  0  0  0
  190.5410  176.9460  145.1760 C   0  0  1  0  0  3  0  0  0  0  0  0
  189.1030  176.4840  147.1750 C   0  0  0  0  0  3  0  0  0  0  0  0
  191.3890  175.5800  147.0760 C   0  0  0  0  0  0  0  0  0  0  0  0
  192.4790  175.1230  146.1350 C   0  0  0  0  0  2  0  0  0  0  0  0
  190.4740  175.7510  142.8590 C   0  0  0  0  0  2  0  0  0  0  0  0
  188.3630  177.6980  144.3360 C   0  0  2  0  0  3  0  0  0  0  0  0
  191.0880  175.9360  144.2410 C   0  0  0  0  0  0  0  0  0  0  0  0
  191.4060  175.2210  148.2830 O   0  0  0  0  0  0  0  0  0  0  0  0
  189.5710  177.6110  144.7060 C   0  0  0  0  0  2  0  0  0  0  0  0
  188.9190  175.6280  142.8910 C   0  0  2  0  0  3  0  0  0  0  0  0
  187.7790  177.0250  146.6870 C   0  0  0  0  0  3  0  0  0  0  0  0
  187.4060  177.5260  145.4670 C   0  0  0  0  0  0  0  0  0  0  0  0
  187.9830  175.6330  140.6970 O   0  0  0  0  0  1  0  0  0  0  0  0
  188.4120  174.7830  141.7190 C   0  0  1  0  0  3  0  0  0  0  0  0
  189.4570  173.7900  141.1830 C   0  0  2  0  0  3  0  0  0  0  0  0
  189.3070  172.5390  139.3600 C   0  0  0  0  0  1  0  0  0  0  0  0
  189.5260  173.8500  139.7880 O   0  0  0  0  0  0  0  0  0  0  0  0
  189.4330  172.1890  142.9760 O   0  0  0  0  0  1  0  0  0  0  0  0
  189.1530  172.3600  141.6190 C   0  0  0  0  0  2  0  0  0  0  0  0
  186.0030  177.9810  145.3120 C   0  0  0  0  0  0  0  0  0  0  0  0
  185.0630  177.3230  145.8370 O   0  0  0  0  0  0  0  0  0  0  0  0
  185.5880  179.4970  144.4400 S   0  0  0  0  0  0  0  0  0  0  0  0
  184.3020  178.7160  143.4650 C   0  0  0  0  0  0  0  0  0  0  0  0
  183.1330  179.0150  143.6440 O   0  0  0  0  0  0  0  0  0  0  0  0
  184.6700  177.6990  142.4310 C   0  0  0  0  0  2  0  0  0  0  0  0
  184.9710  178.3600  141.0960 C   0  0  0  0  0  2  0  0  0  0  0  0
  183.8260  178.3790  140.3000 O   0  0  0  0  0  1  0  0  0  0  0  0
  1  7  1  0  0  0  0
  2  6  1  0  0  0  0
  2  5  2  0  0  0  0
  4 12  1  6  0  0  0
  4  2  1  0  0  0  0
  6 11  2  0  0  0  0
  7  6  1  0  0  0  0
  8 13  1  0  0  0  0
  8 10  1  0  0  0  0
  9  3  1  6  0  0  0
  9 12  1  0  0  0  0
  9 15  1  0  0  0  0
 10  1  2  0  0  0  0
 10  4  1  0  0  0  0
 13 17  1  6  0  0  0
 13  3  1  0  0  0  0
 14  5  1  0  0  0  0
 15 14  2  0  0  0  0
 17 16  1  6  0  0  0
 18 22  1  6  0  0  0
 18 17  1  0  0  0  0
 19 20  1  0  0  0  0
 20 18  1  0  0  0  0
 22 21  1  0  0  0  0
 23 15  1  0  0  0  0
 23 24  2  0  0  0  0
 25 23  1  0  0  0  0
 26 27  2  0  0  0  0
 26 25  1  0  0  0  0
 28 26  1  0  0  0  0
 29 28  1  0  0  0  0
 30 29  1  0  0  0  0
M  END
>  <MODEL>
1

>  <REMARK>
 VINA RESULT:      -6.7      0.000      0.000
  Name = 
  9 active torsions:
  status: ('A' for Active; 'I' for Inactive)
    1  A    between atoms: C_3  and  C_28
    2  A    between atoms: C_3  and  S_29
    3  A    between atoms: C_8  and  C_22
    4  A    between atoms: C_11  and  C_24
    5  A    between atoms: C_11  and  C_26
    6  A    between atoms: C_17  and  C_22
    7  A    between atoms: C_17  and  S_29
    8  A    between atoms: O_18  and  C_26
    9  A    between atoms: C_26  and  C_30
                            x       y       z     vdW  Elec       q    Type
                         _______ _______ _______ _____ _____    ______ ____

>  <TORSDO>
F 9

$$$$
=
 OpenBabel11042418293D

 30 32  0  0  1  0  0  0  0  0999 V2000
  192.8460  175.6450  145.1830 C   0  0  0  0  0  3  0  0  0  0  0  0
  190.5180  176.9410  146.1760 C   0  0  0  0  0  0  0  0  0  0  0  0
  189.4400  176.4310  142.1720 C   0  0  0  0  0  2  0  0  0  0  0  0
  191.0630  177.2530  144.8360 C   0  0  1  0  0  3  0  0  0  0  0  0
  189.1870  176.8260  146.4410 C   0  0  0  0  0  3  0  0  0  0  0  0
  191.5110  176.4240  147.1400 C   0  0  0  0  0  0  0  0  0  0  0  0
  192.8890  176.0620  146.6390 C   0  0  0  0  0  2  0  0  0  0  0  0
  191.8770  175.7110  142.8970 C   0  0  0  0  0  2  0  0  0  0  0  0
  189.1440  177.3790  143.3140 C   0  0  2  0  0  3  0  0  0  0  0  0
  192.0160  176.2440  144.3170 C   0  0  0  0  0  0  0  0  0  0  0  0
  191.2240  176.2770  148.3580 O   0  0  0  0  0  0  0  0  0  0  0  0
  190.1850  177.6110  143.9970 C   0  0  0  0  0  2  0  0  0  0  0  0
  190.4230  175.2680  142.5470 C   0  0  2  0  0  3  0  0  0  0  0  0
  188.0000  176.9880  145.5190 C   0  0  0  0  0  3  0  0  0  0  0  0
  187.9330  177.1940  144.1660 C   0  0  0  0  0  0  0  0  0  0  0  0
  191.7440  173.7460  141.2700 O   0  0  0  0  0  1  0  0  0  0  0  0
  190.4280  174.1560  141.4940 C   0  0  1  0  0  3  0  0  0  0  0  0
  189.5500  172.9510  141.8720 C   0  0  2  0  0  3  0  0  0  0  0  0
  188.4800  173.3530  139.9750 C   0  0  0  0  0  1  0  0  0  0  0  0
  188.2690  173.0820  141.3280 O   0  0  0  0  0  0  0  0  0  0  0  0
  190.2890  171.7520  143.8200 O   0  0  0  0  0  1  0  0  0  0  0  0
  189.4480  172.7780  143.3850 C   0  0  0  0  0  2  0  0  0  0  0  0
  186.5860  177.3090  143.5540 C   0  0  0  0  0  0  0  0  0  0  0  0
  185.8260  176.3030  143.5060 O   0  0  0  0  0  0  0  0  0  0  0  0
  185.9620  178.8720  142.9240 S   0  0  0  0  0  0  0  0  0  0  0  0
  184.7210  179.0220  144.2090 C   0  0  0  0  0  0  0  0  0  0  0  0
  183.5370  178.9290  143.9300 O   0  0  0  0  0  0  0  0  0  0  0  0
  185.1450  179.2570  145.6240 C   0  0  0  0  0  2  0  0  0  0  0  0
  184.3010  178.4420  146.5920 C   0  0  0  0  0  2  0  0  0  0  0  0
  184.6480  177.0940  146.5150 O   0  0  0  0  0  1  0  0  0  0  0  0
  1  7  1  0  0  0  0
  2  5  2  0  0  0  0
  2  6  1  0  0  0  0
  3 13  1  0  0  0  0
  4 12  1  6  0  0  0
  4  2  1  0  0  0  0
  6 11  2  0  0  0  0
  7  6  1  0  0  0  0
  8 10  1  0  0  0  0
  9  3  1  1  0  0  0
  9 12  1  0  0  0  0
  9 15  1  0  0  0  0
 10  4  1  0  0  0  0
 10  1  2  0  0  0  0
 13 17  1  6  0  0  0
 13  8  1  0  0  0  0
 14  5  1  0  0  0  0
 15 14  2  0  0  0  0
 17 16  1  1  0  0  0
 17 18  1  0  0  0  0
 18 22  1  1  0  0  0
 19 20  1  0  0  0  0
 20 18  1  0  0  0  0
 22 21  1  0  0  0  0
 23 15  1  0  0  0  0
 24 23  2  0  0  0  0
 25 23  1  0  0  0  0
 25 26  1  0  0  0  0
 26 28  1  0  0  0  0
 27 26  2  0  0  0  0
 28 29  1  0  0  0  0
 30 29  1  0  0  0  0
M  END
>  <MODEL>
2

>  <REMARK>
 VINA RESULT:      -6.6      1.521      2.271
  Name = 
  9 active torsions:
  status: ('A' for Active; 'I' for Inactive)
    1  A    between atoms: C_3  and  C_28
    2  A    between atoms: C_3  and  S_29
    3  A    between atoms: C_8  and  C_22
    4  A    between atoms: C_11  and  C_24
    5  A    between atoms: C_11  and  C_26
    6  A    between atoms: C_17  and  C_22
    7  A    between atoms: C_17  and  S_29
    8  A    between atoms: O_18  and  C_26
    9  A    between atoms: C_26  and  C_30
                            x       y       z     vdW  Elec       q    Type
                         _______ _______ _______ _____ _____    ______ ____

>  <TORSDO>
F 9

$$$$
=
 OpenBabel11042418293D

 30 32  0  0  1  0  0  0  0  0999 V2000
  192.2430  176.0210  143.1350 C   0  0  0  0  0  3  0  0  0  0  0  0
  191.4430  176.7510  145.7630 C   0  0  0  0  0  0  0  0  0  0  0  0
  187.8050  177.1210  143.7440 C   0  0  0  0  0  2  0  0  0  0  0  0
  190.9060  177.4440  144.5720 C   0  0  1  0  0  3  0  0  0  0  0  0
  190.6880  176.4190  146.8470 C   0  0  0  0  0  3  0  0  0  0  0  0
  192.7700  176.1320  145.5700 C   0  0  0  0  0  0  0  0  0  0  0  0
  193.3450  176.0680  144.1740 C   0  0  0  0  0  2  0  0  0  0  0  0
  189.9540  176.5350  142.3210 C   0  0  0  0  0  2  0  0  0  0  0  0
  188.4980  177.7160  144.9500 C   0  0  2  0  0  3  0  0  0  0  0  0
  191.1080  176.7130  143.3000 C   0  0  0  0  0  0  0  0  0  0  0  0
  193.4170  175.6570  146.5400 O   0  0  0  0  0  0  0  0  0  0  0  0
  189.7320  177.8940  144.7270 C   0  0  0  0  0  2  0  0  0  0  0  0
  188.6460  176.0240  143.0010 C   0  0  2  0  0  3  0  0  0  0  0  0
  189.2200  176.6640  147.1150 C   0  0  0  0  0  3  0  0  0  0  0  0
  188.2350  177.1870  146.3190 C   0  0  0  0  0  0  0  0  0  0  0  0
  187.8460  175.8260  140.7630 O   0  0  0  0  0  1  0  0  0  0  0  0
  187.7960  175.2150  142.0180 C   0  0  1  0  0  3  0  0  0  0  0  0
  188.2220  173.7410  141.9100 C   0  0  2  0  0  3  0  0  0  0  0  0
  189.0620  172.0140  143.0150 C   0  0  0  0  0  1  0  0  0  0  0  0
  189.1100  173.4070  142.9380 O   0  0  0  0  0  0  0  0  0  0  0  0
  187.9880  172.7010  139.7560 O   0  0  0  0  0  1  0  0  0  0  0  0
  188.8620  173.4340  140.5600 C   0  0  0  0  0  2  0  0  0  0  0  0
  186.8710  177.2920  146.8930 C   0  0  0  0  0  0  0  0  0  0  0  0
  186.1820  176.2510  147.0760 O   0  0  0  0  0  0  0  0  0  0  0  0
  186.1760  178.8680  147.4050 S   0  0  0  0  0  0  0  0  0  0  0  0
  184.8580  178.8070  146.1920 C   0  0  0  0  0  0  0  0  0  0  0  0
  183.7570  178.3850  146.5060 O   0  0  0  0  0  0  0  0  0  0  0  0
  185.1130  179.2780  144.7960 C   0  0  0  0  0  2  0  0  0  0  0  0
  183.9760  178.8860  143.8670 C   0  0  0  0  0  2  0  0  0  0  0  0
  184.4350  178.0000  142.8930 O   0  0  0  0  0  1  0  0  0  0  0  0
  1 10  2  0  0  0  0
  1  7  1  0  0  0  0
  2  5  2  0  0  0  0
  4 12  1  1  0  0  0
  4  2  1  0  0  0  0
  5 14  1  0  0  0  0
  6  2  1  0  0  0  0
  6 11  2  0  0  0  0
  7  6  1  0  0  0  0
  8 13  1  0  0  0  0
  8 10  1  0  0  0  0
  9  3  1  6  0  0  0
  9 15  1  0  0  0  0
 10  4  1  0  0  0  0
 12  9  1  0  0  0  0
 13 17  1  6  0  0  0
 13  3  1  0  0  0  0
 15 23  1  0  0  0  0
 15 14  2  0  0  0  0
 17 16  1  6  0  0  0
 18 22  1  6  0  0  0
 18 17  1  0  0  0  0
 18 20  1  0  0  0  0
 20 19  1  0  0  0  0
 21 22  1  0  0  0  0
 23 24  2  0  0  0  0
 23 25  1  0  0  0  0
 26 27  2  0  0  0  0
 26 25  1  0  0  0  0
 28 26  1  0  0  0  0
 29 28  1  0  0  0  0
 30 29  1  0  0  0  0
M  END
>  <MODEL>
3

>  <REMARK>
 VINA RESULT:      -6.5      1.529      2.116
  Name = 
  9 active torsions:
  status: ('A' for Active; 'I' for Inactive)
    1  A    between atoms: C_3  and  C_28
    2  A    between atoms: C_3  and  S_29
    3  A    between atoms: C_8  and  C_22
    4  A    between atoms: C_11  and  C_24
    5  A    between atoms: C_11  and  C_26
    6  A    between atoms: C_17  and  C_22
    7  A    between atoms: C_17  and  S_29
    8  A    between atoms: O_18  and  C_26
    9  A    between atoms: C_26  and  C_30
                            x       y       z     vdW  Elec       q    Type
                         _______ _______ _______ _____ _____    ______ ____

>  <TORSDO>
F 9

$$$$
=
 OpenBabel11042418293D

 30 32  0  0  1  0  0  0  0  0999 V2000
  192.3200  174.5630  145.6340 C   0  0  0  0  0  3  0  0  0  0  0  0
  190.5480  176.7520  146.0180 C   0  0  0  0  0  0  0  0  0  0  0  0
  188.9610  175.1090  142.5200 C   0  0  0  0  0  2  0  0  0  0  0  0
  191.0140  176.3640  144.6690 C   0  0  1  0  0  3  0  0  0  0  0  0
  189.2700  177.1360  146.2930 C   0  0  0  0  0  3  0  0  0  0  0  0
  191.4570  176.3720  147.1180 C   0  0  0  0  0  0  0  0  0  0  0  0
  192.6260  175.4650  146.8120 C   0  0  0  0  0  2  0  0  0  0  0  0
  191.1740  174.0410  143.4930 C   0  0  0  0  0  2  0  0  0  0  0  0
  189.0530  176.4580  143.1980 C   0  0  2  0  0  3  0  0  0  0  0  0
  191.5980  175.0050  144.5950 C   0  0  0  0  0  0  0  0  0  0  0  0
  191.2700  176.7840  148.2930 O   0  0  0  0  0  0  0  0  0  0  0  0
  190.1830  176.6180  143.7470 C   0  0  0  0  0  2  0  0  0  0  0  0
  189.6260  173.9410  143.3290 C   0  0  2  0  0  3  0  0  0  0  0  0
  188.0820  177.2760  145.3680 C   0  0  0  0  0  3  0  0  0  0  0  0
  187.9330  176.9670  144.0410 C   0  0  0  0  0  0  0  0  0  0  0  0
  187.9550  172.6600  142.2070 O   0  0  0  0  0  1  0  0  0  0  0  0
  189.2190  172.5650  142.7930 C   0  0  1  0  0  3  0  0  0  0  0  0
  190.2280  171.9750  141.7940 C   0  0  2  0  0  3  0  0  0  0  0  0
  190.5390  173.0020  139.8550 C   0  0  0  0  0  1  0  0  0  0  0  0
  189.7330  172.0530  140.4880 O   0  0  0  0  0  0  0  0  0  0  0  0
  190.7730  169.7880  140.9570 O   0  0  0  0  0  1  0  0  0  0  0  0
  190.5720  170.5260  142.1250 C   0  0  0  0  0  2  0  0  0  0  0  0
  186.6120  177.2290  143.4190 C   0  0  0  0  0  0  0  0  0  0  0  0
  185.7830  176.2890  143.2780 O   0  0  0  0  0  0  0  0  0  0  0  0
  186.1150  178.8790  142.9070 S   0  0  0  0  0  0  0  0  0  0  0  0
  184.7790  178.9670  144.0980 C   0  0  0  0  0  0  0  0  0  0  0  0
  183.6220  178.8480  143.7300 O   0  0  0  0  0  0  0  0  0  0  0  0
  185.0900  179.1840  145.5450 C   0  0  0  0  0  2  0  0  0  0  0  0
  184.2290  178.2970  146.4300 C   0  0  0  0  0  2  0  0  0  0  0  0
  184.7000  176.9840  146.3990 O   0  0  0  0  0  1  0  0  0  0  0  0
  1  7  1  0  0  0  0
  2  5  2  0  0  0  0
  2  6  1  0  0  0  0
  3 13  1  0  0  0  0
  4 12  1  6  0  0  0
  4  2  1  0  0  0  0
  6 11  2  0  0  0  0
  7  6  1  0  0  0  0
  8 10  1  0  0  0  0
  9  3  1  1  0  0  0
  9 12  1  0  0  0  0
  9 15  1  0  0  0  0
 10  4  1  0  0  0  0
 10  1  2  0  0  0  0
 13 17  1  6  0  0  0
 13  8  1  0  0  0  0
 14  5  1  0  0  0  0
 15 14  2  0  0  0  0
 17 16  1  6  0  0  0
 18 22  1  1  0  0  0
 18 17  1  0  0  0  0
 19 20  1  0  0  0  0
 20 18  1  0  0  0  0
 21 22  1  0  0  0  0
 23 15  1  0  0  0  0
 24 23  2  0  0  0  0
 25 23  1  0  0  0  0
 25 26  1  0  0  0  0
 26 28  1  0  0  0  0
 27 26  2  0  0  0  0
 28 29  1  0  0  0  0
 30 29  1  0  0  0  0
M  END
>  <MODEL>
4

>  <REMARK>
 VINA RESULT:      -6.5      1.567      2.403
  Name = 
  9 active torsions:
  status: ('A' for Active; 'I' for Inactive)
    1  A    between atoms: C_3  and  C_28
    2  A    between atoms: C_3  and  S_29
    3  A    between atoms: C_8  and  C_22
    4  A    between atoms: C_11  and  C_24
    5  A    between atoms: C_11  and  C_26
    6  A    between atoms: C_17  and  C_22
    7  A    between atoms: C_17  and  S_29
    8  A    between atoms: O_18  and  C_26
    9  A    between atoms: C_26  and  C_30
                            x       y       z     vdW  Elec       q    Type
                         _______ _______ _______ _____ _____    ______ ____

>  <TORSDO>
F 9

$$$$
=
 OpenBabel11042418293D

 30 32  0  0  1  0  0  0  0  0999 V2000
  185.1490  178.5940  146.0090 C   0  0  0  0  0  3  0  0  0  0  0  0
  187.5690  177.7730  147.2570 C   0  0  0  0  0  0  0  0  0  0  0  0
  188.2530  176.4480  143.3550 C   0  0  0  0  0  2  0  0  0  0  0  0
  186.8990  176.9300  146.2430 C   0  0  1  0  0  3  0  0  0  0  0  0
  188.9190  177.9420  147.3250 C   0  0  0  0  0  3  0  0  0  0  0  0
  186.6720  178.6950  147.9820 C   0  0  0  0  0  0  0  0  0  0  0  0
  185.2490  178.8540  147.4990 C   0  0  0  0  0  2  0  0  0  0  0  0
  185.8930  177.5030  143.9050 C   0  0  0  0  0  2  0  0  0  0  0  0
  188.6620  176.0820  144.7640 C   0  0  2  0  0  3  0  0  0  0  0  0
  185.8950  177.6470  145.4220 C   0  0  0  0  0  0  0  0  0  0  0  0
  187.0740  179.3470  148.9820 O   0  0  0  0  0  0  0  0  0  0  0  0
  187.6940  176.2090  145.5700 C   0  0  0  0  0  2  0  0  0  0  0  0
  187.3040  177.6950  143.2690 C   0  0  2  0  0  3  0  0  0  0  0  0
  190.0120  177.3500  146.4640 C   0  0  0  0  0  3  0  0  0  0  0  0
  189.9490  176.5740  145.3370 C   0  0  0  0  0  0  0  0  0  0  0  0
  188.4710  178.3280  141.2870 O   0  0  0  0  0  1  0  0  0  0  0  0
  187.1920  178.2360  141.8410 C   0  0  1  0  0  3  0  0  0  0  0  0
  186.2780  177.3930  140.9360 C   0  0  2  0  0  3  0  0  0  0  0  0
  186.3290  176.9620  138.7640 C   0  0  0  0  0  1  0  0  0  0  0  0
  187.0260  176.7370  139.9530 O   0  0  0  0  0  0  0  0  0  0  0  0
  184.0470  178.2760  141.0680 O   0  0  0  0  0  1  0  0  0  0  0  0
  185.1960  178.2420  140.2760 C   0  0  0  0  0  2  0  0  0  0  0  0
  191.2310  176.1530  144.7200 C   0  0  0  0  0  0  0  0  0  0  0  0
  192.0800  177.0200  144.3760 O   0  0  0  0  0  0  0  0  0  0  0  0
  191.6530  174.4200  144.4980 S   0  0  0  0  0  0  0  0  0  0  0  0
  192.9310  174.4560  145.7550 C   0  0  0  0  0  0  0  0  0  0  0  0
  192.6820  174.8870  146.8680 O   0  0  0  0  0  0  0  0  0  0  0  0
  194.3010  173.9500  145.4320 C   0  0  0  0  0  2  0  0  0  0  0  0
  195.3610  174.9910  145.7570 C   0  0  0  0  0  2  0  0  0  0  0  0
  195.2880  176.0500  144.8520 O   0  0  0  0  0  1  0  0  0  0  0  0
  1  7  1  0  0  0  0
  2  5  2  0  0  0  0
  2  6  1  0  0  0  0
  4 12  1  6  0  0  0
  4  2  1  0  0  0  0
  6 11  2  0  0  0  0
  7  6  1  0  0  0  0
  8 10  1  0  0  0  0
  9  3  1  6  0  0  0
  9 15  1  0  0  0  0
  9 12  1  0  0  0  0
 10  1  2  0  0  0  0
 10  4  1  0  0  0  0
 13 17  1  6  0  0  0
 13  3  1  0  0  0  0
 13  8  1  0  0  0  0
 14  5  1  0  0  0  0
 15 14  2  0  0  0  0
 17 16  1  6  0  0  0
 18 22  1  6  0  0  0
 18 17  1  0  0  0  0
 19 20  1  0  0  0  0
 20 18  1  0  0  0  0
 22 21  1  0  0  0  0
 23 15  1  0  0  0  0
 24 23  2  0  0  0  0
 25 23  1  0  0  0  0
 25 26  1  0  0  0  0
 26 27  2  0  0  0  0
 28 26  1  0  0  0  0
 28 29  1  0  0  0  0
 30 29  1  0  0  0  0
M  END
>  <MODEL>
5

>  <REMARK>
 VINA RESULT:      -6.5      2.847      6.571
  Name = 
  9 active torsions:
  status: ('A' for Active; 'I' for Inactive)
    1  A    between atoms: C_3  and  C_28
    2  A    between atoms: C_3  and  S_29
    3  A    between atoms: C_8  and  C_22
    4  A    between atoms: C_11  and  C_24
    5  A    between atoms: C_11  and  C_26
    6  A    between atoms: C_17  and  C_22
    7  A    between atoms: C_17  and  S_29
    8  A    between atoms: O_18  and  C_26
    9  A    between atoms: C_26  and  C_30
                            x       y       z     vdW  Elec       q    Type
                         _______ _______ _______ _____ _____    ______ ____

>  <TORSDO>
F 9

$$$$
=
 OpenBabel11042418293D

 30 32  0  0  1  0  0  0  0  0999 V2000
  185.0030  178.4540  145.9420 C   0  0  0  0  0  3  0  0  0  0  0  0
  187.4230  177.7990  147.2810 C   0  0  0  0  0  0  0  0  0  0  0  0
  188.3410  176.5230  143.4110 C   0  0  0  0  0  2  0  0  0  0  0  0
  186.8510  176.9130  146.2450 C   0  0  1  0  0  3  0  0  0  0  0  0
  188.7550  178.0590  147.3990 C   0  0  0  0  0  3  0  0  0  0  0  0
  186.4390  178.6590  147.9700 C   0  0  0  0  0  0  0  0  0  0  0  0
  185.0280  178.7210  147.4340 C   0  0  0  0  0  2  0  0  0  0  0  0
  185.8960  177.4160  143.8710 C   0  0  0  0  0  2  0  0  0  0  0  0
  188.7220  176.1860  144.8360 C   0  0  2  0  0  3  0  0  0  0  0  0
  185.8320  177.5600  145.3860 C   0  0  0  0  0  0  0  0  0  0  0  0
  186.7590  179.3360  148.9830 O   0  0  0  0  0  0  0  0  0  0  0  0
  187.7170  176.2470  145.6050 C   0  0  0  0  0  2  0  0  0  0  0  0
  187.3140  177.7030  143.2870 C   0  0  2  0  0  3  0  0  0  0  0  0
  189.9180  177.5430  146.5820 C   0  0  0  0  0  3  0  0  0  0  0  0
  189.9500  176.7640  145.4560 C   0  0  0  0  0  0  0  0  0  0  0  0
  188.5050  178.3190  141.3140 O   0  0  0  0  0  1  0  0  0  0  0  0
  187.2200  178.2350  141.8540 C   0  0  1  0  0  3  0  0  0  0  0  0
  186.3130  177.3890  140.9450 C   0  0  2  0  0  3  0  0  0  0  0  0
  186.3200  176.7950  138.8110 C   0  0  0  0  0  1  0  0  0  0  0  0
  187.0700  176.7100  139.9850 O   0  0  0  0  0  0  0  0  0  0  0  0
  184.1180  178.3640  141.0570 O   0  0  0  0  0  1  0  0  0  0  0  0
  185.2530  178.2400  140.2530 C   0  0  0  0  0  2  0  0  0  0  0  0
  191.2790  176.4310  144.8880 C   0  0  0  0  0  0  0  0  0  0  0  0
  191.8200  177.2040  144.0510 O   0  0  0  0  0  0  0  0  0  0  0  0
  192.1930  174.9720  145.4050 S   0  0  0  0  0  0  0  0  0  0  0  0
  191.5020  173.9430  144.1110 C   0  0  0  0  0  0  0  0  0  0  0  0
  191.8750  174.0780  142.9570 O   0  0  0  0  0  0  0  0  0  0  0  0
  190.4690  172.9170  144.4520 C   0  0  0  0  0  2  0  0  0  0  0  0
  189.4710  172.7440  143.3190 C   0  0  0  0  0  2  0  0  0  0  0  0
  189.6640  171.5130  142.6920 O   0  0  0  0  0  1  0  0  0  0  0  0
  1  7  1  0  0  0  0
  2  5  2  0  0  0  0
  2  6  1  0  0  0  0
  4 12  1  6  0  0  0
  4  2  1  0  0  0  0
  6 11  2  0  0  0  0
  7  6  1  0  0  0  0
  8 10  1  0  0  0  0
  9  3  1  6  0  0  0
  9 15  1  0  0  0  0
  9 12  1  0  0  0  0
 10  1  2  0  0  0  0
 10  4  1  0  0  0  0
 13 17  1  6  0  0  0
 13  3  1  0  0  0  0
 13  8  1  0  0  0  0
 14  5  1  0  0  0  0
 15 14  2  0  0  0  0
 17 16  1  6  0  0  0
 18 22  1  6  0  0  0
 18 17  1  0  0  0  0
 19 20  1  0  0  0  0
 20 18  1  0  0  0  0
 22 21  1  0  0  0  0
 23 25  1  0  0  0  0
 23 15  1  0  0  0  0
 24 23  2  0  0  0  0
 26 28  1  0  0  0  0
 26 25  1  0  0  0  0
 27 26  2  0  0  0  0
 29 28  1  0  0  0  0
 30 29  1  0  0  0  0
M  END
>  <MODEL>
6

>  <REMARK>
 VINA RESULT:      -6.3      2.574      5.918
  Name = 
  9 active torsions:
  status: ('A' for Active; 'I' for Inactive)
    1  A    between atoms: C_3  and  C_28
    2  A    between atoms: C_3  and  S_29
    3  A    between atoms: C_8  and  C_22
    4  A    between atoms: C_11  and  C_24
    5  A    between atoms: C_11  and  C_26
    6  A    between atoms: C_17  and  C_22
    7  A    between atoms: C_17  and  S_29
    8  A    between atoms: O_18  and  C_26
    9  A    between atoms: C_26  and  C_30
                            x       y       z     vdW  Elec       q    Type
                         _______ _______ _______ _____ _____    ______ ____

>  <TORSDO>
F 9

$$$$
=
 OpenBabel11042418293D

 30 32  0  0  1  0  0  0  0  0999 V2000
  192.8090  176.7480  146.9300 C   0  0  0  0  0  3  0  0  0  0  0  0
  192.9800  175.0430  144.6620 C   0  0  0  0  0  0  0  0  0  0  0  0
  188.8540  175.0130  145.3100 C   0  0  0  0  0  2  0  0  0  0  0  0
  192.0370  174.7650  145.7670 C   0  0  1  0  0  3  0  0  0  0  0  0
  192.6690  174.8780  143.3450 C   0  0  0  0  0  3  0  0  0  0  0  0
  194.1660  175.8350  145.0470 C   0  0  0  0  0  0  0  0  0  0  0  0
  194.2070  176.4570  146.4230 C   0  0  0  0  0  2  0  0  0  0  0  0
  190.3680  176.3060  147.0470 C   0  0  0  0  0  2  0  0  0  0  0  0
  189.9160  174.1080  144.7260 C   0  0  2  0  0  3  0  0  0  0  0  0
  191.7900  175.9200  146.6600 C   0  0  0  0  0  0  0  0  0  0  0  0
  195.1280  176.0010  144.2510 O   0  0  0  0  0  0  0  0  0  0  0  0
  190.9850  174.1610  145.4020 C   0  0  0  0  0  2  0  0  0  0  0  0
  189.4010  176.3900  145.8260 C   0  0  2  0  0  3  0  0  0  0  0  0
  191.3880  174.3910  142.7080 C   0  0  0  0  0  3  0  0  0  0  0  0
  190.1720  174.0800  143.2570 C   0  0  0  0  0  0  0  0  0  0  0  0
  188.0060  178.0900  144.9030 O   0  0  0  0  0  1  0  0  0  0  0  0
  188.2770  177.3960  146.0850 C   0  0  1  0  0  3  0  0  0  0  0  0
  186.9920  176.7520  146.6320 C   0  0  2  0  0  3  0  0  0  0  0  0
  184.7960  176.9580  146.4280 C   0  0  0  0  0  1  0  0  0  0  0  0
  185.9670  176.8100  145.6820 O   0  0  0  0  0  0  0  0  0  0  0  0
  187.1180  178.6770  148.0660 O   0  0  0  0  0  1  0  0  0  0  0  0
  186.5310  177.4180  147.9250 C   0  0  0  0  0  2  0  0  0  0  0  0
  189.1000  173.6250  142.3370 C   0  0  0  0  0  0  0  0  0  0  0  0
  188.4550  172.5700  142.5920 O   0  0  0  0  0  0  0  0  0  0  0  0
  188.6340  174.5700  140.8820 S   0  0  0  0  0  0  0  0  0  0  0  0
  188.1300  176.0020  141.8360 C   0  0  0  0  0  0  0  0  0  0  0  0
  188.9140  176.9170  142.0260 O   0  0  0  0  0  0  0  0  0  0  0  0
  186.7430  176.0690  142.3930 C   0  0  0  0  0  2  0  0  0  0  0  0
  186.0010  177.2880  141.8700 C   0  0  0  0  0  2  0  0  0  0  0  0
  184.8940  177.5590  142.6750 O   0  0  0  0  0  1  0  0  0  0  0  0
  2  6  1  0  0  0  0
  2  4  1  0  0  0  0
  3 13  1  0  0  0  0
  4 12  1  6  0  0  0
  4 10  1  0  0  0  0
  5  2  2  0  0  0  0
  6  7  1  0  0  0  0
  7  1  1  0  0  0  0
  9  3  1  6  0  0  0
  9 12  1  0  0  0  0
 10  1  2  0  0  0  0
 10  8  1  0  0  0  0
 11  6  2  0  0  0  0
 13 17  1  1  0  0  0
 13  8  1  0  0  0  0
 14 15  2  0  0  0  0
 14  5  1  0  0  0  0
 15  9  1  0  0  0  0
 17 16  1  6  0  0  0
 17 18  1  0  0  0  0
 18 22  1  1  0  0  0
 20 19  1  0  0  0  0
 20 18  1  0  0  0  0
 22 21  1  0  0  0  0
 23 24  2  0  0  0  0
 23 15  1  0  0  0  0
 25 26  1  0  0  0  0
 25 23  1  0  0  0  0
 26 27  2  0  0  0  0
 26 28  1  0  0  0  0
 29 28  1  0  0  0  0
 29 30  1  0  0  0  0
M  END
>  <MODEL>
7

>  <REMARK>
 VINA RESULT:      -6.2      2.346      5.278
  Name = 
  9 active torsions:
  status: ('A' for Active; 'I' for Inactive)
    1  A    between atoms: C_3  and  C_28
    2  A    between atoms: C_3  and  S_29
    3  A    between atoms: C_8  and  C_22
    4  A    between atoms: C_11  and  C_24
    5  A    between atoms: C_11  and  C_26
    6  A    between atoms: C_17  and  C_22
    7  A    between atoms: C_17  and  S_29
    8  A    between atoms: O_18  and  C_26
    9  A    between atoms: C_26  and  C_30
                            x       y       z     vdW  Elec       q    Type
                         _______ _______ _______ _____ _____    ______ ____

>  <TORSDO>
F 9

$$$$
=
 OpenBabel11042418293D

 30 32  0  0  1  0  0  0  0  0999 V2000
  188.3300  177.6320  147.0300 C   0  0  0  0  0  3  0  0  0  0  0  0
  186.5720  177.0960  144.8610 C   0  0  0  0  0  0  0  0  0  0  0  0
  190.2640  176.5260  142.9910 C   0  0  0  0  0  2  0  0  0  0  0  0
  187.8370  177.8360  144.6640 C   0  0  1  0  0  3  0  0  0  0  0  0
  186.1040  176.1570  143.9910 C   0  0  0  0  0  3  0  0  0  0  0  0
  186.0130  177.1820  146.2250 C   0  0  0  0  0  0  0  0  0  0  0  0
  186.8520  177.8060  147.3150 C   0  0  0  0  0  2  0  0  0  0  0  0
  190.2650  177.3690  145.4950 C   0  0  0  0  0  2  0  0  0  0  0  0
  188.8580  176.9440  142.6200 C   0  0  2  0  0  3  0  0  0  0  0  0
  188.8040  177.6960  145.7780 C   0  0  0  0  0  0  0  0  0  0  0  0
  184.8620  176.7430  146.4880 O   0  0  0  0  0  0  0  0  0  0  0  0
  188.3490  177.6800  143.5160 C   0  0  0  0  0  2  0  0  0  0  0  0
  190.4460  176.1740  144.5090 C   0  0  2  0  0  3  0  0  0  0  0  0
  186.6930  175.6690  142.6870 C   0  0  0  0  0  3  0  0  0  0  0  0
  187.8850  175.9540  142.0750 C   0  0  0  0  0  0  0  0  0  0  0  0
  192.0930  174.6760  143.6530 O   0  0  0  0  0  1  0  0  0  0  0  0
  191.7620  175.4380  144.7760 C   0  0  1  0  0  3  0  0  0  0  0  0
  192.9230  176.3750  145.1460 C   0  0  2  0  0  3  0  0  0  0  0  0
  195.1100  176.1220  144.8960 C   0  0  0  0  0  1  0  0  0  0  0  0
  193.9300  176.3210  144.1770 O   0  0  0  0  0  0  0  0  0  0  0  0
  192.6060  175.2810  147.2630 O   0  0  0  0  0  1  0  0  0  0  0  0
  193.5100  176.0360  146.5130 C   0  0  0  0  0  2  0  0  0  0  0  0
  188.1660  175.2930  140.7760 C   0  0  0  0  0  0  0  0  0  0  0  0
  187.5600  175.6650  139.7350 O   0  0  0  0  0  0  0  0  0  0  0  0
  189.4060  174.0020  140.6180 S   0  0  0  0  0  0  0  0  0  0  0  0
  188.5970  172.9260  141.8020 C   0  0  0  0  0  0  0  0  0  0  0  0
  187.4700  172.5130  141.5830 O   0  0  0  0  0  0  0  0  0  0  0  0
  189.3120  172.5340  143.0560 C   0  0  0  0  0  2  0  0  0  0  0  0
  190.5630  171.7280  142.7460 C   0  0  0  0  0  2  0  0  0  0  0  0
  190.2300  170.5860  142.0170 O   0  0  0  0  0  1  0  0  0  0  0  0
  1  7  1  0  0  0  0
  2  6  1  0  0  0  0
  3 13  1  0  0  0  0
  4 12  1  6  0  0  0
  4  2  1  0  0  0  0
  4 10  1  0  0  0  0
  5  2  2  0  0  0  0
  6 11  2  0  0  0  0
  6  7  1  0  0  0  0
  8 10  1  0  0  0  0
  9  3  1  1  0  0  0
  9 12  1  0  0  0  0
 10  1  2  0  0  0  0
 13 17  1  6  0  0  0
 13  8  1  0  0  0  0
 14  5  1  0  0  0  0
 15  9  1  0  0  0  0
 15 14  2  0  0  0  0
 17 16  1  6  0  0  0
 17 18  1  0  0  0  0
 18 22  1  1  0  0  0
 20 19  1  0  0  0  0
 20 18  1  0  0  0  0
 22 21  1  0  0  0  0
 23 15  1  0  0  0  0
 24 23  2  0  0  0  0
 25 23  1  0  0  0  0
 25 26  1  0  0  0  0
 26 28  1  0  0  0  0
 27 26  2  0  0  0  0
 29 28  1  0  0  0  0
 30 29  1  0  0  0  0
M  END
>  <MODEL>
8

>  <REMARK>
 VINA RESULT:      -6.2      2.397      5.913
  Name = 
  9 active torsions:
  status: ('A' for Active; 'I' for Inactive)
    1  A    between atoms: C_3  and  C_28
    2  A    between atoms: C_3  and  S_29
    3  A    between atoms: C_8  and  C_22
    4  A    between atoms: C_11  and  C_24
    5  A    between atoms: C_11  and  C_26
    6  A    between atoms: C_17  and  C_22
    7  A    between atoms: C_17  and  S_29
    8  A    between atoms: O_18  and  C_26
    9  A    between atoms: C_26  and  C_30
                            x       y       z     vdW  Elec       q    Type
                         _______ _______ _______ _____ _____    ______ ____

>  <TORSDO>
F 9

$$$$
=
 OpenBabel11042418293D

 30 32  0  0  1  0  0  0  0  0999 V2000
  185.2010  178.0510  145.1310 C   0  0  0  0  0  3  0  0  0  0  0  0
  187.0580  177.9440  147.2810 C   0  0  0  0  0  0  0  0  0  0  0  0
  189.0880  175.6690  144.4260 C   0  0  0  0  0  2  0  0  0  0  0  0
  186.8040  176.7680  146.4220 C   0  0  1  0  0  3  0  0  0  0  0  0
  188.2960  178.3020  147.7240 C   0  0  0  0  0  3  0  0  0  0  0  0
  185.9420  178.9080  147.3540 C   0  0  0  0  0  0  0  0  0  0  0  0
  184.7710  178.7350  146.4140 C   0  0  0  0  0  2  0  0  0  0  0  0
  186.6570  176.5160  143.8300 C   0  0  0  0  0  2  0  0  0  0  0  0
  188.9930  175.7750  145.9320 C   0  0  2  0  0  3  0  0  0  0  0  0
  186.1290  177.0840  145.1420 C   0  0  0  0  0  0  0  0  0  0  0  0
  185.9540  179.8630  148.1750 O   0  0  0  0  0  0  0  0  0  0  0  0
  187.8020  175.9970  146.3010 C   0  0  0  0  0  2  0  0  0  0  0  0
  188.1960  176.7040  143.6550 C   0  0  2  0  0  3  0  0  0  0  0  0
  189.6350  177.6400  147.4920 C   0  0  0  0  0  3  0  0  0  0  0  0
  189.9870  176.5740  146.7060 C   0  0  0  0  0  0  0  0  0  0  0  0
  189.9280  176.4990  142.0290 O   0  0  0  0  0  1  0  0  0  0  0  0
  188.5720  176.7980  142.1740 C   0  0  1  0  0  3  0  0  0  0  0  0
  187.7240  175.8890  141.2680 C   0  0  2  0  0  3  0  0  0  0  0  0
  188.0790  173.7070  141.4060 C   0  0  0  0  0  1  0  0  0  0  0  0
  188.5040  174.8560  140.7370 O   0  0  0  0  0  0  0  0  0  0  0  0
  186.6100  177.9090  140.5910 O   0  0  0  0  0  1  0  0  0  0  0  0
  187.0700  176.6720  140.1340 C   0  0  0  0  0  2  0  0  0  0  0  0
  191.4140  176.1680  146.6980 C   0  0  0  0  0  0  0  0  0  0  0  0
  191.8830  175.4890  147.6530 O   0  0  0  0  0  0  0  0  0  0  0  0
  192.5050  176.5610  145.3250 S   0  0  0  0  0  0  0  0  0  0  0  0
  193.7390  175.3570  145.8150 C   0  0  0  0  0  0  0  0  0  0  0  0
  194.6820  175.6960  146.5110 O   0  0  0  0  0  0  0  0  0  0  0  0
  193.6040  173.9350  145.3710 C   0  0  0  0  0  2  0  0  0  0  0  0
  192.5910  173.8060  144.2440 C   0  0  0  0  0  2  0  0  0  0  0  0
  191.4900  173.0640  144.6700 O   0  0  0  0  0  1  0  0  0  0  0  0
  1 10  2  0  0  0  0
  1  7  1  0  0  0  0
  2  6  1  0  0  0  0
  2  5  2  0  0  0  0
  4 12  1  6  0  0  0
  4  2  1  0  0  0  0
  6 11  2  0  0  0  0
  7  6  1  0  0  0  0
  8 10  1  0  0  0  0
  9  3  1  6  0  0  0
  9 12  1  0  0  0  0
  9 15  1  0  0  0  0
 10  4  1  0  0  0  0
 13 17  1  6  0  0  0
 13  8  1  0  0  0  0
 13  3  1  0  0  0  0
 14  5  1  0  0  0  0
 15 14  2  0  0  0  0
 17 16  1  1  0  0  0
 18 22  1  6  0  0  0
 18 17  1  0  0  0  0
 20 18  1  0  0  0  0
 20 19  1  0  0  0  0
 22 21  1  0  0  0  0
 23 15  1  0  0  0  0
 23 24  2  0  0  0  0
 25 26  1  0  0  0  0
 25 23  1  0  0  0  0
 26 27  2  0  0  0  0
 28 26  1  0  0  0  0
 29 30  1  0  0  0  0
 29 28  1  0  0  0  0
M  END
>  <MODEL>
9

>  <REMARK>
 VINA RESULT:      -6.1      2.409      6.141
  Name = 
  9 active torsions:
  status: ('A' for Active; 'I' for Inactive)
    1  A    between atoms: C_3  and  C_28
    2  A    between atoms: C_3  and  S_29
    3  A    between atoms: C_8  and  C_22
    4  A    between atoms: C_11  and  C_24
    5  A    between atoms: C_11  and  C_26
    6  A    between atoms: C_17  and  C_22
    7  A    between atoms: C_17  and  S_29
    8  A    between atoms: O_18  and  C_26
    9  A    between atoms: C_26  and  C_30
                            x       y       z     vdW  Elec       q    Type
                         _______ _______ _______ _____ _____    ______ ____

>  <TORSDO>
F 9

$$$$
