=
 OpenBabel11042414443D

 36 38  0  0  1  0  0  0  0  0999 V2000
  187.8780  176.0150  141.7740 C   0  0  2  0  0  3  0  0  0  0  0  0
  193.5640  175.3310  144.5690 O   0  0  0  0  0  0  0  0  0  0  0  0
  194.3800  172.9110  143.3090 O   0  0  0  0  0  1  0  0  0  0  0  0
  189.5690  174.0090  142.9910 C   0  0  2  0  0  3  0  0  0  0  0  0
  192.7720  176.0030  142.4790 F   0  0  0  0  0  0  0  0  0  0  0  0
  190.7390  172.0840  142.0890 O   0  0  0  0  0  0  0  0  0  0  0  0
  191.1070  176.4450  145.7050 C   0  0  0  0  0  0  0  0  0  0  0  0
  187.3320  174.7770  142.3250 N   0  0  0  0  0  2  0  0  0  0  0  0
  194.9530  175.5120  142.7600 F   0  0  0  0  0  0  0  0  0  0  0  0
  191.9970  177.0700  144.9400 C   0  0  0  0  0  3  0  0  0  0  0  0
  191.1880  174.1490  141.1650 O   0  0  0  0  0  1  0  0  0  0  0  0
  193.6680  175.1900  143.1640 C   0  0  0  0  0  0  0  0  0  0  0  0
  189.6550  176.7340  145.4920 C   0  0  1  0  0  3  0  0  0  0  0  0
  189.7230  175.4180  143.4000 N   0  0  2  0  0  0  0  0  0  0  0  0
  193.4440  176.6920  144.9080 C   0  0  0  0  0  2  0  0  0  0  0  0
  193.3750  173.7340  142.7900 C   0  0  2  0  0  3  0  0  0  0  0  0
  190.8480  173.4630  142.3370 C   0  0  1  0  0  0  0  0  0  0  0  0
  191.9990  173.2770  143.3150 C   0  0  1  0  0  3  0  0  0  0  0  0
  189.0190  175.6140  144.6690 C   0  0  0  0  0  2  0  0  0  0  0  0
  191.5010  175.4530  146.6000 O   0  0  0  0  0  1  0  0  0  0  0  0
  189.2340  176.3890  142.4060 C   0  0  0  0  0  2  0  0  0  0  0  0
  188.3340  173.7450  142.1140 C   0  0  0  0  0  2  0  0  0  0  0  0
  191.7830  171.8160  142.9940 C   0  0  0  0  0  2  0  0  0  0  0  0
  186.8790  177.1710  141.8670 C   0  0  1  0  0  3  0  0  0  0  0  0
  187.5280  178.4060  142.4650 C   0  0  0  0  0  1  0  0  0  0  0  0
  186.2210  177.4940  140.5600 C   0  0  0  0  0  0  0  0  0  0  0  0
  186.7100  176.9680  139.3700 O   0  0  0  0  0  1  0  0  0  0  0  0
  185.1600  178.2830  140.5390 C   0  0  0  0  0  2  0  0  0  0  0  0
  188.9190  176.8690  146.8190 C   0  0  0  0  0  2  0  0  0  0  0  0
  187.5950  177.6020  146.6450 C   0  0  0  0  0  2  0  0  0  0  0  0
  186.4400  176.7870  147.2010 C   0  0  0  0  0  2  0  0  0  0  0  0
  185.1760  177.0580  146.4020 C   0  0  0  0  0  2  0  0  0  0  0  0
  184.8960  178.5490  146.3500 C   0  0  0  0  0  2  0  0  0  0  0  0
  183.7000  178.7890  145.6720 O   0  0  0  0  0  0  0  0  0  0  0  0
  185.1710  180.0390  144.2880 C   0  0  0  0  0  1  0  0  0  0  0  0
  184.0840  178.9870  144.3460 C   0  0  0  0  0  2  0  0  0  0  0  0
  1 24  1  1  0  0  0
  1  8  1  0  0  0  0
  1 21  1  0  0  0  0
  2 15  1  0  0  0  0
  4 22  1  6  0  0  0
  4 14  1  0  0  0  0
  5 12  1  0  0  0  0
  6 17  1  0  0  0  0
  6 23  1  0  0  0  0
  7 20  1  0  0  0  0
  9 12  1  0  0  0  0
 10  7  2  0  0  0  0
 12  2  1  0  0  0  0
 13  7  1  0  0  0  0
 13 29  1  1  0  0  0
 14 21  1  6  0  0  0
 14 19  1  0  0  0  0
 15 10  1  0  0  0  0
 16 12  1  0  0  0  0
 16  3  1  1  0  0  0
 16 18  1  0  0  0  0
 17 11  1  6  0  0  0
 17  4  1  0  0  0  0
 17 18  1  0  0  0  0
 18 23  1  6  0  0  0
 19 13  1  0  0  0  0
 22  8  1  0  0  0  0
 24 25  1  6  0  0  0
 26 24  1  0  0  0  0
 27 26  1  0  0  0  0
 28 26  2  0  0  0  0
 30 29  1  0  0  0  0
 30 31  1  0  0  0  0
 32 31  1  0  0  0  0
 33 32  1  0  0  0  0
 34 33  1  0  0  0  0
 35 36  1  0  0  0  0
 36 34  1  0  0  0  0
M  END
>  <MODEL>
1

>  <REMARK>
 VINA RESULT:      -7.4      0.000      0.000
  Name = 
  9 active torsions:
  status: ('A' for Active; 'I' for Inactive)
    1  A    between atoms: C_1  and  C_21
    2  A    between atoms: C_1  and  C_30
    3  A    between atoms: C_2  and  C_5
    4  A    between atoms: C_2  and  C_30
    5  A    between atoms: C_3  and  C_15
    6  A    between atoms: C_5  and  C_22
    7  A    between atoms: C_7  and  C_15
    8  A    between atoms: C_22  and  O_24
    9  A    between atoms: O_24  and  C_34
                            x       y       z     vdW  Elec       q    Type
                         _______ _______ _______ _____ _____    ______ ____

>  <TORSDO>
F 9

$$$$
=
 OpenBabel11042414443D

 36 38  0  0  1  0  0  0  0  0999 V2000
  190.0850  172.9800  142.2100 C   0  0  2  0  0  3  0  0  0  0  0  0
  194.2350  175.4840  146.3480 O   0  0  0  0  0  0  0  0  0  0  0  0
  196.2870  173.5190  146.1490 O   0  0  0  0  0  1  0  0  0  0  0  0
  191.8610  172.2240  144.3630 C   0  0  2  0  0  3  0  0  0  0  0  0
  194.0380  175.3300  144.0270 F   0  0  0  0  0  0  0  0  0  0  0  0
  193.9050  170.9180  144.4210 O   0  0  0  0  0  0  0  0  0  0  0  0
  191.3100  175.5390  146.4540 C   0  0  0  0  0  0  0  0  0  0  0  0
  189.8890  171.7520  142.9760 N   0  0  0  0  0  2  0  0  0  0  0  0
  195.9930  175.9480  144.9600 F   0  0  0  0  0  0  0  0  0  0  0  0
  192.1070  176.3510  145.7660 C   0  0  0  0  0  3  0  0  0  0  0  0
  193.8380  172.7540  143.0280 O   0  0  0  0  0  1  0  0  0  0  0  0
  194.8710  175.1540  145.1270 C   0  0  0  0  0  0  0  0  0  0  0  0
  190.0320  175.0900  145.8220 C   0  0  1  0  0  3  0  0  0  0  0  0
  191.3190  173.5960  144.3320 N   0  0  2  0  0  0  0  0  0  0  0  0
  193.5010  176.6760  146.2020 C   0  0  0  0  0  2  0  0  0  0  0  0
  195.2980  173.6840  145.1730 C   0  0  2  0  0  3  0  0  0  0  0  0
  193.3930  172.2130  144.2400 C   0  0  1  0  0  0  0  0  0  0  0  0
  194.1060  172.7530  145.4710 C   0  0  1  0  0  3  0  0  0  0  0  0
  190.1960  173.6750  145.2670 C   0  0  0  0  0  2  0  0  0  0  0  0
  191.7060  175.0160  147.6840 O   0  0  0  0  0  1  0  0  0  0  0  0
  190.8850  174.0390  142.9950 C   0  0  0  0  0  2  0  0  0  0  0  0
  191.2100  171.2720  143.3470 C   0  0  0  0  0  2  0  0  0  0  0  0
  194.5830  171.3240  145.5860 C   0  0  0  0  0  2  0  0  0  0  0  0
  188.7610  173.5480  141.6920 C   0  0  1  0  0  3  0  0  0  0  0  0
  188.5160  174.9440  142.2380 C   0  0  0  0  0  1  0  0  0  0  0  0
  188.6520  173.5330  140.1980 C   0  0  0  0  0  0  0  0  0  0  0  0
  188.2310  174.6620  139.5050 O   0  0  0  0  0  1  0  0  0  0  0  0
  188.9670  172.4350  139.5300 C   0  0  0  0  0  2  0  0  0  0  0  0
  188.8830  175.1120  146.8220 C   0  0  0  0  0  2  0  0  0  0  0  0
  188.0730  176.3970  146.7060 C   0  0  0  0  0  2  0  0  0  0  0  0
  188.0270  176.8890  145.2690 C   0  0  0  0  0  2  0  0  0  0  0  0
  186.6030  176.8350  144.7430 C   0  0  0  0  0  2  0  0  0  0  0  0
  185.6160  176.8030  145.8960 C   0  0  0  0  0  2  0  0  0  0  0  0
  184.6930  177.8420  145.7660 O   0  0  0  0  0  0  0  0  0  0  0  0
  185.7350  179.2230  147.3940 C   0  0  0  0  0  1  0  0  0  0  0  0
  184.5490  178.3450  147.0590 C   0  0  0  0  0  2  0  0  0  0  0  0
  1 24  1  1  0  0  0
  1  8  1  0  0  0  0
  1 21  1  0  0  0  0
  4 22  1  6  0  0  0
  5 12  1  0  0  0  0
  6 23  1  0  0  0  0
  7 20  1  0  0  0  0
  8 22  1  0  0  0  0
  9 12  1  0  0  0  0
 10 15  1  0  0  0  0
 10  7  2  0  0  0  0
 12 16  1  0  0  0  0
 12  2  1  0  0  0  0
 13  7  1  0  0  0  0
 13 29  1  1  0  0  0
 14 21  1  6  0  0  0
 14  4  1  0  0  0  0
 14 19  1  0  0  0  0
 15  2  1  0  0  0  0
 16 18  1  0  0  0  0
 16  3  1  1  0  0  0
 17 11  1  6  0  0  0
 17  4  1  0  0  0  0
 17  6  1  0  0  0  0
 17 18  1  0  0  0  0
 18 23  1  6  0  0  0
 19 13  1  0  0  0  0
 24 25  1  6  0  0  0
 26 24  1  0  0  0  0
 27 26  1  0  0  0  0
 28 26  2  0  0  0  0
 30 29  1  0  0  0  0
 31 30  1  0  0  0  0
 32 31  1  0  0  0  0
 32 33  1  0  0  0  0
 34 33  1  0  0  0  0
 34 36  1  0  0  0  0
 36 35  1  0  0  0  0
M  END
>  <MODEL>
2

>  <REMARK>
 VINA RESULT:      -7.2      2.198      3.078
  Name = 
  9 active torsions:
  status: ('A' for Active; 'I' for Inactive)
    1  A    between atoms: C_1  and  C_21
    2  A    between atoms: C_1  and  C_30
    3  A    between atoms: C_2  and  C_5
    4  A    between atoms: C_2  and  C_30
    5  A    between atoms: C_3  and  C_15
    6  A    between atoms: C_5  and  C_22
    7  A    between atoms: C_7  and  C_15
    8  A    between atoms: C_22  and  O_24
    9  A    between atoms: O_24  and  C_34
                            x       y       z     vdW  Elec       q    Type
                         _______ _______ _______ _____ _____    ______ ____

>  <TORSDO>
F 9

$$$$
=
 OpenBabel11042414443D

 36 38  0  0  1  0  0  0  0  0999 V2000
  191.5900  175.7610  146.1190 C   0  0  2  0  0  3  0  0  0  0  0  0
  186.6850  176.8460  142.1990 O   0  0  0  0  0  0  0  0  0  0  0  0
  184.9070  178.0710  144.0560 O   0  0  0  0  0  1  0  0  0  0  0  0
  188.7060  175.5810  146.0080 C   0  0  2  0  0  3  0  0  0  0  0  0
  188.3810  178.1120  143.1820 F   0  0  0  0  0  0  0  0  0  0  0  0
  186.9420  176.7860  147.1590 O   0  0  0  0  0  0  0  0  0  0  0  0
  188.5620  174.6000  142.1770 C   0  0  0  0  0  0  0  0  0  0  0  0
  190.8400  174.8630  146.9930 N   0  0  0  0  0  2  0  0  0  0  0  0
  186.6160  179.1330  142.2260 F   0  0  0  0  0  0  0  0  0  0  0  0
  188.7420  175.8070  141.6490 C   0  0  0  0  0  3  0  0  0  0  0  0
  188.4750  178.0130  145.9490 O   0  0  0  0  0  1  0  0  0  0  0  0
  187.0170  178.0110  142.9320 C   0  0  0  0  0  0  0  0  0  0  0  0
  189.7190  173.9370  142.8520 C   0  0  1  0  0  3  0  0  0  0  0  0
  189.4770  175.4990  144.7520 N   0  0  2  0  0  0  0  0  0  0  0  0
  187.6100  176.6530  141.1560 C   0  0  0  0  0  2  0  0  0  0  0  0
  186.2850  177.9760  144.2760 C   0  0  2  0  0  3  0  0  0  0  0  0
  187.7750  176.8030  146.0280 C   0  0  1  0  0  0  0  0  0  0  0  0
  186.6030  176.6900  145.0640 C   0  0  1  0  0  3  0  0  0  0  0  0
  189.5930  174.0920  144.3670 C   0  0  0  0  0  2  0  0  0  0  0  0
  187.2980  174.0140  142.2120 O   0  0  0  0  0  1  0  0  0  0  0  0
  190.8170  176.1060  144.8310 C   0  0  0  0  0  2  0  0  0  0  0  0
  189.5720  175.5150  147.2770 C   0  0  0  0  0  2  0  0  0  0  0  0
  185.8010  176.6580  146.3450 C   0  0  0  0  0  2  0  0  0  0  0  0
  192.9870  175.2180  145.8060 C   0  0  1  0  0  3  0  0  0  0  0  0
  192.9170  174.0730  144.8110 C   0  0  0  0  0  1  0  0  0  0  0  0
  193.9430  176.2720  145.3390 C   0  0  0  0  0  0  0  0  0  0  0  0
  194.3060  176.3590  144.0000 O   0  0  0  0  0  1  0  0  0  0  0  0
  194.4440  177.1340  146.2100 C   0  0  0  0  0  2  0  0  0  0  0  0
  189.7910  172.4570  142.4980 C   0  0  0  0  0  2  0  0  0  0  0  0
  191.0070  172.1540  141.6310 C   0  0  0  0  0  2  0  0  0  0  0  0
  191.6670  173.4340  141.1460 C   0  0  0  0  0  2  0  0  0  0  0  0
  191.8360  173.3960  139.6370 C   0  0  0  0  0  2  0  0  0  0  0  0
  190.5650  172.8920  138.9770 C   0  0  0  0  0  2  0  0  0  0  0  0
  190.0390  173.8740  138.1360 O   0  0  0  0  0  0  0  0  0  0  0  0
  188.2530  172.6140  139.0660 C   0  0  0  0  0  1  0  0  0  0  0  0
  188.6880  173.9380  138.4750 C   0  0  0  0  0  2  0  0  0  0  0  0
  1 24  1  6  0  0  0
  1  8  1  0  0  0  0
  2 12  1  0  0  0  0
  4 17  1  0  0  0  0
  4 22  1  1  0  0  0
  7 20  1  0  0  0  0
  7 13  1  0  0  0  0
  8 22  1  0  0  0  0
  9 12  1  0  0  0  0
 10  7  2  0  0  0  0
 12  5  1  0  0  0  0
 12 16  1  0  0  0  0
 13 29  1  1  0  0  0
 13 19  1  0  0  0  0
 14 19  1  1  0  0  0
 14 21  1  0  0  0  0
 14  4  1  0  0  0  0
 15 10  1  0  0  0  0
 15  2  1  0  0  0  0
 16  3  1  6  0  0  0
 16 18  1  0  0  0  0
 17 11  1  6  0  0  0
 17  6  1  0  0  0  0
 18 17  1  0  0  0  0
 18 23  1  1  0  0  0
 21  1  1  0  0  0  0
 23  6  1  0  0  0  0
 24 25  1  6  0  0  0
 26 24  1  0  0  0  0
 26 28  2  0  0  0  0
 27 26  1  0  0  0  0
 30 29  1  0  0  0  0
 31 30  1  0  0  0  0
 32 31  1  0  0  0  0
 33 32  1  0  0  0  0
 34 36  1  0  0  0  0
 34 33  1  0  0  0  0
 36 35  1  0  0  0  0
M  END
>  <MODEL>
3

>  <REMARK>
 VINA RESULT:      -7.1      2.606      7.488
  Name = 
  9 active torsions:
  status: ('A' for Active; 'I' for Inactive)
    1  A    between atoms: C_1  and  C_21
    2  A    between atoms: C_1  and  C_30
    3  A    between atoms: C_2  and  C_5
    4  A    between atoms: C_2  and  C_30
    5  A    between atoms: C_3  and  C_15
    6  A    between atoms: C_5  and  C_22
    7  A    between atoms: C_7  and  C_15
    8  A    between atoms: C_22  and  O_24
    9  A    between atoms: O_24  and  C_34
                            x       y       z     vdW  Elec       q    Type
                         _______ _______ _______ _____ _____    ______ ____

>  <TORSDO>
F 9

$$$$
=
 OpenBabel11042414443D

 36 38  0  0  1  0  0  0  0  0999 V2000
  191.4140  176.3080  145.3380 C   0  0  2  0  0  3  0  0  0  0  0  0
  189.2460  172.7170  140.5410 O   0  0  0  0  0  0  0  0  0  0  0  0
  191.7420  171.9930  139.3770 O   0  0  0  0  0  1  0  0  0  0  0  0
  191.8380  175.8080  142.5220 C   0  0  2  0  0  3  0  0  0  0  0  0
  190.2510  172.3480  142.6150 F   0  0  0  0  0  0  0  0  0  0  0  0
  193.6820  174.8210  141.2910 O   0  0  0  0  0  0  0  0  0  0  0  0
  188.0290  175.1090  141.7100 C   0  0  0  0  0  0  0  0  0  0  0  0
  192.0370  177.2990  144.4650 N   0  0  0  0  0  2  0  0  0  0  0  0
  190.1120  170.6770  141.1110 F   0  0  0  0  0  0  0  0  0  0  0  0
  187.9480  173.8600  142.1610 C   0  0  0  0  0  3  0  0  0  0  0  0
  192.7120  173.5690  142.9680 O   0  0  0  0  0  1  0  0  0  0  0  0
  190.2660  172.0460  141.2580 C   0  0  0  0  0  0  0  0  0  0  0  0
  188.1660  176.2180  142.7030 C   0  0  1  0  0  3  0  0  0  0  0  0
  190.5090  175.5400  143.1030 N   0  0  2  0  0  0  0  0  0  0  0  0
  188.0380  172.6680  141.2620 C   0  0  0  0  0  2  0  0  0  0  0  0
  191.6260  172.4610  140.6900 C   0  0  2  0  0  3  0  0  0  0  0  0
  192.4890  174.5290  141.9730 C   0  0  1  0  0  0  0  0  0  0  0  0
  191.8120  173.9920  140.7200 C   0  0  1  0  0  3  0  0  0  0  0  0
  189.6260  176.6630  142.7850 C   0  0  0  0  0  2  0  0  0  0  0  0
  188.1080  175.3750  140.3450 O   0  0  0  0  0  1  0  0  0  0  0  0
  190.5250  175.3180  144.5600 C   0  0  0  0  0  2  0  0  0  0  0  0
  192.7920  176.5620  143.4640 C   0  0  0  0  0  2  0  0  0  0  0  0
  193.1300  174.3640  140.0810 C   0  0  0  0  0  2  0  0  0  0  0  0
  190.6470  176.9640  146.4890 C   0  0  1  0  0  3  0  0  0  0  0  0
  189.1550  176.7060  146.3670 C   0  0  0  0  0  1  0  0  0  0  0  0
  191.1490  176.5630  147.8420 C   0  0  0  0  0  0  0  0  0  0  0  0
  191.4280  177.5220  148.8090 O   0  0  0  0  0  1  0  0  0  0  0  0
  191.3210  175.2810  148.1220 C   0  0  0  0  0  2  0  0  0  0  0  0
  187.2940  177.4080  142.3250 C   0  0  0  0  0  2  0  0  0  0  0  0
  186.9120  178.2270  143.5530 C   0  0  0  0  0  2  0  0  0  0  0  0
  185.6860  179.0820  143.2810 C   0  0  0  0  0  2  0  0  0  0  0  0
  184.4850  178.5260  144.0270 C   0  0  0  0  0  2  0  0  0  0  0  0
  184.4820  179.0190  145.4630 C   0  0  0  0  0  2  0  0  0  0  0  0
  184.0130  178.0160  146.3130 O   0  0  0  0  0  0  0  0  0  0  0  0
  185.9420  178.0640  147.6980 C   0  0  0  0  0  1  0  0  0  0  0  0
  185.1530  177.2930  146.6620 C   0  0  0  0  0  2  0  0  0  0  0  0
  1 24  1  1  0  0  0
  2 12  1  0  0  0  0
  2 15  1  0  0  0  0
  4 14  1  0  0  0  0
  4 22  1  1  0  0  0
  6 17  1  0  0  0  0
  7 10  2  0  0  0  0
  7 13  1  0  0  0  0
  8  1  1  0  0  0  0
  9 12  1  0  0  0  0
 12  5  1  0  0  0  0
 13 29  1  6  0  0  0
 13 19  1  0  0  0  0
 14 19  1  1  0  0  0
 14 21  1  0  0  0  0
 15 10  1  0  0  0  0
 16  3  1  6  0  0  0
 16 18  1  0  0  0  0
 16 12  1  0  0  0  0
 17  4  1  0  0  0  0
 17 11  1  1  0  0  0
 18 23  1  6  0  0  0
 18 17  1  0  0  0  0
 20  7  1  0  0  0  0
 21  1  1  0  0  0  0
 22  8  1  0  0  0  0
 23  6  1  0  0  0  0
 24 25  1  1  0  0  0
 24 26  1  0  0  0  0
 26 28  2  0  0  0  0
 26 27  1  0  0  0  0
 29 30  1  0  0  0  0
 31 30  1  0  0  0  0
 31 32  1  0  0  0  0
 32 33  1  0  0  0  0
 33 34  1  0  0  0  0
 34 36  1  0  0  0  0
 36 35  1  0  0  0  0
M  END
>  <MODEL>
4

>  <REMARK>
 VINA RESULT:      -6.9      2.129      5.142
  Name = 
  9 active torsions:
  status: ('A' for Active; 'I' for Inactive)
    1  A    between atoms: C_1  and  C_21
    2  A    between atoms: C_1  and  C_30
    3  A    between atoms: C_2  and  C_5
    4  A    between atoms: C_2  and  C_30
    5  A    between atoms: C_3  and  C_15
    6  A    between atoms: C_5  and  C_22
    7  A    between atoms: C_7  and  C_15
    8  A    between atoms: C_22  and  O_24
    9  A    between atoms: O_24  and  C_34
                            x       y       z     vdW  Elec       q    Type
                         _______ _______ _______ _____ _____    ______ ____

>  <TORSDO>
F 9

$$$$
=
 OpenBabel11042414443D

 36 38  0  0  1  0  0  0  0  0999 V2000
  191.8110  175.7010  145.7660 C   0  0  2  0  0  3  0  0  0  0  0  0
  186.6650  176.6600  142.1330 O   0  0  0  0  0  0  0  0  0  0  0  0
  185.0460  178.0390  144.0270 O   0  0  0  0  0  1  0  0  0  0  0  0
  188.9240  175.5830  145.8660 C   0  0  2  0  0  3  0  0  0  0  0  0
  188.4500  177.9430  142.9160 F   0  0  0  0  0  0  0  0  0  0  0  0
  187.2690  176.8980  147.0570 O   0  0  0  0  0  0  0  0  0  0  0  0
  188.4910  174.3730  142.1230 C   0  0  0  0  0  0  0  0  0  0  0  0
  191.1070  174.8770  146.7450 N   0  0  0  0  0  2  0  0  0  0  0  0
  186.6430  178.9460  142.0210 F   0  0  0  0  0  0  0  0  0  0  0  0
  188.6580  175.5410  141.5090 C   0  0  0  0  0  3  0  0  0  0  0  0
  188.7370  178.0120  145.6700 O   0  0  0  0  0  1  0  0  0  0  0  0
  187.0710  177.8600  142.7670 C   0  0  0  0  0  0  0  0  0  0  0  0
  189.6800  173.7250  142.7570 C   0  0  1  0  0  3  0  0  0  0  0  0
  189.6020  175.4060  144.5680 N   0  0  2  0  0  0  0  0  0  0  0  0
  187.5110  176.3810  141.0430 C   0  0  0  0  0  2  0  0  0  0  0  0
  186.4340  177.9250  144.1570 C   0  0  2  0  0  3  0  0  0  0  0  0
  188.0200  176.8260  145.8730 C   0  0  1  0  0  0  0  0  0  0  0  0
  186.7810  176.6820  145.0010 C   0  0  1  0  0  3  0  0  0  0  0  0
  189.6640  173.9750  144.2650 C   0  0  0  0  0  2  0  0  0  0  0  0
  187.2230  173.8210  142.2820 O   0  0  0  0  0  1  0  0  0  0  0  0
  190.9560  175.9850  144.5150 C   0  0  0  0  0  2  0  0  0  0  0  0
  189.8750  175.5750  147.0740 C   0  0  0  0  0  2  0  0  0  0  0  0
  186.0710  176.7480  146.3340 C   0  0  0  0  0  2  0  0  0  0  0  0
  193.1720  175.1070  145.3930 C   0  0  1  0  0  3  0  0  0  0  0  0
  193.3950  175.1560  143.8920 C   0  0  0  0  0  1  0  0  0  0  0  0
  194.3170  175.7390  146.1230 C   0  0  0  0  0  0  0  0  0  0  0  0
  195.5340  175.0790  146.2420 O   0  0  0  0  0  1  0  0  0  0  0  0
  194.1700  176.9420  146.6550 C   0  0  0  0  0  2  0  0  0  0  0  0
  189.6990  172.2260  142.4920 C   0  0  0  0  0  2  0  0  0  0  0  0
  190.8610  171.8370  141.5870 C   0  0  0  0  0  2  0  0  0  0  0  0
  191.7510  170.8020  142.2520 C   0  0  0  0  0  2  0  0  0  0  0  0
  191.9690  171.1600  143.7120 C   0  0  0  0  0  2  0  0  0  0  0  0
  193.4410  171.4190  143.9780 C   0  0  0  0  0  2  0  0  0  0  0  0
  193.6490  171.6470  145.3390 O   0  0  0  0  0  0  0  0  0  0  0  0
  195.6820  172.1510  144.2170 C   0  0  0  0  0  1  0  0  0  0  0  0
  195.0360  171.6390  145.4860 C   0  0  0  0  0  2  0  0  0  0  0  0
  1 24  1  6  0  0  0
  1  8  1  0  0  0  0
  2 12  1  0  0  0  0
  4 17  1  0  0  0  0
  4 22  1  1  0  0  0
  7 20  1  0  0  0  0
  7 13  1  0  0  0  0
  8 22  1  0  0  0  0
  9 12  1  0  0  0  0
 10  7  2  0  0  0  0
 12  5  1  0  0  0  0
 12 16  1  0  0  0  0
 13 29  1  1  0  0  0
 13 19  1  0  0  0  0
 14 19  1  1  0  0  0
 14  4  1  0  0  0  0
 15 10  1  0  0  0  0
 15  2  1  0  0  0  0
 16  3  1  6  0  0  0
 16 18  1  0  0  0  0
 17 11  1  6  0  0  0
 17  6  1  0  0  0  0
 18 17  1  0  0  0  0
 18 23  1  1  0  0  0
 21 14  1  0  0  0  0
 21  1  1  0  0  0  0
 23  6  1  0  0  0  0
 24 25  1  6  0  0  0
 24 26  1  0  0  0  0
 26 27  1  0  0  0  0
 26 28  2  0  0  0  0
 30 31  1  0  0  0  0
 30 29  1  0  0  0  0
 31 32  1  0  0  0  0
 32 33  1  0  0  0  0
 33 34  1  0  0  0  0
 34 36  1  0  0  0  0
 35 36  1  0  0  0  0
M  END
>  <MODEL>
5

>  <REMARK>
 VINA RESULT:      -6.8      2.511      7.950
  Name = 
  9 active torsions:
  status: ('A' for Active; 'I' for Inactive)
    1  A    between atoms: C_1  and  C_21
    2  A    between atoms: C_1  and  C_30
    3  A    between atoms: C_2  and  C_5
    4  A    between atoms: C_2  and  C_30
    5  A    between atoms: C_3  and  C_15
    6  A    between atoms: C_5  and  C_22
    7  A    between atoms: C_7  and  C_15
    8  A    between atoms: C_22  and  O_24
    9  A    between atoms: O_24  and  C_34
                            x       y       z     vdW  Elec       q    Type
                         _______ _______ _______ _____ _____    ______ ____

>  <TORSDO>
F 9

$$$$
=
 OpenBabel11042414443D

 36 38  0  0  1  0  0  0  0  0999 V2000
  188.8720  177.0890  145.6770 C   0  0  2  0  0  3  0  0  0  0  0  0
  191.1660  171.9970  142.6080 O   0  0  0  0  0  0  0  0  0  0  0  0
  193.8580  172.1090  143.5310 O   0  0  0  0  0  1  0  0  0  0  0  0
  191.1740  176.2140  144.1620 C   0  0  2  0  0  3  0  0  0  0  0  0
  190.5300  172.5150  144.7930 F   0  0  0  0  0  0  0  0  0  0  0  0
  193.4870  175.8150  144.7770 O   0  0  0  0  0  0  0  0  0  0  0  0
  189.1180  173.8860  141.7100 C   0  0  0  0  0  0  0  0  0  0  0  0
  189.7540  178.0350  145.0010 N   0  0  0  0  0  2  0  0  0  0  0  0
  191.7220  170.6510  144.3730 F   0  0  0  0  0  0  0  0  0  0  0  0
  188.9520  172.8380  142.5120 C   0  0  0  0  0  3  0  0  0  0  0  0
  191.8520  174.6670  145.9300 O   0  0  0  0  0  1  0  0  0  0  0  0
  191.5130  171.9630  143.9810 C   0  0  0  0  0  0  0  0  0  0  0  0
  188.3620  175.1400  142.0110 C   0  0  1  0  0  3  0  0  0  0  0  0
  189.8720  175.5640  143.9220 N   0  0  2  0  0  0  0  0  0  0  0  0
  189.8200  171.6210  142.4430 C   0  0  0  0  0  2  0  0  0  0  0  0
  192.8050  172.7590  144.1850 C   0  0  2  0  0  3  0  0  0  0  0  0
  192.2180  175.2200  144.6960 C   0  0  1  0  0  0  0  0  0  0  0  0
  192.6730  174.2020  143.6600 C   0  0  1  0  0  3  0  0  0  0  0  0
  189.2780  176.1410  142.7140 C   0  0  0  0  0  2  0  0  0  0  0  0
  190.0630  173.8630  140.6860 O   0  0  0  0  0  1  0  0  0  0  0  0
  188.9260  175.6830  145.0460 C   0  0  0  0  0  2  0  0  0  0  0  0
  191.0930  177.4700  145.0460 C   0  0  0  0  0  2  0  0  0  0  0  0
  193.9910  174.9280  143.8080 C   0  0  0  0  0  2  0  0  0  0  0  0
  187.4350  177.6090  145.7650 C   0  0  1  0  0  3  0  0  0  0  0  0
  186.5020  176.7810  144.8990 C   0  0  0  0  0  1  0  0  0  0  0  0
  186.9200  177.7000  147.1680 C   0  0  0  0  0  0  0  0  0  0  0  0
  187.2860  178.7580  147.9920 O   0  0  0  0  0  1  0  0  0  0  0  0
  186.1030  176.7660  147.6270 C   0  0  0  0  0  2  0  0  0  0  0  0
  187.8070  175.7680  140.7400 C   0  0  0  0  0  2  0  0  0  0  0  0
  187.1650  177.1210  141.0250 C   0  0  0  0  0  2  0  0  0  0  0  0
  186.3270  177.5890  139.8470 C   0  0  0  0  0  2  0  0  0  0  0  0
  185.0860  178.3110  140.3420 C   0  0  0  0  0  2  0  0  0  0  0  0
  184.8260  177.9730  141.7990 C   0  0  0  0  0  2  0  0  0  0  0  0
  183.5580  178.4190  142.1750 O   0  0  0  0  0  0  0  0  0  0  0  0
  181.3230  178.4920  141.3710 C   0  0  0  0  0  1  0  0  0  0  0  0
  182.7810  178.2710  141.0270 C   0  0  0  0  0  2  0  0  0  0  0  0
  1 24  1  6  0  0  0
  2 12  1  0  0  0  0
  4 17  1  0  0  0  0
  4 22  1  1  0  0  0
  7 13  1  0  0  0  0
  7 10  2  0  0  0  0
  8 22  1  0  0  0  0
  8  1  1  0  0  0  0
 12 16  1  0  0  0  0
 12  9  1  0  0  0  0
 12  5  1  0  0  0  0
 13 29  1  6  0  0  0
 13 19  1  0  0  0  0
 14 19  1  6  0  0  0
 14  4  1  0  0  0  0
 14 21  1  0  0  0  0
 15 10  1  0  0  0  0
 15  2  1  0  0  0  0
 16  3  1  6  0  0  0
 17  6  1  0  0  0  0
 17 11  1  1  0  0  0
 18 23  1  1  0  0  0
 18 16  1  0  0  0  0
 18 17  1  0  0  0  0
 20  7  1  0  0  0  0
 21  1  1  0  0  0  0
 23  6  1  0  0  0  0
 24 25  1  6  0  0  0
 24 26  1  0  0  0  0
 26 28  2  0  0  0  0
 26 27  1  0  0  0  0
 29 30  1  0  0  0  0
 31 32  1  0  0  0  0
 31 30  1  0  0  0  0
 32 33  1  0  0  0  0
 33 34  1  0  0  0  0
 36 35  1  0  0  0  0
 36 34  1  0  0  0  0
M  END
>  <MODEL>
6

>  <REMARK>
 VINA RESULT:      -6.6      2.077      4.913
  Name = 
  9 active torsions:
  status: ('A' for Active; 'I' for Inactive)
    1  A    between atoms: C_1  and  C_21
    2  A    between atoms: C_1  and  C_30
    3  A    between atoms: C_2  and  C_5
    4  A    between atoms: C_2  and  C_30
    5  A    between atoms: C_3  and  C_15
    6  A    between atoms: C_5  and  C_22
    7  A    between atoms: C_7  and  C_15
    8  A    between atoms: C_22  and  O_24
    9  A    between atoms: O_24  and  C_34
                            x       y       z     vdW  Elec       q    Type
                         _______ _______ _______ _____ _____    ______ ____

>  <TORSDO>
F 9

$$$$
=
 OpenBabel11042414443D

 36 38  0  0  1  0  0  0  0  0999 V2000
  191.0360  176.0880  145.8430 C   0  0  2  0  0  3  0  0  0  0  0  0
  195.5240  171.8870  144.1650 O   0  0  0  0  0  0  0  0  0  0  0  0
  197.7930  173.6040  144.2820 O   0  0  0  0  0  1  0  0  0  0  0  0
  193.3820  175.8380  144.1720 C   0  0  2  0  0  3  0  0  0  0  0  0
  194.8100  172.9070  146.1390 F   0  0  0  0  0  0  0  0  0  0  0  0
  195.5840  176.8520  144.2750 O   0  0  0  0  0  0  0  0  0  0  0  0
  192.7500  172.0430  143.2430 C   0  0  0  0  0  0  0  0  0  0  0  0
  191.2560  176.9550  144.6900 N   0  0  0  0  0  2  0  0  0  0  0  0
  196.7840  171.8250  146.0740 F   0  0  0  0  0  0  0  0  0  0  0  0
  193.1970  171.4800  144.3620 C   0  0  0  0  0  3  0  0  0  0  0  0
  194.8510  175.6770  146.1190 O   0  0  0  0  0  1  0  0  0  0  0  0
  195.8990  172.5920  145.3350 C   0  0  0  0  0  0  0  0  0  0  0  0
  191.4620  172.8010  143.2920 C   0  0  1  0  0  3  0  0  0  0  0  0
  192.6070  174.6270  144.5020 N   0  0  2  0  0  0  0  0  0  0  0  0
  194.5710  170.9000  144.4830 C   0  0  0  0  0  2  0  0  0  0  0  0
  196.5860  173.8970  144.9270 C   0  0  2  0  0  3  0  0  0  0  0  0
  194.8150  175.7650  144.7220 C   0  0  1  0  0  0  0  0  0  0  0  0
  195.6910  174.7480  144.0040 C   0  0  1  0  0  3  0  0  0  0  0  0
  191.7450  174.3010  143.3640 C   0  0  0  0  0  2  0  0  0  0  0  0
  193.5180  172.0370  142.0800 O   0  0  0  0  0  1  0  0  0  0  0  0
  191.7920  174.7500  145.7240 C   0  0  0  0  0  2  0  0  0  0  0  0
  192.6930  177.1510  144.5780 C   0  0  0  0  0  2  0  0  0  0  0  0
  196.4350  175.9870  143.5620 C   0  0  0  0  0  2  0  0  0  0  0  0
  189.5450  175.8670  146.1150 C   0  0  1  0  0  3  0  0  0  0  0  0
  189.3210  174.6020  146.9260 C   0  0  0  0  0  1  0  0  0  0  0  0
  188.8790  177.0410  146.7630 C   0  0  0  0  0  0  0  0  0  0  0  0
  189.6020  177.9130  147.5690 O   0  0  0  0  0  1  0  0  0  0  0  0
  187.5890  177.2550  146.5610 C   0  0  0  0  0  2  0  0  0  0  0  0
  190.6020  172.5060  142.0700 C   0  0  0  0  0  2  0  0  0  0  0  0
  189.1910  173.0570  142.2390 C   0  0  0  0  0  2  0  0  0  0  0  0
  188.7110  173.7320  140.9660 C   0  0  0  0  0  2  0  0  0  0  0  0
  188.2880  175.1610  141.2590 C   0  0  0  0  0  2  0  0  0  0  0  0
  188.1100  175.3620  142.7540 C   0  0  0  0  0  2  0  0  0  0  0  0
  187.5820  176.6290  143.0070 O   0  0  0  0  0  0  0  0  0  0  0  0
  185.4640  177.7000  142.9040 C   0  0  0  0  0  1  0  0  0  0  0  0
  186.2140  176.4110  143.1670 C   0  0  0  0  0  2  0  0  0  0  0  0
  1 24  1  6  0  0  0
  2 15  1  0  0  0  0
  2 12  1  0  0  0  0
  4 14  1  0  0  0  0
  4 22  1  1  0  0  0
  4 17  1  0  0  0  0
  6 17  1  0  0  0  0
  7 13  1  0  0  0  0
  7 10  2  0  0  0  0
  8  1  1  0  0  0  0
 10 15  1  0  0  0  0
 12  9  1  0  0  0  0
 12  5  1  0  0  0  0
 13 29  1  6  0  0  0
 13 19  1  0  0  0  0
 14 19  1  6  0  0  0
 14 21  1  0  0  0  0
 16  3  1  6  0  0  0
 16 12  1  0  0  0  0
 17 11  1  1  0  0  0
 18 23  1  6  0  0  0
 18 17  1  0  0  0  0
 18 16  1  0  0  0  0
 20  7  1  0  0  0  0
 21  1  1  0  0  0  0
 22  8  1  0  0  0  0
 23  6  1  0  0  0  0
 24 26  1  0  0  0  0
 24 25  1  1  0  0  0
 26 27  1  0  0  0  0
 28 26  2  0  0  0  0
 29 30  1  0  0  0  0
 31 32  1  0  0  0  0
 31 30  1  0  0  0  0
 32 33  1  0  0  0  0
 33 34  1  0  0  0  0
 34 36  1  0  0  0  0
 35 36  1  0  0  0  0
M  END
>  <MODEL>
7

>  <REMARK>
 VINA RESULT:      -6.4      2.493      5.489
  Name = 
  9 active torsions:
  status: ('A' for Active; 'I' for Inactive)
    1  A    between atoms: C_1  and  C_21
    2  A    between atoms: C_1  and  C_30
    3  A    between atoms: C_2  and  C_5
    4  A    between atoms: C_2  and  C_30
    5  A    between atoms: C_3  and  C_15
    6  A    between atoms: C_5  and  C_22
    7  A    between atoms: C_7  and  C_15
    8  A    between atoms: C_22  and  O_24
    9  A    between atoms: O_24  and  C_34
                            x       y       z     vdW  Elec       q    Type
                         _______ _______ _______ _____ _____    ______ ____

>  <TORSDO>
F 9

$$$$
=
 OpenBabel11042414443D

 36 38  0  0  1  0  0  0  0  0999 V2000
  190.7670  173.7140  140.9240 C   0  0  2  0  0  3  0  0  0  0  0  0
  194.7650  175.9880  145.3350 O   0  0  0  0  0  0  0  0  0  0  0  0
  197.1490  174.6910  144.4710 O   0  0  0  0  0  1  0  0  0  0  0  0
  192.9160  172.8780  142.6690 C   0  0  2  0  0  3  0  0  0  0  0  0
  194.3200  176.3940  143.0800 F   0  0  0  0  0  0  0  0  0  0  0  0
  195.1840  172.1300  142.2350 O   0  0  0  0  0  0  0  0  0  0  0  0
  191.9330  175.3120  145.6310 C   0  0  0  0  0  0  0  0  0  0  0  0
  190.9340  172.3210  141.3280 N   0  0  0  0  0  2  0  0  0  0  0  0
  196.1980  177.2000  144.0260 F   0  0  0  0  0  0  0  0  0  0  0  0
  192.4460  176.4400  145.1490 C   0  0  0  0  0  3  0  0  0  0  0  0
  194.5530  174.1920  141.4160 O   0  0  0  0  0  1  0  0  0  0  0  0
  195.3010  176.1450  144.0340 C   0  0  0  0  0  0  0  0  0  0  0  0
  190.7120  174.7480  144.9770 C   0  0  1  0  0  3  0  0  0  0  0  0
  192.0940  174.0410  143.0540 N   0  0  2  0  0  0  0  0  0  0  0  0
  193.7810  176.9660  145.5720 C   0  0  0  0  0  2  0  0  0  0  0  0
  196.0350  174.8600  143.6420 C   0  0  2  0  0  3  0  0  0  0  0  0
  194.3880  173.2660  142.4540 C   0  0  1  0  0  0  0  0  0  0  0  0
  195.1160  173.6260  143.7410 C   0  0  1  0  0  3  0  0  0  0  0  0
  191.1050  173.6060  144.0410 C   0  0  0  0  0  2  0  0  0  0  0  0
  192.5810  174.6010  146.6390 O   0  0  0  0  0  1  0  0  0  0  0  0
  191.4130  174.6950  141.9230 C   0  0  0  0  0  2  0  0  0  0  0  0
  192.3630  172.0920  141.4690 C   0  0  0  0  0  2  0  0  0  0  0  0
  195.8980  172.3730  143.4230 C   0  0  0  0  0  2  0  0  0  0  0  0
  189.2990  174.0620  140.6670 C   0  0  1  0  0  3  0  0  0  0  0  0
  188.7660  173.3150  139.4570 C   0  0  0  0  0  1  0  0  0  0  0  0
  188.4190  173.8440  141.8590 C   0  0  0  0  0  0  0  0  0  0  0  0
  188.1340  172.5580  142.3060 O   0  0  0  0  0  1  0  0  0  0  0  0
  187.9120  174.8860  142.4980 C   0  0  0  0  0  2  0  0  0  0  0  0
  189.7180  174.2370  146.0120 C   0  0  0  0  0  2  0  0  0  0  0  0
  189.2910  175.3460  146.9660 C   0  0  0  0  0  2  0  0  0  0  0  0
  187.9900  175.9860  146.5130 C   0  0  0  0  0  2  0  0  0  0  0  0
  188.2550  177.3790  145.9660 C   0  0  0  0  0  2  0  0  0  0  0  0
  187.0510  177.8760  145.1870 C   0  0  0  0  0  2  0  0  0  0  0  0
  187.3890  178.0510  143.8440 O   0  0  0  0  0  0  0  0  0  0  0  0
  185.2420  177.5180  142.9750 C   0  0  0  0  0  1  0  0  0  0  0  0
  186.2480  178.6100  143.2670 C   0  0  0  0  0  2  0  0  0  0  0  0
  1 24  1  1  0  0  0
  1  8  1  0  0  0  0
  1 21  1  0  0  0  0
  2 15  1  0  0  0  0
  4 22  1  6  0  0  0
  4 14  1  0  0  0  0
  5 12  1  0  0  0  0
  6 17  1  0  0  0  0
  6 23  1  0  0  0  0
  7 20  1  0  0  0  0
  8 22  1  0  0  0  0
  9 12  1  0  0  0  0
 10 15  1  0  0  0  0
 10  7  2  0  0  0  0
 12  2  1  0  0  0  0
 13  7  1  0  0  0  0
 13 29  1  1  0  0  0
 14 21  1  6  0  0  0
 14 19  1  0  0  0  0
 16 18  1  0  0  0  0
 16 12  1  0  0  0  0
 16  3  1  1  0  0  0
 17 11  1  6  0  0  0
 17  4  1  0  0  0  0
 17 18  1  0  0  0  0
 18 23  1  6  0  0  0
 19 13  1  0  0  0  0
 24 25  1  6  0  0  0
 24 26  1  0  0  0  0
 26 27  1  0  0  0  0
 26 28  2  0  0  0  0
 29 30  1  0  0  0  0
 31 30  1  0  0  0  0
 32 31  1  0  0  0  0
 33 32  1  0  0  0  0
 34 33  1  0  0  0  0
 35 36  1  0  0  0  0
 36 34  1  0  0  0  0
M  END
>  <MODEL>
8

>  <REMARK>
 VINA RESULT:      -6.4      2.191      3.347
  Name = 
  9 active torsions:
  status: ('A' for Active; 'I' for Inactive)
    1  A    between atoms: C_1  and  C_21
    2  A    between atoms: C_1  and  C_30
    3  A    between atoms: C_2  and  C_5
    4  A    between atoms: C_2  and  C_30
    5  A    between atoms: C_3  and  C_15
    6  A    between atoms: C_5  and  C_22
    7  A    between atoms: C_7  and  C_15
    8  A    between atoms: C_22  and  O_24
    9  A    between atoms: O_24  and  C_34
                            x       y       z     vdW  Elec       q    Type
                         _______ _______ _______ _____ _____    ______ ____

>  <TORSDO>
F 9

$$$$
=
 OpenBabel11042414443D

 36 38  0  0  1  0  0  0  0  0999 V2000
  188.2470  173.7770  141.2790 C   0  0  2  0  0  3  0  0  0  0  0  0
  188.2140  177.5420  146.4200 O   0  0  0  0  0  0  0  0  0  0  0  0
  185.9900  179.1860  145.7420 O   0  0  0  0  0  1  0  0  0  0  0  0
  187.9490  176.5500  142.0450 C   0  0  2  0  0  3  0  0  0  0  0  0
  186.9590  175.7390  145.6320 F   0  0  0  0  0  0  0  0  0  0  0  0
  186.0640  178.0770  141.9750 O   0  0  0  0  0  0  0  0  0  0  0  0
  190.5160  176.3620  145.0510 C   0  0  0  0  0  0  0  0  0  0  0  0
  188.5040  174.8680  140.3420 N   0  0  0  0  0  2  0  0  0  0  0  0
  186.1910  176.9930  147.3380 F   0  0  0  0  0  0  0  0  0  0  0  0
  189.7320  175.7830  145.9550 C   0  0  0  0  0  3  0  0  0  0  0  0
  185.8090  176.1020  143.1380 O   0  0  0  0  0  1  0  0  0  0  0  0
  186.9220  177.0230  146.1620 C   0  0  0  0  0  0  0  0  0  0  0  0
  190.9930  175.5460  143.8930 C   0  0  1  0  0  3  0  0  0  0  0  0
  188.7240  175.6460  142.9170 N   0  0  2  0  0  0  0  0  0  0  0  0
  189.0180  176.5540  147.0200 C   0  0  0  0  0  2  0  0  0  0  0  0
  186.2150  177.9350  145.1560 C   0  0  2  0  0  3  0  0  0  0  0  0
  186.7080  177.1070  142.7610 C   0  0  1  0  0  0  0  0  0  0  0  0
  187.0380  178.1030  143.8620 C   0  0  1  0  0  3  0  0  0  0  0  0
  190.1490  175.8570  142.6570 C   0  0  0  0  0  2  0  0  0  0  0  0
  190.7910  177.7270  145.1080 O   0  0  0  0  0  1  0  0  0  0  0  0
  188.3930  174.2200  142.7480 C   0  0  0  0  0  2  0  0  0  0  0  0
  187.5830  175.9400  140.6820 C   0  0  0  0  0  2  0  0  0  0  0  0
  186.3440  179.0710  142.9310 C   0  0  0  0  0  2  0  0  0  0  0  0
  189.1080  172.5490  140.9750 C   0  0  1  0  0  3  0  0  0  0  0  0
  189.1960  172.3010  139.4790 C   0  0  0  0  0  1  0  0  0  0  0  0
  190.4740  172.6150  141.5860 C   0  0  0  0  0  0  0  0  0  0  0  0
  190.7010  172.1390  142.8720 O   0  0  0  0  0  1  0  0  0  0  0  0
  191.4770  173.1260  140.8910 C   0  0  0  0  0  2  0  0  0  0  0  0
  192.4590  175.8230  143.5880 C   0  0  0  0  0  2  0  0  0  0  0  0
  193.3060  174.5660  143.7520 C   0  0  0  0  0  2  0  0  0  0  0  0
  193.9910  174.5410  145.1070 C   0  0  0  0  0  2  0  0  0  0  0  0
  194.7490  175.8380  145.3340 C   0  0  0  0  0  2  0  0  0  0  0  0
  196.0900  175.7970  144.6240 C   0  0  0  0  0  2  0  0  0  0  0  0
  196.1520  176.8020  143.6580 O   0  0  0  0  0  0  0  0  0  0  0  0
  195.6170  176.7110  141.3450 C   0  0  0  0  0  1  0  0  0  0  0  0
  196.4440  176.1290  142.4720 C   0  0  0  0  0  2  0  0  0  0  0  0
  1 24  1  6  0  0  0
  1 21  1  0  0  0  0
  2 15  1  0  0  0  0
  4 22  1  6  0  0  0
  4 17  1  0  0  0  0
  4 14  1  0  0  0  0
  5 12  1  0  0  0  0
  6 17  1  0  0  0  0
  6 23  1  0  0  0  0
  7 20  1  0  0  0  0
  7 10  2  0  0  0  0
  8 22  1  0  0  0  0
  8  1  1  0  0  0  0
 10 15  1  0  0  0  0
 12  2  1  0  0  0  0
 12  9  1  0  0  0  0
 13 29  1  6  0  0  0
 13  7  1  0  0  0  0
 14 19  1  6  0  0  0
 16  3  1  1  0  0  0
 16 12  1  0  0  0  0
 17 11  1  1  0  0  0
 17 18  1  0  0  0  0
 18 23  1  6  0  0  0
 18 16  1  0  0  0  0
 19 13  1  0  0  0  0
 21 14  1  0  0  0  0
 24 25  1  6  0  0  0
 24 26  1  0  0  0  0
 26 27  1  0  0  0  0
 28 26  2  0  0  0  0
 29 30  1  0  0  0  0
 30 31  1  0  0  0  0
 31 32  1  0  0  0  0
 33 32  1  0  0  0  0
 34 33  1  0  0  0  0
 35 36  1  0  0  0  0
 36 34  1  0  0  0  0
M  END
>  <MODEL>
9

>  <REMARK>
 VINA RESULT:      -6.4      2.659      7.140
  Name = 
  9 active torsions:
  status: ('A' for Active; 'I' for Inactive)
    1  A    between atoms: C_1  and  C_21
    2  A    between atoms: C_1  and  C_30
    3  A    between atoms: C_2  and  C_5
    4  A    between atoms: C_2  and  C_30
    5  A    between atoms: C_3  and  C_15
    6  A    between atoms: C_5  and  C_22
    7  A    between atoms: C_7  and  C_15
    8  A    between atoms: C_22  and  O_24
    9  A    between atoms: O_24  and  C_34
                            x       y       z     vdW  Elec       q    Type
                         _______ _______ _______ _____ _____    ______ ____

>  <TORSDO>
F 9

$$$$
