=
 OpenBabel11042415193D

 45 50  0  0  1  0  0  0  0  0999 V2000
  190.9460  173.4180  144.7260 C   0  0  2  0  0  3  0  0  0  0  0  0
  189.3030  174.6090  146.3210 C   0  0  0  0  0  2  0  0  0  0  0  0
  189.1540  176.1740  143.7650 C   0  0  2  0  0  3  0  0  0  0  0  0
  190.5710  174.1290  143.3920 C   0  0  1  0  0  3  0  0  0  0  0  0
  188.4180  176.4200  142.4400 C   0  0  0  0  0  2  0  0  0  0  0  0
  190.8520  173.3440  142.2390 O   0  0  0  0  0  0  0  0  0  0  0  0
  188.8630  174.4420  141.0040 N   0  0  0  0  0  2  0  0  0  0  0  0
  189.1230  174.6870  143.4800 C   0  0  2  0  0  3  0  0  0  0  0  0
  188.7980  172.9750  141.0410 C   0  0  2  0  0  3  0  0  0  0  0  0
  189.8160  172.4100  142.0370 C   0  0  0  0  0  2  0  0  0  0  0  0
  188.2860  176.4260  144.9260 N   0  0  0  0  0  0  0  0  0  0  0  0
  190.7630  174.3650  145.9350 C   0  0  0  0  0  2  0  0  0  0  0  0
  189.0130  176.1050  146.1640 C   0  0  0  0  0  2  0  0  0  0  0  0
  188.2640  174.9250  142.2400 C   0  0  1  0  0  3  0  0  0  0  0  0
  196.7160  171.0880  146.3930 F   0  0  0  0  0  0  0  0  0  0  0  0
  193.4400  173.6350  145.1010 C   0  0  0  0  0  3  0  0  0  0  0  0
  194.9570  171.7450  144.9600 C   0  0  0  0  0  0  0  0  0  0  0  0
  193.8580  170.8980  144.6890 C   0  0  0  0  0  0  0  0  0  0  0  0
  196.5030  169.8010  144.4020 C   0  0  0  0  0  0  0  0  0  0  0  0
  197.3130  172.1770  144.3810 C   0  0  0  0  0  1  0  0  0  0  0  0
  196.3670  171.1850  145.0600 C   0  0  2  0  0  0  0  0  0  0  0  0
  194.0330  169.4120  144.5970 C   0  0  0  0  0  2  0  0  0  0  0  0
  195.4230  169.0350  144.1770 C   0  0  0  0  0  3  0  0  0  0  0  0
  192.3480  172.8090  144.7660 C   0  0  0  0  0  0  0  0  0  0  0  0
  192.5730  171.4320  144.6030 C   0  0  0  0  0  3  0  0  0  0  0  0
  194.7270  173.1120  145.1960 C   0  0  0  0  0  3  0  0  0  0  0  0
  197.9400  168.2300  143.0810 C   0  0  0  0  0  1  0  0  0  0  0  0
  197.7540  169.2520  144.0600 O   0  0  0  0  0  0  0  0  0  0  0  0
  188.9770  172.4010  139.6370 C   0  0  1  0  0  3  0  0  0  0  0  0
  188.0520  172.9780  138.7550 O   0  0  0  0  0  1  0  0  0  0  0  0
  190.4100  172.6150  139.1510 C   0  0  0  0  0  2  0  0  0  0  0  0
  190.8700  171.3580  137.1050 N   0  0  0  0  0  1  0  0  0  0  0  0
  191.0560  171.3630  138.5490 C   0  0  2  0  0  3  0  0  0  0  0  0
  191.0850  169.4620  140.2550 C   0  0  0  0  0  0  0  0  0  0  0  0
  192.3110  169.9900  140.9200 C   0  0  0  0  0  1  0  0  0  0  0  0
  190.4890  170.1520  139.1430 N   0  0  0  0  0  2  0  0  0  0  0  0
  190.5560  168.3990  140.6830 O   0  0  0  0  0  0  0  0  0  0  0  0
  188.0410  177.8630  144.9820 C   0  0  0  0  0  2  0  0  0  0  0  0
  186.6080  178.1070  145.3220 C   0  0  0  0  0  0  0  0  0  0  0  0
  184.8860  178.5570  146.9460 C   0  0  0  0  0  3  0  0  0  0  0  0
  184.3890  178.5530  144.5880 C   0  0  0  0  0  0  0  0  0  0  0  0
  183.5080  178.7200  143.5710 F   0  0  0  0  0  0  0  0  0  0  0  0
  185.6950  178.2500  144.3270 N   0  0  0  0  0  0  0  0  0  0  0  0
  186.2200  178.2520  146.6570 C   0  0  0  0  0  3  0  0  0  0  0  0
  183.9620  178.7110  145.9080 C   0  0  0  0  0  3  0  0  0  0  0  0
  1 24  1  6  0  0  0
  1 12  1  0  0  0  0
  3  5  1  6  0  0  0
  3 11  1  0  0  0  0
  4  6  1  6  0  0  0
  4  8  1  0  0  0  0
  4  1  1  0  0  0  0
  7  9  1  0  0  0  0
  7 14  1  0  0  0  0
  8  3  1  0  0  0  0
  9 10  1  0  0  0  0
 10  6  1  0  0  0  0
 11 38  1  0  0  0  0
 11 13  1  0  0  0  0
 12  2  1  0  0  0  0
 13  2  1  0  0  0  0
 14  5  1  0  0  0  0
 14  8  1  0  0  0  0
 16 26  1  0  0  0  0
 17 21  1  0  0  0  0
 17 26  2  0  0  0  0
 18 17  1  0  0  0  0
 19 21  1  0  0  0  0
 20 21  1  0  0  0  0
 21 15  1  0  0  0  0
 22 18  1  0  0  0  0
 23 19  2  0  0  0  0
 23 22  1  0  0  0  0
 24 16  2  0  0  0  0
 25 18  2  0  0  0  0
 25 24  1  0  0  0  0
 27 28  1  0  0  0  0
 28 19  1  0  0  0  0
 29  9  1  0  0  0  0
 30 29  1  0  0  0  0
 31 29  1  0  0  0  0
 32 33  1  0  0  0  0
 33 36  1  0  0  0  0
 33 31  1  0  0  0  0
 34 37  2  0  0  0  0
 34 35  1  0  0  0  0
 36 34  1  0  0  0  0
 38 39  1  0  0  0  0
 39 44  1  0  0  0  0
 41 45  2  0  0  0  0
 42 41  1  0  0  0  0
 43 41  1  0  0  0  0
 43 39  2  0  0  0  0
 44 40  2  0  0  0  0
 45 40  1  0  0  0  0
M  END
>  <MODEL>
1

>  <REMARK>
 VINA RESULT:      -8.0      0.000      0.000
  Name = 
  8 active torsions:
  status: ('A' for Active; 'I' for Inactive)
    1  A    between atoms: C_3  and  C_19
    2  A    between atoms: C_4  and  C_36
    3  A    between atoms: C_12  and  C_34
    4  A    between atoms: C_12  and  C_41
    5  A    between atoms: C_18  and  C_34
    6  A    between atoms: C_19  and  N_25
    7  A    between atoms: C_22  and  O_38
    8  A    between atoms: N_32  and  C_41
                            x       y       z     vdW  Elec       q    Type
                         _______ _______ _______ _____ _____    ______ ____

>  <TORSDO>
F 8

$$$$
=
 OpenBabel11042415193D

 45 50  0  0  1  0  0  0  0  0999 V2000
  190.9400  173.4550  144.7840 C   0  0  2  0  0  3  0  0  0  0  0  0
  189.2540  174.5700  146.3890 C   0  0  0  0  0  2  0  0  0  0  0  0
  189.1850  176.2650  143.9140 C   0  0  2  0  0  3  0  0  0  0  0  0
  190.6060  174.2360  143.4780 C   0  0  1  0  0  3  0  0  0  0  0  0
  188.4880  176.5810  142.5820 C   0  0  0  0  0  2  0  0  0  0  0  0
  190.9180  173.5090  142.2950 O   0  0  0  0  0  0  0  0  0  0  0  0
  188.9680  174.6780  141.0600 N   0  0  0  0  0  2  0  0  0  0  0  0
  189.1570  174.7940  143.5530 C   0  0  2  0  0  3  0  0  0  0  0  0
  188.8980  173.2110  141.0200 C   0  0  2  0  0  3  0  0  0  0  0  0
  189.8860  172.5920  142.0150 C   0  0  0  0  0  2  0  0  0  0  0  0
  188.2840  176.4610  145.0610 N   0  0  0  0  0  0  0  0  0  0  0  0
  190.7240  174.3400  146.0340 C   0  0  0  0  0  2  0  0  0  0  0  0
  188.9730  176.0740  146.3010 C   0  0  0  0  0  2  0  0  0  0  0  0
  188.3350  175.0990  142.3010 C   0  0  1  0  0  3  0  0  0  0  0  0
  196.6710  171.0610  146.4930 F   0  0  0  0  0  0  0  0  0  0  0  0
  193.4290  173.6520  145.2050 C   0  0  0  0  0  3  0  0  0  0  0  0
  194.9390  171.7590  145.0460 C   0  0  0  0  0  0  0  0  0  0  0  0
  193.8410  170.9240  144.7370 C   0  0  0  0  0  0  0  0  0  0  0  0
  196.4860  169.8200  144.4700 C   0  0  0  0  0  0  0  0  0  0  0  0
  197.3060  172.1930  144.5160 C   0  0  0  0  0  1  0  0  0  0  0  0
  196.3450  171.1900  145.1560 C   0  0  2  0  0  0  0  0  0  0  0  0
  194.0110  169.4390  144.6140 C   0  0  0  0  0  2  0  0  0  0  0  0
  195.4060  169.0650  144.2090 C   0  0  0  0  0  3  0  0  0  0  0  0
  192.3390  172.8400  144.8340 C   0  0  0  0  0  0  0  0  0  0  0  0
  192.5600  171.4650  144.6430 C   0  0  0  0  0  3  0  0  0  0  0  0
  194.7110  173.1210  145.3090 C   0  0  0  0  0  3  0  0  0  0  0  0
  197.9410  168.2940  143.1170 C   0  0  0  0  0  1  0  0  0  0  0  0
  197.7390  169.2740  144.1350 O   0  0  0  0  0  0  0  0  0  0  0  0
  189.1170  172.7080  139.5950 C   0  0  1  0  0  3  0  0  0  0  0  0
  187.9030  172.2760  139.0410 O   0  0  0  0  0  1  0  0  0  0  0  0
  189.7580  173.7980  138.7360 C   0  0  0  0  0  2  0  0  0  0  0  0
  191.2270  172.0460  137.8740 N   0  0  0  0  0  1  0  0  0  0  0  0
  191.1650  173.4530  138.2410 C   0  0  2  0  0  3  0  0  0  0  0  0
  193.3860  174.4650  138.9950 C   0  0  0  0  0  0  0  0  0  0  0  0
  193.6840  174.9910  137.6320 C   0  0  0  0  0  1  0  0  0  0  0  0
  192.1630  173.7590  139.2660 N   0  0  0  0  0  2  0  0  0  0  0  0
  194.2160  174.6530  139.9270 O   0  0  0  0  0  0  0  0  0  0  0  0
  188.0410  177.8940  145.1830 C   0  0  0  0  0  2  0  0  0  0  0  0
  186.5920  178.1300  145.4510 C   0  0  0  0  0  0  0  0  0  0  0  0
  184.7660  178.4180  146.9960 C   0  0  0  0  0  3  0  0  0  0  0  0
  184.4380  178.7150  144.6270 C   0  0  0  0  0  0  0  0  0  0  0  0
  183.6340  179.0260  143.5800 F   0  0  0  0  0  0  0  0  0  0  0  0
  185.7540  178.4150  144.4210 N   0  0  0  0  0  0  0  0  0  0  0  0
  186.1120  178.1180  146.7640 C   0  0  0  0  0  3  0  0  0  0  0  0
  183.9210  178.7200  145.9240 C   0  0  0  0  0  3  0  0  0  0  0  0
  1 24  1  6  0  0  0
  1 12  1  0  0  0  0
  3  5  1  6  0  0  0
  3 11  1  0  0  0  0
  4  6  1  6  0  0  0
  4  8  1  0  0  0  0
  4  1  1  0  0  0  0
  7 14  1  0  0  0  0
  8  3  1  0  0  0  0
  9  7  1  0  0  0  0
  9 10  1  0  0  0  0
 10  6  1  0  0  0  0
 11 38  1  0  0  0  0
 11 13  1  0  0  0  0
 12  2  1  0  0  0  0
 13  2  1  0  0  0  0
 14  5  1  0  0  0  0
 14  8  1  0  0  0  0
 16 26  1  0  0  0  0
 17 21  1  0  0  0  0
 17 26  2  0  0  0  0
 18 17  1  0  0  0  0
 19 21  1  0  0  0  0
 20 21  1  0  0  0  0
 21 15  1  0  0  0  0
 22 18  1  0  0  0  0
 23 19  2  0  0  0  0
 23 22  1  0  0  0  0
 24 16  2  0  0  0  0
 25 18  2  0  0  0  0
 25 24  1  0  0  0  0
 27 28  1  0  0  0  0
 28 19  1  0  0  0  0
 29  9  1  0  0  0  0
 30 29  1  0  0  0  0
 31 29  1  0  0  0  0
 32 33  1  0  0  0  0
 33 31  1  0  0  0  0
 33 36  1  0  0  0  0
 34 36  1  0  0  0  0
 34 37  2  0  0  0  0
 35 34  1  0  0  0  0
 38 39  1  0  0  0  0
 39 44  1  0  0  0  0
 41 45  2  0  0  0  0
 42 41  1  0  0  0  0
 43 41  1  0  0  0  0
 43 39  2  0  0  0  0
 44 40  2  0  0  0  0
 45 40  1  0  0  0  0
M  END
>  <MODEL>
2

>  <REMARK>
 VINA RESULT:      -7.8      1.232      1.812
  Name = 
  8 active torsions:
  status: ('A' for Active; 'I' for Inactive)
    1  A    between atoms: C_3  and  C_19
    2  A    between atoms: C_4  and  C_36
    3  A    between atoms: C_12  and  C_34
    4  A    between atoms: C_12  and  C_41
    5  A    between atoms: C_18  and  C_34
    6  A    between atoms: C_19  and  N_25
    7  A    between atoms: C_22  and  O_38
    8  A    between atoms: N_32  and  C_41
                            x       y       z     vdW  Elec       q    Type
                         _______ _______ _______ _____ _____    ______ ____

>  <TORSDO>
F 8

$$$$
=
 OpenBabel11042415193D

 45 50  0  0  1  0  0  0  0  0999 V2000
  190.3460  174.5600  141.9310 C   0  0  2  0  0  3  0  0  0  0  0  0
  188.4270  176.1920  142.4920 C   0  0  0  0  0  2  0  0  0  0  0  0
  189.7570  175.6450  145.1260 C   0  0  2  0  0  3  0  0  0  0  0  0
  191.1080  174.5820  143.2890 C   0  0  1  0  0  3  0  0  0  0  0  0
  190.7740  176.1040  146.1810 C   0  0  0  0  0  2  0  0  0  0  0  0
  192.4910  174.2690  143.1620 O   0  0  0  0  0  0  0  0  0  0  0  0
  193.0260  175.8040  145.1740 N   0  0  0  0  0  2  0  0  0  0  0  0
  190.7920  175.9010  144.0500 C   0  0  2  0  0  3  0  0  0  0  0  0
  193.7790  176.1390  143.9590 C   0  0  2  0  0  3  0  0  0  0  0  0
  193.1990  175.4120  142.7410 C   0  0  0  0  0  2  0  0  0  0  0  0
  188.6760  176.6260  144.9480 N   0  0  0  0  0  0  0  0  0  0  0  0
  188.8270  174.7580  142.1390 C   0  0  0  0  0  2  0  0  0  0  0  0
  187.7720  176.1760  143.8770 C   0  0  0  0  0  2  0  0  0  0  0  0
  191.7470  176.4940  145.0850 C   0  0  1  0  0  3  0  0  0  0  0  0
  189.8240  169.2210  138.3650 F   0  0  0  0  0  0  0  0  0  0  0  0
  190.3250  172.0460  141.6280 C   0  0  0  0  0  3  0  0  0  0  0  0
  190.8980  170.9740  139.5270 C   0  0  0  0  0  0  0  0  0  0  0  0
  191.0950  172.2460  138.9440 C   0  0  0  0  0  0  0  0  0  0  0  0
  191.8910  169.9350  137.4250 C   0  0  0  0  0  0  0  0  0  0  0  0
  191.7700  168.6700  139.5910 C   0  0  0  0  0  1  0  0  0  0  0  0
  191.0720  169.7060  138.7070 C   0  0  2  0  0  0  0  0  0  0  0  0
  191.3750  172.3890  137.4780 C   0  0  0  0  0  2  0  0  0  0  0  0
  192.0370  171.1680  136.9120 C   0  0  0  0  0  3  0  0  0  0  0  0
  190.5820  173.3160  141.0730 C   0  0  0  0  0  0  0  0  0  0  0  0
  190.9280  173.3970  139.7130 C   0  0  0  0  0  3  0  0  0  0  0  0
  190.4810  170.8910  140.8670 C   0  0  0  0  0  3  0  0  0  0  0  0
  193.8570  168.8060  136.3600 C   0  0  0  0  0  1  0  0  0  0  0  0
  192.4750  168.8750  136.7070 O   0  0  0  0  0  0  0  0  0  0  0  0
  195.2650  175.8460  144.1590 C   0  0  1  0  0  3  0  0  0  0  0  0
  196.0060  177.0350  144.0940 O   0  0  0  0  0  1  0  0  0  0  0  0
  195.4930  175.1240  145.4860 C   0  0  0  0  0  2  0  0  0  0  0  0
  197.7040  174.1100  145.2360 N   0  0  0  0  0  1  0  0  0  0  0  0
  196.2830  173.8180  145.3560 C   0  0  2  0  0  3  0  0  0  0  0  0
  194.8830  171.9610  144.3000 C   0  0  0  0  0  0  0  0  0  0  0  0
  194.2680  171.5910  145.6070 C   0  0  0  0  0  1  0  0  0  0  0  0
  195.8190  173.0470  144.2020 N   0  0  0  0  0  2  0  0  0  0  0  0
  194.5650  171.3180  143.2610 O   0  0  0  0  0  0  0  0  0  0  0  0
  187.8710  176.6120  146.1650 C   0  0  0  0  0  2  0  0  0  0  0  0
  186.6250  177.4040  145.9430 C   0  0  0  0  0  0  0  0  0  0  0  0
  184.3010  177.8310  146.4160 C   0  0  0  0  0  3  0  0  0  0  0  0
  185.5700  179.3200  145.0080 C   0  0  0  0  0  0  0  0  0  0  0  0
  185.6500  180.4480  144.2590 F   0  0  0  0  0  0  0  0  0  0  0  0
  186.6650  178.5220  145.1740 N   0  0  0  0  0  0  0  0  0  0  0  0
  185.4360  177.0300  146.5770 C   0  0  0  0  0  3  0  0  0  0  0  0
  184.3640  178.9850  145.6290 C   0  0  0  0  0  3  0  0  0  0  0  0
  1 24  1  1  0  0  0
  1 12  1  0  0  0  0
  1  4  1  0  0  0  0
  2 13  1  0  0  0  0
  3  5  1  1  0  0  0
  4  6  1  6  0  0  0
  4  8  1  0  0  0  0
  8 14  1  0  0  0  0
  8  3  1  0  0  0  0
  9 29  1  0  0  0  0
  9  7  1  0  0  0  0
 10  6  1  0  0  0  0
 10  9  1  0  0  0  0
 11  3  1  0  0  0  0
 11 38  1  0  0  0  0
 12  2  1  0  0  0  0
 13 11  1  0  0  0  0
 14  7  1  0  0  0  0
 14  5  1  0  0  0  0
 15 21  1  0  0  0  0
 17 26  1  0  0  0  0
 18 17  2  0  0  0  0
 18 25  1  0  0  0  0
 19 21  1  0  0  0  0
 21 17  1  0  0  0  0
 21 20  1  0  0  0  0
 22 18  1  0  0  0  0
 23 19  2  0  0  0  0
 23 22  1  0  0  0  0
 24 16  1  0  0  0  0
 25 24  2  0  0  0  0
 26 16  2  0  0  0  0
 27 28  1  0  0  0  0
 28 19  1  0  0  0  0
 29 31  1  0  0  0  0
 30 29  1  0  0  0  0
 32 33  1  0  0  0  0
 33 31  1  0  0  0  0
 34 35  1  0  0  0  0
 36 34  1  0  0  0  0
 36 33  1  0  0  0  0
 37 34  2  0  0  0  0
 39 38  1  0  0  0  0
 39 44  1  0  0  0  0
 40 44  2  0  0  0  0
 41 43  1  0  0  0  0
 41 45  2  0  0  0  0
 42 41  1  0  0  0  0
 43 39  2  0  0  0  0
 45 40  1  0  0  0  0
M  END
>  <MODEL>
3

>  <REMARK>
 VINA RESULT:      -7.8      3.298      6.042
  Name = 
  8 active torsions:
  status: ('A' for Active; 'I' for Inactive)
    1  A    between atoms: C_3  and  C_19
    2  A    between atoms: C_4  and  C_36
    3  A    between atoms: C_12  and  C_34
    4  A    between atoms: C_12  and  C_41
    5  A    between atoms: C_18  and  C_34
    6  A    between atoms: C_19  and  N_25
    7  A    between atoms: C_22  and  O_38
    8  A    between atoms: N_32  and  C_41
                            x       y       z     vdW  Elec       q    Type
                         _______ _______ _______ _____ _____    ______ ____

>  <TORSDO>
F 8

$$$$
=
 OpenBabel11042415193D

 45 50  0  0  1  0  0  0  0  0999 V2000
  189.8660  176.5130  143.4930 C   0  0  2  0  0  3  0  0  0  0  0  0
  192.2950  176.9650  144.2400 C   0  0  0  0  0  2  0  0  0  0  0  0
  191.9200  174.0120  144.6160 C   0  0  2  0  0  3  0  0  0  0  0  0
  189.8910  174.9560  143.4650 C   0  0  1  0  0  3  0  0  0  0  0  0
  192.1080  172.6010  144.0400 C   0  0  0  0  0  2  0  0  0  0  0  0
  188.9390  174.3950  142.5680 O   0  0  0  0  0  0  0  0  0  0  0  0
  190.5170  172.3890  142.1440 N   0  0  0  0  0  2  0  0  0  0  0  0
  191.3520  174.4550  143.2830 C   0  0  2  0  0  3  0  0  0  0  0  0
  190.1120  173.0910  140.9190 C   0  0  2  0  0  3  0  0  0  0  0  0
  189.4470  174.4310  141.2540 C   0  0  0  0  0  2  0  0  0  0  0  0
  193.2060  174.7000  144.8050 N   0  0  0  0  0  0  0  0  0  0  0  0
  190.8080  177.0670  144.5870 C   0  0  0  0  0  2  0  0  0  0  0  0
  192.9670  176.0700  145.2860 C   0  0  0  0  0  2  0  0  0  0  0  0
  191.6770  173.0930  142.6720 C   0  0  1  0  0  3  0  0  0  0  0  0
  184.8190  180.4360  144.2870 F   0  0  0  0  0  0  0  0  0  0  0  0
  188.1130  177.6710  144.9070 C   0  0  0  0  0  3  0  0  0  0  0  0
  185.9770  178.3960  144.0110 C   0  0  0  0  0  0  0  0  0  0  0  0
  186.3630  177.9230  142.7370 C   0  0  0  0  0  0  0  0  0  0  0  0
  183.6310  178.7570  143.0890 C   0  0  0  0  0  0  0  0  0  0  0  0
  184.0660  178.5880  145.5560 C   0  0  0  0  0  1  0  0  0  0  0  0
  184.6300  179.0690  144.2170 C   0  0  2  0  0  0  0  0  0  0  0  0
  185.5050  178.1630  141.5310 C   0  0  0  0  0  2  0  0  0  0  0  0
  184.0580  178.3170  141.8930 C   0  0  0  0  0  3  0  0  0  0  0  0
  188.4800  177.1370  143.6550 C   0  0  0  0  0  0  0  0  0  0  0  0
  187.6040  177.3100  142.5690 C   0  0  0  0  0  3  0  0  0  0  0  0
  186.8790  178.2910  145.0840 C   0  0  0  0  0  3  0  0  0  0  0  0
  181.3300  179.0390  142.1410 C   0  0  0  0  0  1  0  0  0  0  0  0
  182.2460  178.9650  143.2320 O   0  0  0  0  0  0  0  0  0  0  0  0
  189.2170  172.1950  140.0660 C   0  0  1  0  0  3  0  0  0  0  0  0
  187.9030  172.6870  140.0590 O   0  0  0  0  0  1  0  0  0  0  0  0
  189.7710  172.0820  138.6460 C   0  0  0  0  0  2  0  0  0  0  0  0
  191.2420  170.8430  137.1370 N   0  0  0  0  0  1  0  0  0  0  0  0
  191.0110  171.1910  138.5320 C   0  0  2  0  0  3  0  0  0  0  0  0
  191.8690  169.4940  140.2370 C   0  0  0  0  0  0  0  0  0  0  0  0
  193.1410  170.2440  140.4420 C   0  0  0  0  0  1  0  0  0  0  0  0
  190.8550  169.9820  139.3420 N   0  0  0  0  0  2  0  0  0  0  0  0
  191.6740  168.4190  140.8700 O   0  0  0  0  0  0  0  0  0  0  0  0
  193.9050  174.0240  145.8930 C   0  0  0  0  0  2  0  0  0  0  0  0
  195.3240  173.7830  145.4950 C   0  0  0  0  0  0  0  0  0  0  0  0
  197.2210  172.3130  145.2870 C   0  0  0  0  0  3  0  0  0  0  0  0
  197.2870  174.5490  144.3910 C   0  0  0  0  0  0  0  0  0  0  0  0
  197.9400  175.5280  143.7160 F   0  0  0  0  0  0  0  0  0  0  0  0
  196.0150  174.7530  144.8430 N   0  0  0  0  0  0  0  0  0  0  0  0
  195.9170  172.5410  145.7380 C   0  0  0  0  0  3  0  0  0  0  0  0
  197.9130  173.3200  144.6080 C   0  0  0  0  0  3  0  0  0  0  0  0
  1 24  1  1  0  0  0
  1 12  1  0  0  0  0
  2 12  1  0  0  0  0
  2 13  1  0  0  0  0
  3  5  1  6  0  0  0
  3 11  1  0  0  0  0
  4  6  1  6  0  0  0
  4  1  1  0  0  0  0
  7 14  1  0  0  0  0
  8  4  1  0  0  0  0
  8  3  1  0  0  0  0
  9 10  1  0  0  0  0
  9  7  1  0  0  0  0
 10  6  1  0  0  0  0
 11 13  1  0  0  0  0
 11 38  1  0  0  0  0
 14  8  1  0  0  0  0
 14  5  1  0  0  0  0
 16 26  1  0  0  0  0
 17 21  1  0  0  0  0
 17 26  2  0  0  0  0
 18 17  1  0  0  0  0
 19 28  1  0  0  0  0
 19 21  1  0  0  0  0
 21 15  1  0  0  0  0
 21 20  1  0  0  0  0
 22 23  1  0  0  0  0
 22 18  1  0  0  0  0
 23 19  2  0  0  0  0
 24 16  2  0  0  0  0
 25 18  2  0  0  0  0
 25 24  1  0  0  0  0
 27 28  1  0  0  0  0
 29  9  1  0  0  0  0
 30 29  1  0  0  0  0
 31 29  1  0  0  0  0
 32 33  1  0  0  0  0
 33 31  1  0  0  0  0
 33 36  1  0  0  0  0
 34 35  1  0  0  0  0
 34 37  2  0  0  0  0
 36 34  1  0  0  0  0
 39 44  1  0  0  0  0
 39 38  1  0  0  0  0
 40 44  2  0  0  0  0
 41 45  2  0  0  0  0
 41 43  1  0  0  0  0
 42 41  1  0  0  0  0
 43 39  2  0  0  0  0
 45 40  1  0  0  0  0
M  END
>  <MODEL>
4

>  <REMARK>
 VINA RESULT:      -7.8      2.692      9.263
  Name = 
  8 active torsions:
  status: ('A' for Active; 'I' for Inactive)
    1  A    between atoms: C_3  and  C_19
    2  A    between atoms: C_4  and  C_36
    3  A    between atoms: C_12  and  C_34
    4  A    between atoms: C_12  and  C_41
    5  A    between atoms: C_18  and  C_34
    6  A    between atoms: C_19  and  N_25
    7  A    between atoms: C_22  and  O_38
    8  A    between atoms: N_32  and  C_41
                            x       y       z     vdW  Elec       q    Type
                         _______ _______ _______ _____ _____    ______ ____

>  <TORSDO>
F 8

$$$$
=
 OpenBabel11042415193D

 45 50  0  0  1  0  0  0  0  0999 V2000
  188.7670  174.2960  142.0170 C   0  0  2  0  0  3  0  0  0  0  0  0
  188.4830  172.9090  139.8590 C   0  0  0  0  0  2  0  0  0  0  0  0
  191.3520  173.7890  139.8280 C   0  0  2  0  0  3  0  0  0  0  0  0
  190.3170  174.4450  142.0250 C   0  0  1  0  0  3  0  0  0  0  0  0
  192.8150  173.4420  140.1420 C   0  0  0  0  0  2  0  0  0  0  0  0
  190.8550  174.6410  143.3280 O   0  0  0  0  0  0  0  0  0  0  0  0
  193.0240  173.4230  142.6170 N   0  0  0  0  0  2  0  0  0  0  0  0
  190.9630  173.2930  141.2050 C   0  0  2  0  0  3  0  0  0  0  0  0
  192.3840  172.8440  143.8060 C   0  0  2  0  0  3  0  0  0  0  0  0
  190.9670  173.4000  143.9860 C   0  0  0  0  0  2  0  0  0  0  0  0
  190.7720  172.8660  138.8400 N   0  0  0  0  0  0  0  0  0  0  0  0
  188.2190  174.2360  140.5720 C   0  0  0  0  0  2  0  0  0  0  0  0
  189.3540  173.1950  138.6300 C   0  0  0  0  0  2  0  0  0  0  0  0
  192.3920  172.8150  141.4560 C   0  0  1  0  0  3  0  0  0  0  0  0
  184.3670  177.9100  145.0300 F   0  0  0  0  0  0  0  0  0  0  0  0
  187.1060  176.2040  142.1190 C   0  0  0  0  0  3  0  0  0  0  0  0
  186.4910  177.2970  144.1970 C   0  0  0  0  0  0  0  0  0  0  0  0
  187.3420  176.4150  144.9000 C   0  0  0  0  0  0  0  0  0  0  0  0
  186.2130  178.6310  146.3480 C   0  0  0  0  0  0  0  0  0  0  0  0
  185.7000  179.6290  144.1020 C   0  0  0  0  0  1  0  0  0  0  0  0
  185.6750  178.3460  144.9350 C   0  0  2  0  0  0  0  0  0  0  0  0
  187.3870  176.4150  146.3990 C   0  0  0  0  0  2  0  0  0  0  0  0
  187.0130  177.7500  146.9710 C   0  0  0  0  0  3  0  0  0  0  0  0
  188.0070  175.3640  142.8040 C   0  0  0  0  0  0  0  0  0  0  0  0
  188.0810  175.4580  144.2040 C   0  0  0  0  0  3  0  0  0  0  0  0
  186.3590  177.1580  142.8050 C   0  0  0  0  0  3  0  0  0  0  0  0
  186.3180  180.0840  148.3860 C   0  0  0  0  0  1  0  0  0  0  0  0
  185.8550  179.7860  147.0700 O   0  0  0  0  0  0  0  0  0  0  0  0
  193.2580  173.0660  145.0390 C   0  0  1  0  0  3  0  0  0  0  0  0
  194.0470  171.9340  145.2840 O   0  0  0  0  0  1  0  0  0  0  0  0
  194.1220  174.3150  144.8640 C   0  0  0  0  0  2  0  0  0  0  0  0
  194.7440  176.3070  146.1370 N   0  0  0  0  0  1  0  0  0  0  0  0
  193.6140  175.5350  145.6380 C   0  0  2  0  0  3  0  0  0  0  0  0
  191.4720  175.7290  147.0150 C   0  0  0  0  0  0  0  0  0  0  0  0
  190.9200  176.7920  146.1270 C   0  0  0  0  0  1  0  0  0  0  0  0
  192.7470  175.1240  146.7420 N   0  0  0  0  0  2  0  0  0  0  0  0
  190.8020  175.3440  148.0130 O   0  0  0  0  0  0  0  0  0  0  0  0
  191.4240  173.1330  137.5610 C   0  0  0  0  0  2  0  0  0  0  0  0
  191.3450  171.9150  136.7020 C   0  0  0  0  0  0  0  0  0  0  0  0
  190.8160  170.8630  134.6000 C   0  0  0  0  0  3  0  0  0  0  0  0
  191.8740  169.6190  136.3720 C   0  0  0  0  0  0  0  0  0  0  0  0
  192.4160  168.4670  136.8400 F   0  0  0  0  0  0  0  0  0  0  0  0
  191.8530  170.7380  137.1530 N   0  0  0  0  0  0  0  0  0  0  0  0
  190.8080  172.0000  135.4140 C   0  0  0  0  0  3  0  0  0  0  0  0
  191.3520  169.6640  135.0770 C   0  0  0  0  0  3  0  0  0  0  0  0
  1  4  1  0  0  0  0
  1 24  1  6  0  0  0
  2 12  1  0  0  0  0
  3  5  1  1  0  0  0
  3  8  1  0  0  0  0
  4  6  1  1  0  0  0
  5 14  1  0  0  0  0
  6 10  1  0  0  0  0
  7  9  1  0  0  0  0
  8 14  1  0  0  0  0
  8  4  1  0  0  0  0
  9 10  1  0  0  0  0
  9 29  1  0  0  0  0
 11  3  1  0  0  0  0
 12  1  1  0  0  0  0
 13 11  1  0  0  0  0
 13  2  1  0  0  0  0
 14  7  1  0  0  0  0
 16 24  2  0  0  0  0
 16 26  1  0  0  0  0
 17 18  1  0  0  0  0
 17 21  1  0  0  0  0
 18 22  1  0  0  0  0
 19 23  2  0  0  0  0
 19 28  1  0  0  0  0
 20 21  1  0  0  0  0
 21 15  1  0  0  0  0
 21 19  1  0  0  0  0
 22 23  1  0  0  0  0
 24 25  1  0  0  0  0
 25 18  2  0  0  0  0
 26 17  2  0  0  0  0
 28 27  1  0  0  0  0
 29 30  1  0  0  0  0
 31 29  1  0  0  0  0
 31 33  1  0  0  0  0
 33 32  1  0  0  0  0
 33 36  1  0  0  0  0
 34 37  2  0  0  0  0
 35 34  1  0  0  0  0
 36 34  1  0  0  0  0
 38 11  1  0  0  0  0
 39 43  1  0  0  0  0
 39 38  1  0  0  0  0
 40 45  2  0  0  0  0
 40 44  1  0  0  0  0
 41 42  1  0  0  0  0
 41 43  2  0  0  0  0
 44 39  2  0  0  0  0
 45 41  1  0  0  0  0
M  END
>  <MODEL>
5

>  <REMARK>
 VINA RESULT:      -7.5      3.487     10.024
  Name = 
  8 active torsions:
  status: ('A' for Active; 'I' for Inactive)
    1  A    between atoms: C_3  and  C_19
    2  A    between atoms: C_4  and  C_36
    3  A    between atoms: C_12  and  C_34
    4  A    between atoms: C_12  and  C_41
    5  A    between atoms: C_18  and  C_34
    6  A    between atoms: C_19  and  N_25
    7  A    between atoms: C_22  and  O_38
    8  A    between atoms: N_32  and  C_41
                            x       y       z     vdW  Elec       q    Type
                         _______ _______ _______ _____ _____    ______ ____

>  <TORSDO>
F 8

$$$$
=
 OpenBabel11042415193D

 45 50  0  0  1  0  0  0  0  0999 V2000
  189.7960  173.9730  142.3410 C   0  0  2  0  0  3  0  0  0  0  0  0
  190.6750  173.2040  144.6430 C   0  0  0  0  0  2  0  0  0  0  0  0
  190.9560  176.1910  144.6790 C   0  0  2  0  0  3  0  0  0  0  0  0
  189.7300  175.5080  142.5910 C   0  0  1  0  0  3  0  0  0  0  0  0
  190.3550  177.5420  145.0940 C   0  0  0  0  0  2  0  0  0  0  0  0
  188.7720  176.1690  141.7710 O   0  0  0  0  0  0  0  0  0  0  0  0
  188.3770  177.9160  143.6380 N   0  0  0  0  0  2  0  0  0  0  0  0
  189.6090  175.7910  144.1150 C   0  0  2  0  0  3  0  0  0  0  0  0
  187.1510  177.2390  143.1930 C   0  0  2  0  0  3  0  0  0  0  0  0
  187.4870  176.0190  142.3280 C   0  0  0  0  0  2  0  0  0  0  0  0
  191.2260  175.3340  145.8430 N   0  0  0  0  0  0  0  0  0  0  0  0
  190.9490  173.3260  143.1430 C   0  0  0  0  0  2  0  0  0  0  0  0
  191.7300  174.0280  145.3880 C   0  0  0  0  0  2  0  0  0  0  0  0
  188.9800  177.0720  144.6600 C   0  0  1  0  0  3  0  0  0  0  0  0
  189.3450  173.4260  135.9380 F   0  0  0  0  0  0  0  0  0  0  0  0
  188.7650  173.0350  140.2270 C   0  0  0  0  0  3  0  0  0  0  0  0
  189.9890  172.8570  138.1390 C   0  0  0  0  0  0  0  0  0  0  0  0
  191.1150  173.4410  138.7620 C   0  0  0  0  0  0  0  0  0  0  0  0
  191.4580  172.3450  136.1230 C   0  0  0  0  0  0  0  0  0  0  0  0
  189.2950  171.1340  136.5200 C   0  0  0  0  0  1  0  0  0  0  0  0
  190.0250  172.4700  136.6690 C   0  0  2  0  0  0  0  0  0  0  0  0
  192.3390  173.7940  137.9710 C   0  0  0  0  0  2  0  0  0  0  0  0
  192.4900  172.9300  136.7540 C   0  0  0  0  0  3  0  0  0  0  0  0
  189.9040  173.5570  140.8730 C   0  0  0  0  0  0  0  0  0  0  0  0
  191.0610  173.7910  140.1100 C   0  0  0  0  0  3  0  0  0  0  0  0
  188.8060  172.6890  138.8790 C   0  0  0  0  0  3  0  0  0  0  0  0
  192.5660  170.5020  134.8380 C   0  0  0  0  0  1  0  0  0  0  0  0
  191.7480  171.6680  134.9230 O   0  0  0  0  0  0  0  0  0  0  0  0
  186.2320  178.2260  142.4750 C   0  0  1  0  0  3  0  0  0  0  0  0
  185.1810  177.5410  141.8480 O   0  0  0  0  0  1  0  0  0  0  0  0
  185.7020  179.2720  143.4550 C   0  0  0  0  0  2  0  0  0  0  0  0
  183.6470  179.0410  144.7580 N   0  0  0  0  0  1  0  0  0  0  0  0
  185.0560  178.6780  144.7100 C   0  0  2  0  0  3  0  0  0  0  0  0
  186.1610  178.2660  146.9760 C   0  0  0  0  0  0  0  0  0  0  0  0
  185.9650  176.7910  146.8770 C   0  0  0  0  0  1  0  0  0  0  0  0
  185.7450  179.1420  145.9150 N   0  0  0  0  0  2  0  0  0  0  0  0
  186.7140  178.7500  148.0020 O   0  0  0  0  0  0  0  0  0  0  0  0
  192.3310  175.9380  146.5810 C   0  0  0  0  0  2  0  0  0  0  0  0
  193.6090  175.6830  145.8550 C   0  0  0  0  0  0  0  0  0  0  0  0
  195.1680  176.2310  144.1000 C   0  0  0  0  0  3  0  0  0  0  0  0
  195.7020  174.5560  145.7490 C   0  0  0  0  0  0  0  0  0  0  0  0
  196.5680  173.6530  146.2720 F   0  0  0  0  0  0  0  0  0  0  0  0
  194.4870  174.7650  146.3360 N   0  0  0  0  0  0  0  0  0  0  0  0
  193.9300  176.4330  144.7190 C   0  0  0  0  0  3  0  0  0  0  0  0
  196.0630  175.2890  144.6160 C   0  0  0  0  0  3  0  0  0  0  0  0
  1 24  1  6  0  0  0
  1  4  1  0  0  0  0
  1 12  1  0  0  0  0
  2 13  1  0  0  0  0
  3  5  1  1  0  0  0
  3 11  1  0  0  0  0
  4  6  1  6  0  0  0
  4  8  1  0  0  0  0
  6 10  1  0  0  0  0
  7 14  1  0  0  0  0
  8 14  1  0  0  0  0
  8  3  1  0  0  0  0
  9  7  1  0  0  0  0
 10  9  1  0  0  0  0
 11 38  1  0  0  0  0
 12  2  1  0  0  0  0
 13 11  1  0  0  0  0
 14  5  1  0  0  0  0
 15 21  1  0  0  0  0
 16 24  1  0  0  0  0
 17 18  2  0  0  0  0
 17 26  1  0  0  0  0
 18 25  1  0  0  0  0
 19 21  1  0  0  0  0
 19 23  2  0  0  0  0
 20 21  1  0  0  0  0
 21 17  1  0  0  0  0
 22 18  1  0  0  0  0
 23 22  1  0  0  0  0
 25 24  2  0  0  0  0
 26 16  2  0  0  0  0
 27 28  1  0  0  0  0
 28 19  1  0  0  0  0
 29  9  1  0  0  0  0
 29 31  1  0  0  0  0
 30 29  1  0  0  0  0
 31 33  1  0  0  0  0
 33 32  1  0  0  0  0
 33 36  1  0  0  0  0
 34 37  2  0  0  0  0
 35 34  1  0  0  0  0
 36 34  1  0  0  0  0
 39 43  1  0  0  0  0
 39 38  1  0  0  0  0
 40 45  2  0  0  0  0
 40 44  1  0  0  0  0
 41 42  1  0  0  0  0
 41 43  2  0  0  0  0
 44 39  2  0  0  0  0
 45 41  1  0  0  0  0
M  END
>  <MODEL>
6

>  <REMARK>
 VINA RESULT:      -7.5      4.183      8.510
  Name = 
  8 active torsions:
  status: ('A' for Active; 'I' for Inactive)
    1  A    between atoms: C_3  and  C_19
    2  A    between atoms: C_4  and  C_36
    3  A    between atoms: C_12  and  C_34
    4  A    between atoms: C_12  and  C_41
    5  A    between atoms: C_18  and  C_34
    6  A    between atoms: C_19  and  N_25
    7  A    between atoms: C_22  and  O_38
    8  A    between atoms: N_32  and  C_41
                            x       y       z     vdW  Elec       q    Type
                         _______ _______ _______ _____ _____    ______ ____

>  <TORSDO>
F 8

$$$$
=
 OpenBabel11042415193D

 45 50  0  0  1  0  0  0  0  0999 V2000
  190.5050  173.4290  141.8410 C   0  0  2  0  0  3  0  0  0  0  0  0
  189.8500  171.7980  139.9520 C   0  0  0  0  0  2  0  0  0  0  0  0
  192.2290  173.2820  138.8860 C   0  0  2  0  0  3  0  0  0  0  0  0
  191.8790  173.9170  141.2950 C   0  0  1  0  0  3  0  0  0  0  0  0
  193.7490  173.3010  138.6650 C   0  0  0  0  0  2  0  0  0  0  0  0
  192.7650  174.3610  142.3170 O   0  0  0  0  0  0  0  0  0  0  0  0
  194.7880  173.5860  140.9040 N   0  0  0  0  0  2  0  0  0  0  0  0
  192.4660  172.8570  140.3200 C   0  0  2  0  0  3  0  0  0  0  0  0
  194.7530  173.0060  142.2530 C   0  0  2  0  0  3  0  0  0  0  0  0
  193.3930  173.2510  142.9150 C   0  0  0  0  0  2  0  0  0  0  0  0
  191.5910  172.1560  138.1860 N   0  0  0  0  0  0  0  0  0  0  0  0
  189.5300  173.1000  140.6880 C   0  0  0  0  0  2  0  0  0  0  0  0
  190.1520  172.1390  138.4890 C   0  0  0  0  0  2  0  0  0  0  0  0
  193.9660  172.7350  140.0550 C   0  0  1  0  0  3  0  0  0  0  0  0
  189.0550  177.9190  146.2270 F   0  0  0  0  0  0  0  0  0  0  0  0
  190.0390  174.1990  144.2080 C   0  0  0  0  0  3  0  0  0  0  0  0
  188.6820  176.1480  144.7090 C   0  0  0  0  0  0  0  0  0  0  0  0
  188.5150  176.3740  143.3240 C   0  0  0  0  0  0  0  0  0  0  0  0
  186.9360  177.9500  145.1430 C   0  0  0  0  0  0  0  0  0  0  0  0
  187.5250  176.2390  146.8830 C   0  0  0  0  0  1  0  0  0  0  0  0
  188.0670  177.0890  145.7330 C   0  0  2  0  0  0  0  0  0  0  0  0
  187.8190  177.6030  142.8200 C   0  0  0  0  0  2  0  0  0  0  0  0
  186.8330  178.1370  143.8160 C   0  0  0  0  0  3  0  0  0  0  0  0
  189.8230  174.3790  142.8270 C   0  0  0  0  0  0  0  0  0  0  0  0
  189.0890  175.5000  142.4020 C   0  0  0  0  0  3  0  0  0  0  0  0
  189.4760  175.0700  145.1370 C   0  0  0  0  0  3  0  0  0  0  0  0
  184.8340  179.2750  145.4590 C   0  0  0  0  0  1  0  0  0  0  0  0
  186.0010  178.6190  145.9540 O   0  0  0  0  0  0  0  0  0  0  0  0
  195.9120  173.5430  143.0910 C   0  0  1  0  0  3  0  0  0  0  0  0
  196.9670  172.6190  143.1070 O   0  0  0  0  0  1  0  0  0  0  0  0
  196.3740  174.8990  142.5570 C   0  0  0  0  0  2  0  0  0  0  0  0
  196.8250  177.1680  143.3460 N   0  0  0  0  0  1  0  0  0  0  0  0
  195.8420  176.0940  143.3530 C   0  0  2  0  0  3  0  0  0  0  0  0
  194.2920  176.0480  145.3820 C   0  0  0  0  0  0  0  0  0  0  0  0
  193.2200  176.7940  144.6620 C   0  0  0  0  0  1  0  0  0  0  0  0
  195.5230  175.7010  144.7260 N   0  0  0  0  0  2  0  0  0  0  0  0
  194.1100  175.7060  146.5830 O   0  0  0  0  0  0  0  0  0  0  0  0
  191.6820  172.4260  136.7550 C   0  0  0  0  0  2  0  0  0  0  0  0
  192.0830  171.1780  136.0410 C   0  0  0  0  0  0  0  0  0  0  0  0
  191.5640  169.3580  134.5490 C   0  0  0  0  0  3  0  0  0  0  0  0
  193.8010  169.6670  135.3900 C   0  0  0  0  0  0  0  0  0  0  0  0
  195.1040  169.2900  135.4370 F   0  0  0  0  0  0  0  0  0  0  0  0
  193.3730  170.7570  136.0910 N   0  0  0  0  0  0  0  0  0  0  0  0
  191.1470  170.4800  135.2720 C   0  0  0  0  0  3  0  0  0  0  0  0
  192.8990  168.9460  134.6050 C   0  0  0  0  0  3  0  0  0  0  0  0
  1 24  1  1  0  0  0
  2 12  1  0  0  0  0
  3  5  1  6  0  0  0
  3  8  1  0  0  0  0
  4  1  1  0  0  0  0
  4  6  1  1  0  0  0
  5 14  1  0  0  0  0
  6 10  1  0  0  0  0
  7  9  1  0  0  0  0
  8  4  1  0  0  0  0
  9 10  1  0  0  0  0
  9 29  1  0  0  0  0
 11 13  1  0  0  0  0
 11  3  1  0  0  0  0
 12  1  1  0  0  0  0
 13  2  1  0  0  0  0
 14  8  1  0  0  0  0
 14  7  1  0  0  0  0
 16 26  1  0  0  0  0
 17 26  2  0  0  0  0
 17 21  1  0  0  0  0
 18 17  1  0  0  0  0
 19 21  1  0  0  0  0
 19 28  1  0  0  0  0
 21 15  1  0  0  0  0
 21 20  1  0  0  0  0
 22 18  1  0  0  0  0
 22 23  1  0  0  0  0
 23 19  2  0  0  0  0
 24 16  2  0  0  0  0
 25 24  1  0  0  0  0
 25 18  2  0  0  0  0
 27 28  1  0  0  0  0
 29 30  1  0  0  0  0
 31 29  1  0  0  0  0
 31 33  1  0  0  0  0
 32 33  1  0  0  0  0
 33 36  1  0  0  0  0
 34 37  2  0  0  0  0
 35 34  1  0  0  0  0
 36 34  1  0  0  0  0
 38 11  1  0  0  0  0
 39 43  1  0  0  0  0
 39 38  1  0  0  0  0
 40 45  2  0  0  0  0
 40 44  1  0  0  0  0
 41 42  1  0  0  0  0
 41 43  2  0  0  0  0
 44 39  2  0  0  0  0
 45 41  1  0  0  0  0
M  END
>  <MODEL>
7

>  <REMARK>
 VINA RESULT:      -7.1      3.836     10.006
  Name = 
  8 active torsions:
  status: ('A' for Active; 'I' for Inactive)
    1  A    between atoms: C_3  and  C_19
    2  A    between atoms: C_4  and  C_36
    3  A    between atoms: C_12  and  C_34
    4  A    between atoms: C_12  and  C_41
    5  A    between atoms: C_18  and  C_34
    6  A    between atoms: C_19  and  N_25
    7  A    between atoms: C_22  and  O_38
    8  A    between atoms: N_32  and  C_41
                            x       y       z     vdW  Elec       q    Type
                         _______ _______ _______ _____ _____    ______ ____

>  <TORSDO>
F 8

$$$$
=
 OpenBabel11042415193D

 45 50  0  0  1  0  0  0  0  0999 V2000
  190.9270  172.5720  143.3640 C   0  0  2  0  0  3  0  0  0  0  0  0
  190.4750  170.4230  142.0090 C   0  0  0  0  0  2  0  0  0  0  0  0
  192.9240  171.6160  140.7510 C   0  0  2  0  0  3  0  0  0  0  0  0
  192.3400  172.9300  142.8160 C   0  0  1  0  0  3  0  0  0  0  0  0
  194.4580  171.6310  140.6670 C   0  0  0  0  0  2  0  0  0  0  0  0
  193.1190  173.6970  143.7270 O   0  0  0  0  0  0  0  0  0  0  0  0
  195.2770  172.6180  142.7940 N   0  0  0  0  0  2  0  0  0  0  0  0
  193.0310  171.6520  142.2620 C   0  0  2  0  0  3  0  0  0  0  0  0
  195.1230  172.4690  144.2470 C   0  0  2  0  0  3  0  0  0  0  0  0
  193.7030  172.8440  144.6850 C   0  0  0  0  0  2  0  0  0  0  0  0
  192.3700  170.3060  140.3730 N   0  0  0  0  0  0  0  0  0  0  0  0
  190.0690  171.8720  142.2850 C   0  0  0  0  0  2  0  0  0  0  0  0
  190.9090  170.3220  140.5430 C   0  0  0  0  0  2  0  0  0  0  0  0
  194.5500  171.5180  142.1760 C   0  0  1  0  0  3  0  0  0  0  0  0
  188.9850  177.9160  146.3930 F   0  0  0  0  0  0  0  0  0  0  0  0
  189.9620  173.8120  145.3500 C   0  0  0  0  0  3  0  0  0  0  0  0
  188.7920  175.9280  145.1320 C   0  0  0  0  0  0  0  0  0  0  0  0
  189.0270  175.9010  143.7390 C   0  0  0  0  0  0  0  0  0  0  0  0
  187.2490  177.9190  144.7640 C   0  0  0  0  0  0  0  0  0  0  0  0
  187.1270  176.5250  146.8480 C   0  0  0  0  0  1  0  0  0  0  0  0
  188.0610  177.0940  145.7770 C   0  0  2  0  0  0  0  0  0  0  0  0
  188.6570  177.0660  142.8710 C   0  0  0  0  0  2  0  0  0  0  0  0
  187.5240  177.8600  143.4500 C   0  0  0  0  0  3  0  0  0  0  0  0
  190.1430  173.7450  143.9540 C   0  0  0  0  0  0  0  0  0  0  0  0
  189.7020  174.8230  143.1670 C   0  0  0  0  0  3  0  0  0  0  0  0
  189.2960  174.8870  145.9320 C   0  0  0  0  0  3  0  0  0  0  0  0
  185.5170  179.6600  144.2670 C   0  0  0  0  0  1  0  0  0  0  0  0
  186.2310  178.8060  145.1610 O   0  0  0  0  0  0  0  0  0  0  0  0
  196.1910  173.2790  144.9790 C   0  0  1  0  0  3  0  0  0  0  0  0
  197.2310  172.4400  145.4020 O   0  0  0  0  0  1  0  0  0  0  0  0
  196.7160  174.4020  144.0850 C   0  0  0  0  0  2  0  0  0  0  0  0
  196.5820  176.7790  143.5290 N   0  0  0  0  0  1  0  0  0  0  0  0
  195.8370  175.6560  144.0810 C   0  0  2  0  0  3  0  0  0  0  0  0
  194.0800  176.5320  145.7150 C   0  0  0  0  0  0  0  0  0  0  0  0
  193.0960  176.7840  144.6240 C   0  0  0  0  0  1  0  0  0  0  0  0
  195.3710  175.9660  145.4330 N   0  0  0  0  0  2  0  0  0  0  0  0
  193.7700  176.8090  146.9060 O   0  0  0  0  0  0  0  0  0  0  0  0
  192.5920  170.1380  138.9410 C   0  0  0  0  0  2  0  0  0  0  0  0
  191.4880  170.8040  138.1880 C   0  0  0  0  0  0  0  0  0  0  0  0
  189.4960  170.6750  136.8390 C   0  0  0  0  0  3  0  0  0  0  0  0
  190.3090  172.7970  137.6430 C   0  0  0  0  0  0  0  0  0  0  0  0
  190.1800  174.1430  137.7490 F   0  0  0  0  0  0  0  0  0  0  0  0
  191.3490  172.1530  138.2500 N   0  0  0  0  0  0  0  0  0  0  0  0
  190.5660  170.0350  137.4730 C   0  0  0  0  0  3  0  0  0  0  0  0
  189.3620  172.0640  136.9230 C   0  0  0  0  0  3  0  0  0  0  0  0
  1 24  1  6  0  0  0
  2 12  1  0  0  0  0
  3  5  1  6  0  0  0
  3  8  1  0  0  0  0
  4  1  1  0  0  0  0
  4  6  1  1  0  0  0
  5 14  1  0  0  0  0
  6 10  1  0  0  0  0
  7  9  1  0  0  0  0
  8  4  1  0  0  0  0
  9 10  1  0  0  0  0
  9 29  1  0  0  0  0
 11 13  1  0  0  0  0
 11  3  1  0  0  0  0
 12  1  1  0  0  0  0
 13  2  1  0  0  0  0
 14  8  1  0  0  0  0
 14  7  1  0  0  0  0
 16 26  1  0  0  0  0
 17 21  1  0  0  0  0
 17 26  2  0  0  0  0
 18 17  1  0  0  0  0
 19 28  1  0  0  0  0
 19 21  1  0  0  0  0
 21 15  1  0  0  0  0
 21 20  1  0  0  0  0
 22 23  1  0  0  0  0
 22 18  1  0  0  0  0
 23 19  2  0  0  0  0
 24 16  2  0  0  0  0
 25 18  2  0  0  0  0
 25 24  1  0  0  0  0
 27 28  1  0  0  0  0
 29 30  1  0  0  0  0
 31 29  1  0  0  0  0
 32 33  1  0  0  0  0
 33 31  1  0  0  0  0
 33 36  1  0  0  0  0
 34 37  2  0  0  0  0
 35 34  1  0  0  0  0
 36 34  1  0  0  0  0
 38 11  1  0  0  0  0
 39 43  1  0  0  0  0
 39 38  1  0  0  0  0
 40 45  2  0  0  0  0
 40 44  1  0  0  0  0
 41 42  1  0  0  0  0
 41 43  2  0  0  0  0
 44 39  2  0  0  0  0
 45 41  1  0  0  0  0
M  END
>  <MODEL>
8

>  <REMARK>
 VINA RESULT:      -7.1      3.519      9.224
  Name = 
  8 active torsions:
  status: ('A' for Active; 'I' for Inactive)
    1  A    between atoms: C_3  and  C_19
    2  A    between atoms: C_4  and  C_36
    3  A    between atoms: C_12  and  C_34
    4  A    between atoms: C_12  and  C_41
    5  A    between atoms: C_18  and  C_34
    6  A    between atoms: C_19  and  N_25
    7  A    between atoms: C_22  and  O_38
    8  A    between atoms: N_32  and  C_41
                            x       y       z     vdW  Elec       q    Type
                         _______ _______ _______ _____ _____    ______ ____

>  <TORSDO>
F 8

$$$$
=
 OpenBabel11042415193D

 45 50  0  0  1  0  0  0  0  0999 V2000
  190.4570  175.0370  143.3670 C   0  0  2  0  0  3  0  0  0  0  0  0
  192.8900  174.8690  144.2110 C   0  0  0  0  0  2  0  0  0  0  0  0
  191.9840  172.0230  143.9280 C   0  0  2  0  0  3  0  0  0  0  0  0
  190.2090  173.5450  142.9980 C   0  0  1  0  0  3  0  0  0  0  0  0
  191.9470  170.7580  143.0580 C   0  0  0  0  0  2  0  0  0  0  0  0
  189.2150  173.3720  141.9930 O   0  0  0  0  0  0  0  0  0  0  0  0
  190.4330  171.2510  141.1510 N   0  0  0  0  0  2  0  0  0  0  0  0
  191.5650  172.8370  142.7210 C   0  0  2  0  0  3  0  0  0  0  0  0
  190.2160  172.2610  140.1070 C   0  0  2  0  0  3  0  0  0  0  0  0
  189.7820  173.5960  140.7230 C   0  0  0  0  0  2  0  0  0  0  0  0
  193.3610  172.4090  144.2720 N   0  0  0  0  0  0  0  0  0  0  0  0
  191.4300  175.1630  144.5620 C   0  0  0  0  0  2  0  0  0  0  0  0
  193.3450  173.6630  145.0400 C   0  0  0  0  0  2  0  0  0  0  0  0
  191.6730  171.6020  141.8280 C   0  0  1  0  0  3  0  0  0  0  0  0
  186.1390  179.4750  145.1460 F   0  0  0  0  0  0  0  0  0  0  0  0
  188.7850  176.0310  144.9880 C   0  0  0  0  0  3  0  0  0  0  0  0
  186.9360  177.4300  144.2710 C   0  0  0  0  0  0  0  0  0  0  0  0
  187.3800  177.3120  142.9350 C   0  0  0  0  0  0  0  0  0  0  0  0
  184.8200  178.5450  143.3970 C   0  0  0  0  0  0  0  0  0  0  0  0
  184.9210  177.5210  145.6870 C   0  0  0  0  0  1  0  0  0  0  0  0
  185.7170  178.2710  144.6170 C   0  0  2  0  0  0  0  0  0  0  0  0
  186.7290  178.0940  141.8330 C   0  0  0  0  0  2  0  0  0  0  0  0
  185.3000  178.4250  142.1470 C   0  0  0  0  0  3  0  0  0  0  0  0
  189.1960  175.8540  143.6520 C   0  0  0  0  0  0  0  0  0  0  0  0
  188.5020  176.5390  142.6400 C   0  0  0  0  0  3  0  0  0  0  0  0
  187.6710  176.8070  145.2950 C   0  0  0  0  0  3  0  0  0  0  0  0
  182.4600  178.7140  142.5740 C   0  0  0  0  0  1  0  0  0  0  0  0
  183.4890  178.9820  143.5260 O   0  0  0  0  0  0  0  0  0  0  0  0
  189.2170  171.7470  139.0720 C   0  0  1  0  0  3  0  0  0  0  0  0
  188.2660  172.7370  138.7820 O   0  0  0  0  0  1  0  0  0  0  0  0
  189.9440  171.2930  137.8070 C   0  0  0  0  0  2  0  0  0  0  0  0
  190.5830  172.7710  135.9680 N   0  0  0  0  0  1  0  0  0  0  0  0
  190.9760  172.2980  137.2880 C   0  0  2  0  0  3  0  0  0  0  0  0
  193.4420  172.2200  137.9500 C   0  0  0  0  0  0  0  0  0  0  0  0
  193.3060  173.4020  138.8480 C   0  0  0  0  0  1  0  0  0  0  0  0
  192.3080  171.6940  137.2390 N   0  0  0  0  0  2  0  0  0  0  0  0
  194.5680  171.6640  137.8240 O   0  0  0  0  0  0  0  0  0  0  0  0
  193.8790  171.3990  145.1900 C   0  0  0  0  0  2  0  0  0  0  0  0
  195.2880  171.0730  144.8220 C   0  0  0  0  0  0  0  0  0  0  0  0
  197.5380  170.4880  145.4560 C   0  0  0  0  0  3  0  0  0  0  0  0
  196.8810  170.5370  143.1380 C   0  0  0  0  0  0  0  0  0  0  0  0
  197.1770  170.3560  141.8270 F   0  0  0  0  0  0  0  0  0  0  0  0
  195.6240  170.9130  143.5160 N   0  0  0  0  0  0  0  0  0  0  0  0
  196.2430  170.8690  145.8230 C   0  0  0  0  0  3  0  0  0  0  0  0
  197.8620  170.3180  144.1070 C   0  0  0  0  0  3  0  0  0  0  0  0
  1 24  1  1  0  0  0
  1 12  1  0  0  0  0
  2 12  1  0  0  0  0
  2 13  1  0  0  0  0
  3  5  1  6  0  0  0
  3 11  1  0  0  0  0
  4  6  1  6  0  0  0
  4  1  1  0  0  0  0
  7 14  1  0  0  0  0
  8  4  1  0  0  0  0
  8  3  1  0  0  0  0
  9 10  1  0  0  0  0
  9  7  1  0  0  0  0
 10  6  1  0  0  0  0
 11 13  1  0  0  0  0
 11 38  1  0  0  0  0
 14  8  1  0  0  0  0
 14  5  1  0  0  0  0
 16 26  1  0  0  0  0
 17 21  1  0  0  0  0
 17 26  2  0  0  0  0
 18 17  1  0  0  0  0
 19 28  1  0  0  0  0
 19 21  1  0  0  0  0
 21 15  1  0  0  0  0
 21 20  1  0  0  0  0
 22 23  1  0  0  0  0
 22 18  1  0  0  0  0
 23 19  2  0  0  0  0
 24 16  2  0  0  0  0
 25 18  2  0  0  0  0
 25 24  1  0  0  0  0
 27 28  1  0  0  0  0
 29  9  1  0  0  0  0
 30 29  1  0  0  0  0
 31 29  1  0  0  0  0
 32 33  1  0  0  0  0
 33 31  1  0  0  0  0
 34 35  1  0  0  0  0
 36 33  1  0  0  0  0
 36 34  1  0  0  0  0
 37 34  2  0  0  0  0
 39 38  1  0  0  0  0
 39 44  1  0  0  0  0
 40 44  2  0  0  0  0
 41 43  1  0  0  0  0
 41 45  2  0  0  0  0
 42 41  1  0  0  0  0
 43 39  2  0  0  0  0
 45 40  1  0  0  0  0
M  END
>  <MODEL>
9

>  <REMARK>
 VINA RESULT:      -7.0      2.732      9.263
  Name = 
  8 active torsions:
  status: ('A' for Active; 'I' for Inactive)
    1  A    between atoms: C_3  and  C_19
    2  A    between atoms: C_4  and  C_36
    3  A    between atoms: C_12  and  C_34
    4  A    between atoms: C_12  and  C_41
    5  A    between atoms: C_18  and  C_34
    6  A    between atoms: C_19  and  N_25
    7  A    between atoms: C_22  and  O_38
    8  A    between atoms: N_32  and  C_41
                            x       y       z     vdW  Elec       q    Type
                         _______ _______ _______ _____ _____    ______ ____

>  <TORSDO>
F 8

$$$$
