=
 OpenBabel11042416063D

 34 39  0  0  1  0  0  0  0  0999 V2000
  187.7830  177.4570  144.3990 C   0  0  0  0  0  0  0  0  0  0  0  0
  189.9540  172.5260  144.3870 C   0  0  0  0  0  2  0  0  0  0  0  0
  187.3720  175.7950  142.5210 N   0  0  0  0  0  2  0  0  0  0  0  0
  186.8720  176.7110  143.5050 C   0  0  0  0  0  0  0  0  0  0  0  0
  184.9460  177.8610  144.5770 C   0  0  0  0  0  2  0  0  0  0  0  0
  187.2960  178.1390  145.4350 C   0  0  0  0  0  3  0  0  0  0  0  0
  189.0500  172.7650  141.3440 C   0  0  0  0  0  0  0  0  0  0  0  0
  188.9450  174.2510  141.4690 C   0  0  2  0  0  3  0  0  0  0  0  0
  188.5600  175.0410  142.6280 N   0  0  2  0  0  0  0  0  0  0  0  0
  190.6540  172.0590  143.1730 C   0  0  0  0  0  2  0  0  0  0  0  0
  189.7470  171.8990  142.0360 N   0  0  0  0  0  0  0  0  0  0  0  0
  185.5500  176.8860  143.6020 C   0  0  0  0  0  3  0  0  0  0  0  0
  189.2110  174.9220  143.9030 C   0  0  2  0  0  3  0  0  0  0  0  0
  188.6470  172.4070  140.0310 N   0  0  0  0  0  0  0  0  0  0  0  0
  185.8820  178.1950  145.6520 N   0  0  0  0  0  0  0  0  0  0  0  0
  189.2490  177.4410  144.1510 C   0  0  0  0  0  2  0  0  0  0  0  0
  185.3780  178.8570  146.8400 C   0  0  0  0  0  1  0  0  0  0  0  0
  189.8620  176.1110  144.5670 C   0  0  2  0  0  3  0  0  0  0  0  0
  188.4060  173.5020  139.3920 C   0  0  0  0  0  3  0  0  0  0  0  0
  189.5560  173.7390  144.2820 C   0  0  0  0  0  2  0  0  0  0  0  0
  188.5600  174.6630  140.2630 C   0  0  0  0  0  2  0  0  0  0  0  0
  192.5110  176.1190  145.4990 S   0  0  0  0  0  0  0  0  0  0  0  0
  191.3340  176.1490  144.3000 C   0  0  0  0  0  0  0  0  0  0  0  0
  191.8770  176.2480  143.0650 N   0  0  0  0  0  0  0  0  0  0  0  0
  193.2350  176.2870  143.1050 C   0  0  0  0  0  3  0  0  0  0  0  0
  193.7680  176.2290  144.3890 C   0  0  0  0  0  0  0  0  0  0  0  0
  196.9610  174.3820  144.6570 N   0  0  0  0  0  0  0  0  0  0  0  0
  195.2170  176.2410  144.7480 C   0  0  1  0  0  3  0  0  0  0  0  0
  195.6400  174.7880  145.7520 S   0  0  0  0  0  0  0  0  0  0  0  0
  196.0430  176.2620  143.5490 N   0  0  0  0  0  2  0  0  0  0  0  0
  196.5690  174.9200  143.3690 C   0  0  0  0  0  2  0  0  0  0  0  0
  196.9750  172.9340  144.5180 C   0  0  0  0  0  2  0  0  0  0  0  0
  197.1150  170.8730  145.8040 N   0  0  0  0  0  1  0  0  0  0  0  0
  196.7350  172.2720  145.8650 C   0  0  0  0  0  2  0  0  0  0  0  0
  1  6  2  0  0  0  0
  3  4  1  0  0  0  0
  4 12  2  0  0  0  0
  4  1  1  0  0  0  0
  5 15  1  0  0  0  0
  6 15  1  0  0  0  0
  7  8  1  0  0  0  0
  7 11  2  0  0  0  0
  8 21  1  6  0  0  0
  8  9  1  0  0  0  0
  9  3  1  1  0  0  0
  9 13  1  0  0  0  0
 10  2  1  0  0  0  0
 11 10  1  0  0  0  0
 12  5  1  0  0  0  0
 13 20  1  6  0  0  0
 13 18  1  0  0  0  0
 14  7  1  0  0  0  0
 15 17  1  0  0  0  0
 16  1  1  0  0  0  0
 16 18  1  0  0  0  0
 18 23  1  6  0  0  0
 19 14  2  0  0  0  0
 19 21  1  0  0  0  0
 20  2  1  0  0  0  0
 23 22  1  0  0  0  0
 24 25  1  0  0  0  0
 24 23  2  0  0  0  0
 25 26  2  0  0  0  0
 26 22  1  0  0  0  0
 27 29  1  0  0  0  0
 28 26  1  6  0  0  0
 28 29  1  0  0  0  0
 30 28  1  0  0  0  0
 31 30  1  0  0  0  0
 31 27  1  0  0  0  0
 32 27  1  0  0  0  0
 32 34  1  0  0  0  0
 33 34  1  0  0  0  0
M  END
>  <MODEL>
1

>  <REMARK>
 VINA RESULT:      -7.9      0.000      0.000
  Name = 
  4 active torsions:
  status: ('A' for Active; 'I' for Inactive)
    1  A    between atoms: N_3  and  C_30
    2  A    between atoms: C_8  and  C_27
    3  A    between atoms: C_14  and  C_31
    4  A    between atoms: C_15  and  C_30
                            x       y       z     vdW  Elec       q    Type
                         _______ _______ _______ _____ _____    ______ ____

>  <TORSDO>
F 4

$$$$
=
 OpenBabel11042416063D

 34 39  0  0  1  0  0  0  0  0999 V2000
  191.0750  172.9350  141.8700 C   0  0  0  0  0  0  0  0  0  0  0  0
  189.3040  174.9410  146.5460 C   0  0  0  0  0  2  0  0  0  0  0  0
  192.6450  173.9230  143.6070 N   0  0  0  0  0  2  0  0  0  0  0  0
  192.2770  172.8520  142.7270 C   0  0  0  0  0  0  0  0  0  0  0  0
  192.7600  170.6130  141.7600 C   0  0  0  0  0  2  0  0  0  0  0  0
  190.6390  171.8570  141.2190 C   0  0  0  0  0  3  0  0  0  0  0  0
  192.2430  176.1630  146.4710 C   0  0  0  0  0  0  0  0  0  0  0  0
  192.3360  175.9040  145.0010 C   0  0  2  0  0  3  0  0  0  0  0  0
  191.7500  174.8190  144.2300 N   0  0  2  0  0  0  0  0  0  0  0  0
  189.7620  176.2820  146.9640 C   0  0  0  0  0  2  0  0  0  0  0  0
  191.1970  176.3170  147.2440 N   0  0  0  0  0  0  0  0  0  0  0  0
  193.0490  171.7620  142.6880 C   0  0  0  0  0  3  0  0  0  0  0  0
  190.3460  174.5170  144.2530 C   0  0  2  0  0  3  0  0  0  0  0  0
  193.4800  176.7120  146.8970 N   0  0  0  0  0  0  0  0  0  0  0  0
  191.3680  170.6270  141.3060 N   0  0  0  0  0  0  0  0  0  0  0  0
  190.3410  174.2220  141.7380 C   0  0  0  0  0  2  0  0  0  0  0  0
  190.8240  169.4410  140.6740 C   0  0  0  0  0  1  0  0  0  0  0  0
  189.5220  174.5180  142.9870 C   0  0  2  0  0  3  0  0  0  0  0  0
  194.2170  176.8580  145.8490 C   0  0  0  0  0  3  0  0  0  0  0  0
  189.7380  174.6210  145.3840 C   0  0  0  0  0  2  0  0  0  0  0  0
  193.5450  176.3470  144.6590 C   0  0  0  0  0  2  0  0  0  0  0  0
  187.1420  176.0060  142.9610 S   0  0  0  0  0  0  0  0  0  0  0  0
  188.8040  175.8170  142.8010 C   0  0  0  0  0  0  0  0  0  0  0  0
  189.4110  176.9730  142.4490 N   0  0  0  0  0  0  0  0  0  0  0  0
  188.5260  177.9980  142.3240 C   0  0  0  0  0  3  0  0  0  0  0  0
  187.2040  177.6400  142.5710 C   0  0  0  0  0  0  0  0  0  0  0  0
  184.3480  179.1850  144.3430 N   0  0  0  0  0  0  0  0  0  0  0  0
  186.0180  178.5460  142.5240 C   0  0  1  0  0  3  0  0  0  0  0  0
  184.5850  177.7670  143.3220 S   0  0  0  0  0  0  0  0  0  0  0  0
  186.3130  179.8120  143.1790 N   0  0  0  0  0  2  0  0  0  0  0  0
  185.6620  179.7830  144.4780 C   0  0  0  0  0  2  0  0  0  0  0  0
  183.9680  178.7070  145.6630 C   0  0  0  0  0  2  0  0  0  0  0  0
  185.4020  177.1990  146.9250 N   0  0  0  0  0  1  0  0  0  0  0  0
  185.1940  178.5860  146.5540 C   0  0  0  0  0  2  0  0  0  0  0  0
  1  4  1  0  0  0  0
  2 10  1  0  0  0  0
  4  3  1  0  0  0  0
  5 12  1  0  0  0  0
  6 15  1  0  0  0  0
  6  1  2  0  0  0  0
  7 14  1  0  0  0  0
  7 11  2  0  0  0  0
  8 21  1  1  0  0  0
  8  7  1  0  0  0  0
  9  3  1  1  0  0  0
  9 13  1  0  0  0  0
  9  8  1  0  0  0  0
 10 11  1  0  0  0  0
 12  4  2  0  0  0  0
 13 20  1  1  0  0  0
 15  5  1  0  0  0  0
 16  1  1  0  0  0  0
 16 18  1  0  0  0  0
 17 15  1  0  0  0  0
 18 23  1  6  0  0  0
 18 13  1  0  0  0  0
 19 14  2  0  0  0  0
 20  2  1  0  0  0  0
 21 19  1  0  0  0  0
 23 22  1  0  0  0  0
 24 23  2  0  0  0  0
 25 24  1  0  0  0  0
 25 26  2  0  0  0  0
 26 22  1  0  0  0  0
 27 31  1  0  0  0  0
 27 32  1  0  0  0  0
 28 26  1  1  0  0  0
 28 30  1  0  0  0  0
 28 29  1  0  0  0  0
 29 27  1  0  0  0  0
 30 31  1  0  0  0  0
 32 34  1  0  0  0  0
 34 33  1  0  0  0  0
M  END
>  <MODEL>
2

>  <REMARK>
 VINA RESULT:      -7.9      3.164      8.447
  Name = 
  4 active torsions:
  status: ('A' for Active; 'I' for Inactive)
    1  A    between atoms: N_3  and  C_30
    2  A    between atoms: C_8  and  C_27
    3  A    between atoms: C_14  and  C_31
    4  A    between atoms: C_15  and  C_30
                            x       y       z     vdW  Elec       q    Type
                         _______ _______ _______ _____ _____    ______ ____

>  <TORSDO>
F 4

$$$$
=
 OpenBabel11042416063D

 34 39  0  0  1  0  0  0  0  0999 V2000
  188.0030  177.2790  144.7970 C   0  0  0  0  0  0  0  0  0  0  0  0
  190.0710  172.3180  144.4400 C   0  0  0  0  0  2  0  0  0  0  0  0
  187.4880  175.7280  142.8510 N   0  0  0  0  0  2  0  0  0  0  0  0
  187.0440  176.5990  143.9000 C   0  0  0  0  0  0  0  0  0  0  0  0
  185.1830  177.7250  145.1050 C   0  0  0  0  0  2  0  0  0  0  0  0
  187.5690  177.9140  145.8850 C   0  0  0  0  0  3  0  0  0  0  0  0
  189.0580  172.7350  141.4520 C   0  0  0  0  0  0  0  0  0  0  0  0
  188.9880  174.2150  141.6590 C   0  0  2  0  0  3  0  0  0  0  0  0
  188.6630  174.9480  142.8720 N   0  0  2  0  0  0  0  0  0  0  0  0
  190.7150  171.9040  143.1770 C   0  0  0  0  0  2  0  0  0  0  0  0
  189.7630  171.8210  142.0690 N   0  0  0  0  0  0  0  0  0  0  0  0
  185.7310  176.7930  144.0580 C   0  0  0  0  0  3  0  0  0  0  0  0
  189.3590  174.7490  144.1130 C   0  0  2  0  0  3  0  0  0  0  0  0
  188.5990  172.4560  140.1380 N   0  0  0  0  0  0  0  0  0  0  0  0
  186.1650  177.9840  146.1590 N   0  0  0  0  0  0  0  0  0  0  0  0
  189.4580  177.2500  144.4910 C   0  0  0  0  0  2  0  0  0  0  0  0
  185.7200  178.5910  147.3990 C   0  0  0  0  0  1  0  0  0  0  0  0
  190.0590  175.8880  144.8130 C   0  0  2  0  0  3  0  0  0  0  0  0
  188.3560  173.5870  139.5680 C   0  0  0  0  0  3  0  0  0  0  0  0
  189.6940  173.5420  144.4150 C   0  0  0  0  0  2  0  0  0  0  0  0
  188.5660  174.6970  140.4920 C   0  0  0  0  0  2  0  0  0  0  0  0
  192.7400  175.8600  145.6460 S   0  0  0  0  0  0  0  0  0  0  0  0
  191.5200  175.9150  144.4910 C   0  0  0  0  0  0  0  0  0  0  0  0
  192.0180  176.0210  143.2380 N   0  0  0  0  0  0  0  0  0  0  0  0
  193.3770  176.0450  143.2270 C   0  0  0  0  0  3  0  0  0  0  0  0
  193.9560  175.9680  144.4910 C   0  0  0  0  0  0  0  0  0  0  0  0
  197.4220  175.4980  143.2880 N   0  0  0  0  0  0  0  0  0  0  0  0
  195.4180  175.9600  144.7950 C   0  0  1  0  0  3  0  0  0  0  0  0
  196.2130  174.4910  144.0840 S   0  0  0  0  0  0  0  0  0  0  0  0
  196.0570  177.1610  144.2760 N   0  0  0  0  0  2  0  0  0  0  0  0
  196.7730  176.7770  143.0710 C   0  0  0  0  0  2  0  0  0  0  0  0
  197.6620  174.9230  141.9730 C   0  0  0  0  0  2  0  0  0  0  0  0
  197.3790  175.6660  139.6730 N   0  0  0  0  0  1  0  0  0  0  0  0
  196.7090  175.5230  140.9520 C   0  0  0  0  0  2  0  0  0  0  0  0
  1  6  2  0  0  0  0
  3  4  1  0  0  0  0
  4 12  2  0  0  0  0
  4  1  1  0  0  0  0
  5 15  1  0  0  0  0
  6 15  1  0  0  0  0
  7  8  1  0  0  0  0
  7 11  2  0  0  0  0
  8 21  1  6  0  0  0
  8  9  1  0  0  0  0
  9  3  1  1  0  0  0
  9 13  1  0  0  0  0
 10  2  1  0  0  0  0
 11 10  1  0  0  0  0
 12  5  1  0  0  0  0
 13 20  1  6  0  0  0
 13 18  1  0  0  0  0
 14  7  1  0  0  0  0
 15 17  1  0  0  0  0
 16  1  1  0  0  0  0
 16 18  1  0  0  0  0
 18 23  1  6  0  0  0
 19 14  2  0  0  0  0
 19 21  1  0  0  0  0
 20  2  1  0  0  0  0
 23 22  1  0  0  0  0
 24 23  2  0  0  0  0
 25 24  1  0  0  0  0
 25 26  2  0  0  0  0
 26 22  1  0  0  0  0
 27 29  1  0  0  0  0
 28 26  1  6  0  0  0
 29 28  1  0  0  0  0
 30 28  1  0  0  0  0
 31 27  1  0  0  0  0
 31 30  1  0  0  0  0
 32 27  1  0  0  0  0
 33 34  1  0  0  0  0
 34 32  1  0  0  0  0
M  END
>  <MODEL>
3

>  <REMARK>
 VINA RESULT:      -7.7      1.436      1.891
  Name = 
  4 active torsions:
  status: ('A' for Active; 'I' for Inactive)
    1  A    between atoms: N_3  and  C_30
    2  A    between atoms: C_8  and  C_27
    3  A    between atoms: C_14  and  C_31
    4  A    between atoms: C_15  and  C_30
                            x       y       z     vdW  Elec       q    Type
                         _______ _______ _______ _____ _____    ______ ____

>  <TORSDO>
F 4

$$$$
=
 OpenBabel11042416063D

 34 39  0  0  1  0  0  0  0  0999 V2000
  185.8820  177.0240  144.1680 C   0  0  0  0  0  0  0  0  0  0  0  0
  191.0890  177.9480  143.1400 C   0  0  0  0  0  2  0  0  0  0  0  0
  187.6730  176.8560  145.9620 N   0  0  0  0  0  2  0  0  0  0  0  0
  186.4140  177.3660  145.5040 C   0  0  0  0  0  0  0  0  0  0  0  0
  184.3650  178.7090  145.9280 C   0  0  0  0  0  2  0  0  0  0  0  0
  184.8200  177.6670  143.6830 C   0  0  0  0  0  3  0  0  0  0  0  0
  191.3100  176.4690  145.9500 C   0  0  0  0  0  0  0  0  0  0  0  0
  189.9250  175.9260  145.7980 C   0  0  2  0  0  3  0  0  0  0  0  0
  188.7770  176.5350  145.1440 N   0  0  2  0  0  0  0  0  0  0  0  0
  192.0900  176.9600  143.5900 C   0  0  0  0  0  2  0  0  0  0  0  0
  192.1690  176.8750  145.0490 N   0  0  0  0  0  0  0  0  0  0  0  0
  185.7140  178.1670  146.3150 C   0  0  0  0  0  3  0  0  0  0  0  0
  188.8080  176.9950  143.7840 C   0  0  2  0  0  3  0  0  0  0  0  0
  191.8070  176.0510  147.2120 N   0  0  0  0  0  0  0  0  0  0  0  0
  184.1590  178.6560  144.4800 N   0  0  0  0  0  0  0  0  0  0  0  0
  186.5360  175.9640  143.3540 C   0  0  0  0  0  2  0  0  0  0  0  0
  183.0690  179.4160  143.8980 C   0  0  0  0  0  1  0  0  0  0  0  0
  187.8430  176.4630  142.7530 C   0  0  2  0  0  3  0  0  0  0  0  0
  190.9120  175.2910  147.7440 C   0  0  0  0  0  3  0  0  0  0  0  0
  189.8890  177.5670  143.3790 C   0  0  0  0  0  2  0  0  0  0  0  0
  189.7220  175.2100  146.9020 C   0  0  0  0  0  2  0  0  0  0  0  0
  189.5510  174.2430  142.5550 S   0  0  0  0  0  0  0  0  0  0  0  0
  188.4560  175.3630  141.9450 C   0  0  0  0  0  0  0  0  0  0  0  0
  188.2230  175.1710  140.6260 N   0  0  0  0  0  0  0  0  0  0  0  0
  188.9230  174.1160  140.1300 C   0  0  0  0  0  3  0  0  0  0  0  0
  189.7270  173.4770  141.0690 C   0  0  0  0  0  0  0  0  0  0  0  0
  192.4880  171.3060  142.2270 N   0  0  0  0  0  0  0  0  0  0  0  0
  190.5970  172.2880  140.8270 C   0  0  1  0  0  3  0  0  0  0  0  0
  192.3380  172.6920  141.1470 S   0  0  0  0  0  0  0  0  0  0  0  0
  190.1910  171.1730  141.6710 N   0  0  0  0  0  2  0  0  0  0  0  0
  191.1560  171.0840  142.7540 C   0  0  0  0  0  2  0  0  0  0  0  0
  193.3180  171.7210  143.3480 C   0  0  0  0  0  2  0  0  0  0  0  0
  192.8870  173.3650  145.0890 N   0  0  0  0  0  1  0  0  0  0  0  0
  193.0830  173.1890  143.6620 C   0  0  0  0  0  2  0  0  0  0  0  0
  1  4  1  0  0  0  0
  2 20  1  0  0  0  0
  2 10  1  0  0  0  0
  4  3  1  0  0  0  0
  4 12  2  0  0  0  0
  5 12  1  0  0  0  0
  6  1  2  0  0  0  0
  6 15  1  0  0  0  0
  7 14  1  0  0  0  0
  8  7  1  0  0  0  0
  8 21  1  1  0  0  0
  9  8  1  0  0  0  0
  9  3  1  1  0  0  0
 10 11  1  0  0  0  0
 11  7  2  0  0  0  0
 13 20  1  6  0  0  0
 13  9  1  0  0  0  0
 14 19  2  0  0  0  0
 15  5  1  0  0  0  0
 16  1  1  0  0  0  0
 17 15  1  0  0  0  0
 18 23  1  1  0  0  0
 18 16  1  0  0  0  0
 18 13  1  0  0  0  0
 21 19  1  0  0  0  0
 23 22  1  0  0  0  0
 24 23  2  0  0  0  0
 25 24  1  0  0  0  0
 25 26  2  0  0  0  0
 26 22  1  0  0  0  0
 27 31  1  0  0  0  0
 27 32  1  0  0  0  0
 28 26  1  1  0  0  0
 28 29  1  0  0  0  0
 28 30  1  0  0  0  0
 29 27  1  0  0  0  0
 30 31  1  0  0  0  0
 32 34  1  0  0  0  0
 34 33  1  0  0  0  0
M  END
>  <MODEL>
4

>  <REMARK>
 VINA RESULT:      -7.7      2.673      5.098
  Name = 
  4 active torsions:
  status: ('A' for Active; 'I' for Inactive)
    1  A    between atoms: N_3  and  C_30
    2  A    between atoms: C_8  and  C_27
    3  A    between atoms: C_14  and  C_31
    4  A    between atoms: C_15  and  C_30
                            x       y       z     vdW  Elec       q    Type
                         _______ _______ _______ _____ _____    ______ ____

>  <TORSDO>
F 4

$$$$
=
 OpenBabel11042416063D

 34 39  0  0  1  0  0  0  0  0999 V2000
  194.7260  170.9510  145.3030 C   0  0  0  0  0  0  0  0  0  0  0  0
  194.1960  176.1760  146.5050 C   0  0  0  0  0  2  0  0  0  0  0  0
  196.2640  172.7300  144.3410 N   0  0  0  0  0  2  0  0  0  0  0  0
  196.0770  171.4810  145.0190 C   0  0  0  0  0  0  0  0  0  0  0  0
  197.0490  169.4500  146.0710 C   0  0  0  0  0  2  0  0  0  0  0  0
  194.5730  169.9010  146.1090 C   0  0  0  0  0  3  0  0  0  0  0  0
  196.0770  176.3620  143.9440 C   0  0  0  0  0  0  0  0  0  0  0  0
  195.7060  174.9700  143.5430 C   0  0  2  0  0  3  0  0  0  0  0  0
  195.3860  173.8340  144.3930 N   0  0  2  0  0  0  0  0  0  0  0  0
  194.1680  177.1610  145.4040 C   0  0  0  0  0  2  0  0  0  0  0  0
  195.4430  177.2310  144.6900 N   0  0  0  0  0  0  0  0  0  0  0  0
  197.1570  170.7890  145.3950 C   0  0  0  0  0  3  0  0  0  0  0  0
  194.3640  173.8790  145.4010 C   0  0  2  0  0  3  0  0  0  0  0  0
  197.0280  176.8470  143.0090 N   0  0  0  0  0  0  0  0  0  0  0  0
  195.7240  169.2500  146.6600 N   0  0  0  0  0  0  0  0  0  0  0  0
  193.5310  171.5940  144.6960 C   0  0  0  0  0  2  0  0  0  0  0  0
  195.5340  168.1750  147.6140 C   0  0  0  0  0  1  0  0  0  0  0  0
  193.2050  172.9110  145.3880 C   0  0  2  0  0  3  0  0  0  0  0  0
  197.1760  175.9380  142.1060 C   0  0  0  0  0  3  0  0  0  0  0  0
  194.2470  174.9700  146.0760 C   0  0  0  0  0  2  0  0  0  0  0  0
  196.3860  174.7520  142.4200 C   0  0  0  0  0  2  0  0  0  0  0  0
  191.9830  174.1720  143.1970 S   0  0  0  0  0  0  0  0  0  0  0  0
  191.9960  173.5130  144.7420 C   0  0  0  0  0  0  0  0  0  0  0  0
  190.7910  173.6230  145.3470 N   0  0  0  0  0  0  0  0  0  0  0  0
  189.8720  174.2290  144.5490 C   0  0  0  0  0  3  0  0  0  0  0  0
  190.3640  174.6090  143.3030 C   0  0  0  0  0  0  0  0  0  0  0  0
  187.2960  176.3870  142.2510 N   0  0  0  0  0  0  0  0  0  0  0  0
  189.5930  175.2800  142.2150 C   0  0  1  0  0  3  0  0  0  0  0  0
  187.8670  174.7190  142.2120 S   0  0  0  0  0  0  0  0  0  0  0  0
  189.6360  176.7270  142.3720 N   0  0  0  0  0  2  0  0  0  0  0  0
  188.3490  177.1370  142.9080 C   0  0  0  0  0  2  0  0  0  0  0  0
  186.1410  176.4260  143.1340 C   0  0  0  0  0  2  0  0  0  0  0  0
  184.4110  178.1380  143.1040 N   0  0  0  0  0  1  0  0  0  0  0  0
  185.7870  177.8640  143.4760 C   0  0  0  0  0  2  0  0  0  0  0  0
  1  6  2  0  0  0  0
  3  4  1  0  0  0  0
  4  1  1  0  0  0  0
  4 12  2  0  0  0  0
  5 15  1  0  0  0  0
  6 15  1  0  0  0  0
  7 11  2  0  0  0  0
  8 21  1  1  0  0  0
  8  7  1  0  0  0  0
  8  9  1  0  0  0  0
  9  3  1  1  0  0  0
  9 13  1  0  0  0  0
 10  2  1  0  0  0  0
 11 10  1  0  0  0  0
 12  5  1  0  0  0  0
 13 20  1  6  0  0  0
 14  7  1  0  0  0  0
 15 17  1  0  0  0  0
 16  1  1  0  0  0  0
 16 18  1  0  0  0  0
 18 23  1  6  0  0  0
 18 13  1  0  0  0  0
 19 21  1  0  0  0  0
 19 14  2  0  0  0  0
 20  2  1  0  0  0  0
 22 26  1  0  0  0  0
 22 23  1  0  0  0  0
 23 24  2  0  0  0  0
 25 24  1  0  0  0  0
 26 25  2  0  0  0  0
 27 31  1  0  0  0  0
 27 32  1  0  0  0  0
 28 30  1  0  0  0  0
 28 26  1  1  0  0  0
 29 28  1  0  0  0  0
 29 27  1  0  0  0  0
 30 31  1  0  0  0  0
 32 34  1  0  0  0  0
 33 34  1  0  0  0  0
M  END
>  <MODEL>
5

>  <REMARK>
 VINA RESULT:      -7.5      2.399      9.102
  Name = 
  4 active torsions:
  status: ('A' for Active; 'I' for Inactive)
    1  A    between atoms: N_3  and  C_30
    2  A    between atoms: C_8  and  C_27
    3  A    between atoms: C_14  and  C_31
    4  A    between atoms: C_15  and  C_30
                            x       y       z     vdW  Elec       q    Type
                         _______ _______ _______ _____ _____    ______ ____

>  <TORSDO>
F 4

$$$$
=
 OpenBabel11042416063D

 34 39  0  0  1  0  0  0  0  0999 V2000
  193.2300  175.6170  143.7280 C   0  0  0  0  0  0  0  0  0  0  0  0
  188.7370  177.9310  141.8620 C   0  0  0  0  0  2  0  0  0  0  0  0
  191.8470  174.5910  141.8590 N   0  0  0  0  0  2  0  0  0  0  0  0
  193.1100  175.0320  142.3750 C   0  0  0  0  0  0  0  0  0  0  0  0
  195.5640  175.3020  142.0860 C   0  0  0  0  0  2  0  0  0  0  0  0
  194.3640  176.2060  144.1060 C   0  0  0  0  0  3  0  0  0  0  0  0
  188.4120  174.9980  140.6690 C   0  0  0  0  0  0  0  0  0  0  0  0
  189.4170  174.4680  141.6410 C   0  0  2  0  0  3  0  0  0  0  0  0
  190.5880  175.1340  142.1920 N   0  0  2  0  0  0  0  0  0  0  0  0
  187.5140  177.1130  141.7350 C   0  0  0  0  0  2  0  0  0  0  0  0
  187.6510  176.0620  140.7260 N   0  0  0  0  0  0  0  0  0  0  0  0
  194.1950  174.9050  141.6050 C   0  0  0  0  0  3  0  0  0  0  0  0
  190.5180  176.4000  142.8660 C   0  0  2  0  0  3  0  0  0  0  0  0
  188.0060  173.9260  139.8320 N   0  0  0  0  0  0  0  0  0  0  0  0
  195.4880  176.2260  143.2190 N   0  0  0  0  0  0  0  0  0  0  0  0
  192.0810  175.5570  144.6700 C   0  0  0  0  0  2  0  0  0  0  0  0
  196.6770  176.9590  143.6080 C   0  0  0  0  0  1  0  0  0  0  0  0
  191.0030  176.5610  144.2860 C   0  0  2  0  0  3  0  0  0  0  0  0
  188.5970  172.8620  140.2580 C   0  0  0  0  0  3  0  0  0  0  0  0
  189.7060  177.2790  142.3890 C   0  0  0  0  0  2  0  0  0  0  0  0
  189.4970  173.1680  141.3650 C   0  0  0  0  0  2  0  0  0  0  0  0
  188.8150  177.7180  145.6120 S   0  0  0  0  0  0  0  0  0  0  0  0
  189.8760  176.4610  145.2650 C   0  0  0  0  0  0  0  0  0  0  0  0
  189.6090  175.3600  146.0030 N   0  0  0  0  0  0  0  0  0  0  0  0
  188.5460  175.5430  146.8310 C   0  0  0  0  0  3  0  0  0  0  0  0
  187.9750  176.8100  146.7490 C   0  0  0  0  0  0  0  0  0  0  0  0
  184.6310  178.3900  146.7260 N   0  0  0  0  0  0  0  0  0  0  0  0
  186.7950  177.3000  147.5220 C   0  0  1  0  0  3  0  0  0  0  0  0
  186.2900  178.9460  146.9450 S   0  0  0  0  0  0  0  0  0  0  0  0
  185.6780  176.3740  147.3950 N   0  0  0  0  0  2  0  0  0  0  0  0
  184.7350  176.9680  146.4620 C   0  0  0  0  0  2  0  0  0  0  0  0
  184.1280  179.0060  145.5080 C   0  0  0  0  0  2  0  0  0  0  0  0
  185.4020  179.4230  143.4770 N   0  0  0  0  0  1  0  0  0  0  0  0
  184.7920  178.3860  144.2900 C   0  0  0  0  0  2  0  0  0  0  0  0
  1  6  2  0  0  0  0
  1 16  1  0  0  0  0
  2 20  1  0  0  0  0
  3  4  1  0  0  0  0
  4  1  1  0  0  0  0
  5 15  1  0  0  0  0
  7 11  2  0  0  0  0
  7  8  1  0  0  0  0
  8 21  1  6  0  0  0
  8  9  1  0  0  0  0
  9  3  1  6  0  0  0
  9 13  1  0  0  0  0
 10  2  1  0  0  0  0
 11 10  1  0  0  0  0
 12  5  1  0  0  0  0
 12  4  2  0  0  0  0
 13 20  1  1  0  0  0
 13 18  1  0  0  0  0
 14 19  2  0  0  0  0
 14  7  1  0  0  0  0
 15 17  1  0  0  0  0
 15  6  1  0  0  0  0
 18 16  1  0  0  0  0
 18 23  1  1  0  0  0
 19 21  1  0  0  0  0
 22 26  1  0  0  0  0
 23 22  1  0  0  0  0
 23 24  2  0  0  0  0
 24 25  1  0  0  0  0
 26 25  2  0  0  0  0
 27 29  1  0  0  0  0
 28 26  1  6  0  0  0
 29 28  1  0  0  0  0
 30 28  1  0  0  0  0
 31 27  1  0  0  0  0
 31 30  1  0  0  0  0
 32 27  1  0  0  0  0
 33 34  1  0  0  0  0
 34 32  1  0  0  0  0
M  END
>  <MODEL>
6

>  <REMARK>
 VINA RESULT:      -7.4      2.671      7.863
  Name = 
  4 active torsions:
  status: ('A' for Active; 'I' for Inactive)
    1  A    between atoms: N_3  and  C_30
    2  A    between atoms: C_8  and  C_27
    3  A    between atoms: C_14  and  C_31
    4  A    between atoms: C_15  and  C_30
                            x       y       z     vdW  Elec       q    Type
                         _______ _______ _______ _____ _____    ______ ____

>  <TORSDO>
F 4

$$$$
=
 OpenBabel11042416063D

 34 39  0  0  1  0  0  0  0  0999 V2000
  185.8860  177.0160  144.2800 C   0  0  0  0  0  0  0  0  0  0  0  0
  191.0730  177.9150  143.1380 C   0  0  0  0  0  2  0  0  0  0  0  0
  187.7130  176.8550  146.0380 N   0  0  0  0  0  2  0  0  0  0  0  0
  186.4460  177.3660  145.6030 C   0  0  0  0  0  0  0  0  0  0  0  0
  184.4110  178.7180  146.0600 C   0  0  0  0  0  2  0  0  0  0  0  0
  184.8160  177.6600  143.8130 C   0  0  0  0  0  3  0  0  0  0  0  0
  191.3480  176.4550  145.9530 C   0  0  0  0  0  0  0  0  0  0  0  0
  189.9580  175.9160  145.8340 C   0  0  2  0  0  3  0  0  0  0  0  0
  188.7990  176.5250  145.2000 N   0  0  2  0  0  0  0  0  0  0  0  0
  192.0810  176.9270  143.5750 C   0  0  0  0  0  2  0  0  0  0  0  0
  192.1900  176.8530  145.0320 N   0  0  0  0  0  0  0  0  0  0  0  0
  185.7660  178.1750  146.4220 C   0  0  0  0  0  3  0  0  0  0  0  0
  188.8030  176.9750  143.8360 C   0  0  2  0  0  3  0  0  0  0  0  0
  191.8700  176.0440  147.2070 N   0  0  0  0  0  0  0  0  0  0  0  0
  184.1750  178.6560  144.6170 N   0  0  0  0  0  0  0  0  0  0  0  0
  186.5200  175.9490  143.4610 C   0  0  0  0  0  2  0  0  0  0  0  0
  183.0760  179.4160  144.0520 C   0  0  0  0  0  1  0  0  0  0  0  0
  187.8150  176.4390  142.8290 C   0  0  2  0  0  3  0  0  0  0  0  0
  190.9830  175.2910  147.7630 C   0  0  0  0  0  3  0  0  0  0  0  0
  189.8780  177.5410  143.4050 C   0  0  0  0  0  2  0  0  0  0  0  0
  189.7760  175.2090  146.9470 C   0  0  0  0  0  2  0  0  0  0  0  0
  189.3320  174.0820  142.6570 S   0  0  0  0  0  0  0  0  0  0  0  0
  188.4080  175.3310  142.0160 C   0  0  0  0  0  0  0  0  0  0  0  0
  188.2950  175.2340  140.6710 N   0  0  0  0  0  0  0  0  0  0  0  0
  188.9460  174.1460  140.1800 C   0  0  0  0  0  3  0  0  0  0  0  0
  189.5900  173.3840  141.1500 C   0  0  0  0  0  0  0  0  0  0  0  0
  191.7970  171.4160  138.9290 N   0  0  0  0  0  0  0  0  0  0  0  0
  190.3710  172.1330  140.9180 C   0  0  1  0  0  3  0  0  0  0  0  0
  190.0640  171.4860  139.2500 S   0  0  0  0  0  0  0  0  0  0  0  0
  191.7960  172.3780  141.0920 N   0  0  0  0  0  2  0  0  0  0  0  0
  192.3830  172.4450  139.7650 C   0  0  0  0  0  2  0  0  0  0  0  0
  191.9970  171.8330  137.5500 C   0  0  0  0  0  2  0  0  0  0  0  0
  191.3830  174.0010  136.6300 N   0  0  0  0  0  1  0  0  0  0  0  0
  190.8570  172.7320  137.0990 C   0  0  0  0  0  2  0  0  0  0  0  0
  1  4  1  0  0  0  0
  2 20  1  0  0  0  0
  2 10  1  0  0  0  0
  4  3  1  0  0  0  0
  4 12  2  0  0  0  0
  5 12  1  0  0  0  0
  6  1  2  0  0  0  0
  6 15  1  0  0  0  0
  7 14  1  0  0  0  0
  8  7  1  0  0  0  0
  8 21  1  1  0  0  0
  9  8  1  0  0  0  0
  9  3  1  1  0  0  0
 10 11  1  0  0  0  0
 11  7  2  0  0  0  0
 13 20  1  6  0  0  0
 13  9  1  0  0  0  0
 14 19  2  0  0  0  0
 15  5  1  0  0  0  0
 16  1  1  0  0  0  0
 17 15  1  0  0  0  0
 18 23  1  1  0  0  0
 18 16  1  0  0  0  0
 18 13  1  0  0  0  0
 21 19  1  0  0  0  0
 23 22  1  0  0  0  0
 24 23  2  0  0  0  0
 25 24  1  0  0  0  0
 25 26  2  0  0  0  0
 26 22  1  0  0  0  0
 27 29  1  0  0  0  0
 27 31  1  0  0  0  0
 28 30  1  0  0  0  0
 28 26  1  6  0  0  0
 29 28  1  0  0  0  0
 31 30  1  0  0  0  0
 32 27  1  0  0  0  0
 33 34  1  0  0  0  0
 34 32  1  0  0  0  0
M  END
>  <MODEL>
7

>  <REMARK>
 VINA RESULT:      -7.3      3.309      5.916
  Name = 
  4 active torsions:
  status: ('A' for Active; 'I' for Inactive)
    1  A    between atoms: N_3  and  C_30
    2  A    between atoms: C_8  and  C_27
    3  A    between atoms: C_14  and  C_31
    4  A    between atoms: C_15  and  C_30
                            x       y       z     vdW  Elec       q    Type
                         _______ _______ _______ _____ _____    ______ ____

>  <TORSDO>
F 4

$$$$
=
 OpenBabel11042416063D

 34 39  0  0  1  0  0  0  0  0999 V2000
  187.0240  176.1990  143.1970 C   0  0  0  0  0  0  0  0  0  0  0  0
  192.3230  177.1610  143.0530 C   0  0  0  0  0  2  0  0  0  0  0  0
  188.3980  176.5640  145.3030 N   0  0  0  0  0  2  0  0  0  0  0  0
  187.2590  176.8770  144.4900 C   0  0  0  0  0  0  0  0  0  0  0  0
  185.1560  178.1590  144.1520 C   0  0  0  0  0  2  0  0  0  0  0  0
  186.0830  176.6460  142.3660 C   0  0  0  0  0  3  0  0  0  0  0  0
  191.9590  176.4010  146.1220 C   0  0  0  0  0  0  0  0  0  0  0  0
  190.6420  175.7560  145.8290 C   0  0  2  0  0  3  0  0  0  0  0  0
  189.6520  176.1260  144.8290 N   0  0  2  0  0  0  0  0  0  0  0  0
  193.2150  176.3670  143.9230 C   0  0  0  0  0  2  0  0  0  0  0  0
  192.9850  176.6340  145.3430 N   0  0  0  0  0  0  0  0  0  0  0  0
  186.3980  177.8040  144.9230 C   0  0  0  0  0  3  0  0  0  0  0  0
  189.9660  176.2540  143.4330 C   0  0  2  0  0  3  0  0  0  0  0  0
  192.1820  176.3210  147.5220 N   0  0  0  0  0  0  0  0  0  0  0  0
  185.2610  177.7550  142.7490 N   0  0  0  0  0  0  0  0  0  0  0  0
  187.8440  175.0190  142.8150 C   0  0  0  0  0  2  0  0  0  0  0  0
  184.3120  178.2900  141.7910 C   0  0  0  0  0  1  0  0  0  0  0  0
  189.2440  175.4380  142.3880 C   0  0  2  0  0  3  0  0  0  0  0  0
  191.2010  175.6560  148.0300 C   0  0  0  0  0  3  0  0  0  0  0  0
  191.1030  176.7770  143.1290 C   0  0  0  0  0  2  0  0  0  0  0  0
  190.2170  175.3100  147.0090 C   0  0  0  0  0  2  0  0  0  0  0  0
  190.4640  173.0100  143.0960 S   0  0  0  0  0  0  0  0  0  0  0  0
  190.0230  174.2170  142.0120 C   0  0  0  0  0  0  0  0  0  0  0  0
  190.4870  173.9680  140.7670 N   0  0  0  0  0  0  0  0  0  0  0  0
  191.1830  172.8010  140.7030 C   0  0  0  0  0  3  0  0  0  0  0  0
  191.2760  172.1290  141.9180 C   0  0  0  0  0  0  0  0  0  0  0  0
  194.3150  170.3230  143.0050 N   0  0  0  0  0  0  0  0  0  0  0  0
  191.9630  170.8250  142.1570 C   0  0  1  0  0  3  0  0  0  0  0  0
  193.6410  170.8470  141.4620 S   0  0  0  0  0  0  0  0  0  0  0  0
  192.0290  170.5330  143.5820 N   0  0  0  0  0  2  0  0  0  0  0  0
  193.3900  170.8050  144.0120 C   0  0  0  0  0  2  0  0  0  0  0  0
  195.5610  171.0490  143.1990 C   0  0  0  0  0  2  0  0  0  0  0  0
  195.9470  173.3910  143.7360 N   0  0  0  0  0  1  0  0  0  0  0  0
  195.4110  172.4880  142.7340 C   0  0  0  0  0  2  0  0  0  0  0  0
  1  4  1  0  0  0  0
  2 20  1  0  0  0  0
  2 10  1  0  0  0  0
  4 12  2  0  0  0  0
  4  3  1  0  0  0  0
  5 12  1  0  0  0  0
  6 15  1  0  0  0  0
  6  1  2  0  0  0  0
  7 14  1  0  0  0  0
  8  7  1  0  0  0  0
  8 21  1  1  0  0  0
  9  3  1  1  0  0  0
  9  8  1  0  0  0  0
 10 11  1  0  0  0  0
 11  7  2  0  0  0  0
 13 20  1  1  0  0  0
 13  9  1  0  0  0  0
 14 19  2  0  0  0  0
 15  5  1  0  0  0  0
 16  1  1  0  0  0  0
 17 15  1  0  0  0  0
 18 23  1  1  0  0  0
 18 16  1  0  0  0  0
 18 13  1  0  0  0  0
 21 19  1  0  0  0  0
 23 22  1  0  0  0  0
 24 23  2  0  0  0  0
 25 24  1  0  0  0  0
 25 26  2  0  0  0  0
 26 22  1  0  0  0  0
 27 32  1  0  0  0  0
 27 31  1  0  0  0  0
 28 26  1  1  0  0  0
 28 30  1  0  0  0  0
 29 28  1  0  0  0  0
 29 27  1  0  0  0  0
 30 31  1  0  0  0  0
 34 32  1  0  0  0  0
 34 33  1  0  0  0  0
M  END
>  <MODEL>
8

>  <REMARK>
 VINA RESULT:      -6.9      2.587      4.861
  Name = 
  4 active torsions:
  status: ('A' for Active; 'I' for Inactive)
    1  A    between atoms: N_3  and  C_30
    2  A    between atoms: C_8  and  C_27
    3  A    between atoms: C_14  and  C_31
    4  A    between atoms: C_15  and  C_30
                            x       y       z     vdW  Elec       q    Type
                         _______ _______ _______ _____ _____    ______ ____

>  <TORSDO>
F 4

$$$$
=
 OpenBabel11042416063D

 34 39  0  0  1  0  0  0  0  0999 V2000
  192.5040  172.0430  142.1390 C   0  0  0  0  0  0  0  0  0  0  0  0
  189.6790  173.9190  146.3250 C   0  0  0  0  0  2  0  0  0  0  0  0
  193.5240  173.5760  143.8900 N   0  0  0  0  0  2  0  0  0  0  0  0
  193.5640  172.3690  143.1170 C   0  0  0  0  0  0  0  0  0  0  0  0
  194.7300  170.2650  142.4900 C   0  0  0  0  0  2  0  0  0  0  0  0
  192.4500  170.8320  141.5860 C   0  0  0  0  0  3  0  0  0  0  0  0
  192.1860  175.8790  146.3980 C   0  0  0  0  0  0  0  0  0  0  0  0
  192.5350  175.5200  144.9890 C   0  0  2  0  0  3  0  0  0  0  0  0
  192.3550  174.2500  144.3030 N   0  0  2  0  0  0  0  0  0  0  0  0
  189.7160  175.3670  146.6180 C   0  0  0  0  0  2  0  0  0  0  0  0
  191.0440  175.8150  147.0350 N   0  0  0  0  0  0  0  0  0  0  0  0
  194.5900  171.5300  143.2930 C   0  0  0  0  0  3  0  0  0  0  0  0
  191.0860  173.5830  144.2200 C   0  0  2  0  0  3  0  0  0  0  0  0
  193.1730  176.7800  146.8760 N   0  0  0  0  0  0  0  0  0  0  0  0
  193.4540  169.8600  141.8990 N   0  0  0  0  0  0  0  0  0  0  0  0
  191.4870  173.0650  141.7740 C   0  0  0  0  0  2  0  0  0  0  0  0
  193.3220  168.5170  141.3670 C   0  0  0  0  0  1  0  0  0  0  0  0
  190.4630  173.2420  142.8880 C   0  0  2  0  0  3  0  0  0  0  0  0
  193.9770  177.0230  145.8980 C   0  0  0  0  0  3  0  0  0  0  0  0
  190.3290  173.6220  145.2620 C   0  0  0  0  0  2  0  0  0  0  0  0
  193.6220  176.2400  144.7190 C   0  0  0  0  0  2  0  0  0  0  0  0
  189.7830  175.9240  142.4120 S   0  0  0  0  0  0  0  0  0  0  0  0
  189.4650  174.2750  142.4700 C   0  0  0  0  0  0  0  0  0  0  0  0
  188.1860  173.9980  142.1260 N   0  0  0  0  0  0  0  0  0  0  0  0
  187.4850  175.1190  141.8110 C   0  0  0  0  0  3  0  0  0  0  0  0
  188.2200  176.2970  141.9180 C   0  0  0  0  0  0  0  0  0  0  0  0
  185.3790  178.6580  141.7540 N   0  0  0  0  0  0  0  0  0  0  0  0
  187.7290  177.6760  141.6280 C   0  0  1  0  0  3  0  0  0  0  0  0
  186.2280  177.6200  140.6080 S   0  0  0  0  0  0  0  0  0  0  0  0
  187.4530  178.3940  142.8650 N   0  0  0  0  0  2  0  0  0  0  0  0
  186.0100  178.4110  143.0360 C   0  0  0  0  0  2  0  0  0  0  0  0
  184.0150  178.1610  141.8560 C   0  0  0  0  0  2  0  0  0  0  0  0
  181.8760  178.1540  140.6950 N   0  0  0  0  0  1  0  0  0  0  0  0
  183.3120  178.2690  140.5140 C   0  0  0  0  0  2  0  0  0  0  0  0
  1  4  1  0  0  0  0
  2 10  1  0  0  0  0
  4 12  2  0  0  0  0
  4  3  1  0  0  0  0
  5 12  1  0  0  0  0
  6 15  1  0  0  0  0
  6  1  2  0  0  0  0
  7 14  1  0  0  0  0
  7 11  2  0  0  0  0
  8 21  1  1  0  0  0
  8  7  1  0  0  0  0
  9  3  1  1  0  0  0
  9  8  1  0  0  0  0
 10 11  1  0  0  0  0
 13  9  1  0  0  0  0
 13 20  1  6  0  0  0
 15  5  1  0  0  0  0
 16  1  1  0  0  0  0
 16 18  1  0  0  0  0
 17 15  1  0  0  0  0
 18 23  1  6  0  0  0
 18 13  1  0  0  0  0
 19 14  2  0  0  0  0
 20  2  1  0  0  0  0
 21 19  1  0  0  0  0
 22 23  1  0  0  0  0
 24 23  2  0  0  0  0
 25 26  2  0  0  0  0
 25 24  1  0  0  0  0
 26 22  1  0  0  0  0
 27 32  1  0  0  0  0
 27 31  1  0  0  0  0
 28 26  1  1  0  0  0
 28 30  1  0  0  0  0
 29 28  1  0  0  0  0
 29 27  1  0  0  0  0
 30 31  1  0  0  0  0
 34 33  1  0  0  0  0
 34 32  1  0  0  0  0
M  END
>  <MODEL>
9

>  <REMARK>
 VINA RESULT:      -6.7      3.199      8.963
  Name = 
  4 active torsions:
  status: ('A' for Active; 'I' for Inactive)
    1  A    between atoms: N_3  and  C_30
    2  A    between atoms: C_8  and  C_27
    3  A    between atoms: C_14  and  C_31
    4  A    between atoms: C_15  and  C_30
                            x       y       z     vdW  Elec       q    Type
                         _______ _______ _______ _____ _____    ______ ____

>  <TORSDO>
F 4

$$$$
