=
 OpenBabel11042416553D

 35 39  0  0  1  0  0  0  0  0999 V2000
  189.8220  175.3220  145.1520 C   0  0  2  0  0  0  0  0  0  0  0  0
  196.8090  174.4010  141.5260 C   0  0  0  0  0  3  0  0  0  0  0  0
  196.8630  176.3450  142.8020 C   0  0  0  0  0  0  0  0  0  0  0  0
  194.6730  175.0860  146.3110 N   0  0  0  0  0  0  0  0  0  0  0  0
  192.8940  176.6850  147.0260 C   0  0  0  0  0  2  0  0  0  0  0  0
  189.8220  175.0570  142.6020 C   0  0  0  0  0  2  0  0  0  0  0  0
  191.5010  176.7650  146.4190 C   0  0  0  0  0  2  0  0  0  0  0  0
  194.0090  176.6180  144.7900 N   0  0  0  0  0  0  0  0  0  0  0  0
  193.8670  176.1310  146.0380 C   0  0  0  0  0  0  0  0  0  0  0  0
  194.3740  174.6290  141.0050 C   0  0  0  0  0  2  0  0  0  0  0  0
  194.9500  175.8230  144.2550 C   0  0  0  0  0  0  0  0  0  0  0  0
  192.2630  175.2010  142.2050 C   0  0  0  0  0  2  0  0  0  0  0  0
  190.4480  175.7550  143.7960 C   0  0  2  0  0  3  0  0  0  0  0  0
  195.4100  174.6210  142.1170 C   0  0  2  0  0  3  0  0  0  0  0  0
  191.1870  174.6190  143.1050 C   0  0  1  0  0  3  0  0  0  0  0  0
  190.9240  175.3660  146.2200 C   0  0  0  0  0  2  0  0  0  0  0  0
  197.6600  175.4460  142.0640 N   0  0  0  0  0  0  0  0  0  0  0  0
  195.3680  174.8830  145.1770 C   0  0  0  0  0  2  0  0  0  0  0  0
  195.4340  175.9690  142.8460 C   0  0  2  0  0  3  0  0  0  0  0  0
  189.3440  174.0060  145.0940 O   0  0  0  0  0  1  0  0  0  0  0  0
  197.3350  177.3790  143.3420 O   0  0  0  0  0  0  0  0  0  0  0  0
  193.0380  174.0950  141.4990 C   0  0  1  0  0  3  0  0  0  0  0  0
  188.6610  176.2210  145.5480 C   0  0  0  0  0  0  0  0  0  0  0  0
  187.1420  178.0690  145.0870 C   0  0  0  0  0  3  0  0  0  0  0  0
  186.8380  176.7370  147.0820 C   0  0  0  0  0  3  0  0  0  0  0  0
  186.4390  177.8030  146.2720 C   0  0  0  0  0  0  0  0  0  0  0  0
  188.2380  177.2810  144.7270 C   0  0  0  0  0  3  0  0  0  0  0  0
  187.9340  175.9480  146.7200 C   0  0  0  0  0  3  0  0  0  0  0  0
  185.3420  178.5750  146.6640 O   0  0  0  0  0  0  0  0  0  0  0  0
  184.1490  178.6590  145.8960 C   0  0  0  0  0  1  0  0  0  0  0  0
  192.2530  173.5800  140.3030 C   0  0  0  0  0  2  0  0  0  0  0  0
  192.2970  172.1270  140.2650 N   0  0  0  0  0  2  0  0  0  0  0  0
  190.9270  171.6680  140.1260 C   0  0  0  0  0  2  0  0  0  0  0  0
  190.3420  171.4570  141.4520 C   0  0  0  0  0  0  0  0  0  0  0  0
  189.8770  171.2920  142.4980 N   0  0  0  0  0  0  0  0  0  0  0  0
  1 20  1  6  0  0  0
  1 23  1  0  0  0  0
  1 16  1  0  0  0  0
  2 17  2  0  0  0  0
  2 14  1  0  0  0  0
  3 21  2  0  0  0  0
  6 15  1  0  0  0  0
  7  5  1  0  0  0  0
  8  9  1  0  0  0  0
  9  4  2  0  0  0  0
  9  5  1  0  0  0  0
 10 22  1  0  0  0  0
 11  8  2  0  0  0  0
 11 18  1  0  0  0  0
 13  6  1  6  0  0  0
 13  1  1  0  0  0  0
 14 10  1  6  0  0  0
 14 19  1  0  0  0  0
 15 12  1  6  0  0  0
 15 13  1  0  0  0  0
 16  7  1  0  0  0  0
 17  3  1  0  0  0  0
 18  4  1  0  0  0  0
 19  3  1  1  0  0  0
 19 11  1  0  0  0  0
 22 31  1  6  0  0  0
 22 12  1  0  0  0  0
 23 28  1  0  0  0  0
 24 26  2  0  0  0  0
 26 29  1  0  0  0  0
 26 25  1  0  0  0  0
 27 24  1  0  0  0  0
 27 23  2  0  0  0  0
 28 25  2  0  0  0  0
 30 29  1  0  0  0  0
 32 31  1  0  0  0  0
 33 32  1  0  0  0  0
 33 34  1  0  0  0  0
 34 35  3  0  0  0  0
M  END
>  <MODEL>
1

>  <REMARK>
 VINA RESULT:      -7.3      0.000      0.000
  Name = 
  6 active torsions:
  status: ('A' for Active; 'I' for Inactive)
    1  A    between atoms: C_1  and  C_10
    2  A    between atoms: O_9  and  C_21
    3  A    between atoms: C_22  and  N_25
    4  A    between atoms: C_22  and  C_34
    5  A    between atoms: N_25  and  C_26
    6  A    between atoms: C_26  and  C_27
                            x       y       z     vdW  Elec       q    Type
                         _______ _______ _______ _____ _____    ______ ____

>  <TORSDO>
F 6

$$$$
=
 OpenBabel11042416553D

 35 39  0  0  1  0  0  0  0  0999 V2000
  192.6260  175.0710  144.3760 C   0  0  2  0  0  0  0  0  0  0  0  0
  185.4040  178.2400  145.1650 C   0  0  0  0  0  3  0  0  0  0  0  0
  185.8980  176.9890  147.0620 C   0  0  0  0  0  0  0  0  0  0  0  0
  190.0870  177.9230  147.5940 N   0  0  0  0  0  0  0  0  0  0  0  0
  191.5340  175.9220  147.9660 C   0  0  0  0  0  2  0  0  0  0  0  0
  190.9060  174.6070  142.5320 C   0  0  0  0  0  2  0  0  0  0  0  0
  192.0710  175.0200  146.8650 C   0  0  0  0  0  2  0  0  0  0  0  0
  189.2190  175.9170  147.0260 N   0  0  0  0  0  0  0  0  0  0  0  0
  190.2710  176.5890  147.5310 C   0  0  0  0  0  0  0  0  0  0  0  0
  186.7010  176.7340  143.6470 C   0  0  0  0  0  2  0  0  0  0  0  0
  188.3350  176.8900  146.7500 C   0  0  0  0  0  0  0  0  0  0  0  0
  188.9020  175.5590  143.6330 C   0  0  0  0  0  2  0  0  0  0  0  0
  191.1700  174.6490  144.0260 C   0  0  2  0  0  3  0  0  0  0  0  0
  186.7500  177.5400  144.9360 C   0  0  2  0  0  3  0  0  0  0  0  0
  190.3810  175.7670  143.3610 C   0  0  1  0  0  3  0  0  0  0  0  0
  192.5890  175.8540  145.6960 C   0  0  0  0  0  2  0  0  0  0  0  0
  184.9950  177.9250  146.5210 N   0  0  0  0  0  0  0  0  0  0  0  0
  188.8530  178.1230  147.0970 C   0  0  0  0  0  2  0  0  0  0  0  0
  186.9940  176.6240  146.1390 C   0  0  2  0  0  3  0  0  0  0  0  0
  193.1570  175.9210  143.3970 O   0  0  0  0  0  1  0  0  0  0  0  0
  185.7560  176.5000  148.2130 O   0  0  0  0  0  0  0  0  0  0  0  0
  188.0720  176.6660  142.9920 C   0  0  1  0  0  3  0  0  0  0  0  0
  193.5470  173.8670  144.4960 C   0  0  0  0  0  0  0  0  0  0  0  0
  195.7630  172.8990  144.7980 C   0  0  0  0  0  3  0  0  0  0  0  0
  193.8270  171.4530  144.6920 C   0  0  0  0  0  3  0  0  0  0  0  0
  195.2100  171.6090  144.8160 C   0  0  0  0  0  0  0  0  0  0  0  0
  194.9370  174.0160  144.6450 C   0  0  0  0  0  3  0  0  0  0  0  0
  193.0020  172.5720  144.5410 C   0  0  0  0  0  3  0  0  0  0  0  0
  196.0080  170.4710  144.9610 O   0  0  0  0  0  0  0  0  0  0  0  0
  196.8420  170.2570  146.0910 C   0  0  0  0  0  1  0  0  0  0  0  0
  187.8840  176.3950  141.5080 C   0  0  0  0  0  2  0  0  0  0  0  0
  187.6390  177.6400  140.7990 N   0  0  0  0  0  2  0  0  0  0  0  0
  186.5570  177.3880  139.8650 C   0  0  0  0  0  2  0  0  0  0  0  0
  185.3170  177.9740  140.3780 C   0  0  0  0  0  0  0  0  0  0  0  0
  184.3370  178.4380  140.7800 N   0  0  0  0  0  0  0  0  0  0  0  0
  1 20  1  6  0  0  0
  1 23  1  0  0  0  0
  1 16  1  0  0  0  0
  2 17  2  0  0  0  0
  3 21  2  0  0  0  0
  7  5  1  0  0  0  0
  8  9  1  0  0  0  0
  9  4  2  0  0  0  0
  9  5  1  0  0  0  0
 11  8  2  0  0  0  0
 11 18  1  0  0  0  0
 13  6  1  6  0  0  0
 13  1  1  0  0  0  0
 14 10  1  6  0  0  0
 14  2  1  0  0  0  0
 14 19  1  0  0  0  0
 15  6  1  6  0  0  0
 15 12  1  0  0  0  0
 15 13  1  0  0  0  0
 16  7  1  0  0  0  0
 17  3  1  0  0  0  0
 18  4  1  0  0  0  0
 19 11  1  1  0  0  0
 19  3  1  0  0  0  0
 22 31  1  6  0  0  0
 22 12  1  0  0  0  0
 22 10  1  0  0  0  0
 23 28  2  0  0  0  0
 23 27  1  0  0  0  0
 24 26  1  0  0  0  0
 25 26  2  0  0  0  0
 26 29  1  0  0  0  0
 27 24  2  0  0  0  0
 28 25  1  0  0  0  0
 29 30  1  0  0  0  0
 32 31  1  0  0  0  0
 33 34  1  0  0  0  0
 33 32  1  0  0  0  0
 34 35  3  0  0  0  0
M  END
>  <MODEL>
2

>  <REMARK>
 VINA RESULT:      -7.2      3.817      8.088
  Name = 
  6 active torsions:
  status: ('A' for Active; 'I' for Inactive)
    1  A    between atoms: C_1  and  C_10
    2  A    between atoms: O_9  and  C_21
    3  A    between atoms: C_22  and  N_25
    4  A    between atoms: C_22  and  C_34
    5  A    between atoms: N_25  and  C_26
    6  A    between atoms: C_26  and  C_27
                            x       y       z     vdW  Elec       q    Type
                         _______ _______ _______ _____ _____    ______ ____

>  <TORSDO>
F 6

$$$$
=
 OpenBabel11042416553D

 35 39  0  0  1  0  0  0  0  0999 V2000
  190.0910  175.0330  145.1690 C   0  0  2  0  0  0  0  0  0  0  0  0
  197.1220  173.9490  141.6760 C   0  0  0  0  0  3  0  0  0  0  0  0
  197.1090  176.0180  142.7360 C   0  0  0  0  0  0  0  0  0  0  0  0
  194.9410  175.0740  146.3560 N   0  0  0  0  0  0  0  0  0  0  0  0
  193.1090  176.6840  146.8920 C   0  0  0  0  0  2  0  0  0  0  0  0
  190.1130  174.4970  142.6610 C   0  0  0  0  0  2  0  0  0  0  0  0
  191.7180  176.6540  146.2770 C   0  0  0  0  0  2  0  0  0  0  0  0
  194.2380  176.4130  144.6780 N   0  0  0  0  0  0  0  0  0  0  0  0
  194.1040  176.0580  145.9710 C   0  0  0  0  0  0  0  0  0  0  0  0
  194.6830  174.0420  141.1280 C   0  0  0  0  0  2  0  0  0  0  0  0
  195.2050  175.5950  144.2330 C   0  0  0  0  0  0  0  0  0  0  0  0
  192.5490  174.6740  142.2570 C   0  0  0  0  0  2  0  0  0  0  0  0
  190.7100  175.3370  143.7750 C   0  0  2  0  0  3  0  0  0  0  0  0
  195.7140  174.1860  142.2370 C   0  0  2  0  0  3  0  0  0  0  0  0
  191.4880  174.1570  143.2110 C   0  0  1  0  0  3  0  0  0  0  0  0
  191.1860  175.2250  146.2280 C   0  0  0  0  0  2  0  0  0  0  0  0
  197.9370  175.0710  142.1010 N   0  0  0  0  0  0  0  0  0  0  0  0
  195.6480  174.7730  145.2510 C   0  0  0  0  0  2  0  0  0  0  0  0
  195.6930  175.6040  142.8170 C   0  0  2  0  0  3  0  0  0  0  0  0
  189.6540  173.7030  145.2510 O   0  0  0  0  0  1  0  0  0  0  0  0
  197.5460  177.1180  143.1630 O   0  0  0  0  0  0  0  0  0  0  0  0
  193.3630  173.5230  141.6740 C   0  0  1  0  0  3  0  0  0  0  0  0
  188.9010  175.9320  145.4640 C   0  0  0  0  0  0  0  0  0  0  0  0
  187.0950  176.6700  146.9240 C   0  0  0  0  0  3  0  0  0  0  0  0
  187.5080  177.8350  144.8460 C   0  0  0  0  0  3  0  0  0  0  0  0
  186.7610  177.6870  146.0170 C   0  0  0  0  0  0  0  0  0  0  0  0
  188.1590  175.8060  146.6520 C   0  0  0  0  0  3  0  0  0  0  0  0
  188.5720  176.9710  144.5740 C   0  0  0  0  0  3  0  0  0  0  0  0
  185.6990  178.5650  146.2570 O   0  0  0  0  0  0  0  0  0  0  0  0
  184.4360  178.1270  146.7390 C   0  0  0  0  0  1  0  0  0  0  0  0
  192.6000  172.8590  140.5390 C   0  0  0  0  0  2  0  0  0  0  0  0
  192.3200  173.8260  139.4900 N   0  0  0  0  0  2  0  0  0  0  0  0
  191.3840  173.1960  138.5760 C   0  0  0  0  0  2  0  0  0  0  0  0
  190.0140  173.5360  138.9620 C   0  0  0  0  0  0  0  0  0  0  0  0
  188.9320  173.8070  139.2700 N   0  0  0  0  0  0  0  0  0  0  0  0
  1 20  1  1  0  0  0
  1 23  1  0  0  0  0
  1 16  1  0  0  0  0
  2 17  2  0  0  0  0
  2 14  1  0  0  0  0
  3 21  2  0  0  0  0
  6 15  1  0  0  0  0
  7  5  1  0  0  0  0
  8  9  1  0  0  0  0
  9  4  2  0  0  0  0
  9  5  1  0  0  0  0
 10 22  1  0  0  0  0
 11  8  2  0  0  0  0
 11 18  1  0  0  0  0
 13  6  1  6  0  0  0
 13  1  1  0  0  0  0
 14 10  1  6  0  0  0
 14 19  1  0  0  0  0
 15 12  1  6  0  0  0
 15 13  1  0  0  0  0
 16  7  1  0  0  0  0
 17  3  1  0  0  0  0
 18  4  1  0  0  0  0
 19  3  1  1  0  0  0
 19 11  1  0  0  0  0
 22 31  1  6  0  0  0
 22 12  1  0  0  0  0
 23 27  1  0  0  0  0
 25 26  2  0  0  0  0
 26 29  1  0  0  0  0
 26 24  1  0  0  0  0
 27 24  2  0  0  0  0
 28 25  1  0  0  0  0
 28 23  2  0  0  0  0
 29 30  1  0  0  0  0
 32 31  1  0  0  0  0
 33 34  1  0  0  0  0
 33 32  1  0  0  0  0
 34 35  3  0  0  0  0
M  END
>  <MODEL>
3

>  <REMARK>
 VINA RESULT:      -7.1      1.084      1.391
  Name = 
  6 active torsions:
  status: ('A' for Active; 'I' for Inactive)
    1  A    between atoms: C_1  and  C_10
    2  A    between atoms: O_9  and  C_21
    3  A    between atoms: C_22  and  N_25
    4  A    between atoms: C_22  and  C_34
    5  A    between atoms: N_25  and  C_26
    6  A    between atoms: C_26  and  C_27
                            x       y       z     vdW  Elec       q    Type
                         _______ _______ _______ _____ _____    ______ ____

>  <TORSDO>
F 6

$$$$
=
 OpenBabel11042416553D

 35 39  0  0  1  0  0  0  0  0999 V2000
  189.7660  175.6300  144.0800 C   0  0  2  0  0  0  0  0  0  0  0  0
  196.3130  171.1750  144.4170 C   0  0  0  0  0  3  0  0  0  0  0  0
  194.4650  169.8510  144.9050 C   0  0  0  0  0  0  0  0  0  0  0  0
  191.5690  171.4160  142.1000 N   0  0  0  0  0  0  0  0  0  0  0  0
  189.3460  171.9290  143.1150 C   0  0  0  0  0  2  0  0  0  0  0  0
  191.6610  176.4000  145.6270 C   0  0  0  0  0  2  0  0  0  0  0  0
  189.0120  173.2020  143.8780 C   0  0  0  0  0  2  0  0  0  0  0  0
  191.4930  171.5940  144.3500 N   0  0  0  0  0  0  0  0  0  0  0  0
  190.8090  171.6400  143.1900 C   0  0  0  0  0  0  0  0  0  0  0  0
  195.3100  173.2220  145.4470 C   0  0  0  0  0  2  0  0  0  0  0  0
  192.7510  171.3370  143.9560 C   0  0  0  0  0  0  0  0  0  0  0  0
  193.1090  174.3960  145.4800 C   0  0  0  0  0  2  0  0  0  0  0  0
  190.8000  175.2350  145.1730 C   0  0  2  0  0  3  0  0  0  0  0  0
  195.0770  172.0830  144.4660 C   0  0  2  0  0  3  0  0  0  0  0  0
  192.2370  175.3540  144.6880 C   0  0  1  0  0  3  0  0  0  0  0  0
  189.5710  174.4220  143.1530 C   0  0  0  0  0  2  0  0  0  0  0  0
  195.8410  169.8160  144.6050 N   0  0  0  0  0  0  0  0  0  0  0  0
  192.8110  171.2220  142.5810 C   0  0  0  0  0  2  0  0  0  0  0  0
  193.8960  171.2160  144.9130 C   0  0  2  0  0  3  0  0  0  0  0  0
  190.2360  176.6920  143.2960 O   0  0  0  0  0  1  0  0  0  0  0  0
  193.8030  168.8120  145.1640 O   0  0  0  0  0  0  0  0  0  0  0  0
  194.5600  174.4730  145.0190 C   0  0  1  0  0  3  0  0  0  0  0  0
  188.4390  176.0540  144.6890 C   0  0  0  0  0  0  0  0  0  0  0  0
  187.0380  176.5430  146.6220 C   0  0  0  0  0  3  0  0  0  0  0  0
  186.1760  176.9120  144.3930 C   0  0  0  0  0  3  0  0  0  0  0  0
  185.9910  176.9420  145.7780 C   0  0  0  0  0  0  0  0  0  0  0  0
  188.2510  176.1090  146.0820 C   0  0  0  0  0  3  0  0  0  0  0  0
  187.3910  176.4800  143.8530 C   0  0  0  0  0  3  0  0  0  0  0  0
  184.7630  177.3750  146.2860 O   0  0  0  0  0  0  0  0  0  0  0  0
  184.1660  178.6060  145.9030 C   0  0  0  0  0  1  0  0  0  0  0  0
  195.2470  175.6810  145.6350 C   0  0  0  0  0  2  0  0  0  0  0  0
  195.4790  176.6970  144.6210 N   0  0  0  0  0  2  0  0  0  0  0  0
  196.5120  176.1830  143.7400 C   0  0  0  0  0  2  0  0  0  0  0  0
  196.2080  176.5520  142.3560 C   0  0  0  0  0  0  0  0  0  0  0  0
  195.9680  176.8470  141.2630 N   0  0  0  0  0  0  0  0  0  0  0  0
  1 20  1  6  0  0  0
  1 23  1  0  0  0  0
  1 13  1  0  0  0  0
  2 17  2  0  0  0  0
  3 19  1  0  0  0  0
  3 21  2  0  0  0  0
  4 18  1  0  0  0  0
  4  9  2  0  0  0  0
  5  9  1  0  0  0  0
  5  7  1  0  0  0  0
  9  8  1  0  0  0  0
 11  8  2  0  0  0  0
 13  6  1  1  0  0  0
 14  2  1  1  0  0  0
 14 19  1  0  0  0  0
 14 10  1  0  0  0  0
 15 13  1  0  0  0  0
 15 12  1  1  0  0  0
 15  6  1  0  0  0  0
 16  7  1  0  0  0  0
 16  1  1  0  0  0  0
 17  3  1  0  0  0  0
 18 11  1  0  0  0  0
 19 11  1  6  0  0  0
 22 10  1  0  0  0  0
 22 12  1  0  0  0  0
 22 31  1  1  0  0  0
 23 27  1  0  0  0  0
 25 26  2  0  0  0  0
 26 29  1  0  0  0  0
 26 24  1  0  0  0  0
 27 24  2  0  0  0  0
 28 25  1  0  0  0  0
 28 23  2  0  0  0  0
 30 29  1  0  0  0  0
 32 31  1  0  0  0  0
 33 32  1  0  0  0  0
 34 33  1  0  0  0  0
 35 34  3  0  0  0  0
M  END
>  <MODEL>
4

>  <REMARK>
 VINA RESULT:      -7.1      2.574      5.047
  Name = 
  6 active torsions:
  status: ('A' for Active; 'I' for Inactive)
    1  A    between atoms: C_1  and  C_10
    2  A    between atoms: O_9  and  C_21
    3  A    between atoms: C_22  and  N_25
    4  A    between atoms: C_22  and  C_34
    5  A    between atoms: N_25  and  C_26
    6  A    between atoms: C_26  and  C_27
                            x       y       z     vdW  Elec       q    Type
                         _______ _______ _______ _____ _____    ______ ____

>  <TORSDO>
F 6

$$$$
=
 OpenBabel11042416553D

 35 39  0  0  1  0  0  0  0  0999 V2000
  191.3990  174.5040  145.2510 C   0  0  2  0  0  0  0  0  0  0  0  0
  184.8660  177.9130  142.3330 C   0  0  0  0  0  3  0  0  0  0  0  0
  186.4040  177.6180  140.6140 C   0  0  0  0  0  0  0  0  0  0  0  0
  188.0430  173.7480  141.6320 N   0  0  0  0  0  0  0  0  0  0  0  0
  190.5380  173.6610  141.5970 C   0  0  0  0  0  2  0  0  0  0  0  0
  190.5900  176.6770  146.3460 C   0  0  0  0  0  2  0  0  0  0  0  0
  191.4410  174.1290  142.7280 C   0  0  0  0  0  2  0  0  0  0  0  0
  189.1330  175.7260  141.6850 N   0  0  0  0  0  0  0  0  0  0  0  0
  189.2320  174.3840  141.6330 C   0  0  0  0  0  0  0  0  0  0  0  0
  186.6370  178.2860  144.0600 C   0  0  0  0  0  2  0  0  0  0  0  0
  187.8070  175.9360  141.7290 C   0  0  0  0  0  0  0  0  0  0  0  0
  188.8270  177.2900  144.7180 C   0  0  0  0  0  2  0  0  0  0  0  0
  190.8900  175.9590  145.0430 C   0  0  2  0  0  3  0  0  0  0  0  0
  186.1630  177.3670  142.9440 C   0  0  2  0  0  3  0  0  0  0  0  0
  189.4490  176.1440  145.4970 C   0  0  1  0  0  3  0  0  0  0  0  0
  190.9010  173.6540  144.0740 C   0  0  0  0  0  2  0  0  0  0  0  0
  185.0640  177.9520  140.8960 N   0  0  0  0  0  0  0  0  0  0  0  0
  187.1280  174.7330  141.6940 C   0  0  0  0  0  2  0  0  0  0  0  0
  187.2000  177.3010  141.8180 C   0  0  2  0  0  3  0  0  0  0  0  0
  190.8770  173.9460  146.4250 O   0  0  0  0  0  1  0  0  0  0  0  0
  186.8690  177.6210  139.4440 O   0  0  0  0  0  0  0  0  0  0  0  0
  187.3760  177.5040  145.1340 C   0  0  1  0  0  3  0  0  0  0  0  0
  192.9160  174.4480  145.3440 C   0  0  0  0  0  0  0  0  0  0  0  0
  195.0020  173.1920  145.4390 C   0  0  0  0  0  3  0  0  0  0  0  0
  195.0600  175.6070  145.3390 C   0  0  0  0  0  3  0  0  0  0  0  0
  195.7370  174.3870  145.4150 C   0  0  0  0  0  0  0  0  0  0  0  0
  193.6050  173.2240  145.3970 C   0  0  0  0  0  3  0  0  0  0  0  0
  193.6640  175.6380  145.2960 C   0  0  0  0  0  3  0  0  0  0  0  0
  197.1340  174.3900  145.4620 O   0  0  0  0  0  0  0  0  0  0  0  0
  197.9400  174.3330  144.2930 C   0  0  0  0  0  1  0  0  0  0  0  0
  187.3090  178.2900  146.4330 C   0  0  0  0  0  2  0  0  0  0  0  0
  186.4340  177.6180  147.3800 N   0  0  0  0  0  2  0  0  0  0  0  0
  185.4000  178.5700  147.7460 C   0  0  0  0  0  2  0  0  0  0  0  0
  184.4110  178.6610  146.6700 C   0  0  0  0  0  0  0  0  0  0  0  0
  183.6320  178.7300  145.8180 N   0  0  0  0  0  0  0  0  0  0  0  0
  1 23  1  0  0  0  0
  1 20  1  1  0  0  0
  3 17  1  0  0  0  0
  4  9  2  0  0  0  0
  4 18  1  0  0  0  0
  5  9  1  0  0  0  0
  5  7  1  0  0  0  0
  7 16  1  0  0  0  0
  8 11  2  0  0  0  0
  9  8  1  0  0  0  0
 10 22  1  0  0  0  0
 11 19  1  0  0  0  0
 12 22  1  0  0  0  0
 13  1  1  0  0  0  0
 13 15  1  0  0  0  0
 13  6  1  1  0  0  0
 14  2  1  6  0  0  0
 14 10  1  0  0  0  0
 15 12  1  6  0  0  0
 15  6  1  0  0  0  0
 16  1  1  0  0  0  0
 17  2  2  0  0  0  0
 18 11  1  0  0  0  0
 19  3  1  6  0  0  0
 19 14  1  0  0  0  0
 21  3  2  0  0  0  0
 22 31  1  1  0  0  0
 23 27  1  0  0  0  0
 25 26  2  0  0  0  0
 26 24  1  0  0  0  0
 26 29  1  0  0  0  0
 27 24  2  0  0  0  0
 28 25  1  0  0  0  0
 28 23  2  0  0  0  0
 30 29  1  0  0  0  0
 31 32  1  0  0  0  0
 32 33  1  0  0  0  0
 34 33  1  0  0  0  0
 35 34  3  0  0  0  0
M  END
>  <MODEL>
5

>  <REMARK>
 VINA RESULT:      -7.0      3.568      8.561
  Name = 
  6 active torsions:
  status: ('A' for Active; 'I' for Inactive)
    1  A    between atoms: C_1  and  C_10
    2  A    between atoms: O_9  and  C_21
    3  A    between atoms: C_22  and  N_25
    4  A    between atoms: C_22  and  C_34
    5  A    between atoms: N_25  and  C_26
    6  A    between atoms: C_26  and  C_27
                            x       y       z     vdW  Elec       q    Type
                         _______ _______ _______ _____ _____    ______ ____

>  <TORSDO>
F 6

$$$$
=
 OpenBabel11042416553D

 35 39  0  0  1  0  0  0  0  0999 V2000
  190.6660  174.1420  142.6370 C   0  0  2  0  0  0  0  0  0  0  0  0
  185.6200  179.3970  145.7590 C   0  0  0  0  0  3  0  0  0  0  0  0
  186.0000  177.6970  147.3000 C   0  0  0  0  0  0  0  0  0  0  0  0
  190.2260  176.9880  146.7160 N   0  0  0  0  0  0  0  0  0  0  0  0
  190.8250  174.5780  146.4570 C   0  0  0  0  0  2  0  0  0  0  0  0
  188.5360  174.6870  141.3180 C   0  0  0  0  0  2  0  0  0  0  0  0
  190.7080  173.7870  145.1630 C   0  0  0  0  0  2  0  0  0  0  0  0
  188.5430  175.5680  146.2150 N   0  0  0  0  0  0  0  0  0  0  0  0
  189.8570  175.7160  146.4680 C   0  0  0  0  0  0  0  0  0  0  0  0
  185.8540  177.8720  143.7900 C   0  0  0  0  0  2  0  0  0  0  0  0
  188.0690  176.8220  146.3020 C   0  0  0  0  0  0  0  0  0  0  0  0
  187.3620  176.0340  143.0330 C   0  0  0  0  0  2  0  0  0  0  0  0
  189.1230  174.3320  142.6720 C   0  0  2  0  0  3  0  0  0  0  0  0
  186.5000  178.3340  145.0870 C   0  0  2  0  0  3  0  0  0  0  0  0
  188.7040  175.7640  142.3760 C   0  0  1  0  0  3  0  0  0  0  0  0
  191.2330  174.6060  143.9870 C   0  0  0  0  0  2  0  0  0  0  0  0
  185.4350  178.9780  147.1350 N   0  0  0  0  0  0  0  0  0  0  0  0
  189.0890  177.7010  146.6120 C   0  0  0  0  0  2  0  0  0  0  0  0
  186.6310  177.1680  146.0720 C   0  0  2  0  0  3  0  0  0  0  0  0
  191.2530  174.9330  141.6400 O   0  0  0  0  0  1  0  0  0  0  0  0
  185.9410  177.0670  148.3880 O   0  0  0  0  0  0  0  0  0  0  0  0
  186.9060  177.4650  142.7700 C   0  0  1  0  0  3  0  0  0  0  0  0
  191.0490  172.6950  142.3680 C   0  0  0  0  0  0  0  0  0  0  0  0
  190.4450  170.3680  141.9730 C   0  0  0  0  0  3  0  0  0  0  0  0
  192.7630  171.0430  141.8450 C   0  0  0  0  0  3  0  0  0  0  0  0
  191.7940  170.0400  141.7670 C   0  0  0  0  0  0  0  0  0  0  0  0
  190.0770  171.6840  142.2640 C   0  0  0  0  0  3  0  0  0  0  0  0
  192.3940  172.3600  142.1350 C   0  0  0  0  0  3  0  0  0  0  0  0
  192.1960  168.7320  141.4800 O   0  0  0  0  0  0  0  0  0  0  0  0
  193.4700  168.4240  140.9320 C   0  0  0  0  0  1  0  0  0  0  0  0
  186.3010  177.5820  141.3810 C   0  0  0  0  0  2  0  0  0  0  0  0
  185.3310  178.6630  141.3460 N   0  0  0  0  0  2  0  0  0  0  0  0
  184.2920  178.2680  140.4120 C   0  0  0  0  0  2  0  0  0  0  0  0
  182.9920  178.2820  141.0870 C   0  0  0  0  0  0  0  0  0  0  0  0
  181.9650  178.2960  141.6170 N   0  0  0  0  0  0  0  0  0  0  0  0
  1 20  1  6  0  0  0
  1 13  1  0  0  0  0
  1 16  1  0  0  0  0
  2 17  2  0  0  0  0
  3 21  2  0  0  0  0
  5  9  1  0  0  0  0
  7  5  1  0  0  0  0
  8 11  2  0  0  0  0
  8  9  1  0  0  0  0
  9  4  2  0  0  0  0
 11 18  1  0  0  0  0
 13  6  1  6  0  0  0
 14 10  1  6  0  0  0
 14  2  1  0  0  0  0
 14 19  1  0  0  0  0
 15  6  1  6  0  0  0
 15 13  1  0  0  0  0
 15 12  1  0  0  0  0
 16  7  1  0  0  0  0
 17  3  1  0  0  0  0
 18  4  1  0  0  0  0
 19 11  1  1  0  0  0
 19  3  1  0  0  0  0
 22 31  1  6  0  0  0
 22 12  1  0  0  0  0
 22 10  1  0  0  0  0
 23  1  1  0  0  0  0
 24 27  2  0  0  0  0
 25 28  1  0  0  0  0
 26 25  2  0  0  0  0
 26 24  1  0  0  0  0
 27 23  1  0  0  0  0
 28 23  2  0  0  0  0
 29 26  1  0  0  0  0
 30 29  1  0  0  0  0
 32 31  1  0  0  0  0
 33 34  1  0  0  0  0
 33 32  1  0  0  0  0
 34 35  3  0  0  0  0
M  END
>  <MODEL>
6

>  <REMARK>
 VINA RESULT:      -7.0      3.922      8.437
  Name = 
  6 active torsions:
  status: ('A' for Active; 'I' for Inactive)
    1  A    between atoms: C_1  and  C_10
    2  A    between atoms: O_9  and  C_21
    3  A    between atoms: C_22  and  N_25
    4  A    between atoms: C_22  and  C_34
    5  A    between atoms: N_25  and  C_26
    6  A    between atoms: C_26  and  C_27
                            x       y       z     vdW  Elec       q    Type
                         _______ _______ _______ _____ _____    ______ ____

>  <TORSDO>
F 6

$$$$
=
 OpenBabel11042416553D

 35 39  0  0  1  0  0  0  0  0999 V2000
  193.0980  174.9840  144.8590 C   0  0  2  0  0  0  0  0  0  0  0  0
  185.6980  177.8050  144.5440 C   0  0  0  0  0  3  0  0  0  0  0  0
  186.0410  176.7970  146.6110 C   0  0  0  0  0  0  0  0  0  0  0  0
  190.1020  178.0190  147.4560 N   0  0  0  0  0  0  0  0  0  0  0  0
  191.5890  176.1560  148.1990 C   0  0  0  0  0  2  0  0  0  0  0  0
  191.6080  174.2260  142.9150 C   0  0  0  0  0  2  0  0  0  0  0  0
  192.2810  175.1720  147.2690 C   0  0  0  0  0  2  0  0  0  0  0  0
  189.3910  175.9180  147.0350 N   0  0  0  0  0  0  0  0  0  0  0  0
  190.3510  176.6990  147.5650 C   0  0  0  0  0  0  0  0  0  0  0  0
  187.2170  176.2190  143.3460 C   0  0  0  0  0  2  0  0  0  0  0  0
  188.4990  176.8030  146.5620 C   0  0  0  0  0  0  0  0  0  0  0  0
  189.4570  175.1770  143.6900 C   0  0  0  0  0  2  0  0  0  0  0  0
  191.7090  174.4450  144.4130 C   0  0  2  0  0  3  0  0  0  0  0  0
  187.0910  177.1620  144.5330 C   0  0  2  0  0  3  0  0  0  0  0  0
  190.9460  175.4370  143.5490 C   0  0  1  0  0  3  0  0  0  0  0  0
  192.8840  175.9020  146.0710 C   0  0  0  0  0  2  0  0  0  0  0  0
  185.1590  177.6170  145.8770 N   0  0  0  0  0  0  0  0  0  0  0  0
  188.9210  178.0940  146.8170 C   0  0  0  0  0  2  0  0  0  0  0  0
  187.2450  176.3970  145.8520 C   0  0  2  0  0  3  0  0  0  0  0  0
  193.6930  175.7520  143.8490 O   0  0  0  0  0  1  0  0  0  0  0  0
  185.7980  176.4290  147.7900 O   0  0  0  0  0  0  0  0  0  0  0  0
  188.6510  176.1590  142.8470 C   0  0  1  0  0  3  0  0  0  0  0  0
  194.0540  173.8550  145.2090 C   0  0  0  0  0  0  0  0  0  0  0  0
  194.5310  171.4870  145.5310 C   0  0  0  0  0  3  0  0  0  0  0  0
  196.3210  173.1050  145.7010 C   0  0  0  0  0  3  0  0  0  0  0  0
  195.8840  171.7790  145.7640 C   0  0  0  0  0  0  0  0  0  0  0  0
  193.6280  172.5150  145.2510 C   0  0  0  0  0  3  0  0  0  0  0  0
  195.4170  174.1330  145.4190 C   0  0  0  0  0  3  0  0  0  0  0  0
  196.8130  170.7750  146.0530 O   0  0  0  0  0  0  0  0  0  0  0  0
  196.4990  169.6520  146.8650 C   0  0  0  0  0  1  0  0  0  0  0  0
  188.6370  175.7190  141.3920 C   0  0  0  0  0  2  0  0  0  0  0  0
  188.2020  174.3350  141.2920 N   0  0  0  0  0  2  0  0  0  0  0  0
  189.0530  173.6970  140.3040 C   0  0  0  0  0  2  0  0  0  0  0  0
  188.5490  173.9850  138.9600 C   0  0  0  0  0  0  0  0  0  0  0  0
  188.1480  174.2110  137.8990 N   0  0  0  0  0  0  0  0  0  0  0  0
  1 20  1  6  0  0  0
  1 23  1  0  0  0  0
  1 16  1  0  0  0  0
  2 17  2  0  0  0  0
  3 21  2  0  0  0  0
  4  9  2  0  0  0  0
  7  5  1  0  0  0  0
  8  9  1  0  0  0  0
  9  5  1  0  0  0  0
 11 18  1  0  0  0  0
 11  8  2  0  0  0  0
 13  6  1  6  0  0  0
 13  1  1  0  0  0  0
 14 10  1  6  0  0  0
 14  2  1  0  0  0  0
 14 19  1  0  0  0  0
 15  6  1  6  0  0  0
 15 12  1  0  0  0  0
 15 13  1  0  0  0  0
 16  7  1  0  0  0  0
 17  3  1  0  0  0  0
 18  4  1  0  0  0  0
 19 11  1  1  0  0  0
 19  3  1  0  0  0  0
 22 31  1  6  0  0  0
 22 10  1  0  0  0  0
 22 12  1  0  0  0  0
 23 27  2  0  0  0  0
 23 28  1  0  0  0  0
 24 26  2  0  0  0  0
 25 26  1  0  0  0  0
 26 29  1  0  0  0  0
 27 24  1  0  0  0  0
 28 25  2  0  0  0  0
 29 30  1  0  0  0  0
 32 31  1  0  0  0  0
 33 32  1  0  0  0  0
 34 33  1  0  0  0  0
 35 34  3  0  0  0  0
M  END
>  <MODEL>
7

>  <REMARK>
 VINA RESULT:      -7.0      3.247      7.726
  Name = 
  6 active torsions:
  status: ('A' for Active; 'I' for Inactive)
    1  A    between atoms: C_1  and  C_10
    2  A    between atoms: O_9  and  C_21
    3  A    between atoms: C_22  and  N_25
    4  A    between atoms: C_22  and  C_34
    5  A    between atoms: N_25  and  C_26
    6  A    between atoms: C_26  and  C_27
                            x       y       z     vdW  Elec       q    Type
                         _______ _______ _______ _____ _____    ______ ____

>  <TORSDO>
F 6

$$$$
=
 OpenBabel11042416553D

 35 39  0  0  1  0  0  0  0  0999 V2000
  189.7380  175.9580  143.9970 C   0  0  2  0  0  0  0  0  0  0  0  0
  193.8660  169.4500  142.1500 C   0  0  0  0  0  3  0  0  0  0  0  0
  191.5970  169.0060  141.9080 C   0  0  0  0  0  0  0  0  0  0  0  0
  190.2080  172.7340  140.2130 N   0  0  0  0  0  0  0  0  0  0  0  0
  188.1780  173.6640  141.3310 C   0  0  0  0  0  2  0  0  0  0  0  0
  191.3890  175.0530  145.7380 C   0  0  0  0  0  2  0  0  0  0  0  0
  188.1880  174.4730  142.6190 C   0  0  0  0  0  2  0  0  0  0  0  0
  189.7070  171.9180  142.2590 N   0  0  0  0  0  0  0  0  0  0  0  0
  189.3670  172.7630  141.2660 C   0  0  0  0  0  0  0  0  0  0  0  0
  193.5090  171.0420  144.0460 C   0  0  0  0  0  2  0  0  0  0  0  0
  190.8280  171.3390  141.8000 C   0  0  0  0  0  0  0  0  0  0  0  0
  191.9660  172.9120  144.6360 C   0  0  0  0  0  2  0  0  0  0  0  0
  190.2750  174.7160  144.7620 C   0  0  2  0  0  3  0  0  0  0  0  0
  193.0870  170.6820  142.6300 C   0  0  2  0  0  3  0  0  0  0  0  0
  191.7200  174.3930  144.4100 C   0  0  1  0  0  3  0  0  0  0  0  0
  189.3130  175.5050  142.5930 C   0  0  0  0  0  2  0  0  0  0  0  0
  192.8880  168.5080  141.6410 N   0  0  0  0  0  0  0  0  0  0  0  0
  191.1440  171.8270  140.5460 C   0  0  0  0  0  2  0  0  0  0  0  0
  191.5990  170.3220  142.5820 C   0  0  2  0  0  3  0  0  0  0  0  0
  190.7360  176.9300  143.8410 O   0  0  0  0  0  1  0  0  0  0  0  0
  190.5520  168.3670  141.6170 O   0  0  0  0  0  0  0  0  0  0  0  0
  193.4020  172.5390  144.2840 C   0  0  1  0  0  3  0  0  0  0  0  0
  188.5690  176.6040  144.7250 C   0  0  0  0  0  0  0  0  0  0  0  0
  186.7150  178.1840  144.8020 C   0  0  0  0  0  3  0  0  0  0  0  0
  187.0790  176.6700  146.6520 C   0  0  0  0  0  3  0  0  0  0  0  0
  186.3460  177.7070  146.0700 C   0  0  0  0  0  0  0  0  0  0  0  0
  187.8120  177.6330  144.1350 C   0  0  0  0  0  3  0  0  0  0  0  0
  188.1750  176.1180  145.9840 C   0  0  0  0  0  3  0  0  0  0  0  0
  185.2580  178.2410  146.7660 O   0  0  0  0  0  0  0  0  0  0  0  0
  184.0670  178.6660  146.1180 C   0  0  0  0  0  1  0  0  0  0  0  0
  194.3390  172.9150  145.4210 C   0  0  0  0  0  2  0  0  0  0  0  0
  195.2180  173.9970  145.0080 N   0  0  0  0  0  2  0  0  0  0  0  0
  195.3170  174.9110  146.1320 C   0  0  0  0  0  2  0  0  0  0  0  0
  194.8740  176.2450  145.7220 C   0  0  0  0  0  0  0  0  0  0  0  0
  194.5220  177.2980  145.3990 N   0  0  0  0  0  0  0  0  0  0  0  0
  1 20  1  6  0  0  0
  1 23  1  0  0  0  0
  1 13  1  0  0  0  0
  3 19  1  0  0  0  0
  4 18  1  0  0  0  0
  4  9  2  0  0  0  0
  5  7  1  0  0  0  0
  9  5  1  0  0  0  0
  9  8  1  0  0  0  0
 10 22  1  0  0  0  0
 11  8  2  0  0  0  0
 13  6  1  1  0  0  0
 14  2  1  1  0  0  0
 14 10  1  0  0  0  0
 15 12  1  1  0  0  0
 15 13  1  0  0  0  0
 15  6  1  0  0  0  0
 16  7  1  0  0  0  0
 16  1  1  0  0  0  0
 17  3  1  0  0  0  0
 17  2  2  0  0  0  0
 18 11  1  0  0  0  0
 19 11  1  6  0  0  0
 19 14  1  0  0  0  0
 21  3  2  0  0  0  0
 22 12  1  0  0  0  0
 22 31  1  1  0  0  0
 23 28  1  0  0  0  0
 24 26  2  0  0  0  0
 26 25  1  0  0  0  0
 26 29  1  0  0  0  0
 27 23  2  0  0  0  0
 27 24  1  0  0  0  0
 28 25  2  0  0  0  0
 30 29  1  0  0  0  0
 32 31  1  0  0  0  0
 32 33  1  0  0  0  0
 34 33  1  0  0  0  0
 35 34  3  0  0  0  0
M  END
>  <MODEL>
8

>  <REMARK>
 VINA RESULT:      -6.8      2.367      5.575
  Name = 
  6 active torsions:
  status: ('A' for Active; 'I' for Inactive)
    1  A    between atoms: C_1  and  C_10
    2  A    between atoms: O_9  and  C_21
    3  A    between atoms: C_22  and  N_25
    4  A    between atoms: C_22  and  C_34
    5  A    between atoms: N_25  and  C_26
    6  A    between atoms: C_26  and  C_27
                            x       y       z     vdW  Elec       q    Type
                         _______ _______ _______ _____ _____    ______ ____

>  <TORSDO>
F 6

$$$$
=
 OpenBabel11042416553D

 35 39  0  0  1  0  0  0  0  0999 V2000
  188.8660  177.0310  142.7370 C   0  0  2  0  0  0  0  0  0  0  0  0
  194.8010  171.8880  141.6660 C   0  0  0  0  0  3  0  0  0  0  0  0
  192.8810  170.7220  142.2660 C   0  0  0  0  0  0  0  0  0  0  0  0
  189.8660  172.9220  140.0830 N   0  0  0  0  0  0  0  0  0  0  0  0
  187.8720  173.5440  141.4520 C   0  0  0  0  0  2  0  0  0  0  0  0
  191.0240  177.3970  144.0720 C   0  0  0  0  0  2  0  0  0  0  0  0
  187.7980  174.7420  142.3850 C   0  0  0  0  0  2  0  0  0  0  0  0
  190.1010  172.8300  142.3270 N   0  0  0  0  0  0  0  0  0  0  0  0
  189.2850  173.0910  141.2870 C   0  0  0  0  0  0  0  0  0  0  0  0
  194.1990  173.8900  143.0400 C   0  0  0  0  0  2  0  0  0  0  0  0
  191.2570  172.4890  141.7340 C   0  0  0  0  0  0  0  0  0  0  0  0
  192.1820  175.2820  143.5100 C   0  0  0  0  0  2  0  0  0  0  0  0
  189.9750  176.3960  143.6240 C   0  0  2  0  0  3  0  0  0  0  0  0
  193.7030  172.9120  141.9860 C   0  0  2  0  0  3  0  0  0  0  0  0
  191.3420  176.4180  142.9550 C   0  0  1  0  0  3  0  0  0  0  0  0
  188.4060  175.9750  141.7230 C   0  0  0  0  0  2  0  0  0  0  0  0
  194.1930  170.5760  141.7730 N   0  0  0  0  0  0  0  0  0  0  0  0
  191.1250  172.5370  140.3590 C   0  0  0  0  0  2  0  0  0  0  0  0
  192.4910  172.1280  142.5000 C   0  0  2  0  0  3  0  0  0  0  0  0
  189.3600  178.1250  142.0120 O   0  0  0  0  0  1  0  0  0  0  0  0
  192.1350  169.7360  142.5050 O   0  0  0  0  0  0  0  0  0  0  0  0
  193.5610  175.2580  142.8580 C   0  0  1  0  0  3  0  0  0  0  0  0
  187.6900  177.5190  143.5690 C   0  0  0  0  0  0  0  0  0  0  0  0
  185.5980  178.7470  143.7910 C   0  0  0  0  0  3  0  0  0  0  0  0
  186.4470  177.4770  145.6650 C   0  0  0  0  0  3  0  0  0  0  0  0
  185.4730  178.3180  145.1210 C   0  0  0  0  0  0  0  0  0  0  0  0
  186.6930  178.3450  143.0220 C   0  0  0  0  0  3  0  0  0  0  0  0
  187.5420  177.0750  144.8950 C   0  0  0  0  0  3  0  0  0  0  0  0
  184.3930  178.7060  145.9190 O   0  0  0  0  0  0  0  0  0  0  0  0
  184.4340  178.6650  147.3390 C   0  0  0  0  0  1  0  0  0  0  0  0
  194.4650  176.3000  143.4960 C   0  0  0  0  0  2  0  0  0  0  0  0
  195.0270  175.7850  144.7340 N   0  0  0  0  0  2  0  0  0  0  0  0
  194.7730  176.7810  145.7590 C   0  0  0  0  0  2  0  0  0  0  0  0
  193.5730  176.4170  146.5140 C   0  0  0  0  0  0  0  0  0  0  0  0
  192.6250  176.1250  147.1080 N   0  0  0  0  0  0  0  0  0  0  0  0
  1 20  1  6  0  0  0
  1 23  1  0  0  0  0
  1 13  1  0  0  0  0
  2 17  2  0  0  0  0
  3 19  1  0  0  0  0
  3 21  2  0  0  0  0
  4 18  1  0  0  0  0
  4  9  2  0  0  0  0
  5  7  1  0  0  0  0
  9  5  1  0  0  0  0
  9  8  1  0  0  0  0
 11  8  2  0  0  0  0
 13  6  1  1  0  0  0
 14  2  1  1  0  0  0
 14 19  1  0  0  0  0
 14 10  1  0  0  0  0
 15 12  1  1  0  0  0
 15 13  1  0  0  0  0
 15  6  1  0  0  0  0
 16  7  1  0  0  0  0
 16  1  1  0  0  0  0
 17  3  1  0  0  0  0
 18 11  1  0  0  0  0
 19 11  1  6  0  0  0
 22 10  1  0  0  0  0
 22 31  1  1  0  0  0
 22 12  1  0  0  0  0
 23 28  1  0  0  0  0
 24 26  2  0  0  0  0
 26 25  1  0  0  0  0
 26 29  1  0  0  0  0
 27 23  2  0  0  0  0
 27 24  1  0  0  0  0
 28 25  2  0  0  0  0
 29 30  1  0  0  0  0
 31 32  1  0  0  0  0
 32 33  1  0  0  0  0
 33 34  1  0  0  0  0
 34 35  3  0  0  0  0
M  END
>  <MODEL>
9

>  <REMARK>
 VINA RESULT:      -6.6      2.374      5.095
  Name = 
  6 active torsions:
  status: ('A' for Active; 'I' for Inactive)
    1  A    between atoms: C_1  and  C_10
    2  A    between atoms: O_9  and  C_21
    3  A    between atoms: C_22  and  N_25
    4  A    between atoms: C_22  and  C_34
    5  A    between atoms: N_25  and  C_26
    6  A    between atoms: C_26  and  C_27
                            x       y       z     vdW  Elec       q    Type
                         _______ _______ _______ _____ _____    ______ ____

>  <TORSDO>
F 6

$$$$
