=
 OpenBabel11042415303D

 42 47  0  0  1  0  0  0  0  0999 V2000
  189.1370  174.3950  142.9220 C   0  0  2  0  0  3  0  0  0  0  0  0
  188.5470  174.8680  140.5980 N   0  0  0  0  0  2  0  0  0  0  0  0
  187.0700  175.5600  142.4320 N   0  0  0  0  0  2  0  0  0  0  0  0
  187.9530  175.9730  141.3460 C   0  0  2  0  0  0  0  0  0  0  0  0
  187.9930  174.5730  141.9060 C   0  0  1  0  0  0  0  0  0  0  0  0
  186.9460  176.5060  140.3460 C   0  0  0  0  0  2  0  0  0  0  0  0
  186.6710  177.9740  140.6190 C   0  0  0  0  0  2  0  0  0  0  0  0
  185.1760  178.2120  140.6320 C   0  0  0  0  0  2  0  0  0  0  0  0
  184.7160  178.3450  142.0060 N   0  0  0  0  0  2  0  0  0  0  0  0
  185.7990  178.9450  142.7690 C   0  0  0  0  0  2  0  0  0  0  0  0
  187.6800  177.6080  146.9640 O   0  0  0  0  0  0  0  0  0  0  0  0
  186.6590  177.8980  146.2890 C   0  0  0  0  0  0  0  0  0  0  0  0
  184.4540  178.4910  144.7230 N   0  0  0  0  0  0  0  0  0  0  0  0
  185.6470  178.6140  144.2160 C   0  0  0  0  0  0  0  0  0  0  0  0
  184.2030  178.2710  146.1520 C   0  0  0  0  0  2  0  0  0  0  0  0
  186.7870  178.4240  145.0040 O   0  0  0  0  0  0  0  0  0  0  0  0
  185.3550  177.6670  146.8130 N   0  0  0  0  0  2  0  0  0  0  0  0
  189.4240  172.9250  143.2100 C   0  0  0  0  0  2  0  0  0  0  0  0
  190.8570  172.6970  143.2130 N   0  0  0  0  0  2  0  0  0  0  0  0
  193.0280  172.1270  140.6950 N   0  0  0  0  0  2  0  0  0  0  0  0
  191.3900  173.2830  141.9960 C   0  0  0  0  0  3  0  0  0  0  0  0
  193.6900  172.7720  141.7560 N   0  0  0  0  0  2  0  0  0  0  0  0
  191.5990  172.1980  140.9740 C   0  0  0  0  0  2  0  0  0  0  0  0
  192.7800  173.7890  142.2510 C   0  0  0  0  0  2  0  0  0  0  0  0
  188.7930  175.0680  144.2510 C   0  0  0  0  0  2  0  0  0  0  0  0
  192.5640  176.2100  146.1440 C   0  0  1  0  0  3  0  0  0  0  0  0
  192.1380  176.7330  144.8000 C   0  0  0  0  0  3  0  0  0  0  0  0
  190.9680  176.3850  144.2580 C   0  0  0  0  0  3  0  0  0  0  0  0
  191.5730  175.6440  148.3770 C   0  0  0  0  0  1  0  0  0  0  0  0
  190.2240  175.2520  146.2870 C   0  0  0  0  0  0  0  0  0  0  0  0
  191.4180  175.7400  146.9330 N   0  0  0  0  0  0  0  0  0  0  0  0
  190.0140  175.5320  144.9850 C   0  0  0  0  0  0  0  0  0  0  0  0
  189.2140  174.4720  147.0760 C   0  0  0  0  0  1  0  0  0  0  0  0
  195.8370  174.5170  145.1710 C   0  0  0  0  0  0  0  0  0  0  0  0
  194.1450  172.8020  145.6510 C   0  0  0  0  0  2  0  0  0  0  0  0
  195.4050  173.2640  144.9750 C   0  0  0  0  0  3  0  0  0  0  0  0
  195.0420  175.4570  146.0350 C   0  0  0  0  0  2  0  0  0  0  0  0
  193.1940  173.8920  145.7770 N   0  0  0  0  0  0  0  0  0  0  0  0
  193.5740  175.1130  145.9770 C   0  0  0  0  0  0  0  0  0  0  0  0
  197.0220  174.9710  144.5910 O   0  0  0  0  0  0  0  0  0  0  0  0
  197.1150  175.1940  143.2710 O   0  0  0  0  0  0  0  0  0  0  0  0
  197.0830  176.5840  143.1490 C   0  0  0  0  0  1  0  0  0  0  0  0
  1 18  1  1  0  0  0
  1 25  1  0  0  0  0
  2  4  1  0  0  0  0
  2  5  1  0  0  0  0
  4  6  1  6  0  0  0
  4  5  1  0  0  0  0
  4  3  1  0  0  0  0
  5  3  1  0  0  0  0
  5  1  1  1  0  0  0
  6  7  1  0  0  0  0
  7  8  1  0  0  0  0
  8  9  1  0  0  0  0
  9 10  1  0  0  0  0
 10 14  1  0  0  0  0
 12 17  1  0  0  0  0
 12 11  2  0  0  0  0
 13 15  1  0  0  0  0
 14 13  2  0  0  0  0
 14 16  1  0  0  0  0
 15 17  1  0  0  0  0
 16 12  1  0  0  0  0
 18 19  1  0  0  0  0
 20 23  1  0  0  0  0
 20 22  1  0  0  0  0
 21 24  1  0  0  0  0
 21 19  1  0  0  0  0
 22 24  1  0  0  0  0
 23 21  1  0  0  0  0
 25 32  1  0  0  0  0
 26 39  1  6  0  0  0
 26 31  1  0  0  0  0
 27 26  1  0  0  0  0
 28 27  2  0  0  0  0
 28 32  1  0  0  0  0
 30 31  1  0  0  0  0
 30 33  1  0  0  0  0
 31 29  1  0  0  0  0
 32 30  2  0  0  0  0
 34 37  1  0  0  0  0
 35 38  1  0  0  0  0
 36 34  2  0  0  0  0
 36 35  1  0  0  0  0
 38 39  2  0  0  0  0
 39 37  1  0  0  0  0
 40 34  1  0  0  0  0
 41 40  1  0  0  0  0
 42 41  1  0  0  0  0
M  END
>  <MODEL>
1

>  <REMARK>
 VINA RESULT:      -6.6      0.000      0.000
  Name = 
  15 active torsions:
  status: ('A' for Active; 'I' for Inactive)
    1  A    between atoms: C_2  and  C_39
    2  A    between atoms: N_3  and  C_8
    3  A    between atoms: N_3  and  C_16
    4  A    between atoms: C_5  and  O_32
    5  A    between atoms: N_6  and  C_15
    6  A    between atoms: N_6  and  C_17
    7  A    between atoms: C_8  and  C_21
    8  A    between atoms: C_10  and  C_13
    9  A    between atoms: C_10  and  C_34
   10  A    between atoms: C_13  and  C_16
   11  A    between atoms: C_17  and  C_26
   12  A    between atoms: C_26  and  C_30
   13  A    between atoms: C_26  and  C_37
   14  A    between atoms: C_27  and  C_30
   15  A    between atoms: O_31  and  O_32
                            x       y       z     vdW  Elec       q    Type
                         _______ _______ _______ _____ _____    ______ ____

>  <TORSDO>
F 15

$$$$
=
 OpenBabel11042415303D

 42 47  0  0  1  0  0  0  0  0999 V2000
  190.4350  175.7320  145.1920 C   0  0  2  0  0  3  0  0  0  0  0  0
  188.7170  175.3700  146.8910 N   0  0  0  0  0  2  0  0  0  0  0  0
  188.9840  177.5640  145.8270 N   0  0  0  0  0  2  0  0  0  0  0  0
  188.1420  176.3880  146.0170 C   0  0  2  0  0  0  0  0  0  0  0  0
  189.6160  176.3630  146.3330 C   0  0  1  0  0  0  0  0  0  0  0  0
  187.0500  176.9600  146.9010 C   0  0  0  0  0  2  0  0  0  0  0  0
  185.6990  176.7940  146.2290 C   0  0  0  0  0  2  0  0  0  0  0  0
  184.8980  178.0690  146.3880 C   0  0  0  0  0  2  0  0  0  0  0  0
  185.2260  178.9880  145.3080 N   0  0  0  0  0  2  0  0  0  0  0  0
  184.3250  178.6980  144.2040 C   0  0  0  0  0  2  0  0  0  0  0  0
  188.5160  178.0870  141.9700 O   0  0  0  0  0  0  0  0  0  0  0  0
  187.2610  178.1360  141.9040 C   0  0  0  0  0  0  0  0  0  0  0  0
  184.4990  178.3180  141.8250 N   0  0  0  0  0  0  0  0  0  0  0  0
  185.1100  178.3900  142.9730 C   0  0  0  0  0  0  0  0  0  0  0  0
  185.1640  177.9200  140.5800 C   0  0  0  0  0  2  0  0  0  0  0  0
  186.4920  178.2000  143.0650 O   0  0  0  0  0  0  0  0  0  0  0  0
  186.6030  178.1580  140.6400 N   0  0  0  0  0  2  0  0  0  0  0  0
  189.5910  175.4930  143.9440 C   0  0  0  0  0  2  0  0  0  0  0  0
  190.4480  175.0920  142.8430 N   0  0  0  0  0  2  0  0  0  0  0  0
  188.0350  172.9010  141.9730 N   0  0  0  0  0  2  0  0  0  0  0  0
  189.5830  174.7080  141.7420 C   0  0  0  0  0  3  0  0  0  0  0  0
  189.2990  172.3570  141.6800 N   0  0  0  0  0  2  0  0  0  0  0  0
  188.2360  174.3110  142.2850 C   0  0  0  0  0  2  0  0  0  0  0  0
  190.0930  173.4380  141.1250 C   0  0  0  0  0  2  0  0  0  0  0  0
  191.0180  174.3850  145.6210 C   0  0  0  0  0  2  0  0  0  0  0  0
  195.3690  174.8000  145.6890 C   0  0  1  0  0  3  0  0  0  0  0  0
  194.4520  175.7250  146.4410 C   0  0  0  0  0  3  0  0  0  0  0  0
  193.1280  175.5580  146.4200 C   0  0  0  0  0  3  0  0  0  0  0  0
  195.5740  172.3690  145.1050 C   0  0  0  0  0  1  0  0  0  0  0  0
  193.2900  173.4190  145.2560 C   0  0  0  0  0  0  0  0  0  0  0  0
  194.7230  173.5140  145.3950 N   0  0  0  0  0  0  0  0  0  0  0  0
  192.5130  174.4190  145.7210 C   0  0  0  0  0  0  0  0  0  0  0  0
  192.6790  172.1990  144.6330 C   0  0  0  0  0  1  0  0  0  0  0  0
  195.2330  176.1600  142.1310 C   0  0  0  0  0  0  0  0  0  0  0  0
  197.5760  176.0000  142.8530 C   0  0  0  0  0  2  0  0  0  0  0  0
  196.5210  176.0370  141.7830 C   0  0  0  0  0  3  0  0  0  0  0  0
  194.8530  176.2230  143.5850 C   0  0  0  0  0  2  0  0  0  0  0  0
  197.0780  175.3480  144.0500 N   0  0  0  0  0  0  0  0  0  0  0  0
  195.8420  175.4530  144.4240 C   0  0  0  0  0  0  0  0  0  0  0  0
  194.2290  176.2360  141.1660 O   0  0  0  0  0  0  0  0  0  0  0  0
  193.3990  175.2070  140.9370 O   0  0  0  0  0  0  0  0  0  0  0  0
  193.8960  174.6080  139.7780 C   0  0  0  0  0  1  0  0  0  0  0  0
  1 18  1  6  0  0  0
  1 25  1  0  0  0  0
  3  4  1  0  0  0  0
  3  5  1  0  0  0  0
  4  5  1  0  0  0  0
  4  2  1  0  0  0  0
  4  6  1  1  0  0  0
  5  1  1  6  0  0  0
  5  2  1  0  0  0  0
  7  8  1  0  0  0  0
  7  6  1  0  0  0  0
  9  8  1  0  0  0  0
 10  9  1  0  0  0  0
 12 11  2  0  0  0  0
 12 16  1  0  0  0  0
 13 14  2  0  0  0  0
 14 16  1  0  0  0  0
 14 10  1  0  0  0  0
 15 17  1  0  0  0  0
 15 13  1  0  0  0  0
 17 12  1  0  0  0  0
 19 18  1  0  0  0  0
 20 23  1  0  0  0  0
 21 23  1  0  0  0  0
 21 19  1  0  0  0  0
 22 20  1  0  0  0  0
 24 22  1  0  0  0  0
 24 21  1  0  0  0  0
 25 32  1  0  0  0  0
 26 39  1  6  0  0  0
 26 27  1  0  0  0  0
 28 27  2  0  0  0  0
 29 31  1  0  0  0  0
 30 31  1  0  0  0  0
 30 32  2  0  0  0  0
 31 26  1  0  0  0  0
 32 28  1  0  0  0  0
 33 30  1  0  0  0  0
 34 37  1  0  0  0  0
 35 38  1  0  0  0  0
 36 34  2  0  0  0  0
 36 35  1  0  0  0  0
 37 39  1  0  0  0  0
 38 39  2  0  0  0  0
 40 34  1  0  0  0  0
 41 40  1  0  0  0  0
 42 41  1  0  0  0  0
M  END
>  <MODEL>
2

>  <REMARK>
 VINA RESULT:      -6.5      2.070      4.262
  Name = 
  15 active torsions:
  status: ('A' for Active; 'I' for Inactive)
    1  A    between atoms: C_2  and  C_39
    2  A    between atoms: N_3  and  C_8
    3  A    between atoms: N_3  and  C_16
    4  A    between atoms: C_5  and  O_32
    5  A    between atoms: N_6  and  C_15
    6  A    between atoms: N_6  and  C_17
    7  A    between atoms: C_8  and  C_21
    8  A    between atoms: C_10  and  C_13
    9  A    between atoms: C_10  and  C_34
   10  A    between atoms: C_13  and  C_16
   11  A    between atoms: C_17  and  C_26
   12  A    between atoms: C_26  and  C_30
   13  A    between atoms: C_26  and  C_37
   14  A    between atoms: C_27  and  C_30
   15  A    between atoms: O_31  and  O_32
                            x       y       z     vdW  Elec       q    Type
                         _______ _______ _______ _____ _____    ______ ____

>  <TORSDO>
F 15

$$$$
=
 OpenBabel11042415303D

 42 47  0  0  1  0  0  0  0  0999 V2000
  191.2990  176.1200  145.2590 C   0  0  2  0  0  3  0  0  0  0  0  0
  190.1110  177.0140  147.1990 N   0  0  0  0  0  2  0  0  0  0  0  0
  189.2760  177.4110  144.9260 N   0  0  0  0  0  2  0  0  0  0  0  0
  189.0560  176.7710  146.2180 C   0  0  2  0  0  0  0  0  0  0  0  0
  190.4200  177.2620  145.8030 C   0  0  1  0  0  0  0  0  0  0  0  0
  187.9310  177.6240  146.7710 C   0  0  0  0  0  2  0  0  0  0  0  0
  186.6800  176.7830  146.9460 C   0  0  0  0  0  2  0  0  0  0  0  0
  185.5270  177.6740  147.3580 C   0  0  0  0  0  2  0  0  0  0  0  0
  184.4450  177.5460  146.3930 N   0  0  0  0  0  2  0  0  0  0  0  0
  184.3690  178.8000  145.6600 C   0  0  0  0  0  2  0  0  0  0  0  0
  187.6300  178.6130  142.1570 O   0  0  0  0  0  0  0  0  0  0  0  0
  186.4230  178.5400  142.5070 C   0  0  0  0  0  0  0  0  0  0  0  0
  183.7840  178.4530  143.3420 N   0  0  0  0  0  0  0  0  0  0  0  0
  184.7300  178.5770  144.2290 C   0  0  0  0  0  0  0  0  0  0  0  0
  184.0370  178.1280  141.9330 C   0  0  0  0  0  2  0  0  0  0  0  0
  186.0770  178.5220  143.8560 O   0  0  0  0  0  0  0  0  0  0  0  0
  185.3870  178.5050  141.5290 N   0  0  0  0  0  2  0  0  0  0  0  0
  192.7850  176.4480  145.3470 C   0  0  0  0  0  2  0  0  0  0  0  0
  193.4740  175.4020  146.0820 N   0  0  0  0  0  2  0  0  0  0  0  0
  196.0660  175.7710  143.9540 N   0  0  0  0  0  2  0  0  0  0  0  0
  194.8930  175.7070  146.0360 C   0  0  0  0  0  3  0  0  0  0  0  0
  195.9720  174.4270  144.3600 N   0  0  0  0  0  2  0  0  0  0  0  0
  195.1820  176.5440  144.8180 C   0  0  0  0  0  2  0  0  0  0  0  0
  195.6670  174.4460  145.7790 C   0  0  0  0  0  2  0  0  0  0  0  0
  190.9740  175.8370  143.7910 C   0  0  0  0  0  2  0  0  0  0  0  0
  189.6310  171.7400  143.0720 C   0  0  1  0  0  3  0  0  0  0  0  0
  190.5720  172.1030  144.1870 C   0  0  0  0  0  3  0  0  0  0  0  0
  190.9460  173.3680  144.3970 C   0  0  0  0  0  3  0  0  0  0  0  0
  187.6010  172.6480  141.9120 C   0  0  0  0  0  1  0  0  0  0  0  0
  189.3580  174.2390  142.7610 C   0  0  0  0  0  0  0  0  0  0  0  0
  188.8450  172.8970  142.6250 N   0  0  0  0  0  0  0  0  0  0  0  0
  190.3950  174.4700  143.5910 C   0  0  0  0  0  0  0  0  0  0  0  0
  188.7130  175.3650  142.0080 C   0  0  0  0  0  1  0  0  0  0  0  0
  190.9730  171.3480  139.5260 C   0  0  0  0  0  0  0  0  0  0  0  0
  191.3400  169.2620  140.7710 C   0  0  0  0  0  2  0  0  0  0  0  0
  191.1510  170.0200  139.4870 C   0  0  0  0  0  3  0  0  0  0  0  0
  190.9290  172.0590  140.8510 C   0  0  0  0  0  2  0  0  0  0  0  0
  190.5760  169.8660  141.8480 N   0  0  0  0  0  0  0  0  0  0  0  0
  190.3920  171.1450  141.9230 C   0  0  0  0  0  0  0  0  0  0  0  0
  190.8320  172.0910  138.3540 O   0  0  0  0  0  0  0  0  0  0  0  0
  190.3500  173.3430  138.3730 O   0  0  0  0  0  0  0  0  0  0  0  0
  189.2650  173.3140  137.4960 C   0  0  0  0  0  1  0  0  0  0  0  0
  1 25  1  6  0  0  0
  1 18  1  0  0  0  0
  3  5  1  0  0  0  0
  3  4  1  0  0  0  0
  4  6  1  1  0  0  0
  4  2  1  0  0  0  0
  5  1  1  6  0  0  0
  5  4  1  0  0  0  0
  5  2  1  0  0  0  0
  6  7  1  0  0  0  0
  7  8  1  0  0  0  0
  9  8  1  0  0  0  0
 10  9  1  0  0  0  0
 11 12  2  0  0  0  0
 12 16  1  0  0  0  0
 13 14  2  0  0  0  0
 14 10  1  0  0  0  0
 15 13  1  0  0  0  0
 16 14  1  0  0  0  0
 17 15  1  0  0  0  0
 17 12  1  0  0  0  0
 18 19  1  0  0  0  0
 20 22  1  0  0  0  0
 20 23  1  0  0  0  0
 21 19  1  0  0  0  0
 22 24  1  0  0  0  0
 23 21  1  0  0  0  0
 24 21  1  0  0  0  0
 26 39  1  6  0  0  0
 26 27  1  0  0  0  0
 27 28  2  0  0  0  0
 29 31  1  0  0  0  0
 30 32  2  0  0  0  0
 31 30  1  0  0  0  0
 31 26  1  0  0  0  0
 32 25  1  0  0  0  0
 32 28  1  0  0  0  0
 33 30  1  0  0  0  0
 34 37  1  0  0  0  0
 35 38  1  0  0  0  0
 36 34  2  0  0  0  0
 36 35  1  0  0  0  0
 37 39  1  0  0  0  0
 38 39  2  0  0  0  0
 40 41  1  0  0  0  0
 40 34  1  0  0  0  0
 42 41  1  0  0  0  0
M  END
>  <MODEL>
3

>  <REMARK>
 VINA RESULT:      -6.4      2.714      5.716
  Name = 
  15 active torsions:
  status: ('A' for Active; 'I' for Inactive)
    1  A    between atoms: C_2  and  C_39
    2  A    between atoms: N_3  and  C_8
    3  A    between atoms: N_3  and  C_16
    4  A    between atoms: C_5  and  O_32
    5  A    between atoms: N_6  and  C_15
    6  A    between atoms: N_6  and  C_17
    7  A    between atoms: C_8  and  C_21
    8  A    between atoms: C_10  and  C_13
    9  A    between atoms: C_10  and  C_34
   10  A    between atoms: C_13  and  C_16
   11  A    between atoms: C_17  and  C_26
   12  A    between atoms: C_26  and  C_30
   13  A    between atoms: C_26  and  C_37
   14  A    between atoms: C_27  and  C_30
   15  A    between atoms: O_31  and  O_32
                            x       y       z     vdW  Elec       q    Type
                         _______ _______ _______ _____ _____    ______ ____

>  <TORSDO>
F 15

$$$$
=
 OpenBabel11042415303D

 42 47  0  0  1  0  0  0  0  0999 V2000
  191.1180  172.9200  143.4150 C   0  0  2  0  0  3  0  0  0  0  0  0
  192.2520  170.7640  143.6070 N   0  0  0  0  0  2  0  0  0  0  0  0
  193.5340  172.8560  143.5780 N   0  0  0  0  0  2  0  0  0  0  0  0
  193.1150  171.6850  144.3410 C   0  0  2  0  0  0  0  0  0  0  0  0
  192.3890  172.1130  143.0910 C   0  0  1  0  0  0  0  0  0  0  0  0
  194.4120  170.9020  144.3960 C   0  0  0  0  0  2  0  0  0  0  0  0
  194.9420  170.8740  145.8180 C   0  0  0  0  0  2  0  0  0  0  0  0
  196.4540  170.9470  145.7940 C   0  0  0  0  0  2  0  0  0  0  0  0
  196.8850  172.2550  146.2640 N   0  0  0  0  0  2  0  0  0  0  0  0
  197.4090  172.9770  145.1150 C   0  0  0  0  0  2  0  0  0  0  0  0
  196.4430  176.9070  142.5550 O   0  0  0  0  0  0  0  0  0  0  0  0
  196.2120  176.2050  143.5730 C   0  0  0  0  0  0  0  0  0  0  0  0
  195.8000  174.6370  145.8180 N   0  0  0  0  0  0  0  0  0  0  0  0
  196.6150  174.2210  144.8910 C   0  0  0  0  0  0  0  0  0  0  0  0
  194.9040  175.7860  145.6490 C   0  0  0  0  0  2  0  0  0  0  0  0
  196.7710  174.9340  143.6980 O   0  0  0  0  0  0  0  0  0  0  0  0
  195.3970  176.7060  144.6290 N   0  0  0  0  0  2  0  0  0  0  0  0
  190.1280  172.9220  142.2550 C   0  0  0  0  0  2  0  0  0  0  0  0
  190.7450  173.5200  141.0850 N   0  0  0  0  0  2  0  0  0  0  0  0
  187.9910  172.4710  139.4440 N   0  0  0  0  0  2  0  0  0  0  0  0
  189.6740  173.9810  140.2200 C   0  0  0  0  0  3  0  0  0  0  0  0
  189.1200  172.3280  138.6170 N   0  0  0  0  0  2  0  0  0  0  0  0
  188.3980  173.2730  140.5920 C   0  0  0  0  0  2  0  0  0  0  0  0
  189.9300  173.5170  138.8160 C   0  0  0  0  0  2  0  0  0  0  0  0
  191.4650  174.3770  143.7280 C   0  0  0  0  0  2  0  0  0  0  0  0
  188.9330  175.8110  146.9900 C   0  0  1  0  0  3  0  0  0  0  0  0
  189.0960  174.3510  146.6690 C   0  0  0  0  0  3  0  0  0  0  0  0
  189.8960  173.9420  145.6820 C   0  0  0  0  0  3  0  0  0  0  0  0
  190.2970  177.9140  147.0770 C   0  0  0  0  0  1  0  0  0  0  0  0
  190.8040  176.1790  145.3240 C   0  0  0  0  0  0  0  0  0  0  0  0
  190.0540  176.6100  146.4790 N   0  0  0  0  0  0  0  0  0  0  0  0
  190.7080  174.8980  144.9120 C   0  0  0  0  0  0  0  0  0  0  0  0
  191.7070  177.1450  144.6170 C   0  0  0  0  0  1  0  0  0  0  0  0
  186.5410  177.7110  144.7100 C   0  0  0  0  0  0  0  0  0  0  0  0
  185.3400  176.9870  146.7280 C   0  0  0  0  0  2  0  0  0  0  0  0
  185.5190  177.9080  145.5530 C   0  0  0  0  0  3  0  0  0  0  0  0
  187.5170  176.5950  144.9650 C   0  0  0  0  0  2  0  0  0  0  0  0
  186.6250  176.5320  147.2300 N   0  0  0  0  0  0  0  0  0  0  0  0
  187.6310  176.3210  146.4440 C   0  0  0  0  0  0  0  0  0  0  0  0
  186.7180  178.5210  143.5890 O   0  0  0  0  0  0  0  0  0  0  0  0
  185.6720  179.0550  142.9390 O   0  0  0  0  0  0  0  0  0  0  0  0
  185.5370  178.2720  141.7910 C   0  0  0  0  0  1  0  0  0  0  0  0
  1 18  1  6  0  0  0
  1 25  1  0  0  0  0
  2  4  1  0  0  0  0
  3  4  1  0  0  0  0
  4  6  1  6  0  0  0
  5  1  1  1  0  0  0
  5  3  1  0  0  0  0
  5  2  1  0  0  0  0
  5  4  1  0  0  0  0
  6  7  1  0  0  0  0
  8  7  1  0  0  0  0
  8  9  1  0  0  0  0
 10  9  1  0  0  0  0
 11 12  2  0  0  0  0
 12 16  1  0  0  0  0
 12 17  1  0  0  0  0
 14 10  1  0  0  0  0
 14 13  2  0  0  0  0
 15 13  1  0  0  0  0
 16 14  1  0  0  0  0
 17 15  1  0  0  0  0
 19 18  1  0  0  0  0
 20 23  1  0  0  0  0
 21 23  1  0  0  0  0
 21 19  1  0  0  0  0
 22 24  1  0  0  0  0
 22 20  1  0  0  0  0
 24 21  1  0  0  0  0
 25 32  1  0  0  0  0
 26 39  1  6  0  0  0
 27 26  1  0  0  0  0
 28 27  2  0  0  0  0
 30 31  1  0  0  0  0
 31 26  1  0  0  0  0
 31 29  1  0  0  0  0
 32 30  2  0  0  0  0
 32 28  1  0  0  0  0
 33 30  1  0  0  0  0
 34 37  1  0  0  0  0
 34 36  2  0  0  0  0
 35 38  1  0  0  0  0
 36 35  1  0  0  0  0
 37 39  1  0  0  0  0
 39 38  2  0  0  0  0
 40 34  1  0  0  0  0
 41 40  1  0  0  0  0
 42 41  1  0  0  0  0
M  END
>  <MODEL>
4

>  <REMARK>
 VINA RESULT:      -6.1      2.164      8.291
  Name = 
  15 active torsions:
  status: ('A' for Active; 'I' for Inactive)
    1  A    between atoms: C_2  and  C_39
    2  A    between atoms: N_3  and  C_8
    3  A    between atoms: N_3  and  C_16
    4  A    between atoms: C_5  and  O_32
    5  A    between atoms: N_6  and  C_15
    6  A    between atoms: N_6  and  C_17
    7  A    between atoms: C_8  and  C_21
    8  A    between atoms: C_10  and  C_13
    9  A    between atoms: C_10  and  C_34
   10  A    between atoms: C_13  and  C_16
   11  A    between atoms: C_17  and  C_26
   12  A    between atoms: C_26  and  C_30
   13  A    between atoms: C_26  and  C_37
   14  A    between atoms: C_27  and  C_30
   15  A    between atoms: O_31  and  O_32
                            x       y       z     vdW  Elec       q    Type
                         _______ _______ _______ _____ _____    ______ ____

>  <TORSDO>
F 15

$$$$
=
 OpenBabel11042415303D

 42 47  0  0  1  0  0  0  0  0999 V2000
  188.2830  177.1370  144.4060 C   0  0  2  0  0  3  0  0  0  0  0  0
  186.2470  178.1430  143.5050 N   0  0  0  0  0  2  0  0  0  0  0  0
  188.2870  178.0100  142.1470 N   0  0  0  0  0  2  0  0  0  0  0  0
  186.9080  177.5720  142.3350 C   0  0  2  0  0  0  0  0  0  0  0  0
  187.6960  178.1980  143.4570 C   0  0  1  0  0  0  0  0  0  0  0  0
  186.2170  178.3140  141.2070 C   0  0  0  0  0  2  0  0  0  0  0  0
  184.9710  177.5610  140.7780 C   0  0  0  0  0  2  0  0  0  0  0  0
  183.8510  178.5470  140.5170 C   0  0  0  0  0  2  0  0  0  0  0  0
  182.5690  177.8710  140.6440 N   0  0  0  0  0  2  0  0  0  0  0  0
  181.5680  178.8900  140.9160 C   0  0  0  0  0  2  0  0  0  0  0  0
  177.8160  176.9340  143.1600 O   0  0  0  0  0  0  0  0  0  0  0  0
  178.3660  177.2700  142.0790 C   0  0  0  0  0  0  0  0  0  0  0  0
  179.6630  177.9830  139.7390 N   0  0  0  0  0  0  0  0  0  0  0  0
  180.2040  178.2850  140.8850 C   0  0  0  0  0  0  0  0  0  0  0  0
  178.2910  177.4830  139.6010 C   0  0  0  0  0  2  0  0  0  0  0  0
  179.5320  178.0340  142.0850 O   0  0  0  0  0  0  0  0  0  0  0  0
  177.8230  176.8510  140.8300 N   0  0  0  0  0  2  0  0  0  0  0  0
  187.2370  176.5860  145.3680 C   0  0  0  0  0  2  0  0  0  0  0  0
  187.5500  177.0010  146.7240 N   0  0  0  0  0  2  0  0  0  0  0  0
  184.3340  177.9830  146.4530 N   0  0  0  0  0  2  0  0  0  0  0  0
  186.2980  177.0600  147.4570 C   0  0  0  0  0  3  0  0  0  0  0  0
  185.1170  179.0460  146.9380 N   0  0  0  0  0  2  0  0  0  0  0  0
  185.1580  176.7810  146.5140 C   0  0  0  0  0  2  0  0  0  0  0  0
  186.0430  178.4730  147.8970 C   0  0  0  0  0  2  0  0  0  0  0  0
  189.4170  177.7270  145.2460 C   0  0  0  0  0  2  0  0  0  0  0  0
  193.1470  175.9210  143.8560 C   0  0  1  0  0  3  0  0  0  0  0  0
  192.5640  177.1610  143.2360 C   0  0  0  0  0  3  0  0  0  0  0  0
  191.4350  177.7030  143.6990 C   0  0  0  0  0  3  0  0  0  0  0  0
  193.4350  174.8650  146.1130 C   0  0  0  0  0  1  0  0  0  0  0  0
  191.3640  176.2130  145.6310 C   0  0  0  0  0  0  0  0  0  0  0  0
  192.6540  175.7120  145.2240 N   0  0  0  0  0  0  0  0  0  0  0  0
  190.7520  177.1530  144.8810 C   0  0  0  0  0  0  0  0  0  0  0  0
  190.7330  175.7120  146.8960 C   0  0  0  0  0  1  0  0  0  0  0  0
  191.1100  173.1520  142.2100 C   0  0  0  0  0  0  0  0  0  0  0  0
  193.5040  172.6560  141.9660 C   0  0  0  0  0  2  0  0  0  0  0  0
  192.0640  172.2280  142.0370 C   0  0  0  0  0  3  0  0  0  0  0  0
  191.4880  174.5990  142.3660 C   0  0  0  0  0  2  0  0  0  0  0  0
  193.7450  173.8060  142.8180 N   0  0  0  0  0  0  0  0  0  0  0  0
  192.8500  174.7240  143.0010 C   0  0  0  0  0  0  0  0  0  0  0  0
  189.7610  172.7980  142.2430 O   0  0  0  0  0  0  0  0  0  0  0  0
  188.8470  173.4530  141.5110 O   0  0  0  0  0  0  0  0  0  0  0  0
  187.6200  172.9720  141.9710 C   0  0  0  0  0  1  0  0  0  0  0  0
  1 25  1  1  0  0  0
  1 18  1  0  0  0  0
  3  4  1  0  0  0  0
  3  5  1  0  0  0  0
  4  6  1  6  0  0  0
  4  5  1  0  0  0  0
  4  2  1  0  0  0  0
  5  2  1  0  0  0  0
  5  1  1  1  0  0  0
  7  6  1  0  0  0  0
  8  9  1  0  0  0  0
  8  7  1  0  0  0  0
  9 10  1  0  0  0  0
 12 16  1  0  0  0  0
 12 11  2  0  0  0  0
 13 14  2  0  0  0  0
 14 10  1  0  0  0  0
 14 16  1  0  0  0  0
 15 13  1  0  0  0  0
 15 17  1  0  0  0  0
 17 12  1  0  0  0  0
 18 19  1  0  0  0  0
 19 21  1  0  0  0  0
 20 23  1  0  0  0  0
 20 22  1  0  0  0  0
 21 24  1  0  0  0  0
 22 24  1  0  0  0  0
 23 21  1  0  0  0  0
 26 39  1  6  0  0  0
 26 31  1  0  0  0  0
 27 28  2  0  0  0  0
 27 26  1  0  0  0  0
 28 32  1  0  0  0  0
 30 33  1  0  0  0  0
 31 30  1  0  0  0  0
 31 29  1  0  0  0  0
 32 25  1  0  0  0  0
 32 30  2  0  0  0  0
 34 40  1  0  0  0  0
 34 37  1  0  0  0  0
 35 36  1  0  0  0  0
 35 38  1  0  0  0  0
 36 34  2  0  0  0  0
 37 39  1  0  0  0  0
 38 39  2  0  0  0  0
 41 42  1  0  0  0  0
 41 40  1  0  0  0  0
M  END
>  <MODEL>
5

>  <REMARK>
 VINA RESULT:      -6.1      3.591      6.227
  Name = 
  15 active torsions:
  status: ('A' for Active; 'I' for Inactive)
    1  A    between atoms: C_2  and  C_39
    2  A    between atoms: N_3  and  C_8
    3  A    between atoms: N_3  and  C_16
    4  A    between atoms: C_5  and  O_32
    5  A    between atoms: N_6  and  C_15
    6  A    between atoms: N_6  and  C_17
    7  A    between atoms: C_8  and  C_21
    8  A    between atoms: C_10  and  C_13
    9  A    between atoms: C_10  and  C_34
   10  A    between atoms: C_13  and  C_16
   11  A    between atoms: C_17  and  C_26
   12  A    between atoms: C_26  and  C_30
   13  A    between atoms: C_26  and  C_37
   14  A    between atoms: C_27  and  C_30
   15  A    between atoms: O_31  and  O_32
                            x       y       z     vdW  Elec       q    Type
                         _______ _______ _______ _____ _____    ______ ____

>  <TORSDO>
F 15

$$$$
=
 OpenBabel11042415303D

 42 47  0  0  1  0  0  0  0  0999 V2000
  190.0720  174.1000  142.2810 C   0  0  2  0  0  3  0  0  0  0  0  0
  188.1900  174.8400  140.9080 N   0  0  0  0  0  2  0  0  0  0  0  0
  188.2260  175.2710  143.3230 N   0  0  0  0  0  2  0  0  0  0  0  0
  188.2610  175.8320  141.9770 C   0  0  2  0  0  0  0  0  0  0  0  0
  188.5570  174.3760  142.2330 C   0  0  1  0  0  0  0  0  0  0  0  0
  186.8840  176.4610  141.8940 C   0  0  0  0  0  2  0  0  0  0  0  0
  187.0090  177.9680  141.7620 C   0  0  0  0  0  2  0  0  0  0  0  0
  185.6280  178.5790  141.6380 C   0  0  0  0  0  2  0  0  0  0  0  0
  184.9470  178.5050  142.9210 N   0  0  0  0  0  2  0  0  0  0  0  0
  185.6350  179.4090  143.8290 C   0  0  0  0  0  2  0  0  0  0  0  0
  187.7850  176.1500  146.6030 O   0  0  0  0  0  0  0  0  0  0  0  0
  186.9210  177.0570  146.4840 C   0  0  0  0  0  0  0  0  0  0  0  0
  185.0020  179.0220  146.1280 N   0  0  0  0  0  0  0  0  0  0  0  0
  185.8250  178.7510  145.1560 C   0  0  0  0  0  0  0  0  0  0  0  0
  185.1670  178.5070  147.4920 C   0  0  0  0  0  2  0  0  0  0  0  0
  186.8710  177.8400  145.3310 O   0  0  0  0  0  0  0  0  0  0  0  0
  185.9600  177.2820  147.5120 N   0  0  0  0  0  2  0  0  0  0  0  0
  190.5050  173.0920  141.2210 C   0  0  0  0  0  2  0  0  0  0  0  0
  191.4720  173.7050  140.3280 N   0  0  0  0  0  2  0  0  0  0  0  0
  191.8300  171.5610  137.7490 N   0  0  0  0  0  2  0  0  0  0  0  0
  191.0260  173.4520  138.9700 C   0  0  0  0  0  3  0  0  0  0  0  0
  192.7930  172.5810  137.6560 N   0  0  0  0  0  2  0  0  0  0  0  0
  190.8700  171.9680  138.7680 C   0  0  0  0  0  2  0  0  0  0  0  0
  192.1190  173.8180  138.0080 C   0  0  0  0  0  2  0  0  0  0  0  0
  190.4800  173.5410  143.6450 C   0  0  0  0  0  2  0  0  0  0  0  0
  194.0810  175.6800  144.8940 C   0  0  1  0  0  3  0  0  0  0  0  0
  192.7290  176.3340  144.8260 C   0  0  0  0  0  3  0  0  0  0  0  0
  191.6420  175.6480  144.4640 C   0  0  0  0  0  3  0  0  0  0  0  0
  195.1140  173.4880  145.5440 C   0  0  0  0  0  1  0  0  0  0  0  0
  192.8300  173.5160  144.4840 C   0  0  0  0  0  0  0  0  0  0  0  0
  193.9740  174.2200  145.0120 N   0  0  0  0  0  0  0  0  0  0  0  0
  191.7090  174.2050  144.1860 C   0  0  0  0  0  0  0  0  0  0  0  0
  192.8850  172.0280  144.3070 C   0  0  0  0  0  1  0  0  0  0  0  0
  195.2480  175.7130  141.2660 C   0  0  0  0  0  0  0  0  0  0  0  0
  196.9610  176.7610  142.6820 C   0  0  0  0  0  2  0  0  0  0  0  0
  196.5380  176.0330  141.4360 C   0  0  0  0  0  3  0  0  0  0  0  0
  194.2450  176.0520  142.3340 C   0  0  0  0  0  2  0  0  0  0  0  0
  196.1510  176.3580  143.8180 N   0  0  0  0  0  0  0  0  0  0  0  0
  194.9000  176.0520  143.6930 C   0  0  0  0  0  0  0  0  0  0  0  0
  194.8110  175.0720  140.1070 O   0  0  0  0  0  0  0  0  0  0  0  0
  195.6620  174.4020  139.3140 O   0  0  0  0  0  0  0  0  0  0  0  0
  195.5340  175.0150  138.0670 C   0  0  0  0  0  1  0  0  0  0  0  0
  1 18  1  6  0  0  0
  1 25  1  0  0  0  0
  2  4  1  0  0  0  0
  2  5  1  0  0  0  0
  4  6  1  1  0  0  0
  4  5  1  0  0  0  0
  4  3  1  0  0  0  0
  5  1  1  1  0  0  0
  5  3  1  0  0  0  0
  7  6  1  0  0  0  0
  8  7  1  0  0  0  0
  8  9  1  0  0  0  0
  9 10  1  0  0  0  0
 10 14  1  0  0  0  0
 12 11  2  0  0  0  0
 12 17  1  0  0  0  0
 13 15  1  0  0  0  0
 14 16  1  0  0  0  0
 14 13  2  0  0  0  0
 15 17  1  0  0  0  0
 16 12  1  0  0  0  0
 19 18  1  0  0  0  0
 20 23  1  0  0  0  0
 21 19  1  0  0  0  0
 22 20  1  0  0  0  0
 22 24  1  0  0  0  0
 23 21  1  0  0  0  0
 24 21  1  0  0  0  0
 25 32  1  0  0  0  0
 26 39  1  6  0  0  0
 26 31  1  0  0  0  0
 27 26  1  0  0  0  0
 28 27  2  0  0  0  0
 30 31  1  0  0  0  0
 31 29  1  0  0  0  0
 32 28  1  0  0  0  0
 32 30  2  0  0  0  0
 33 30  1  0  0  0  0
 34 36  2  0  0  0  0
 34 37  1  0  0  0  0
 35 38  1  0  0  0  0
 36 35  1  0  0  0  0
 37 39  1  0  0  0  0
 39 38  2  0  0  0  0
 40 34  1  0  0  0  0
 41 40  1  0  0  0  0
 42 41  1  0  0  0  0
M  END
>  <MODEL>
6

>  <REMARK>
 VINA RESULT:      -6.0      2.147      3.007
  Name = 
  15 active torsions:
  status: ('A' for Active; 'I' for Inactive)
    1  A    between atoms: C_2  and  C_39
    2  A    between atoms: N_3  and  C_8
    3  A    between atoms: N_3  and  C_16
    4  A    between atoms: C_5  and  O_32
    5  A    between atoms: N_6  and  C_15
    6  A    between atoms: N_6  and  C_17
    7  A    between atoms: C_8  and  C_21
    8  A    between atoms: C_10  and  C_13
    9  A    between atoms: C_10  and  C_34
   10  A    between atoms: C_13  and  C_16
   11  A    between atoms: C_17  and  C_26
   12  A    between atoms: C_26  and  C_30
   13  A    between atoms: C_26  and  C_37
   14  A    between atoms: C_27  and  C_30
   15  A    between atoms: O_31  and  O_32
                            x       y       z     vdW  Elec       q    Type
                         _______ _______ _______ _____ _____    ______ ____

>  <TORSDO>
F 15

$$$$
=
 OpenBabel11042415303D

 42 47  0  0  1  0  0  0  0  0999 V2000
  191.1400  176.3040  144.1720 C   0  0  2  0  0  3  0  0  0  0  0  0
  190.3800  176.3560  146.4940 N   0  0  0  0  0  2  0  0  0  0  0  0
  189.3850  177.8440  144.8160 N   0  0  0  0  0  2  0  0  0  0  0  0
  189.1930  176.7190  145.7240 C   0  0  2  0  0  0  0  0  0  0  0  0
  190.5710  177.1720  145.3090 C   0  0  1  0  0  0  0  0  0  0  0  0
  188.3270  177.3590  146.7920 C   0  0  0  0  0  2  0  0  0  0  0  0
  186.9920  176.6430  146.8750 C   0  0  0  0  0  2  0  0  0  0  0  0
  185.9300  177.6110  147.3510 C   0  0  0  0  0  2  0  0  0  0  0  0
  184.7630  177.5170  146.4870 N   0  0  0  0  0  2  0  0  0  0  0  0
  184.6260  178.7940  145.8040 C   0  0  0  0  0  2  0  0  0  0  0  0
  187.6050  178.6770  142.0570 O   0  0  0  0  0  0  0  0  0  0  0  0
  186.4270  178.6150  142.4950 C   0  0  0  0  0  0  0  0  0  0  0  0
  183.8580  178.5480  143.5270 N   0  0  0  0  0  0  0  0  0  0  0  0
  184.8710  178.6190  144.3430 C   0  0  0  0  0  0  0  0  0  0  0  0
  183.9950  178.2730  142.0920 C   0  0  0  0  0  2  0  0  0  0  0  0
  186.1840  178.5520  143.8660 O   0  0  0  0  0  0  0  0  0  0  0  0
  185.3190  178.6380  141.5990 N   0  0  0  0  0  2  0  0  0  0  0  0
  192.5680  176.6970  143.8100 C   0  0  0  0  0  2  0  0  0  0  0  0
  193.4160  176.6030  144.9850 N   0  0  0  0  0  2  0  0  0  0  0  0
  196.3590  174.9960  144.6150 N   0  0  0  0  0  2  0  0  0  0  0  0
  194.0130  175.2790  144.9800 C   0  0  0  0  0  3  0  0  0  0  0  0
  195.7380  175.1450  143.3620 N   0  0  0  0  0  2  0  0  0  0  0  0
  195.3700  175.3460  145.6290 C   0  0  0  0  0  2  0  0  0  0  0  0
  194.3260  174.8770  143.5670 C   0  0  0  0  0  2  0  0  0  0  0  0
  190.2890  176.4380  142.9080 C   0  0  0  0  0  2  0  0  0  0  0  0
  189.5010  172.7110  140.7630 C   0  0  1  0  0  3  0  0  0  0  0  0
  190.8920  173.2050  141.0510 C   0  0  0  0  0  3  0  0  0  0  0  0
  191.1010  174.3360  141.7300 C   0  0  0  0  0  3  0  0  0  0  0  0
  187.2480  172.6000  141.8580 C   0  0  0  0  0  1  0  0  0  0  0  0
  188.7390  174.5820  142.2920 C   0  0  0  0  0  0  0  0  0  0  0  0
  188.5160  173.2910  141.6850 N   0  0  0  0  0  0  0  0  0  0  0  0
  189.9810  175.1090  142.2890 C   0  0  0  0  0  0  0  0  0  0  0  0
  187.6010  175.3050  142.9480 C   0  0  0  0  0  1  0  0  0  0  0  0
  189.5880  172.5170  136.9580 C   0  0  0  0  0  0  0  0  0  0  0  0
  188.2880  174.4860  137.6430 C   0  0  0  0  0  2  0  0  0  0  0  0
  189.1330  173.7390  136.6490 C   0  0  0  0  0  3  0  0  0  0  0  0
  189.2800  171.9210  138.3040 C   0  0  0  0  0  2  0  0  0  0  0  0
  188.6940  174.1790  139.0030 N   0  0  0  0  0  0  0  0  0  0  0  0
  189.1290  173.0070  139.3400 C   0  0  0  0  0  0  0  0  0  0  0  0
  190.3420  171.7770  136.0470 O   0  0  0  0  0  0  0  0  0  0  0  0
  190.5540  170.4630  136.2180 O   0  0  0  0  0  0  0  0  0  0  0  0
  191.9420  170.3380  136.2830 C   0  0  0  0  0  1  0  0  0  0  0  0
  1 25  1  6  0  0  0
  3  5  1  0  0  0  0
  3  4  1  0  0  0  0
  4  2  1  0  0  0  0
  4  6  1  1  0  0  0
  5  1  1  6  0  0  0
  5  4  1  0  0  0  0
  5  2  1  0  0  0  0
  6  7  1  0  0  0  0
  7  8  1  0  0  0  0
  9  8  1  0  0  0  0
 10  9  1  0  0  0  0
 11 12  2  0  0  0  0
 12 16  1  0  0  0  0
 13 14  2  0  0  0  0
 14 10  1  0  0  0  0
 15 13  1  0  0  0  0
 16 14  1  0  0  0  0
 17 15  1  0  0  0  0
 17 12  1  0  0  0  0
 18  1  1  0  0  0  0
 18 19  1  0  0  0  0
 20 23  1  0  0  0  0
 21 19  1  0  0  0  0
 21 23  1  0  0  0  0
 22 24  1  0  0  0  0
 22 20  1  0  0  0  0
 24 21  1  0  0  0  0
 26 39  1  6  0  0  0
 26 27  1  0  0  0  0
 26 31  1  0  0  0  0
 27 28  2  0  0  0  0
 28 32  1  0  0  0  0
 30 33  1  0  0  0  0
 31 29  1  0  0  0  0
 31 30  1  0  0  0  0
 32 30  2  0  0  0  0
 32 25  1  0  0  0  0
 34 37  1  0  0  0  0
 35 38  1  0  0  0  0
 36 34  2  0  0  0  0
 36 35  1  0  0  0  0
 37 39  1  0  0  0  0
 38 39  2  0  0  0  0
 40 41  1  0  0  0  0
 40 34  1  0  0  0  0
 41 42  1  0  0  0  0
M  END
>  <MODEL>
7

>  <REMARK>
 VINA RESULT:      -6.0      3.247      6.364
  Name = 
  15 active torsions:
  status: ('A' for Active; 'I' for Inactive)
    1  A    between atoms: C_2  and  C_39
    2  A    between atoms: N_3  and  C_8
    3  A    between atoms: N_3  and  C_16
    4  A    between atoms: C_5  and  O_32
    5  A    between atoms: N_6  and  C_15
    6  A    between atoms: N_6  and  C_17
    7  A    between atoms: C_8  and  C_21
    8  A    between atoms: C_10  and  C_13
    9  A    between atoms: C_10  and  C_34
   10  A    between atoms: C_13  and  C_16
   11  A    between atoms: C_17  and  C_26
   12  A    between atoms: C_26  and  C_30
   13  A    between atoms: C_26  and  C_37
   14  A    between atoms: C_27  and  C_30
   15  A    between atoms: O_31  and  O_32
                            x       y       z     vdW  Elec       q    Type
                         _______ _______ _______ _____ _____    ______ ____

>  <TORSDO>
F 15

$$$$
=
 OpenBabel11042415303D

 42 47  0  0  1  0  0  0  0  0999 V2000
  187.4550  175.8930  143.2900 C   0  0  2  0  0  3  0  0  0  0  0  0
  188.6190  175.6130  141.1600 N   0  0  0  0  0  2  0  0  0  0  0  0
  188.7530  173.8860  142.8980 N   0  0  0  0  0  2  0  0  0  0  0  0
  188.2870  174.2490  141.5640 C   0  0  2  0  0  0  0  0  0  0  0  0
  188.6820  175.2970  142.5740 C   0  0  1  0  0  0  0  0  0  0  0  0
  189.2360  173.4410  140.7000 C   0  0  0  0  0  2  0  0  0  0  0  0
  188.4830  172.8370  139.5290 C   0  0  0  0  0  2  0  0  0  0  0  0
  189.4610  172.4990  138.4220 C   0  0  0  0  0  2  0  0  0  0  0  0
  190.0890  173.7190  137.9390 N   0  0  0  0  0  2  0  0  0  0  0  0
  189.8560  173.7870  136.5050 C   0  0  0  0  0  2  0  0  0  0  0  0
  185.6730  176.0490  137.0630 O   0  0  0  0  0  0  0  0  0  0  0  0
  186.7910  175.9860  136.4910 C   0  0  0  0  0  0  0  0  0  0  0  0
  189.2450  175.7460  135.2300 N   0  0  0  0  0  0  0  0  0  0  0  0
  188.9390  174.9220  136.1910 C   0  0  0  0  0  0  0  0  0  0  0  0
  188.4630  176.9470  134.9170 C   0  0  0  0  0  2  0  0  0  0  0  0
  187.7550  175.0740  136.9190 O   0  0  0  0  0  0  0  0  0  0  0  0
  187.0830  176.8240  135.3750 N   0  0  0  0  0  2  0  0  0  0  0  0
  186.9160  177.1270  142.5740 C   0  0  0  0  0  2  0  0  0  0  0  0
  185.4640  177.1060  142.5880 N   0  0  0  0  0  2  0  0  0  0  0  0
  185.5330  179.9690  144.3710 N   0  0  0  0  0  2  0  0  0  0  0  0
  185.0140  178.4870  142.5690 C   0  0  0  0  0  3  0  0  0  0  0  0
  184.4150  179.2020  144.7460 N   0  0  0  0  0  2  0  0  0  0  0  0
  186.0830  179.3650  143.1630 C   0  0  0  0  0  2  0  0  0  0  0  0
  183.8640  178.6500  143.5210 C   0  0  0  0  0  2  0  0  0  0  0  0
  187.8070  176.3050  144.7200 C   0  0  0  0  0  2  0  0  0  0  0  0
  192.1150  177.0350  144.8320 C   0  0  1  0  0  3  0  0  0  0  0  0
  191.1400  178.0140  144.2400 C   0  0  0  0  0  3  0  0  0  0  0  0
  189.8260  177.7740  144.2420 C   0  0  0  0  0  3  0  0  0  0  0  0
  192.2970  175.4490  146.7670 C   0  0  0  0  0  1  0  0  0  0  0  0
  190.0630  175.8010  145.6580 C   0  0  0  0  0  0  0  0  0  0  0  0
  191.4640  176.1250  145.7840 N   0  0  0  0  0  0  0  0  0  0  0  0
  189.2710  176.5750  144.8890 C   0  0  0  0  0  0  0  0  0  0  0  0
  189.4980  174.6330  146.4100 C   0  0  0  0  0  1  0  0  0  0  0  0
  194.8280  176.0340  142.3490 C   0  0  0  0  0  0  0  0  0  0  0  0
  192.7280  174.9050  141.7580 C   0  0  0  0  0  2  0  0  0  0  0  0
  194.0780  175.4590  141.3990 C   0  0  0  0  0  3  0  0  0  0  0  0
  194.3000  176.1510  143.7520 C   0  0  0  0  0  2  0  0  0  0  0  0
  192.1040  175.6960  142.8030 N   0  0  0  0  0  0  0  0  0  0  0  0
  192.7950  176.2580  143.7430 C   0  0  0  0  0  0  0  0  0  0  0  0
  196.1020  176.5260  142.0630 O   0  0  0  0  0  0  0  0  0  0  0  0
  197.1600  176.2190  142.8300 O   0  0  0  0  0  0  0  0  0  0  0  0
  197.5280  174.9370  142.4190 C   0  0  0  0  0  1  0  0  0  0  0  0
  1 18  1  6  0  0  0
  1 25  1  0  0  0  0
  2  4  1  0  0  0  0
  2  5  1  0  0  0  0
  4  6  1  6  0  0  0
  4  5  1  0  0  0  0
  4  3  1  0  0  0  0
  5  3  1  0  0  0  0
  5  1  1  1  0  0  0
  7  6  1  0  0  0  0
  8  7  1  0  0  0  0
  9  8  1  0  0  0  0
 10  9  1  0  0  0  0
 12 16  1  0  0  0  0
 12 11  2  0  0  0  0
 13 14  2  0  0  0  0
 14 10  1  0  0  0  0
 14 16  1  0  0  0  0
 15 13  1  0  0  0  0
 15 17  1  0  0  0  0
 17 12  1  0  0  0  0
 18 19  1  0  0  0  0
 20 22  1  0  0  0  0
 21 19  1  0  0  0  0
 21 23  1  0  0  0  0
 21 24  1  0  0  0  0
 23 20  1  0  0  0  0
 24 22  1  0  0  0  0
 25 32  1  0  0  0  0
 26 39  1  6  0  0  0
 26 31  1  0  0  0  0
 27 28  2  0  0  0  0
 27 26  1  0  0  0  0
 28 32  1  0  0  0  0
 30 31  1  0  0  0  0
 30 33  1  0  0  0  0
 31 29  1  0  0  0  0
 32 30  2  0  0  0  0
 34 37  1  0  0  0  0
 35 38  1  0  0  0  0
 36 35  1  0  0  0  0
 36 34  2  0  0  0  0
 38 39  2  0  0  0  0
 39 37  1  0  0  0  0
 40 34  1  0  0  0  0
 40 41  1  0  0  0  0
 42 41  1  0  0  0  0
M  END
>  <MODEL>
8

>  <REMARK>
 VINA RESULT:      -6.0      3.175      6.457
  Name = 
  15 active torsions:
  status: ('A' for Active; 'I' for Inactive)
    1  A    between atoms: C_2  and  C_39
    2  A    between atoms: N_3  and  C_8
    3  A    between atoms: N_3  and  C_16
    4  A    between atoms: C_5  and  O_32
    5  A    between atoms: N_6  and  C_15
    6  A    between atoms: N_6  and  C_17
    7  A    between atoms: C_8  and  C_21
    8  A    between atoms: C_10  and  C_13
    9  A    between atoms: C_10  and  C_34
   10  A    between atoms: C_13  and  C_16
   11  A    between atoms: C_17  and  C_26
   12  A    between atoms: C_26  and  C_30
   13  A    between atoms: C_26  and  C_37
   14  A    between atoms: C_27  and  C_30
   15  A    between atoms: O_31  and  O_32
                            x       y       z     vdW  Elec       q    Type
                         _______ _______ _______ _____ _____    ______ ____

>  <TORSDO>
F 15

$$$$
=
 OpenBabel11042415303D

 42 47  0  0  1  0  0  0  0  0999 V2000
  191.0750  174.6630  143.3500 C   0  0  2  0  0  3  0  0  0  0  0  0
  193.0160  173.2580  142.8720 N   0  0  0  0  0  2  0  0  0  0  0  0
  191.4040  173.8100  141.1070 N   0  0  0  0  0  2  0  0  0  0  0  0
  192.7640  173.9540  141.6140 C   0  0  2  0  0  0  0  0  0  0  0  0
  191.6340  173.5030  142.5050 C   0  0  1  0  0  0  0  0  0  0  0  0
  193.5280  173.0860  140.6320 C   0  0  0  0  0  2  0  0  0  0  0  0
  194.4740  173.9410  139.8100 C   0  0  0  0  0  2  0  0  0  0  0  0
  194.6030  175.3080  140.4500 C   0  0  0  0  0  2  0  0  0  0  0  0
  195.9360  175.4580  141.0130 N   0  0  0  0  0  2  0  0  0  0  0  0
  195.8630  176.4940  142.0310 C   0  0  0  0  0  2  0  0  0  0  0  0
  194.4040  176.7760  146.5840 O   0  0  0  0  0  0  0  0  0  0  0  0
  194.9460  176.1030  145.6690 C   0  0  0  0  0  0  0  0  0  0  0  0
  196.1830  174.7060  143.6230 N   0  0  0  0  0  0  0  0  0  0  0  0
  195.6650  175.8750  143.3750 C   0  0  0  0  0  0  0  0  0  0  0  0
  195.9570  173.9720  144.8740 C   0  0  0  0  0  2  0  0  0  0  0  0
  194.9450  176.5650  144.3540 O   0  0  0  0  0  0  0  0  0  0  0  0
  195.5980  174.8710  145.9660 N   0  0  0  0  0  2  0  0  0  0  0  0
  191.5420  174.5940  144.8000 C   0  0  0  0  0  2  0  0  0  0  0  0
  191.4750  175.9140  145.4000 N   0  0  0  0  0  2  0  0  0  0  0  0
  190.0610  177.7580  147.8450 N   0  0  0  0  0  2  0  0  0  0  0  0
  190.4790  175.8590  146.4540 C   0  0  0  0  0  3  0  0  0  0  0  0
  191.1930  177.0900  148.3470 N   0  0  0  0  0  2  0  0  0  0  0  0
  189.7700  177.1850  146.5360 C   0  0  0  0  0  2  0  0  0  0  0  0
  191.1650  175.7520  147.7860 C   0  0  0  0  0  2  0  0  0  0  0  0
  189.5450  174.6420  143.3570 C   0  0  0  0  0  2  0  0  0  0  0  0
  187.6550  177.9570  141.2250 C   0  0  1  0  0  3  0  0  0  0  0  0
  188.7780  178.1560  142.2060 C   0  0  0  0  0  3  0  0  0  0  0  0
  189.3520  177.1200  142.8240 C   0  0  0  0  0  3  0  0  0  0  0  0
  186.9420  176.3520  139.4350 C   0  0  0  0  0  1  0  0  0  0  0  0
  188.1530  175.4850  141.4650 C   0  0  0  0  0  0  0  0  0  0  0  0
  187.6320  176.5880  140.6940 N   0  0  0  0  0  0  0  0  0  0  0  0
  188.9590  175.7360  142.5170 C   0  0  0  0  0  0  0  0  0  0  0  0
  187.8230  174.0760  141.0700 C   0  0  0  0  0  1  0  0  0  0  0  0
  185.1330  178.6630  143.9940 C   0  0  0  0  0  0  0  0  0  0  0  0
  183.9380  178.2900  141.8800 C   0  0  0  0  0  2  0  0  0  0  0  0
  184.0010  178.2910  143.3820 C   0  0  0  0  0  3  0  0  0  0  0  0
  186.3370  179.0420  143.1760 C   0  0  0  0  0  2  0  0  0  0  0  0
  185.2270  177.9440  141.3070 N   0  0  0  0  0  0  0  0  0  0  0  0
  186.3410  178.2960  141.8650 C   0  0  0  0  0  0  0  0  0  0  0  0
  185.2170  178.7130  145.3860 O   0  0  0  0  0  0  0  0  0  0  0  0
  184.4660  177.9170  146.1620 O   0  0  0  0  0  0  0  0  0  0  0  0
  185.2960  176.8350  146.4590 C   0  0  0  0  0  1  0  0  0  0  0  0
  1 25  1  1  0  0  0
  1 18  1  0  0  0  0
  3  4  1  0  0  0  0
  3  5  1  0  0  0  0
  4  6  1  6  0  0  0
  4  5  1  0  0  0  0
  4  2  1  0  0  0  0
  5  2  1  0  0  0  0
  5  1  1  1  0  0  0
  7  8  1  0  0  0  0
  7  6  1  0  0  0  0
  8  9  1  0  0  0  0
  9 10  1  0  0  0  0
 10 14  1  0  0  0  0
 12 17  1  0  0  0  0
 12 11  2  0  0  0  0
 13 15  1  0  0  0  0
 14 13  2  0  0  0  0
 14 16  1  0  0  0  0
 15 17  1  0  0  0  0
 16 12  1  0  0  0  0
 18 19  1  0  0  0  0
 19 21  1  0  0  0  0
 20 22  1  0  0  0  0
 21 23  1  0  0  0  0
 21 24  1  0  0  0  0
 23 20  1  0  0  0  0
 24 22  1  0  0  0  0
 26 39  1  1  0  0  0
 26 27  1  0  0  0  0
 27 28  2  0  0  0  0
 29 31  1  0  0  0  0
 30 32  2  0  0  0  0
 31 26  1  0  0  0  0
 31 30  1  0  0  0  0
 32 28  1  0  0  0  0
 32 25  1  0  0  0  0
 33 30  1  0  0  0  0
 34 40  1  0  0  0  0
 35 36  1  0  0  0  0
 36 34  2  0  0  0  0
 37 34  1  0  0  0  0
 38 39  2  0  0  0  0
 38 35  1  0  0  0  0
 39 37  1  0  0  0  0
 40 41  1  0  0  0  0
 41 42  1  0  0  0  0
M  END
>  <MODEL>
9

>  <REMARK>
 VINA RESULT:      -5.9      1.944      8.597
  Name = 
  15 active torsions:
  status: ('A' for Active; 'I' for Inactive)
    1  A    between atoms: C_2  and  C_39
    2  A    between atoms: N_3  and  C_8
    3  A    between atoms: N_3  and  C_16
    4  A    between atoms: C_5  and  O_32
    5  A    between atoms: N_6  and  C_15
    6  A    between atoms: N_6  and  C_17
    7  A    between atoms: C_8  and  C_21
    8  A    between atoms: C_10  and  C_13
    9  A    between atoms: C_10  and  C_34
   10  A    between atoms: C_13  and  C_16
   11  A    between atoms: C_17  and  C_26
   12  A    between atoms: C_26  and  C_30
   13  A    between atoms: C_26  and  C_37
   14  A    between atoms: C_27  and  C_30
   15  A    between atoms: O_31  and  O_32
                            x       y       z     vdW  Elec       q    Type
                         _______ _______ _______ _____ _____    ______ ____

>  <TORSDO>
F 15

$$$$
