=
 OpenBabel11042418373D

 37 42  0  0  1  0  0  0  0  0999 V2000
  186.7720  178.1220  147.1770 C   0  0  0  0  0  3  0  0  0  0  0  0
  187.0530  177.4470  142.0560 C   0  0  0  0  0  3  0  0  0  0  0  0
  183.8680  178.7220  143.4160 C   0  0  0  0  0  3  0  0  0  0  0  0
  187.7010  177.4510  146.4050 C   0  0  0  0  0  0  0  0  0  0  0  0
  187.4900  177.1840  145.0470 C   0  0  0  0  0  0  0  0  0  0  0  0
  185.6240  178.5410  146.5930 N   0  0  0  0  0  0  0  0  0  0  0  0
  190.4940  174.5310  143.9530 N   0  0  0  0  0  0  0  0  0  0  0  0
  185.5460  177.8550  140.2260 C   0  0  0  0  0  3  0  0  0  0  0  0
  188.5090  175.6700  143.3730 N   0  0  0  0  0  0  0  0  0  0  0  0
  184.1550  178.8130  144.7680 C   0  0  0  0  0  3  0  0  0  0  0  0
  186.0670  177.7610  142.9990 C   0  0  0  0  0  0  0  0  0  0  0  0
  186.8020  177.4840  140.6890 C   0  0  0  0  0  3  0  0  0  0  0  0
  188.5010  176.3060  144.5690 C   0  0  0  0  0  0  0  0  0  0  0  0
  185.3700  178.3580  145.2660 C   0  0  0  0  0  0  0  0  0  0  0  0
  189.1130  176.7410  146.9730 S   0  0  0  0  0  0  0  0  0  0  0  0
  190.5220  175.1080  145.1860 C   0  0  0  0  0  0  0  0  0  0  0  0
  189.4880  176.0060  145.5080 C   0  0  0  0  0  0  0  0  0  0  0  0
  184.5330  178.2180  141.1160 C   0  0  0  0  0  0  0  0  0  0  0  0
  184.8020  178.2160  142.5110 C   0  0  0  0  0  0  0  0  0  0  0  0
  189.5060  174.8010  143.0550 C   0  0  0  0  0  0  0  0  0  0  0  0
  186.3280  177.7340  144.4060 C   0  0  0  0  0  0  0  0  0  0  0  0
  192.7310  175.5360  146.2830 C   0  0  0  0  0  1  0  0  0  0  0  0
  191.5660  174.7560  146.0550 O   0  0  0  0  0  0  0  0  0  0  0  0
  183.2750  178.6110  140.5440 N   0  0  0  0  0  2  0  0  0  0  0  0
  182.0610  177.9550  140.7880 N   0  0  0  0  0  2  0  0  0  0  0  0
  180.8180  179.9290  140.6970 O   0  0  0  0  0  0  0  0  0  0  0  0
  180.8330  178.6780  140.8500 C   0  0  0  0  0  0  0  0  0  0  0  0
  178.5320  178.9000  141.5070 N   0  0  0  0  0  1  0  0  0  0  0  0
  179.5640  177.9530  141.1240 C   0  0  0  0  0  2  0  0  0  0  0  0
  189.5030  174.1230  141.7330 C   0  0  0  0  0  2  0  0  0  0  0  0
  188.3070  173.4240  141.5660 O   0  0  0  0  0  0  0  0  0  0  0  0
  188.3100  173.0260  140.2290 C   0  0  2  0  0  3  0  0  0  0  0  0
  189.5270  172.1440  139.9580 C   0  0  0  0  0  2  0  0  0  0  0  0
  189.5970  173.1040  137.6560 C   0  0  0  0  0  2  0  0  0  0  0  0
  188.3660  173.8480  137.9210 N   0  0  0  0  0  2  0  0  0  0  0  0
  188.3640  174.2580  139.3250 C   0  0  0  0  0  2  0  0  0  0  0  0
  189.6150  171.8120  138.4700 C   0  0  0  0  0  2  0  0  0  0  0  0
  2 11  1  0  0  0  0
  3 10  2  0  0  0  0
  4 15  1  0  0  0  0
  4  1  2  0  0  0  0
  5  4  1  0  0  0  0
  6  1  1  0  0  0  0
  7 16  2  0  0  0  0
  8 12  1  0  0  0  0
  8 18  2  0  0  0  0
  9 13  1  0  0  0  0
 10 14  1  0  0  0  0
 11 21  1  0  0  0  0
 12  2  2  0  0  0  0
 13  5  1  0  0  0  0
 13 17  2  0  0  0  0
 14  6  2  0  0  0  0
 16 17  1  0  0  0  0
 16 23  1  0  0  0  0
 17 15  1  0  0  0  0
 18 19  1  0  0  0  0
 19 11  2  0  0  0  0
 19  3  1  0  0  0  0
 20  9  2  0  0  0  0
 20  7  1  0  0  0  0
 21  5  2  0  0  0  0
 21 14  1  0  0  0  0
 23 22  1  0  0  0  0
 24 25  1  0  0  0  0
 24 18  1  0  0  0  0
 25 27  1  0  0  0  0
 26 27  2  0  0  0  0
 27 29  1  0  0  0  0
 29 28  1  0  0  0  0
 30 20  1  0  0  0  0
 31 30  1  0  0  0  0
 32 31  1  1  0  0  0
 33 32  1  0  0  0  0
 34 35  1  0  0  0  0
 34 37  1  0  0  0  0
 35 36  1  0  0  0  0
 36 32  1  0  0  0  0
 37 33  1  0  0  0  0
M  END
>  <MODEL>
1

>  <REMARK>
 VINA RESULT:      -8.5      0.000      0.000
  Name = 
  7 active torsions:
  status: ('A' for Active; 'I' for Inactive)
    1  A    between atoms: N_1  and  N_9
    2  A    between atoms: N_1  and  C_30
    3  A    between atoms: C_7  and  O_31
    4  A    between atoms: C_15  and  O_31
    5  A    between atoms: C_15  and  C_34
    6  A    between atoms: O_20  and  C_26
    7  A    between atoms: C_22  and  C_35
                            x       y       z     vdW  Elec       q    Type
                         _______ _______ _______ _____ _____    ______ ____

>  <TORSDO>
F 7

$$$$
=
 OpenBabel11042418373D

 37 42  0  0  1  0  0  0  0  0999 V2000
  185.3370  178.4030  146.0290 C   0  0  0  0  0  3  0  0  0  0  0  0
  187.9800  175.3360  142.8110 C   0  0  0  0  0  3  0  0  0  0  0  0
  189.5390  176.1050  146.0660 C   0  0  0  0  0  3  0  0  0  0  0  0
  185.1540  178.1330  144.6860 C   0  0  0  0  0  0  0  0  0  0  0  0
  186.1080  177.4470  143.9270 C   0  0  0  0  0  0  0  0  0  0  0  0
  186.4760  177.9810  146.6270 N   0  0  0  0  0  0  0  0  0  0  0  0
  184.8940  177.8610  139.9750 N   0  0  0  0  0  0  0  0  0  0  0  0
  190.0730  174.1580  142.9580 C   0  0  0  0  0  3  0  0  0  0  0  0
  186.5360  177.1320  141.5080 N   0  0  0  0  0  0  0  0  0  0  0  0
  188.5680  176.8920  146.6640 C   0  0  0  0  0  3  0  0  0  0  0  0
  188.2070  175.9840  144.0300 C   0  0  0  0  0  0  0  0  0  0  0  0
  188.8980  174.4410  142.2720 C   0  0  0  0  0  3  0  0  0  0  0  0
  185.7540  177.5010  142.5510 C   0  0  0  0  0  0  0  0  0  0  0  0
  187.4280  177.2670  145.9630 C   0  0  0  0  0  0  0  0  0  0  0  0
  183.8800  178.6870  143.7430 S   0  0  0  0  0  0  0  0  0  0  0  0
  184.0790  178.2890  140.9780 C   0  0  0  0  0  0  0  0  0  0  0  0
  184.5290  178.1190  142.3000 C   0  0  0  0  0  0  0  0  0  0  0  0
  190.3370  174.7430  144.1970 C   0  0  0  0  0  0  0  0  0  0  0  0
  189.3810  175.6290  144.7640 C   0  0  0  0  0  0  0  0  0  0  0  0
  186.1060  177.2920  140.2270 C   0  0  0  0  0  0  0  0  0  0  0  0
  187.2580  176.8970  144.5910 C   0  0  0  0  0  0  0  0  0  0  0  0
  181.5840  178.2690  140.7720 C   0  0  0  0  0  1  0  0  0  0  0  0
  182.8560  178.8820  140.6270 O   0  0  0  0  0  0  0  0  0  0  0  0
  191.5650  174.3710  144.8430 N   0  0  0  0  0  2  0  0  0  0  0  0
  192.8100  174.9470  144.5560 N   0  0  0  0  0  2  0  0  0  0  0  0
  192.8470  176.1870  146.5340 O   0  0  0  0  0  0  0  0  0  0  0  0
  193.4230  175.8660  145.4600 C   0  0  0  0  0  0  0  0  0  0  0  0
  194.8780  177.7490  145.7900 N   0  0  0  0  0  1  0  0  0  0  0  0
  194.7380  176.4690  145.1180 C   0  0  0  0  0  2  0  0  0  0  0  0
  186.9730  176.8680  139.0970 C   0  0  0  0  0  2  0  0  0  0  0  0
  186.1890  176.6220  137.9700 O   0  0  0  0  0  0  0  0  0  0  0  0
  186.8700  175.6230  137.2730 C   0  0  2  0  0  3  0  0  0  0  0  0
  187.8650  174.9340  138.2040 C   0  0  0  0  0  2  0  0  0  0  0  0
  189.3630  174.6320  136.2310 C   0  0  0  0  0  2  0  0  0  0  0  0
  188.3370  175.1990  135.3560 N   0  0  0  0  0  2  0  0  0  0  0  0
  187.6220  176.2410  136.0930 C   0  0  0  0  0  2  0  0  0  0  0  0
  188.7100  173.9310  137.4210 C   0  0  0  0  0  2  0  0  0  0  0  0
  1  6  1  0  0  0  0
  2 11  1  0  0  0  0
  3 10  2  0  0  0  0
  4  1  2  0  0  0  0
  5 21  2  0  0  0  0
  5  4  1  0  0  0  0
  7 20  1  0  0  0  0
  7 16  2  0  0  0  0
  8 18  2  0  0  0  0
  9 13  1  0  0  0  0
 11 21  1  0  0  0  0
 11 19  2  0  0  0  0
 12  2  2  0  0  0  0
 12  8  1  0  0  0  0
 13  5  1  0  0  0  0
 14  6  2  0  0  0  0
 14 10  1  0  0  0  0
 15  4  1  0  0  0  0
 16 17  1  0  0  0  0
 17 13  2  0  0  0  0
 17 15  1  0  0  0  0
 18 19  1  0  0  0  0
 18 24  1  0  0  0  0
 19  3  1  0  0  0  0
 20  9  2  0  0  0  0
 21 14  1  0  0  0  0
 23 22  1  0  0  0  0
 23 16  1  0  0  0  0
 25 24  1  0  0  0  0
 25 27  1  0  0  0  0
 27 26  2  0  0  0  0
 29 27  1  0  0  0  0
 29 28  1  0  0  0  0
 30 20  1  0  0  0  0
 31 30  1  0  0  0  0
 32 31  1  1  0  0  0
 32 33  1  0  0  0  0
 34 37  1  0  0  0  0
 35 36  1  0  0  0  0
 35 34  1  0  0  0  0
 36 32  1  0  0  0  0
 37 33  1  0  0  0  0
M  END
>  <MODEL>
2

>  <REMARK>
 VINA RESULT:      -7.9      2.345      7.486
  Name = 
  7 active torsions:
  status: ('A' for Active; 'I' for Inactive)
    1  A    between atoms: N_1  and  N_9
    2  A    between atoms: N_1  and  C_30
    3  A    between atoms: C_7  and  O_31
    4  A    between atoms: C_15  and  O_31
    5  A    between atoms: C_15  and  C_34
    6  A    between atoms: O_20  and  C_26
    7  A    between atoms: C_22  and  C_35
                            x       y       z     vdW  Elec       q    Type
                         _______ _______ _______ _____ _____    ______ ____

>  <TORSDO>
F 7

$$$$
=
 OpenBabel11042418373D

 37 42  0  0  1  0  0  0  0  0999 V2000
  189.7130  171.9930  139.9050 C   0  0  0  0  0  3  0  0  0  0  0  0
  189.3210  176.2260  142.8510 C   0  0  0  0  0  3  0  0  0  0  0  0
  190.4180  173.1160  144.5070 C   0  0  0  0  0  3  0  0  0  0  0  0
  189.1140  173.2130  139.6560 C   0  0  0  0  0  0  0  0  0  0  0  0
  188.9140  174.1650  140.6620 C   0  0  0  0  0  0  0  0  0  0  0  0
  190.1250  171.7170  141.1650 N   0  0  0  0  0  0  0  0  0  0  0  0
  186.4220  177.0400  138.9950 N   0  0  0  0  0  0  0  0  0  0  0  0
  189.7780  176.7080  145.1640 C   0  0  0  0  0  3  0  0  0  0  0  0
  187.5250  176.2000  140.9060 N   0  0  0  0  0  0  0  0  0  0  0  0
  190.4470  172.2260  143.4460 C   0  0  0  0  0  3  0  0  0  0  0  0
  189.5530  174.8590  143.0420 C   0  0  0  0  0  0  0  0  0  0  0  0
  189.4230  177.1420  143.8930 C   0  0  0  0  0  3  0  0  0  0  0  0
  188.0960  175.2180  140.1690 C   0  0  0  0  0  0  0  0  0  0  0  0
  190.0060  172.6130  142.1860 C   0  0  0  0  0  0  0  0  0  0  0  0
  188.4210  173.6820  138.2000 S   0  0  0  0  0  0  0  0  0  0  0  0
  186.9320  176.0540  138.2080 C   0  0  0  0  0  0  0  0  0  0  0  0
  187.7780  175.1080  138.8150 C   0  0  0  0  0  0  0  0  0  0  0  0
  190.0590  175.3620  145.4080 C   0  0  0  0  0  0  0  0  0  0  0  0
  189.9920  174.4330  144.3350 C   0  0  0  0  0  0  0  0  0  0  0  0
  186.7060  177.1190  140.3250 C   0  0  0  0  0  0  0  0  0  0  0  0
  189.4590  173.9170  141.9680 C   0  0  0  0  0  0  0  0  0  0  0  0
  187.3040  176.6550  135.8060 C   0  0  0  0  0  1  0  0  0  0  0  0
  186.5690  176.0370  136.8520 O   0  0  0  0  0  0  0  0  0  0  0  0
  190.4420  175.0110  146.7470 N   0  0  0  0  0  2  0  0  0  0  0  0
  190.4500  175.9090  147.8230 N   0  0  0  0  0  2  0  0  0  0  0  0
  192.6060  176.6710  147.3480 O   0  0  0  0  0  0  0  0  0  0  0  0
  191.5820  176.7390  148.0810 C   0  0  0  0  0  0  0  0  0  0  0  0
  190.5260  178.6690  149.0470 N   0  0  0  0  0  1  0  0  0  0  0  0
  191.5640  177.6710  149.2390 C   0  0  0  0  0  2  0  0  0  0  0  0
  186.1000  178.1960  141.1490 C   0  0  0  0  0  2  0  0  0  0  0  0
  185.1240  177.6550  141.9860 O   0  0  0  0  0  0  0  0  0  0  0  0
  185.5130  178.0260  143.2740 C   0  0  2  0  0  3  0  0  0  0  0  0
  185.7960  176.7780  144.1060 C   0  0  0  0  0  2  0  0  0  0  0  0
  184.9480  178.0230  146.0960 C   0  0  0  0  0  2  0  0  0  0  0  0
  184.7960  179.2300  145.2850 N   0  0  0  0  0  2  0  0  0  0  0  0
  184.3950  178.8350  143.9350 C   0  0  0  0  0  2  0  0  0  0  0  0
  186.0910  177.1660  145.5530 C   0  0  0  0  0  2  0  0  0  0  0  0
  1  6  1  0  0  0  0
  2 11  2  0  0  0  0
  2 12  1  0  0  0  0
  4  1  2  0  0  0  0
  4  5  1  0  0  0  0
  5 21  2  0  0  0  0
  6 14  2  0  0  0  0
  7 20  1  0  0  0  0
  8 18  1  0  0  0  0
 10  3  2  0  0  0  0
 11 19  1  0  0  0  0
 12  8  2  0  0  0  0
 13  5  1  0  0  0  0
 13  9  1  0  0  0  0
 14 10  1  0  0  0  0
 15 17  1  0  0  0  0
 15  4  1  0  0  0  0
 16 17  1  0  0  0  0
 16  7  2  0  0  0  0
 17 13  2  0  0  0  0
 18 24  1  0  0  0  0
 19  3  1  0  0  0  0
 19 18  2  0  0  0  0
 20  9  2  0  0  0  0
 20 30  1  0  0  0  0
 21 14  1  0  0  0  0
 21 11  1  0  0  0  0
 22 23  1  0  0  0  0
 23 16  1  0  0  0  0
 24 25  1  0  0  0  0
 25 27  1  0  0  0  0
 26 27  2  0  0  0  0
 27 29  1  0  0  0  0
 28 29  1  0  0  0  0
 30 31  1  0  0  0  0
 32 31  1  6  0  0  0
 32 36  1  0  0  0  0
 32 33  1  0  0  0  0
 33 37  1  0  0  0  0
 35 34  1  0  0  0  0
 36 35  1  0  0  0  0
 37 34  1  0  0  0  0
M  END
>  <MODEL>
3

>  <REMARK>
 VINA RESULT:      -7.7      3.140      8.697
  Name = 
  7 active torsions:
  status: ('A' for Active; 'I' for Inactive)
    1  A    between atoms: N_1  and  N_9
    2  A    between atoms: N_1  and  C_30
    3  A    between atoms: C_7  and  O_31
    4  A    between atoms: C_15  and  O_31
    5  A    between atoms: C_15  and  C_34
    6  A    between atoms: O_20  and  C_26
    7  A    between atoms: C_22  and  C_35
                            x       y       z     vdW  Elec       q    Type
                         _______ _______ _______ _____ _____    ______ ____

>  <TORSDO>
F 7

$$$$
=
 OpenBabel11042418373D

 37 42  0  0  1  0  0  0  0  0999 V2000
  189.3500  177.5210  147.3350 C   0  0  0  0  0  3  0  0  0  0  0  0
  187.6960  177.3480  142.4370 C   0  0  0  0  0  3  0  0  0  0  0  0
  185.2110  178.2100  145.0260 C   0  0  0  0  0  3  0  0  0  0  0  0
  189.9460  177.0070  146.1980 C   0  0  0  0  0  0  0  0  0  0  0  0
  189.2480  176.8500  144.9960 C   0  0  0  0  0  0  0  0  0  0  0  0
  188.0490  177.8900  147.2750 N   0  0  0  0  0  0  0  0  0  0  0  0
  191.7300  174.5810  142.5560 N   0  0  0  0  0  0  0  0  0  0  0  0
  185.5890  177.7900  141.3620 C   0  0  0  0  0  3  0  0  0  0  0  0
  189.6230  175.5910  142.8970 N   0  0  0  0  0  0  0  0  0  0  0  0
  185.9860  178.2000  146.1740 C   0  0  0  0  0  3  0  0  0  0  0  0
  187.1290  177.4870  143.7090 C   0  0  0  0  0  0  0  0  0  0  0  0
  186.9430  177.4890  141.2760 C   0  0  0  0  0  3  0  0  0  0  0  0
  190.0410  176.1110  144.0750 C   0  0  0  0  0  0  0  0  0  0  0  0
  187.3190  177.8090  146.1270 C   0  0  0  0  0  0  0  0  0  0  0  0
  191.4990  176.3740  146.1110 S   0  0  0  0  0  0  0  0  0  0  0  0
  192.1970  175.0420  143.7490 C   0  0  0  0  0  0  0  0  0  0  0  0
  191.3230  175.8130  144.5360 C   0  0  0  0  0  0  0  0  0  0  0  0
  184.9750  177.9790  142.6010 C   0  0  0  0  0  0  0  0  0  0  0  0
  185.7540  177.8720  143.7850 C   0  0  0  0  0  0  0  0  0  0  0  0
  190.4630  174.8450  142.1290 C   0  0  0  0  0  0  0  0  0  0  0  0
  187.9050  177.3530  144.9040 C   0  0  0  0  0  0  0  0  0  0  0  0
  194.6680  175.4450  143.7680 C   0  0  0  0  0  1  0  0  0  0  0  0
  193.5080  174.7040  144.1180 O   0  0  0  0  0  0  0  0  0  0  0  0
  183.5780  178.3130  142.5900 N   0  0  0  0  0  0  0  0  0  0  0  0
  182.7280  178.1030  141.4950 N   0  0  0  0  0  0  0  0  0  0  0  0
  180.9730  179.3090  142.4520 O   0  0  0  0  0  0  0  0  0  0  0  0
  181.4070  178.6410  141.4750 C   0  0  0  0  0  0  0  0  0  0  0  0
  179.5950  179.4910  140.1460 N   0  0  0  0  0  1  0  0  0  0  0  0
  180.5270  178.3890  140.3040 C   0  0  0  0  0  2  0  0  0  0  0  0
  189.9890  174.2940  140.8330 C   0  0  0  0  0  2  0  0  0  0  0  0
  188.8640  173.4960  141.0450 O   0  0  0  0  0  0  0  0  0  0  0  0
  188.6600  172.8380  139.8320 C   0  0  2  0  0  3  0  0  0  0  0  0
  189.7550  171.7950  139.6210 C   0  0  0  0  0  2  0  0  0  0  0  0
  189.6010  172.2590  137.1740 C   0  0  0  0  0  2  0  0  0  0  0  0
  188.4800  173.1680  137.4110 N   0  0  0  0  0  2  0  0  0  0  0  0
  188.6960  173.8510  138.6860 C   0  0  0  0  0  2  0  0  0  0  0  0
  189.6210  171.1630  138.2380 C   0  0  0  0  0  2  0  0  0  0  0  0
  2 11  1  0  0  0  0
  3 10  2  0  0  0  0
  4  1  2  0  0  0  0
  5  4  1  0  0  0  0
  6  1  1  0  0  0  0
  7 16  2  0  0  0  0
  8 18  2  0  0  0  0
  9 13  1  0  0  0  0
 11 19  2  0  0  0  0
 11 21  1  0  0  0  0
 12  8  1  0  0  0  0
 12  2  2  0  0  0  0
 13 17  2  0  0  0  0
 13  5  1  0  0  0  0
 14 10  1  0  0  0  0
 14  6  2  0  0  0  0
 15  4  1  0  0  0  0
 16 23  1  0  0  0  0
 16 17  1  0  0  0  0
 17 15  1  0  0  0  0
 18 19  1  0  0  0  0
 19  3  1  0  0  0  0
 20  7  1  0  0  0  0
 20  9  2  0  0  0  0
 21  5  2  0  0  0  0
 21 14  1  0  0  0  0
 22 23  1  0  0  0  0
 24 18  1  0  0  0  0
 25 24  2  0  0  0  0
 27 25  1  0  0  0  0
 27 26  2  0  0  0  0
 28 29  1  0  0  0  0
 29 27  1  0  0  0  0
 30 31  1  0  0  0  0
 30 20  1  0  0  0  0
 32 31  1  1  0  0  0
 33 32  1  0  0  0  0
 34 35  1  0  0  0  0
 34 37  1  0  0  0  0
 35 36  1  0  0  0  0
 36 32  1  0  0  0  0
 37 33  1  0  0  0  0
M  END
>  <MODEL>
4

>  <REMARK>
 VINA RESULT:      -7.7      1.445      1.739
  Name = 
  7 active torsions:
  status: ('A' for Active; 'I' for Inactive)
    1  A    between atoms: N_1  and  N_9
    2  A    between atoms: N_1  and  C_30
    3  A    between atoms: C_7  and  O_31
    4  A    between atoms: C_15  and  O_31
    5  A    between atoms: C_15  and  C_34
    6  A    between atoms: O_20  and  C_26
    7  A    between atoms: C_22  and  C_35
                            x       y       z     vdW  Elec       q    Type
                         _______ _______ _______ _____ _____    ______ ____

>  <TORSDO>
F 7

$$$$
=
 OpenBabel11042418373D

 37 42  0  0  1  0  0  0  0  0999 V2000
  191.6380  176.7820  147.9040 C   0  0  0  0  0  3  0  0  0  0  0  0
  190.0180  177.2580  143.0140 C   0  0  0  0  0  3  0  0  0  0  0  0
  187.4800  177.6010  145.6710 C   0  0  0  0  0  3  0  0  0  0  0  0
  192.2650  176.4740  146.7110 C   0  0  0  0  0  0  0  0  0  0  0  0
  191.5810  176.4620  145.4900 C   0  0  0  0  0  0  0  0  0  0  0  0
  190.3190  177.0910  147.8830 N   0  0  0  0  0  0  0  0  0  0  0  0
  194.1870  174.7080  142.7710 N   0  0  0  0  0  0  0  0  0  0  0  0
  187.8970  177.7510  141.9910 C   0  0  0  0  0  3  0  0  0  0  0  0
  192.0300  175.5500  143.2320 N   0  0  0  0  0  0  0  0  0  0  0  0
  188.2480  177.4590  146.8150 C   0  0  0  0  0  3  0  0  0  0  0  0
  189.4380  177.1780  144.2860 C   0  0  0  0  0  0  0  0  0  0  0  0
  189.2640  177.5330  141.8780 C   0  0  0  0  0  3  0  0  0  0  0  0
  192.4150  175.9090  144.4800 C   0  0  0  0  0  0  0  0  0  0  0  0
  189.6000  177.1460  146.7270 C   0  0  0  0  0  0  0  0  0  0  0  0
  193.8480  175.9380  146.5500 S   0  0  0  0  0  0  0  0  0  0  0  0
  194.6240  175.0090  144.0250 C   0  0  0  0  0  0  0  0  0  0  0  0
  193.7080  175.6100  144.9070 C   0  0  0  0  0  0  0  0  0  0  0  0
  187.2680  177.7220  143.2370 C   0  0  0  0  0  0  0  0  0  0  0  0
  188.0450  177.4790  144.4010 C   0  0  0  0  0  0  0  0  0  0  0  0
  192.9110  174.9690  142.3730 C   0  0  0  0  0  0  0  0  0  0  0  0
  190.2150  176.9060  145.4570 C   0  0  0  0  0  0  0  0  0  0  0  0
  197.1010  175.2540  143.7510 C   0  0  0  0  0  1  0  0  0  0  0  0
  195.9490  174.6850  144.3570 O   0  0  0  0  0  0  0  0  0  0  0  0
  185.8560  177.9840  143.2580 N   0  0  0  0  0  0  0  0  0  0  0  0
  185.0170  177.8620  142.1420 N   0  0  0  0  0  0  0  0  0  0  0  0
  183.1750  178.7670  143.2560 O   0  0  0  0  0  0  0  0  0  0  0  0
  183.6550  178.2850  142.1950 C   0  0  0  0  0  0  0  0  0  0  0  0
  181.3930  178.1380  141.3990 N   0  0  0  0  0  1  0  0  0  0  0  0
  182.7880  178.1290  140.9970 C   0  0  0  0  0  2  0  0  0  0  0  0
  192.4710  174.5950  141.0040 C   0  0  0  0  0  2  0  0  0  0  0  0
  191.8750  173.3340  141.0300 O   0  0  0  0  0  0  0  0  0  0  0  0
  190.8490  173.4050  140.0880 C   0  0  2  0  0  3  0  0  0  0  0  0
  189.6400  174.1130  140.6960 C   0  0  0  0  0  2  0  0  0  0  0  0
  188.1880  172.6340  139.3060 C   0  0  0  0  0  2  0  0  0  0  0  0
  189.3720  172.0590  138.6690 N   0  0  0  0  0  2  0  0  0  0  0  0
  190.4470  171.9930  139.6580 C   0  0  0  0  0  2  0  0  0  0  0  0
  188.4640  174.0780  139.7220 C   0  0  0  0  0  2  0  0  0  0  0  0
  2 11  1  0  0  0  0
  3 10  2  0  0  0  0
  4  1  2  0  0  0  0
  5  4  1  0  0  0  0
  6  1  1  0  0  0  0
  7 16  2  0  0  0  0
  8 18  2  0  0  0  0
  9 13  1  0  0  0  0
 11 19  2  0  0  0  0
 11 21  1  0  0  0  0
 12  8  1  0  0  0  0
 12  2  2  0  0  0  0
 13 17  2  0  0  0  0
 13  5  1  0  0  0  0
 14 10  1  0  0  0  0
 14  6  2  0  0  0  0
 15  4  1  0  0  0  0
 16 23  1  0  0  0  0
 16 17  1  0  0  0  0
 17 15  1  0  0  0  0
 18 24  1  0  0  0  0
 18 19  1  0  0  0  0
 19  3  1  0  0  0  0
 20  7  1  0  0  0  0
 20  9  2  0  0  0  0
 21  5  2  0  0  0  0
 21 14  1  0  0  0  0
 22 23  1  0  0  0  0
 25 27  1  0  0  0  0
 25 24  2  0  0  0  0
 27 26  2  0  0  0  0
 29 28  1  0  0  0  0
 29 27  1  0  0  0  0
 30 31  1  0  0  0  0
 30 20  1  0  0  0  0
 32 33  1  0  0  0  0
 32 31  1  1  0  0  0
 34 37  1  0  0  0  0
 35 34  1  0  0  0  0
 35 36  1  0  0  0  0
 36 32  1  0  0  0  0
 37 33  1  0  0  0  0
M  END
>  <MODEL>
5

>  <REMARK>
 VINA RESULT:      -7.7      2.546      3.781
  Name = 
  7 active torsions:
  status: ('A' for Active; 'I' for Inactive)
    1  A    between atoms: N_1  and  N_9
    2  A    between atoms: N_1  and  C_30
    3  A    between atoms: C_7  and  O_31
    4  A    between atoms: C_15  and  O_31
    5  A    between atoms: C_15  and  C_34
    6  A    between atoms: O_20  and  C_26
    7  A    between atoms: C_22  and  C_35
                            x       y       z     vdW  Elec       q    Type
                         _______ _______ _______ _____ _____    ______ ____

>  <TORSDO>
F 7

$$$$
=
 OpenBabel11042418373D

 37 42  0  0  1  0  0  0  0  0999 V2000
  188.9000  173.0270  139.3100 C   0  0  0  0  0  3  0  0  0  0  0  0
  189.6760  174.0760  144.3160 C   0  0  0  0  0  3  0  0  0  0  0  0
  187.8700  176.6040  142.3240 C   0  0  0  0  0  3  0  0  0  0  0  0
  189.7270  172.4260  140.2410 C   0  0  0  0  0  0  0  0  0  0  0  0
  189.9710  172.9920  141.4970 C   0  0  0  0  0  0  0  0  0  0  0  0
  188.3030  174.1990  139.6330 N   0  0  0  0  0  0  0  0  0  0  0  0
  193.1010  170.7940  143.1190 N   0  0  0  0  0  0  0  0  0  0  0  0
  189.0440  175.8890  145.7660 C   0  0  0  0  0  3  0  0  0  0  0  0
  191.6540  172.6530  143.2810 N   0  0  0  0  0  0  0  0  0  0  0  0
  187.8120  175.9950  141.0810 C   0  0  0  0  0  3  0  0  0  0  0  0
  189.1900  174.7480  143.1880 C   0  0  0  0  0  0  0  0  0  0  0  0
  189.6140  174.6340  145.5880 C   0  0  0  0  0  3  0  0  0  0  0  0
  191.0110  172.2760  142.1510 C   0  0  0  0  0  0  0  0  0  0  0  0
  188.4570  174.7850  140.8540 C   0  0  0  0  0  0  0  0  0  0  0  0
  190.6550  171.0520  139.9790 S   0  0  0  0  0  0  0  0  0  0  0  0
  192.5220  170.3840  141.9570 C   0  0  0  0  0  0  0  0  0  0  0  0
  191.4600  171.1550  141.4520 C   0  0  0  0  0  0  0  0  0  0  0  0
  188.5070  176.5910  144.6860 C   0  0  0  0  0  0  0  0  0  0  0  0
  188.5360  176.0040  143.3930 C   0  0  0  0  0  0  0  0  0  0  0  0
  192.6820  171.9110  143.7770 C   0  0  0  0  0  0  0  0  0  0  0  0
  189.2420  174.1700  141.8800 C   0  0  0  0  0  0  0  0  0  0  0  0
  194.0710  169.2240  140.3680 C   0  0  0  0  0  1  0  0  0  0  0  0
  193.0320  169.2340  141.3360 O   0  0  0  0  0  0  0  0  0  0  0  0
  187.9160  177.8690  144.9710 N   0  0  0  0  0  2  0  0  0  0  0  0
  186.6340  178.0390  145.5130 N   0  0  0  0  0  2  0  0  0  0  0  0
  185.8940  179.3260  143.7120 O   0  0  0  0  0  0  0  0  0  0  0  0
  185.6370  178.7890  144.8230 C   0  0  0  0  0  0  0  0  0  0  0  0
  184.1700  178.1070  146.6000 N   0  0  0  0  0  1  0  0  0  0  0  0
  184.2910  178.9620  145.4320 C   0  0  0  0  0  2  0  0  0  0  0  0
  193.3660  172.3340  145.0260 C   0  0  0  0  0  2  0  0  0  0  0  0
  194.5730  172.9590  144.7120 O   0  0  0  0  0  0  0  0  0  0  0  0
  194.4350  174.2630  145.1880 C   0  0  2  0  0  3  0  0  0  0  0  0
  193.2340  174.3420  146.1280 C   0  0  0  0  0  2  0  0  0  0  0  0
  192.8600  176.6690  145.3070 C   0  0  0  0  0  2  0  0  0  0  0  0
  194.0800  176.5890  144.5040 N   0  0  0  0  0  2  0  0  0  0  0  0
  194.2240  175.2190  144.0130 C   0  0  0  0  0  2  0  0  0  0  0  0
  192.9900  175.7900  146.5500 C   0  0  0  0  0  2  0  0  0  0  0  0
  1  6  2  0  0  0  0
  1  4  1  0  0  0  0
  2 12  1  0  0  0  0
  3 19  1  0  0  0  0
  4  5  2  0  0  0  0
  5 21  1  0  0  0  0
  5 13  1  0  0  0  0
  6 14  1  0  0  0  0
  7 20  1  0  0  0  0
  9 20  2  0  0  0  0
 10  3  2  0  0  0  0
 11 19  1  0  0  0  0
 11  2  2  0  0  0  0
 12  8  2  0  0  0  0
 13  9  1  0  0  0  0
 14 10  1  0  0  0  0
 14 21  2  0  0  0  0
 15  4  1  0  0  0  0
 15 17  1  0  0  0  0
 16  7  2  0  0  0  0
 17 16  1  0  0  0  0
 17 13  2  0  0  0  0
 18 24  1  0  0  0  0
 18  8  1  0  0  0  0
 19 18  2  0  0  0  0
 20 30  1  0  0  0  0
 21 11  1  0  0  0  0
 22 23  1  0  0  0  0
 23 16  1  0  0  0  0
 24 25  1  0  0  0  0
 26 27  2  0  0  0  0
 27 29  1  0  0  0  0
 27 25  1  0  0  0  0
 29 28  1  0  0  0  0
 31 30  1  0  0  0  0
 32 31  1  6  0  0  0
 32 33  1  0  0  0  0
 33 37  1  0  0  0  0
 34 37  1  0  0  0  0
 35 34  1  0  0  0  0
 36 35  1  0  0  0  0
 36 32  1  0  0  0  0
M  END
>  <MODEL>
6

>  <REMARK>
 VINA RESULT:      -7.5      3.567      6.844
  Name = 
  7 active torsions:
  status: ('A' for Active; 'I' for Inactive)
    1  A    between atoms: N_1  and  N_9
    2  A    between atoms: N_1  and  C_30
    3  A    between atoms: C_7  and  O_31
    4  A    between atoms: C_15  and  O_31
    5  A    between atoms: C_15  and  C_34
    6  A    between atoms: O_20  and  C_26
    7  A    between atoms: C_22  and  C_35
                            x       y       z     vdW  Elec       q    Type
                         _______ _______ _______ _____ _____    ______ ____

>  <TORSDO>
F 7

$$$$
=
 OpenBabel11042418373D

 37 42  0  0  1  0  0  0  0  0999 V2000
  189.2170  177.5740  147.3430 C   0  0  0  0  0  3  0  0  0  0  0  0
  190.3430  173.8200  143.9670 C   0  0  0  0  0  3  0  0  0  0  0  0
  193.0050  174.8290  146.3160 C   0  0  0  0  0  3  0  0  0  0  0  0
  188.5510  177.1510  146.2080 C   0  0  0  0  0  0  0  0  0  0  0  0
  189.1270  176.2640  145.2920 C   0  0  0  0  0  0  0  0  0  0  0  0
  190.4660  177.1060  147.5750 N   0  0  0  0  0  0  0  0  0  0  0  0
  186.6100  176.2880  141.9870 N   0  0  0  0  0  0  0  0  0  0  0  0
  192.2730  172.4370  143.5800 C   0  0  0  0  0  3  0  0  0  0  0  0
  188.6430  175.5830  142.9610 N   0  0  0  0  0  0  0  0  0  0  0  0
  192.3620  175.7960  147.0710 C   0  0  0  0  0  3  0  0  0  0  0  0
  191.0290  174.5940  144.9100 C   0  0  0  0  0  0  0  0  0  0  0  0
  190.9510  172.7610  143.3020 C   0  0  0  0  0  3  0  0  0  0  0  0
  188.3090  176.1760  144.1320 C   0  0  0  0  0  0  0  0  0  0  0  0
  191.0730  176.2040  146.7520 C   0  0  0  0  0  0  0  0  0  0  0  0
  187.0610  177.7190  145.6820 S   0  0  0  0  0  0  0  0  0  0  0  0
  186.2350  176.9370  143.1230 C   0  0  0  0  0  0  0  0  0  0  0  0
  187.1160  176.8930  144.2190 C   0  0  0  0  0  0  0  0  0  0  0  0
  192.9980  173.1470  144.5390 C   0  0  0  0  0  0  0  0  0  0  0  0
  192.3640  174.2050  145.2450 C   0  0  0  0  0  0  0  0  0  0  0  0
  187.7950  175.6200  141.8970 C   0  0  0  0  0  0  0  0  0  0  0  0
  190.4010  175.6780  145.6030 C   0  0  0  0  0  0  0  0  0  0  0  0
  184.3110  178.0320  141.9530 C   0  0  0  0  0  1  0  0  0  0  0  0
  185.0070  177.6160  143.1190 O   0  0  0  0  0  0  0  0  0  0  0  0
  194.3500  172.7240  144.7760 N   0  0  0  0  0  2  0  0  0  0  0  0
  195.4660  173.2530  144.1140 N   0  0  0  0  0  2  0  0  0  0  0  0
  196.4160  174.0750  146.0820 O   0  0  0  0  0  0  0  0  0  0  0  0
  196.4960  173.9290  144.8330 C   0  0  0  0  0  0  0  0  0  0  0  0
  197.2710  175.7170  143.4270 N   0  0  0  0  0  1  0  0  0  0  0  0
  197.6610  174.4900  144.0980 C   0  0  0  0  0  2  0  0  0  0  0  0
  188.1740  174.9530  140.6250 C   0  0  0  0  0  2  0  0  0  0  0  0
  188.2840  173.5770  140.8310 O   0  0  0  0  0  0  0  0  0  0  0  0
  188.9480  173.0990  139.7010 C   0  0  2  0  0  3  0  0  0  0  0  0
  190.4270  173.4730  139.7760 C   0  0  0  0  0  2  0  0  0  0  0  0
  190.4060  173.6850  137.2900 C   0  0  0  0  0  2  0  0  0  0  0  0
  189.0210  173.2170  137.2540 N   0  0  0  0  0  2  0  0  0  0  0  0
  188.3310  173.7150  138.4440 C   0  0  0  0  0  2  0  0  0  0  0  0
  191.1370  173.0740  138.4840 C   0  0  0  0  0  2  0  0  0  0  0  0
  1  6  1  0  0  0  0
  2 11  1  0  0  0  0
  3 10  2  0  0  0  0
  4  1  2  0  0  0  0
  5 21  2  0  0  0  0
  5  4  1  0  0  0  0
  7 16  2  0  0  0  0
  8 18  2  0  0  0  0
  9 13  1  0  0  0  0
 11 19  2  0  0  0  0
 11 21  1  0  0  0  0
 12  8  1  0  0  0  0
 12  2  2  0  0  0  0
 13 17  2  0  0  0  0
 13  5  1  0  0  0  0
 14 10  1  0  0  0  0
 14  6  2  0  0  0  0
 15  4  1  0  0  0  0
 16 17  1  0  0  0  0
 17 15  1  0  0  0  0
 18 24  1  0  0  0  0
 18 19  1  0  0  0  0
 19  3  1  0  0  0  0
 20  7  1  0  0  0  0
 20  9  2  0  0  0  0
 21 14  1  0  0  0  0
 22 23  1  0  0  0  0
 23 16  1  0  0  0  0
 25 24  1  0  0  0  0
 25 27  1  0  0  0  0
 27 26  2  0  0  0  0
 28 29  1  0  0  0  0
 29 27  1  0  0  0  0
 30 31  1  0  0  0  0
 30 20  1  0  0  0  0
 32 33  1  0  0  0  0
 32 31  1  1  0  0  0
 34 37  1  0  0  0  0
 35 34  1  0  0  0  0
 35 36  1  0  0  0  0
 36 32  1  0  0  0  0
 37 33  1  0  0  0  0
M  END
>  <MODEL>
7

>  <REMARK>
 VINA RESULT:      -7.4      2.859      8.393
  Name = 
  7 active torsions:
  status: ('A' for Active; 'I' for Inactive)
    1  A    between atoms: N_1  and  N_9
    2  A    between atoms: N_1  and  C_30
    3  A    between atoms: C_7  and  O_31
    4  A    between atoms: C_15  and  O_31
    5  A    between atoms: C_15  and  C_34
    6  A    between atoms: O_20  and  C_26
    7  A    between atoms: C_22  and  C_35
                            x       y       z     vdW  Elec       q    Type
                         _______ _______ _______ _____ _____    ______ ____

>  <TORSDO>
F 7

$$$$
=
 OpenBabel11042418373D

 37 42  0  0  1  0  0  0  0  0999 V2000
  189.4170  177.4990  147.2080 C   0  0  0  0  0  3  0  0  0  0  0  0
  190.1800  173.5920  143.9050 C   0  0  0  0  0  3  0  0  0  0  0  0
  192.9250  174.3840  146.2400 C   0  0  0  0  0  3  0  0  0  0  0  0
  188.7140  177.1200  146.0800 C   0  0  0  0  0  0  0  0  0  0  0  0
  189.2030  176.1650  145.1810 C   0  0  0  0  0  0  0  0  0  0  0  0
  190.6160  176.9170  147.4510 N   0  0  0  0  0  0  0  0  0  0  0  0
  186.7020  176.3680  141.8700 N   0  0  0  0  0  0  0  0  0  0  0  0
  191.9680  172.0230  143.5470 C   0  0  0  0  0  3  0  0  0  0  0  0
  188.6570  175.4910  142.8620 N   0  0  0  0  0  0  0  0  0  0  0  0
  192.3780  175.4220  146.9760 C   0  0  0  0  0  3  0  0  0  0  0  0
  190.9360  174.3130  144.8350 C   0  0  0  0  0  0  0  0  0  0  0  0
  190.6840  172.4670  143.2610 C   0  0  0  0  0  3  0  0  0  0  0  0
  188.3810  176.1340  144.0220 C   0  0  0  0  0  0  0  0  0  0  0  0
  191.1330  175.9460  146.6470 C   0  0  0  0  0  0  0  0  0  0  0  0
  187.2850  177.8180  145.5400 S   0  0  0  0  0  0  0  0  0  0  0  0
  186.3900  177.0710  142.9940 C   0  0  0  0  0  0  0  0  0  0  0  0
  187.2620  176.9640  144.0920 C   0  0  0  0  0  0  0  0  0  0  0  0
  192.7580  172.6780  144.4940 C   0  0  0  0  0  0  0  0  0  0  0  0
  192.2280  173.8050  145.1790 C   0  0  0  0  0  0  0  0  0  0  0  0
  187.8170  175.5890  141.7960 C   0  0  0  0  0  0  0  0  0  0  0  0
  190.4150  175.4650  145.5060 C   0  0  0  0  0  0  0  0  0  0  0  0
  184.4070  178.0720  141.8380 C   0  0  0  0  0  1  0  0  0  0  0  0
  185.2320  177.8650  142.9750 O   0  0  0  0  0  0  0  0  0  0  0  0
  194.0630  172.1320  144.7430 N   0  0  0  0  0  2  0  0  0  0  0  0
  194.2930  170.8520  145.2660 N   0  0  0  0  0  2  0  0  0  0  0  0
  196.4220  171.4060  146.0470 O   0  0  0  0  0  0  0  0  0  0  0  0
  195.5160  170.5370  145.9290 C   0  0  0  0  0  0  0  0  0  0  0  0
  196.9540  169.1350  147.2480 N   0  0  0  0  0  1  0  0  0  0  0  0
  195.7340  169.1660  146.4600 C   0  0  0  0  0  2  0  0  0  0  0  0
  188.1310  174.8640  140.5370 C   0  0  0  0  0  2  0  0  0  0  0  0
  188.2200  173.4960  140.7930 O   0  0  0  0  0  0  0  0  0  0  0  0
  188.9640  172.9820  139.7300 C   0  0  2  0  0  3  0  0  0  0  0  0
  190.4010  173.4940  139.8130 C   0  0  0  0  0  2  0  0  0  0  0  0
  190.4520  173.4840  137.3180 C   0  0  0  0  0  2  0  0  0  0  0  0
  189.1160  172.8910  137.2860 N   0  0  0  0  0  2  0  0  0  0  0  0
  188.3420  173.4270  138.4050 C   0  0  0  0  0  2  0  0  0  0  0  0
  191.1900  173.0490  138.5840 C   0  0  0  0  0  2  0  0  0  0  0  0
  1  6  1  0  0  0  0
  2 11  1  0  0  0  0
  3 10  2  0  0  0  0
  4  1  2  0  0  0  0
  5 21  2  0  0  0  0
  5  4  1  0  0  0  0
  7 16  2  0  0  0  0
  8 18  2  0  0  0  0
  9 13  1  0  0  0  0
 11 19  2  0  0  0  0
 11 21  1  0  0  0  0
 12  8  1  0  0  0  0
 12  2  2  0  0  0  0
 13 17  2  0  0  0  0
 13  5  1  0  0  0  0
 14 10  1  0  0  0  0
 14  6  2  0  0  0  0
 15  4  1  0  0  0  0
 16 17  1  0  0  0  0
 17 15  1  0  0  0  0
 18 24  1  0  0  0  0
 18 19  1  0  0  0  0
 19  3  1  0  0  0  0
 20  7  1  0  0  0  0
 20  9  2  0  0  0  0
 21 14  1  0  0  0  0
 22 23  1  0  0  0  0
 23 16  1  0  0  0  0
 24 25  1  0  0  0  0
 25 27  1  0  0  0  0
 27 26  2  0  0  0  0
 27 29  1  0  0  0  0
 29 28  1  0  0  0  0
 30 31  1  0  0  0  0
 30 20  1  0  0  0  0
 32 33  1  0  0  0  0
 32 31  1  1  0  0  0
 34 37  1  0  0  0  0
 35 34  1  0  0  0  0
 35 36  1  0  0  0  0
 36 32  1  0  0  0  0
 37 33  1  0  0  0  0
M  END
>  <MODEL>
8

>  <REMARK>
 VINA RESULT:      -7.2      3.194      8.717
  Name = 
  7 active torsions:
  status: ('A' for Active; 'I' for Inactive)
    1  A    between atoms: N_1  and  N_9
    2  A    between atoms: N_1  and  C_30
    3  A    between atoms: C_7  and  O_31
    4  A    between atoms: C_15  and  O_31
    5  A    between atoms: C_15  and  C_34
    6  A    between atoms: O_20  and  C_26
    7  A    between atoms: C_22  and  C_35
                            x       y       z     vdW  Elec       q    Type
                         _______ _______ _______ _____ _____    ______ ____

>  <TORSDO>
F 7

$$$$
=
 OpenBabel11042418373D

 37 42  0  0  1  0  0  0  0  0999 V2000
  195.1920  176.0080  144.1110 C   0  0  0  0  0  3  0  0  0  0  0  0
  190.4740  174.0190  143.3790 C   0  0  0  0  0  3  0  0  0  0  0  0
  192.6630  174.2950  140.4220 C   0  0  0  0  0  3  0  0  0  0  0  0
  194.0800  175.9980  144.9310 C   0  0  0  0  0  0  0  0  0  0  0  0
  192.8170  175.6060  144.4720 C   0  0  0  0  0  0  0  0  0  0  0  0
  195.0510  175.6180  142.8210 N   0  0  0  0  0  0  0  0  0  0  0  0
  190.1590  176.6640  147.4840 N   0  0  0  0  0  0  0  0  0  0  0  0
  189.3150  173.1070  141.4780 C   0  0  0  0  0  3  0  0  0  0  0  0
  190.4940  175.8480  145.2930 N   0  0  0  0  0  0  0  0  0  0  0  0
  193.8210  174.8160  140.9760 C   0  0  0  0  0  3  0  0  0  0  0  0
  191.5510  174.4270  142.5850 C   0  0  0  0  0  0  0  0  0  0  0  0
  189.3650  173.3750  142.8400 C   0  0  0  0  0  3  0  0  0  0  0  0
  191.8370  175.8960  145.4600 C   0  0  0  0  0  0  0  0  0  0  0  0
  193.8630  175.1800  142.3160 C   0  0  0  0  0  0  0  0  0  0  0  0
  194.0250  176.5690  146.5100 S   0  0  0  0  0  0  0  0  0  0  0  0
  191.4980  176.7720  147.7000 C   0  0  0  0  0  0  0  0  0  0  0  0
  192.3590  176.3930  146.6540 C   0  0  0  0  0  0  0  0  0  0  0  0
  190.3760  173.4550  140.6400 C   0  0  0  0  0  0  0  0  0  0  0  0
  191.5240  174.0790  141.1980 C   0  0  0  0  0  0  0  0  0  0  0  0
  189.6550  176.2120  146.3010 C   0  0  0  0  0  0  0  0  0  0  0  0
  192.6980  175.0800  143.1400 C   0  0  0  0  0  0  0  0  0  0  0  0
  191.2710  178.2840  149.6830 C   0  0  0  0  0  1  0  0  0  0  0  0
  191.9280  177.2670  148.9410 O   0  0  0  0  0  0  0  0  0  0  0  0
  190.2450  173.1160  139.2510 N   0  0  0  0  0  0  0  0  0  0  0  0
  190.3930  171.8180  138.7410 N   0  0  0  0  0  0  0  0  0  0  0  0
  189.2880  172.3280  136.7490 O   0  0  0  0  0  0  0  0  0  0  0  0
  189.8890  171.4720  137.4520 C   0  0  0  0  0  0  0  0  0  0  0  0
  190.1220  169.1600  138.0660 N   0  0  0  0  0  1  0  0  0  0  0  0
  190.0500  170.0830  136.9470 C   0  0  0  0  0  2  0  0  0  0  0  0
  188.1840  176.1400  146.1020 C   0  0  0  0  0  2  0  0  0  0  0  0
  187.8210  176.9160  145.0010 O   0  0  0  0  0  0  0  0  0  0  0  0
  186.8570  177.7980  145.4890 C   0  0  2  0  0  3  0  0  0  0  0  0
  185.7300  177.0110  146.1560 C   0  0  0  0  0  2  0  0  0  0  0  0
  184.1520  178.7770  145.3690 C   0  0  0  0  0  2  0  0  0  0  0  0
  185.2730  179.5520  144.8400 N   0  0  0  0  0  2  0  0  0  0  0  0
  186.2840  178.6240  144.3360 C   0  0  0  0  0  2  0  0  0  0  0  0
  184.6050  177.9540  146.5750 C   0  0  0  0  0  2  0  0  0  0  0  0
  1  4  1  0  0  0  0
  3 10  2  0  0  0  0
  3 19  1  0  0  0  0
  4 15  1  0  0  0  0
  5  4  2  0  0  0  0
  5 13  1  0  0  0  0
  6  1  2  0  0  0  0
  7 16  2  0  0  0  0
  8 12  2  0  0  0  0
  9 13  1  0  0  0  0
  9 20  2  0  0  0  0
 10 14  1  0  0  0  0
 11 21  1  0  0  0  0
 11  2  2  0  0  0  0
 12  2  1  0  0  0  0
 13 17  2  0  0  0  0
 14  6  1  0  0  0  0
 14 21  2  0  0  0  0
 15 17  1  0  0  0  0
 16 23  1  0  0  0  0
 17 16  1  0  0  0  0
 18 19  2  0  0  0  0
 18  8  1  0  0  0  0
 19 11  1  0  0  0  0
 20  7  1  0  0  0  0
 21  5  1  0  0  0  0
 23 22  1  0  0  0  0
 24 18  1  0  0  0  0
 25 24  2  0  0  0  0
 26 27  2  0  0  0  0
 27 25  1  0  0  0  0
 29 27  1  0  0  0  0
 29 28  1  0  0  0  0
 30 20  1  0  0  0  0
 31 30  1  0  0  0  0
 32 31  1  6  0  0  0
 32 33  1  0  0  0  0
 33 37  1  0  0  0  0
 34 37  1  0  0  0  0
 35 34  1  0  0  0  0
 36 35  1  0  0  0  0
 36 32  1  0  0  0  0
M  END
>  <MODEL>
9

>  <REMARK>
 VINA RESULT:      -7.2      3.455      8.228
  Name = 
  7 active torsions:
  status: ('A' for Active; 'I' for Inactive)
    1  A    between atoms: N_1  and  N_9
    2  A    between atoms: N_1  and  C_30
    3  A    between atoms: C_7  and  O_31
    4  A    between atoms: C_15  and  O_31
    5  A    between atoms: C_15  and  C_34
    6  A    between atoms: O_20  and  C_26
    7  A    between atoms: C_22  and  C_35
                            x       y       z     vdW  Elec       q    Type
                         _______ _______ _______ _____ _____    ______ ____

>  <TORSDO>
F 7

$$$$
