=
 OpenBabel11042417033D

 44 47  0  0  1  0  0  0  0  0999 V2000
  187.1680  178.0590  145.5980 O   0  0  0  0  0  0  0  0  0  0  0  0
  188.8550  176.0950  141.9650 C   0  0  1  0  0  3  0  0  0  0  0  0
  186.2900  178.4150  142.7800 C   0  0  0  0  0  0  0  0  0  0  0  0
  189.2260  173.7530  142.2580 C   0  0  1  0  0  3  0  0  0  0  0  0
  187.5840  177.9030  143.2950 C   0  0  0  0  0  0  0  0  0  0  0  0
  186.1200  178.0870  141.5310 N   0  0  0  0  0  0  0  0  0  0  0  0
  187.2970  177.3910  141.1320 C   0  0  2  0  0  3  0  0  0  0  0  0
  189.3670  175.1190  142.9790 C   0  0  0  0  0  2  0  0  0  0  0  0
  188.0940  173.2970  140.1350 O   0  0  0  0  0  0  0  0  0  0  0  0
  188.3830  175.5140  140.8670 N   0  0  0  0  0  0  0  0  0  0  0  0
  188.5470  174.1190  140.9750 C   0  0  0  0  0  0  0  0  0  0  0  0
  187.3440  176.2250  140.3780 C   0  0  0  0  0  2  0  0  0  0  0  0
  187.9380  177.6810  144.5220 N   0  0  0  0  0  0  0  0  0  0  0  0
  188.2120  177.2980  142.1390 C   0  0  2  0  0  3  0  0  0  0  0  0
  185.5950  180.3590  143.9580 O   0  0  0  0  0  1  0  0  0  0  0  0
  183.9960  178.7610  143.6340 O   0  0  0  0  0  0  0  0  0  0  0  0
  185.2960  179.2260  143.5000 C   0  0  0  0  0  0  0  0  0  0  0  0
  190.5040  173.2280  141.9890 O   0  0  0  0  0  0  0  0  0  0  0  0
  189.4450  171.5410  143.1030 O   0  0  0  0  0  1  0  0  0  0  0  0
  190.3190  171.1080  141.0630 O   0  0  0  0  0  1  0  0  0  0  0  0
  190.5060  171.8350  142.2460 C   0  0  0  0  0  0  0  0  0  0  0  0
  191.9440  172.4710  144.4280 C   0  0  0  0  0  1  0  0  0  0  0  0
  192.0680  171.2950  143.0430 S   0  0  0  0  0  0  0  0  0  0  0  0
  187.4610  177.5680  146.8950 C   0  0  1  0  0  3  0  0  0  0  0  0
  185.0800  176.9000  146.5290 C   0  0  0  0  0  1  0  0  0  0  0  0
  186.3410  176.6350  147.3300 C   0  0  0  0  0  2  0  0  0  0  0  0
  188.7900  176.8250  146.8680 C   0  0  0  0  0  2  0  0  0  0  0  0
  188.5810  175.3640  147.2130 C   0  0  0  0  0  2  0  0  0  0  0  0
  189.7090  174.5380  146.6270 C   0  0  0  0  0  2  0  0  0  0  0  0
  190.8200  175.4090  146.2900 N   0  0  0  0  0  2  0  0  0  0  0  0
  191.9230  175.0450  147.1650 C   0  0  0  0  0  2  0  0  0  0  0  0
  193.1580  175.8440  146.7970 C   0  0  0  0  0  2  0  0  0  0  0  0
  192.8590  176.7310  145.6000 C   0  0  0  0  0  2  0  0  0  0  0  0
  195.0110  175.6070  145.0030 C   0  0  0  0  0  2  0  0  0  0  0  0
  195.1800  175.5130  141.7740 C   0  0  1  0  0  3  0  0  0  0  0  0
  193.9660  174.8470  142.4520 C   0  0  0  0  0  2  0  0  0  0  0  0
  192.4720  176.7940  142.4750 N   0  0  0  0  0  1  0  0  0  0  0  0
  193.1040  175.7870  143.3090 C   0  0  2  0  0  3  0  0  0  0  0  0
  196.2610  175.6420  144.1070 C   0  0  0  0  0  2  0  0  0  0  0  0
  193.8450  176.4580  144.4770 C   0  0  1  0  0  3  0  0  0  0  0  0
  196.0480  176.3240  142.7510 C   0  0  0  0  0  2  0  0  0  0  0  0
  195.2890  174.0880  139.9970 O   0  0  0  0  0  1  0  0  0  0  0  0
  195.9870  174.5010  141.0830 N   0  0  0  0  0  0  0  0  0  0  0  0
  197.0990  175.1160  140.6050 O   0  0  0  0  0  1  0  0  0  0  0  0
  1 24  1  0  0  0  0
  2 14  1  0  0  0  0
  2  8  1  1  0  0  0
  3  5  1  0  0  0  0
  3 17  1  0  0  0  0
  4 18  1  6  0  0  0
  4  8  1  0  0  0  0
  5 13  2  0  0  0  0
  6  3  2  0  0  0  0
  7 12  1  1  0  0  0
  7  6  1  0  0  0  0
  7 14  1  0  0  0  0
  9 11  2  0  0  0  0
 10 11  1  0  0  0  0
 10  2  1  0  0  0  0
 11  4  1  0  0  0  0
 12 10  1  0  0  0  0
 13  1  1  0  0  0  0
 14  5  1  1  0  0  0
 17 16  2  0  0  0  0
 17 15  1  0  0  0  0
 18 21  1  0  0  0  0
 20 21  1  0  0  0  0
 21 23  1  0  0  0  0
 21 19  1  0  0  0  0
 23 22  1  0  0  0  0
 24 27  1  6  0  0  0
 24 26  1  0  0  0  0
 25 26  1  0  0  0  0
 27 28  1  0  0  0  0
 29 28  1  0  0  0  0
 30 29  1  0  0  0  0
 30 31  1  0  0  0  0
 32 31  1  0  0  0  0
 33 32  1  0  0  0  0
 35 43  1  1  0  0  0
 35 36  1  0  0  0  0
 35 41  1  0  0  0  0
 36 38  1  0  0  0  0
 38 37  1  6  0  0  0
 38 40  1  0  0  0  0
 39 34  1  0  0  0  0
 40 34  1  0  0  0  0
 40 33  1  1  0  0  0
 41 39  1  0  0  0  0
 42 43  1  0  0  0  0
 44 43  1  0  0  0  0
M  END
>  <MODEL>
1

>  <REMARK>
 VINA RESULT:      -6.7      0.000      0.000
  Name = 
  16 active torsions:
  status: ('A' for Active; 'I' for Inactive)
    1  A    between atoms: O_1  and  C_10
    2  A    between atoms: O_1  and  C_33
    3  A    between atoms: O_3  and  C_12
    4  A    between atoms: O_3  and  N_42
    5  A    between atoms: C_5  and  C_17
    6  A    between atoms: C_5  and  C_41
    7  A    between atoms: C_6  and  N_14
    8  A    between atoms: C_6  and  C_25
    9  A    between atoms: C_8  and  C_12
   10  A    between atoms: C_8  and  C_25
   11  A    between atoms: CA_9  and  C_38
   12  A    between atoms: C_12  and  C_26
   13  A    between atoms: N_14  and  C_37
   14  A    between atoms: C_15  and  N_39
   15  A    between atoms: C_17  and  C_37
   16  A    between atoms: S_28  and  C_33
                            x       y       z     vdW  Elec       q    Type
                         _______ _______ _______ _____ _____    ______ ____

>  <TORSDO>
F 16

$$$$
=
 OpenBabel11042417033D

 44 47  0  0  1  0  0  0  0  0999 V2000
  193.3590  174.9640  142.9620 O   0  0  0  0  0  0  0  0  0  0  0  0
  190.1830  177.3860  144.9480 C   0  0  1  0  0  3  0  0  0  0  0  0
  192.9570  175.3700  145.8790 C   0  0  0  0  0  0  0  0  0  0  0  0
  188.0120  177.0190  144.0200 C   0  0  1  0  0  3  0  0  0  0  0  0
  192.4590  176.1900  144.7470 C   0  0  0  0  0  0  0  0  0  0  0  0
  192.2910  175.6240  146.9700 N   0  0  0  0  0  0  0  0  0  0  0  0
  191.3580  176.6500  146.6440 C   0  0  2  0  0  3  0  0  0  0  0  0
  189.5020  177.2040  143.6270 C   0  0  0  0  0  2  0  0  0  0  0  0
  187.0870  176.7280  146.2690 O   0  0  0  0  0  0  0  0  0  0  0  0
  189.3640  177.2500  145.9860 N   0  0  0  0  0  0  0  0  0  0  0  0
  188.0580  177.0070  145.5160 C   0  0  0  0  0  0  0  0  0  0  0  0
  190.0240  176.6960  147.0260 C   0  0  0  0  0  2  0  0  0  0  0  0
  192.5750  175.9720  143.4750 N   0  0  0  0  0  0  0  0  0  0  0  0
  191.4560  177.0470  145.3430 C   0  0  2  0  0  3  0  0  0  0  0  0
  195.2630  174.8020  145.9610 O   0  0  0  0  0  1  0  0  0  0  0  0
  193.8060  173.0490  145.8100 O   0  0  0  0  0  0  0  0  0  0  0  0
  194.0710  174.4100  145.8690 C   0  0  0  0  0  0  0  0  0  0  0  0
  187.2670  178.1270  143.5740 O   0  0  0  0  0  0  0  0  0  0  0  0
  186.1640  178.1230  141.5760 O   0  0  0  0  0  1  0  0  0  0  0  0
  186.0560  176.2750  142.8740 O   0  0  0  0  0  1  0  0  0  0  0  0
  186.1080  177.6750  142.8960 C   0  0  0  0  0  0  0  0  0  0  0  0
  185.3400  179.8720  144.2430 C   0  0  0  0  0  1  0  0  0  0  0  0
  184.5750  178.3230  143.6680 S   0  0  0  0  0  0  0  0  0  0  0  0
  194.2620  175.2280  141.9020 C   0  0  1  0  0  3  0  0  0  0  0  0
  196.0990  176.8350  141.3640 C   0  0  0  0  0  1  0  0  0  0  0  0
  195.4510  176.0000  142.4520 C   0  0  0  0  0  2  0  0  0  0  0  0
  194.7230  173.9110  141.2900 C   0  0  0  0  0  2  0  0  0  0  0  0
  193.6180  173.3110  140.4430 C   0  0  0  0  0  2  0  0  0  0  0  0
  193.1610  174.3240  139.4130 C   0  0  0  0  0  2  0  0  0  0  0  0
  192.9680  173.6590  138.1360 N   0  0  0  0  0  2  0  0  0  0  0  0
  191.5600  173.7910  137.7990 C   0  0  0  0  0  2  0  0  0  0  0  0
  190.8530  172.4670  138.0110 C   0  0  0  0  0  2  0  0  0  0  0  0
  189.4500  172.7120  138.5410 C   0  0  0  0  0  2  0  0  0  0  0  0
  190.5150  171.6300  140.5270 C   0  0  0  0  0  2  0  0  0  0  0  0
  189.5460  173.2650  143.1440 C   0  0  1  0  0  3  0  0  0  0  0  0
  190.2780  174.0480  142.0360 C   0  0  0  0  0  2  0  0  0  0  0  0
  188.3130  174.6910  140.7120 N   0  0  0  0  0  1  0  0  0  0  0  0
  189.5980  174.0130  140.6580 C   0  0  2  0  0  3  0  0  0  0  0  0
  190.3060  171.1090  141.9590 C   0  0  0  0  0  2  0  0  0  0  0  0
  189.4290  172.6090  140.0560 C   0  0  1  0  0  3  0  0  0  0  0  0
  189.1950  171.8240  142.7350 C   0  0  0  0  0  2  0  0  0  0  0  0
  189.5970  173.8540  145.3460 O   0  0  0  0  0  1  0  0  0  0  0  0
  190.3440  173.2730  144.3750 N   0  0  0  0  0  0  0  0  0  0  0  0
  190.5240  171.9840  144.7580 O   0  0  0  0  0  1  0  0  0  0  0  0
  1 13  1  0  0  0  0
  2  8  1  6  0  0  0
  2 14  1  0  0  0  0
  2 10  1  0  0  0  0
  3  6  2  0  0  0  0
  4 18  1  1  0  0  0
  4 11  1  0  0  0  0
  5  3  1  0  0  0  0
  7  6  1  0  0  0  0
  7 12  1  6  0  0  0
  8  4  1  0  0  0  0
 10 12  1  0  0  0  0
 11 10  1  0  0  0  0
 11  9  2  0  0  0  0
 13  5  2  0  0  0  0
 14  5  1  6  0  0  0
 14  7  1  0  0  0  0
 16 17  2  0  0  0  0
 17  3  1  0  0  0  0
 17 15  1  0  0  0  0
 19 21  1  0  0  0  0
 20 21  1  0  0  0  0
 21 18  1  0  0  0  0
 21 23  1  0  0  0  0
 23 22  1  0  0  0  0
 24 27  1  1  0  0  0
 24 26  1  0  0  0  0
 24  1  1  0  0  0  0
 25 26  1  0  0  0  0
 28 27  1  0  0  0  0
 29 28  1  0  0  0  0
 30 29  1  0  0  0  0
 31 32  1  0  0  0  0
 31 30  1  0  0  0  0
 32 33  1  0  0  0  0
 34 39  1  0  0  0  0
 35 43  1  1  0  0  0
 36 35  1  0  0  0  0
 38 37  1  1  0  0  0
 38 36  1  0  0  0  0
 39 41  1  0  0  0  0
 40 33  1  6  0  0  0
 40 34  1  0  0  0  0
 40 38  1  0  0  0  0
 41 35  1  0  0  0  0
 43 44  1  0  0  0  0
 43 42  1  0  0  0  0
M  END
>  <MODEL>
2

>  <REMARK>
 VINA RESULT:      -5.9      2.866      7.791
  Name = 
  16 active torsions:
  status: ('A' for Active; 'I' for Inactive)
    1  A    between atoms: O_1  and  C_10
    2  A    between atoms: O_1  and  C_33
    3  A    between atoms: O_3  and  C_12
    4  A    between atoms: O_3  and  N_42
    5  A    between atoms: C_5  and  C_17
    6  A    between atoms: C_5  and  C_41
    7  A    between atoms: C_6  and  N_14
    8  A    between atoms: C_6  and  C_25
    9  A    between atoms: C_8  and  C_12
   10  A    between atoms: C_8  and  C_25
   11  A    between atoms: CA_9  and  C_38
   12  A    between atoms: C_12  and  C_26
   13  A    between atoms: N_14  and  C_37
   14  A    between atoms: C_15  and  N_39
   15  A    between atoms: C_17  and  C_37
   16  A    between atoms: S_28  and  C_33
                            x       y       z     vdW  Elec       q    Type
                         _______ _______ _______ _____ _____    ______ ____

>  <TORSDO>
F 16

$$$$
=
 OpenBabel11042417033D

 44 47  0  0  1  0  0  0  0  0999 V2000
  189.9590  177.2000  146.6280 O   0  0  0  0  0  0  0  0  0  0  0  0
  188.9910  176.1140  142.4110 C   0  0  1  0  0  3  0  0  0  0  0  0
  187.2720  177.1070  145.3590 C   0  0  0  0  0  0  0  0  0  0  0  0
  190.1520  174.1660  141.6600 C   0  0  1  0  0  3  0  0  0  0  0  0
  188.6040  177.2110  144.7140 C   0  0  0  0  0  0  0  0  0  0  0  0
  186.3670  176.7220  144.5050 N   0  0  0  0  0  0  0  0  0  0  0  0
  187.0240  176.5990  143.2470 C   0  0  2  0  0  3  0  0  0  0  0  0
  190.3400  175.4680  142.4820 C   0  0  0  0  0  2  0  0  0  0  0  0
  188.0580  173.2400  140.7900 O   0  0  0  0  0  0  0  0  0  0  0  0
  188.0840  175.3720  141.7830 N   0  0  0  0  0  0  0  0  0  0  0  0
  188.6920  174.1870  141.3260 C   0  0  0  0  0  0  0  0  0  0  0  0
  186.8680  175.5590  142.3400 C   0  0  0  0  0  2  0  0  0  0  0  0
  189.7770  177.1790  145.2650 N   0  0  0  0  0  0  0  0  0  0  0  0
  188.3470  176.9230  143.3190 C   0  0  2  0  0  3  0  0  0  0  0  0
  186.5770  176.5080  147.5510 O   0  0  0  0  0  1  0  0  0  0  0  0
  187.0310  178.7210  147.2150 O   0  0  0  0  0  0  0  0  0  0  0  0
  186.9250  177.4170  146.7540 C   0  0  0  0  0  0  0  0  0  0  0  0
  190.9130  174.2410  140.4780 O   0  0  0  0  0  0  0  0  0  0  0  0
  193.1710  174.0030  140.7040 O   0  0  0  0  0  1  0  0  0  0  0  0
  191.8220  172.4470  141.6350 O   0  0  0  0  0  1  0  0  0  0  0  0
  191.9740  173.3050  140.5390 C   0  0  0  0  0  0  0  0  0  0  0  0
  190.7150  171.1930  139.4480 C   0  0  0  0  0  1  0  0  0  0  0  0
  192.0870  172.3070  139.0040 S   0  0  0  0  0  0  0  0  0  0  0  0
  190.6660  176.1540  147.2730 C   0  0  1  0  0  3  0  0  0  0  0  0
  189.6060  174.0690  146.3920 C   0  0  0  0  0  1  0  0  0  0  0  0
  189.6980  175.0190  147.5720 C   0  0  0  0  0  2  0  0  0  0  0  0
  191.7900  175.6690  146.3660 C   0  0  0  0  0  2  0  0  0  0  0  0
  193.1320  176.1240  146.9030 C   0  0  0  0  0  2  0  0  0  0  0  0
  193.9210  176.7930  145.7960 C   0  0  0  0  0  2  0  0  0  0  0  0
  193.1100  176.8520  144.5940 N   0  0  0  0  0  2  0  0  0  0  0  0
  193.8740  176.2120  143.5360 C   0  0  0  0  0  2  0  0  0  0  0  0
  195.3110  176.0230  143.9800 C   0  0  0  0  0  2  0  0  0  0  0  0
  195.9740  174.9480  143.1340 C   0  0  0  0  0  2  0  0  0  0  0  0
  196.3220  174.0090  145.4250 C   0  0  0  0  0  2  0  0  0  0  0  0
  195.6980  170.8390  145.2670 C   0  0  1  0  0  3  0  0  0  0  0  0
  194.5810  171.8150  144.8460 C   0  0  0  0  0  2  0  0  0  0  0  0
  195.1490  171.9840  142.4640 N   0  0  0  0  0  1  0  0  0  0  0  0
  194.9410  172.7500  143.6800 C   0  0  2  0  0  3  0  0  0  0  0  0
  196.9360  172.8690  146.2560 C   0  0  0  0  0  2  0  0  0  0  0  0
  196.1450  173.6700  143.9380 C   0  0  1  0  0  3  0  0  0  0  0  0
  197.0490  171.5350  145.5100 C   0  0  0  0  0  2  0  0  0  0  0  0
  194.5810  169.0050  146.0320 O   0  0  0  0  0  1  0  0  0  0  0  0
  195.2840  170.0850  146.4550 N   0  0  0  0  0  0  0  0  0  0  0  0
  196.4050  169.5970  147.0450 O   0  0  0  0  0  1  0  0  0  0  0  0
  1 24  1  0  0  0  0
  2  8  1  1  0  0  0
  2 14  1  0  0  0  0
  3 17  1  0  0  0  0
  4 18  1  6  0  0  0
  4  8  1  0  0  0  0
  5 13  2  0  0  0  0
  5  3  1  0  0  0  0
  6  3  2  0  0  0  0
  7 12  1  1  0  0  0
  7 14  1  0  0  0  0
  7  6  1  0  0  0  0
  9 11  2  0  0  0  0
 10 12  1  0  0  0  0
 10  2  1  0  0  0  0
 11  4  1  0  0  0  0
 11 10  1  0  0  0  0
 13  1  1  0  0  0  0
 14  5  1  1  0  0  0
 17 16  2  0  0  0  0
 17 15  1  0  0  0  0
 18 21  1  0  0  0  0
 21 19  1  0  0  0  0
 21 20  1  0  0  0  0
 23 22  1  0  0  0  0
 23 21  1  0  0  0  0
 24 27  1  6  0  0  0
 24 26  1  0  0  0  0
 25 26  1  0  0  0  0
 27 28  1  0  0  0  0
 29 28  1  0  0  0  0
 30 29  1  0  0  0  0
 31 32  1  0  0  0  0
 31 30  1  0  0  0  0
 33 32  1  0  0  0  0
 34 39  1  0  0  0  0
 35 41  1  0  0  0  0
 35 43  1  1  0  0  0
 36 35  1  0  0  0  0
 38 37  1  6  0  0  0
 38 40  1  0  0  0  0
 38 36  1  0  0  0  0
 40 33  1  6  0  0  0
 40 34  1  0  0  0  0
 41 39  1  0  0  0  0
 42 43  1  0  0  0  0
 43 44  1  0  0  0  0
M  END
>  <MODEL>
3

>  <REMARK>
 VINA RESULT:      -5.9      2.793      4.033
  Name = 
  16 active torsions:
  status: ('A' for Active; 'I' for Inactive)
    1  A    between atoms: O_1  and  C_10
    2  A    between atoms: O_1  and  C_33
    3  A    between atoms: O_3  and  C_12
    4  A    between atoms: O_3  and  N_42
    5  A    between atoms: C_5  and  C_17
    6  A    between atoms: C_5  and  C_41
    7  A    between atoms: C_6  and  N_14
    8  A    between atoms: C_6  and  C_25
    9  A    between atoms: C_8  and  C_12
   10  A    between atoms: C_8  and  C_25
   11  A    between atoms: CA_9  and  C_38
   12  A    between atoms: C_12  and  C_26
   13  A    between atoms: N_14  and  C_37
   14  A    between atoms: C_15  and  N_39
   15  A    between atoms: C_17  and  C_37
   16  A    between atoms: S_28  and  C_33
                            x       y       z     vdW  Elec       q    Type
                         _______ _______ _______ _____ _____    ______ ____

>  <TORSDO>
F 16

$$$$
=
 OpenBabel11042417033D

 44 47  0  0  1  0  0  0  0  0999 V2000
  192.3940  174.0540  144.8910 O   0  0  0  0  0  0  0  0  0  0  0  0
  194.0770  173.6560  140.7780 C   0  0  1  0  0  3  0  0  0  0  0  0
  194.7890  175.4200  143.7800 C   0  0  0  0  0  0  0  0  0  0  0  0
  192.4050  173.7480  139.0740 C   0  0  1  0  0  3  0  0  0  0  0  0
  194.1140  174.1880  143.3020 C   0  0  0  0  0  0  0  0  0  0  0  0
  195.5570  175.9220  142.8550 N   0  0  0  0  0  0  0  0  0  0  0  0
  195.4790  175.0380  141.7410 C   0  0  2  0  0  3  0  0  0  0  0  0
  192.6950  173.1620  140.4800 C   0  0  0  0  0  2  0  0  0  0  0  0
  193.7440  175.3820  137.8340 O   0  0  0  0  0  0  0  0  0  0  0  0
  194.5580  174.4690  139.8440 N   0  0  0  0  0  0  0  0  0  0  0  0
  193.6130  174.5920  138.8060 C   0  0  0  0  0  0  0  0  0  0  0  0
  195.3460  175.4090  140.4090 C   0  0  0  0  0  2  0  0  0  0  0  0
  193.0280  173.6350  143.7440 N   0  0  0  0  0  0  0  0  0  0  0  0
  194.6650  173.9700  141.9820 C   0  0  2  0  0  3  0  0  0  0  0  0
  195.2560  175.5110  146.1080 O   0  0  0  0  0  1  0  0  0  0  0  0
  194.0200  177.2380  145.2680 O   0  0  0  0  0  0  0  0  0  0  0  0
  194.6940  176.0350  145.1130 C   0  0  0  0  0  0  0  0  0  0  0  0
  192.3340  172.7030  138.1330 O   0  0  0  0  0  0  0  0  0  0  0  0
  190.7310  173.9640  137.1100 O   0  0  0  0  0  1  0  0  0  0  0  0
  191.0130  171.8230  136.4410 O   0  0  0  0  0  1  0  0  0  0  0  0
  191.0440  172.6780  137.5510 C   0  0  0  0  0  0  0  0  0  0  0  0
  189.7660  170.4070  138.2170 C   0  0  0  0  0  1  0  0  0  0  0  0
  189.7660  172.1460  138.7550 S   0  0  0  0  0  0  0  0  0  0  0  0
  191.0510  174.5040  144.8420 C   0  0  1  0  0  3  0  0  0  0  0  0
  189.3320  174.5820  146.6550 C   0  0  0  0  0  1  0  0  0  0  0  0
  190.6830  175.0960  146.1940 C   0  0  0  0  0  2  0  0  0  0  0  0
  190.9080  175.5530  143.7470 C   0  0  0  0  0  2  0  0  0  0  0  0
  190.2160  174.9590  142.5370 C   0  0  0  0  0  2  0  0  0  0  0  0
  189.0290  174.1310  142.9870 C   0  0  0  0  0  2  0  0  0  0  0  0
  187.9470  174.2780  142.0290 N   0  0  0  0  0  2  0  0  0  0  0  0
  188.3210  175.3610  141.1330 C   0  0  0  0  0  2  0  0  0  0  0  0
  187.2540  176.4370  141.1540 C   0  0  0  0  0  2  0  0  0  0  0  0
  187.8530  177.7460  141.6420 C   0  0  0  0  0  2  0  0  0  0  0  0
  185.6230  178.1390  142.7030 C   0  0  0  0  0  2  0  0  0  0  0  0
  186.1250  178.5210  145.8760 C   0  0  1  0  0  3  0  0  0  0  0  0
  186.6010  177.2070  145.2240 C   0  0  0  0  0  2  0  0  0  0  0  0
  188.8690  177.9230  144.6170 N   0  0  0  0  0  1  0  0  0  0  0  0
  187.6290  177.3770  144.0940 C   0  0  2  0  0  3  0  0  0  0  0  0
  184.8200  178.9860  143.7050 C   0  0  0  0  0  2  0  0  0  0  0  0
  187.1440  178.2170  142.9010 C   0  0  1  0  0  3  0  0  0  0  0  0
  185.6550  179.5680  144.8520 C   0  0  0  0  0  2  0  0  0  0  0  0
  184.4610  177.0860  146.4850 O   0  0  0  0  0  1  0  0  0  0  0  0
  185.0670  178.2420  146.8530 N   0  0  0  0  0  0  0  0  0  0  0  0
  185.6630  177.9920  148.0460 O   0  0  0  0  0  1  0  0  0  0  0  0
  2  8  1  1  0  0  0
  2 14  1  0  0  0  0
  3 17  1  0  0  0  0
  4 18  1  6  0  0  0
  4  8  1  0  0  0  0
  5 13  2  0  0  0  0
  5  3  1  0  0  0  0
  6  3  2  0  0  0  0
  7 12  1  6  0  0  0
  7 14  1  0  0  0  0
  7  6  1  0  0  0  0
  9 11  2  0  0  0  0
 10 12  1  0  0  0  0
 10  2  1  0  0  0  0
 11  4  1  0  0  0  0
 11 10  1  0  0  0  0
 13  1  1  0  0  0  0
 14  5  1  1  0  0  0
 17 16  2  0  0  0  0
 17 15  1  0  0  0  0
 19 21  1  0  0  0  0
 20 21  1  0  0  0  0
 21 18  1  0  0  0  0
 21 23  1  0  0  0  0
 22 23  1  0  0  0  0
 24 27  1  6  0  0  0
 24  1  1  0  0  0  0
 24 26  1  0  0  0  0
 26 25  1  0  0  0  0
 28 29  1  0  0  0  0
 28 27  1  0  0  0  0
 30 29  1  0  0  0  0
 31 32  1  0  0  0  0
 31 30  1  0  0  0  0
 32 33  1  0  0  0  0
 34 40  1  0  0  0  0
 34 39  1  0  0  0  0
 35 43  1  1  0  0  0
 36 35  1  0  0  0  0
 38 37  1  1  0  0  0
 38 36  1  0  0  0  0
 39 41  1  0  0  0  0
 40 33  1  6  0  0  0
 40 38  1  0  0  0  0
 41 35  1  0  0  0  0
 42 43  1  0  0  0  0
 43 44  1  0  0  0  0
M  END
>  <MODEL>
4

>  <REMARK>
 VINA RESULT:      -5.9      2.762      7.822
  Name = 
  16 active torsions:
  status: ('A' for Active; 'I' for Inactive)
    1  A    between atoms: O_1  and  C_10
    2  A    between atoms: O_1  and  C_33
    3  A    between atoms: O_3  and  C_12
    4  A    between atoms: O_3  and  N_42
    5  A    between atoms: C_5  and  C_17
    6  A    between atoms: C_5  and  C_41
    7  A    between atoms: C_6  and  N_14
    8  A    between atoms: C_6  and  C_25
    9  A    between atoms: C_8  and  C_12
   10  A    between atoms: C_8  and  C_25
   11  A    between atoms: CA_9  and  C_38
   12  A    between atoms: C_12  and  C_26
   13  A    between atoms: N_14  and  C_37
   14  A    between atoms: C_15  and  N_39
   15  A    between atoms: C_17  and  C_37
   16  A    between atoms: S_28  and  C_33
                            x       y       z     vdW  Elec       q    Type
                         _______ _______ _______ _____ _____    ______ ____

>  <TORSDO>
F 16

$$$$
=
 OpenBabel11042417033D

 44 47  0  0  1  0  0  0  0  0999 V2000
  186.7320  178.3890  145.6060 O   0  0  0  0  0  0  0  0  0  0  0  0
  188.5780  176.5750  141.9720 C   0  0  1  0  0  3  0  0  0  0  0  0
  185.7950  178.6260  142.7950 C   0  0  0  0  0  0  0  0  0  0  0  0
  189.1900  174.2870  142.2810 C   0  0  1  0  0  3  0  0  0  0  0  0
  187.1390  178.2550  143.3000 C   0  0  0  0  0  0  0  0  0  0  0  0
  185.6470  178.2710  141.5500 N   0  0  0  0  0  0  0  0  0  0  0  0
  186.8860  177.6960  141.1450 C   0  0  2  0  0  3  0  0  0  0  0  0
  189.1970  175.6670  142.9890 C   0  0  0  0  0  2  0  0  0  0  0  0
  188.0910  173.6970  140.1730 O   0  0  0  0  0  0  0  0  0  0  0  0
  188.1570  175.9390  140.8850 N   0  0  0  0  0  0  0  0  0  0  0  0
  188.4650  174.5690  141.0020 C   0  0  0  0  0  0  0  0  0  0  0  0
  187.0460  176.5350  140.4000 C   0  0  0  0  0  2  0  0  0  0  0  0
  187.5260  178.0820  144.5260 N   0  0  0  0  0  0  0  0  0  0  0  0
  187.8150  177.7080  142.1430 C   0  0  2  0  0  3  0  0  0  0  0  0
  183.5400  178.9310  143.4800 O   0  0  0  0  0  0  0  0  0  0  0  0
  185.0460  180.4420  144.2970 O   0  0  0  0  0  1  0  0  0  0  0  0
  184.7300  179.3380  143.5190 C   0  0  0  0  0  0  0  0  0  0  0  0
  190.5130  173.8930  142.0030 O   0  0  0  0  0  0  0  0  0  0  0  0
  190.9820  173.0260  144.0610 O   0  0  0  0  0  1  0  0  0  0  0  0
  189.7580  171.7870  142.6190 O   0  0  0  0  0  1  0  0  0  0  0  0
  190.8120  172.7050  142.7140 C   0  0  0  0  0  0  0  0  0  0  0  0
  192.0240  170.3110  142.8930 C   0  0  0  0  0  1  0  0  0  0  0  0
  192.3520  171.9190  142.1020 S   0  0  0  0  0  0  0  0  0  0  0  0
  187.0530  177.8930  146.8950 C   0  0  1  0  0  3  0  0  0  0  0  0
  184.7950  176.9430  146.4000 C   0  0  0  0  0  1  0  0  0  0  0  0
  186.0210  176.8480  147.2890 C   0  0  0  0  0  2  0  0  0  0  0  0
  188.4470  177.2790  146.8680 C   0  0  0  0  0  2  0  0  0  0  0  0
  188.3790  175.8080  147.2270 C   0  0  0  0  0  2  0  0  0  0  0  0
  189.4530  175.0510  146.4720 C   0  0  0  0  0  2  0  0  0  0  0  0
  190.6210  174.8970  147.3200 N   0  0  0  0  0  2  0  0  0  0  0  0
  191.7170  175.5880  146.6600 C   0  0  0  0  0  2  0  0  0  0  0  0
  192.9750  174.7450  146.7310 C   0  0  0  0  0  2  0  0  0  0  0  0
  193.8030  174.9500  145.4730 C   0  0  0  0  0  2  0  0  0  0  0  0
  194.0620  172.4630  145.4780 C   0  0  0  0  0  2  0  0  0  0  0  0
  196.9170  171.7930  144.1140 C   0  0  1  0  0  3  0  0  0  0  0  0
  195.8940  172.5980  143.2870 C   0  0  0  0  0  2  0  0  0  0  0  0
  196.5780  174.8490  143.9870 N   0  0  0  0  0  1  0  0  0  0  0  0
  195.4550  173.9300  143.9150 C   0  0  2  0  0  3  0  0  0  0  0  0
  195.0040  171.2800  145.7600 C   0  0  0  0  0  2  0  0  0  0  0  0
  194.7850  173.8050  145.2930 C   0  0  1  0  0  3  0  0  0  0  0  0
  196.4920  171.6020  145.5810 C   0  0  0  0  0  2  0  0  0  0  0  0
  197.9410  170.7200  142.3830 O   0  0  0  0  0  1  0  0  0  0  0  0
  197.1700  170.4970  143.4760 N   0  0  0  0  0  0  0  0  0  0  0  0
  197.9280  169.7590  144.3270 O   0  0  0  0  0  1  0  0  0  0  0  0
  1 24  1  0  0  0  0
  2 14  1  0  0  0  0
  2  8  1  1  0  0  0
  3  5  1  0  0  0  0
  3 17  1  0  0  0  0
  4 18  1  6  0  0  0
  4  8  1  0  0  0  0
  5 13  2  0  0  0  0
  6  3  2  0  0  0  0
  7 12  1  1  0  0  0
  7  6  1  0  0  0  0
  7 14  1  0  0  0  0
  9 11  2  0  0  0  0
 10 11  1  0  0  0  0
 10  2  1  0  0  0  0
 11  4  1  0  0  0  0
 12 10  1  0  0  0  0
 13  1  1  0  0  0  0
 14  5  1  1  0  0  0
 15 17  2  0  0  0  0
 17 16  1  0  0  0  0
 18 21  1  0  0  0  0
 20 21  1  0  0  0  0
 21 19  1  0  0  0  0
 23 21  1  0  0  0  0
 23 22  1  0  0  0  0
 24 27  1  6  0  0  0
 24 26  1  0  0  0  0
 25 26  1  0  0  0  0
 27 28  1  0  0  0  0
 29 28  1  0  0  0  0
 29 30  1  0  0  0  0
 31 32  1  0  0  0  0
 31 30  1  0  0  0  0
 33 32  1  0  0  0  0
 34 39  1  0  0  0  0
 35 43  1  6  0  0  0
 35 41  1  0  0  0  0
 36 38  1  0  0  0  0
 36 35  1  0  0  0  0
 38 37  1  1  0  0  0
 38 40  1  0  0  0  0
 40 33  1  6  0  0  0
 40 34  1  0  0  0  0
 41 39  1  0  0  0  0
 42 43  1  0  0  0  0
 43 44  1  0  0  0  0
M  END
>  <MODEL>
5

>  <REMARK>
 VINA RESULT:      -5.7      2.085      2.478
  Name = 
  16 active torsions:
  status: ('A' for Active; 'I' for Inactive)
    1  A    between atoms: O_1  and  C_10
    2  A    between atoms: O_1  and  C_33
    3  A    between atoms: O_3  and  C_12
    4  A    between atoms: O_3  and  N_42
    5  A    between atoms: C_5  and  C_17
    6  A    between atoms: C_5  and  C_41
    7  A    between atoms: C_6  and  N_14
    8  A    between atoms: C_6  and  C_25
    9  A    between atoms: C_8  and  C_12
   10  A    between atoms: C_8  and  C_25
   11  A    between atoms: CA_9  and  C_38
   12  A    between atoms: C_12  and  C_26
   13  A    between atoms: N_14  and  C_37
   14  A    between atoms: C_15  and  N_39
   15  A    between atoms: C_17  and  C_37
   16  A    between atoms: S_28  and  C_33
                            x       y       z     vdW  Elec       q    Type
                         _______ _______ _______ _____ _____    ______ ____

>  <TORSDO>
F 16

$$$$
=
 OpenBabel11042417033D

 44 47  0  0  1  0  0  0  0  0999 V2000
  195.6050  174.5000  144.4280 O   0  0  0  0  0  0  0  0  0  0  0  0
  191.9040  172.0990  143.7670 C   0  0  1  0  0  3  0  0  0  0  0  0
  195.2640  171.5700  144.7940 C   0  0  0  0  0  0  0  0  0  0  0  0
  190.7850  172.6520  141.7300 C   0  0  1  0  0  3  0  0  0  0  0  0
  194.2280  172.6300  144.7540 C   0  0  0  0  0  0  0  0  0  0  0  0
  194.7400  170.3940  144.5970 N   0  0  0  0  0  0  0  0  0  0  0  0
  193.3350  170.5940  144.4650 C   0  0  2  0  0  3  0  0  0  0  0  0
  191.5260  173.2860  142.9360 C   0  0  0  0  0  2  0  0  0  0  0  0
  190.6180  170.2760  141.1640 O   0  0  0  0  0  0  0  0  0  0  0  0
  191.5870  170.9390  143.2020 N   0  0  0  0  0  0  0  0  0  0  0  0
  190.9380  171.1830  141.9760 C   0  0  0  0  0  0  0  0  0  0  0  0
  192.5080  170.0040  143.5190 C   0  0  0  0  0  2  0  0  0  0  0  0
  194.3720  173.8980  144.5220 N   0  0  0  0  0  0  0  0  0  0  0  0
  192.9840  171.9060  144.5970 C   0  0  2  0  0  3  0  0  0  0  0  0
  197.1240  171.9680  146.2190 O   0  0  0  0  0  1  0  0  0  0  0  0
  197.6140  171.5700  144.0240 O   0  0  0  0  0  0  0  0  0  0  0  0
  196.7020  171.7310  145.0580 C   0  0  0  0  0  0  0  0  0  0  0  0
  189.4230  173.0050  141.7760 O   0  0  0  0  0  0  0  0  0  0  0  0
  187.9840  172.7050  140.0300 O   0  0  0  0  0  1  0  0  0  0  0  0
  188.5390  174.8150  140.6240 O   0  0  0  0  0  1  0  0  0  0  0  0
  189.0210  173.5040  140.5130 C   0  0  0  0  0  0  0  0  0  0  0  0
  189.3430  173.8500  137.8650 C   0  0  0  0  0  1  0  0  0  0  0  0
  190.3980  173.4700  139.3010 S   0  0  0  0  0  0  0  0  0  0  0  0
  195.7220  175.9100  144.5140 C   0  0  1  0  0  3  0  0  0  0  0  0
  195.2790  176.1220  142.0640 C   0  0  0  0  0  1  0  0  0  0  0  0
  196.2460  176.4400  143.1880 C   0  0  0  0  0  2  0  0  0  0  0  0
  194.3580  176.5130  144.8250 C   0  0  0  0  0  2  0  0  0  0  0  0
  194.3070  176.9830  146.2650 C   0  0  0  0  0  2  0  0  0  0  0  0
  193.1180  176.3550  146.9630 C   0  0  0  0  0  2  0  0  0  0  0  0
  192.0440  176.1630  146.0050 N   0  0  0  0  0  2  0  0  0  0  0  0
  191.3960  174.9060  146.3430 C   0  0  0  0  0  2  0  0  0  0  0  0
  190.0620  175.1780  147.0110 C   0  0  0  0  0  2  0  0  0  0  0  0
  189.6860  176.6400  146.8350 C   0  0  0  0  0  2  0  0  0  0  0  0
  187.3780  177.5950  146.7310 C   0  0  0  0  0  2  0  0  0  0  0  0
  186.4020  177.4120  143.6520 C   0  0  1  0  0  3  0  0  0  0  0  0
  187.6960  178.1950  143.9520 C   0  0  0  0  0  2  0  0  0  0  0  0
  189.2840  176.3370  143.7260 N   0  0  0  0  0  1  0  0  0  0  0  0
  188.8100  177.3760  144.6230 C   0  0  2  0  0  3  0  0  0  0  0  0
  185.9500  177.4210  146.1880 C   0  0  0  0  0  2  0  0  0  0  0  0
  188.4340  176.7670  145.9840 C   0  0  1  0  0  3  0  0  0  0  0  0
  185.8660  176.6400  144.8710 C   0  0  0  0  0  2  0  0  0  0  0  0
  185.8990  178.9410  142.0380 O   0  0  0  0  0  1  0  0  0  0  0  0
  185.3770  178.3180  143.1240 N   0  0  0  0  0  0  0  0  0  0  0  0
  184.3510  177.5580  142.6650 O   0  0  0  0  0  1  0  0  0  0  0  0
  1 24  1  0  0  0  0
  1 13  1  0  0  0  0
  2  8  1  6  0  0  0
  2 14  1  0  0  0  0
  3 17  1  0  0  0  0
  4 18  1  1  0  0  0
  4 11  1  0  0  0  0
  4  8  1  0  0  0  0
  5  3  1  0  0  0  0
  6  3  2  0  0  0  0
  7 12  1  6  0  0  0
  7 14  1  0  0  0  0
  7  6  1  0  0  0  0
  9 11  2  0  0  0  0
 10 12  1  0  0  0  0
 10  2  1  0  0  0  0
 11 10  1  0  0  0  0
 13  5  2  0  0  0  0
 14  5  1  6  0  0  0
 16 17  2  0  0  0  0
 17 15  1  0  0  0  0
 19 21  1  0  0  0  0
 21 20  1  0  0  0  0
 21 18  1  0  0  0  0
 22 23  1  0  0  0  0
 23 21  1  0  0  0  0
 24 26  1  6  0  0  0
 24 27  1  0  0  0  0
 25 26  1  0  0  0  0
 27 28  1  0  0  0  0
 28 29  1  0  0  0  0
 30 31  1  0  0  0  0
 30 29  1  0  0  0  0
 31 32  1  0  0  0  0
 33 32  1  0  0  0  0
 35 43  1  1  0  0  0
 35 36  1  0  0  0  0
 35 41  1  0  0  0  0
 36 38  1  0  0  0  0
 38 37  1  6  0  0  0
 38 40  1  0  0  0  0
 39 34  1  0  0  0  0
 40 34  1  0  0  0  0
 40 33  1  1  0  0  0
 41 39  1  0  0  0  0
 42 43  1  0  0  0  0
 44 43  1  0  0  0  0
M  END
>  <MODEL>
6

>  <REMARK>
 VINA RESULT:      -5.7      2.550      8.133
  Name = 
  16 active torsions:
  status: ('A' for Active; 'I' for Inactive)
    1  A    between atoms: O_1  and  C_10
    2  A    between atoms: O_1  and  C_33
    3  A    between atoms: O_3  and  C_12
    4  A    between atoms: O_3  and  N_42
    5  A    between atoms: C_5  and  C_17
    6  A    between atoms: C_5  and  C_41
    7  A    between atoms: C_6  and  N_14
    8  A    between atoms: C_6  and  C_25
    9  A    between atoms: C_8  and  C_12
   10  A    between atoms: C_8  and  C_25
   11  A    between atoms: CA_9  and  C_38
   12  A    between atoms: C_12  and  C_26
   13  A    between atoms: N_14  and  C_37
   14  A    between atoms: C_15  and  N_39
   15  A    between atoms: C_17  and  C_37
   16  A    between atoms: S_28  and  C_33
                            x       y       z     vdW  Elec       q    Type
                         _______ _______ _______ _____ _____    ______ ____

>  <TORSDO>
F 16

$$$$
=
 OpenBabel11042417033D

 44 47  0  0  1  0  0  0  0  0999 V2000
  192.5490  172.4140  141.2020 O   0  0  0  0  0  0  0  0  0  0  0  0
  188.5140  174.2730  141.6100 C   0  0  1  0  0  3  0  0  0  0  0  0
  190.6170  173.0320  139.0290 C   0  0  0  0  0  0  0  0  0  0  0  0
  188.5020  176.1630  143.0710 C   0  0  1  0  0  3  0  0  0  0  0  0
  190.3640  172.8740  140.4820 C   0  0  0  0  0  0  0  0  0  0  0  0
  189.6310  173.6550  138.4470 N   0  0  0  0  0  0  0  0  0  0  0  0
  188.6560  173.9000  139.4560 C   0  0  2  0  0  3  0  0  0  0  0  0
  189.0820  174.7330  142.9170 C   0  0  0  0  0  2  0  0  0  0  0  0
  187.2710  177.4620  141.3990 O   0  0  0  0  0  0  0  0  0  0  0  0
  187.8090  175.2100  140.9840 N   0  0  0  0  0  0  0  0  0  0  0  0
  187.7740  176.3720  141.7800 C   0  0  0  0  0  0  0  0  0  0  0  0
  187.9550  175.0830  139.6480 C   0  0  0  0  0  2  0  0  0  0  0  0
  191.2190  172.6760  141.4370 N   0  0  0  0  0  0  0  0  0  0  0  0
  189.0340  173.4120  140.6720 C   0  0  2  0  0  3  0  0  0  0  0  0
  192.7330  173.3080  137.9840 O   0  0  0  0  0  1  0  0  0  0  0  0
  191.8330  171.2110  137.8800 O   0  0  0  0  0  0  0  0  0  0  0  0
  191.7730  172.5440  138.2610 C   0  0  0  0  0  0  0  0  0  0  0  0
  187.5900  176.1890  144.1430 O   0  0  0  0  0  0  0  0  0  0  0  0
  187.8000  176.9830  146.2720 O   0  0  0  0  0  1  0  0  0  0  0  0
  189.0640  177.9100  144.6430 O   0  0  0  0  0  1  0  0  0  0  0  0
  187.8120  177.3480  144.9260 C   0  0  0  0  0  0  0  0  0  0  0  0
  185.1980  177.4000  144.2960 C   0  0  0  0  0  1  0  0  0  0  0  0
  186.5110  178.6110  144.6510 S   0  0  0  0  0  0  0  0  0  0  0  0
  193.5540  173.1500  141.8770 C   0  0  1  0  0  3  0  0  0  0  0  0
  195.6490  171.9190  142.4640 C   0  0  0  0  0  1  0  0  0  0  0  0
  194.9160  172.6890  141.3810 C   0  0  0  0  0  2  0  0  0  0  0  0
  193.3650  174.6360  141.6030 C   0  0  0  0  0  2  0  0  0  0  0  0
  194.4400  175.1370  140.6600 C   0  0  0  0  0  2  0  0  0  0  0  0
  195.0270  176.4270  141.1980 C   0  0  0  0  0  2  0  0  0  0  0  0
  196.4690  176.4070  141.0290 N   0  0  0  0  0  2  0  0  0  0  0  0
  197.0100  175.5850  142.0990 C   0  0  0  0  0  2  0  0  0  0  0  0
  196.7270  176.2340  143.4400 C   0  0  0  0  0  2  0  0  0  0  0  0
  196.4470  175.1620  144.4810 C   0  0  0  0  0  2  0  0  0  0  0  0
  194.5670  173.7870  145.3880 C   0  0  0  0  0  2  0  0  0  0  0  0
  192.2080  175.8300  146.2400 C   0  0  1  0  0  3  0  0  0  0  0  0
  193.5930  176.0160  146.8910 C   0  0  0  0  0  2  0  0  0  0  0  0
  194.5490  177.5580  145.2370 N   0  0  0  0  0  1  0  0  0  0  0  0
  194.7430  176.2840  145.9080 C   0  0  2  0  0  3  0  0  0  0  0  0
  193.0470  173.5490  145.3900 C   0  0  0  0  0  2  0  0  0  0  0  0
  194.9790  175.1730  144.8720 C   0  0  1  0  0  3  0  0  0  0  0  0
  192.2120  174.8000  145.0960 C   0  0  0  0  0  2  0  0  0  0  0  0
  190.7680  176.6150  147.8230 O   0  0  0  0  0  1  0  0  0  0  0  0
  191.2180  175.4670  147.2590 N   0  0  0  0  0  0  0  0  0  0  0  0
  190.1530  174.9170  146.6230 O   0  0  0  0  0  1  0  0  0  0  0  0
  1 13  1  0  0  0  0
  1 24  1  0  0  0  0
  2  8  1  6  0  0  0
  3  5  1  0  0  0  0
  4 18  1  1  0  0  0
  5 13  2  0  0  0  0
  6  3  2  0  0  0  0
  6  7  1  0  0  0  0
  7 12  1  1  0  0  0
  7 14  1  0  0  0  0
  8  4  1  0  0  0  0
  9 11  2  0  0  0  0
 10  2  1  0  0  0  0
 10 11  1  0  0  0  0
 11  4  1  0  0  0  0
 12 10  1  0  0  0  0
 14  5  1  6  0  0  0
 14  2  1  0  0  0  0
 15 17  1  0  0  0  0
 16 17  2  0  0  0  0
 17  3  1  0  0  0  0
 18 21  1  0  0  0  0
 20 21  1  0  0  0  0
 21 19  1  0  0  0  0
 22 23  1  0  0  0  0
 23 21  1  0  0  0  0
 24 26  1  6  0  0  0
 26 25  1  0  0  0  0
 27 24  1  0  0  0  0
 28 29  1  0  0  0  0
 28 27  1  0  0  0  0
 30 29  1  0  0  0  0
 30 31  1  0  0  0  0
 31 32  1  0  0  0  0
 32 33  1  0  0  0  0
 34 39  1  0  0  0  0
 35 36  1  0  0  0  0
 35 43  1  1  0  0  0
 38 37  1  6  0  0  0
 38 36  1  0  0  0  0
 40 33  1  1  0  0  0
 40 34  1  0  0  0  0
 40 38  1  0  0  0  0
 41 39  1  0  0  0  0
 41 35  1  0  0  0  0
 43 42  1  0  0  0  0
 44 43  1  0  0  0  0
M  END
>  <MODEL>
7

>  <REMARK>
 VINA RESULT:      -5.6      2.779      6.957
  Name = 
  16 active torsions:
  status: ('A' for Active; 'I' for Inactive)
    1  A    between atoms: O_1  and  C_10
    2  A    between atoms: O_1  and  C_33
    3  A    between atoms: O_3  and  C_12
    4  A    between atoms: O_3  and  N_42
    5  A    between atoms: C_5  and  C_17
    6  A    between atoms: C_5  and  C_41
    7  A    between atoms: C_6  and  N_14
    8  A    between atoms: C_6  and  C_25
    9  A    between atoms: C_8  and  C_12
   10  A    between atoms: C_8  and  C_25
   11  A    between atoms: CA_9  and  C_38
   12  A    between atoms: C_12  and  C_26
   13  A    between atoms: N_14  and  C_37
   14  A    between atoms: C_15  and  N_39
   15  A    between atoms: C_17  and  C_37
   16  A    between atoms: S_28  and  C_33
                            x       y       z     vdW  Elec       q    Type
                         _______ _______ _______ _____ _____    ______ ____

>  <TORSDO>
F 16

$$$$
=
 OpenBabel11042417033D

 44 47  0  0  1  0  0  0  0  0999 V2000
  190.3430  174.2800  143.4130 O   0  0  0  0  0  0  0  0  0  0  0  0
  193.9580  173.9720  146.0080 C   0  0  1  0  0  3  0  0  0  0  0  0
  191.8240  176.5030  144.7190 C   0  0  0  0  0  0  0  0  0  0  0  0
  195.6140  172.4920  145.1270 C   0  0  1  0  0  3  0  0  0  0  0  0
  191.8200  175.0590  145.0600 C   0  0  0  0  0  0  0  0  0  0  0  0
  192.8500  177.1070  145.2480 N   0  0  0  0  0  0  0  0  0  0  0  0
  193.5510  176.1240  146.0040 C   0  0  2  0  0  3  0  0  0  0  0  0
  194.0840  172.6440  145.3260 C   0  0  0  0  0  2  0  0  0  0  0  0
  197.3430  174.1860  145.5020 O   0  0  0  0  0  0  0  0  0  0  0  0
  195.1170  174.6080  146.1380 N   0  0  0  0  0  0  0  0  0  0  0  0
  196.1490  173.8020  145.6170 C   0  0  0  0  0  0  0  0  0  0  0  0
  194.9270  175.9410  146.0330 C   0  0  0  0  0  2  0  0  0  0  0  0
  191.2300  174.0820  144.4450 N   0  0  0  0  0  0  0  0  0  0  0  0
  192.9470  174.9030  145.9540 C   0  0  2  0  0  3  0  0  0  0  0  0
  189.9240  177.9140  144.4990 O   0  0  0  0  0  1  0  0  0  0  0  0
  190.9000  177.2410  142.5470 O   0  0  0  0  0  0  0  0  0  0  0  0
  190.8230  177.2410  143.9330 C   0  0  0  0  0  0  0  0  0  0  0  0
  196.0940  171.4470  145.9380 O   0  0  0  0  0  0  0  0  0  0  0  0
  195.9600  170.1090  144.0950 O   0  0  0  0  0  1  0  0  0  0  0  0
  197.9390  171.0890  144.5780 O   0  0  0  0  0  1  0  0  0  0  0  0
  196.7940  170.5100  145.1390 C   0  0  0  0  0  0  0  0  0  0  0  0
  195.5740  168.4220  146.3170 C   0  0  0  0  0  1  0  0  0  0  0  0
  197.2790  169.0260  146.1020 S   0  0  0  0  0  0  0  0  0  0  0  0
  190.4720  173.5490  142.2060 C   0  0  1  0  0  3  0  0  0  0  0  0
  190.9990  171.2340  141.4240 C   0  0  0  0  0  1  0  0  0  0  0  0
  191.2760  172.2870  142.4810 C   0  0  0  0  0  2  0  0  0  0  0  0
  189.0880  173.1920  141.6800 C   0  0  0  0  0  2  0  0  0  0  0  0
  188.6220  174.2310  140.6800 C   0  0  0  0  0  2  0  0  0  0  0  0
  187.6740  175.1990  141.3570 C   0  0  0  0  0  2  0  0  0  0  0  0
  187.9780  176.5520  140.9260 N   0  0  0  0  0  2  0  0  0  0  0  0
  186.7150  177.1750  140.5640 C   0  0  0  0  0  2  0  0  0  0  0  0
  186.2820  178.1340  141.6550 C   0  0  0  0  0  2  0  0  0  0  0  0
  184.9940  177.6410  142.2930 C   0  0  0  0  0  2  0  0  0  0  0  0
  186.4490  176.9150  144.1920 C   0  0  0  0  0  2  0  0  0  0  0  0
  185.3680  178.4040  146.8520 C   0  0  1  0  0  3  0  0  0  0  0  0
  185.8010  179.2820  145.6610 C   0  0  0  0  0  2  0  0  0  0  0  0
  183.6330  179.4070  144.5170 N   0  0  0  0  0  1  0  0  0  0  0  0
  185.0280  179.0340  144.3560 C   0  0  2  0  0  3  0  0  0  0  0  0
  186.4920  176.4240  145.6490 C   0  0  0  0  0  2  0  0  0  0  0  0
  185.1310  177.6030  143.8050 C   0  0  1  0  0  3  0  0  0  0  0  0
  185.3190  176.9040  146.5120 C   0  0  0  0  0  2  0  0  0  0  0  0
  187.4970  178.2460  147.6530 O   0  0  0  0  0  1  0  0  0  0  0  0
  186.2480  178.6450  148.0000 N   0  0  0  0  0  0  0  0  0  0  0  0
  186.3210  179.9880  148.1890 O   0  0  0  0  0  1  0  0  0  0  0  0
  1 13  1  0  0  0  0
  2  8  1  6  0  0  0
  2 10  1  0  0  0  0
  3  5  1  0  0  0  0
  3  6  2  0  0  0  0
  4  8  1  0  0  0  0
  4 11  1  0  0  0  0
  4 18  1  1  0  0  0
  6  7  1  0  0  0  0
  7 12  1  6  0  0  0
  9 11  2  0  0  0  0
 11 10  1  0  0  0  0
 12 10  1  0  0  0  0
 13  5  2  0  0  0  0
 14  5  1  6  0  0  0
 14  7  1  0  0  0  0
 14  2  1  0  0  0  0
 16 17  2  0  0  0  0
 17 15  1  0  0  0  0
 17  3  1  0  0  0  0
 19 21  1  0  0  0  0
 20 21  1  0  0  0  0
 21 18  1  0  0  0  0
 21 23  1  0  0  0  0
 23 22  1  0  0  0  0
 24 27  1  1  0  0  0
 24 26  1  0  0  0  0
 24  1  1  0  0  0  0
 25 26  1  0  0  0  0
 28 29  1  0  0  0  0
 28 27  1  0  0  0  0
 30 29  1  0  0  0  0
 31 30  1  0  0  0  0
 31 32  1  0  0  0  0
 32 33  1  0  0  0  0
 34 39  1  0  0  0  0
 35 43  1  1  0  0  0
 36 35  1  0  0  0  0
 38 37  1  1  0  0  0
 38 36  1  0  0  0  0
 39 41  1  0  0  0  0
 40 33  1  6  0  0  0
 40 34  1  0  0  0  0
 40 38  1  0  0  0  0
 41 35  1  0  0  0  0
 42 43  1  0  0  0  0
 43 44  1  0  0  0  0
M  END
>  <MODEL>
8

>  <REMARK>
 VINA RESULT:      -5.5      3.078      8.307
  Name = 
  16 active torsions:
  status: ('A' for Active; 'I' for Inactive)
    1  A    between atoms: O_1  and  C_10
    2  A    between atoms: O_1  and  C_33
    3  A    between atoms: O_3  and  C_12
    4  A    between atoms: O_3  and  N_42
    5  A    between atoms: C_5  and  C_17
    6  A    between atoms: C_5  and  C_41
    7  A    between atoms: C_6  and  N_14
    8  A    between atoms: C_6  and  C_25
    9  A    between atoms: C_8  and  C_12
   10  A    between atoms: C_8  and  C_25
   11  A    between atoms: CA_9  and  C_38
   12  A    between atoms: C_12  and  C_26
   13  A    between atoms: N_14  and  C_37
   14  A    between atoms: C_15  and  N_39
   15  A    between atoms: C_17  and  C_37
   16  A    between atoms: S_28  and  C_33
                            x       y       z     vdW  Elec       q    Type
                         _______ _______ _______ _____ _____    ______ ____

>  <TORSDO>
F 16

$$$$
=
 OpenBabel11042417033D

 44 47  0  0  1  0  0  0  0  0999 V2000
  195.7250  172.7130  145.7500 O   0  0  0  0  0  0  0  0  0  0  0  0
  192.2270  170.8090  143.7380 C   0  0  1  0  0  3  0  0  0  0  0  0
  195.2880  169.8160  145.2470 C   0  0  0  0  0  0  0  0  0  0  0  0
  191.5730  171.9410  141.7390 C   0  0  1  0  0  3  0  0  0  0  0  0
  194.2930  170.9160  145.2800 C   0  0  0  0  0  0  0  0  0  0  0  0
  194.8070  168.7670  144.6420 N   0  0  0  0  0  0  0  0  0  0  0  0
  193.4640  169.0860  144.2870 C   0  0  2  0  0  3  0  0  0  0  0  0
  192.0460  172.1930  143.1940 C   0  0  0  0  0  2  0  0  0  0  0  0
  191.5080  169.8060  140.5400 O   0  0  0  0  0  0  0  0  0  0  0  0
  192.0280  169.8570  142.8340 N   0  0  0  0  0  0  0  0  0  0  0  0
  191.6570  170.4510  141.6110 C   0  0  0  0  0  0  0  0  0  0  0  0
  192.8520  168.8140  143.0710 C   0  0  0  0  0  2  0  0  0  0  0  0
  194.4950  172.1880  145.4280 N   0  0  0  0  0  0  0  0  0  0  0  0
  193.1050  170.3390  144.6880 C   0  0  2  0  0  3  0  0  0  0  0  0
  197.6450  170.0990  145.1320 O   0  0  0  0  0  0  0  0  0  0  0  0
  196.8040  169.5330  147.1790 O   0  0  0  0  0  1  0  0  0  0  0  0
  196.6380  169.8100  145.8300 C   0  0  0  0  0  0  0  0  0  0  0  0
  190.2350  172.3570  141.6000 O   0  0  0  0  0  0  0  0  0  0  0  0
  190.0820  174.6310  141.4750 O   0  0  0  0  0  1  0  0  0  0  0  0
  191.3340  173.5460  139.9370 O   0  0  0  0  0  1  0  0  0  0  0  0
  190.1740  173.4630  140.7170 C   0  0  0  0  0  0  0  0  0  0  0  0
  189.3150  171.9190  138.6890 C   0  0  0  0  0  1  0  0  0  0  0  0
  188.7120  173.3680  139.6120 S   0  0  0  0  0  0  0  0  0  0  0  0
  195.9890  174.0920  145.5530 C   0  0  1  0  0  3  0  0  0  0  0  0
  196.6590  175.5460  143.6340 C   0  0  0  0  0  1  0  0  0  0  0  0
  196.9310  174.2470  144.3690 C   0  0  0  0  0  2  0  0  0  0  0  0
  194.6800  174.8250  145.2900 C   0  0  0  0  0  2  0  0  0  0  0  0
  194.4200  175.8440  146.3820 C   0  0  0  0  0  2  0  0  0  0  0  0
  192.9270  176.0450  146.5430 C   0  0  0  0  0  2  0  0  0  0  0  0
  192.2440  174.7820  146.3260 N   0  0  0  0  0  2  0  0  0  0  0  0
  191.1250  175.0530  145.4380 C   0  0  0  0  0  2  0  0  0  0  0  0
  190.9940  176.5470  145.2170 C   0  0  0  0  0  2  0  0  0  0  0  0
  189.9990  176.8160  144.1000 C   0  0  0  0  0  2  0  0  0  0  0  0
  188.6610  177.5570  146.0780 C   0  0  0  0  0  2  0  0  0  0  0  0
  185.5790  177.7840  145.1220 C   0  0  1  0  0  3  0  0  0  0  0  0
  186.6310  178.6260  144.3710 C   0  0  0  0  0  2  0  0  0  0  0  0
  187.2140  176.9860  142.6390 N   0  0  0  0  0  1  0  0  0  0  0  0
  187.7530  177.8170  143.7020 C   0  0  2  0  0  3  0  0  0  0  0  0
  187.3820  177.3400  146.9060 C   0  0  0  0  0  2  0  0  0  0  0  0
  188.5950  176.9620  144.6640 C   0  0  1  0  0  3  0  0  0  0  0  0
  186.2010  176.7780  146.1060 C   0  0  0  0  0  2  0  0  0  0  0  0
  183.6970  179.0530  144.9090 O   0  0  0  0  0  1  0  0  0  0  0  0
  184.6310  178.6650  145.8120 N   0  0  0  0  0  0  0  0  0  0  0  0
  183.9750  177.9210  146.7380 O   0  0  0  0  0  1  0  0  0  0  0  0
  2  8  1  6  0  0  0
  2 14  1  0  0  0  0
  3  5  1  0  0  0  0
  3 17  1  0  0  0  0
  4 18  1  1  0  0  0
  4  8  1  0  0  0  0
  5 13  2  0  0  0  0
  6  3  2  0  0  0  0
  7 12  1  6  0  0  0
  7  6  1  0  0  0  0
  7 14  1  0  0  0  0
  9 11  2  0  0  0  0
 10 12  1  0  0  0  0
 10  2  1  0  0  0  0
 11  4  1  0  0  0  0
 11 10  1  0  0  0  0
 13  1  1  0  0  0  0
 14  5  1  6  0  0  0
 15 17  2  0  0  0  0
 17 16  1  0  0  0  0
 20 21  1  0  0  0  0
 21 19  1  0  0  0  0
 21 18  1  0  0  0  0
 22 23  1  0  0  0  0
 23 21  1  0  0  0  0
 24 26  1  6  0  0  0
 24  1  1  0  0  0  0
 25 26  1  0  0  0  0
 27 24  1  0  0  0  0
 27 28  1  0  0  0  0
 28 29  1  0  0  0  0
 30 29  1  0  0  0  0
 31 30  1  0  0  0  0
 32 31  1  0  0  0  0
 33 32  1  0  0  0  0
 34 39  1  0  0  0  0
 35 43  1  1  0  0  0
 35 41  1  0  0  0  0
 36 35  1  0  0  0  0
 38 37  1  6  0  0  0
 38 36  1  0  0  0  0
 38 40  1  0  0  0  0
 40 33  1  6  0  0  0
 40 34  1  0  0  0  0
 41 39  1  0  0  0  0
 42 43  1  0  0  0  0
 43 44  1  0  0  0  0
M  END
>  <MODEL>
9

>  <REMARK>
 VINA RESULT:      -5.5      3.330      8.844
  Name = 
  16 active torsions:
  status: ('A' for Active; 'I' for Inactive)
    1  A    between atoms: O_1  and  C_10
    2  A    between atoms: O_1  and  C_33
    3  A    between atoms: O_3  and  C_12
    4  A    between atoms: O_3  and  N_42
    5  A    between atoms: C_5  and  C_17
    6  A    between atoms: C_5  and  C_41
    7  A    between atoms: C_6  and  N_14
    8  A    between atoms: C_6  and  C_25
    9  A    between atoms: C_8  and  C_12
   10  A    between atoms: C_8  and  C_25
   11  A    between atoms: CA_9  and  C_38
   12  A    between atoms: C_12  and  C_26
   13  A    between atoms: N_14  and  C_37
   14  A    between atoms: C_15  and  N_39
   15  A    between atoms: C_17  and  C_37
   16  A    between atoms: S_28  and  C_33
                            x       y       z     vdW  Elec       q    Type
                         _______ _______ _______ _____ _____    ______ ____

>  <TORSDO>
F 16

$$$$
