=
 OpenBabel11042414483D

 28 31  0  0  1  0  0  0  0  0999 V2000
  193.7250  175.3660  143.6210 S   0  0  1  0  0  0  0  0  0  0  0  0
  192.1030  175.9780  145.6020 O   0  0  0  0  0  0  0  0  0  0  0  0
  192.1300  175.0240  142.9700 N   0  0  0  0  0  0  0  0  0  0  0  0
  191.1400  176.4450  144.6920 C   0  0  1  0  0  3  0  0  0  0  0  0
  189.7750  175.2510  142.9000 N   0  0  0  0  0  2  0  0  0  0  0  0
  191.0490  175.5230  143.4930 C   0  0  0  0  0  0  0  0  0  0  0  0
  194.2850  176.3950  142.6490 O   0  0  0  0  0  0  0  0  0  0  0  0
  193.3460  176.3630  145.0800 C   0  0  0  0  0  2  0  0  0  0  0  0
  184.1330  178.6550  145.7000 S   0  0  0  0  0  0  0  0  0  0  0  0
  188.0670  175.8440  147.1200 C   0  0  0  0  0  3  0  0  0  0  0  0
  187.6300  177.5750  145.4840 C   0  0  0  0  0  0  0  0  0  0  0  0
  189.8190  176.6110  145.3780 C   0  0  0  0  0  0  0  0  0  0  0  0
  188.9400  177.4810  144.8550 C   0  0  0  0  0  3  0  0  0  0  0  0
  184.8160  179.5220  144.3870 C   0  0  0  0  0  3  0  0  0  0  0  0
  185.5590  177.8650  146.0490 C   0  0  0  0  0  0  0  0  0  0  0  0
  187.2380  176.7350  146.5880 C   0  0  0  0  0  0  0  0  0  0  0  0
  186.1720  179.1750  144.2300 C   0  0  0  0  0  3  0  0  0  0  0  0
  189.4920  175.7420  146.6000 C   0  0  0  0  0  2  0  0  0  0  0  0
  185.8620  176.9570  146.9250 N   0  0  0  0  0  0  0  0  0  0  0  0
  186.5390  178.2420  145.1940 C   0  0  0  0  0  0  0  0  0  0  0  0
  189.6050  174.4570  141.6950 C   0  0  0  0  0  2  0  0  0  0  0  0
  188.4050  174.9370  140.9500 C   0  0  0  0  0  0  0  0  0  0  0  0
  188.2520  174.6220  139.7810 O   0  0  0  0  0  0  0  0  0  0  0  0
  187.4040  175.8170  141.6260 C   0  0  0  0  0  2  0  0  0  0  0  0
  187.5550  177.2480  141.1390 C   0  0  0  0  0  2  0  0  0  0  0  0
  186.4040  177.6100  140.2710 C   0  0  0  0  0  0  0  0  0  0  0  0
  186.3760  177.2310  139.0720 O   0  0  0  0  0  0  0  0  0  0  0  0
  185.3430  178.3380  140.7920 O   0  0  0  0  0  1  0  0  0  0  0  0
  1  7  2  6  0  0  0
  1  8  1  0  0  0  0
  3  6  2  0  0  0  0
  3  1  1  0  0  0  0
  4 12  1  1  0  0  0
  4  2  1  0  0  0  0
  5  6  1  0  0  0  0
  6  4  1  0  0  0  0
  8  2  1  0  0  0  0
  9 15  1  0  0  0  0
 11 16  1  0  0  0  0
 12 18  1  0  0  0  0
 13 12  2  0  0  0  0
 13 11  1  0  0  0  0
 14  9  1  0  0  0  0
 15 19  2  0  0  0  0
 16 19  1  0  0  0  0
 16 10  2  0  0  0  0
 17 14  2  0  0  0  0
 17 20  1  0  0  0  0
 18 10  1  0  0  0  0
 20 11  2  0  0  0  0
 20 15  1  0  0  0  0
 21  5  1  0  0  0  0
 22 24  1  0  0  0  0
 22 21  1  0  0  0  0
 23 22  2  0  0  0  0
 25 24  1  0  0  0  0
 26 28  1  0  0  0  0
 26 25  1  0  0  0  0
 27 26  2  0  0  0  0
M  END
>  <MODEL>
1

>  <REMARK>
 VINA RESULT:      -7.3      0.000      0.000
  Name = 
  6 active torsions:
  status: ('A' for Active; 'I' for Inactive)
    1  A    between atoms: C_1  and  C_21
    2  A    between atoms: C_1  and  C_24
    3  A    between atoms: C_6  and  C_15
    4  A    between atoms: C_9  and  C_13
    5  A    between atoms: C_15  and  C_21
    6  A    between atoms: N_18  and  C_24
                            x       y       z     vdW  Elec       q    Type
                         _______ _______ _______ _____ _____    ______ ____

>  <TORSDO>
F 6

$$$$
=
 OpenBabel11042414483D

 28 31  0  0  1  0  0  0  0  0999 V2000
  190.4230  172.8270  140.0010 S   0  0  1  0  0  0  0  0  0  0  0  0
  188.3090  174.3920  139.9020 O   0  0  0  0  0  0  0  0  0  0  0  0
  190.7340  174.0220  141.2510 N   0  0  0  0  0  0  0  0  0  0  0  0
  188.3550  174.5710  141.2950 C   0  0  1  0  0  3  0  0  0  0  0  0
  190.0800  175.6780  142.8090 N   0  0  0  0  0  2  0  0  0  0  0  0
  189.7850  174.7490  141.7620 C   0  0  0  0  0  0  0  0  0  0  0  0
  190.4550  171.5100  140.7620 O   0  0  0  0  0  0  0  0  0  0  0  0
  188.6600  173.0540  139.6730 C   0  0  0  0  0  2  0  0  0  0  0  0
  184.4330  179.0080  145.7590 S   0  0  0  0  0  0  0  0  0  0  0  0
  186.5150  178.0810  141.2650 C   0  0  0  0  0  3  0  0  0  0  0  0
  186.1900  176.8820  143.3440 C   0  0  0  0  0  0  0  0  0  0  0  0
  187.4810  175.7190  141.6970 C   0  0  0  0  0  0  0  0  0  0  0  0
  186.9710  175.7210  142.9390 C   0  0  0  0  0  3  0  0  0  0  0  0
  184.7990  177.5520  146.5890 C   0  0  0  0  0  3  0  0  0  0  0  0
  185.1260  178.4870  144.3360 C   0  0  0  0  0  0  0  0  0  0  0  0
  186.0060  178.0300  142.4910 C   0  0  0  0  0  0  0  0  0  0  0  0
  185.4740  176.6620  145.7310 C   0  0  0  0  0  3  0  0  0  0  0  0
  187.2600  176.8760  140.7120 C   0  0  0  0  0  3  0  0  0  0  0  0
  185.3030  179.0670  143.1880 N   0  0  0  0  0  0  0  0  0  0  0  0
  185.6280  177.2370  144.4740 C   0  0  2  0  0  3  0  0  0  0  0  0
  191.4050  175.8450  143.3830 C   0  0  0  0  0  2  0  0  0  0  0  0
  191.3310  176.7900  144.5350 C   0  0  0  0  0  0  0  0  0  0  0  0
  192.3490  177.0890  145.1390 O   0  0  0  0  0  0  0  0  0  0  0  0
  190.0140  177.3560  144.9590 C   0  0  0  0  0  2  0  0  0  0  0  0
  189.8790  177.2810  146.4710 C   0  0  0  0  0  2  0  0  0  0  0  0
  189.6340  175.8750  146.8870 C   0  0  0  0  0  0  0  0  0  0  0  0
  188.6140  175.2640  146.4740 O   0  0  0  0  0  0  0  0  0  0  0  0
  190.5480  175.2230  147.7040 O   0  0  0  0  0  1  0  0  0  0  0  0
  1  7  2  1  0  0  0
  1  3  1  0  0  0  0
  2  4  1  0  0  0  0
  3  6  2  0  0  0  0
  4 12  1  6  0  0  0
  4  6  1  0  0  0  0
  5 21  1  0  0  0  0
  6  5  1  0  0  0  0
  8  2  1  0  0  0  0
  8  1  1  0  0  0  0
  9 14  1  0  0  0  0
 10 16  1  0  0  0  0
 11 20  1  0  0  0  0
 12 13  2  0  0  0  0
 13 11  1  0  0  0  0
 15 20  1  0  0  0  0
 15  9  1  0  0  0  0
 16 19  1  0  0  0  0
 16 11  2  0  0  0  0
 17 14  2  0  0  0  0
 18 10  2  0  0  0  0
 18 12  1  0  0  0  0
 19 15  2  0  0  0  0
 20 17  1  1  0  0  0
 21 22  1  0  0  0  0
 22 24  1  0  0  0  0
 22 23  2  0  0  0  0
 24 25  1  0  0  0  0
 25 26  1  0  0  0  0
 26 28  1  0  0  0  0
 27 26  2  0  0  0  0
M  END
>  <MODEL>
2

>  <REMARK>
 VINA RESULT:      -7.0      2.160      5.158
  Name = 
  6 active torsions:
  status: ('A' for Active; 'I' for Inactive)
    1  A    between atoms: C_1  and  C_21
    2  A    between atoms: C_1  and  C_24
    3  A    between atoms: C_6  and  C_15
    4  A    between atoms: C_9  and  C_13
    5  A    between atoms: C_15  and  C_21
    6  A    between atoms: N_18  and  C_24
                            x       y       z     vdW  Elec       q    Type
                         _______ _______ _______ _____ _____    ______ ____

>  <TORSDO>
F 6

$$$$
=
 OpenBabel11042414483D

 28 31  0  0  1  0  0  0  0  0999 V2000
  194.6880  175.3390  145.8010 S   0  0  1  0  0  0  0  0  0  0  0  0
  192.5160  176.3350  146.9050 O   0  0  0  0  0  0  0  0  0  0  0  0
  193.3830  174.4950  144.9800 N   0  0  0  0  0  0  0  0  0  0  0  0
  191.8320  176.2470  145.6800 C   0  0  1  0  0  3  0  0  0  0  0  0
  191.1440  174.2470  144.2580 N   0  0  0  0  0  2  0  0  0  0  0  0
  192.1640  174.9470  144.9770 C   0  0  0  0  0  0  0  0  0  0  0  0
  195.4350  176.0170  144.6610 O   0  0  0  0  0  0  0  0  0  0  0  0
  193.8260  176.7190  146.5880 C   0  0  0  0  0  2  0  0  0  0  0  0
  184.8220  178.1570  144.1940 S   0  0  0  0  0  0  0  0  0  0  0  0
  188.1640  175.7400  147.0900 C   0  0  0  0  0  3  0  0  0  0  0  0
  188.2300  177.2570  145.2040 C   0  0  0  0  0  0  0  0  0  0  0  0
  190.3600  176.4120  145.8980 C   0  0  0  0  0  0  0  0  0  0  0  0
  189.6730  177.1700  145.0280 C   0  0  0  0  0  3  0  0  0  0  0  0
  185.8660  178.9140  143.0630 C   0  0  0  0  0  3  0  0  0  0  0  0
  186.0820  177.4900  145.0590 C   0  0  0  0  0  0  0  0  0  0  0  0
  187.5270  176.5210  146.2240 C   0  0  0  0  0  0  0  0  0  0  0  0
  187.2100  178.6290  143.3770 C   0  0  0  0  0  3  0  0  0  0  0  0
  189.6820  175.6620  147.0530 C   0  0  0  0  0  2  0  0  0  0  0  0
  186.1110  176.7000  146.0880 N   0  0  0  0  0  0  0  0  0  0  0  0
  187.2730  177.8270  144.5120 C   0  0  0  0  0  0  0  0  0  0  0  0
  191.3930  173.0460  143.4780 C   0  0  0  0  0  2  0  0  0  0  0  0
  190.1190  172.5890  142.8520 C   0  0  0  0  0  0  0  0  0  0  0  0
  189.4420  171.7380  143.4070 O   0  0  0  0  0  0  0  0  0  0  0  0
  189.6810  173.1560  141.5390 C   0  0  0  0  0  2  0  0  0  0  0  0
  188.1920  173.4540  141.5720 C   0  0  0  0  0  2  0  0  0  0  0  0
  187.9680  174.8630  141.9900 C   0  0  0  0  0  0  0  0  0  0  0  0
  186.8610  175.2070  142.4780 O   0  0  0  0  0  1  0  0  0  0  0  0
  188.9920  175.7930  141.8740 O   0  0  0  0  0  0  0  0  0  0  0  0
  1  7  2  6  0  0  0
  1  8  1  0  0  0  0
  3  1  1  0  0  0  0
  4 12  1  1  0  0  0
  4  2  1  0  0  0  0
  5  6  1  0  0  0  0
  6  3  2  0  0  0  0
  6  4  1  0  0  0  0
  8  2  1  0  0  0  0
  9 15  1  0  0  0  0
 11 16  1  0  0  0  0
 12 18  1  0  0  0  0
 13 11  1  0  0  0  0
 13 12  2  0  0  0  0
 14 17  2  0  0  0  0
 14  9  1  0  0  0  0
 15 19  2  0  0  0  0
 16 10  2  0  0  0  0
 17 20  1  0  0  0  0
 18 10  1  0  0  0  0
 19 16  1  0  0  0  0
 20 15  1  0  0  0  0
 20 11  2  0  0  0  0
 21  5  1  0  0  0  0
 22 23  2  0  0  0  0
 22 21  1  0  0  0  0
 24 25  1  0  0  0  0
 24 22  1  0  0  0  0
 25 26  1  0  0  0  0
 26 27  1  0  0  0  0
 28 26  2  0  0  0  0
M  END
>  <MODEL>
3

>  <REMARK>
 VINA RESULT:      -6.8      1.889      2.436
  Name = 
  6 active torsions:
  status: ('A' for Active; 'I' for Inactive)
    1  A    between atoms: C_1  and  C_21
    2  A    between atoms: C_1  and  C_24
    3  A    between atoms: C_6  and  C_15
    4  A    between atoms: C_9  and  C_13
    5  A    between atoms: C_15  and  C_21
    6  A    between atoms: N_18  and  C_24
                            x       y       z     vdW  Elec       q    Type
                         _______ _______ _______ _____ _____    ______ ____

>  <TORSDO>
F 6

$$$$
=
 OpenBabel11042414483D

 28 31  0  0  1  0  0  0  0  0999 V2000
  190.6840  173.0440  140.3960 S   0  0  1  0  0  0  0  0  0  0  0  0
  188.8790  173.8220  142.1480 O   0  0  0  0  0  0  0  0  0  0  0  0
  191.5150  174.2830  141.3240 N   0  0  0  0  0  0  0  0  0  0  0  0
  189.8770  174.0170  143.1160 C   0  0  1  0  0  3  0  0  0  0  0  0
  191.8370  175.6420  143.2340 N   0  0  0  0  0  2  0  0  0  0  0  0
  191.1010  174.6600  142.4980 C   0  0  0  0  0  0  0  0  0  0  0  0
  191.5630  171.8170  140.5890 O   0  0  0  0  0  0  0  0  0  0  0  0
  189.2510  172.6740  141.4350 C   0  0  0  0  0  2  0  0  0  0  0  0
  185.6640  178.9760  146.6740 S   0  0  0  0  0  0  0  0  0  0  0  0
  188.9220  175.1330  146.7960 C   0  0  0  0  0  3  0  0  0  0  0  0
  187.9490  176.5730  145.1100 C   0  0  0  0  0  0  0  0  0  0  0  0
  189.3370  174.8150  144.2620 C   0  0  0  0  0  0  0  0  0  0  0  0
  188.5330  175.8540  143.9850 C   0  0  0  0  0  3  0  0  0  0  0  0
  185.5550  179.2500  144.9850 C   0  0  0  0  0  3  0  0  0  0  0  0
  186.7910  177.7590  146.5040 C   0  0  0  0  0  0  0  0  0  0  0  0
  188.1550  176.1700  146.4790 C   0  0  1  0  0  3  0  0  0  0  0  0
  186.4120  178.3700  144.2940 C   0  0  0  0  0  3  0  0  0  0  0  0
  189.6580  174.3800  145.6990 C   0  0  0  0  0  3  0  0  0  0  0  0
  187.3680  176.9770  147.3640 N   0  0  0  0  0  0  0  0  0  0  0  0
  187.0860  177.5560  145.1980 C   0  0  0  0  0  0  0  0  0  0  0  0
  193.0730  176.2410  142.7590 C   0  0  0  0  0  2  0  0  0  0  0  0
  194.2020  175.8070  143.6310 C   0  0  0  0  0  0  0  0  0  0  0  0
  195.3210  176.2550  143.4410 O   0  0  0  0  0  0  0  0  0  0  0  0
  193.9680  174.8130  144.7240 C   0  0  0  0  0  2  0  0  0  0  0  0
  194.6360  175.2820  146.0050 C   0  0  0  0  0  2  0  0  0  0  0  0
  193.9030  176.4520  146.5570 C   0  0  0  0  0  0  0  0  0  0  0  0
  194.5030  177.5430  146.7390 O   0  0  0  0  0  0  0  0  0  0  0  0
  192.5470  176.3520  146.8400 O   0  0  0  0  0  1  0  0  0  0  0  0
  1  7  2  1  0  0  0
  1  3  1  0  0  0  0
  1  8  1  0  0  0  0
  2  4  1  0  0  0  0
  3  6  2  0  0  0  0
  4 12  1  1  0  0  0
  6  4  1  0  0  0  0
  6  5  1  0  0  0  0
  8  2  1  0  0  0  0
 11 20  2  0  0  0  0
 11 16  1  0  0  0  0
 12 18  1  0  0  0  0
 13 12  2  0  0  0  0
 13 11  1  0  0  0  0
 14  9  1  0  0  0  0
 15  9  1  0  0  0  0
 15 19  2  0  0  0  0
 16 10  1  6  0  0  0
 16 19  1  0  0  0  0
 17 14  2  0  0  0  0
 17 20  1  0  0  0  0
 18 10  2  0  0  0  0
 20 15  1  0  0  0  0
 21  5  1  0  0  0  0
 21 22  1  0  0  0  0
 22 24  1  0  0  0  0
 23 22  2  0  0  0  0
 24 25  1  0  0  0  0
 25 26  1  0  0  0  0
 26 27  2  0  0  0  0
 26 28  1  0  0  0  0
M  END
>  <MODEL>
4

>  <REMARK>
 VINA RESULT:      -6.8      2.493      5.150
  Name = 
  6 active torsions:
  status: ('A' for Active; 'I' for Inactive)
    1  A    between atoms: C_1  and  C_21
    2  A    between atoms: C_1  and  C_24
    3  A    between atoms: C_6  and  C_15
    4  A    between atoms: C_9  and  C_13
    5  A    between atoms: C_15  and  C_21
    6  A    between atoms: N_18  and  C_24
                            x       y       z     vdW  Elec       q    Type
                         _______ _______ _______ _____ _____    ______ ____

>  <TORSDO>
F 6

$$$$
=
 OpenBabel11042414483D

 28 31  0  0  1  0  0  0  0  0999 V2000
  185.2360  179.0410  146.6430 S   0  0  1  0  0  0  0  0  0  0  0  0
  187.4660  177.9670  147.5360 O   0  0  0  0  0  0  0  0  0  0  0  0
  186.1120  178.6270  145.1770 N   0  0  0  0  0  0  0  0  0  0  0  0
  187.4860  177.0670  146.4580 C   0  0  1  0  0  3  0  0  0  0  0  0
  187.7400  177.4280  143.9480 N   0  0  0  0  0  2  0  0  0  0  0  0
  187.0850  177.7650  145.1750 C   0  0  0  0  0  0  0  0  0  0  0  0
  183.9320  178.2680  146.4990 O   0  0  0  0  0  0  0  0  0  0  0  0
  186.1200  178.0980  147.9060 C   0  0  0  0  0  2  0  0  0  0  0  0
  192.6310  172.2060  144.2440 S   0  0  0  0  0  0  0  0  0  0  0  0
  191.4090  176.5170  146.5510 C   0  0  0  0  0  3  0  0  0  0  0  0
  190.2320  174.6350  145.5820 C   0  0  0  0  0  0  0  0  0  0  0  0
  188.8310  176.4170  146.3520 C   0  0  0  0  0  0  0  0  0  0  0  0
  188.9090  175.2190  145.7510 C   0  0  0  0  0  3  0  0  0  0  0  0
  191.0750  171.6030  143.8480 C   0  0  0  0  0  3  0  0  0  0  0  0
  192.0200  173.5480  145.0220 C   0  0  0  0  0  0  0  0  0  0  0  0
  191.4380  175.3190  145.9770 C   0  0  0  0  0  0  0  0  0  0  0  0
  190.0790  172.4730  144.3320 C   0  0  0  0  0  3  0  0  0  0  0  0
  190.0700  177.1660  146.8630 C   0  0  0  0  0  2  0  0  0  0  0  0
  192.5940  174.5680  145.5830 N   0  0  0  0  0  0  0  0  0  0  0  0
  190.6670  173.5500  144.9890 C   0  0  0  0  0  0  0  0  0  0  0  0
  187.3560  177.9770  142.6580 C   0  0  0  0  0  2  0  0  0  0  0  0
  187.3310  176.8850  141.6420 C   0  0  0  0  0  0  0  0  0  0  0  0
  187.1480  177.1560  140.4660 O   0  0  0  0  0  0  0  0  0  0  0  0
  187.5110  175.4620  142.0640 C   0  0  0  0  0  2  0  0  0  0  0  0
  188.8290  174.9250  141.5340 C   0  0  0  0  0  2  0  0  0  0  0  0
  188.5730  173.8480  140.5410 C   0  0  0  0  0  0  0  0  0  0  0  0
  188.4430  172.6570  140.9240 O   0  0  0  0  0  1  0  0  0  0  0  0
  188.4430  174.1610  139.1950 O   0  0  0  0  0  0  0  0  0  0  0  0
  1  7  2  6  0  0  0
  1  8  1  0  0  0  0
  2  8  1  0  0  0  0
  3  1  1  0  0  0  0
  4 12  1  6  0  0  0
  4  2  1  0  0  0  0
  5  6  1  0  0  0  0
  6  3  2  0  0  0  0
  6  4  1  0  0  0  0
  9 15  1  0  0  0  0
 10 18  1  0  0  0  0
 11 13  1  0  0  0  0
 11 16  1  0  0  0  0
 12 18  1  0  0  0  0
 13 12  2  0  0  0  0
 14  9  1  0  0  0  0
 14 17  2  0  0  0  0
 15 19  2  0  0  0  0
 16 10  2  0  0  0  0
 17 20  1  0  0  0  0
 19 16  1  0  0  0  0
 20 15  1  0  0  0  0
 20 11  2  0  0  0  0
 21  5  1  0  0  0  0
 22 24  1  0  0  0  0
 22 21  1  0  0  0  0
 23 22  2  0  0  0  0
 25 24  1  0  0  0  0
 26 27  1  0  0  0  0
 26 25  1  0  0  0  0
 28 26  2  0  0  0  0
M  END
>  <MODEL>
5

>  <REMARK>
 VINA RESULT:      -6.7      2.482      6.045
  Name = 
  6 active torsions:
  status: ('A' for Active; 'I' for Inactive)
    1  A    between atoms: C_1  and  C_21
    2  A    between atoms: C_1  and  C_24
    3  A    between atoms: C_6  and  C_15
    4  A    between atoms: C_9  and  C_13
    5  A    between atoms: C_15  and  C_21
    6  A    between atoms: N_18  and  C_24
                            x       y       z     vdW  Elec       q    Type
                         _______ _______ _______ _____ _____    ______ ____

>  <TORSDO>
F 6

$$$$
=
 OpenBabel11042414483D

 28 31  0  0  1  0  0  0  0  0999 V2000
  185.2830  178.8980  146.5990 S   0  0  1  0  0  0  0  0  0  0  0  0
  187.4650  177.7460  147.5140 O   0  0  0  0  0  0  0  0  0  0  0  0
  186.2550  178.6490  145.1570 N   0  0  0  0  0  0  0  0  0  0  0  0
  187.5640  176.9670  146.3490 C   0  0  1  0  0  3  0  0  0  0  0  0
  187.9720  177.5970  143.9140 N   0  0  0  0  0  2  0  0  0  0  0  0
  187.2370  177.7960  145.1250 C   0  0  0  0  0  0  0  0  0  0  0  0
  184.0010  178.1370  146.2890 O   0  0  0  0  0  0  0  0  0  0  0  0
  186.0970  177.8290  147.8080 C   0  0  0  0  0  2  0  0  0  0  0  0
  192.8010  172.1470  144.2660 S   0  0  0  0  0  0  0  0  0  0  0  0
  191.4960  176.4920  146.4610 C   0  0  0  0  0  3  0  0  0  0  0  0
  190.3560  174.5640  145.5390 C   0  0  0  0  0  0  0  0  0  0  0  0
  188.9210  176.3400  146.2610 C   0  0  0  0  0  0  0  0  0  0  0  0
  189.0220  175.1280  145.6910 C   0  0  0  0  0  3  0  0  0  0  0  0
  191.2570  171.5050  143.8840 C   0  0  0  0  0  3  0  0  0  0  0  0
  192.1640  173.4970  145.0090 C   0  0  0  0  0  0  0  0  0  0  0  0
  191.5480  175.2810  145.9170 C   0  0  0  0  0  0  0  0  0  0  0  0
  190.2450  172.3690  144.3450 C   0  0  0  0  0  3  0  0  0  0  0  0
  190.1450  177.1230  146.7550 C   0  0  0  0  0  2  0  0  0  0  0  0
  192.7190  174.5410  145.5440 N   0  0  0  0  0  0  0  0  0  0  0  0
  190.8110  173.4720  144.9740 C   0  0  0  0  0  0  0  0  0  0  0  0
  187.6650  178.2800  142.6680 C   0  0  0  0  0  2  0  0  0  0  0  0
  186.6210  177.5140  141.9270 C   0  0  0  0  0  0  0  0  0  0  0  0
  186.7130  176.3000  141.8330 O   0  0  0  0  0  0  0  0  0  0  0  0
  185.4760  178.2310  141.2860 C   0  0  0  0  0  2  0  0  0  0  0  0
  184.2980  178.2880  142.2430 C   0  0  0  0  0  2  0  0  0  0  0  0
  183.0240  178.2900  141.4760 C   0  0  0  0  0  0  0  0  0  0  0  0
  181.9560  178.6590  142.0290 O   0  0  0  0  0  1  0  0  0  0  0  0
  183.0190  177.9190  140.1380 O   0  0  0  0  0  0  0  0  0  0  0  0
  1  7  2  6  0  0  0
  1  8  1  0  0  0  0
  2  8  1  0  0  0  0
  3  1  1  0  0  0  0
  4 12  1  6  0  0  0
  4  2  1  0  0  0  0
  5  6  1  0  0  0  0
  6  3  2  0  0  0  0
  6  4  1  0  0  0  0
  9 15  1  0  0  0  0
 10 18  1  0  0  0  0
 11 13  1  0  0  0  0
 11 16  1  0  0  0  0
 12 18  1  0  0  0  0
 13 12  2  0  0  0  0
 14  9  1  0  0  0  0
 14 17  2  0  0  0  0
 15 19  2  0  0  0  0
 16 10  2  0  0  0  0
 17 20  1  0  0  0  0
 19 16  1  0  0  0  0
 20 15  1  0  0  0  0
 20 11  2  0  0  0  0
 21  5  1  0  0  0  0
 22 21  1  0  0  0  0
 23 22  2  0  0  0  0
 24 22  1  0  0  0  0
 24 25  1  0  0  0  0
 26 27  1  0  0  0  0
 26 25  1  0  0  0  0
 28 26  2  0  0  0  0
M  END
>  <MODEL>
6

>  <REMARK>
 VINA RESULT:      -6.6      2.759      6.053
  Name = 
  6 active torsions:
  status: ('A' for Active; 'I' for Inactive)
    1  A    between atoms: C_1  and  C_21
    2  A    between atoms: C_1  and  C_24
    3  A    between atoms: C_6  and  C_15
    4  A    between atoms: C_9  and  C_13
    5  A    between atoms: C_15  and  C_21
    6  A    between atoms: N_18  and  C_24
                            x       y       z     vdW  Elec       q    Type
                         _______ _______ _______ _____ _____    ______ ____

>  <TORSDO>
F 6

$$$$
=
 OpenBabel11042414483D

 28 31  0  0  1  0  0  0  0  0999 V2000
  185.4400  178.7020  146.5180 S   0  0  1  0  0  0  0  0  0  0  0  0
  187.6670  177.3140  146.7320 O   0  0  0  0  0  0  0  0  0  0  0  0
  186.0720  178.6780  144.8790 N   0  0  0  0  0  0  0  0  0  0  0  0
  187.4620  176.7560  145.4590 C   0  0  1  0  0  3  0  0  0  0  0  0
  187.4070  177.7990  143.1350 N   0  0  0  0  0  2  0  0  0  0  0  0
  186.9550  177.8060  144.4920 C   0  0  0  0  0  0  0  0  0  0  0  0
  184.0660  178.0630  146.3710 O   0  0  0  0  0  0  0  0  0  0  0  0
  186.4000  177.3990  147.3250 C   0  0  0  0  0  2  0  0  0  0  0  0
  194.6040  174.7590  145.3860 S   0  0  0  0  0  0  0  0  0  0  0  0
  189.9220  174.2800  143.5840 C   0  0  0  0  0  3  0  0  0  0  0  0
  191.0780  175.7340  145.1380 C   0  0  0  0  0  0  0  0  0  0  0  0
  188.7170  176.0990  144.9750 C   0  0  0  0  0  0  0  0  0  0  0  0
  189.8760  176.4380  145.5630 C   0  0  0  0  0  3  0  0  0  0  0  0
  194.3840  176.0350  146.5120 C   0  0  0  0  0  3  0  0  0  0  0  0
  193.0160  174.8020  144.8800 C   0  0  0  0  0  0  0  0  0  0  0  0
  191.0500  174.6650  144.1710 C   0  0  0  0  0  0  0  0  0  0  0  0
  193.0500  176.4840  146.4830 C   0  0  0  0  0  3  0  0  0  0  0  0
  188.6290  175.0220  143.8840 C   0  0  0  0  0  3  0  0  0  0  0  0
  192.3500  174.0750  144.0360 N   0  0  0  0  0  0  0  0  0  0  0  0
  192.3240  175.7580  145.5430 C   0  0  2  0  0  3  0  0  0  0  0  0
  186.9040  178.7070  142.1170 C   0  0  0  0  0  2  0  0  0  0  0  0
  186.3250  177.9190  140.9910 C   0  0  0  0  0  0  0  0  0  0  0  0
  187.0060  177.0790  140.4270 O   0  0  0  0  0  0  0  0  0  0  0  0
  184.9210  178.1710  140.5430 C   0  0  0  0  0  2  0  0  0  0  0  0
  183.9630  177.9950  141.7090 C   0  0  0  0  0  2  0  0  0  0  0  0
  182.5740  178.2920  141.2700 C   0  0  0  0  0  0  0  0  0  0  0  0
  182.1730  177.9040  140.1420 O   0  0  0  0  0  0  0  0  0  0  0  0
  181.7060  178.9660  142.1190 O   0  0  0  0  0  1  0  0  0  0  0  0
  1  7  2  6  0  0  0
  1  8  1  0  0  0  0
  2  8  1  0  0  0  0
  3  1  1  0  0  0  0
  4 12  1  6  0  0  0
  4  2  1  0  0  0  0
  5  6  1  0  0  0  0
  6  3  2  0  0  0  0
  6  4  1  0  0  0  0
  9 14  1  0  0  0  0
 10 18  2  0  0  0  0
 10 16  1  0  0  0  0
 11 20  1  0  0  0  0
 11 13  1  0  0  0  0
 12 13  2  0  0  0  0
 15  9  1  0  0  0  0
 15 20  1  0  0  0  0
 16 11  2  0  0  0  0
 17 14  2  0  0  0  0
 18 12  1  0  0  0  0
 19 16  1  0  0  0  0
 19 15  2  0  0  0  0
 20 17  1  1  0  0  0
 21  5  1  0  0  0  0
 22 21  1  0  0  0  0
 23 22  2  0  0  0  0
 24 22  1  0  0  0  0
 24 25  1  0  0  0  0
 26 25  1  0  0  0  0
 26 28  1  0  0  0  0
 27 26  2  0  0  0  0
M  END
>  <MODEL>
7

>  <REMARK>
 VINA RESULT:      -6.5      2.455      6.102
  Name = 
  6 active torsions:
  status: ('A' for Active; 'I' for Inactive)
    1  A    between atoms: C_1  and  C_21
    2  A    between atoms: C_1  and  C_24
    3  A    between atoms: C_6  and  C_15
    4  A    between atoms: C_9  and  C_13
    5  A    between atoms: C_15  and  C_21
    6  A    between atoms: N_18  and  C_24
                            x       y       z     vdW  Elec       q    Type
                         _______ _______ _______ _____ _____    ______ ____

>  <TORSDO>
F 6

$$$$
=
 OpenBabel11042414483D

 28 31  0  0  1  0  0  0  0  0999 V2000
  185.4540  178.5440  142.7880 S   0  0  1  0  0  0  0  0  0  0  0  0
  187.2310  178.3920  144.7240 O   0  0  0  0  0  0  0  0  0  0  0  0
  186.4590  177.1800  142.3210 N   0  0  0  0  0  0  0  0  0  0  0  0
  187.2440  176.9910  144.6260 C   0  0  1  0  0  3  0  0  0  0  0  0
  187.9850  175.4250  142.7570 N   0  0  0  0  0  2  0  0  0  0  0  0
  187.2180  176.5580  143.1750 C   0  0  0  0  0  0  0  0  0  0  0  0
  184.0620  177.9350  142.8800 O   0  0  0  0  0  0  0  0  0  0  0  0
  185.8990  178.7810  144.5240 C   0  0  0  0  0  2  0  0  0  0  0  0
  194.3490  176.0090  146.5130 S   0  0  0  0  0  0  0  0  0  0  0  0
  189.4500  175.2700  147.4320 C   0  0  0  0  0  3  0  0  0  0  0  0
  190.7910  176.2240  145.6560 C   0  0  0  0  0  0  0  0  0  0  0  0
  188.4240  176.4340  145.3610 C   0  0  0  0  0  0  0  0  0  0  0  0
  189.6510  176.7050  144.8870 C   0  0  0  0  0  3  0  0  0  0  0  0
  194.2710  176.8510  145.0200 C   0  0  0  0  0  3  0  0  0  0  0  0
  192.6950  175.8150  146.6020 C   0  0  0  0  0  0  0  0  0  0  0  0
  190.6440  175.5360  146.9140 C   0  0  1  0  0  3  0  0  0  0  0  0
  192.9320  176.9770  144.6030 C   0  0  0  0  0  3  0  0  0  0  0  0
  188.1960  175.6400  146.6550 C   0  0  0  0  0  3  0  0  0  0  0  0
  191.9260  175.2900  147.5060 N   0  0  0  0  0  0  0  0  0  0  0  0
  192.0870  176.3720  145.5280 C   0  0  0  0  0  0  0  0  0  0  0  0
  187.9460  174.8840  141.4080 C   0  0  0  0  0  2  0  0  0  0  0  0
  188.7020  173.5990  141.3680 C   0  0  0  0  0  0  0  0  0  0  0  0
  189.1760  173.2080  140.3130 O   0  0  0  0  0  0  0  0  0  0  0  0
  188.8630  172.7820  142.6100 C   0  0  0  0  0  2  0  0  0  0  0  0
  190.3310  172.4700  142.8410 C   0  0  0  0  0  2  0  0  0  0  0  0
  190.6750  172.6900  144.2710 C   0  0  0  0  0  0  0  0  0  0  0  0
  191.8500  173.0020  144.5960 O   0  0  0  0  0  0  0  0  0  0  0  0
  189.6920  172.5840  145.2450 O   0  0  0  0  0  1  0  0  0  0  0  0
  1  7  2  1  0  0  0
  1  8  1  0  0  0  0
  3  1  1  0  0  0  0
  3  6  2  0  0  0  0
  4  2  1  0  0  0  0
  4 12  1  6  0  0  0
  5  6  1  0  0  0  0
  6  4  1  0  0  0  0
  8  2  1  0  0  0  0
  9 15  1  0  0  0  0
 11 16  1  0  0  0  0
 12 18  1  0  0  0  0
 13 12  2  0  0  0  0
 13 11  1  0  0  0  0
 14  9  1  0  0  0  0
 15 19  2  0  0  0  0
 16 10  1  1  0  0  0
 16 19  1  0  0  0  0
 17 14  2  0  0  0  0
 17 20  1  0  0  0  0
 18 10  2  0  0  0  0
 20 11  2  0  0  0  0
 20 15  1  0  0  0  0
 21  5  1  0  0  0  0
 22 21  1  0  0  0  0
 22 24  1  0  0  0  0
 23 22  2  0  0  0  0
 24 25  1  0  0  0  0
 25 26  1  0  0  0  0
 26 27  2  0  0  0  0
 26 28  1  0  0  0  0
M  END
>  <MODEL>
8

>  <REMARK>
 VINA RESULT:      -6.5      2.392      6.077
  Name = 
  6 active torsions:
  status: ('A' for Active; 'I' for Inactive)
    1  A    between atoms: C_1  and  C_21
    2  A    between atoms: C_1  and  C_24
    3  A    between atoms: C_6  and  C_15
    4  A    between atoms: C_9  and  C_13
    5  A    between atoms: C_15  and  C_21
    6  A    between atoms: N_18  and  C_24
                            x       y       z     vdW  Elec       q    Type
                         _______ _______ _______ _____ _____    ______ ____

>  <TORSDO>
F 6

$$$$
=
 OpenBabel11042414483D

 28 31  0  0  1  0  0  0  0  0999 V2000
  186.1600  177.1660  141.8280 S   0  0  1  0  0  0  0  0  0  0  0  0
  188.5850  176.1880  142.1250 O   0  0  0  0  0  0  0  0  0  0  0  0
  186.3170  176.9730  143.5670 N   0  0  0  0  0  0  0  0  0  0  0  0
  188.7460  176.9050  143.3230 C   0  0  1  0  0  3  0  0  0  0  0  0
  187.5560  176.7480  145.5710 N   0  0  0  0  0  2  0  0  0  0  0  0
  187.4760  176.8580  144.1460 C   0  0  0  0  0  0  0  0  0  0  0  0
  185.8690  178.6510  141.6670 O   0  0  0  0  0  0  0  0  0  0  0  0
  187.8720  177.0320  141.2630 C   0  0  0  0  0  2  0  0  0  0  0  0
  194.0840  172.1790  145.3680 S   0  0  0  0  0  0  0  0  0  0  0  0
  192.0550  176.7900  145.5000 C   0  0  0  0  0  3  0  0  0  0  0  0
  191.4480  174.6160  144.6230 C   0  0  0  0  0  0  0  0  0  0  0  0
  189.9300  176.3870  144.0790 C   0  0  0  0  0  0  0  0  0  0  0  0
  190.2480  175.0890  143.9460 C   0  0  0  0  0  3  0  0  0  0  0  0
  192.9170  171.3430  144.4300 C   0  0  0  0  0  3  0  0  0  0  0  0
  193.2230  173.6070  145.3440 C   0  0  0  0  0  0  0  0  0  0  0  0
  192.3180  175.4950  145.3640 C   0  0  1  0  0  3  0  0  0  0  0  0
  191.8520  172.2040  144.0990 C   0  0  0  0  0  3  0  0  0  0  0  0
  190.7720  177.3600  144.9160 C   0  0  0  0  0  3  0  0  0  0  0  0
  193.4790  174.7880  145.8170 N   0  0  0  0  0  0  0  0  0  0  0  0
  192.0740  173.4650  144.6430 C   0  0  0  0  0  0  0  0  0  0  0  0
  186.3950  176.7910  146.4440 C   0  0  0  0  0  2  0  0  0  0  0  0
  186.3880  178.0780  147.1980 C   0  0  0  0  0  0  0  0  0  0  0  0
  187.3070  178.3390  147.9580 O   0  0  0  0  0  0  0  0  0  0  0  0
  185.2520  179.0370  147.0370 C   0  0  0  0  0  2  0  0  0  0  0  0
  184.2340  178.4780  146.0580 C   0  0  0  0  0  2  0  0  0  0  0  0
  184.3090  179.2220  144.7730 C   0  0  0  0  0  0  0  0  0  0  0  0
  183.4330  179.0410  143.8880 O   0  0  0  0  0  0  0  0  0  0  0  0
  185.3270  180.1420  144.5610 O   0  0  0  0  0  1  0  0  0  0  0  0
  1  7  2  1  0  0  0
  1  3  1  0  0  0  0
  2  4  1  0  0  0  0
  3  6  2  0  0  0  0
  4 12  1  1  0  0  0
  4  6  1  0  0  0  0
  5 21  1  0  0  0  0
  6  5  1  0  0  0  0
  8  1  1  0  0  0  0
  8  2  1  0  0  0  0
 11 20  2  0  0  0  0
 11 16  1  0  0  0  0
 12 18  1  0  0  0  0
 13 12  2  0  0  0  0
 13 11  1  0  0  0  0
 14  9  1  0  0  0  0
 15  9  1  0  0  0  0
 15 19  2  0  0  0  0
 16 10  1  6  0  0  0
 16 19  1  0  0  0  0
 17 14  2  0  0  0  0
 17 20  1  0  0  0  0
 18 10  2  0  0  0  0
 20 15  1  0  0  0  0
 21 22  1  0  0  0  0
 22 23  2  0  0  0  0
 24 22  1  0  0  0  0
 25 24  1  0  0  0  0
 26 25  1  0  0  0  0
 27 26  2  0  0  0  0
 28 26  1  0  0  0  0
M  END
>  <MODEL>
9

>  <REMARK>
 VINA RESULT:      -6.4      2.714      6.702
  Name = 
  6 active torsions:
  status: ('A' for Active; 'I' for Inactive)
    1  A    between atoms: C_1  and  C_21
    2  A    between atoms: C_1  and  C_24
    3  A    between atoms: C_6  and  C_15
    4  A    between atoms: C_9  and  C_13
    5  A    between atoms: C_15  and  C_21
    6  A    between atoms: N_18  and  C_24
                            x       y       z     vdW  Elec       q    Type
                         _______ _______ _______ _____ _____    ______ ____

>  <TORSDO>
F 6

$$$$
