=
 OpenBabel11042419113D

 59 67  0  0  1  0  0  0  0  0999 V2000
  188.7820  176.6290  145.3680 C   0  0  0  0  0  2  0  0  0  0  0  0
  193.5340  172.2650  144.7040 C   0  0  0  0  0  0  0  0  0  0  0  0
  191.1620  170.1080  137.5330 C   0  0  0  0  0  0  0  0  0  0  0  0
  194.4780  174.8040  145.5970 N   0  0  0  0  0  0  0  0  0  0  0  0
  190.9210  171.4240  136.8810 C   0  0  0  0  0  0  0  0  0  0  0  0
  190.9200  173.6490  139.9170 C   0  0  0  0  0  2  0  0  0  0  0  0
  192.5290  172.6210  141.5920 C   0  0  0  0  0  2  0  0  0  0  0  0
  190.4590  173.8980  135.6880 C   0  0  0  0  0  0  0  0  0  0  0  0
  190.4870  173.7820  137.0830 C   0  0  0  0  0  3  0  0  0  0  0  0
  190.7190  172.5440  137.7010 C   0  0  0  0  0  0  0  0  0  0  0  0
  194.8860  172.3620  145.2950 C   0  0  0  0  0  0  0  0  0  0  0  0
  190.9860  175.5070  145.1170 C   0  0  1  0  0  3  0  0  0  0  0  0
  196.5900  173.8650  146.0770 N   0  0  0  0  0  2  0  0  0  0  0  0
  192.3920  175.7400  145.1590 O   0  0  0  0  0  0  0  0  0  0  0  0
  193.0260  170.9100  144.3120 C   0  0  0  0  0  1  0  0  0  0  0  0
  187.5390  175.3100  141.9190 C   0  0  1  0  0  3  0  0  0  0  0  0
  187.5490  173.9020  142.0920 O   0  0  0  0  0  0  0  0  0  0  0  0
  190.9170  171.1070  139.8180 C   0  0  1  0  0  3  0  0  0  0  0  0
  190.2450  171.9060  142.2530 C   0  0  0  0  0  0  0  0  0  0  0  0
  191.3800  172.5850  142.5580 C   0  0  0  0  0  0  0  0  0  0  0  0
  192.7930  173.3930  144.5430 C   0  0  0  0  0  0  0  0  0  0  0  0
  188.5860  175.8180  142.9260 C   0  0  1  0  0  3  0  0  0  0  0  0
  190.0740  170.9450  141.0920 C   0  0  0  0  0  2  0  0  0  0  0  0
  192.3160  173.7140  140.5410 C   0  0  0  0  0  2  0  0  0  0  0  0
  187.9780  175.6510  140.5070 C   0  0  0  0  0  1  0  0  0  0  0  0
  195.3810  173.6960  145.6560 C   0  0  0  0  0  0  0  0  0  0  0  0
  193.2750  174.6710  145.1200 C   0  0  0  0  0  0  0  0  0  0  0  0
  190.2460  176.8490  145.0540 C   0  0  2  0  0  3  0  0  0  0  0  0
  190.6210  174.4800  144.0330 C   0  0  2  0  0  3  0  0  0  0  0  0
  190.7990  177.8290  146.0720 C   0  0  0  0  0  1  0  0  0  0  0  0
  187.9400  176.6080  144.1000 C   0  0  1  0  0  3  0  0  0  0  0  0
  188.6060  173.5200  142.8930 C   0  0  0  0  0  0  0  0  0  0  0  0
  190.6520  172.7420  134.9200 C   0  0  0  0  0  3  0  0  0  0  0  0
  192.5440  169.5350  137.3240 C   0  0  0  0  0  2  0  0  0  0  0  0
  189.2800  174.5570  143.3590 C   0  0  0  0  0  0  0  0  0  0  0  0
  190.5920  169.9100  138.9180 C   0  0  0  0  0  2  0  0  0  0  0  0
  190.8820  171.5460  135.5250 N   0  0  0  0  0  0  0  0  0  0  0  0
  189.0240  172.1070  143.0770 C   0  0  0  0  0  2  0  0  0  0  0  0
  191.5050  173.4600  143.7710 C   0  0  1  0  0  3  0  0  0  0  0  0
  191.3290  168.8780  136.6710 C   0  0  0  0  0  2  0  0  0  0  0  0
  190.7350  172.4190  139.1440 N   0  0  0  0  0  0  0  0  0  0  0  0
  195.5990  171.3370  145.4650 O   0  0  0  0  0  0  0  0  0  0  0  0
  189.0250  175.8090  135.5040 O   0  0  0  0  0  1  0  0  0  0  0  0
  190.1900  175.2150  135.0140 C   0  0  1  0  0  3  0  0  0  0  0  0
  191.3590  176.1720  135.2000 C   0  0  0  0  0  1  0  0  0  0  0  0
  186.5220  176.1800  144.4720 C   0  0  0  0  0  2  0  0  0  0  0  0
  186.1590  176.7490  145.7690 N   0  0  0  0  0  2  0  0  0  0  0  0
  186.1800  179.1000  145.8740 O   0  0  0  0  0  1  0  0  0  0  0  0
  185.3830  177.9790  145.6060 C   0  0  2  0  0  0  0  0  0  0  0  0
  184.2500  177.9370  146.6160 C   0  0  0  0  0  1  0  0  0  0  0  0
  184.8050  178.0430  144.1850 C   0  0  0  0  0  2  0  0  0  0  0  0
  185.2830  179.2420  143.3670 C   0  0  0  0  0  2  0  0  0  0  0  0
  185.8000  178.8080  142.0760 N   0  0  0  0  0  2  0  0  0  0  0  0
  184.8340  177.8860  141.4860 C   0  0  0  0  0  2  0  0  0  0  0  0
  184.0980  178.5380  140.4070 N   0  0  0  0  0  2  0  0  0  0  0  0
  182.7820  177.9160  140.3250 C   0  0  0  0  0  2  0  0  0  0  0  0
  181.9380  178.3330  141.5190 C   0  0  0  0  0  2  0  0  0  0  0  0
  180.4950  178.5440  141.1010 C   0  0  0  0  0  2  0  0  0  0  0  0
  180.2990  179.9830  140.6680 C   0  0  0  0  0  1  0  0  0  0  0  0
  2 11  1  0  0  0  0
  3 36  1  0  0  0  0
  4 26  1  0  0  0  0
  5  3  1  0  0  0  0
  5 10  1  0  0  0  0
  6 24  1  0  0  0  0
  7 20  1  0  0  0  0
  8  9  1  0  0  0  0
  9 10  2  0  0  0  0
 10 41  1  0  0  0  0
 11 42  2  0  0  0  0
 11 26  1  0  0  0  0
 12 14  1  6  0  0  0
 15  2  1  0  0  0  0
 16 25  1  6  0  0  0
 16 17  1  0  0  0  0
 16 22  1  0  0  0  0
 17 32  1  0  0  0  0
 18 36  1  6  0  0  0
 18 23  1  0  0  0  0
 19 20  2  0  0  0  0
 19 38  1  0  0  0  0
 21  2  2  0  0  0  0
 21 27  1  0  0  0  0
 22 35  1  1  0  0  0
 22 31  1  0  0  0  0
 23 19  1  0  0  0  0
 24  7  1  0  0  0  0
 26 13  2  0  0  0  0
 27 14  1  0  0  0  0
 27  4  2  0  0  0  0
 28 12  1  0  0  0  0
 28  1  1  0  0  0  0
 28 30  1  1  0  0  0
 29 35  1  1  0  0  0
 29 12  1  0  0  0  0
 31 46  1  1  0  0  0
 31  1  1  0  0  0  0
 32 38  1  0  0  0  0
 32 35  2  0  0  0  0
 33 37  1  0  0  0  0
 33  8  2  0  0  0  0
 34  3  1  0  0  0  0
 37  5  2  0  0  0  0
 39 20  1  6  0  0  0
 39 29  1  0  0  0  0
 39 21  1  0  0  0  0
 40 34  1  0  0  0  0
 40  3  1  0  0  0  0
 41 18  1  0  0  0  0
 41  6  1  0  0  0  0
 44 45  1  1  0  0  0
 44 43  1  0  0  0  0
 44  8  1  0  0  0  0
 46 47  1  0  0  0  0
 49 47  1  0  0  0  0
 49 48  1  0  0  0  0
 49 50  1  1  0  0  0
 51 49  1  0  0  0  0
 52 51  1  0  0  0  0
 53 52  1  0  0  0  0
 54 53  1  0  0  0  0
 55 54  1  0  0  0  0
 56 55  1  0  0  0  0
 56 57  1  0  0  0  0
 58 57  1  0  0  0  0
 59 58  1  0  0  0  0
M  END
>  <MODEL>
1

>  <REMARK>
 VINA RESULT:      -8.0      0.000      0.000
  Name = 
  12 active torsions:
  status: ('A' for Active; 'I' for Inactive)
    1  A    between atoms: C_1  and  N_27
    2  A    between atoms: C_1  and  C_43
    3  A    between atoms: C_5  and  C_29
    4  A    between atoms: C_12  and  C_37
    5  A    between atoms: C_24  and  C_40
    6  A    between atoms: C_24  and  N_46
    7  A    between atoms: N_27  and  C_28
    8  A    between atoms: C_28  and  C_40
    9  A    between atoms: C_29  and  C_59
   10  A    between atoms: N_33  and  C_56
   11  A    between atoms: N_33  and  C_59
   12  A    between atoms: N_46  and  C_56
                            x       y       z     vdW  Elec       q    Type
                         _______ _______ _______ _____ _____    ______ ____

>  <TORSDO>
F 12

$$$$
=
 OpenBabel11042419113D

 59 67  0  0  1  0  0  0  0  0999 V2000
  190.3050  176.0660  146.1790 C   0  0  0  0  0  2  0  0  0  0  0  0
  193.8490  170.8350  144.7160 C   0  0  0  0  0  0  0  0  0  0  0  0
  190.8170  170.2450  137.4950 C   0  0  0  0  0  0  0  0  0  0  0  0
  195.4020  172.9440  145.8480 N   0  0  0  0  0  0  0  0  0  0  0  0
  190.8790  171.6530  137.0200 C   0  0  0  0  0  0  0  0  0  0  0  0
  191.5030  173.4030  140.2940 C   0  0  0  0  0  2  0  0  0  0  0  0
  192.8670  171.8180  141.7360 C   0  0  0  0  0  2  0  0  0  0  0  0
  190.9890  174.3000  136.1600 C   0  0  0  0  0  0  0  0  0  0  0  0
  191.0300  174.0010  137.5270 C   0  0  0  0  0  3  0  0  0  0  0  0
  190.9760  172.6730  137.9780 C   0  0  0  0  0  0  0  0  0  0  0  0
  195.2030  170.5350  145.2330 C   0  0  0  0  0  0  0  0  0  0  0  0
  192.1670  174.5020  145.6650 C   0  0  1  0  0  3  0  0  0  0  0  0
  197.2400  171.4820  146.0850 N   0  0  0  0  0  2  0  0  0  0  0  0
  193.5890  174.3920  145.6500 O   0  0  0  0  0  0  0  0  0  0  0  0
  193.0200  169.7000  144.1970 C   0  0  0  0  0  1  0  0  0  0  0  0
  188.6800  175.5340  142.6780 C   0  0  1  0  0  3  0  0  0  0  0  0
  188.3570  174.1530  142.6820 O   0  0  0  0  0  0  0  0  0  0  0  0
  190.8860  170.9670  139.8930 C   0  0  1  0  0  3  0  0  0  0  0  0
  190.4990  171.5780  142.4420 C   0  0  0  0  0  0  0  0  0  0  0  0
  191.7720  171.9260  142.7570 C   0  0  0  0  0  0  0  0  0  0  0  0
  193.3970  172.1160  144.7350 C   0  0  0  0  0  0  0  0  0  0  0  0
  189.8480  175.6480  143.6750 C   0  0  1  0  0  3  0  0  0  0  0  0
  190.0680  170.8430  141.1870 C   0  0  0  0  0  2  0  0  0  0  0  0
  192.8920  173.0570  140.8370 C   0  0  0  0  0  2  0  0  0  0  0  0
  189.1460  175.9440  141.2940 C   0  0  0  0  0  1  0  0  0  0  0  0
  196.0140  171.6570  145.7200 C   0  0  0  0  0  0  0  0  0  0  0  0
  194.1880  173.1590  145.4310 C   0  0  0  0  0  0  0  0  0  0  0  0
  191.7690  175.9760  145.8070 C   0  0  2  0  0  3  0  0  0  0  0  0
  191.5340  173.7380  144.4900 C   0  0  2  0  0  3  0  0  0  0  0  0
  192.5720  176.6580  146.8990 C   0  0  0  0  0  1  0  0  0  0  0  0
  189.4460  176.4080  144.9700 C   0  0  1  0  0  3  0  0  0  0  0  0
  189.3150  173.4330  143.3660 C   0  0  0  0  0  0  0  0  0  0  0  0
  190.8760  173.2410  135.2500 C   0  0  0  0  0  3  0  0  0  0  0  0
  192.0140  169.3960  137.1370 C   0  0  0  0  0  2  0  0  0  0  0  0
  190.2310  174.2140  143.9120 C   0  0  0  0  0  0  0  0  0  0  0  0
  190.2580  170.0070  138.8780 C   0  0  0  0  0  2  0  0  0  0  0  0
  190.8300  171.9560  135.6930 N   0  0  0  0  0  0  0  0  0  0  0  0
  189.3870  171.9500  143.3560 C   0  0  0  0  0  2  0  0  0  0  0  0
  192.1400  172.5830  144.0560 C   0  0  1  0  0  3  0  0  0  0  0  0
  190.6580  169.1320  136.4840 C   0  0  0  0  0  2  0  0  0  0  0  0
  191.0050  172.3620  139.3920 N   0  0  0  0  0  0  0  0  0  0  0  0
  195.6540  169.3580  145.2360 O   0  0  0  0  0  0  0  0  0  0  0  0
  192.1740  175.9680  134.9120 O   0  0  0  0  0  1  0  0  0  0  0  0
  191.0240  175.7200  135.6650 C   0  0  1  0  0  3  0  0  0  0  0  0
  189.7950  176.0340  134.8230 C   0  0  0  0  0  1  0  0  0  0  0  0
  187.9780  176.2790  145.3730 C   0  0  0  0  0  2  0  0  0  0  0  0
  187.4070  177.6070  145.5900 N   0  0  0  0  0  2  0  0  0  0  0  0
  188.0260  178.3480  147.7360 O   0  0  0  0  0  1  0  0  0  0  0  0
  186.9900  177.7820  146.9820 C   0  0  2  0  0  0  0  0  0  0  0  0
  186.6810  176.4040  147.5390 C   0  0  0  0  0  1  0  0  0  0  0  0
  185.7280  178.6560  147.0390 C   0  0  0  0  0  2  0  0  0  0  0  0
  184.5040  178.0340  146.3710 C   0  0  0  0  0  2  0  0  0  0  0  0
  183.7480  179.0440  145.6430 N   0  0  0  0  0  2  0  0  0  0  0  0
  184.3330  179.1790  144.3120 C   0  0  0  0  0  2  0  0  0  0  0  0
  184.5260  177.8670  143.7030 N   0  0  0  0  0  2  0  0  0  0  0  0
  184.2880  177.9990  142.2710 C   0  0  0  0  0  2  0  0  0  0  0  0
  185.6050  178.2240  141.5460 C   0  0  0  0  0  2  0  0  0  0  0  0
  185.4080  178.1300  140.0450 C   0  0  0  0  0  2  0  0  0  0  0  0
  186.4740  177.2340  139.4500 C   0  0  0  0  0  1  0  0  0  0  0  0
  2 21  2  0  0  0  0
  2 11  1  0  0  0  0
  3 36  1  0  0  0  0
  5  3  1  0  0  0  0
  5 10  1  0  0  0  0
  6 24  1  0  0  0  0
  7 20  1  0  0  0  0
  8  9  1  0  0  0  0
  9 10  2  0  0  0  0
 10 41  1  0  0  0  0
 11 42  2  0  0  0  0
 11 26  1  0  0  0  0
 12 14  1  6  0  0  0
 12 28  1  0  0  0  0
 15  2  1  0  0  0  0
 16 25  1  6  0  0  0
 16 17  1  0  0  0  0
 16 22  1  0  0  0  0
 17 32  1  0  0  0  0
 18 36  1  6  0  0  0
 18 23  1  0  0  0  0
 19 20  2  0  0  0  0
 19 38  1  0  0  0  0
 21 27  1  0  0  0  0
 22 35  1  1  0  0  0
 22 31  1  0  0  0  0
 23 19  1  0  0  0  0
 24  7  1  0  0  0  0
 26  4  1  0  0  0  0
 26 13  2  0  0  0  0
 27 14  1  0  0  0  0
 27  4  2  0  0  0  0
 28  1  1  0  0  0  0
 28 30  1  1  0  0  0
 29 35  1  1  0  0  0
 29 12  1  0  0  0  0
 31 46  1  1  0  0  0
 31  1  1  0  0  0  0
 32 35  2  0  0  0  0
 33 37  1  0  0  0  0
 33  8  2  0  0  0  0
 34  3  1  0  0  0  0
 37  5  2  0  0  0  0
 38 32  1  0  0  0  0
 39 20  1  6  0  0  0
 39 29  1  0  0  0  0
 39 21  1  0  0  0  0
 40 34  1  0  0  0  0
 40  3  1  0  0  0  0
 41 18  1  0  0  0  0
 41  6  1  0  0  0  0
 43 44  1  0  0  0  0
 44 45  1  6  0  0  0
 44  8  1  0  0  0  0
 46 47  1  0  0  0  0
 47 49  1  0  0  0  0
 49 51  1  0  0  0  0
 49 50  1  1  0  0  0
 49 48  1  0  0  0  0
 52 51  1  0  0  0  0
 53 52  1  0  0  0  0
 54 53  1  0  0  0  0
 55 54  1  0  0  0  0
 56 55  1  0  0  0  0
 57 56  1  0  0  0  0
 58 57  1  0  0  0  0
 59 58  1  0  0  0  0
M  END
>  <MODEL>
2

>  <REMARK>
 VINA RESULT:      -7.6      1.544      2.112
  Name = 
  12 active torsions:
  status: ('A' for Active; 'I' for Inactive)
    1  A    between atoms: C_1  and  N_27
    2  A    between atoms: C_1  and  C_43
    3  A    between atoms: C_5  and  C_29
    4  A    between atoms: C_12  and  C_37
    5  A    between atoms: C_24  and  C_40
    6  A    between atoms: C_24  and  N_46
    7  A    between atoms: N_27  and  C_28
    8  A    between atoms: C_28  and  C_40
    9  A    between atoms: C_29  and  C_59
   10  A    between atoms: N_33  and  C_56
   11  A    between atoms: N_33  and  C_59
   12  A    between atoms: N_46  and  C_56
                            x       y       z     vdW  Elec       q    Type
                         _______ _______ _______ _____ _____    ______ ____

>  <TORSDO>
F 12

$$$$
=
 OpenBabel11042419113D

 59 67  0  0  1  0  0  0  0  0999 V2000
  189.6790  177.8690  144.3090 C   0  0  0  0  0  2  0  0  0  0  0  0
  194.2540  173.2810  144.0350 C   0  0  0  0  0  0  0  0  0  0  0  0
  190.8130  169.5760  138.0240 C   0  0  0  0  0  0  0  0  0  0  0  0
  195.3360  175.9190  144.1390 N   0  0  0  0  0  0  0  0  0  0  0  0
  190.4830  170.7070  137.1150 C   0  0  0  0  0  0  0  0  0  0  0  0
  190.9520  173.5900  139.4890 C   0  0  0  0  0  2  0  0  0  0  0  0
  192.7910  172.9250  141.1110 C   0  0  0  0  0  2  0  0  0  0  0  0
  189.8570  172.8410  135.4400 C   0  0  0  0  0  0  0  0  0  0  0  0
  190.0950  173.0610  136.8020 C   0  0  0  0  0  3  0  0  0  0  0  0
  190.4120  171.9970  137.6600 C   0  0  0  0  0  0  0  0  0  0  0  0
  195.6810  173.4600  144.3810 C   0  0  0  0  0  0  0  0  0  0  0  0
  191.8140  176.6300  144.0190 C   0  0  1  0  0  3  0  0  0  0  0  0
  197.4910  175.0350  144.5190 N   0  0  0  0  0  2  0  0  0  0  0  0
  193.2120  176.8080  143.7970 O   0  0  0  0  0  0  0  0  0  0  0  0
  193.6870  171.8940  144.0600 C   0  0  0  0  0  1  0  0  0  0  0  0
  187.9210  175.8170  141.5010 C   0  0  1  0  0  3  0  0  0  0  0  0
  187.9510  174.4920  142.0070 O   0  0  0  0  0  0  0  0  0  0  0  0
  190.9220  171.1000  140.0100 C   0  0  1  0  0  3  0  0  0  0  0  0
  190.6310  172.4830  142.2510 C   0  0  0  0  0  0  0  0  0  0  0  0
  191.8020  173.1680  142.2130 C   0  0  0  0  0  0  0  0  0  0  0  0
  193.5040  174.3670  143.7150 C   0  0  0  0  0  0  0  0  0  0  0  0
  189.1120  176.5080  142.1920 C   0  0  1  0  0  3  0  0  0  0  0  0
  190.2810  171.2810  141.3940 C   0  0  0  0  0  2  0  0  0  0  0  0
  192.4270  173.7440  139.8690 C   0  0  0  0  0  2  0  0  0  0  0  0
  188.1430  175.7940  140.0010 C   0  0  0  0  0  1  0  0  0  0  0  0
  196.2320  174.8200  144.3320 C   0  0  0  0  0  0  0  0  0  0  0  0
  194.0730  175.7240  143.8890 C   0  0  0  0  0  0  0  0  0  0  0  0
  191.0790  177.9470  143.7420 C   0  0  2  0  0  3  0  0  0  0  0  0
  191.2840  175.3900  143.2800 C   0  0  2  0  0  3  0  0  0  0  0  0
  191.7850  179.1180  144.4000 C   0  0  0  0  0  1  0  0  0  0  0  0
  188.6540  177.5810  143.2200 C   0  0  1  0  0  3  0  0  0  0  0  0
  189.1160  174.2690  142.7130 C   0  0  0  0  0  0  0  0  0  0  0  0
  189.9260  171.5290  134.9550 C   0  0  0  0  0  3  0  0  0  0  0  0
  192.1450  168.9130  137.7600 C   0  0  0  0  0  2  0  0  0  0  0  0
  189.8570  175.3590  142.8110 C   0  0  0  0  0  0  0  0  0  0  0  0
  190.4590  169.7370  139.4840 C   0  0  0  0  0  2  0  0  0  0  0  0
  190.2390  170.5030  135.7910 N   0  0  0  0  0  0  0  0  0  0  0  0
  189.5500  172.9250  143.1700 C   0  0  0  0  0  2  0  0  0  0  0  0
  192.1130  174.3010  143.1470 C   0  0  1  0  0  3  0  0  0  0  0  0
  190.8420  168.1700  137.4700 C   0  0  0  0  0  2  0  0  0  0  0  0
  190.6470  172.2200  139.0720 N   0  0  0  0  0  0  0  0  0  0  0  0
  196.4070  172.4760  144.6870 O   0  0  0  0  0  0  0  0  0  0  0  0
  188.2720  174.5460  134.8660 O   0  0  0  0  0  1  0  0  0  0  0  0
  189.4950  173.9700  134.5130 C   0  0  1  0  0  3  0  0  0  0  0  0
  190.5750  175.0420  134.5130 C   0  0  0  0  0  1  0  0  0  0  0  0
  187.3080  177.3130  143.8880 C   0  0  0  0  0  2  0  0  0  0  0  0
  186.4210  178.4580  143.6910 N   0  0  0  0  0  2  0  0  0  0  0  0
  184.1280  178.5990  144.2030 O   0  0  0  0  0  1  0  0  0  0  0  0
  185.4160  178.5370  144.7520 C   0  0  2  0  0  0  0  0  0  0  0  0
  185.6750  179.8160  145.5280 C   0  0  0  0  0  1  0  0  0  0  0  0
  185.5560  177.3280  145.6890 C   0  0  0  0  0  2  0  0  0  0  0  0
  185.1930  177.6170  147.1440 C   0  0  0  0  0  2  0  0  0  0  0  0
  185.9730  176.7780  148.0430 N   0  0  0  0  0  2  0  0  0  0  0  0
  187.3600  176.7870  147.5860 C   0  0  0  0  0  2  0  0  0  0  0  0
  187.8570  175.4240  147.4340 N   0  0  0  0  0  2  0  0  0  0  0  0
  189.1750  175.4950  146.8140 C   0  0  0  0  0  2  0  0  0  0  0  0
  189.8000  176.8550  147.0850 C   0  0  0  0  0  2  0  0  0  0  0  0
  191.1650  176.6920  147.7260 C   0  0  0  0  0  2  0  0  0  0  0  0
  191.8080  175.4120  147.2300 C   0  0  0  0  0  1  0  0  0  0  0  0
  2 15  1  0  0  0  0
  2 11  1  0  0  0  0
  3 36  1  0  0  0  0
  4 26  1  0  0  0  0
  5 10  1  0  0  0  0
  5  3  1  0  0  0  0
  6 24  1  0  0  0  0
  7 20  1  0  0  0  0
  8  9  1  0  0  0  0
  9 10  2  0  0  0  0
 10 41  1  0  0  0  0
 11 42  2  0  0  0  0
 12 14  1  6  0  0  0
 14 27  1  0  0  0  0
 16 25  1  6  0  0  0
 16 17  1  0  0  0  0
 16 22  1  0  0  0  0
 17 32  1  0  0  0  0
 18 36  1  6  0  0  0
 18 23  1  0  0  0  0
 19 38  1  0  0  0  0
 20 19  2  0  0  0  0
 21 27  1  0  0  0  0
 21  2  2  0  0  0  0
 22 35  1  1  0  0  0
 22 31  1  0  0  0  0
 23 19  1  0  0  0  0
 24  7  1  0  0  0  0
 26 11  1  0  0  0  0
 26 13  2  0  0  0  0
 27  4  2  0  0  0  0
 28 12  1  0  0  0  0
 28  1  1  0  0  0  0
 28 30  1  1  0  0  0
 29 35  1  1  0  0  0
 29 12  1  0  0  0  0
 31 46  1  1  0  0  0
 31  1  1  0  0  0  0
 32 35  2  0  0  0  0
 32 38  1  0  0  0  0
 33  8  2  0  0  0  0
 33 37  1  0  0  0  0
 34  3  1  0  0  0  0
 37  5  2  0  0  0  0
 39 20  1  6  0  0  0
 39 29  1  0  0  0  0
 39 21  1  0  0  0  0
 40 34  1  0  0  0  0
 40  3  1  0  0  0  0
 41  6  1  0  0  0  0
 41 18  1  0  0  0  0
 44 45  1  1  0  0  0
 44 43  1  0  0  0  0
 44  8  1  0  0  0  0
 47 46  1  0  0  0  0
 47 49  1  0  0  0  0
 48 49  1  0  0  0  0
 49 50  1  1  0  0  0
 49 51  1  0  0  0  0
 51 52  1  0  0  0  0
 52 53  1  0  0  0  0
 54 53  1  0  0  0  0
 55 54  1  0  0  0  0
 56 57  1  0  0  0  0
 56 55  1  0  0  0  0
 57 58  1  0  0  0  0
 59 58  1  0  0  0  0
M  END
>  <MODEL>
3

>  <REMARK>
 VINA RESULT:      -7.1      2.042      3.730
  Name = 
  12 active torsions:
  status: ('A' for Active; 'I' for Inactive)
    1  A    between atoms: C_1  and  N_27
    2  A    between atoms: C_1  and  C_43
    3  A    between atoms: C_5  and  C_29
    4  A    between atoms: C_12  and  C_37
    5  A    between atoms: C_24  and  C_40
    6  A    between atoms: C_24  and  N_46
    7  A    between atoms: N_27  and  C_28
    8  A    between atoms: C_28  and  C_40
    9  A    between atoms: C_29  and  C_59
   10  A    between atoms: N_33  and  C_56
   11  A    between atoms: N_33  and  C_59
   12  A    between atoms: N_46  and  C_56
                            x       y       z     vdW  Elec       q    Type
                         _______ _______ _______ _____ _____    ______ ____

>  <TORSDO>
F 12

$$$$
=
 OpenBabel11042419113D

 59 67  0  0  1  0  0  0  0  0999 V2000
  188.7700  172.8610  137.5060 C   0  0  0  0  0  2  0  0  0  0  0  0
  185.9980  176.5550  142.0590 C   0  0  0  0  0  0  0  0  0  0  0  0
  192.0560  175.7960  147.0010 C   0  0  0  0  0  0  0  0  0  0  0  0
  185.9290  177.7510  139.4700 N   0  0  0  0  0  0  0  0  0  0  0  0
  193.2170  176.0310  146.1010 C   0  0  0  0  0  0  0  0  0  0  0  0
  191.5140  175.6930  142.7610 C   0  0  0  0  0  2  0  0  0  0  0  0
  189.1330  176.5280  143.0540 C   0  0  0  0  0  2  0  0  0  0  0  0
  195.3760  176.4540  144.3930 C   0  0  0  0  0  0  0  0  0  0  0  0
  194.1300  176.0790  143.8740 C   0  0  0  0  0  3  0  0  0  0  0  0
  193.0320  175.8620  144.7210 C   0  0  0  0  0  0  0  0  0  0  0  0
  185.0770  177.6860  141.8130 C   0  0  0  0  0  0  0  0  0  0  0  0
  187.7950  174.7540  138.7880 C   0  0  1  0  0  3  0  0  0  0  0  0
  184.4340  179.4000  140.2560 N   0  0  0  0  0  2  0  0  0  0  0  0
  187.3780  176.1140  138.6700 O   0  0  0  0  0  0  0  0  0  0  0  0
  185.9640  175.8920  143.4030 C   0  0  0  0  0  1  0  0  0  0  0  0
  191.6060  172.3400  140.1260 C   0  0  1  0  0  3  0  0  0  0  0  0
  190.8940  171.9980  141.3040 O   0  0  0  0  0  0  0  0  0  0  0  0
  190.5870  175.1660  145.0710 C   0  0  1  0  0  3  0  0  0  0  0  0
  189.0530  174.0520  143.2200 C   0  0  0  0  0  0  0  0  0  0  0  0
  188.6820  175.1820  142.5660 C   0  0  0  0  0  0  0  0  0  0  0  0
  186.8340  176.1480  141.0690 C   0  0  0  0  0  0  0  0  0  0  0  0
  190.5960  173.1610  139.3030 C   0  0  1  0  0  3  0  0  0  0  0  0
  189.7200  173.9970  144.5820 C   0  0  0  0  0  2  0  0  0  0  0  0
  190.5370  176.8490  142.5320 C   0  0  0  0  0  2  0  0  0  0  0  0
  192.7980  173.2060  140.4860 C   0  0  0  0  0  1  0  0  0  0  0  0
  185.1330  178.3420  140.5010 C   0  0  0  0  0  0  0  0  0  0  0  0
  186.6880  176.7210  139.7090 C   0  0  0  0  0  0  0  0  0  0  0  0
  188.6320  174.3670  137.5630 C   0  0  2  0  0  3  0  0  0  0  0  0
  188.4340  174.4820  140.1590 C   0  0  2  0  0  3  0  0  0  0  0  0
  187.9680  174.8250  136.2770 C   0  0  0  0  0  1  0  0  0  0  0  0
  190.1270  172.4090  138.0260 C   0  0  1  0  0  3  0  0  0  0  0  0
  189.7030  172.6910  141.3690 C   0  0  0  0  0  0  0  0  0  0  0  0
  195.5060  176.5920  145.7800 C   0  0  0  0  0  3  0  0  0  0  0  0
  191.5410  177.0250  147.7120 C   0  0  0  0  0  2  0  0  0  0  0  0
  189.4910  173.4220  140.2880 C   0  0  0  0  0  0  0  0  0  0  0  0
  190.9870  174.8460  146.5150 C   0  0  0  0  0  2  0  0  0  0  0  0
  194.4360  176.3860  146.5950 N   0  0  0  0  0  0  0  0  0  0  0  0
  188.8420  172.7280  142.5790 C   0  0  0  0  0  2  0  0  0  0  0  0
  187.9530  175.1620  141.2540 C   0  0  1  0  0  3  0  0  0  0  0  0
  192.2460  175.9190  148.4950 C   0  0  0  0  0  2  0  0  0  0  0  0
  191.7460  175.4620  144.1880 N   0  0  0  0  0  0  0  0  0  0  0  0
  184.2830  178.0880  142.7060 O   0  0  0  0  0  0  0  0  0  0  0  0
  197.5160  175.6570  143.6650 O   0  0  0  0  0  1  0  0  0  0  0  0
  196.5670  176.6680  143.4990 C   0  0  1  0  0  3  0  0  0  0  0  0
  196.1470  176.7290  142.0370 C   0  0  0  0  0  1  0  0  0  0  0  0
  190.1170  170.8860  138.1310 C   0  0  0  0  0  2  0  0  0  0  0  0
  191.1570  170.3230  137.2720 N   0  0  0  0  0  2  0  0  0  0  0  0
  191.9450  168.1750  136.7180 O   0  0  0  0  0  1  0  0  0  0  0  0
  191.6190  169.0310  137.7800 C   0  0  2  0  0  0  0  0  0  0  0  0
  190.4740  168.4160  138.5650 C   0  0  0  0  0  1  0  0  0  0  0  0
  192.8260  169.2390  138.7070 C   0  0  0  0  0  2  0  0  0  0  0  0
  192.6460  168.6620  140.1100 C   0  0  0  0  0  2  0  0  0  0  0  0
  193.5300  169.3300  141.0560 N   0  0  0  0  0  2  0  0  0  0  0  0
  192.8710  169.3490  142.3580 C   0  0  0  0  0  2  0  0  0  0  0  0
  193.7570  169.9120  143.3720 N   0  0  0  0  0  2  0  0  0  0  0  0
  192.9260  170.5080  144.4110 C   0  0  0  0  0  2  0  0  0  0  0  0
  192.9980  172.0250  144.3230 C   0  0  0  0  0  2  0  0  0  0  0  0
  194.4260  172.4740  144.0760 C   0  0  0  0  0  2  0  0  0  0  0  0
  195.0860  172.8120  145.3970 C   0  0  0  0  0  1  0  0  0  0  0  0
  1 28  1  0  0  0  0
  1 31  1  0  0  0  0
  2 15  1  0  0  0  0
  3 34  1  0  0  0  0
  3 40  1  0  0  0  0
  4 27  2  0  0  0  0
  4 26  1  0  0  0  0
  5 37  1  0  0  0  0
  5  3  1  0  0  0  0
  6 41  1  0  0  0  0
  8 33  1  0  0  0  0
  9  8  2  0  0  0  0
  9 10  1  0  0  0  0
 10  5  2  0  0  0  0
 11  2  1  0  0  0  0
 11 42  2  0  0  0  0
 12 14  1  6  0  0  0
 12 29  1  0  0  0  0
 13 26  2  0  0  0  0
 14 27  1  0  0  0  0
 16 25  1  1  0  0  0
 16 17  1  0  0  0  0
 17 32  1  0  0  0  0
 18 23  1  6  0  0  0
 18 36  1  0  0  0  0
 19 23  1  0  0  0  0
 20  7  1  0  0  0  0
 20 19  2  0  0  0  0
 21  2  2  0  0  0  0
 22 16  1  0  0  0  0
 22 35  1  1  0  0  0
 24  6  1  0  0  0  0
 24  7  1  0  0  0  0
 26 11  1  0  0  0  0
 27 21  1  0  0  0  0
 28 30  1  6  0  0  0
 28 12  1  0  0  0  0
 29 35  1  1  0  0  0
 29 39  1  0  0  0  0
 31 46  1  1  0  0  0
 31 22  1  0  0  0  0
 32 38  1  0  0  0  0
 33 37  2  0  0  0  0
 34 40  1  0  0  0  0
 35 32  2  0  0  0  0
 36  3  1  0  0  0  0
 38 19  1  0  0  0  0
 39 21  1  6  0  0  0
 39 20  1  0  0  0  0
 41 10  1  0  0  0  0
 41 18  1  0  0  0  0
 44 45  1  6  0  0  0
 44 43  1  0  0  0  0
 44  8  1  0  0  0  0
 47 49  1  0  0  0  0
 47 46  1  0  0  0  0
 48 49  1  0  0  0  0
 49 50  1  1  0  0  0
 49 51  1  0  0  0  0
 51 52  1  0  0  0  0
 52 53  1  0  0  0  0
 53 54  1  0  0  0  0
 54 55  1  0  0  0  0
 55 56  1  0  0  0  0
 57 56  1  0  0  0  0
 58 57  1  0  0  0  0
 58 59  1  0  0  0  0
M  END
>  <MODEL>
4

>  <REMARK>
 VINA RESULT:      -6.1      2.511     10.023
  Name = 
  12 active torsions:
  status: ('A' for Active; 'I' for Inactive)
    1  A    between atoms: C_1  and  N_27
    2  A    between atoms: C_1  and  C_43
    3  A    between atoms: C_5  and  C_29
    4  A    between atoms: C_12  and  C_37
    5  A    between atoms: C_24  and  C_40
    6  A    between atoms: C_24  and  N_46
    7  A    between atoms: N_27  and  C_28
    8  A    between atoms: C_28  and  C_40
    9  A    between atoms: C_29  and  C_59
   10  A    between atoms: N_33  and  C_56
   11  A    between atoms: N_33  and  C_59
   12  A    between atoms: N_46  and  C_56
                            x       y       z     vdW  Elec       q    Type
                         _______ _______ _______ _____ _____    ______ ____

>  <TORSDO>
F 12

$$$$
=
 OpenBabel11042419113D

 59 67  0  0  1  0  0  0  0  0999 V2000
  188.7960  172.9620  137.4740 C   0  0  0  0  0  2  0  0  0  0  0  0
  185.9870  176.6450  142.0140 C   0  0  0  0  0  0  0  0  0  0  0  0
  192.0120  175.8870  146.9950 C   0  0  0  0  0  0  0  0  0  0  0  0
  185.9330  177.8440  139.4250 N   0  0  0  0  0  0  0  0  0  0  0  0
  193.1790  176.1250  146.1040 C   0  0  0  0  0  0  0  0  0  0  0  0
  191.4990  175.7900  142.7520 C   0  0  0  0  0  2  0  0  0  0  0  0
  189.1140  176.6210  143.0300 C   0  0  0  0  0  2  0  0  0  0  0  0
  195.3480  176.5540  144.4110 C   0  0  0  0  0  0  0  0  0  0  0  0
  194.1070  176.1780  143.8840 C   0  0  0  0  0  3  0  0  0  0  0  0
  193.0030  175.9580  144.7220 C   0  0  0  0  0  0  0  0  0  0  0  0
  185.0650  177.7740  141.7630 C   0  0  0  0  0  0  0  0  0  0  0  0
  187.8080  174.8520  138.7520 C   0  0  1  0  0  3  0  0  0  0  0  0
  184.4300  179.4890  140.2040 N   0  0  0  0  0  2  0  0  0  0  0  0
  187.3900  176.2100  138.6330 O   0  0  0  0  0  0  0  0  0  0  0  0
  185.9440  175.9790  143.3560 C   0  0  0  0  0  1  0  0  0  0  0  0
  191.6150  172.4410  140.1130 C   0  0  1  0  0  3  0  0  0  0  0  0
  190.8950  172.0960  141.2850 O   0  0  0  0  0  0  0  0  0  0  0  0
  190.5570  175.2580  145.0550 C   0  0  1  0  0  3  0  0  0  0  0  0
  189.0380  174.1450  143.1910 C   0  0  0  0  0  0  0  0  0  0  0  0
  188.6690  175.2750  142.5370 C   0  0  0  0  0  0  0  0  0  0  0  0
  186.8300  176.2400  141.0280 C   0  0  0  0  0  0  0  0  0  0  0  0
  190.6090  173.2620  139.2840 C   0  0  1  0  0  3  0  0  0  0  0  0
  189.6950  174.0880  144.5580 C   0  0  0  0  0  2  0  0  0  0  0  0
  190.5210  176.9440  142.5180 C   0  0  0  0  0  2  0  0  0  0  0  0
  192.8030  173.3090  140.4820 C   0  0  0  0  0  1  0  0  0  0  0  0
  185.1290  178.4320  140.4520 C   0  0  0  0  0  0  0  0  0  0  0  0
  186.6930  176.8150  139.6690 C   0  0  0  0  0  0  0  0  0  0  0  0
  188.6550  174.4680  137.5320 C   0  0  2  0  0  3  0  0  0  0  0  0
  188.4380  174.5780  140.1270 C   0  0  2  0  0  3  0  0  0  0  0  0
  187.9980  174.9260  136.2430 C   0  0  0  0  0  1  0  0  0  0  0  0
  190.1500  172.5110  138.0020 C   0  0  1  0  0  3  0  0  0  0  0  0
  189.7020  172.7880  141.3430 C   0  0  0  0  0  0  0  0  0  0  0  0
  195.4680  176.6900  145.8000 C   0  0  0  0  0  3  0  0  0  0  0  0
  191.4900  177.1150  147.7050 C   0  0  0  0  0  2  0  0  0  0  0  0
  189.4960  173.5200  140.2620 C   0  0  0  0  0  0  0  0  0  0  0  0
  190.9480  174.9360  146.5010 C   0  0  0  0  0  2  0  0  0  0  0  0
  194.3930  176.4820  146.6070 N   0  0  0  0  0  0  0  0  0  0  0  0
  188.8330  172.8210  142.5470 C   0  0  0  0  0  2  0  0  0  0  0  0
  187.9490  175.2550  141.2190 C   0  0  1  0  0  3  0  0  0  0  0  0
  192.1910  176.0080  148.4910 C   0  0  0  0  0  2  0  0  0  0  0  0
  191.7210  175.5570  144.1810 N   0  0  0  0  0  0  0  0  0  0  0  0
  184.2650  178.1740  142.6510 O   0  0  0  0  0  0  0  0  0  0  0  0
  197.5150  175.7880  143.7300 O   0  0  0  0  0  1  0  0  0  0  0  0
  196.5450  176.7720  143.5260 C   0  0  1  0  0  3  0  0  0  0  0  0
  196.1420  176.7840  142.0580 C   0  0  0  0  0  1  0  0  0  0  0  0
  190.1410  170.9880  138.1050 C   0  0  0  0  0  2  0  0  0  0  0  0
  190.3490  170.4010  136.7820 N   0  0  0  0  0  2  0  0  0  0  0  0
  191.6480  168.6170  135.9660 O   0  0  0  0  0  1  0  0  0  0  0  0
  191.6920  169.8320  136.6620 C   0  0  2  0  0  0  0  0  0  0  0  0
  192.2000  169.5680  138.0690 C   0  0  0  0  0  1  0  0  0  0  0  0
  192.6190  170.8350  135.9590 C   0  0  0  0  0  2  0  0  0  0  0  0
  193.8250  171.2650  136.7920 C   0  0  0  0  0  2  0  0  0  0  0  0
  194.8880  171.7690  135.9330 N   0  0  0  0  0  2  0  0  0  0  0  0
  195.0180  173.2050  136.1660 C   0  0  0  0  0  2  0  0  0  0  0  0
  194.2730  173.5990  137.3570 N   0  0  0  0  0  2  0  0  0  0  0  0
  194.0490  175.0380  137.2880 C   0  0  0  0  0  2  0  0  0  0  0  0
  193.4130  175.3990  135.9540 C   0  0  0  0  0  2  0  0  0  0  0  0
  191.9020  175.2970  136.0420 C   0  0  0  0  0  2  0  0  0  0  0  0
  191.4000  174.3140  135.0030 C   0  0  0  0  0  1  0  0  0  0  0  0
  1 28  1  0  0  0  0
  1 31  1  0  0  0  0
  2 15  1  0  0  0  0
  3 34  1  0  0  0  0
  3 40  1  0  0  0  0
  4 27  2  0  0  0  0
  4 26  1  0  0  0  0
  5 37  1  0  0  0  0
  5  3  1  0  0  0  0
  6 41  1  0  0  0  0
  8 33  1  0  0  0  0
  9  8  2  0  0  0  0
  9 10  1  0  0  0  0
 10  5  2  0  0  0  0
 11  2  1  0  0  0  0
 11 42  2  0  0  0  0
 12 14  1  6  0  0  0
 12 29  1  0  0  0  0
 13 26  2  0  0  0  0
 14 27  1  0  0  0  0
 16 25  1  1  0  0  0
 16 17  1  0  0  0  0
 17 32  1  0  0  0  0
 18 23  1  6  0  0  0
 18 36  1  0  0  0  0
 19 23  1  0  0  0  0
 20  7  1  0  0  0  0
 20 19  2  0  0  0  0
 21  2  2  0  0  0  0
 22 16  1  0  0  0  0
 22 35  1  1  0  0  0
 24  6  1  0  0  0  0
 24  7  1  0  0  0  0
 26 11  1  0  0  0  0
 27 21  1  0  0  0  0
 28 30  1  6  0  0  0
 28 12  1  0  0  0  0
 29 35  1  1  0  0  0
 29 39  1  0  0  0  0
 31 46  1  1  0  0  0
 31 22  1  0  0  0  0
 32 38  1  0  0  0  0
 33 37  2  0  0  0  0
 34 40  1  0  0  0  0
 35 32  2  0  0  0  0
 36  3  1  0  0  0  0
 38 19  1  0  0  0  0
 39 21  1  6  0  0  0
 39 20  1  0  0  0  0
 41 10  1  0  0  0  0
 41 18  1  0  0  0  0
 44 45  1  6  0  0  0
 44 43  1  0  0  0  0
 44  8  1  0  0  0  0
 47 46  1  0  0  0  0
 48 49  1  0  0  0  0
 49 47  1  0  0  0  0
 49 50  1  1  0  0  0
 51 49  1  0  0  0  0
 51 52  1  0  0  0  0
 53 54  1  0  0  0  0
 53 52  1  0  0  0  0
 54 55  1  0  0  0  0
 56 55  1  0  0  0  0
 57 58  1  0  0  0  0
 57 56  1  0  0  0  0
 59 58  1  0  0  0  0
M  END
>  <MODEL>
5

>  <REMARK>
 VINA RESULT:      -5.6      2.593      9.891
  Name = 
  12 active torsions:
  status: ('A' for Active; 'I' for Inactive)
    1  A    between atoms: C_1  and  N_27
    2  A    between atoms: C_1  and  C_43
    3  A    between atoms: C_5  and  C_29
    4  A    between atoms: C_12  and  C_37
    5  A    between atoms: C_24  and  C_40
    6  A    between atoms: C_24  and  N_46
    7  A    between atoms: N_27  and  C_28
    8  A    between atoms: C_28  and  C_40
    9  A    between atoms: C_29  and  C_59
   10  A    between atoms: N_33  and  C_56
   11  A    between atoms: N_33  and  C_59
   12  A    between atoms: N_46  and  C_56
                            x       y       z     vdW  Elec       q    Type
                         _______ _______ _______ _____ _____    ______ ____

>  <TORSDO>
F 12

$$$$
