=
 OpenBabel11042416523D

 35 37  0  0  1  0  0  0  0  0999 V2000
  192.1500  176.5610  143.5190 O   0  0  0  0  0  1  0  0  0  0  0  0
  192.4130  174.7970  141.9250 C   0  0  0  0  0  0  0  0  0  0  0  0
  189.6400  174.6640  141.9320 N   0  0  0  0  0  0  0  0  0  0  0  0
  193.8320  174.7000  142.1710 N   0  0  0  0  0  0  0  0  0  0  0  0
  191.6220  176.0230  142.3410 C   0  0  1  0  0  3  0  0  0  0  0  0
  191.8020  173.8180  141.3190 N   0  0  0  0  0  0  0  0  0  0  0  0
  190.3910  173.8940  140.9440 C   0  0  0  0  0  2  0  0  0  0  0  0
  190.1720  175.6680  142.5650 C   0  0  0  0  0  0  0  0  0  0  0  0
  194.4900  173.4050  142.3200 C   0  0  2  0  0  3  0  0  0  0  0  0
  194.9050  172.9300  141.0740 O   0  0  0  0  0  1  0  0  0  0  0  0
  193.6180  172.4900  142.9130 O   0  0  0  0  0  0  0  0  0  0  0  0
  193.9210  172.5340  144.2760 C   0  0  0  0  0  2  0  0  0  0  0  0
  192.6790  172.8900  145.0800 C   0  0  0  0  0  2  0  0  0  0  0  0
  191.9580  176.1610  146.9240 C   0  0  0  0  0  0  0  0  0  0  0  0
  191.7470  174.9100  146.3100 C   0  0  0  0  0  0  0  0  0  0  0  0
  192.8470  174.2050  145.7780 C   0  0  0  0  0  0  0  0  0  0  0  0
  190.3680  174.3380  146.2280 C   0  0  0  0  0  1  0  0  0  0  0  0
  194.1330  174.7500  145.8680 C   0  0  0  0  0  3  0  0  0  0  0  0
  193.2500  176.6890  147.0050 C   0  0  0  0  0  3  0  0  0  0  0  0
  194.3350  175.9880  146.4800 C   0  0  0  0  0  3  0  0  0  0  0  0
  190.6300  177.0930  147.5970 Cl  0  0  0  0  0  0  0  0  0  0  0  0
  188.1550  176.1750  143.7540 C   0  0  0  0  0  3  0  0  0  0  0  0
  189.3900  176.4490  143.4780 N   0  0  0  0  0  0  0  0  0  0  0  0
  187.3480  176.9730  144.6980 C   0  0  0  0  0  0  0  0  0  0  0  0
  186.4940  178.6210  142.9390 C   0  0  0  0  0  1  0  0  0  0  0  0
  187.3700  176.5630  146.0360 C   0  0  0  0  0  3  0  0  0  0  0  0
  186.6490  177.2580  147.0090 C   0  0  0  0  0  3  0  0  0  0  0  0
  186.5770  178.1060  144.3370 C   0  0  0  0  0  0  0  0  0  0  0  0
  185.8940  178.3750  146.6500 C   0  0  0  0  0  0  0  0  0  0  0  0
  185.8600  178.7960  145.3190 C   0  0  0  0  0  3  0  0  0  0  0  0
  185.1800  179.0700  147.6160 O   0  0  0  0  0  1  0  0  0  0  0  0
  194.6610  175.8870  142.3460 C   0  0  0  0  0  2  0  0  0  0  0  0
  195.1850  176.3800  141.0020 C   0  0  0  0  0  2  0  0  0  0  0  0
  196.6380  176.3470  140.9730 N   0  0  0  0  0  2  0  0  0  0  0  0
  197.0890  176.1630  142.3410 C   0  0  0  0  0  1  0  0  0  0  0  0
  2  4  1  0  0  0  0
  2  5  1  0  0  0  0
  3  8  2  0  0  0  0
  4  9  1  0  0  0  0
  4 32  1  0  0  0  0
  5  8  1  0  0  0  0
  5  1  1  1  0  0  0
  6  2  2  0  0  0  0
  7  6  1  0  0  0  0
  7  3  1  0  0  0  0
  8 23  1  0  0  0  0
  9 10  1  6  0  0  0
  9 11  1  0  0  0  0
 11 12  1  0  0  0  0
 12 13  1  0  0  0  0
 13 16  1  0  0  0  0
 14 19  1  0  0  0  0
 14 21  1  0  0  0  0
 15 14  2  0  0  0  0
 16 18  2  0  0  0  0
 16 15  1  0  0  0  0
 17 15  1  0  0  0  0
 18 20  1  0  0  0  0
 20 19  2  0  0  0  0
 22 24  1  0  0  0  0
 23 22  2  0  0  0  0
 24 26  1  0  0  0  0
 25 28  1  0  0  0  0
 26 27  2  0  0  0  0
 28 24  2  0  0  0  0
 28 30  1  0  0  0  0
 29 27  1  0  0  0  0
 29 31  1  0  0  0  0
 30 29  2  0  0  0  0
 33 32  1  0  0  0  0
 34 33  1  0  0  0  0
 34 35  1  0  0  0  0
M  END
>  <MODEL>
1

>  <REMARK>
 VINA RESULT:      -6.5      0.000      0.000
  Name = 
  10 active torsions:
  status: ('A' for Active; 'I' for Inactive)
    1  A    between atoms: C_3  and  C_7
    2  A    between atoms: C_5  and  N_6
    3  A    between atoms: C_5  and  O_8
    4  A    between atoms: N_6  and  C_12
    5  A    between atoms: O_8  and  C_17
    6  A    between atoms: N_10  and  C_28
    7  A    between atoms: C_12  and  C_19
    8  A    between atoms: C_14  and  C_16
    9  A    between atoms: C_14  and  C_17
   10  A    between atoms: C_19  and  N_21
                            x       y       z     vdW  Elec       q    Type
                         _______ _______ _______ _____ _____    ______ ____

>  <TORSDO>
F 10

$$$$
=
 OpenBabel11042416523D

 35 37  0  0  1  0  0  0  0  0999 V2000
  191.9840  174.8780  141.7840 O   0  0  0  0  0  1  0  0  0  0  0  0
  192.4580  173.1160  143.3300 C   0  0  0  0  0  0  0  0  0  0  0  0
  189.7280  173.1110  143.8350 N   0  0  0  0  0  0  0  0  0  0  0  0
  193.8810  173.3510  143.2600 N   0  0  0  0  0  0  0  0  0  0  0  0
  191.5160  173.6530  142.2680 C   0  0  1  0  0  3  0  0  0  0  0  0
  191.9750  172.4160  144.3180 N   0  0  0  0  0  0  0  0  0  0  0  0
  190.5610  172.0520  144.3950 C   0  0  0  0  0  2  0  0  0  0  0  0
  190.1300  173.8410  142.8360 C   0  0  0  0  0  0  0  0  0  0  0  0
  194.7080  173.3700  144.4630 C   0  0  2  0  0  3  0  0  0  0  0  0
  195.0640  172.0680  144.8220 O   0  0  0  0  0  1  0  0  0  0  0  0
  194.0160  173.9810  145.5110 O   0  0  0  0  0  0  0  0  0  0  0  0
  194.5960  175.2450  145.6370 C   0  0  0  0  0  2  0  0  0  0  0  0
  193.7880  176.1020  146.6010 C   0  0  0  0  0  2  0  0  0  0  0  0
  190.0270  176.4930  146.0380 C   0  0  0  0  0  0  0  0  0  0  0  0
  191.2480  176.1540  146.6550 C   0  0  0  0  0  0  0  0  0  0  0  0
  192.4620  176.4720  146.0120 C   0  0  0  0  0  0  0  0  0  0  0  0
  191.2500  175.4670  147.9830 C   0  0  0  0  0  1  0  0  0  0  0  0
  192.4440  177.1210  144.7720 C   0  0  0  0  0  3  0  0  0  0  0  0
  190.0290  177.1430  144.7990 C   0  0  0  0  0  3  0  0  0  0  0  0
  191.2320  177.4570  144.1670 C   0  0  0  0  0  3  0  0  0  0  0  0
  188.4810  176.1170  146.7830 Cl  0  0  0  0  0  0  0  0  0  0  0  0
  188.0890  175.0930  142.7390 C   0  0  0  0  0  3  0  0  0  0  0  0
  189.2630  174.8280  142.2610 N   0  0  0  0  0  0  0  0  0  0  0  0
  187.1970  176.1120  142.1540 C   0  0  0  0  0  0  0  0  0  0  0  0
  185.9310  176.5870  144.3250 C   0  0  0  0  0  1  0  0  0  0  0  0
  187.3700  176.3840  140.7920 C   0  0  0  0  0  3  0  0  0  0  0  0
  186.5680  177.3250  140.1430 C   0  0  0  0  0  3  0  0  0  0  0  0
  186.1940  176.8100  142.8730 C   0  0  0  0  0  0  0  0  0  0  0  0
  185.5810  178.0060  140.8530 C   0  0  0  0  0  0  0  0  0  0  0  0
  185.3950  177.7480  142.2120 C   0  0  0  0  0  3  0  0  0  0  0  0
  184.7800  178.9380  140.2090 O   0  0  0  0  0  1  0  0  0  0  0  0
  194.5450  173.6430  141.9950 C   0  0  0  0  0  2  0  0  0  0  0  0
  195.6730  174.6490  142.1980 C   0  0  0  0  0  2  0  0  0  0  0  0
  195.1710  176.0100  142.1030 N   0  0  0  0  0  2  0  0  0  0  0  0
  196.1260  176.7630  141.3100 C   0  0  0  0  0  1  0  0  0  0  0  0
  2  6  2  0  0  0  0
  3  7  1  0  0  0  0
  4  2  1  0  0  0  0
  4  9  1  0  0  0  0
  5  1  1  1  0  0  0
  5  8  1  0  0  0  0
  5  2  1  0  0  0  0
  6  7  1  0  0  0  0
  8  3  2  0  0  0  0
  9 10  1  1  0  0  0
  9 11  1  0  0  0  0
 11 12  1  0  0  0  0
 12 13  1  0  0  0  0
 14 15  1  0  0  0  0
 14 21  1  0  0  0  0
 15 17  1  0  0  0  0
 16 13  1  0  0  0  0
 16 15  2  0  0  0  0
 18 16  1  0  0  0  0
 19 14  2  0  0  0  0
 20 18  2  0  0  0  0
 20 19  1  0  0  0  0
 23 22  2  0  0  0  0
 23  8  1  0  0  0  0
 24 22  1  0  0  0  0
 24 28  1  0  0  0  0
 26 24  2  0  0  0  0
 27 26  1  0  0  0  0
 27 29  2  0  0  0  0
 28 25  1  0  0  0  0
 29 30  1  0  0  0  0
 30 28  2  0  0  0  0
 31 29  1  0  0  0  0
 32 33  1  0  0  0  0
 32  4  1  0  0  0  0
 34 33  1  0  0  0  0
 35 34  1  0  0  0  0
M  END
>  <MODEL>
2

>  <REMARK>
 VINA RESULT:      -6.4      2.331      3.325
  Name = 
  10 active torsions:
  status: ('A' for Active; 'I' for Inactive)
    1  A    between atoms: C_3  and  C_7
    2  A    between atoms: C_5  and  N_6
    3  A    between atoms: C_5  and  O_8
    4  A    between atoms: N_6  and  C_12
    5  A    between atoms: O_8  and  C_17
    6  A    between atoms: N_10  and  C_28
    7  A    between atoms: C_12  and  C_19
    8  A    between atoms: C_14  and  C_16
    9  A    between atoms: C_14  and  C_17
   10  A    between atoms: C_19  and  N_21
                            x       y       z     vdW  Elec       q    Type
                         _______ _______ _______ _____ _____    ______ ____

>  <TORSDO>
F 10

$$$$
=
 OpenBabel11042416523D

 35 37  0  0  1  0  0  0  0  0999 V2000
  191.7920  174.7960  141.7880 O   0  0  0  0  0  1  0  0  0  0  0  0
  190.7950  174.5580  143.9500 C   0  0  0  0  0  0  0  0  0  0  0  0
  189.8660  172.1130  143.0190 N   0  0  0  0  0  0  0  0  0  0  0  0
  191.0410  175.9410  144.2840 N   0  0  0  0  0  0  0  0  0  0  0  0
  191.5350  173.8790  142.8110 C   0  0  1  0  0  3  0  0  0  0  0  0
  189.9320  173.8760  144.6480 N   0  0  0  0  0  0  0  0  0  0  0  0
  189.7110  172.4470  144.4310 C   0  0  0  0  0  2  0  0  0  0  0  0
  190.7200  172.7340  142.2590 C   0  0  0  0  0  0  0  0  0  0  0  0
  190.0180  176.7600  144.9300 C   0  0  2  0  0  3  0  0  0  0  0  0
  190.1390  178.0900  144.5230 O   0  0  0  0  0  1  0  0  0  0  0  0
  190.1430  176.6720  146.3190 O   0  0  0  0  0  0  0  0  0  0  0  0
  188.9440  177.1850  146.8210 C   0  0  0  0  0  2  0  0  0  0  0  0
  187.7830  176.2790  146.4380 C   0  0  0  0  0  2  0  0  0  0  0  0
  184.7990  178.0350  144.8160 C   0  0  0  0  0  0  0  0  0  0  0  0
  185.9610  177.2500  144.9550 C   0  0  0  0  0  0  0  0  0  0  0  0
  186.5270  177.0700  146.2350 C   0  0  0  0  0  0  0  0  0  0  0  0
  186.5840  176.6140  143.7540 C   0  0  0  0  0  1  0  0  0  0  0  0
  185.9290  177.6660  147.3510 C   0  0  0  0  0  3  0  0  0  0  0  0
  184.2150  178.6230  145.9430 C   0  0  0  0  0  3  0  0  0  0  0  0
  184.7760  178.4400  147.2060 C   0  0  0  0  0  3  0  0  0  0  0  0
  184.0510  178.3060  143.2500 Cl  0  0  0  0  0  0  0  0  0  0  0  0
  189.9260  171.9200  140.1510 C   0  0  0  0  0  3  0  0  0  0  0  0
  190.9010  172.3380  140.8930 N   0  0  0  0  0  0  0  0  0  0  0  0
  190.1060  171.5180  138.7430 C   0  0  0  0  0  0  0  0  0  0  0  0
  188.5470  173.3050  137.7880 C   0  0  0  0  0  1  0  0  0  0  0  0
  190.9600  170.4330  138.5090 C   0  0  0  0  0  3  0  0  0  0  0  0
  191.1890  169.9690  137.2120 C   0  0  0  0  0  3  0  0  0  0  0  0
  189.4750  172.1470  137.6400 C   0  0  0  0  0  0  0  0  0  0  0  0
  190.5630  170.5890  136.1310 C   0  0  0  0  0  0  0  0  0  0  0  0
  189.7100  171.6730  136.3460 C   0  0  0  0  0  3  0  0  0  0  0  0
  190.7850  170.1260  134.8410 O   0  0  0  0  0  1  0  0  0  0  0  0
  192.2950  176.6000  143.9380 C   0  0  0  0  0  2  0  0  0  0  0  0
  193.2850  176.5180  145.0940 C   0  0  0  0  0  2  0  0  0  0  0  0
  194.5240  175.8920  144.6670 N   0  0  0  0  0  2  0  0  0  0  0  0
  194.6210  176.0690  143.2300 C   0  0  0  0  0  1  0  0  0  0  0  0
  2  4  1  0  0  0  0
  2  6  2  0  0  0  0
  3  7  1  0  0  0  0
  4  9  1  0  0  0  0
  5  1  1  6  0  0  0
  5  2  1  0  0  0  0
  7  6  1  0  0  0  0
  8  5  1  0  0  0  0
  8  3  2  0  0  0  0
  9 10  1  6  0  0  0
  9 11  1  0  0  0  0
 11 12  1  0  0  0  0
 13 12  1  0  0  0  0
 14 15  2  0  0  0  0
 14 19  1  0  0  0  0
 15 16  1  0  0  0  0
 16 13  1  0  0  0  0
 16 18  2  0  0  0  0
 17 15  1  0  0  0  0
 19 20  2  0  0  0  0
 20 18  1  0  0  0  0
 21 14  1  0  0  0  0
 22 23  2  0  0  0  0
 23  8  1  0  0  0  0
 24 22  1  0  0  0  0
 26 24  1  0  0  0  0
 27 26  2  0  0  0  0
 28 25  1  0  0  0  0
 28 24  2  0  0  0  0
 29 30  2  0  0  0  0
 29 27  1  0  0  0  0
 30 28  1  0  0  0  0
 31 29  1  0  0  0  0
 32  4  1  0  0  0  0
 32 33  1  0  0  0  0
 34 33  1  0  0  0  0
 35 34  1  0  0  0  0
M  END
>  <MODEL>
3

>  <REMARK>
 VINA RESULT:      -6.4      3.297      7.623
  Name = 
  10 active torsions:
  status: ('A' for Active; 'I' for Inactive)
    1  A    between atoms: C_3  and  C_7
    2  A    between atoms: C_5  and  N_6
    3  A    between atoms: C_5  and  O_8
    4  A    between atoms: N_6  and  C_12
    5  A    between atoms: O_8  and  C_17
    6  A    between atoms: N_10  and  C_28
    7  A    between atoms: C_12  and  C_19
    8  A    between atoms: C_14  and  C_16
    9  A    between atoms: C_14  and  C_17
   10  A    between atoms: C_19  and  N_21
                            x       y       z     vdW  Elec       q    Type
                         _______ _______ _______ _____ _____    ______ ____

>  <TORSDO>
F 10

$$$$
=
 OpenBabel11042416523D

 35 37  0  0  1  0  0  0  0  0999 V2000
  191.9170  176.0400  145.2850 O   0  0  0  0  0  1  0  0  0  0  0  0
  192.9180  173.9840  144.5840 C   0  0  0  0  0  0  0  0  0  0  0  0
  190.3780  172.8980  144.8610 N   0  0  0  0  0  0  0  0  0  0  0  0
  194.2540  174.5100  144.7380 N   0  0  0  0  0  0  0  0  0  0  0  0
  191.7150  174.9050  144.4950 C   0  0  1  0  0  3  0  0  0  0  0  0
  192.7440  172.6950  144.5040 N   0  0  0  0  0  0  0  0  0  0  0  0
  191.4350  172.1020  144.2430 C   0  0  0  0  0  2  0  0  0  0  0  0
  190.4680  174.1920  144.9600 C   0  0  0  0  0  0  0  0  0  0  0  0
  195.3100  173.7260  145.3750 C   0  0  2  0  0  3  0  0  0  0  0  0
  196.0880  174.5450  146.1960 O   0  0  0  0  0  1  0  0  0  0  0  0
  196.1120  173.1240  144.4030 O   0  0  0  0  0  0  0  0  0  0  0  0
  197.1260  172.4840  145.1180 C   0  0  0  0  0  2  0  0  0  0  0  0
  197.2860  171.0490  144.6360 C   0  0  0  0  0  2  0  0  0  0  0  0
  194.3780  168.7920  145.6680 C   0  0  0  0  0  0  0  0  0  0  0  0
  195.1870  169.6370  144.8820 C   0  0  0  0  0  0  0  0  0  0  0  0
  196.4040  170.1180  145.4090 C   0  0  0  0  0  0  0  0  0  0  0  0
  194.7590  170.0120  143.4990 C   0  0  0  0  0  1  0  0  0  0  0  0
  196.7960  169.7530  146.7020 C   0  0  0  0  0  3  0  0  0  0  0  0
  194.7860  168.4370  146.9570 C   0  0  0  0  0  3  0  0  0  0  0  0
  195.9900  168.9140  147.4740 C   0  0  0  0  0  3  0  0  0  0  0  0
  192.8480  168.1660  145.0730 Cl  0  0  0  0  0  0  0  0  0  0  0  0
  188.5640  175.6340  144.7730 C   0  0  0  0  0  3  0  0  0  0  0  0
  189.3860  174.9560  145.5090 N   0  0  0  0  0  0  0  0  0  0  0  0
  187.4450  176.4160  145.3330 C   0  0  0  0  0  0  0  0  0  0  0  0
  186.1050  176.4970  143.1570 C   0  0  0  0  0  1  0  0  0  0  0  0
  187.5470  176.7710  146.6830 C   0  0  0  0  0  3  0  0  0  0  0  0
  186.5450  177.5200  147.3040 C   0  0  0  0  0  3  0  0  0  0  0  0
  186.3020  176.8230  144.5990 C   0  0  0  0  0  0  0  0  0  0  0  0
  185.4260  177.9210  146.5770 C   0  0  0  0  0  0  0  0  0  0  0  0
  185.3060  177.5740  145.2300 C   0  0  0  0  0  3  0  0  0  0  0  0
  184.4300  178.6690  147.1910 O   0  0  0  0  0  1  0  0  0  0  0  0
  194.5960  175.8660  144.3230 C   0  0  0  0  0  2  0  0  0  0  0  0
  194.7000  175.9540  142.8050 C   0  0  0  0  0  2  0  0  0  0  0  0
  196.0910  175.9500  142.3840 N   0  0  0  0  0  2  0  0  0  0  0  0
  196.8200  176.8050  143.3040 C   0  0  0  0  0  1  0  0  0  0  0  0
  2  4  1  0  0  0  0
  3  8  2  0  0  0  0
  4  9  1  0  0  0  0
  5  2  1  0  0  0  0
  5  8  1  0  0  0  0
  5  1  1  1  0  0  0
  6  2  2  0  0  0  0
  7  6  1  0  0  0  0
  7  3  1  0  0  0  0
  8 23  1  0  0  0  0
  9 10  1  6  0  0  0
 11 12  1  0  0  0  0
 11  9  1  0  0  0  0
 13 12  1  0  0  0  0
 13 16  1  0  0  0  0
 14 19  1  0  0  0  0
 15 16  1  0  0  0  0
 15 14  2  0  0  0  0
 16 18  2  0  0  0  0
 17 15  1  0  0  0  0
 18 20  1  0  0  0  0
 19 20  2  0  0  0  0
 21 14  1  0  0  0  0
 22 24  1  0  0  0  0
 22 23  2  0  0  0  0
 24 26  1  0  0  0  0
 25 28  1  0  0  0  0
 26 27  2  0  0  0  0
 28 30  1  0  0  0  0
 28 24  2  0  0  0  0
 29 31  1  0  0  0  0
 29 27  1  0  0  0  0
 30 29  2  0  0  0  0
 32  4  1  0  0  0  0
 33 32  1  0  0  0  0
 34 33  1  0  0  0  0
 34 35  1  0  0  0  0
M  END
>  <MODEL>
4

>  <REMARK>
 VINA RESULT:      -6.3      3.106      4.187
  Name = 
  10 active torsions:
  status: ('A' for Active; 'I' for Inactive)
    1  A    between atoms: C_3  and  C_7
    2  A    between atoms: C_5  and  N_6
    3  A    between atoms: C_5  and  O_8
    4  A    between atoms: N_6  and  C_12
    5  A    between atoms: O_8  and  C_17
    6  A    between atoms: N_10  and  C_28
    7  A    between atoms: C_12  and  C_19
    8  A    between atoms: C_14  and  C_16
    9  A    between atoms: C_14  and  C_17
   10  A    between atoms: C_19  and  N_21
                            x       y       z     vdW  Elec       q    Type
                         _______ _______ _______ _____ _____    ______ ____

>  <TORSDO>
F 10

$$$$
=
 OpenBabel11042416523D

 35 37  0  0  1  0  0  0  0  0999 V2000
  191.3320  174.5510  141.5460 O   0  0  0  0  0  1  0  0  0  0  0  0
  190.6280  174.4300  143.8290 C   0  0  0  0  0  0  0  0  0  0  0  0
  189.6020  171.9380  143.1590 N   0  0  0  0  0  0  0  0  0  0  0  0
  190.9060  175.8280  144.0550 N   0  0  0  0  0  0  0  0  0  0  0  0
  191.2170  173.6900  142.6420 C   0  0  1  0  0  3  0  0  0  0  0  0
  189.8680  173.7860  144.6700 N   0  0  0  0  0  0  0  0  0  0  0  0
  189.6310  172.3480  144.5600 C   0  0  0  0  0  2  0  0  0  0  0  0
  190.3450  172.5170  142.2630 C   0  0  0  0  0  0  0  0  0  0  0  0
  189.9710  176.6800  144.7850 C   0  0  2  0  0  3  0  0  0  0  0  0
  190.1070  178.0080  144.3720 O   0  0  0  0  0  1  0  0  0  0  0  0
  190.2060  176.5810  146.1580 O   0  0  0  0  0  0  0  0  0  0  0  0
  189.0430  177.0710  146.7580 C   0  0  0  0  0  2  0  0  0  0  0  0
  187.8540  176.1940  146.3960 C   0  0  0  0  0  2  0  0  0  0  0  0
  184.8430  178.0280  144.9160 C   0  0  0  0  0  0  0  0  0  0  0  0
  185.9950  177.2200  144.9980 C   0  0  0  0  0  0  0  0  0  0  0  0
  186.6060  177.0110  146.2530 C   0  0  0  0  0  0  0  0  0  0  0  0
  186.5580  176.5890  143.7650 C   0  0  0  0  0  1  0  0  0  0  0  0
  186.0640  177.6020  147.3990 C   0  0  0  0  0  3  0  0  0  0  0  0
  184.3150  178.6100  146.0720 C   0  0  0  0  0  3  0  0  0  0  0  0
  184.9210  178.3990  147.3100 C   0  0  0  0  0  3  0  0  0  0  0  0
  184.0400  178.3340  143.3840 Cl  0  0  0  0  0  0  0  0  0  0  0  0
  191.0880  171.0630  140.5090 C   0  0  0  0  0  3  0  0  0  0  0  0
  190.3480  172.0490  140.9080 N   0  0  0  0  0  0  0  0  0  0  0  0
  191.0890  170.5740  139.1170 C   0  0  0  0  0  0  0  0  0  0  0  0
  190.4700  168.1660  139.7170 C   0  0  0  0  0  1  0  0  0  0  0  0
  191.3980  171.5130  138.1260 C   0  0  0  0  0  3  0  0  0  0  0  0
  191.4360  171.1460  136.7800 C   0  0  0  0  0  3  0  0  0  0  0  0
  190.8070  169.2380  138.7350 C   0  0  0  0  0  0  0  0  0  0  0  0
  191.1620  169.8300  136.4090 C   0  0  0  0  0  0  0  0  0  0  0  0
  190.8490  168.8810  137.3840 C   0  0  0  0  0  3  0  0  0  0  0  0
  191.2030  169.4630  135.0720 O   0  0  0  0  0  1  0  0  0  0  0  0
  192.0990  176.4680  143.5120 C   0  0  0  0  0  2  0  0  0  0  0  0
  193.3380  176.0520  144.2980 C   0  0  0  0  0  2  0  0  0  0  0  0
  193.5560  176.9460  145.4230 N   0  0  0  0  0  2  0  0  0  0  0  0
  194.3270  176.2110  146.4100 C   0  0  0  0  0  1  0  0  0  0  0  0
  2  4  1  0  0  0  0
  2  6  2  0  0  0  0
  3  7  1  0  0  0  0
  4  9  1  0  0  0  0
  5  1  1  6  0  0  0
  5  2  1  0  0  0  0
  7  6  1  0  0  0  0
  8  5  1  0  0  0  0
  8  3  2  0  0  0  0
  9 10  1  6  0  0  0
  9 11  1  0  0  0  0
 11 12  1  0  0  0  0
 13 12  1  0  0  0  0
 14 15  2  0  0  0  0
 14 19  1  0  0  0  0
 15 16  1  0  0  0  0
 16 13  1  0  0  0  0
 16 18  2  0  0  0  0
 17 15  1  0  0  0  0
 19 20  2  0  0  0  0
 20 18  1  0  0  0  0
 21 14  1  0  0  0  0
 22 23  2  0  0  0  0
 23  8  1  0  0  0  0
 24 22  1  0  0  0  0
 26 24  2  0  0  0  0
 27 26  1  0  0  0  0
 28 24  1  0  0  0  0
 28 25  1  0  0  0  0
 29 27  2  0  0  0  0
 29 30  1  0  0  0  0
 30 28  2  0  0  0  0
 31 29  1  0  0  0  0
 32  4  1  0  0  0  0
 32 33  1  0  0  0  0
 33 34  1  0  0  0  0
 34 35  1  0  0  0  0
M  END
>  <MODEL>
5

>  <REMARK>
 VINA RESULT:      -6.3      3.531      8.001
  Name = 
  10 active torsions:
  status: ('A' for Active; 'I' for Inactive)
    1  A    between atoms: C_3  and  C_7
    2  A    between atoms: C_5  and  N_6
    3  A    between atoms: C_5  and  O_8
    4  A    between atoms: N_6  and  C_12
    5  A    between atoms: O_8  and  C_17
    6  A    between atoms: N_10  and  C_28
    7  A    between atoms: C_12  and  C_19
    8  A    between atoms: C_14  and  C_16
    9  A    between atoms: C_14  and  C_17
   10  A    between atoms: C_19  and  N_21
                            x       y       z     vdW  Elec       q    Type
                         _______ _______ _______ _____ _____    ______ ____

>  <TORSDO>
F 10

$$$$
=
 OpenBabel11042416523D

 35 37  0  0  1  0  0  0  0  0999 V2000
  191.5180  172.2360  142.2750 O   0  0  0  0  0  1  0  0  0  0  0  0
  190.9550  174.5470  142.0280 C   0  0  0  0  0  0  0  0  0  0  0  0
  193.3120  175.0500  143.4070 N   0  0  0  0  0  0  0  0  0  0  0  0
  189.6160  174.2380  141.5860 N   0  0  0  0  0  0  0  0  0  0  0  0
  192.0530  173.4990  142.0080 C   0  0  1  0  0  3  0  0  0  0  0  0
  191.2300  175.7530  142.4370 N   0  0  0  0  0  0  0  0  0  0  0  0
  192.5870  176.1620  142.7980 C   0  0  0  0  0  2  0  0  0  0  0  0
  193.1090  173.8190  143.0390 C   0  0  0  0  0  0  0  0  0  0  0  0
  188.4600  174.9720  142.0940 C   0  0  2  0  0  3  0  0  0  0  0  0
  187.3410  174.1380  142.1370 O   0  0  0  0  0  1  0  0  0  0  0  0
  188.2000  176.0780  141.2820 O   0  0  0  0  0  0  0  0  0  0  0  0
  187.1070  176.7130  141.8760 C   0  0  0  0  0  2  0  0  0  0  0  0
  187.5610  177.9690  142.6060 C   0  0  0  0  0  2  0  0  0  0  0  0
  185.9330  178.1060  146.0630 C   0  0  0  0  0  0  0  0  0  0  0  0
  186.8540  177.7970  145.0420 C   0  0  0  0  0  0  0  0  0  0  0  0
  186.6390  178.2970  143.7400 C   0  0  0  0  0  0  0  0  0  0  0  0
  188.0490  176.9500  145.3410 C   0  0  0  0  0  1  0  0  0  0  0  0
  185.5190  179.0940  143.4770 C   0  0  0  0  0  3  0  0  0  0  0  0
  184.8210  178.9050  145.7810 C   0  0  0  0  0  3  0  0  0  0  0  0
  184.6130  179.3990  144.4940 C   0  0  0  0  0  3  0  0  0  0  0  0
  186.1390  177.5080  147.7020 Cl  0  0  0  0  0  0  0  0  0  0  0  0
  194.0760  172.6260  144.8780 C   0  0  0  0  0  3  0  0  0  0  0  0
  193.8850  172.7550  143.6040 N   0  0  0  0  0  0  0  0  0  0  0  0
  194.8680  171.5280  145.4640 C   0  0  0  0  0  0  0  0  0  0  0  0
  197.0470  172.8590  145.5980 C   0  0  0  0  0  1  0  0  0  0  0  0
  194.1930  170.3220  145.6850 C   0  0  0  0  0  3  0  0  0  0  0  0
  194.8580  169.2190  146.2250 C   0  0  0  0  0  3  0  0  0  0  0  0
  196.2420  171.6200  145.8000 C   0  0  0  0  0  0  0  0  0  0  0  0
  196.2100  169.3130  146.5520 C   0  0  0  0  0  0  0  0  0  0  0  0
  196.8980  170.5090  146.3390 C   0  0  0  0  0  3  0  0  0  0  0  0
  196.8740  168.2170  147.0850 O   0  0  0  0  0  1  0  0  0  0  0  0
  189.3500  173.1420  140.6610 C   0  0  0  0  0  2  0  0  0  0  0  0
  189.5260  173.5990  139.2180 C   0  0  0  0  0  2  0  0  0  0  0  0
  188.2370  173.7750  138.5720 N   0  0  0  0  0  2  0  0  0  0  0  0
  188.4740  174.4820  137.3270 C   0  0  0  0  0  1  0  0  0  0  0  0
  2  6  2  0  0  0  0
  4  2  1  0  0  0  0
  4  9  1  0  0  0  0
  5  2  1  0  0  0  0
  5  1  1  1  0  0  0
  5  8  1  0  0  0  0
  6  7  1  0  0  0  0
  7  3  1  0  0  0  0
  8  3  2  0  0  0  0
  8 23  1  0  0  0  0
  9 10  1  6  0  0  0
 11 12  1  0  0  0  0
 11  9  1  0  0  0  0
 12 13  1  0  0  0  0
 13 16  1  0  0  0  0
 14 21  1  0  0  0  0
 15 17  1  0  0  0  0
 15 14  2  0  0  0  0
 16 15  1  0  0  0  0
 18 16  2  0  0  0  0
 18 20  1  0  0  0  0
 19 14  1  0  0  0  0
 20 19  2  0  0  0  0
 22 24  1  0  0  0  0
 23 22  2  0  0  0  0
 24 26  2  0  0  0  0
 24 28  1  0  0  0  0
 25 28  1  0  0  0  0
 26 27  1  0  0  0  0
 27 29  2  0  0  0  0
 28 30  2  0  0  0  0
 29 31  1  0  0  0  0
 30 29  1  0  0  0  0
 32  4  1  0  0  0  0
 33 32  1  0  0  0  0
 34 33  1  0  0  0  0
 35 34  1  0  0  0  0
M  END
>  <MODEL>
6

>  <REMARK>
 VINA RESULT:      -6.3      2.883      8.278
  Name = 
  10 active torsions:
  status: ('A' for Active; 'I' for Inactive)
    1  A    between atoms: C_3  and  C_7
    2  A    between atoms: C_5  and  N_6
    3  A    between atoms: C_5  and  O_8
    4  A    between atoms: N_6  and  C_12
    5  A    between atoms: O_8  and  C_17
    6  A    between atoms: N_10  and  C_28
    7  A    between atoms: C_12  and  C_19
    8  A    between atoms: C_14  and  C_16
    9  A    between atoms: C_14  and  C_17
   10  A    between atoms: C_19  and  N_21
                            x       y       z     vdW  Elec       q    Type
                         _______ _______ _______ _____ _____    ______ ____

>  <TORSDO>
F 10

$$$$
=
 OpenBabel11042416523D

 35 37  0  0  1  0  0  0  0  0999 V2000
  190.3860  175.2730  144.1930 O   0  0  0  0  0  1  0  0  0  0  0  0
  192.0250  175.6730  145.8890 C   0  0  0  0  0  0  0  0  0  0  0  0
  189.9940  176.9970  147.2420 N   0  0  0  0  0  0  0  0  0  0  0  0
  193.1060  175.2450  145.0330 N   0  0  0  0  0  0  0  0  0  0  0  0
  190.5830  175.3160  145.5770 C   0  0  1  0  0  3  0  0  0  0  0  0
  192.2940  176.3680  146.9580 N   0  0  0  0  0  0  0  0  0  0  0  0
  191.2610  176.7440  147.9220 C   0  0  0  0  0  2  0  0  0  0  0  0
  189.6430  176.3310  146.1810 C   0  0  0  0  0  0  0  0  0  0  0  0
  194.3570  175.9940  144.9570 C   0  0  2  0  0  3  0  0  0  0  0  0
  194.6580  176.2930  143.6260 O   0  0  0  0  0  1  0  0  0  0  0  0
  195.3940  175.2530  145.5260 O   0  0  0  0  0  0  0  0  0  0  0  0
  196.4320  175.3090  144.5930 C   0  0  0  0  0  2  0  0  0  0  0  0
  197.2910  174.0560  144.6840 C   0  0  0  0  0  2  0  0  0  0  0  0
  195.8760  170.6090  143.8300 C   0  0  0  0  0  0  0  0  0  0  0  0
  196.4450  171.6620  144.5740 C   0  0  0  0  0  0  0  0  0  0  0  0
  196.6550  172.9120  143.9560 C   0  0  0  0  0  0  0  0  0  0  0  0
  196.8160  171.4530  146.0070 C   0  0  0  0  0  1  0  0  0  0  0  0
  196.2960  173.0950  142.6150 C   0  0  0  0  0  3  0  0  0  0  0  0
  195.5230  170.8100  142.4920 C   0  0  0  0  0  3  0  0  0  0  0  0
  195.7310  172.0490  141.8850 C   0  0  0  0  0  3  0  0  0  0  0  0
  195.5960  169.0260  144.5390 Cl  0  0  0  0  0  0  0  0  0  0  0  0
  188.0350  177.6730  145.0170 C   0  0  0  0  0  3  0  0  0  0  0  0
  188.3620  176.5510  145.5750 N   0  0  0  0  0  0  0  0  0  0  0  0
  186.7200  177.9000  144.3870 C   0  0  0  0  0  0  0  0  0  0  0  0
  185.6750  179.0310  146.4290 C   0  0  0  0  0  1  0  0  0  0  0  0
  186.5750  177.4530  143.0680 C   0  0  0  0  0  3  0  0  0  0  0  0
  185.3660  177.6120  142.3880 C   0  0  0  0  0  3  0  0  0  0  0  0
  185.6200  178.5250  145.0260 C   0  0  0  0  0  0  0  0  0  0  0  0
  184.2860  178.2230  143.0220 C   0  0  0  0  0  0  0  0  0  0  0  0
  184.4130  178.6770  144.3360 C   0  0  0  0  0  3  0  0  0  0  0  0
  183.0820  178.3780  142.3490 O   0  0  0  0  0  1  0  0  0  0  0  0
  192.9760  174.0820  144.1620 C   0  0  0  0  0  2  0  0  0  0  0  0
  193.0310  172.7920  144.9720 C   0  0  0  0  0  2  0  0  0  0  0  0
  192.4530  171.6900  144.2230 N   0  0  0  0  0  2  0  0  0  0  0  0
  191.0120  171.8750  144.2320 C   0  0  0  0  0  1  0  0  0  0  0  0
  2  6  2  0  0  0  0
  3  7  1  0  0  0  0
  4  2  1  0  0  0  0
  5  1  1  6  0  0  0
  5  2  1  0  0  0  0
  5  8  1  0  0  0  0
  6  7  1  0  0  0  0
  8  3  2  0  0  0  0
  9 10  1  6  0  0  0
  9  4  1  0  0  0  0
  9 11  1  0  0  0  0
 12 13  1  0  0  0  0
 12 11  1  0  0  0  0
 14 21  1  0  0  0  0
 14 15  1  0  0  0  0
 15 17  1  0  0  0  0
 16 15  2  0  0  0  0
 16 13  1  0  0  0  0
 18 16  1  0  0  0  0
 19 14  2  0  0  0  0
 20 19  1  0  0  0  0
 20 18  2  0  0  0  0
 22 23  2  0  0  0  0
 23  8  1  0  0  0  0
 24 22  1  0  0  0  0
 24 28  1  0  0  0  0
 26 24  2  0  0  0  0
 27 29  2  0  0  0  0
 27 26  1  0  0  0  0
 28 25  1  0  0  0  0
 29 30  1  0  0  0  0
 30 28  2  0  0  0  0
 31 29  1  0  0  0  0
 32 33  1  0  0  0  0
 32  4  1  0  0  0  0
 34 35  1  0  0  0  0
 34 33  1  0  0  0  0
M  END
>  <MODEL>
7

>  <REMARK>
 VINA RESULT:      -6.2      3.155      5.101
  Name = 
  10 active torsions:
  status: ('A' for Active; 'I' for Inactive)
    1  A    between atoms: C_3  and  C_7
    2  A    between atoms: C_5  and  N_6
    3  A    between atoms: C_5  and  O_8
    4  A    between atoms: N_6  and  C_12
    5  A    between atoms: O_8  and  C_17
    6  A    between atoms: N_10  and  C_28
    7  A    between atoms: C_12  and  C_19
    8  A    between atoms: C_14  and  C_16
    9  A    between atoms: C_14  and  C_17
   10  A    between atoms: C_19  and  N_21
                            x       y       z     vdW  Elec       q    Type
                         _______ _______ _______ _____ _____    ______ ____

>  <TORSDO>
F 10

$$$$
=
 OpenBabel11042416523D

 35 37  0  0  1  0  0  0  0  0999 V2000
  190.2680  175.4990  143.7520 O   0  0  0  0  0  1  0  0  0  0  0  0
  191.9230  175.2560  145.4620 C   0  0  0  0  0  0  0  0  0  0  0  0
  189.9150  176.0210  147.2200 N   0  0  0  0  0  0  0  0  0  0  0  0
  192.9940  175.1540  144.4980 N   0  0  0  0  0  0  0  0  0  0  0  0
  190.4750  175.0430  145.0570 C   0  0  1  0  0  3  0  0  0  0  0  0
  192.2070  175.5200  146.7060 N   0  0  0  0  0  0  0  0  0  0  0  0
  191.1850  175.5340  147.7510 C   0  0  0  0  0  2  0  0  0  0  0  0
  189.5500  175.7820  145.9940 C   0  0  0  0  0  0  0  0  0  0  0  0
  194.2520  175.8730  144.6820 C   0  0  2  0  0  3  0  0  0  0  0  0
  194.0000  177.2050  145.0170 O   0  0  0  0  0  1  0  0  0  0  0  0
  195.0130  175.8100  143.5130 O   0  0  0  0  0  0  0  0  0  0  0  0
  196.2970  176.2030  143.8980 C   0  0  0  0  0  2  0  0  0  0  0  0
  197.3180  175.1590  143.4710 C   0  0  0  0  0  2  0  0  0  0  0  0
  196.3550  171.4960  143.9910 C   0  0  0  0  0  0  0  0  0  0  0  0
  196.6510  172.7100  143.3390 C   0  0  0  0  0  0  0  0  0  0  0  0
  197.0300  173.8320  144.1050 C   0  0  0  0  0  0  0  0  0  0  0  0
  196.5650  172.8010  141.8490 C   0  0  0  0  0  1  0  0  0  0  0  0
  197.1130  173.7300  145.4980 C   0  0  0  0  0  3  0  0  0  0  0  0
  196.4440  171.4120  145.3840 C   0  0  0  0  0  3  0  0  0  0  0  0
  196.8210  172.5230  146.1370 C   0  0  0  0  0  3  0  0  0  0  0  0
  195.8680  170.0640  143.0960 Cl  0  0  0  0  0  0  0  0  0  0  0  0
  187.8650  177.4400  145.6060 C   0  0  0  0  0  3  0  0  0  0  0  0
  188.2680  176.2130  145.5200 N   0  0  0  0  0  0  0  0  0  0  0  0
  186.5480  177.8880  145.1130 C   0  0  0  0  0  0  0  0  0  0  0  0
  185.7040  178.6800  147.3930 C   0  0  0  0  0  1  0  0  0  0  0  0
  186.3040  177.7180  143.7450 C   0  0  0  0  0  3  0  0  0  0  0  0
  185.0840  178.1000  143.1840 C   0  0  0  0  0  3  0  0  0  0  0  0
  185.5390  178.4620  145.9270 C   0  0  0  0  0  0  0  0  0  0  0  0
  184.0930  178.6600  143.9880 C   0  0  0  0  0  0  0  0  0  0  0  0
  184.3200  178.8390  145.3540 C   0  0  0  0  0  3  0  0  0  0  0  0
  182.8780  179.0370  143.4330 O   0  0  0  0  0  1  0  0  0  0  0  0
  192.8460  174.3810  143.2700 C   0  0  0  0  0  2  0  0  0  0  0  0
  192.9690  172.8880  143.5550 C   0  0  0  0  0  2  0  0  0  0  0  0
  192.9570  172.1260  142.3180 N   0  0  0  0  0  2  0  0  0  0  0  0
  192.0350  172.7910  141.4140 C   0  0  0  0  0  1  0  0  0  0  0  0
  2  6  2  0  0  0  0
  3  7  1  0  0  0  0
  4  9  1  0  0  0  0
  4  2  1  0  0  0  0
  5  1  1  6  0  0  0
  5  2  1  0  0  0  0
  5  8  1  0  0  0  0
  6  7  1  0  0  0  0
  8  3  2  0  0  0  0
  9 10  1  6  0  0  0
 11 12  1  0  0  0  0
 11  9  1  0  0  0  0
 13 12  1  0  0  0  0
 13 16  1  0  0  0  0
 14 19  1  0  0  0  0
 15 14  2  0  0  0  0
 15 16  1  0  0  0  0
 16 18  2  0  0  0  0
 17 15  1  0  0  0  0
 18 20  1  0  0  0  0
 19 20  2  0  0  0  0
 21 14  1  0  0  0  0
 23 22  2  0  0  0  0
 23  8  1  0  0  0  0
 24 22  1  0  0  0  0
 24 28  1  0  0  0  0
 26 24  2  0  0  0  0
 27 26  1  0  0  0  0
 27 29  2  0  0  0  0
 28 25  1  0  0  0  0
 29 30  1  0  0  0  0
 30 28  2  0  0  0  0
 31 29  1  0  0  0  0
 32 33  1  0  0  0  0
 32  4  1  0  0  0  0
 34 33  1  0  0  0  0
 35 34  1  0  0  0  0
M  END
>  <MODEL>
8

>  <REMARK>
 VINA RESULT:      -6.0      2.876      4.775
  Name = 
  10 active torsions:
  status: ('A' for Active; 'I' for Inactive)
    1  A    between atoms: C_3  and  C_7
    2  A    between atoms: C_5  and  N_6
    3  A    between atoms: C_5  and  O_8
    4  A    between atoms: N_6  and  C_12
    5  A    between atoms: O_8  and  C_17
    6  A    between atoms: N_10  and  C_28
    7  A    between atoms: C_12  and  C_19
    8  A    between atoms: C_14  and  C_16
    9  A    between atoms: C_14  and  C_17
   10  A    between atoms: C_19  and  N_21
                            x       y       z     vdW  Elec       q    Type
                         _______ _______ _______ _____ _____    ______ ____

>  <TORSDO>
F 10

$$$$
=
 OpenBabel11042416523D

 35 37  0  0  1  0  0  0  0  0999 V2000
  187.2460  175.1040  142.0950 O   0  0  0  0  0  1  0  0  0  0  0  0
  188.4040  176.7280  143.4150 C   0  0  0  0  0  0  0  0  0  0  0  0
  190.7230  175.5820  142.4090 N   0  0  0  0  0  0  0  0  0  0  0  0
  187.2040  177.0930  144.1320 N   0  0  0  0  0  0  0  0  0  0  0  0
  188.3370  175.9770  142.0980 C   0  0  1  0  0  3  0  0  0  0  0  0
  189.5650  177.0630  143.9020 N   0  0  0  0  0  0  0  0  0  0  0  0
  190.8110  176.8190  143.1790 C   0  0  0  0  0  2  0  0  0  0  0  0
  189.6040  175.1890  141.8740 C   0  0  0  0  0  0  0  0  0  0  0  0
  187.2120  177.2770  145.5810 C   0  0  2  0  0  3  0  0  0  0  0  0
  188.3500  177.9870  145.9700 O   0  0  0  0  0  1  0  0  0  0  0  0
  187.1810  176.0360  146.2210 O   0  0  0  0  0  0  0  0  0  0  0  0
  188.2470  176.0700  147.1230 C   0  0  0  0  0  2  0  0  0  0  0  0
  188.9660  174.7290  147.1390 C   0  0  0  0  0  2  0  0  0  0  0  0
  192.2430  174.1980  145.2420 C   0  0  0  0  0  0  0  0  0  0  0  0
  190.8970  174.0490  145.6310 C   0  0  0  0  0  0  0  0  0  0  0  0
  190.3770  174.8680  146.6560 C   0  0  0  0  0  0  0  0  0  0  0  0
  190.0290  173.0350  144.9580 C   0  0  0  0  0  1  0  0  0  0  0  0
  191.2000  175.8180  147.2720 C   0  0  0  0  0  3  0  0  0  0  0  0
  193.0490  175.1530  145.8680 C   0  0  0  0  0  3  0  0  0  0  0  0
  192.5310  175.9610  146.8800 C   0  0  0  0  0  3  0  0  0  0  0  0
  192.9520  173.2040  143.9780 Cl  0  0  0  0  0  0  0  0  0  0  0  0
  190.5090  173.1230  141.0650 C   0  0  0  0  0  3  0  0  0  0  0  0
  189.5620  174.0060  141.0640 N   0  0  0  0  0  0  0  0  0  0  0  0
  190.4660  171.9010  140.2380 C   0  0  0  0  0  0  0  0  0  0  0  0
  191.1840  170.3230  142.1170 C   0  0  0  0  0  1  0  0  0  0  0  0
  190.0960  172.0680  138.8980 C   0  0  0  0  0  3  0  0  0  0  0  0
  190.0360  170.9760  138.0310 C   0  0  0  0  0  3  0  0  0  0  0  0
  190.7760  170.6010  140.7090 C   0  0  0  0  0  0  0  0  0  0  0  0
  190.3450  169.6990  138.4980 C   0  0  0  0  0  0  0  0  0  0  0  0
  190.7150  169.5140  139.8320 C   0  0  0  0  0  3  0  0  0  0  0  0
  190.2900  168.6120  137.6370 O   0  0  0  0  0  1  0  0  0  0  0  0
  185.9210  177.2320  143.4540 C   0  0  0  0  0  2  0  0  0  0  0  0
  185.8040  178.6040  142.7990 C   0  0  0  0  0  2  0  0  0  0  0  0
  185.2130  179.5630  143.7160 N   0  0  0  0  0  2  0  0  0  0  0  0
  184.1320  178.8850  144.4080 C   0  0  0  0  0  1  0  0  0  0  0  0
  2  6  2  0  0  0  0
  2  4  1  0  0  0  0
  3  7  1  0  0  0  0
  4  9  1  0  0  0  0
  5  1  1  1  0  0  0
  5  2  1  0  0  0  0
  7  6  1  0  0  0  0
  8  5  1  0  0  0  0
  8  3  2  0  0  0  0
  9 10  1  6  0  0  0
  9 11  1  0  0  0  0
 11 12  1  0  0  0  0
 12 13  1  0  0  0  0
 14 15  2  0  0  0  0
 14 19  1  0  0  0  0
 15 16  1  0  0  0  0
 16 13  1  0  0  0  0
 16 18  2  0  0  0  0
 17 15  1  0  0  0  0
 19 20  2  0  0  0  0
 20 18  1  0  0  0  0
 21 14  1  0  0  0  0
 23 22  2  0  0  0  0
 23  8  1  0  0  0  0
 24 28  1  0  0  0  0
 24 22  1  0  0  0  0
 26 24  2  0  0  0  0
 27 29  2  0  0  0  0
 27 26  1  0  0  0  0
 28 25  1  0  0  0  0
 29 30  1  0  0  0  0
 30 28  2  0  0  0  0
 31 29  1  0  0  0  0
 32  4  1  0  0  0  0
 33 32  1  0  0  0  0
 33 34  1  0  0  0  0
 34 35  1  0  0  0  0
M  END
>  <MODEL>
9

>  <REMARK>
 VINA RESULT:      -5.9      3.167      7.661
  Name = 
  10 active torsions:
  status: ('A' for Active; 'I' for Inactive)
    1  A    between atoms: C_3  and  C_7
    2  A    between atoms: C_5  and  N_6
    3  A    between atoms: C_5  and  O_8
    4  A    between atoms: N_6  and  C_12
    5  A    between atoms: O_8  and  C_17
    6  A    between atoms: N_10  and  C_28
    7  A    between atoms: C_12  and  C_19
    8  A    between atoms: C_14  and  C_16
    9  A    between atoms: C_14  and  C_17
   10  A    between atoms: C_19  and  N_21
                            x       y       z     vdW  Elec       q    Type
                         _______ _______ _______ _____ _____    ______ ____

>  <TORSDO>
F 10

$$$$
