=
 OpenBabel11042417023D

 44 48  0  0  1  0  0  0  0  0999 V2000
  188.5260  177.2180  146.2630 C   0  0  2  0  0  3  0  0  0  0  0  0
  189.0850  175.9750  146.7480 N   0  0  0  0  0  2  0  0  0  0  0  0
  190.0270  177.9130  144.7070 N   0  0  0  0  0  2  0  0  0  0  0  0
  191.2470  175.7730  145.7700 C   0  0  0  0  0  0  0  0  0  0  0  0
  191.1680  177.4160  144.0230 C   0  0  0  0  0  3  0  0  0  0  0  0
  191.8430  176.4010  144.5280 C   0  0  0  0  0  0  0  0  0  0  0  0
  192.2310  174.9980  146.6230 C   0  0  0  0  0  2  0  0  0  0  0  0
  191.1320  174.2610  145.8720 C   0  0  0  0  0  2  0  0  0  0  0  0
  190.3560  176.5780  146.6390 N   0  0  1  0  0  0  0  0  0  0  0  0
  189.8410  177.7970  146.1000 N   0  0  2  0  0  0  0  0  0  0  0  0
  194.3210  176.4440  144.0160 C   0  0  0  0  0  3  0  0  0  0  0  0
  196.6900  176.5080  143.5670 O   0  0  0  0  0  1  0  0  0  0  0  0
  195.2960  174.9070  142.4240 C   0  0  0  0  0  3  0  0  0  0  0  0
  193.0460  175.8980  143.7980 C   0  0  0  0  0  0  0  0  0  0  0  0
  195.4380  175.9550  143.3340 C   0  0  0  0  0  0  0  0  0  0  0  0
  194.0360  174.3490  142.1930 C   0  0  0  0  0  0  0  0  0  0  0  0
  192.9210  174.8360  142.8820 C   0  0  0  0  0  3  0  0  0  0  0  0
  193.8890  173.2060  141.2520 C   0  0  0  0  0  2  0  0  0  0  0  0
  192.5590  173.3060  140.5240 C   0  0  0  0  0  2  0  0  0  0  0  0
  191.7910  171.5930  139.1760 C   0  0  0  0  0  1  0  0  0  0  0  0
  191.8700  172.0240  140.5650 N   0  0  0  0  0  0  0  0  0  0  0  0
  190.4960  172.2240  141.0570 C   0  0  1  0  0  3  0  0  0  0  0  0
  190.2810  171.4860  142.3530 C   0  0  0  0  0  3  0  0  0  0  0  0
  191.1810  171.5210  143.3350 C   0  0  0  0  0  2  0  0  0  0  0  0
  190.2340  173.5990  141.2600 O   0  0  0  0  0  0  0  0  0  0  0  0
  188.9220  173.9100  140.8240 C   0  0  2  0  0  3  0  0  0  0  0  0
  187.9400  174.1500  141.9720 C   0  0  0  0  0  2  0  0  0  0  0  0
  188.6020  174.9720  143.0610 C   0  0  0  0  0  1  0  0  0  0  0  0
  188.3820  172.9220  139.7900 C   0  0  0  0  0  2  0  0  0  0  0  0
  188.2520  173.5930  138.4350 C   0  0  0  0  0  2  0  0  0  0  0  0
  189.5030  174.0450  138.0210 O   0  0  0  0  0  1  0  0  0  0  0  0
  187.7900  177.9300  147.3900 C   0  0  0  0  0  2  0  0  0  0  0  0
  186.4600  178.2450  146.9900 O   0  0  0  0  0  0  0  0  0  0  0  0
  185.3950  179.2820  143.6070 C   0  0  0  0  0  3  0  0  0  0  0  0
  186.0210  178.1580  145.6640 C   0  0  0  0  0  0  0  0  0  0  0  0
  185.3630  176.8670  143.7150 C   0  0  0  0  0  3  0  0  0  0  0  0
  185.1640  178.0490  142.9870 C   0  0  0  0  0  0  0  0  0  0  0  0
  185.7890  176.9200  145.0450 C   0  0  0  0  0  3  0  0  0  0  0  0
  185.8200  179.3370  144.9370 C   0  0  0  0  0  3  0  0  0  0  0  0
  183.1820  178.0470  139.8960 O   0  0  0  0  0  0  0  0  0  0  0  0
  184.7410  178.0340  141.6170 N   0  0  0  0  0  2  0  0  0  0  0  0
  183.3930  178.1160  141.1370 C   0  0  0  0  0  0  0  0  0  0  0  0
  182.3250  178.2680  142.0240 O   0  0  0  0  0  0  0  0  0  0  0  0
  181.1020  178.8720  141.6320 C   0  0  0  0  0  1  0  0  0  0  0  0
  1  2  1  0  0  0  0
  1 32  1  1  0  0  0
  4  8  1  0  0  0  0
  4  7  1  0  0  0  0
  4  9  1  0  0  0  0
  5  6  2  0  0  0  0
  5  3  1  0  0  0  0
  6  4  1  0  0  0  0
  8  7  1  0  0  0  0
  9  2  1  6  0  0  0
 10  3  1  6  0  0  0
 10  1  1  0  0  0  0
 10  9  1  0  0  0  0
 13 15  1  0  0  0  0
 14 11  1  0  0  0  0
 14  6  1  0  0  0  0
 15 12  1  0  0  0  0
 15 11  2  0  0  0  0
 16 13  2  0  0  0  0
 16 17  1  0  0  0  0
 17 14  2  0  0  0  0
 18 16  1  0  0  0  0
 19 21  1  0  0  0  0
 19 18  1  0  0  0  0
 20 21  1  0  0  0  0
 21 22  1  0  0  0  0
 22 25  1  0  0  0  0
 22 23  1  1  0  0  0
 23 24  2  0  0  0  0
 26 29  1  1  0  0  0
 26 25  1  0  0  0  0
 26 27  1  0  0  0  0
 27 28  1  0  0  0  0
 30 29  1  0  0  0  0
 31 30  1  0  0  0  0
 33 32  1  0  0  0  0
 34 39  1  0  0  0  0
 35 33  1  0  0  0  0
 36 38  2  0  0  0  0
 37 34  2  0  0  0  0
 37 36  1  0  0  0  0
 38 35  1  0  0  0  0
 39 35  2  0  0  0  0
 40 42  2  0  0  0  0
 41 37  1  0  0  0  0
 42 41  1  0  0  0  0
 42 43  1  0  0  0  0
 44 43  1  0  0  0  0
M  END
>  <MODEL>
1

>  <REMARK>
 VINA RESULT:      -6.4      0.000      0.000
  Name = 
  16 active torsions:
  status: ('A' for Active; 'I' for Inactive)
    1  A    between atoms: C_1  and  C_40
    2  A    between atoms: O_3  and  C_24
    3  A    between atoms: C_7  and  C_41
    4  A    between atoms: O_8  and  C_13
    5  A    between atoms: O_8  and  C_28
    6  A    between atoms: C_9  and  O_17
    7  A    between atoms: C_13  and  C_14
    8  A    between atoms: C_13  and  C_41
    9  A    between atoms: C_16  and  C_28
   10  A    between atoms: O_17  and  C_40
   11  A    between atoms: C_18  and  N_26
   12  A    between atoms: C_18  and  C_42
   13  A    between atoms: N_19  and  C_20
   14  A    between atoms: N_26  and  C_28
   15  A    between atoms: C_29  and  C_33
   16  A    between atoms: C_37  and  C_42
                            x       y       z     vdW  Elec       q    Type
                         _______ _______ _______ _____ _____    ______ ____

>  <TORSDO>
F 16

$$$$
=
 OpenBabel11042417023D

 44 48  0  0  1  0  0  0  0  0999 V2000
  189.2650  176.8570  146.3740 C   0  0  2  0  0  3  0  0  0  0  0  0
  190.2720  176.1540  147.1390 N   0  0  0  0  0  2  0  0  0  0  0  0
  190.1930  177.0500  144.3110 N   0  0  0  0  0  2  0  0  0  0  0  0
  192.2020  176.0080  145.7520 C   0  0  0  0  0  0  0  0  0  0  0  0
  191.3160  176.5610  143.5910 C   0  0  0  0  0  3  0  0  0  0  0  0
  192.3580  176.0890  144.2490 C   0  0  0  0  0  0  0  0  0  0  0  0
  193.5050  175.9740  146.5240 C   0  0  0  0  0  2  0  0  0  0  0  0
  192.6130  174.7430  146.4870 C   0  0  0  0  0  2  0  0  0  0  0  0
  191.2380  176.9030  146.4350 N   0  0  1  0  0  0  0  0  0  0  0  0
  190.2720  177.5700  145.6200 N   0  0  2  0  0  0  0  0  0  0  0  0
  194.7400  176.3020  143.4200 C   0  0  0  0  0  3  0  0  0  0  0  0
  197.0190  176.5360  142.6640 O   0  0  0  0  0  1  0  0  0  0  0  0
  195.7380  174.5970  142.0260 C   0  0  0  0  0  3  0  0  0  0  0  0
  193.5330  175.5860  143.4740 C   0  0  0  0  0  0  0  0  0  0  0  0
  195.8340  175.8130  142.7010 C   0  0  0  0  0  0  0  0  0  0  0  0
  194.5460  173.8690  142.0650 C   0  0  0  0  0  0  0  0  0  0  0  0
  193.4550  174.3570  142.7920 C   0  0  0  0  0  3  0  0  0  0  0  0
  194.4520  172.5520  141.3780 C   0  0  0  0  0  2  0  0  0  0  0  0
  193.2630  171.7750  141.9150 C   0  0  0  0  0  2  0  0  0  0  0  0
  193.0840  171.7350  139.6110 C   0  0  0  0  0  1  0  0  0  0  0  0
  192.3360  171.4720  140.8320 N   0  0  0  0  0  0  0  0  0  0  0  0
  191.2040  172.4130  140.8820 C   0  0  1  0  0  3  0  0  0  0  0  0
  191.0880  173.1760  139.5870 C   0  0  0  0  0  3  0  0  0  0  0  0
  189.9900  173.1120  138.8350 C   0  0  0  0  0  2  0  0  0  0  0  0
  189.9930  171.7250  141.1230 O   0  0  0  0  0  0  0  0  0  0  0  0
  189.3180  172.3050  142.2260 C   0  0  2  0  0  3  0  0  0  0  0  0
  188.0170  173.0110  141.8410 C   0  0  0  0  0  2  0  0  0  0  0  0
  188.0580  174.4610  142.2870 C   0  0  0  0  0  1  0  0  0  0  0  0
  190.2240  173.1810  143.0920 C   0  0  0  0  0  2  0  0  0  0  0  0
  190.5430  172.4820  144.4000 C   0  0  0  0  0  2  0  0  0  0  0  0
  189.3670  171.9830  144.9560 O   0  0  0  0  0  1  0  0  0  0  0  0
  188.5160  177.8300  147.2740 C   0  0  0  0  0  2  0  0  0  0  0  0
  187.1140  177.5840  147.2090 O   0  0  0  0  0  0  0  0  0  0  0  0
  185.5100  176.8830  143.9550 C   0  0  0  0  0  3  0  0  0  0  0  0
  186.3600  177.7740  146.0460 C   0  0  0  0  0  0  0  0  0  0  0  0
  184.9320  179.1330  144.6280 C   0  0  0  0  0  3  0  0  0  0  0  0
  184.8370  178.0840  143.7010 C   0  0  0  0  0  0  0  0  0  0  0  0
  185.6870  178.9800  145.7940 C   0  0  0  0  0  3  0  0  0  0  0  0
  186.2670  176.7290  145.1210 C   0  0  0  0  0  3  0  0  0  0  0  0
  183.7460  178.4420  140.2140 O   0  0  0  0  0  0  0  0  0  0  0  0
  184.0600  178.1990  142.5020 N   0  0  0  0  0  2  0  0  0  0  0  0
  184.5630  178.3050  141.1640 C   0  0  0  0  0  0  0  0  0  0  0  0
  185.9360  178.2590  140.9090 O   0  0  0  0  0  0  0  0  0  0  0  0
  186.4810  177.4640  139.8670 C   0  0  0  0  0  1  0  0  0  0  0  0
  1  2  1  0  0  0  0
  1 32  1  1  0  0  0
  4  9  1  0  0  0  0
  4  8  1  0  0  0  0
  4  7  1  0  0  0  0
  5  6  2  0  0  0  0
  5  3  1  0  0  0  0
  6  4  1  0  0  0  0
  8  7  1  0  0  0  0
  9  2  1  1  0  0  0
 10  3  1  6  0  0  0
 10  1  1  0  0  0  0
 10  9  1  0  0  0  0
 11 14  1  0  0  0  0
 12 15  1  0  0  0  0
 13 16  2  0  0  0  0
 13 15  1  0  0  0  0
 14  6  1  0  0  0  0
 15 11  2  0  0  0  0
 16 17  1  0  0  0  0
 17 14  2  0  0  0  0
 18 19  1  0  0  0  0
 18 16  1  0  0  0  0
 20 21  1  0  0  0  0
 21 22  1  0  0  0  0
 21 19  1  0  0  0  0
 22 23  1  6  0  0  0
 22 25  1  0  0  0  0
 24 23  2  0  0  0  0
 25 26  1  0  0  0  0
 26 27  1  6  0  0  0
 26 29  1  0  0  0  0
 27 28  1  0  0  0  0
 29 30  1  0  0  0  0
 30 31  1  0  0  0  0
 33 32  1  0  0  0  0
 34 39  1  0  0  0  0
 35 33  1  0  0  0  0
 36 38  2  0  0  0  0
 37 34  2  0  0  0  0
 37 36  1  0  0  0  0
 38 35  1  0  0  0  0
 39 35  2  0  0  0  0
 40 42  2  0  0  0  0
 41 37  1  0  0  0  0
 42 41  1  0  0  0  0
 43 42  1  0  0  0  0
 44 43  1  0  0  0  0
M  END
>  <MODEL>
2

>  <REMARK>
 VINA RESULT:      -6.3      1.377      2.420
  Name = 
  16 active torsions:
  status: ('A' for Active; 'I' for Inactive)
    1  A    between atoms: C_1  and  C_40
    2  A    between atoms: O_3  and  C_24
    3  A    between atoms: C_7  and  C_41
    4  A    between atoms: O_8  and  C_13
    5  A    between atoms: O_8  and  C_28
    6  A    between atoms: C_9  and  O_17
    7  A    between atoms: C_13  and  C_14
    8  A    between atoms: C_13  and  C_41
    9  A    between atoms: C_16  and  C_28
   10  A    between atoms: O_17  and  C_40
   11  A    between atoms: C_18  and  N_26
   12  A    between atoms: C_18  and  C_42
   13  A    between atoms: N_19  and  C_20
   14  A    between atoms: N_26  and  C_28
   15  A    between atoms: C_29  and  C_33
   16  A    between atoms: C_37  and  C_42
                            x       y       z     vdW  Elec       q    Type
                         _______ _______ _______ _____ _____    ______ ____

>  <TORSDO>
F 16

$$$$
=
 OpenBabel11042417023D

 44 48  0  0  1  0  0  0  0  0999 V2000
  188.9290  176.8700  146.6440 C   0  0  2  0  0  3  0  0  0  0  0  0
  190.0700  176.3390  147.3580 N   0  0  0  0  0  2  0  0  0  0  0  0
  189.5540  176.7550  144.4650 N   0  0  0  0  0  2  0  0  0  0  0  0
  191.7980  176.0360  145.7470 C   0  0  0  0  0  0  0  0  0  0  0  0
  190.5950  176.1950  143.6770 C   0  0  0  0  0  3  0  0  0  0  0  0
  191.7430  175.8740  144.2440 C   0  0  0  0  0  0  0  0  0  0  0  0
  193.1940  176.1760  146.3200 C   0  0  0  0  0  2  0  0  0  0  0  0
  192.3780  174.9240  146.6060 C   0  0  0  0  0  2  0  0  0  0  0  0
  190.8850  176.9960  146.4130 N   0  0  1  0  0  0  0  0  0  0  0  0
  189.7800  177.4850  145.6510 N   0  0  2  0  0  0  0  0  0  0  0  0
  193.8990  176.0770  142.9340 C   0  0  0  0  0  3  0  0  0  0  0  0
  195.9630  176.3080  141.7080 O   0  0  0  0  0  1  0  0  0  0  0  0
  194.8740  174.1620  141.8250 C   0  0  0  0  0  3  0  0  0  0  0  0
  192.8290  175.2940  143.3970 C   0  0  0  0  0  0  0  0  0  0  0  0
  194.9140  175.5160  142.1530 C   0  0  0  0  0  0  0  0  0  0  0  0
  193.8180  173.3650  142.2750 C   0  0  0  0  0  0  0  0  0  0  0  0
  192.8080  173.9270  143.0630 C   0  0  0  0  0  3  0  0  0  0  0  0
  193.7930  171.9110  141.9590 C   0  0  0  0  0  2  0  0  0  0  0  0
  192.4870  171.5560  141.2690 C   0  0  0  0  0  2  0  0  0  0  0  0
  191.5970  169.5260  141.9240 C   0  0  0  0  0  1  0  0  0  0  0  0
  191.5680  170.9500  142.2230 N   0  0  0  0  0  0  0  0  0  0  0  0
  190.2030  171.4410  141.9640 C   0  0  1  0  0  3  0  0  0  0  0  0
  189.5370  171.8680  143.2470 C   0  0  0  0  0  3  0  0  0  0  0  0
  190.2420  172.1210  144.3490 C   0  0  0  0  0  2  0  0  0  0  0  0
  190.2280  172.5360  141.0700 O   0  0  0  0  0  0  0  0  0  0  0  0
  189.1790  172.4120  140.1250 C   0  0  2  0  0  3  0  0  0  0  0  0
  189.5900  171.6640  138.8550 C   0  0  0  0  0  2  0  0  0  0  0  0
  189.2870  172.5070  137.6310 C   0  0  0  0  0  1  0  0  0  0  0  0
  188.4820  173.7380  139.8210 C   0  0  0  0  0  2  0  0  0  0  0  0
  188.7310  174.7340  140.9380 C   0  0  0  0  0  2  0  0  0  0  0  0
  187.7370  174.6020  141.9060 O   0  0  0  0  0  1  0  0  0  0  0  0
  188.2530  177.9500  147.4780 C   0  0  0  0  0  2  0  0  0  0  0  0
  186.8370  177.8340  147.3850 O   0  0  0  0  0  0  0  0  0  0  0  0
  185.2080  176.9690  144.1830 C   0  0  0  0  0  3  0  0  0  0  0  0
  186.1370  177.9820  146.1820 C   0  0  0  0  0  0  0  0  0  0  0  0
  184.9400  179.3410  144.5640 C   0  0  0  0  0  3  0  0  0  0  0  0
  184.7160  178.2110  143.7650 C   0  0  0  0  0  0  0  0  0  0  0  0
  185.6460  179.2290  145.7650 C   0  0  0  0  0  3  0  0  0  0  0  0
  185.9150  176.8550  145.3840 C   0  0  0  0  0  3  0  0  0  0  0  0
  183.7560  178.4000  140.2270 O   0  0  0  0  0  0  0  0  0  0  0  0
  183.9840  178.2840  142.5340 N   0  0  0  0  0  2  0  0  0  0  0  0
  184.5350  178.2880  141.2110 C   0  0  0  0  0  0  0  0  0  0  0  0
  185.9120  178.1720  141.0080 O   0  0  0  0  0  0  0  0  0  0  0  0
  186.4510  177.5030  139.8780 C   0  0  0  0  0  1  0  0  0  0  0  0
  1  2  1  0  0  0  0
  1 32  1  1  0  0  0
  4  7  1  0  0  0  0
  4  9  1  0  0  0  0
  4  8  1  0  0  0  0
  5  6  2  0  0  0  0
  5  3  1  0  0  0  0
  6  4  1  0  0  0  0
  7  8  1  0  0  0  0
  9  2  1  1  0  0  0
 10  3  1  6  0  0  0
 10  9  1  0  0  0  0
 10  1  1  0  0  0  0
 11 14  1  0  0  0  0
 12 15  1  0  0  0  0
 13 15  1  0  0  0  0
 13 16  2  0  0  0  0
 14  6  1  0  0  0  0
 15 11  2  0  0  0  0
 16 17  1  0  0  0  0
 17 14  2  0  0  0  0
 18 16  1  0  0  0  0
 19 18  1  0  0  0  0
 19 21  1  0  0  0  0
 20 21  1  0  0  0  0
 22 21  1  0  0  0  0
 22 23  1  1  0  0  0
 23 24  2  0  0  0  0
 25 22  1  0  0  0  0
 26 27  1  6  0  0  0
 26 25  1  0  0  0  0
 28 27  1  0  0  0  0
 29 26  1  0  0  0  0
 29 30  1  0  0  0  0
 30 31  1  0  0  0  0
 33 32  1  0  0  0  0
 34 39  1  0  0  0  0
 35 33  1  0  0  0  0
 36 38  2  0  0  0  0
 37 34  2  0  0  0  0
 37 36  1  0  0  0  0
 38 35  1  0  0  0  0
 39 35  2  0  0  0  0
 40 42  2  0  0  0  0
 41 37  1  0  0  0  0
 42 41  1  0  0  0  0
 43 42  1  0  0  0  0
 44 43  1  0  0  0  0
M  END
>  <MODEL>
3

>  <REMARK>
 VINA RESULT:      -6.3      1.388      2.201
  Name = 
  16 active torsions:
  status: ('A' for Active; 'I' for Inactive)
    1  A    between atoms: C_1  and  C_40
    2  A    between atoms: O_3  and  C_24
    3  A    between atoms: C_7  and  C_41
    4  A    between atoms: O_8  and  C_13
    5  A    between atoms: O_8  and  C_28
    6  A    between atoms: C_9  and  O_17
    7  A    between atoms: C_13  and  C_14
    8  A    between atoms: C_13  and  C_41
    9  A    between atoms: C_16  and  C_28
   10  A    between atoms: O_17  and  C_40
   11  A    between atoms: C_18  and  N_26
   12  A    between atoms: C_18  and  C_42
   13  A    between atoms: N_19  and  C_20
   14  A    between atoms: N_26  and  C_28
   15  A    between atoms: C_29  and  C_33
   16  A    between atoms: C_37  and  C_42
                            x       y       z     vdW  Elec       q    Type
                         _______ _______ _______ _____ _____    ______ ____

>  <TORSDO>
F 16

$$$$
=
 OpenBabel11042417023D

 44 48  0  0  1  0  0  0  0  0999 V2000
  189.6820  177.5380  147.1980 C   0  0  2  0  0  3  0  0  0  0  0  0
  190.0610  177.7730  145.8220 N   0  0  0  0  0  2  0  0  0  0  0  0
  190.9140  175.7280  147.7970 N   0  0  0  0  0  2  0  0  0  0  0  0
  191.4350  175.9380  145.1730 C   0  0  0  0  0  0  0  0  0  0  0  0
  191.9830  174.9440  147.2870 C   0  0  0  0  0  3  0  0  0  0  0  0
  192.2500  174.9630  145.9950 C   0  0  0  0  0  0  0  0  0  0  0  0
  191.3550  175.6110  143.6960 C   0  0  0  0  0  2  0  0  0  0  0  0
  192.1260  176.8370  144.1620 C   0  0  0  0  0  2  0  0  0  0  0  0
  190.1040  176.3710  145.6630 N   0  0  1  0  0  0  0  0  0  0  0  0
  189.7910  176.1070  147.0320 N   0  0  2  0  0  0  0  0  0  0  0  0
  194.7140  174.5080  145.6430 C   0  0  0  0  0  3  0  0  0  0  0  0
  197.0730  174.1030  145.3410 O   0  0  0  0  0  1  0  0  0  0  0  0
  195.4680  172.5080  144.5120 C   0  0  0  0  0  3  0  0  0  0  0  0
  193.3730  174.1250  145.4770 C   0  0  0  0  0  0  0  0  0  0  0  0
  195.7550  173.7070  145.1640 C   0  0  0  0  0  0  0  0  0  0  0  0
  194.1410  172.1080  144.3360 C   0  0  0  0  0  0  0  0  0  0  0  0
  193.1020  172.9080  144.8240 C   0  0  0  0  0  3  0  0  0  0  0  0
  193.8330  170.8100  143.6760 C   0  0  0  0  0  2  0  0  0  0  0  0
  192.9080  171.0400  142.4930 C   0  0  0  0  0  2  0  0  0  0  0  0
  191.7000  169.0760  142.3350 C   0  0  0  0  0  1  0  0  0  0  0  0
  191.5990  170.4640  142.7650 N   0  0  0  0  0  0  0  0  0  0  0  0
  190.5890  171.1280  141.9230 C   0  0  1  0  0  3  0  0  0  0  0  0
  189.6220  171.9150  142.7700 C   0  0  0  0  0  3  0  0  0  0  0  0
  189.8020  172.0620  144.0820 C   0  0  0  0  0  2  0  0  0  0  0  0
  191.2070  172.0000  140.9970 O   0  0  0  0  0  0  0  0  0  0  0  0
  190.4860  171.9980  139.7760 C   0  0  2  0  0  3  0  0  0  0  0  0
  191.0900  171.0760  138.7150 C   0  0  0  0  0  2  0  0  0  0  0  0
  190.0440  170.0970  138.2180 C   0  0  0  0  0  1  0  0  0  0  0  0
  190.2070  173.4010  139.2400 C   0  0  0  0  0  2  0  0  0  0  0  0
  188.7540  173.7740  139.4660 C   0  0  0  0  0  2  0  0  0  0  0  0
  187.9760  172.6180  139.4800 O   0  0  0  0  0  1  0  0  0  0  0  0
  188.2220  177.9200  147.4050 C   0  0  0  0  0  2  0  0  0  0  0  0
  187.3680  176.9480  146.8110 O   0  0  0  0  0  0  0  0  0  0  0  0
  185.7710  176.6910  143.4880 C   0  0  0  0  0  3  0  0  0  0  0  0
  186.5250  177.2310  145.7300 C   0  0  0  0  0  0  0  0  0  0  0  0
  184.7580  178.5300  144.6870 C   0  0  0  0  0  3  0  0  0  0  0  0
  184.8410  177.7360  143.5340 C   0  0  0  0  0  0  0  0  0  0  0  0
  185.5940  178.2810  145.7790 C   0  0  0  0  0  3  0  0  0  0  0  0
  186.6090  176.4410  144.5790 C   0  0  0  0  0  3  0  0  0  0  0  0
  183.5270  178.5070  140.1940 O   0  0  0  0  0  0  0  0  0  0  0  0
  183.9910  177.9530  142.4000 N   0  0  0  0  0  2  0  0  0  0  0  0
  184.4050  178.3110  141.0760 C   0  0  0  0  0  0  0  0  0  0  0  0
  185.7600  178.4440  140.7610 O   0  0  0  0  0  0  0  0  0  0  0  0
  186.4370  177.5030  139.9420 C   0  0  0  0  0  1  0  0  0  0  0  0
  1 32  1  6  0  0  0
  2  1  1  0  0  0  0
  4  9  1  0  0  0  0
  4  6  1  0  0  0  0
  5  3  1  0  0  0  0
  6  5  2  0  0  0  0
  7  8  1  0  0  0  0
  7  4  1  0  0  0  0
  8  4  1  0  0  0  0
  9  2  1  1  0  0  0
  9 10  1  0  0  0  0
 10  1  1  0  0  0  0
 10  3  1  1  0  0  0
 13 15  1  0  0  0  0
 14 11  1  0  0  0  0
 14  6  1  0  0  0  0
 15 12  1  0  0  0  0
 15 11  2  0  0  0  0
 16 13  2  0  0  0  0
 16 17  1  0  0  0  0
 17 14  2  0  0  0  0
 18 16  1  0  0  0  0
 19 21  1  0  0  0  0
 19 18  1  0  0  0  0
 20 21  1  0  0  0  0
 22 21  1  0  0  0  0
 22 23  1  1  0  0  0
 23 24  2  0  0  0  0
 25 22  1  0  0  0  0
 26 27  1  6  0  0  0
 26 25  1  0  0  0  0
 28 27  1  0  0  0  0
 29 30  1  0  0  0  0
 29 26  1  0  0  0  0
 30 31  1  0  0  0  0
 33 32  1  0  0  0  0
 34 37  2  0  0  0  0
 34 39  1  0  0  0  0
 35 38  1  0  0  0  0
 35 33  1  0  0  0  0
 36 38  2  0  0  0  0
 37 36  1  0  0  0  0
 39 35  2  0  0  0  0
 40 42  2  0  0  0  0
 41 37  1  0  0  0  0
 42 41  1  0  0  0  0
 43 42  1  0  0  0  0
 44 43  1  0  0  0  0
M  END
>  <MODEL>
4

>  <REMARK>
 VINA RESULT:      -6.2      1.827      2.841
  Name = 
  16 active torsions:
  status: ('A' for Active; 'I' for Inactive)
    1  A    between atoms: C_1  and  C_40
    2  A    between atoms: O_3  and  C_24
    3  A    between atoms: C_7  and  C_41
    4  A    between atoms: O_8  and  C_13
    5  A    between atoms: O_8  and  C_28
    6  A    between atoms: C_9  and  O_17
    7  A    between atoms: C_13  and  C_14
    8  A    between atoms: C_13  and  C_41
    9  A    between atoms: C_16  and  C_28
   10  A    between atoms: O_17  and  C_40
   11  A    between atoms: C_18  and  N_26
   12  A    between atoms: C_18  and  C_42
   13  A    between atoms: N_19  and  C_20
   14  A    between atoms: N_26  and  C_28
   15  A    between atoms: C_29  and  C_33
   16  A    between atoms: C_37  and  C_42
                            x       y       z     vdW  Elec       q    Type
                         _______ _______ _______ _____ _____    ______ ____

>  <TORSDO>
F 16

$$$$
=
 OpenBabel11042417023D

 44 48  0  0  1  0  0  0  0  0999 V2000
  189.4700  176.6560  146.8860 C   0  0  2  0  0  3  0  0  0  0  0  0
  189.5660  177.6120  145.8040 N   0  0  0  0  0  2  0  0  0  0  0  0
  191.1610  175.1990  146.4710 N   0  0  0  0  0  2  0  0  0  0  0  0
  191.2040  176.7680  144.2950 C   0  0  0  0  0  0  0  0  0  0  0  0
  192.2890  175.0830  145.6150 C   0  0  0  0  0  3  0  0  0  0  0  0
  192.3390  175.7880  144.5000 C   0  0  0  0  0  0  0  0  0  0  0  0
  190.9720  177.1770  142.8550 C   0  0  0  0  0  2  0  0  0  0  0  0
  191.5050  178.1910  143.8550 C   0  0  0  0  0  2  0  0  0  0  0  0
  189.9030  176.5290  144.9640 N   0  0  1  0  0  0  0  0  0  0  0  0
  189.8760  175.5700  146.0230 N   0  0  2  0  0  0  0  0  0  0  0  0
  194.7470  176.2810  143.8990 C   0  0  0  0  0  3  0  0  0  0  0  0
  197.0510  176.7650  143.3690 O   0  0  0  0  0  1  0  0  0  0  0  0
  195.7620  175.3330  141.9200 C   0  0  0  0  0  3  0  0  0  0  0  0
  193.5300  175.6450  143.6090 C   0  0  0  0  0  0  0  0  0  0  0  0
  195.8560  176.1280  143.0620 C   0  0  0  0  0  0  0  0  0  0  0  0
  194.5600  174.6910  141.6120 C   0  0  0  0  0  0  0  0  0  0  0  0
  193.4550  174.8400  142.4560 C   0  0  0  0  0  3  0  0  0  0  0  0
  194.4690  173.8100  140.4160 C   0  0  0  0  0  2  0  0  0  0  0  0
  193.0360  173.7710  139.9130 C   0  0  0  0  0  2  0  0  0  0  0  0
  192.4530  172.0240  138.5170 C   0  0  0  0  0  1  0  0  0  0  0  0
  192.5430  172.4000  139.9210 N   0  0  0  0  0  0  0  0  0  0  0  0
  191.1830  172.3740  140.4860 C   0  0  1  0  0  3  0  0  0  0  0  0
  191.1110  171.4300  141.6590 C   0  0  0  0  0  3  0  0  0  0  0  0
  191.3190  171.8490  142.9070 C   0  0  0  0  0  2  0  0  0  0  0  0
  190.7930  173.6660  140.9090 O   0  0  0  0  0  0  0  0  0  0  0  0
  189.5520  174.0130  140.3190 C   0  0  2  0  0  3  0  0  0  0  0  0
  188.4800  174.3980  141.3410 C   0  0  0  0  0  2  0  0  0  0  0  0
  187.8860  173.1510  141.9690 C   0  0  0  0  0  1  0  0  0  0  0  0
  189.0530  172.9760  139.3120 C   0  0  0  0  0  2  0  0  0  0  0  0
  189.0660  173.5530  137.9090 C   0  0  0  0  0  2  0  0  0  0  0  0
  188.9880  172.5160  136.9820 O   0  0  0  0  0  1  0  0  0  0  0  0
  188.0130  176.4720  147.2870 C   0  0  0  0  0  2  0  0  0  0  0  0
  187.2750  177.6630  147.0280 O   0  0  0  0  0  0  0  0  0  0  0  0
  185.4640  176.8730  143.9050 C   0  0  0  0  0  3  0  0  0  0  0  0
  186.4610  177.8260  145.9010 C   0  0  0  0  0  0  0  0  0  0  0  0
  184.9990  179.1690  144.5030 C   0  0  0  0  0  3  0  0  0  0  0  0
  184.8170  178.0840  143.6330 C   0  0  0  0  0  0  0  0  0  0  0  0
  185.8150  179.0430  145.6300 C   0  0  0  0  0  3  0  0  0  0  0  0
  186.2810  176.7450  145.0320 C   0  0  0  0  0  3  0  0  0  0  0  0
  183.5390  178.3820  140.2040 O   0  0  0  0  0  0  0  0  0  0  0  0
  183.9770  178.1720  142.4750 N   0  0  0  0  0  2  0  0  0  0  0  0
  184.4070  178.2690  141.1120 C   0  0  0  0  0  0  0  0  0  0  0  0
  185.7650  178.2420  140.7850 O   0  0  0  0  0  0  0  0  0  0  0  0
  186.2560  177.5130  139.6710 C   0  0  0  0  0  1  0  0  0  0  0  0
  1 32  1  6  0  0  0
  2  1  1  0  0  0  0
  4  6  1  0  0  0  0
  4  9  1  0  0  0  0
  5  3  1  0  0  0  0
  6  5  2  0  0  0  0
  7  8  1  0  0  0  0
  7  4  1  0  0  0  0
  8  4  1  0  0  0  0
  9  2  1  1  0  0  0
  9 10  1  0  0  0  0
 10  3  1  1  0  0  0
 10  1  1  0  0  0  0
 13 15  1  0  0  0  0
 14 11  1  0  0  0  0
 14  6  1  0  0  0  0
 15 12  1  0  0  0  0
 15 11  2  0  0  0  0
 16 13  2  0  0  0  0
 16 17  1  0  0  0  0
 17 14  2  0  0  0  0
 18 16  1  0  0  0  0
 19 21  1  0  0  0  0
 19 18  1  0  0  0  0
 20 21  1  0  0  0  0
 21 22  1  0  0  0  0
 22 25  1  0  0  0  0
 22 23  1  1  0  0  0
 23 24  2  0  0  0  0
 26 29  1  1  0  0  0
 26 25  1  0  0  0  0
 26 27  1  0  0  0  0
 27 28  1  0  0  0  0
 30 29  1  0  0  0  0
 31 30  1  0  0  0  0
 33 32  1  0  0  0  0
 34 39  1  0  0  0  0
 35 33  1  0  0  0  0
 36 38  2  0  0  0  0
 37 34  2  0  0  0  0
 37 36  1  0  0  0  0
 38 35  1  0  0  0  0
 39 35  2  0  0  0  0
 40 42  2  0  0  0  0
 41 37  1  0  0  0  0
 42 41  1  0  0  0  0
 43 42  1  0  0  0  0
 44 43  1  0  0  0  0
M  END
>  <MODEL>
5

>  <REMARK>
 VINA RESULT:      -6.1      1.138      2.001
  Name = 
  16 active torsions:
  status: ('A' for Active; 'I' for Inactive)
    1  A    between atoms: C_1  and  C_40
    2  A    between atoms: O_3  and  C_24
    3  A    between atoms: C_7  and  C_41
    4  A    between atoms: O_8  and  C_13
    5  A    between atoms: O_8  and  C_28
    6  A    between atoms: C_9  and  O_17
    7  A    between atoms: C_13  and  C_14
    8  A    between atoms: C_13  and  C_41
    9  A    between atoms: C_16  and  C_28
   10  A    between atoms: O_17  and  C_40
   11  A    between atoms: C_18  and  N_26
   12  A    between atoms: C_18  and  C_42
   13  A    between atoms: N_19  and  C_20
   14  A    between atoms: N_26  and  C_28
   15  A    between atoms: C_29  and  C_33
   16  A    between atoms: C_37  and  C_42
                            x       y       z     vdW  Elec       q    Type
                         _______ _______ _______ _____ _____    ______ ____

>  <TORSDO>
F 16

$$$$
=
 OpenBabel11042417023D

 44 48  0  0  1  0  0  0  0  0999 V2000
  189.3910  177.0610  146.5070 C   0  0  2  0  0  3  0  0  0  0  0  0
  189.5040  176.6150  145.1350 N   0  0  0  0  0  2  0  0  0  0  0  0
  191.4760  176.7490  147.3500 N   0  0  0  0  0  2  0  0  0  0  0  0
  191.6670  175.6450  144.9120 C   0  0  0  0  0  0  0  0  0  0  0  0
  192.7800  176.4270  146.8890 C   0  0  0  0  0  3  0  0  0  0  0  0
  192.9330  175.8310  145.7210 C   0  0  0  0  0  0  0  0  0  0  0  0
  191.7370  174.5460  143.8700 C   0  0  0  0  0  2  0  0  0  0  0  0
  191.6550  176.0020  143.4350 C   0  0  0  0  0  2  0  0  0  0  0  0
  190.3580  175.5950  145.6050 N   0  0  1  0  0  0  0  0  0  0  0  0
  190.3160  176.0470  146.9600 N   0  0  2  0  0  0  0  0  0  0  0  0
  194.9420  176.2170  144.2320 C   0  0  0  0  0  3  0  0  0  0  0  0
  196.8430  176.6260  142.8040 O   0  0  0  0  0  1  0  0  0  0  0  0
  196.9250  174.8460  144.4260 C   0  0  0  0  0  3  0  0  0  0  0  0
  194.3120  175.4930  145.2570 C   0  0  0  0  0  0  0  0  0  0  0  0
  196.2380  175.8960  143.8180 C   0  0  0  0  0  0  0  0  0  0  0  0
  196.3160  174.1120  145.4480 C   0  0  0  0  0  0  0  0  0  0  0  0
  195.0230  174.4410  145.8660 C   0  0  0  0  0  3  0  0  0  0  0  0
  197.0620  173.0170  146.1260 C   0  0  0  0  0  2  0  0  0  0  0  0
  197.0510  171.7710  145.2560 C   0  0  0  0  0  2  0  0  0  0  0  0
  197.5980  169.6420  145.9660 C   0  0  0  0  0  1  0  0  0  0  0  0
  196.5380  170.6390  146.0140 N   0  0  0  0  0  0  0  0  0  0  0  0
  195.3610  170.0830  145.3240 C   0  0  1  0  0  3  0  0  0  0  0  0
  194.7630  168.9500  146.1190 C   0  0  0  0  0  3  0  0  0  0  0  0
  194.7450  168.9650  147.4510 C   0  0  0  0  0  2  0  0  0  0  0  0
  194.3780  171.0810  145.1310 O   0  0  0  0  0  0  0  0  0  0  0  0
  193.8250  170.9690  143.8310 C   0  0  2  0  0  3  0  0  0  0  0  0
  193.9980  172.2320  142.9860 C   0  0  0  0  0  2  0  0  0  0  0  0
  194.9660  171.9700  141.8480 C   0  0  0  0  0  1  0  0  0  0  0  0
  192.3830  170.4610  143.8320 C   0  0  0  0  0  2  0  0  0  0  0  0
  191.6230  171.0210  142.6440 C   0  0  0  0  0  2  0  0  0  0  0  0
  190.4370  171.6010  143.0860 O   0  0  0  0  0  1  0  0  0  0  0  0
  187.9970  176.7570  147.0380 C   0  0  0  0  0  2  0  0  0  0  0  0
  187.0950  177.8020  146.6890 O   0  0  0  0  0  0  0  0  0  0  0  0
  185.6730  176.8160  143.4240 C   0  0  0  0  0  3  0  0  0  0  0  0
  186.5000  177.9080  145.4270 C   0  0  0  0  0  0  0  0  0  0  0  0
  185.5090  179.2180  143.6390 C   0  0  0  0  0  3  0  0  0  0  0  0
  185.2850  178.0510  142.8940 C   0  0  0  0  0  0  0  0  0  0  0  0
  186.1130  179.1490  144.8970 C   0  0  0  0  0  3  0  0  0  0  0  0
  186.2780  176.7440  144.6830 C   0  0  0  0  0  3  0  0  0  0  0  0
  182.8570  178.2320  140.1460 O   0  0  0  0  0  0  0  0  0  0  0  0
  184.6560  178.0820  141.6060 N   0  0  0  0  0  2  0  0  0  0  0  0
  183.2620  178.2720  141.3390 C   0  0  0  0  0  0  0  0  0  0  0  0
  182.3570  178.4960  142.3810 O   0  0  0  0  0  0  0  0  0  0  0  0
  181.0670  179.0420  142.1510 C   0  0  0  0  0  1  0  0  0  0  0  0
  1 10  1  0  0  0  0
  1 32  1  1  0  0  0
  2  1  1  0  0  0  0
  4  9  1  0  0  0  0
  4  6  1  0  0  0  0
  5  3  1  0  0  0  0
  6  5  2  0  0  0  0
  7  4  1  0  0  0  0
  8  7  1  0  0  0  0
  8  4  1  0  0  0  0
  9  2  1  6  0  0  0
  9 10  1  0  0  0  0
 10  3  1  6  0  0  0
 11 14  1  0  0  0  0
 12 15  1  0  0  0  0
 13 16  2  0  0  0  0
 14  6  1  0  0  0  0
 14 17  2  0  0  0  0
 15 11  2  0  0  0  0
 15 13  1  0  0  0  0
 16 17  1  0  0  0  0
 16 18  1  0  0  0  0
 19 21  1  0  0  0  0
 19 18  1  0  0  0  0
 20 21  1  0  0  0  0
 22 21  1  0  0  0  0
 22 23  1  1  0  0  0
 23 24  2  0  0  0  0
 25 22  1  0  0  0  0
 26 27  1  1  0  0  0
 26 29  1  0  0  0  0
 26 25  1  0  0  0  0
 28 27  1  0  0  0  0
 30 31  1  0  0  0  0
 30 29  1  0  0  0  0
 33 32  1  0  0  0  0
 34 39  1  0  0  0  0
 35 33  1  0  0  0  0
 36 38  2  0  0  0  0
 37 34  2  0  0  0  0
 37 36  1  0  0  0  0
 38 35  1  0  0  0  0
 39 35  2  0  0  0  0
 40 42  2  0  0  0  0
 41 37  1  0  0  0  0
 42 41  1  0  0  0  0
 42 43  1  0  0  0  0
 44 43  1  0  0  0  0
M  END
>  <MODEL>
6

>  <REMARK>
 VINA RESULT:      -6.1      2.756      4.104
  Name = 
  16 active torsions:
  status: ('A' for Active; 'I' for Inactive)
    1  A    between atoms: C_1  and  C_40
    2  A    between atoms: O_3  and  C_24
    3  A    between atoms: C_7  and  C_41
    4  A    between atoms: O_8  and  C_13
    5  A    between atoms: O_8  and  C_28
    6  A    between atoms: C_9  and  O_17
    7  A    between atoms: C_13  and  C_14
    8  A    between atoms: C_13  and  C_41
    9  A    between atoms: C_16  and  C_28
   10  A    between atoms: O_17  and  C_40
   11  A    between atoms: C_18  and  N_26
   12  A    between atoms: C_18  and  C_42
   13  A    between atoms: N_19  and  C_20
   14  A    between atoms: N_26  and  C_28
   15  A    between atoms: C_29  and  C_33
   16  A    between atoms: C_37  and  C_42
                            x       y       z     vdW  Elec       q    Type
                         _______ _______ _______ _____ _____    ______ ____

>  <TORSDO>
F 16

$$$$
=
 OpenBabel11042417023D

 44 48  0  0  1  0  0  0  0  0999 V2000
  189.7100  176.4850  147.0840 C   0  0  2  0  0  3  0  0  0  0  0  0
  191.1080  176.8400  147.1930 N   0  0  0  0  0  2  0  0  0  0  0  0
  189.7150  174.7030  145.6760 N   0  0  0  0  0  2  0  0  0  0  0  0
  192.2770  175.4950  145.6130 C   0  0  0  0  0  0  0  0  0  0  0  0
  190.6470  173.8210  145.0680 C   0  0  0  0  0  3  0  0  0  0  0  0
  191.9120  174.1810  144.9580 C   0  0  0  0  0  0  0  0  0  0  0  0
  193.5320  176.1480  145.0680 C   0  0  0  0  0  2  0  0  0  0  0  0
  193.5200  175.5860  146.4820 C   0  0  0  0  0  2  0  0  0  0  0  0
  191.2290  176.5220  145.8230 N   0  0  1  0  0  0  0  0  0  0  0  0
  189.8680  176.1050  145.6980 N   0  0  2  0  0  0  0  0  0  0  0  0
  193.6570  172.3510  145.0620 C   0  0  0  0  0  3  0  0  0  0  0  0
  195.3060  170.5960  145.2030 O   0  0  0  0  0  1  0  0  0  0  0  0
  194.6630  171.4660  143.0490 C   0  0  0  0  0  3  0  0  0  0  0  0
  192.8760  173.2420  144.3080 C   0  0  0  0  0  0  0  0  0  0  0  0
  194.5450  171.4700  144.4380 C   0  0  0  0  0  0  0  0  0  0  0  0
  193.8950  172.3440  142.2800 C   0  0  0  0  0  0  0  0  0  0  0  0
  193.0020  173.2190  142.9060 C   0  0  0  0  0  3  0  0  0  0  0  0
  193.9900  172.3150  140.7950 C   0  0  0  0  0  2  0  0  0  0  0  0
  192.9990  173.2970  140.1960 C   0  0  0  0  0  2  0  0  0  0  0  0
  192.8180  173.4030  137.8940 C   0  0  0  0  0  1  0  0  0  0  0  0
  192.3180  172.6890  139.0610 N   0  0  0  0  0  0  0  0  0  0  0  0
  190.8710  172.9450  139.1650 C   0  0  1  0  0  3  0  0  0  0  0  0
  190.2350  172.9750  137.7990 C   0  0  0  0  0  3  0  0  0  0  0  0
  189.3350  173.8990  137.4670 C   0  0  0  0  0  2  0  0  0  0  0  0
  190.2420  171.9480  139.9460 O   0  0  0  0  0  0  0  0  0  0  0  0
  189.7920  172.5050  141.1690 C   0  0  2  0  0  3  0  0  0  0  0  0
  189.8950  171.5400  142.3510 C   0  0  0  0  0  2  0  0  0  0  0  0
  190.8040  170.3780  141.9990 C   0  0  0  0  0  1  0  0  0  0  0  0
  188.4120  173.1530  141.0630 C   0  0  0  0  0  2  0  0  0  0  0  0
  188.5230  174.6610  141.1940 C   0  0  0  0  0  2  0  0  0  0  0  0
  189.6280  174.9750  141.9820 O   0  0  0  0  0  1  0  0  0  0  0  0
  188.8490  177.7360  147.1770 C   0  0  0  0  0  2  0  0  0  0  0  0
  187.4680  177.3870  147.1870 O   0  0  0  0  0  0  0  0  0  0  0  0
  185.7440  176.8370  143.9650 C   0  0  0  0  0  3  0  0  0  0  0  0
  186.6190  177.6010  146.0950 C   0  0  0  0  0  0  0  0  0  0  0  0
  184.9440  178.9080  144.9200 C   0  0  0  0  0  3  0  0  0  0  0  0
  184.9150  177.9620  143.8860 C   0  0  0  0  0  0  0  0  0  0  0  0
  185.7890  178.7310  146.0180 C   0  0  0  0  0  3  0  0  0  0  0  0
  186.5920  176.6580  145.0620 C   0  0  0  0  0  3  0  0  0  0  0  0
  183.5650  178.4430  140.5060 O   0  0  0  0  0  0  0  0  0  0  0  0
  184.0510  178.1030  142.7500 N   0  0  0  0  0  2  0  0  0  0  0  0
  184.4520  178.2930  141.3890 C   0  0  0  0  0  0  0  0  0  0  0  0
  185.8040  178.3150  141.0360 O   0  0  0  0  0  0  0  0  0  0  0  0
  186.3160  177.5300  139.9700 C   0  0  0  0  0  1  0  0  0  0  0  0
  1 32  1  6  0  0  0
  1  2  1  0  0  0  0
  4  9  1  0  0  0  0
  4  8  1  0  0  0  0
  5  3  1  0  0  0  0
  6  5  2  0  0  0  0
  6  4  1  0  0  0  0
  7  4  1  0  0  0  0
  7  8  1  0  0  0  0
  9  2  1  1  0  0  0
 10  3  1  1  0  0  0
 10  9  1  0  0  0  0
 10  1  1  0  0  0  0
 13 15  2  0  0  0  0
 14  6  1  0  0  0  0
 14 11  2  0  0  0  0
 15 11  1  0  0  0  0
 15 12  1  0  0  0  0
 16 17  2  0  0  0  0
 16 13  1  0  0  0  0
 17 14  1  0  0  0  0
 18 16  1  0  0  0  0
 19 18  1  0  0  0  0
 20 21  1  0  0  0  0
 21 22  1  0  0  0  0
 21 19  1  0  0  0  0
 22 23  1  6  0  0  0
 22 25  1  0  0  0  0
 24 23  2  0  0  0  0
 25 26  1  0  0  0  0
 26 29  1  6  0  0  0
 26 27  1  0  0  0  0
 28 27  1  0  0  0  0
 29 30  1  0  0  0  0
 30 31  1  0  0  0  0
 32 33  1  0  0  0  0
 34 39  1  0  0  0  0
 35 33  1  0  0  0  0
 36 38  2  0  0  0  0
 37 34  2  0  0  0  0
 37 36  1  0  0  0  0
 38 35  1  0  0  0  0
 39 35  2  0  0  0  0
 40 42  2  0  0  0  0
 41 37  1  0  0  0  0
 42 41  1  0  0  0  0
 43 42  1  0  0  0  0
 44 43  1  0  0  0  0
M  END
>  <MODEL>
7

>  <REMARK>
 VINA RESULT:      -6.0      1.878      2.994
  Name = 
  16 active torsions:
  status: ('A' for Active; 'I' for Inactive)
    1  A    between atoms: C_1  and  C_40
    2  A    between atoms: O_3  and  C_24
    3  A    between atoms: C_7  and  C_41
    4  A    between atoms: O_8  and  C_13
    5  A    between atoms: O_8  and  C_28
    6  A    between atoms: C_9  and  O_17
    7  A    between atoms: C_13  and  C_14
    8  A    between atoms: C_13  and  C_41
    9  A    between atoms: C_16  and  C_28
   10  A    between atoms: O_17  and  C_40
   11  A    between atoms: C_18  and  N_26
   12  A    between atoms: C_18  and  C_42
   13  A    between atoms: N_19  and  C_20
   14  A    between atoms: N_26  and  C_28
   15  A    between atoms: C_29  and  C_33
   16  A    between atoms: C_37  and  C_42
                            x       y       z     vdW  Elec       q    Type
                         _______ _______ _______ _____ _____    ______ ____

>  <TORSDO>
F 16

$$$$
=
 OpenBabel11042417023D

 44 48  0  0  1  0  0  0  0  0999 V2000
  189.5660  177.0550  146.6460 C   0  0  2  0  0  3  0  0  0  0  0  0
  189.6270  176.5090  145.3080 N   0  0  0  0  0  2  0  0  0  0  0  0
  191.6960  176.8550  147.4070 N   0  0  0  0  0  2  0  0  0  0  0  0
  191.8020  175.5740  145.0520 C   0  0  0  0  0  0  0  0  0  0  0  0
  192.9850  176.5300  146.9080 C   0  0  0  0  0  3  0  0  0  0  0  0
  193.0980  175.8500  145.7820 C   0  0  0  0  0  0  0  0  0  0  0  0
  191.8510  174.4020  144.0930 C   0  0  0  0  0  2  0  0  0  0  0  0
  191.7110  175.8180  143.5550 C   0  0  0  0  0  2  0  0  0  0  0  0
  190.5280  175.5470  145.8100 N   0  0  1  0  0  0  0  0  0  0  0  0
  190.5380  176.1000  147.1280 N   0  0  2  0  0  0  0  0  0  0  0  0
  195.0950  176.2780  144.2870 C   0  0  0  0  0  3  0  0  0  0  0  0
  196.9840  176.7290  142.8560 O   0  0  0  0  0  1  0  0  0  0  0  0
  197.0480  174.8550  144.3700 C   0  0  0  0  0  3  0  0  0  0  0  0
  194.4630  175.5090  145.2780 C   0  0  0  0  0  0  0  0  0  0  0  0
  196.3770  175.9540  143.8350 C   0  0  0  0  0  0  0  0  0  0  0  0
  196.4380  174.0760  145.3570 C   0  0  0  0  0  0  0  0  0  0  0  0
  195.1580  174.4080  145.8130 C   0  0  0  0  0  3  0  0  0  0  0  0
  197.1670  172.9270  145.9580 C   0  0  0  0  0  2  0  0  0  0  0  0
  196.9060  171.6700  145.1460 C   0  0  0  0  0  2  0  0  0  0  0  0
  196.4790  169.8420  146.4950 C   0  0  0  0  0  1  0  0  0  0  0  0
  195.8220  170.9050  145.7470 N   0  0  0  0  0  0  0  0  0  0  0  0
  195.0180  170.2800  144.6820 C   0  0  1  0  0  3  0  0  0  0  0  0
  194.2670  169.0850  145.2130 C   0  0  0  0  0  3  0  0  0  0  0  0
  193.0690  168.7460  144.7400 C   0  0  0  0  0  2  0  0  0  0  0  0
  194.0920  171.2060  144.1470 O   0  0  0  0  0  0  0  0  0  0  0  0
  194.3080  171.3530  142.7540 C   0  0  2  0  0  3  0  0  0  0  0  0
  195.2570  170.3050  142.1710 C   0  0  0  0  0  2  0  0  0  0  0  0
  194.4880  169.3320  141.2980 C   0  0  0  0  0  1  0  0  0  0  0  0
  194.6930  172.7770  142.3520 C   0  0  0  0  0  2  0  0  0  0  0  0
  195.4220  172.7730  141.0220 C   0  0  0  0  0  2  0  0  0  0  0  0
  196.4000  173.7650  141.0280 O   0  0  0  0  0  1  0  0  0  0  0  0
  188.2070  176.7600  147.2660 C   0  0  0  0  0  2  0  0  0  0  0  0
  187.3000  177.8250  147.0000 O   0  0  0  0  0  0  0  0  0  0  0  0
  185.1500  179.1810  144.3180 C   0  0  0  0  0  3  0  0  0  0  0  0
  186.4900  177.8720  145.8600 C   0  0  0  0  0  0  0  0  0  0  0  0
  185.4130  176.8040  143.9640 C   0  0  0  0  0  3  0  0  0  0  0  0
  184.8750  178.0360  143.5630 C   0  0  0  0  0  0  0  0  0  0  0  0
  186.2150  176.7210  145.1050 C   0  0  0  0  0  3  0  0  0  0  0  0
  185.9530  179.1000  145.4610 C   0  0  0  0  0  3  0  0  0  0  0  0
  183.6690  178.4230  140.1170 O   0  0  0  0  0  0  0  0  0  0  0  0
  184.0590  178.1620  142.3910 N   0  0  0  0  0  2  0  0  0  0  0  0
  184.5170  178.2770  141.0380 C   0  0  0  0  0  0  0  0  0  0  0  0
  185.8810  178.2300  140.7370 O   0  0  0  0  0  0  0  0  0  0  0  0
  186.3920  177.4250  139.6860 C   0  0  0  0  0  1  0  0  0  0  0  0
  1 10  1  0  0  0  0
  1 32  1  1  0  0  0
  2  1  1  0  0  0  0
  4  6  1  0  0  0  0
  4  9  1  0  0  0  0
  5  3  1  0  0  0  0
  6  5  2  0  0  0  0
  7  4  1  0  0  0  0
  8  7  1  0  0  0  0
  8  4  1  0  0  0  0
  9  2  1  6  0  0  0
  9 10  1  0  0  0  0
 10  3  1  6  0  0  0
 11 14  1  0  0  0  0
 12 15  1  0  0  0  0
 13 16  2  0  0  0  0
 14  6  1  0  0  0  0
 14 17  2  0  0  0  0
 15 11  2  0  0  0  0
 15 13  1  0  0  0  0
 16 17  1  0  0  0  0
 16 18  1  0  0  0  0
 19 21  1  0  0  0  0
 19 18  1  0  0  0  0
 21 20  1  0  0  0  0
 22 23  1  1  0  0  0
 22 21  1  0  0  0  0
 24 23  2  0  0  0  0
 25 22  1  0  0  0  0
 26 27  1  1  0  0  0
 26 25  1  0  0  0  0
 28 27  1  0  0  0  0
 29 26  1  0  0  0  0
 30 31  1  0  0  0  0
 30 29  1  0  0  0  0
 33 32  1  0  0  0  0
 34 39  1  0  0  0  0
 35 33  1  0  0  0  0
 36 38  2  0  0  0  0
 37 36  1  0  0  0  0
 37 34  2  0  0  0  0
 38 35  1  0  0  0  0
 39 35  2  0  0  0  0
 40 42  2  0  0  0  0
 41 37  1  0  0  0  0
 42 41  1  0  0  0  0
 43 42  1  0  0  0  0
 44 43  1  0  0  0  0
M  END
>  <MODEL>
8

>  <REMARK>
 VINA RESULT:      -6.0      2.722      4.260
  Name = 
  16 active torsions:
  status: ('A' for Active; 'I' for Inactive)
    1  A    between atoms: C_1  and  C_40
    2  A    between atoms: O_3  and  C_24
    3  A    between atoms: C_7  and  C_41
    4  A    between atoms: O_8  and  C_13
    5  A    between atoms: O_8  and  C_28
    6  A    between atoms: C_9  and  O_17
    7  A    between atoms: C_13  and  C_14
    8  A    between atoms: C_13  and  C_41
    9  A    between atoms: C_16  and  C_28
   10  A    between atoms: O_17  and  C_40
   11  A    between atoms: C_18  and  N_26
   12  A    between atoms: C_18  and  C_42
   13  A    between atoms: N_19  and  C_20
   14  A    between atoms: N_26  and  C_28
   15  A    between atoms: C_29  and  C_33
   16  A    between atoms: C_37  and  C_42
                            x       y       z     vdW  Elec       q    Type
                         _______ _______ _______ _____ _____    ______ ____

>  <TORSDO>
F 16

$$$$
=
 OpenBabel11042417023D

 44 48  0  0  1  0  0  0  0  0999 V2000
  189.0400  177.0770  146.1850 C   0  0  2  0  0  3  0  0  0  0  0  0
  189.6290  175.8160  146.5790 N   0  0  0  0  0  2  0  0  0  0  0  0
  190.4520  177.8550  144.5860 N   0  0  0  0  0  2  0  0  0  0  0  0
  191.7370  175.6760  145.4800 C   0  0  0  0  0  0  0  0  0  0  0  0
  191.5570  177.3990  143.8190 C   0  0  0  0  0  3  0  0  0  0  0  0
  192.2630  176.3660  144.2400 C   0  0  0  0  0  0  0  0  0  0  0  0
  192.7690  174.8690  146.2420 C   0  0  0  0  0  2  0  0  0  0  0  0
  191.6350  174.1600  145.5160 C   0  0  0  0  0  2  0  0  0  0  0  0
  190.8900  176.4320  146.4320 N   0  0  1  0  0  0  0  0  0  0  0  0
  190.3410  177.6720  145.9800 N   0  0  2  0  0  0  0  0  0  0  0  0
  194.7510  176.1380  143.8340 C   0  0  0  0  0  3  0  0  0  0  0  0
  197.1290  175.9280  143.4910 O   0  0  0  0  0  1  0  0  0  0  0  0
  195.6000  175.0030  141.8740 C   0  0  0  0  0  3  0  0  0  0  0  0
  193.4280  175.9070  143.4230 C   0  0  0  0  0  0  0  0  0  0  0  0
  195.8290  175.6910  143.0660 C   0  0  0  0  0  0  0  0  0  0  0  0
  194.2910  174.7630  141.4470 C   0  0  0  0  0  0  0  0  0  0  0  0
  193.2140  175.2040  142.2220 C   0  0  0  0  0  3  0  0  0  0  0  0
  194.0430  173.9950  140.1970 C   0  0  0  0  0  2  0  0  0  0  0  0
  192.5560  173.7260  140.0440 C   0  0  0  0  0  2  0  0  0  0  0  0
  193.2390  171.5600  139.6200 C   0  0  0  0  0  1  0  0  0  0  0  0
  192.2640  172.3380  140.3720 N   0  0  0  0  0  0  0  0  0  0  0  0
  190.9230  171.9900  139.8730 C   0  0  1  0  0  3  0  0  0  0  0  0
  190.8360  170.5170  139.5600 C   0  0  0  0  0  3  0  0  0  0  0  0
  190.1000  170.0610  138.5470 C   0  0  0  0  0  2  0  0  0  0  0  0
  189.9340  172.3180  140.8280 O   0  0  0  0  0  0  0  0  0  0  0  0
  188.9270  173.1140  140.2270 C   0  0  2  0  0  3  0  0  0  0  0  0
  189.3800  173.7920  138.9330 C   0  0  0  0  0  2  0  0  0  0  0  0
  188.1760  174.1610  138.0870 C   0  0  0  0  0  1  0  0  0  0  0  0
  188.2730  174.0940  141.2010 C   0  0  0  0  0  2  0  0  0  0  0  0
  189.3320  174.8490  141.9830 C   0  0  0  0  0  2  0  0  0  0  0  0
  188.9350  174.9560  143.3140 O   0  0  0  0  0  1  0  0  0  0  0  0
  188.3610  177.7280  147.3810 C   0  0  0  0  0  2  0  0  0  0  0  0
  186.9470  177.5970  147.2800 O   0  0  0  0  0  0  0  0  0  0  0  0
  185.3980  176.8450  144.0100 C   0  0  0  0  0  3  0  0  0  0  0  0
  186.2470  177.7810  146.0820 C   0  0  0  0  0  0  0  0  0  0  0  0
  184.9780  179.1660  144.5430 C   0  0  0  0  0  3  0  0  0  0  0  0
  184.8310  178.0790  143.6690 C   0  0  0  0  0  0  0  0  0  0  0  0
  185.6810  179.0190  145.7420 C   0  0  0  0  0  3  0  0  0  0  0  0
  186.1030  176.6970  145.2080 C   0  0  0  0  0  3  0  0  0  0  0  0
  183.8860  178.4330  140.1400 O   0  0  0  0  0  0  0  0  0  0  0  0
  184.1050  178.1880  142.4380 N   0  0  0  0  0  2  0  0  0  0  0  0
  184.6630  178.3040  141.1230 C   0  0  0  0  0  0  0  0  0  0  0  0
  186.0460  178.2760  140.9270 O   0  0  0  0  0  0  0  0  0  0  0  0
  186.6460  177.4900  139.9090 C   0  0  0  0  0  1  0  0  0  0  0  0
  1  2  1  0  0  0  0
  1 32  1  1  0  0  0
  4  8  1  0  0  0  0
  4  7  1  0  0  0  0
  4  9  1  0  0  0  0
  5  6  2  0  0  0  0
  5  3  1  0  0  0  0
  6  4  1  0  0  0  0
  8  7  1  0  0  0  0
  9  2  1  6  0  0  0
 10  3  1  6  0  0  0
 10  1  1  0  0  0  0
 10  9  1  0  0  0  0
 13 15  1  0  0  0  0
 14 11  1  0  0  0  0
 14  6  1  0  0  0  0
 15 12  1  0  0  0  0
 15 11  2  0  0  0  0
 16 13  2  0  0  0  0
 16 17  1  0  0  0  0
 17 14  2  0  0  0  0
 18 16  1  0  0  0  0
 19 18  1  0  0  0  0
 19 21  1  0  0  0  0
 20 21  1  0  0  0  0
 22 23  1  1  0  0  0
 22 21  1  0  0  0  0
 22 25  1  0  0  0  0
 24 23  2  0  0  0  0
 26 27  1  6  0  0  0
 26 25  1  0  0  0  0
 26 29  1  0  0  0  0
 28 27  1  0  0  0  0
 29 30  1  0  0  0  0
 30 31  1  0  0  0  0
 33 32  1  0  0  0  0
 34 39  1  0  0  0  0
 35 33  1  0  0  0  0
 36 38  2  0  0  0  0
 37 34  2  0  0  0  0
 37 36  1  0  0  0  0
 38 35  1  0  0  0  0
 39 35  2  0  0  0  0
 40 42  2  0  0  0  0
 41 37  1  0  0  0  0
 42 41  1  0  0  0  0
 43 42  1  0  0  0  0
 44 43  1  0  0  0  0
M  END
>  <MODEL>
9

>  <REMARK>
 VINA RESULT:      -6.0      1.301      2.217
  Name = 
  16 active torsions:
  status: ('A' for Active; 'I' for Inactive)
    1  A    between atoms: C_1  and  C_40
    2  A    between atoms: O_3  and  C_24
    3  A    between atoms: C_7  and  C_41
    4  A    between atoms: O_8  and  C_13
    5  A    between atoms: O_8  and  C_28
    6  A    between atoms: C_9  and  O_17
    7  A    between atoms: C_13  and  C_14
    8  A    between atoms: C_13  and  C_41
    9  A    between atoms: C_16  and  C_28
   10  A    between atoms: O_17  and  C_40
   11  A    between atoms: C_18  and  N_26
   12  A    between atoms: C_18  and  C_42
   13  A    between atoms: N_19  and  C_20
   14  A    between atoms: N_26  and  C_28
   15  A    between atoms: C_29  and  C_33
   16  A    between atoms: C_37  and  C_42
                            x       y       z     vdW  Elec       q    Type
                         _______ _______ _______ _____ _____    ______ ____

>  <TORSDO>
F 16

$$$$
