=
 OpenBabel11042416103D

 34 38  0  0  1  0  0  0  0  0999 V2000
  188.0440  176.0340  144.3170 O   0  0  0  0  0  0  0  0  0  0  0  0
  184.7660  177.8800  142.6640 C   0  0  2  0  0  3  0  0  0  0  0  0
  187.3190  177.1070  143.7680 C   0  0  2  0  0  3  0  0  0  0  0  0
  187.1720  176.4710  146.5260 C   0  0  0  0  0  2  0  0  0  0  0  0
  185.2630  178.3220  143.9030 O   0  0  0  0  0  0  0  0  0  0  0  0
  188.3240  177.4410  141.5770 N   0  0  0  0  0  1  0  0  0  0  0  0
  185.8980  177.5470  141.7170 C   0  0  0  0  0  0  0  0  0  0  0  0
  188.4120  176.4220  145.6200 C   0  0  1  0  0  3  0  0  0  0  0  0
  186.1740  177.4780  145.9600 C   0  0  2  0  0  3  0  0  0  0  0  0
  185.7470  177.6730  140.5120 O   0  0  0  0  0  0  0  0  0  0  0  0
  184.8610  177.3600  146.7090 C   0  0  0  0  0  1  0  0  0  0  0  0
  185.9530  177.2370  144.4660 C   0  0  2  0  0  3  0  0  0  0  0  0
  187.1550  176.9060  142.2570 C   0  0  2  0  0  3  0  0  0  0  0  0
  189.0010  174.6590  147.3370 C   0  0  0  0  0  1  0  0  0  0  0  0
  189.4970  175.4880  146.1590 C   0  0  2  0  0  3  0  0  0  0  0  0
  190.7450  176.2720  146.5340 C   0  0  0  0  0  2  0  0  0  0  0  0
  191.7530  175.3690  147.2220 C   0  0  0  0  0  2  0  0  0  0  0  0
  194.4640  177.1160  145.7670 C   0  0  0  0  0  2  0  0  0  0  0  0
  193.1240  175.5400  146.5930 C   0  0  1  0  0  3  0  0  0  0  0  0
  193.9270  176.4140  144.5420 C   0  0  2  0  0  3  0  0  0  0  0  0
  193.0220  175.3560  145.0970 C   0  0  0  0  0  2  0  0  0  0  0  0
  195.0680  175.7740  143.7790 C   0  0  0  0  0  1  0  0  0  0  0  0
  193.6190  176.8280  146.8480 O   0  0  0  0  0  0  0  0  0  0  0  0
  183.9270  178.8820  142.1010 O   0  0  0  0  0  0  0  0  0  0  0  0
  178.6730  178.0290  140.9640 N   0  0  0  0  0  0  0  0  0  0  0  0
  180.3010  178.7430  142.1930 C   0  0  0  0  0  0  0  0  0  0  0  0
  182.5980  178.6330  141.7490 C   0  0  0  0  0  0  0  0  0  0  0  0
  181.5730  179.0070  142.5800 N   0  0  0  0  0  0  0  0  0  0  0  0
  178.1850  178.5750  142.0740 N   0  0  0  0  0  0  0  0  0  0  0  0
  177.8720  177.4430  139.9030 C   0  0  0  0  0  1  0  0  0  0  0  0
  179.1660  179.0270  142.8570 N   0  0  0  0  0  0  0  0  0  0  0  0
  180.0060  178.1280  141.0250 C   0  0  0  0  0  0  0  0  0  0  0  0
  180.9930  177.7210  140.1360 C   0  0  0  0  0  3  0  0  0  0  0  0
  182.3230  177.9850  140.5180 C   0  0  0  0  0  3  0  0  0  0  0  0
  1  8  1  0  0  0  0
  2 24  1  6  0  0  0
  2  5  1  0  0  0  0
  3  1  1  1  0  0  0
  3 12  1  0  0  0  0
  7 13  1  0  0  0  0
  7  2  1  0  0  0  0
  8 15  1  1  0  0  0
  8  4  1  0  0  0  0
  9  4  1  0  0  0  0
  9 11  1  1  0  0  0
 10  7  2  0  0  0  0
 12  5  1  6  0  0  0
 12  9  1  0  0  0  0
 13  6  1  6  0  0  0
 13  3  1  0  0  0  0
 15 16  1  0  0  0  0
 15 14  1  1  0  0  0
 16 17  1  0  0  0  0
 18 23  1  0  0  0  0
 19 23  1  0  0  0  0
 19 17  1  1  0  0  0
 20 22  1  1  0  0  0
 20 21  1  0  0  0  0
 20 18  1  0  0  0  0
 21 19  1  0  0  0  0
 25 32  1  0  0  0  0
 25 29  1  0  0  0  0
 26 28  1  0  0  0  0
 26 31  1  0  0  0  0
 27 24  1  0  0  0  0
 27 28  2  0  0  0  0
 29 31  2  0  0  0  0
 30 25  1  0  0  0  0
 32 26  2  0  0  0  0
 33 34  2  0  0  0  0
 33 32  1  0  0  0  0
 34 27  1  0  0  0  0
M  END
>  <MODEL>
1

>  <REMARK>
 VINA RESULT:      -8.3      0.000      0.000
  Name = 
  6 active torsions:
  status: ('A' for Active; 'I' for Inactive)
    1  A    between atoms: C_3  and  C_13
    2  A    between atoms: C_3  and  C_14
    3  A    between atoms: C_6  and  O_21
    4  A    between atoms: C_7  and  O_21
    5  A    between atoms: C_8  and  C_13
    6  A    between atoms: C_8  and  C_27
                            x       y       z     vdW  Elec       q    Type
                         _______ _______ _______ _____ _____    ______ ____

>  <TORSDO>
F 6

$$$$
=
 OpenBabel11042416103D

 34 38  0  0  1  0  0  0  0  0999 V2000
  187.8880  176.2550  144.9060 O   0  0  0  0  0  0  0  0  0  0  0  0
  184.9200  177.7310  142.4770 C   0  0  2  0  0  3  0  0  0  0  0  0
  187.2640  177.2050  144.0770 C   0  0  2  0  0  3  0  0  0  0  0  0
  186.6870  177.0430  146.8470 C   0  0  0  0  0  2  0  0  0  0  0  0
  185.2220  178.3860  143.6850 O   0  0  0  0  0  0  0  0  0  0  0  0
  188.6000  177.1820  142.0430 N   0  0  0  0  0  1  0  0  0  0  0  0
  186.1820  177.2640  141.7870 C   0  0  0  0  0  0  0  0  0  0  0  0
  188.0520  176.8650  146.1640 C   0  0  1  0  0  3  0  0  0  0  0  0
  185.7960  177.9200  145.9710 C   0  0  2  0  0  3  0  0  0  0  0  0
  186.2210  177.1810  140.5690 O   0  0  0  0  0  0  0  0  0  0  0  0
  184.3820  177.9050  146.5180 C   0  0  0  0  0  1  0  0  0  0  0  0
  185.8080  177.4250  144.5240 C   0  0  2  0  0  3  0  0  0  0  0  0
  187.3360  176.7480  142.6150 C   0  0  2  0  0  3  0  0  0  0  0  0
  190.3160  176.8300  147.2940 C   0  0  0  0  0  1  0  0  0  0  0  0
  189.0330  176.0570  147.0150 C   0  0  2  0  0  3  0  0  0  0  0  0
  189.3370  174.7170  146.3620 C   0  0  0  0  0  2  0  0  0  0  0  0
  190.8010  174.6390  145.9680 C   0  0  0  0  0  2  0  0  0  0  0  0
  190.1860  173.9430  142.5540 C   0  0  0  0  0  2  0  0  0  0  0  0
  190.9490  173.9070  144.6470 C   0  0  1  0  0  3  0  0  0  0  0  0
  189.4660  172.7750  143.1850 C   0  0  2  0  0  3  0  0  0  0  0  0
  189.9760  172.7520  144.5940 C   0  0  0  0  0  2  0  0  0  0  0  0
  189.8490  171.4940  142.4740 C   0  0  0  0  0  1  0  0  0  0  0  0
  190.6680  174.7720  143.5780 O   0  0  0  0  0  0  0  0  0  0  0  0
  184.1860  178.6070  141.6290 O   0  0  0  0  0  0  0  0  0  0  0  0
  178.7960  178.1530  141.0200 N   0  0  0  0  0  0  0  0  0  0  0  0
  180.5870  178.7330  142.0830 C   0  0  0  0  0  0  0  0  0  0  0  0
  182.8140  178.4590  141.4110 C   0  0  0  0  0  0  0  0  0  0  0  0
  181.9060  178.8980  142.3420 N   0  0  0  0  0  0  0  0  0  0  0  0
  178.4620  178.7210  142.1750 N   0  0  0  0  0  0  0  0  0  0  0  0
  177.8520  177.6390  140.0420 C   0  0  0  0  0  1  0  0  0  0  0  0
  179.5470  179.0910  142.8580 N   0  0  0  0  0  0  0  0  0  0  0  0
  180.1320  178.1530  140.9480 C   0  0  0  0  0  0  0  0  0  0  0  0
  180.9930  177.6850  139.9630 C   0  0  0  0  0  3  0  0  0  0  0  0
  182.3700  177.8470  140.2120 C   0  0  0  0  0  3  0  0  0  0  0  0
  1  8  1  0  0  0  0
  2 24  1  6  0  0  0
  2  5  1  0  0  0  0
  3 12  1  0  0  0  0
  3  1  1  1  0  0  0
  7  2  1  0  0  0  0
  7 13  1  0  0  0  0
  8  4  1  0  0  0  0
  8 15  1  1  0  0  0
  9 11  1  1  0  0  0
  9  4  1  0  0  0  0
 10  7  2  0  0  0  0
 12  5  1  6  0  0  0
 12  9  1  0  0  0  0
 13  6  1  6  0  0  0
 13  3  1  0  0  0  0
 15 14  1  6  0  0  0
 16 15  1  0  0  0  0
 17 16  1  0  0  0  0
 18 20  1  0  0  0  0
 18 23  1  0  0  0  0
 19 17  1  1  0  0  0
 20 22  1  6  0  0  0
 20 21  1  0  0  0  0
 21 19  1  0  0  0  0
 23 19  1  0  0  0  0
 25 29  1  0  0  0  0
 26 28  1  0  0  0  0
 26 31  1  0  0  0  0
 27 24  1  0  0  0  0
 27 28  2  0  0  0  0
 29 31  2  0  0  0  0
 30 25  1  0  0  0  0
 32 25  1  0  0  0  0
 32 26  2  0  0  0  0
 33 34  2  0  0  0  0
 33 32  1  0  0  0  0
 34 27  1  0  0  0  0
M  END
>  <MODEL>
2

>  <REMARK>
 VINA RESULT:      -8.2      1.744      2.380
  Name = 
  6 active torsions:
  status: ('A' for Active; 'I' for Inactive)
    1  A    between atoms: C_3  and  C_13
    2  A    between atoms: C_3  and  C_14
    3  A    between atoms: C_6  and  O_21
    4  A    between atoms: C_7  and  O_21
    5  A    between atoms: C_8  and  C_13
    6  A    between atoms: C_8  and  C_27
                            x       y       z     vdW  Elec       q    Type
                         _______ _______ _______ _____ _____    ______ ____

>  <TORSDO>
F 6

$$$$
=
 OpenBabel11042416103D

 34 38  0  0  1  0  0  0  0  0999 V2000
  188.4590  178.0410  145.3160 O   0  0  0  0  0  0  0  0  0  0  0  0
  191.5260  175.5230  144.2490 C   0  0  2  0  0  3  0  0  0  0  0  0
  189.0880  177.0390  144.5570 C   0  0  2  0  0  3  0  0  0  0  0  0
  187.7230  176.4400  146.9670 C   0  0  0  0  0  2  0  0  0  0  0  0
  190.3060  174.9850  144.6960 O   0  0  0  0  0  0  0  0  0  0  0  0
  189.5280  178.1080  142.4150 N   0  0  0  0  0  1  0  0  0  0  0  0
  191.2910  176.7150  143.3480 C   0  0  0  0  0  0  0  0  0  0  0  0
  187.3140  177.4540  145.8870 C   0  0  1  0  0  3  0  0  0  0  0  0
  188.5880  175.3530  146.3350 C   0  0  2  0  0  3  0  0  0  0  0  0
  192.0900  176.9830  142.4640 O   0  0  0  0  0  0  0  0  0  0  0  0
  189.1860  174.4870  147.4270 C   0  0  0  0  0  1  0  0  0  0  0  0
  189.6980  175.9730  145.4850 C   0  0  2  0  0  3  0  0  0  0  0  0
  190.1550  177.6640  143.6500 C   0  0  2  0  0  3  0  0  0  0  0  0
  185.3170  177.9680  147.3550 C   0  0  0  0  0  1  0  0  0  0  0  0
  186.3800  178.5400  146.4250 C   0  0  2  0  0  3  0  0  0  0  0  0
  185.7420  179.3160  145.2830 C   0  0  0  0  0  2  0  0  0  0  0  0
  184.4270  178.6760  144.8760 C   0  0  0  0  0  2  0  0  0  0  0  0
  186.0180  176.6890  142.4180 C   0  0  0  0  0  2  0  0  0  0  0  0
  184.5810  177.9670  143.5420 C   0  0  1  0  0  3  0  0  0  0  0  0
  186.1580  178.0490  141.7760 C   0  0  2  0  0  3  0  0  0  0  0  0
  185.1940  178.9100  142.5340 C   0  0  0  0  0  2  0  0  0  0  0  0
  185.7490  177.9700  140.3190 C   0  0  0  0  0  1  0  0  0  0  0  0
  185.4250  176.8540  143.6780 O   0  0  0  0  0  0  0  0  0  0  0  0
  192.2680  174.5210  143.5630 O   0  0  0  0  0  0  0  0  0  0  0  0
  196.3350  171.8810  146.0360 N   0  0  0  0  0  0  0  0  0  0  0  0
  195.3260  173.6520  145.3160 C   0  0  0  0  0  0  0  0  0  0  0  0
  193.2790  173.7830  144.1850 C   0  0  0  0  0  0  0  0  0  0  0  0
  194.3730  174.4110  144.7230 N   0  0  0  0  0  0  0  0  0  0  0  0
  197.0610  172.9570  146.3310 N   0  0  0  0  0  0  0  0  0  0  0  0
  196.7030  170.5150  146.3650 C   0  0  0  0  0  1  0  0  0  0  0  0
  196.4640  174.0690  145.8990 N   0  0  0  0  0  0  0  0  0  0  0  0
  195.2400  172.3040  145.3960 C   0  0  0  0  0  0  0  0  0  0  0  0
  194.1610  171.6020  144.8720 C   0  0  0  0  0  3  0  0  0  0  0  0
  193.1590  172.3720  144.2510 C   0  0  0  0  0  3  0  0  0  0  0  0
  1  8  1  0  0  0  0
  2 24  1  6  0  0  0
  2  5  1  0  0  0  0
  3  1  1  1  0  0  0
  3 12  1  0  0  0  0
  7 13  1  0  0  0  0
  7  2  1  0  0  0  0
  8 15  1  1  0  0  0
  8  4  1  0  0  0  0
  9  4  1  0  0  0  0
  9 11  1  1  0  0  0
 10  7  2  0  0  0  0
 12  5  1  6  0  0  0
 12  9  1  0  0  0  0
 13  6  1  6  0  0  0
 13  3  1  0  0  0  0
 15 14  1  6  0  0  0
 16 15  1  0  0  0  0
 17 16  1  0  0  0  0
 18 23  1  0  0  0  0
 19 23  1  0  0  0  0
 19 17  1  1  0  0  0
 20 22  1  6  0  0  0
 20 18  1  0  0  0  0
 20 21  1  0  0  0  0
 21 19  1  0  0  0  0
 24 27  1  0  0  0  0
 25 29  1  0  0  0  0
 25 30  1  0  0  0  0
 26 32  2  0  0  0  0
 26 31  1  0  0  0  0
 27 34  1  0  0  0  0
 27 28  2  0  0  0  0
 28 26  1  0  0  0  0
 31 29  2  0  0  0  0
 32 25  1  0  0  0  0
 33 32  1  0  0  0  0
 34 33  2  0  0  0  0
M  END
>  <MODEL>
3

>  <REMARK>
 VINA RESULT:      -8.1      4.471     10.608
  Name = 
  6 active torsions:
  status: ('A' for Active; 'I' for Inactive)
    1  A    between atoms: C_3  and  C_13
    2  A    between atoms: C_3  and  C_14
    3  A    between atoms: C_6  and  O_21
    4  A    between atoms: C_7  and  O_21
    5  A    between atoms: C_8  and  C_13
    6  A    between atoms: C_8  and  C_27
                            x       y       z     vdW  Elec       q    Type
                         _______ _______ _______ _____ _____    ______ ____

>  <TORSDO>
F 6

$$$$
=
 OpenBabel11042416103D

 34 38  0  0  1  0  0  0  0  0999 V2000
  188.4520  177.9520  145.1820 O   0  0  0  0  0  0  0  0  0  0  0  0
  191.8120  175.6340  144.7070 C   0  0  2  0  0  3  0  0  0  0  0  0
  189.2530  176.9640  144.5810 C   0  0  2  0  0  3  0  0  0  0  0  0
  187.6070  176.3870  146.8150 C   0  0  0  0  0  2  0  0  0  0  0  0
  190.5820  175.0240  145.0150 O   0  0  0  0  0  0  0  0  0  0  0  0
  189.9130  177.9500  142.4560 N   0  0  0  0  0  1  0  0  0  0  0  0
  191.6220  176.7540  143.7080 C   0  0  0  0  0  0  0  0  0  0  0  0
  187.2830  177.3070  145.6270 C   0  0  1  0  0  3  0  0  0  0  0  0
  188.6280  175.3400  146.3770 C   0  0  2  0  0  3  0  0  0  0  0  0
  192.5160  177.0370  142.9270 O   0  0  0  0  0  0  0  0  0  0  0  0
  189.1260  174.5840  147.5940 C   0  0  0  0  0  1  0  0  0  0  0  0
  189.7990  176.0010  145.6500 C   0  0  2  0  0  3  0  0  0  0  0  0
  190.3890  177.6240  143.7910 C   0  0  2  0  0  3  0  0  0  0  0  0
  185.0380  177.7240  146.7190 C   0  0  0  0  0  1  0  0  0  0  0  0
  186.2070  178.3410  145.9620 C   0  0  2  0  0  3  0  0  0  0  0  0
  185.7270  179.0470  144.7030 C   0  0  0  0  0  2  0  0  0  0  0  0
  184.5190  178.3340  144.1220 C   0  0  0  0  0  2  0  0  0  0  0  0
  186.5480  176.3690  141.9900 C   0  0  0  0  0  2  0  0  0  0  0  0
  184.9050  177.6060  142.8470 C   0  0  1  0  0  3  0  0  0  0  0  0
  186.7300  177.7210  141.3410 C   0  0  2  0  0  3  0  0  0  0  0  0
  185.6270  178.5540  141.9200 C   0  0  0  0  0  2  0  0  0  0  0  0
  186.5530  177.5940  139.8420 C   0  0  0  0  0  1  0  0  0  0  0  0
  185.7620  176.5340  143.1400 O   0  0  0  0  0  0  0  0  0  0  0  0
  192.7130  174.6590  144.1940 O   0  0  0  0  0  0  0  0  0  0  0  0
  190.9270  170.2880  141.4860 N   0  0  0  0  0  0  0  0  0  0  0  0
  191.3260  172.4000  141.7130 C   0  0  0  0  0  0  0  0  0  0  0  0
  192.2720  173.4980  143.5540 C   0  0  0  0  0  0  0  0  0  0  0  0
  191.7390  173.5540  142.2910 N   0  0  0  0  0  0  0  0  0  0  0  0
  190.5480  170.9320  140.3860 N   0  0  0  0  0  0  0  0  0  0  0  0
  190.8090  168.8550  141.6930 C   0  0  0  0  0  1  0  0  0  0  0  0
  190.7820  172.2410  140.4930 N   0  0  0  0  0  0  0  0  0  0  0  0
  191.4190  171.2010  142.3320 C   0  0  0  0  0  0  0  0  0  0  0  0
  191.9460  171.0690  143.6110 C   0  0  0  0  0  3  0  0  0  0  0  0
  192.3820  172.2570  144.2300 C   0  0  0  0  0  3  0  0  0  0  0  0
  1  8  1  0  0  0  0
  2 24  1  6  0  0  0
  2  5  1  0  0  0  0
  3  1  1  1  0  0  0
  3 12  1  0  0  0  0
  7 13  1  0  0  0  0
  7  2  1  0  0  0  0
  8 15  1  1  0  0  0
  8  4  1  0  0  0  0
  9  4  1  0  0  0  0
  9 11  1  1  0  0  0
 10  7  2  0  0  0  0
 12  5  1  6  0  0  0
 12  9  1  0  0  0  0
 13  6  1  6  0  0  0
 13  3  1  0  0  0  0
 15 14  1  6  0  0  0
 16 15  1  0  0  0  0
 17 16  1  0  0  0  0
 18 23  1  0  0  0  0
 19 23  1  0  0  0  0
 19 17  1  1  0  0  0
 20 22  1  6  0  0  0
 20 21  1  0  0  0  0
 20 18  1  0  0  0  0
 21 19  1  0  0  0  0
 25 30  1  0  0  0  0
 25 32  1  0  0  0  0
 26 28  1  0  0  0  0
 26 32  2  0  0  0  0
 27 24  1  0  0  0  0
 27 34  1  0  0  0  0
 28 27  2  0  0  0  0
 29 31  2  0  0  0  0
 29 25  1  0  0  0  0
 31 26  1  0  0  0  0
 32 33  1  0  0  0  0
 33 34  2  0  0  0  0
M  END
>  <MODEL>
4

>  <REMARK>
 VINA RESULT:      -8.1      4.541      9.026
  Name = 
  6 active torsions:
  status: ('A' for Active; 'I' for Inactive)
    1  A    between atoms: C_3  and  C_13
    2  A    between atoms: C_3  and  C_14
    3  A    between atoms: C_6  and  O_21
    4  A    between atoms: C_7  and  O_21
    5  A    between atoms: C_8  and  C_13
    6  A    between atoms: C_8  and  C_27
                            x       y       z     vdW  Elec       q    Type
                         _______ _______ _______ _____ _____    ______ ____

>  <TORSDO>
F 6

$$$$
=
 OpenBabel11042416103D

 34 38  0  0  1  0  0  0  0  0999 V2000
  187.9220  176.3590  143.4230 O   0  0  0  0  0  0  0  0  0  0  0  0
  190.9900  174.0170  144.8360 C   0  0  2  0  0  3  0  0  0  0  0  0
  189.2540  176.0580  143.7600 C   0  0  2  0  0  3  0  0  0  0  0  0
  188.1630  175.3520  141.2420 C   0  0  0  0  0  2  0  0  0  0  0  0
  190.9990  174.4440  143.4950 O   0  0  0  0  0  0  0  0  0  0  0  0
  189.6850  177.4110  145.7370 N   0  0  0  0  0  1  0  0  0  0  0  0
  190.5150  175.1250  145.7500 C   0  0  0  0  0  0  0  0  0  0  0  0
  187.9090  176.6380  142.0440 C   0  0  1  0  0  3  0  0  0  0  0  0
  189.5230  174.7770  141.6290 C   0  0  2  0  0  3  0  0  0  0  0  0
  190.9180  175.1850  146.9010 O   0  0  0  0  0  0  0  0  0  0  0  0
  189.6750  173.3950  141.0240 C   0  0  0  0  0  1  0  0  0  0  0  0
  189.6640  174.7060  143.1500 C   0  0  2  0  0  3  0  0  0  0  0  0
  189.4190  176.0550  145.2850 C   0  0  2  0  0  3  0  0  0  0  0  0
  186.5050  177.5790  140.1600 C   0  0  0  0  0  1  0  0  0  0  0  0
  186.5950  177.3210  141.6590 C   0  0  2  0  0  3  0  0  0  0  0  0
  186.4070  178.6100  142.4440 C   0  0  0  0  0  2  0  0  0  0  0  0
  185.0040  178.6810  143.0190 C   0  0  0  0  0  2  0  0  0  0  0  0
  184.2430  178.6530  146.4750 C   0  0  0  0  0  2  0  0  0  0  0  0
  184.9920  178.1450  144.4390 C   0  0  1  0  0  3  0  0  0  0  0  0
  185.7210  178.9590  146.5420 C   0  0  2  0  0  3  0  0  0  0  0  0
  186.2240  178.6200  145.1720 C   0  0  0  0  0  2  0  0  0  0  0  0
  186.3800  178.0650  147.5720 C   0  0  0  0  0  1  0  0  0  0  0  0
  183.8610  178.6120  145.1260 O   0  0  0  0  0  0  0  0  0  0  0  0
  192.2960  173.5910  145.2100 O   0  0  0  0  0  0  0  0  0  0  0  0
  196.7500  175.5020  142.7340 N   0  0  0  0  0  0  0  0  0  0  0  0
  195.0850  175.6340  144.1060 C   0  0  0  0  0  0  0  0  0  0  0  0
  193.4430  174.0210  144.5390 C   0  0  0  0  0  0  0  0  0  0  0  0
  193.9710  175.2640  144.7820 N   0  0  0  0  0  0  0  0  0  0  0  0
  196.7700  176.6840  143.3440 N   0  0  0  0  0  0  0  0  0  0  0  0
  197.7170  175.0600  141.7430 C   0  0  0  0  0  1  0  0  0  0  0  0
  195.7540  176.7980  144.2000 N   0  0  0  0  0  0  0  0  0  0  0  0
  195.6930  174.8300  143.2040 C   0  0  0  0  0  0  0  0  0  0  0  0
  195.2130  173.5600  142.9070 C   0  0  0  0  0  3  0  0  0  0  0  0
  194.0550  173.1550  143.5990 C   0  0  0  0  0  3  0  0  0  0  0  0
  2 24  1  1  0  0  0
  2  7  1  0  0  0  0
  3  1  1  1  0  0  0
  3 13  1  0  0  0  0
  4  9  1  0  0  0  0
  4  8  1  0  0  0  0
  5  2  1  0  0  0  0
  7 10  2  0  0  0  0
  8 15  1  6  0  0  0
  8  1  1  0  0  0  0
  9 11  1  6  0  0  0
  9 12  1  0  0  0  0
 12  5  1  6  0  0  0
 12  3  1  0  0  0  0
 13  6  1  6  0  0  0
 13  7  1  0  0  0  0
 15 14  1  6  0  0  0
 15 16  1  0  0  0  0
 16 17  1  0  0  0  0
 18 20  1  0  0  0  0
 19 17  1  6  0  0  0
 19 23  1  0  0  0  0
 19 21  1  0  0  0  0
 20 22  1  1  0  0  0
 21 20  1  0  0  0  0
 23 18  1  0  0  0  0
 25 32  1  0  0  0  0
 25 29  1  0  0  0  0
 26 31  1  0  0  0  0
 26 28  1  0  0  0  0
 27 28  2  0  0  0  0
 27 24  1  0  0  0  0
 29 31  2  0  0  0  0
 30 25  1  0  0  0  0
 32 26  2  0  0  0  0
 33 32  1  0  0  0  0
 33 34  2  0  0  0  0
 34 27  1  0  0  0  0
M  END
>  <MODEL>
5

>  <REMARK>
 VINA RESULT:      -8.1      4.713     10.650
  Name = 
  6 active torsions:
  status: ('A' for Active; 'I' for Inactive)
    1  A    between atoms: C_3  and  C_13
    2  A    between atoms: C_3  and  C_14
    3  A    between atoms: C_6  and  O_21
    4  A    between atoms: C_7  and  O_21
    5  A    between atoms: C_8  and  C_13
    6  A    between atoms: C_8  and  C_27
                            x       y       z     vdW  Elec       q    Type
                         _______ _______ _______ _____ _____    ______ ____

>  <TORSDO>
F 6

$$$$
=
 OpenBabel11042416103D

 34 38  0  0  1  0  0  0  0  0999 V2000
  188.4220  177.8890  145.3420 O   0  0  0  0  0  0  0  0  0  0  0  0
  191.7230  175.7330  144.1820 C   0  0  2  0  0  3  0  0  0  0  0  0
  189.1440  176.9770  144.5510 C   0  0  2  0  0  3  0  0  0  0  0  0
  187.8780  176.1800  146.9580 C   0  0  0  0  0  2  0  0  0  0  0  0
  190.5710  175.0590  144.6260 O   0  0  0  0  0  0  0  0  0  0  0  0
  189.4430  178.1370  142.4330 N   0  0  0  0  0  1  0  0  0  0  0  0
  191.3540  176.9150  143.3130 C   0  0  0  0  0  0  0  0  0  0  0  0
  187.3520  177.1710  145.9090 C   0  0  1  0  0  3  0  0  0  0  0  0
  188.8440  175.2050  146.2910 C   0  0  2  0  0  3  0  0  0  0  0  0
  192.1090  177.2860  142.4290 O   0  0  0  0  0  0  0  0  0  0  0  0
  189.5430  174.3810  147.3550 C   0  0  0  0  0  1  0  0  0  0  0  0
  189.8730  175.9590  145.4460 C   0  0  2  0  0  3  0  0  0  0  0  0
  190.1280  177.7320  143.6500 C   0  0  2  0  0  3  0  0  0  0  0  0
  185.9170  177.7700  147.9060 C   0  0  0  0  0  1  0  0  0  0  0  0
  186.3160  178.1400  146.4830 C   0  0  2  0  0  3  0  0  0  0  0  0
  185.0950  178.2200  145.5800 C   0  0  0  0  0  2  0  0  0  0  0  0
  185.0230  179.5780  144.9040 C   0  0  0  0  0  2  0  0  0  0  0  0
  183.8210  178.0220  141.9620 C   0  0  0  0  0  2  0  0  0  0  0  0
  184.7870  179.4080  143.4140 C   0  0  1  0  0  3  0  0  0  0  0  0
  185.2960  177.7310  141.8190 C   0  0  2  0  0  3  0  0  0  0  0  0
  185.9460  178.6610  142.7980 C   0  0  0  0  0  2  0  0  0  0  0  0
  185.7470  178.0620  140.4110 C   0  0  0  0  0  1  0  0  0  0  0  0
  183.6150  178.6700  143.1890 O   0  0  0  0  0  0  0  0  0  0  0  0
  192.5570  174.8310  143.4630 O   0  0  0  0  0  0  0  0  0  0  0  0
  194.1770  170.0360  145.4650 N   0  0  0  0  0  0  0  0  0  0  0  0
  192.9930  171.2970  144.1690 C   0  0  0  0  0  0  0  0  0  0  0  0
  193.0160  173.6350  144.0200 C   0  0  0  0  0  0  0  0  0  0  0  0
  192.5150  172.4290  143.5990 N   0  0  0  0  0  0  0  0  0  0  0  0
  193.3840  169.2790  144.7130 N   0  0  0  0  0  0  0  0  0  0  0  0
  195.1130  169.5320  146.4550 C   0  0  0  0  0  1  0  0  0  0  0  0
  192.6380  170.0280  143.8990 N   0  0  0  0  0  0  0  0  0  0  0  0
  193.9420  171.3100  145.1330 C   0  0  0  0  0  0  0  0  0  0  0  0
  194.4940  172.4940  145.6080 C   0  0  0  0  0  3  0  0  0  0  0  0
  194.0110  173.6830  145.0290 C   0  0  0  0  0  3  0  0  0  0  0  0
  1  8  1  0  0  0  0
  2 24  1  6  0  0  0
  2  5  1  0  0  0  0
  3  1  1  1  0  0  0
  3 12  1  0  0  0  0
  7 13  1  0  0  0  0
  7  2  1  0  0  0  0
  8 15  1  1  0  0  0
  8  4  1  0  0  0  0
  9  4  1  0  0  0  0
  9 11  1  1  0  0  0
 10  7  2  0  0  0  0
 12  5  1  6  0  0  0
 12  9  1  0  0  0  0
 13  6  1  6  0  0  0
 13  3  1  0  0  0  0
 15 14  1  1  0  0  0
 16 15  1  0  0  0  0
 17 16  1  0  0  0  0
 18 23  1  0  0  0  0
 19 17  1  1  0  0  0
 20 22  1  6  0  0  0
 20 18  1  0  0  0  0
 20 21  1  0  0  0  0
 21 19  1  0  0  0  0
 23 19  1  0  0  0  0
 24 27  1  0  0  0  0
 25 30  1  0  0  0  0
 26 32  2  0  0  0  0
 27 34  1  0  0  0  0
 28 27  2  0  0  0  0
 28 26  1  0  0  0  0
 29 25  1  0  0  0  0
 31 26  1  0  0  0  0
 31 29  2  0  0  0  0
 32 25  1  0  0  0  0
 32 33  1  0  0  0  0
 34 33  2  0  0  0  0
M  END
>  <MODEL>
6

>  <REMARK>
 VINA RESULT:      -8.0      4.209     10.286
  Name = 
  6 active torsions:
  status: ('A' for Active; 'I' for Inactive)
    1  A    between atoms: C_3  and  C_13
    2  A    between atoms: C_3  and  C_14
    3  A    between atoms: C_6  and  O_21
    4  A    between atoms: C_7  and  O_21
    5  A    between atoms: C_8  and  C_13
    6  A    between atoms: C_8  and  C_27
                            x       y       z     vdW  Elec       q    Type
                         _______ _______ _______ _____ _____    ______ ____

>  <TORSDO>
F 6

$$$$
=
 OpenBabel11042416103D

 34 38  0  0  1  0  0  0  0  0999 V2000
  187.3940  175.7470  141.7980 O   0  0  0  0  0  0  0  0  0  0  0  0
  190.5770  173.7530  143.4640 C   0  0  2  0  0  3  0  0  0  0  0  0
  188.0230  174.8310  142.6600 C   0  0  2  0  0  3  0  0  0  0  0  0
  187.7140  177.5590  143.3620 C   0  0  0  0  0  2  0  0  0  0  0  0
  189.7720  174.5780  144.2710 O   0  0  0  0  0  0  0  0  0  0  0  0
  187.4400  172.6560  141.7360 N   0  0  0  0  0  1  0  0  0  0  0  0
  189.7330  172.9700  142.4830 C   0  0  0  0  0  0  0  0  0  0  0  0
  186.7100  176.6660  142.6170 C   0  0  1  0  0  3  0  0  0  0  0  0
  188.6200  176.6860  144.2270 C   0  0  2  0  0  3  0  0  0  0  0  0
  190.1020  171.8720  142.0970 O   0  0  0  0  0  0  0  0  0  0  0  0
  189.7550  177.5280  144.7760 C   0  0  0  0  0  1  0  0  0  0  0  0
  189.1760  175.5160  143.4140 C   0  0  2  0  0  3  0  0  0  0  0  0
  188.5200  173.6210  141.8600 C   0  0  2  0  0  3  0  0  0  0  0  0
  186.2830  177.8520  140.4230 C   0  0  0  0  0  1  0  0  0  0  0  0
  185.7120  177.4720  141.7830 C   0  0  2  0  0  3  0  0  0  0  0  0
  185.2490  178.7060  142.5420 C   0  0  0  0  0  2  0  0  0  0  0  0
  184.0820  178.3630  143.4500 C   0  0  0  0  0  2  0  0  0  0  0  0
  186.1090  179.4340  146.1460 C   0  0  0  0  0  2  0  0  0  0  0  0
  184.4110  178.7310  144.8860 C   0  0  1  0  0  3  0  0  0  0  0  0
  185.9790  177.9680  146.4910 C   0  0  2  0  0  3  0  0  0  0  0  0
  184.8400  177.4940  145.6410 C   0  0  0  0  0  2  0  0  0  0  0  0
  185.6300  177.8190  147.9570 C   0  0  0  0  0  1  0  0  0  0  0  0
  185.4640  179.6580  144.9210 O   0  0  0  0  0  0  0  0  0  0  0  0
  191.3300  172.8690  144.2870 O   0  0  0  0  0  0  0  0  0  0  0  0
  196.7010  173.1730  145.1140 N   0  0  0  0  0  0  0  0  0  0  0  0
  194.7720  172.2040  145.2270 C   0  0  0  0  0  0  0  0  0  0  0  0
  192.7080  173.0100  144.4700 C   0  0  0  0  0  0  0  0  0  0  0  0
  193.4390  172.0200  145.0750 N   0  0  0  0  0  0  0  0  0  0  0  0
  196.8340  171.9870  145.7020 N   0  0  0  0  0  0  0  0  0  0  0  0
  197.7880  174.1050  144.8670 C   0  0  0  0  0  1  0  0  0  0  0  0
  195.6590  171.3610  145.7880 N   0  0  0  0  0  0  0  0  0  0  0  0
  195.4070  173.3230  144.8100 C   0  0  0  0  0  0  0  0  0  0  0  0
  194.7300  174.3670  144.1910 C   0  0  0  0  0  3  0  0  0  0  0  0
  193.3430  174.1960  144.0220 C   0  0  0  0  0  3  0  0  0  0  0  0
  1  8  1  0  0  0  0
  2  5  1  0  0  0  0
  2 24  1  1  0  0  0
  3  1  1  6  0  0  0
  3 12  1  0  0  0  0
  4  9  1  0  0  0  0
  7  2  1  0  0  0  0
  8 15  1  6  0  0  0
  8  4  1  0  0  0  0
  9 11  1  6  0  0  0
 10  7  2  0  0  0  0
 12  9  1  0  0  0  0
 12  5  1  1  0  0  0
 13  6  1  1  0  0  0
 13  7  1  0  0  0  0
 13  3  1  0  0  0  0
 15 14  1  6  0  0  0
 15 16  1  0  0  0  0
 16 17  1  0  0  0  0
 18 20  1  0  0  0  0
 19 17  1  6  0  0  0
 19 23  1  0  0  0  0
 19 21  1  0  0  0  0
 20 22  1  1  0  0  0
 21 20  1  0  0  0  0
 23 18  1  0  0  0  0
 24 27  1  0  0  0  0
 25 29  1  0  0  0  0
 26 31  1  0  0  0  0
 27 28  2  0  0  0  0
 28 26  1  0  0  0  0
 29 31  2  0  0  0  0
 30 25  1  0  0  0  0
 32 25  1  0  0  0  0
 32 26  2  0  0  0  0
 33 32  1  0  0  0  0
 34 33  2  0  0  0  0
 34 27  1  0  0  0  0
M  END
>  <MODEL>
7

>  <REMARK>
 VINA RESULT:      -7.9      4.533     10.723
  Name = 
  6 active torsions:
  status: ('A' for Active; 'I' for Inactive)
    1  A    between atoms: C_3  and  C_13
    2  A    between atoms: C_3  and  C_14
    3  A    between atoms: C_6  and  O_21
    4  A    between atoms: C_7  and  O_21
    5  A    between atoms: C_8  and  C_13
    6  A    between atoms: C_8  and  C_27
                            x       y       z     vdW  Elec       q    Type
                         _______ _______ _______ _____ _____    ______ ____

>  <TORSDO>
F 6

$$$$
=
 OpenBabel11042416103D

 34 38  0  0  1  0  0  0  0  0999 V2000
  192.1730  174.3030  145.1200 O   0  0  0  0  0  0  0  0  0  0  0  0
  189.0570  176.9800  145.0070 C   0  0  2  0  0  3  0  0  0  0  0  0
  190.9020  174.8060  145.4540 C   0  0  2  0  0  3  0  0  0  0  0  0
  191.3130  173.2240  143.1380 C   0  0  0  0  0  2  0  0  0  0  0  0
  188.8630  175.6650  144.5470 O   0  0  0  0  0  0  0  0  0  0  0  0
  191.1430  175.5360  147.7630 N   0  0  0  0  0  1  0  0  0  0  0  0
  189.9090  176.9940  146.2560 C   0  0  0  0  0  0  0  0  0  0  0  0
  191.9640  173.0480  144.5190 C   0  0  1  0  0  3  0  0  0  0  0  0
  189.9730  173.9370  143.3000 C   0  0  2  0  0  3  0  0  0  0  0  0
  189.7630  177.8750  147.0890 O   0  0  0  0  0  0  0  0  0  0  0  0
  189.4400  174.3230  141.9340 C   0  0  0  0  0  1  0  0  0  0  0  0
  190.1270  175.1800  144.1780 C   0  0  2  0  0  3  0  0  0  0  0  0
  191.0480  176.0100  146.3910 C   0  0  2  0  0  3  0  0  0  0  0  0
  193.0550  170.7870  144.1990 C   0  0  0  0  0  1  0  0  0  0  0  0
  193.2810  172.2720  144.4530 C   0  0  2  0  0  3  0  0  0  0  0  0
  194.0980  172.4890  145.7170 C   0  0  0  0  0  2  0  0  0  0  0  0
  195.5800  172.5310  145.3910 C   0  0  0  0  0  2  0  0  0  0  0  0
  195.2760  176.0560  145.3850 C   0  0  0  0  0  2  0  0  0  0  0  0
  196.0500  173.9700  145.2760 C   0  0  1  0  0  3  0  0  0  0  0  0
  195.4710  175.8150  143.9070 C   0  0  2  0  0  3  0  0  0  0  0  0
  195.9890  174.4110  143.8330 C   0  0  0  0  0  2  0  0  0  0  0  0
  196.5070  176.7790  143.3660 C   0  0  0  0  0  1  0  0  0  0  0  0
  195.2200  174.8130  146.0320 O   0  0  0  0  0  0  0  0  0  0  0  0
  187.7950  177.5890  145.2590 O   0  0  0  0  0  0  0  0  0  0  0  0
  184.2070  178.1380  141.2040 N   0  0  0  0  0  0  0  0  0  0  0  0
  186.1960  177.9010  142.0160 C   0  0  0  0  0  0  0  0  0  0  0  0
  186.8240  177.7330  144.2660 C   0  0  0  0  0  0  0  0  0  0  0  0
  187.1760  177.7600  142.9410 N   0  0  0  0  0  0  0  0  0  0  0  0
  185.0900  178.0950  140.2100 N   0  0  0  0  0  0  0  0  0  0  0  0
  182.7720  178.2900  141.0350 C   0  0  0  0  0  1  0  0  0  0  0  0
  186.3310  177.9490  140.6780 N   0  0  0  0  0  0  0  0  0  0  0  0
  184.8900  178.0170  142.3480 C   0  0  0  0  0  0  0  0  0  0  0  0
  184.4610  177.9990  143.6690 C   0  0  0  0  0  3  0  0  0  0  0  0
  185.4630  177.8530  144.6480 C   0  0  0  0  0  3  0  0  0  0  0  0
  2 24  1  1  0  0  0
  2  7  1  0  0  0  0
  3  1  1  6  0  0  0
  3 13  1  0  0  0  0
  4  9  1  0  0  0  0
  4  8  1  0  0  0  0
  5  2  1  0  0  0  0
  7 13  1  0  0  0  0
  7 10  2  0  0  0  0
  8 15  1  6  0  0  0
  8  1  1  0  0  0  0
  9 11  1  6  0  0  0
  9 12  1  0  0  0  0
 12  5  1  1  0  0  0
 12  3  1  0  0  0  0
 13  6  1  1  0  0  0
 15 14  1  1  0  0  0
 15 16  1  0  0  0  0
 17 16  1  0  0  0  0
 18 23  1  0  0  0  0
 19 17  1  6  0  0  0
 19 23  1  0  0  0  0
 20 22  1  1  0  0  0
 20 18  1  0  0  0  0
 21 20  1  0  0  0  0
 21 19  1  0  0  0  0
 25 32  1  0  0  0  0
 26 32  2  0  0  0  0
 26 28  1  0  0  0  0
 27 34  1  0  0  0  0
 27 24  1  0  0  0  0
 28 27  2  0  0  0  0
 29 31  2  0  0  0  0
 29 25  1  0  0  0  0
 30 25  1  0  0  0  0
 31 26  1  0  0  0  0
 32 33  1  0  0  0  0
 33 34  2  0  0  0  0
M  END
>  <MODEL>
8

>  <REMARK>
 VINA RESULT:      -7.8      2.821      5.321
  Name = 
  6 active torsions:
  status: ('A' for Active; 'I' for Inactive)
    1  A    between atoms: C_3  and  C_13
    2  A    between atoms: C_3  and  C_14
    3  A    between atoms: C_6  and  O_21
    4  A    between atoms: C_7  and  O_21
    5  A    between atoms: C_8  and  C_13
    6  A    between atoms: C_8  and  C_27
                            x       y       z     vdW  Elec       q    Type
                         _______ _______ _______ _____ _____    ______ ____

>  <TORSDO>
F 6

$$$$
=
 OpenBabel11042416103D

 34 38  0  0  1  0  0  0  0  0999 V2000
  190.5050  176.5780  142.9600 O   0  0  0  0  0  0  0  0  0  0  0  0
  193.5880  175.9970  145.6150 C   0  0  2  0  0  3  0  0  0  0  0  0
  191.5540  175.8670  143.5700 C   0  0  2  0  0  3  0  0  0  0  0  0
  188.9290  175.8460  144.6360 C   0  0  0  0  0  2  0  0  0  0  0  0
  192.4520  175.1700  145.6740 O   0  0  0  0  0  0  0  0  0  0  0  0
  193.3080  175.8370  141.8820 N   0  0  0  0  0  1  0  0  0  0  0  0
  193.9800  176.2710  144.1800 C   0  0  0  0  0  0  0  0  0  0  0  0
  189.3370  175.8180  143.1550 C   0  0  1  0  0  3  0  0  0  0  0  0
  190.0590  175.2640  145.4810 C   0  0  2  0  0  3  0  0  0  0  0  0
  195.1490  176.4740  143.8910 O   0  0  0  0  0  0  0  0  0  0  0  0
  189.7640  175.5040  146.9490 C   0  0  0  0  0  1  0  0  0  0  0  0
  191.3970  175.8970  145.1000 C   0  0  2  0  0  3  0  0  0  0  0  0
  192.9030  176.4530  143.1360 C   0  0  2  0  0  3  0  0  0  0  0  0
  188.4330  177.7700  141.8220 C   0  0  0  0  0  1  0  0  0  0  0  0
  188.2260  176.3170  142.2290 C   0  0  2  0  0  3  0  0  0  0  0  0
  186.8610  176.1220  142.8720 C   0  0  0  0  0  2  0  0  0  0  0  0
  185.8330  177.0320  142.2230 C   0  0  0  0  0  2  0  0  0  0  0  0
  185.3980  179.7830  144.4050 C   0  0  0  0  0  2  0  0  0  0  0  0
  185.1440  177.8790  143.2770 C   0  0  1  0  0  3  0  0  0  0  0  0
  185.7470  178.7120  145.4120 C   0  0  2  0  0  3  0  0  0  0  0  0
  185.5800  177.4310  144.6530 C   0  0  0  0  0  2  0  0  0  0  0  0
  184.7700  178.7620  146.5690 C   0  0  0  0  0  1  0  0  0  0  0  0
  185.4920  179.2290  143.1200 O   0  0  0  0  0  0  0  0  0  0  0  0
  194.6640  175.3810  146.3140 O   0  0  0  0  0  0  0  0  0  0  0  0
  196.2590  170.3440  145.0080 N   0  0  0  0  0  0  0  0  0  0  0  0
  194.7800  171.8630  145.4280 C   0  0  0  0  0  0  0  0  0  0  0  0
  195.1400  174.1100  145.9830 C   0  0  0  0  0  0  0  0  0  0  0  0
  194.2690  173.0770  145.7470 N   0  0  0  0  0  0  0  0  0  0  0  0
  195.0410  169.8180  144.9070 N   0  0  0  0  0  0  0  0  0  0  0  0
  197.4990  169.6180  144.7940 C   0  0  0  0  0  1  0  0  0  0  0  0
  194.1030  170.7320  145.1600 N   0  0  0  0  0  0  0  0  0  0  0  0
  196.1090  171.6320  145.3370 C   0  0  0  0  0  0  0  0  0  0  0  0
  197.0490  172.6310  145.5640 C   0  0  0  0  0  3  0  0  0  0  0  0
  196.5390  173.9010  145.8960 C   0  0  0  0  0  3  0  0  0  0  0  0
  1  8  1  0  0  0  0
  2  5  1  0  0  0  0
  2 24  1  1  0  0  0
  3  1  1  6  0  0  0
  3 12  1  0  0  0  0
  4  9  1  0  0  0  0
  7  2  1  0  0  0  0
  8 15  1  6  0  0  0
  8  4  1  0  0  0  0
  9 11  1  1  0  0  0
 10  7  2  0  0  0  0
 12  9  1  0  0  0  0
 12  5  1  1  0  0  0
 13  6  1  6  0  0  0
 13  3  1  0  0  0  0
 13  7  1  0  0  0  0
 15 14  1  1  0  0  0
 15 16  1  0  0  0  0
 17 16  1  0  0  0  0
 18 20  1  0  0  0  0
 19 17  1  6  0  0  0
 19 21  1  0  0  0  0
 20 22  1  1  0  0  0
 21 20  1  0  0  0  0
 23 19  1  0  0  0  0
 23 18  1  0  0  0  0
 25 32  1  0  0  0  0
 26 28  1  0  0  0  0
 27 24  1  0  0  0  0
 28 27  2  0  0  0  0
 29 25  1  0  0  0  0
 29 31  2  0  0  0  0
 30 25  1  0  0  0  0
 31 26  1  0  0  0  0
 32 26  2  0  0  0  0
 32 33  1  0  0  0  0
 33 34  2  0  0  0  0
 34 27  1  0  0  0  0
M  END
>  <MODEL>
9

>  <REMARK>
 VINA RESULT:      -7.7      5.619     11.365
  Name = 
  6 active torsions:
  status: ('A' for Active; 'I' for Inactive)
    1  A    between atoms: C_3  and  C_13
    2  A    between atoms: C_3  and  C_14
    3  A    between atoms: C_6  and  O_21
    4  A    between atoms: C_7  and  O_21
    5  A    between atoms: C_8  and  C_13
    6  A    between atoms: C_8  and  C_27
                            x       y       z     vdW  Elec       q    Type
                         _______ _______ _______ _____ _____    ______ ____

>  <TORSDO>
F 6

$$$$
