=
 OpenBabel11042415353D

 47 52  0  0  1  0  0  0  0  0999 V2000
  189.7990  172.9600  141.1610 C   0  0  0  0  0  2  0  0  0  0  0  0
  189.2020  174.8070  142.8060 C   0  0  0  0  0  0  0  0  0  0  0  0
  190.7370  173.7300  144.4160 C   0  0  0  0  0  3  0  0  0  0  0  0
  189.5540  174.5420  144.0710 C   0  0  0  0  0  3  0  0  0  0  0  0
  190.0810  174.3750  141.6730 C   0  0  0  0  0  2  0  0  0  0  0  0
  190.9200  172.4600  144.0320 C   0  0  0  0  0  0  0  0  0  0  0  0
  189.3210  171.9430  142.1650 C   0  0  0  0  0  3  0  0  0  0  0  0
  189.8370  171.6980  143.3740 C   0  0  0  0  0  3  0  0  0  0  0  0
  187.0840  177.1360  140.8650 C   0  0  0  0  0  2  0  0  0  0  0  0
  187.5630  177.9750  142.0370 C   0  0  2  0  0  3  0  0  0  0  0  0
  187.9800  175.6190  142.4940 C   0  0  2  0  0  3  0  0  0  0  0  0
  187.7750  175.7990  141.0030 C   0  0  0  0  0  2  0  0  0  0  0  0
  188.0630  177.0110  143.0970 C   0  0  0  0  0  2  0  0  0  0  0  0
  186.4170  178.8020  142.5960 C   0  0  0  0  0  2  0  0  0  0  0  0
  185.2570  177.9060  143.0320 C   0  0  1  0  0  3  0  0  0  0  0  0
  185.7440  179.2180  145.1420 C   0  0  0  0  0  2  0  0  0  0  0  0
  185.5600  179.3060  146.6680 C   0  0  0  0  0  2  0  0  0  0  0  0
  185.5050  176.7170  145.2580 C   0  0  0  0  0  2  0  0  0  0  0  0
  185.7440  176.9320  146.7600 C   0  0  0  0  0  2  0  0  0  0  0  0
  185.0340  177.9970  144.5480 C   0  0  0  0  0  3  0  0  0  0  0  0
  184.9880  178.0850  147.2440 N   0  0  0  0  0  2  0  0  0  0  0  0
  184.0210  178.2840  142.2700 C   0  0  0  0  0  0  0  0  0  0  0  0
  184.0390  178.2670  140.8810 O   0  0  0  0  0  0  0  0  0  0  0  0
  182.9680  178.6190  142.8780 O   0  0  0  0  0  1  0  0  0  0  0  0
  192.1250  171.8130  144.4600 N   0  0  0  0  0  2  0  0  0  0  0  0
  193.3930  171.9180  142.4510 N   0  0  0  0  0  0  0  0  0  0  0  0
  193.3310  171.6050  143.7110 C   0  0  0  0  0  0  0  0  0  0  0  0
  194.5150  171.0260  144.4220 C   0  0  0  0  0  2  0  0  0  0  0  0
  195.0570  172.0220  145.4370 C   0  0  0  0  0  2  0  0  0  0  0  0
  195.3660  173.2250  144.8000 O   0  0  0  0  0  0  0  0  0  0  0  0
  195.2770  174.1930  145.8040 C   0  0  0  0  0  2  0  0  0  0  0  0
  194.4210  176.5020  144.8950 C   0  0  2  0  0  3  0  0  0  0  0  0
  193.1000  177.1110  144.7250 N   0  0  0  0  0  0  0  0  0  0  0  0
  192.5750  176.7150  143.4250 C   0  0  0  0  0  1  0  0  0  0  0  0
  194.1350  175.1460  145.5060 C   0  0  2  0  0  0  0  0  0  0  0  0
  192.2600  176.4740  145.7720 C   0  0  0  0  0  2  0  0  0  0  0  0
  194.4950  176.2850  146.3840 C   0  0  2  0  0  3  0  0  0  0  0  0
  193.1840  175.5750  146.5900 C   0  0  2  0  0  3  0  0  0  0  0  0
  194.5820  171.7240  141.6340 C   0  0  0  0  0  2  0  0  0  0  0  0
  195.2900  173.0480  141.4430 C   0  0  0  0  0  2  0  0  0  0  0  0
  193.3350  173.6160  139.6430 O   0  0  0  0  0  1  0  0  0  0  0  0
  195.6400  172.9270  138.6080 O   0  0  0  0  0  0  0  0  0  0  0  0
  194.8280  173.7560  139.8390 P   0  0  2  0  0  0  0  0  0  0  0  0
  195.2640  175.4210  139.8070 O   0  0  0  0  0  0  0  0  0  0  0  0
  196.3590  175.9400  140.5060 C   0  0  0  0  0  0  0  0  0  0  0  0
  197.7620  175.5320  140.1980 C   0  0  0  0  0  1  0  0  0  0  0  0
  196.1590  176.7760  141.4240 O   0  0  0  0  0  0  0  0  0  0  0  0
  1  5  1  0  0  0  0
  1  7  1  0  0  0  0
  2  4  2  0  0  0  0
  4  3  1  0  0  0  0
  5  2  1  0  0  0  0
  6  3  2  0  0  0  0
  6 25  1  0  0  0  0
  7  8  2  0  0  0  0
  8  6  1  0  0  0  0
  9 12  1  0  0  0  0
  9 10  1  0  0  0  0
 10 14  1  1  0  0  0
 10 13  1  0  0  0  0
 11  2  1  6  0  0  0
 11 13  1  0  0  0  0
 12 11  1  0  0  0  0
 15 14  1  6  0  0  0
 15 20  1  0  0  0  0
 16 17  1  0  0  0  0
 17 21  1  0  0  0  0
 18 19  1  0  0  0  0
 19 21  1  0  0  0  0
 20 16  1  0  0  0  0
 20 18  1  0  0  0  0
 22 24  1  0  0  0  0
 22 15  1  0  0  0  0
 23 22  2  0  0  0  0
 26 27  2  0  0  0  0
 27 28  1  0  0  0  0
 27 25  1  0  0  0  0
 28 29  1  0  0  0  0
 30 29  1  0  0  0  0
 30 31  1  0  0  0  0
 32 33  1  1  0  0  0
 32 35  1  0  0  0  0
 32 37  1  0  0  0  0
 33 36  1  0  0  0  0
 34 33  1  0  0  0  0
 35 31  1  6  0  0  0
 35 37  1  0  0  0  0
 35 38  1  0  0  0  0
 36 38  1  0  0  0  0
 37 38  1  0  0  0  0
 39 26  1  0  0  0  0
 40 39  1  0  0  0  0
 41 43  1  0  0  0  0
 42 43  2  0  0  0  0
 43 40  1  0  0  0  0
 44 43  1  0  0  0  0
 44 45  1  0  0  0  0
 45 47  2  0  0  0  0
 46 45  1  0  0  0  0
M  END
>  <MODEL>
1

>  <REMARK>
 VINA RESULT:      -6.9      0.000      0.000
  Name = 
  16 active torsions:
  status: ('A' for Active; 'I' for Inactive)
    1  A    between atoms: C_4  and  C_33
    2  A    between atoms: C_5  and  O_21
    3  A    between atoms: C_6  and  C_23
    4  A    between atoms: C_9  and  C_22
    5  A    between atoms: C_9  and  C_33
    6  A    between atoms: N_12  and  C_18
    7  A    between atoms: C_13  and  C_36
    8  A    between atoms: C_13  and  C_40
    9  A    between atoms: O_21  and  P_42
   10  A    between atoms: C_28  and  C_33
   11  A    between atoms: C_32  and  C_35
   12  A    between atoms: C_32  and  O_46
   13  A    between atoms: C_36  and  O_46
   14  A    between atoms: N_39  and  C_41
   15  A    between atoms: C_41  and  C_45
   16  A    between atoms: P_42  and  C_45
                            x       y       z     vdW  Elec       q    Type
                         _______ _______ _______ _____ _____    ______ ____

>  <TORSDO>
F 16

$$$$
=
 OpenBabel11042415353D

 47 52  0  0  1  0  0  0  0  0999 V2000
  191.9350  176.0900  146.9750 C   0  0  0  0  0  2  0  0  0  0  0  0
  189.5130  175.5560  146.4050 C   0  0  0  0  0  0  0  0  0  0  0  0
  190.3390  173.5470  145.2260 C   0  0  0  0  0  3  0  0  0  0  0  0
  189.3720  174.6420  145.4360 C   0  0  0  0  0  3  0  0  0  0  0  0
  190.6220  175.4310  147.4040 C   0  0  0  0  0  2  0  0  0  0  0  0
  191.6380  173.7280  144.9540 C   0  0  0  0  0  0  0  0  0  0  0  0
  192.2540  176.1010  145.5020 C   0  0  0  0  0  3  0  0  0  0  0  0
  192.1740  175.0730  144.6510 C   0  0  0  0  0  3  0  0  0  0  0  0
  186.1600  177.1040  146.6110 C   0  0  0  0  0  2  0  0  0  0  0  0
  186.6680  177.5240  145.2420 C   0  0  2  0  0  3  0  0  0  0  0  0
  188.5200  176.6670  146.5740 C   0  0  2  0  0  3  0  0  0  0  0  0
  187.2160  176.1860  147.1810 C   0  0  0  0  0  2  0  0  0  0  0  0
  188.1720  177.3150  145.2440 C   0  0  0  0  0  2  0  0  0  0  0  0
  186.3560  178.9890  144.9910 C   0  0  0  0  0  2  0  0  0  0  0  0
  185.4810  179.1570  143.7490 C   0  0  1  0  0  3  0  0  0  0  0  0
  187.3810  178.5750  142.1810 C   0  0  0  0  0  2  0  0  0  0  0  0
  187.8580  177.6810  141.0210 C   0  0  0  0  0  2  0  0  0  0  0  0
  185.0020  178.3030  141.4090 C   0  0  0  0  0  2  0  0  0  0  0  0
  185.6560  177.7920  140.1170 C   0  0  0  0  0  2  0  0  0  0  0  0
  185.9520  178.2340  142.6160 C   0  0  0  0  0  3  0  0  0  0  0  0
  186.7720  176.9000  140.4200 N   0  0  0  0  0  2  0  0  0  0  0  0
  184.0470  178.8990  144.1090 C   0  0  0  0  0  0  0  0  0  0  0  0
  183.6240  179.0880  145.4180 O   0  0  0  0  0  1  0  0  0  0  0  0
  183.2250  178.5090  143.2360 O   0  0  0  0  0  0  0  0  0  0  0  0
  192.4390  172.5540  144.7710 N   0  0  0  0  0  2  0  0  0  0  0  0
  191.9630  172.0740  142.4900 N   0  0  0  0  0  0  0  0  0  0  0  0
  192.6340  171.7950  143.5680 C   0  0  0  0  0  0  0  0  0  0  0  0
  193.6360  170.6820  143.5890 C   0  0  0  0  0  2  0  0  0  0  0  0
  195.0490  171.2460  143.5480 C   0  0  0  0  0  2  0  0  0  0  0  0
  195.8280  170.6390  144.5350 O   0  0  0  0  0  0  0  0  0  0  0  0
  195.9240  171.5940  145.5500 C   0  0  0  0  0  2  0  0  0  0  0  0
  197.6180  173.4370  144.7560 C   0  0  2  0  0  3  0  0  0  0  0  0
  197.4810  174.7570  144.1380 N   0  0  0  0  0  0  0  0  0  0  0  0
  197.4160  174.5840  142.6940 C   0  0  0  0  0  1  0  0  0  0  0  0
  196.1930  172.9630  144.9520 C   0  0  2  0  0  0  0  0  0  0  0  0
  196.1580  175.2490  144.6020 C   0  0  0  0  0  2  0  0  0  0  0  0
  196.9090  173.6140  146.0740 C   0  0  2  0  0  3  0  0  0  0  0  0
  195.6180  174.2050  145.5770 C   0  0  2  0  0  3  0  0  0  0  0  0
  192.1090  171.3390  141.2430 C   0  0  0  0  0  2  0  0  0  0  0  0
  190.7710  170.7580  140.8350 C   0  0  0  0  0  2  0  0  0  0  0  0
  189.6250  170.7800  138.3720 O   0  0  0  0  0  0  0  0  0  0  0  0
  191.2800  172.7520  138.8510 O   0  0  0  0  0  1  0  0  0  0  0  0
  190.0850  171.7220  139.4620 P   0  0  2  0  0  0  0  0  0  0  0  0
  188.7500  172.6490  140.0310 O   0  0  0  0  0  0  0  0  0  0  0  0
  188.7130  173.2380  141.2990 C   0  0  0  0  0  0  0  0  0  0  0  0
  189.5090  174.4560  141.6320 C   0  0  0  0  0  1  0  0  0  0  0  0
  187.9850  172.7280  142.1890 O   0  0  0  0  0  0  0  0  0  0  0  0
  1  5  1  0  0  0  0
  2  5  1  0  0  0  0
  3  4  1  0  0  0  0
  4  2  2  0  0  0  0
  6  3  2  0  0  0  0
  7  1  1  0  0  0  0
  8  6  1  0  0  0  0
  8  7  2  0  0  0  0
  9 12  1  0  0  0  0
 10 14  1  1  0  0  0
 10 13  1  0  0  0  0
 10  9  1  0  0  0  0
 11  2  1  6  0  0  0
 11 12  1  0  0  0  0
 13 11  1  0  0  0  0
 15 22  1  0  0  0  0
 15 14  1  1  0  0  0
 16 20  1  0  0  0  0
 17 16  1  0  0  0  0
 18 20  1  0  0  0  0
 19 21  1  0  0  0  0
 19 18  1  0  0  0  0
 20 15  1  0  0  0  0
 21 17  1  0  0  0  0
 22 23  1  0  0  0  0
 24 22  2  0  0  0  0
 25  6  1  0  0  0  0
 26 27  2  0  0  0  0
 27 28  1  0  0  0  0
 27 25  1  0  0  0  0
 29 28  1  0  0  0  0
 29 30  1  0  0  0  0
 30 31  1  0  0  0  0
 32 33  1  6  0  0  0
 32 35  1  0  0  0  0
 32 37  1  0  0  0  0
 33 36  1  0  0  0  0
 34 33  1  0  0  0  0
 35 31  1  6  0  0  0
 35 38  1  0  0  0  0
 35 37  1  0  0  0  0
 36 38  1  0  0  0  0
 38 37  1  0  0  0  0
 39 26  1  0  0  0  0
 40 39  1  0  0  0  0
 41 43  2  0  0  0  0
 42 43  1  0  0  0  0
 43 44  1  0  0  0  0
 43 40  1  0  0  0  0
 44 45  1  0  0  0  0
 45 46  1  0  0  0  0
 45 47  2  0  0  0  0
M  END
>  <MODEL>
2

>  <REMARK>
 VINA RESULT:      -6.9      2.541      4.581
  Name = 
  16 active torsions:
  status: ('A' for Active; 'I' for Inactive)
    1  A    between atoms: C_4  and  C_33
    2  A    between atoms: C_5  and  O_21
    3  A    between atoms: C_6  and  C_23
    4  A    between atoms: C_9  and  C_22
    5  A    between atoms: C_9  and  C_33
    6  A    between atoms: N_12  and  C_18
    7  A    between atoms: C_13  and  C_36
    8  A    between atoms: C_13  and  C_40
    9  A    between atoms: O_21  and  P_42
   10  A    between atoms: C_28  and  C_33
   11  A    between atoms: C_32  and  C_35
   12  A    between atoms: C_32  and  O_46
   13  A    between atoms: C_36  and  O_46
   14  A    between atoms: N_39  and  C_41
   15  A    between atoms: C_41  and  C_45
   16  A    between atoms: P_42  and  C_45
                            x       y       z     vdW  Elec       q    Type
                         _______ _______ _______ _____ _____    ______ ____

>  <TORSDO>
F 16

$$$$
=
 OpenBabel11042415353D

 47 52  0  0  1  0  0  0  0  0999 V2000
  188.6410  173.8310  142.5170 C   0  0  0  0  0  2  0  0  0  0  0  0
  190.0140  175.7500  143.4700 C   0  0  0  0  0  0  0  0  0  0  0  0
  188.1890  177.2660  142.7760 C   0  0  0  0  0  3  0  0  0  0  0  0
  189.6030  176.9610  143.0730 C   0  0  0  0  0  3  0  0  0  0  0  0
  189.0160  174.6670  143.7430 C   0  0  0  0  0  2  0  0  0  0  0  0
  187.4630  176.6420  141.8400 C   0  0  0  0  0  0  0  0  0  0  0  0
  188.6420  174.5250  141.1790 C   0  0  0  0  0  3  0  0  0  0  0  0
  188.0920  175.7070  140.8830 C   0  0  0  0  0  3  0  0  0  0  0  0
  193.5490  176.5750  144.1760 C   0  0  0  0  0  2  0  0  0  0  0  0
  193.5590  176.1660  142.7140 C   0  0  2  0  0  3  0  0  0  0  0  0
  191.4620  175.4720  143.7420 C   0  0  2  0  0  3  0  0  0  0  0  0
  192.1010  176.5420  144.6060 C   0  0  0  0  0  2  0  0  0  0  0  0
  192.2710  175.4050  142.4570 C   0  0  0  0  0  2  0  0  0  0  0  0
  194.7500  175.2670  142.4260 C   0  0  0  0  0  2  0  0  0  0  0  0
  195.5080  174.9340  143.7110 C   0  0  1  0  0  3  0  0  0  0  0  0
  194.6750  172.6770  142.9240 C   0  0  0  0  0  2  0  0  0  0  0  0
  194.5350  171.1780  143.2480 C   0  0  0  0  0  2  0  0  0  0  0  0
  194.7100  173.2030  145.3830 C   0  0  0  0  0  2  0  0  0  0  0  0
  194.1720  171.7720  145.5270 C   0  0  0  0  0  2  0  0  0  0  0  0
  195.4090  173.4370  144.0340 C   0  0  0  0  0  3  0  0  0  0  0  0
  194.8860  170.8610  144.6360 N   0  0  0  0  0  2  0  0  0  0  0  0
  196.9360  175.3750  143.5760 C   0  0  0  0  0  0  0  0  0  0  0  0
  197.9410  174.6460  144.2000 O   0  0  0  0  0  1  0  0  0  0  0  0
  197.2320  176.4010  142.9060 O   0  0  0  0  0  0  0  0  0  0  0  0
  186.1030  177.0660  141.6760 N   0  0  0  0  0  2  0  0  0  0  0  0
  185.6480  177.8710  143.8670 N   0  0  0  0  0  0  0  0  0  0  0  0
  185.2550  177.7070  142.6400 C   0  0  0  0  0  0  0  0  0  0  0  0
  183.9100  178.1860  142.1890 C   0  0  0  0  0  2  0  0  0  0  0  0
  183.8690  178.2870  140.6710 C   0  0  0  0  0  2  0  0  0  0  0  0
  182.5490  178.1980  140.2260 O   0  0  0  0  0  0  0  0  0  0  0  0
  181.7760  178.2620  141.3890 C   0  0  0  0  0  2  0  0  0  0  0  0
  179.5830  179.5430  140.7250 C   0  0  2  0  0  3  0  0  0  0  0  0
  178.2150  179.1340  140.4020 N   0  0  0  0  0  0  0  0  0  0  0  0
  178.1480  178.8410  138.9770 C   0  0  0  0  0  1  0  0  0  0  0  0
  180.3010  178.2470  141.0340 C   0  0  2  0  0  0  0  0  0  0  0  0
  178.0230  177.8610  141.1420 C   0  0  0  0  0  2  0  0  0  0  0  0
  179.7460  179.0590  142.1420 C   0  0  2  0  0  3  0  0  0  0  0  0
  179.2900  177.6360  141.9660 C   0  0  2  0  0  3  0  0  0  0  0  0
  184.8330  178.5050  144.8930 C   0  0  0  0  0  2  0  0  0  0  0  0
  184.6590  177.5580  146.0620 C   0  0  0  0  0  2  0  0  0  0  0  0
  185.9360  176.7030  148.3020 O   0  0  0  0  0  1  0  0  0  0  0  0
  186.3300  179.2170  147.6830 O   0  0  0  0  0  0  0  0  0  0  0  0
  186.1250  177.6330  147.1250 P   0  0  2  0  0  0  0  0  0  0  0  0
  187.5070  177.1500  146.2190 O   0  0  0  0  0  0  0  0  0  0  0  0
  188.6770  176.6610  146.8090 C   0  0  0  0  0  0  0  0  0  0  0  0
  189.8280  177.5510  147.1460 C   0  0  0  0  0  1  0  0  0  0  0  0
  188.7660  175.4330  147.0650 O   0  0  0  0  0  0  0  0  0  0  0  0
  1  5  1  0  0  0  0
  2  5  1  0  0  0  0
  3  4  1  0  0  0  0
  4  2  2  0  0  0  0
  6  3  2  0  0  0  0
  7  1  1  0  0  0  0
  8  7  2  0  0  0  0
  8  6  1  0  0  0  0
  9 12  1  0  0  0  0
 10 14  1  1  0  0  0
 10  9  1  0  0  0  0
 11  2  1  6  0  0  0
 11 12  1  0  0  0  0
 13 10  1  0  0  0  0
 13 11  1  0  0  0  0
 15 14  1  6  0  0  0
 15 20  1  0  0  0  0
 16 17  1  0  0  0  0
 16 20  1  0  0  0  0
 17 21  1  0  0  0  0
 18 19  1  0  0  0  0
 20 18  1  0  0  0  0
 21 19  1  0  0  0  0
 22 15  1  0  0  0  0
 22 23  1  0  0  0  0
 24 22  2  0  0  0  0
 25  6  1  0  0  0  0
 25 27  1  0  0  0  0
 26 39  1  0  0  0  0
 27 26  2  0  0  0  0
 28 27  1  0  0  0  0
 29 28  1  0  0  0  0
 30 29  1  0  0  0  0
 30 31  1  0  0  0  0
 32 33  1  6  0  0  0
 32 35  1  0  0  0  0
 32 37  1  0  0  0  0
 33 36  1  0  0  0  0
 34 33  1  0  0  0  0
 35 31  1  6  0  0  0
 35 38  1  0  0  0  0
 35 37  1  0  0  0  0
 36 38  1  0  0  0  0
 38 37  1  0  0  0  0
 39 40  1  0  0  0  0
 40 43  1  0  0  0  0
 43 42  2  0  0  0  0
 43 41  1  0  0  0  0
 44 45  1  0  0  0  0
 44 43  1  0  0  0  0
 45 47  2  0  0  0  0
 45 46  1  0  0  0  0
M  END
>  <MODEL>
3

>  <REMARK>
 VINA RESULT:      -6.8      3.896     11.040
  Name = 
  16 active torsions:
  status: ('A' for Active; 'I' for Inactive)
    1  A    between atoms: C_4  and  C_33
    2  A    between atoms: C_5  and  O_21
    3  A    between atoms: C_6  and  C_23
    4  A    between atoms: C_9  and  C_22
    5  A    between atoms: C_9  and  C_33
    6  A    between atoms: N_12  and  C_18
    7  A    between atoms: C_13  and  C_36
    8  A    between atoms: C_13  and  C_40
    9  A    between atoms: O_21  and  P_42
   10  A    between atoms: C_28  and  C_33
   11  A    between atoms: C_32  and  C_35
   12  A    between atoms: C_32  and  O_46
   13  A    between atoms: C_36  and  O_46
   14  A    between atoms: N_39  and  C_41
   15  A    between atoms: C_41  and  C_45
   16  A    between atoms: P_42  and  C_45
                            x       y       z     vdW  Elec       q    Type
                         _______ _______ _______ _____ _____    ______ ____

>  <TORSDO>
F 16

$$$$
=
 OpenBabel11042415353D

 47 52  0  0  1  0  0  0  0  0999 V2000
  191.1500  173.8040  141.3520 C   0  0  0  0  0  2  0  0  0  0  0  0
  189.5870  174.5710  143.2070 C   0  0  0  0  0  0  0  0  0  0  0  0
  190.7400  172.9740  144.7000 C   0  0  0  0  0  3  0  0  0  0  0  0
  189.5640  173.7550  144.2690 C   0  0  0  0  0  3  0  0  0  0  0  0
  190.8670  174.8120  142.4690 C   0  0  0  0  0  2  0  0  0  0  0  0
  191.3650  172.0680  143.9380 C   0  0  0  0  0  0  0  0  0  0  0  0
  190.6570  172.3940  141.5500 C   0  0  0  0  0  3  0  0  0  0  0  0
  190.7960  171.6360  142.6430 C   0  0  0  0  0  3  0  0  0  0  0  0
  187.4350  176.5420  140.9350 C   0  0  0  0  0  2  0  0  0  0  0  0
  187.9600  177.5730  141.9200 C   0  0  2  0  0  3  0  0  0  0  0  0
  188.3650  175.3320  142.7880 C   0  0  2  0  0  3  0  0  0  0  0  0
  188.1150  175.2410  141.2950 C   0  0  0  0  0  2  0  0  0  0  0  0
  188.4820  176.8100  143.1240 C   0  0  0  0  0  2  0  0  0  0  0  0
  186.8410  178.5060  142.3520 C   0  0  0  0  0  2  0  0  0  0  0  0
  185.5720  177.7230  142.6860 C   0  0  1  0  0  3  0  0  0  0  0  0
  185.8670  179.1250  144.7730 C   0  0  0  0  0  2  0  0  0  0  0  0
  185.5340  179.2850  146.2680 C   0  0  0  0  0  2  0  0  0  0  0  0
  185.5810  176.6350  144.9770 C   0  0  0  0  0  2  0  0  0  0  0  0
  185.6730  176.9160  146.4830 C   0  0  0  0  0  2  0  0  0  0  0  0
  185.2010  177.8860  144.1670 C   0  0  0  0  0  3  0  0  0  0  0  0
  184.8900  178.0970  146.8370 N   0  0  0  0  0  2  0  0  0  0  0  0
  184.4570  178.1710  141.7870 C   0  0  0  0  0  0  0  0  0  0  0  0
  184.7380  178.5380  140.4770 O   0  0  0  0  0  0  0  0  0  0  0  0
  183.2710  178.2210  142.2100 O   0  0  0  0  0  1  0  0  0  0  0  0
  192.4900  171.3920  144.5140 N   0  0  0  0  0  2  0  0  0  0  0  0
  194.1160  173.1260  144.4150 N   0  0  0  0  0  0  0  0  0  0  0  0
  193.7940  171.9240  144.7910 C   0  0  0  0  0  0  0  0  0  0  0  0
  194.7680  171.0590  145.5300 C   0  0  0  0  0  2  0  0  0  0  0  0
  195.3540  170.0100  144.5960 C   0  0  0  0  0  2  0  0  0  0  0  0
  196.7480  170.0580  144.6470 O   0  0  0  0  0  0  0  0  0  0  0  0
  197.1600  169.8150  143.3340 C   0  0  0  0  0  2  0  0  0  0  0  0
  196.1570  170.6240  141.0470 C   0  0  2  0  0  3  0  0  0  0  0  0
  195.7830  171.9280  140.4950 N   0  0  0  0  0  0  0  0  0  0  0  0
  194.4110  172.2160  140.8860 C   0  0  0  0  0  1  0  0  0  0  0  0
  196.6940  170.9380  142.4270 C   0  0  2  0  0  0  0  0  0  0  0  0
  196.6720  172.8940  141.1920 C   0  0  0  0  0  2  0  0  0  0  0  0
  197.6350  170.7800  141.2920 C   0  0  2  0  0  3  0  0  0  0  0  0
  197.6160  172.0710  142.0650 C   0  0  2  0  0  3  0  0  0  0  0  0
  195.4220  173.7200  144.6580 C   0  0  0  0  0  2  0  0  0  0  0  0
  195.3100  174.7710  145.7420 C   0  0  0  0  0  2  0  0  0  0  0  0
  194.5880  176.3580  143.6580 O   0  0  0  0  0  0  0  0  0  0  0  0
  194.7540  177.5660  145.9760 O   0  0  0  0  0  1  0  0  0  0  0  0
  194.3210  176.1640  145.1340 P   0  0  2  0  0  0  0  0  0  0  0  0
  192.6520  175.8250  145.3820 O   0  0  0  0  0  0  0  0  0  0  0  0
  191.6530  176.8020  145.3150 C   0  0  0  0  0  0  0  0  0  0  0  0
  190.5160  176.8430  146.2820 C   0  0  0  0  0  1  0  0  0  0  0  0
  191.7120  177.6760  144.4120 O   0  0  0  0  0  0  0  0  0  0  0  0
  1  7  1  0  0  0  0
  1  5  1  0  0  0  0
  2  4  2  0  0  0  0
  4  3  1  0  0  0  0
  5  2  1  0  0  0  0
  6 25  1  0  0  0  0
  6  3  2  0  0  0  0
  7  8  2  0  0  0  0
  8  6  1  0  0  0  0
  9 12  1  0  0  0  0
  9 10  1  0  0  0  0
 10 14  1  1  0  0  0
 10 13  1  0  0  0  0
 11 13  1  0  0  0  0
 11  2  1  6  0  0  0
 12 11  1  0  0  0  0
 15 14  1  6  0  0  0
 15 20  1  0  0  0  0
 16 17  1  0  0  0  0
 17 21  1  0  0  0  0
 18 19  1  0  0  0  0
 19 21  1  0  0  0  0
 20 16  1  0  0  0  0
 20 18  1  0  0  0  0
 22 24  1  0  0  0  0
 22 15  1  0  0  0  0
 23 22  2  0  0  0  0
 25 27  1  0  0  0  0
 26 39  1  0  0  0  0
 26 27  2  0  0  0  0
 27 28  1  0  0  0  0
 29 30  1  0  0  0  0
 29 28  1  0  0  0  0
 31 30  1  0  0  0  0
 32 33  1  6  0  0  0
 32 37  1  0  0  0  0
 32 35  1  0  0  0  0
 33 34  1  0  0  0  0
 33 36  1  0  0  0  0
 35 31  1  1  0  0  0
 36 38  1  0  0  0  0
 37 38  1  0  0  0  0
 37 35  1  0  0  0  0
 38 35  1  0  0  0  0
 39 40  1  0  0  0  0
 41 43  2  0  0  0  0
 43 44  1  0  0  0  0
 43 40  1  0  0  0  0
 43 42  1  0  0  0  0
 45 44  1  0  0  0  0
 45 46  1  0  0  0  0
 47 45  2  0  0  0  0
M  END
>  <MODEL>
4

>  <REMARK>
 VINA RESULT:      -6.8      2.140      4.088
  Name = 
  16 active torsions:
  status: ('A' for Active; 'I' for Inactive)
    1  A    between atoms: C_4  and  C_33
    2  A    between atoms: C_5  and  O_21
    3  A    between atoms: C_6  and  C_23
    4  A    between atoms: C_9  and  C_22
    5  A    between atoms: C_9  and  C_33
    6  A    between atoms: N_12  and  C_18
    7  A    between atoms: C_13  and  C_36
    8  A    between atoms: C_13  and  C_40
    9  A    between atoms: O_21  and  P_42
   10  A    between atoms: C_28  and  C_33
   11  A    between atoms: C_32  and  C_35
   12  A    between atoms: C_32  and  O_46
   13  A    between atoms: C_36  and  O_46
   14  A    between atoms: N_39  and  C_41
   15  A    between atoms: C_41  and  C_45
   16  A    between atoms: P_42  and  C_45
                            x       y       z     vdW  Elec       q    Type
                         _______ _______ _______ _____ _____    ______ ____

>  <TORSDO>
F 16

$$$$
=
 OpenBabel11042415353D

 47 52  0  0  1  0  0  0  0  0999 V2000
  191.9500  175.4570  142.4150 C   0  0  0  0  0  2  0  0  0  0  0  0
  190.3520  175.6710  144.3840 C   0  0  0  0  0  0  0  0  0  0  0  0
  192.0220  174.4560  145.7410 C   0  0  0  0  0  3  0  0  0  0  0  0
  190.6420  174.8590  145.4090 C   0  0  0  0  0  3  0  0  0  0  0  0
  191.4520  176.3040  143.5890 C   0  0  0  0  0  2  0  0  0  0  0  0
  192.8390  173.8000  144.9080 C   0  0  0  0  0  0  0  0  0  0  0  0
  191.9130  173.9590  142.5780 C   0  0  0  0  0  3  0  0  0  0  0  0
  192.3420  173.2500  143.6280 C   0  0  0  0  0  3  0  0  0  0  0  0
  187.3700  176.1390  142.2470 C   0  0  0  0  0  2  0  0  0  0  0  0
  187.8790  177.5520  142.4710 C   0  0  2  0  0  3  0  0  0  0  0  0
  188.9340  176.0410  144.0640 C   0  0  2  0  0  3  0  0  0  0  0  0
  188.3720  175.2270  142.9150 C   0  0  0  0  0  2  0  0  0  0  0  0
  188.8120  177.5030  143.6670 C   0  0  0  0  0  2  0  0  0  0  0  0
  186.7190  178.4890  142.7660 C   0  0  0  0  0  2  0  0  0  0  0  0
  185.4730  177.7060  143.1770 C   0  0  1  0  0  3  0  0  0  0  0  0
  185.8590  179.1560  145.2160 C   0  0  0  0  0  2  0  0  0  0  0  0
  185.5930  179.3500  146.7210 C   0  0  0  0  0  2  0  0  0  0  0  0
  185.5860  176.6700  145.4890 C   0  0  0  0  0  2  0  0  0  0  0  0
  185.7450  176.9860  146.9830 C   0  0  0  0  0  2  0  0  0  0  0  0
  185.1690  177.9020  144.6690 C   0  0  0  0  0  3  0  0  0  0  0  0
  184.9770  178.1740  147.3450 N   0  0  0  0  0  2  0  0  0  0  0  0
  184.3150  178.1240  142.3190 C   0  0  0  0  0  0  0  0  0  0  0  0
  184.4160  178.0340  140.9370 O   0  0  0  0  0  0  0  0  0  0  0  0
  183.2530  178.5600  142.8410 O   0  0  0  0  0  1  0  0  0  0  0  0
  194.1490  173.4780  145.3920 N   0  0  0  0  0  2  0  0  0  0  0  0
  195.4440  175.0620  144.1790 N   0  0  0  0  0  0  0  0  0  0  0  0
  195.3910  174.1260  145.0790 C   0  0  0  0  0  0  0  0  0  0  0  0
  196.6180  173.6980  145.8220 C   0  0  0  0  0  2  0  0  0  0  0  0
  197.0590  172.3170  145.3600 C   0  0  0  0  0  2  0  0  0  0  0  0
  196.9020  171.3980  146.4000 O   0  0  0  0  0  0  0  0  0  0  0  0
  195.9090  170.5210  145.9550 C   0  0  0  0  0  2  0  0  0  0  0  0
  195.0020  170.2070  143.5110 C   0  0  2  0  0  3  0  0  0  0  0  0
  195.6100  169.8410  142.2310 N   0  0  0  0  0  0  0  0  0  0  0  0
  196.1100  171.0520  141.5960 C   0  0  0  0  0  1  0  0  0  0  0  0
  196.1480  170.1630  144.5000 C   0  0  2  0  0  0  0  0  0  0  0  0
  196.7790  169.0010  142.6020 C   0  0  0  0  0  2  0  0  0  0  0  0
  195.2560  168.9880  144.3590 C   0  0  2  0  0  3  0  0  0  0  0  0
  196.7330  168.8310  144.1190 C   0  0  2  0  0  3  0  0  0  0  0  0
  196.6710  175.7510  143.8100 C   0  0  0  0  0  2  0  0  0  0  0  0
  197.3250  175.0380  142.6450 C   0  0  0  0  0  2  0  0  0  0  0  0
  197.4330  175.4190  139.9580 O   0  0  0  0  0  0  0  0  0  0  0  0
  195.8100  177.0180  141.2480 O   0  0  0  0  0  1  0  0  0  0  0  0
  196.4570  175.4620  141.1110 P   0  0  2  0  0  0  0  0  0  0  0  0
  195.1920  174.3250  140.8440 O   0  0  0  0  0  0  0  0  0  0  0  0
  194.5740  174.1440  139.6020 C   0  0  0  0  0  0  0  0  0  0  0  0
  195.0440  173.1190  138.6240 C   0  0  0  0  0  1  0  0  0  0  0  0
  193.5910  174.8670  139.2980 O   0  0  0  0  0  0  0  0  0  0  0  0
  1  7  1  0  0  0  0
  1  5  1  0  0  0  0
  2  4  2  0  0  0  0
  4  3  1  0  0  0  0
  5  2  1  0  0  0  0
  6 25  1  0  0  0  0
  6  3  2  0  0  0  0
  7  8  2  0  0  0  0
  8  6  1  0  0  0  0
  9 10  1  0  0  0  0
  9 12  1  0  0  0  0
 10 14  1  1  0  0  0
 10 13  1  0  0  0  0
 11  2  1  6  0  0  0
 12 11  1  0  0  0  0
 13 11  1  0  0  0  0
 15 14  1  6  0  0  0
 15 20  1  0  0  0  0
 16 17  1  0  0  0  0
 17 21  1  0  0  0  0
 18 19  1  0  0  0  0
 19 21  1  0  0  0  0
 20 16  1  0  0  0  0
 20 18  1  0  0  0  0
 22 24  1  0  0  0  0
 22 15  1  0  0  0  0
 23 22  2  0  0  0  0
 26 27  2  0  0  0  0
 27 25  1  0  0  0  0
 27 28  1  0  0  0  0
 29 28  1  0  0  0  0
 29 30  1  0  0  0  0
 31 30  1  0  0  0  0
 32 33  1  6  0  0  0
 32 37  1  0  0  0  0
 32 35  1  0  0  0  0
 33 36  1  0  0  0  0
 34 33  1  0  0  0  0
 35 31  1  1  0  0  0
 36 38  1  0  0  0  0
 37 35  1  0  0  0  0
 38 37  1  0  0  0  0
 38 35  1  0  0  0  0
 39 26  1  0  0  0  0
 40 39  1  0  0  0  0
 41 43  2  0  0  0  0
 43 42  1  0  0  0  0
 43 40  1  0  0  0  0
 44 43  1  0  0  0  0
 45 44  1  0  0  0  0
 46 45  1  0  0  0  0
 47 45  2  0  0  0  0
M  END
>  <MODEL>
5

>  <REMARK>
 VINA RESULT:      -6.7      1.820      3.773
  Name = 
  16 active torsions:
  status: ('A' for Active; 'I' for Inactive)
    1  A    between atoms: C_4  and  C_33
    2  A    between atoms: C_5  and  O_21
    3  A    between atoms: C_6  and  C_23
    4  A    between atoms: C_9  and  C_22
    5  A    between atoms: C_9  and  C_33
    6  A    between atoms: N_12  and  C_18
    7  A    between atoms: C_13  and  C_36
    8  A    between atoms: C_13  and  C_40
    9  A    between atoms: O_21  and  P_42
   10  A    between atoms: C_28  and  C_33
   11  A    between atoms: C_32  and  C_35
   12  A    between atoms: C_32  and  O_46
   13  A    between atoms: C_36  and  O_46
   14  A    between atoms: N_39  and  C_41
   15  A    between atoms: C_41  and  C_45
   16  A    between atoms: P_42  and  C_45
                            x       y       z     vdW  Elec       q    Type
                         _______ _______ _______ _____ _____    ______ ____

>  <TORSDO>
F 16

$$$$
=
 OpenBabel11042415353D

 47 52  0  0  1  0  0  0  0  0999 V2000
  191.3450  176.8890  143.1370 C   0  0  0  0  0  2  0  0  0  0  0  0
  190.4040  177.0840  145.4930 C   0  0  0  0  0  0  0  0  0  0  0  0
  192.3400  175.7540  146.2660 C   0  0  0  0  0  3  0  0  0  0  0  0
  190.9430  176.2210  146.3650 C   0  0  0  0  0  3  0  0  0  0  0  0
  191.2530  177.7070  144.4270 C   0  0  0  0  0  2  0  0  0  0  0  0
  192.8450  175.1020  145.2120 C   0  0  0  0  0  0  0  0  0  0  0  0
  191.2860  175.3890  143.2620 C   0  0  0  0  0  3  0  0  0  0  0  0
  191.9700  174.6230  144.1200 C   0  0  0  0  0  3  0  0  0  0  0  0
  186.9080  176.9410  146.6890 C   0  0  0  0  0  2  0  0  0  0  0  0
  186.8210  176.4360  145.2590 C   0  0  2  0  0  3  0  0  0  0  0  0
  188.9740  177.5190  145.6150 C   0  0  2  0  0  3  0  0  0  0  0  0
  188.3770  177.1620  146.9620 C   0  0  0  0  0  2  0  0  0  0  0  0
  188.0980  176.8650  144.5590 C   0  0  0  0  0  2  0  0  0  0  0  0
  185.6220  177.0490  144.5550 C   0  0  0  0  0  2  0  0  0  0  0  0
  185.9450  178.4530  144.0440 C   0  0  1  0  0  3  0  0  0  0  0  0
  184.2990  177.9870  142.1770 C   0  0  0  0  0  2  0  0  0  0  0  0
  184.0230  178.0580  140.6640 C   0  0  0  0  0  2  0  0  0  0  0  0
  186.7690  177.8620  141.7200 C   0  0  0  0  0  2  0  0  0  0  0  0
  186.3180  177.5360  140.2890 C   0  0  0  0  0  2  0  0  0  0  0  0
  185.6720  178.5640  142.5370 C   0  0  0  0  0  3  0  0  0  0  0  0
  185.2160  178.4050  139.8840 N   0  0  0  0  0  2  0  0  0  0  0  0
  185.1530  179.4620  144.8220 C   0  0  0  0  0  0  0  0  0  0  0  0
  184.2160  179.0300  145.7530 O   0  0  0  0  0  1  0  0  0  0  0  0
  185.3270  180.6970  144.6370 O   0  0  0  0  0  0  0  0  0  0  0  0
  194.2220  174.7120  145.2800 N   0  0  0  0  0  2  0  0  0  0  0  0
  195.1050  175.9770  143.4680 N   0  0  0  0  0  0  0  0  0  0  0  0
  195.3140  175.1790  144.4730 C   0  0  0  0  0  0  0  0  0  0  0  0
  196.6970  174.7290  144.8270 C   0  0  0  0  0  2  0  0  0  0  0  0
  197.0400  173.4470  144.0820 C   0  0  0  0  0  2  0  0  0  0  0  0
  197.1830  172.3960  144.9890 O   0  0  0  0  0  0  0  0  0  0  0  0
  196.2920  171.4170  144.5420 C   0  0  0  0  0  2  0  0  0  0  0  0
  196.4920  168.9730  145.4800 C   0  0  2  0  0  3  0  0  0  0  0  0
  196.1090  168.3210  146.7340 N   0  0  0  0  0  0  0  0  0  0  0  0
  197.1990  168.4820  147.6870 C   0  0  0  0  0  1  0  0  0  0  0  0
  196.0360  170.4070  145.6450 C   0  0  2  0  0  0  0  0  0  0  0  0
  194.9500  169.1110  147.2240 C   0  0  0  0  0  2  0  0  0  0  0  0
  195.1690  169.4400  144.9330 C   0  0  2  0  0  3  0  0  0  0  0  0
  194.6420  170.1510  146.1490 C   0  0  2  0  0  3  0  0  0  0  0  0
  196.1660  176.4780  142.6080 C   0  0  0  0  0  2  0  0  0  0  0  0
  195.7170  176.4260  141.1630 C   0  0  0  0  0  2  0  0  0  0  0  0
  197.9230  174.8870  140.7810 O   0  0  0  0  0  1  0  0  0  0  0  0
  196.4130  175.2170  138.6670 O   0  0  0  0  0  0  0  0  0  0  0  0
  196.4800  175.0000  140.3440 P   0  0  2  0  0  0  0  0  0  0  0  0
  195.6260  173.5710  140.7820 O   0  0  0  0  0  0  0  0  0  0  0  0
  194.2390  173.5300  140.9570 C   0  0  0  0  0  0  0  0  0  0  0  0
  193.5780  172.5150  141.8290 C   0  0  0  0  0  1  0  0  0  0  0  0
  193.5230  174.3750  140.3610 O   0  0  0  0  0  0  0  0  0  0  0  0
  1  7  1  0  0  0  0
  1  5  1  0  0  0  0
  2  4  2  0  0  0  0
  3  4  1  0  0  0  0
  5  2  1  0  0  0  0
  6 25  1  0  0  0  0
  6  3  2  0  0  0  0
  7  8  2  0  0  0  0
  8  6  1  0  0  0  0
  9 12  1  0  0  0  0
 10 14  1  6  0  0  0
 10  9  1  0  0  0  0
 11  2  1  1  0  0  0
 11 12  1  0  0  0  0
 13 10  1  0  0  0  0
 13 11  1  0  0  0  0
 15 14  1  1  0  0  0
 15 22  1  0  0  0  0
 16 20  1  0  0  0  0
 17 16  1  0  0  0  0
 18 20  1  0  0  0  0
 19 18  1  0  0  0  0
 20 15  1  0  0  0  0
 21 19  1  0  0  0  0
 21 17  1  0  0  0  0
 22 23  1  0  0  0  0
 24 22  2  0  0  0  0
 26 27  2  0  0  0  0
 27 28  1  0  0  0  0
 27 25  1  0  0  0  0
 29 28  1  0  0  0  0
 29 30  1  0  0  0  0
 31 30  1  0  0  0  0
 32 35  1  0  0  0  0
 32 33  1  1  0  0  0
 33 36  1  0  0  0  0
 33 34  1  0  0  0  0
 35 31  1  6  0  0  0
 35 38  1  0  0  0  0
 37 32  1  0  0  0  0
 37 35  1  0  0  0  0
 37 38  1  0  0  0  0
 38 36  1  0  0  0  0
 39 26  1  0  0  0  0
 40 39  1  0  0  0  0
 42 43  2  0  0  0  0
 43 41  1  0  0  0  0
 43 44  1  0  0  0  0
 43 40  1  0  0  0  0
 44 45  1  0  0  0  0
 45 46  1  0  0  0  0
 47 45  2  0  0  0  0
M  END
>  <MODEL>
6

>  <REMARK>
 VINA RESULT:      -6.7      2.413      4.832
  Name = 
  16 active torsions:
  status: ('A' for Active; 'I' for Inactive)
    1  A    between atoms: C_4  and  C_33
    2  A    between atoms: C_5  and  O_21
    3  A    between atoms: C_6  and  C_23
    4  A    between atoms: C_9  and  C_22
    5  A    between atoms: C_9  and  C_33
    6  A    between atoms: N_12  and  C_18
    7  A    between atoms: C_13  and  C_36
    8  A    between atoms: C_13  and  C_40
    9  A    between atoms: O_21  and  P_42
   10  A    between atoms: C_28  and  C_33
   11  A    between atoms: C_32  and  C_35
   12  A    between atoms: C_32  and  O_46
   13  A    between atoms: C_36  and  O_46
   14  A    between atoms: N_39  and  C_41
   15  A    between atoms: C_41  and  C_45
   16  A    between atoms: P_42  and  C_45
                            x       y       z     vdW  Elec       q    Type
                         _______ _______ _______ _____ _____    ______ ____

>  <TORSDO>
F 16

$$$$
=
 OpenBabel11042415353D

 47 52  0  0  1  0  0  0  0  0999 V2000
  191.1050  173.2290  141.7150 C   0  0  0  0  0  2  0  0  0  0  0  0
  190.1470  174.7770  143.4940 C   0  0  0  0  0  0  0  0  0  0  0  0
  191.7700  173.7940  145.0780 C   0  0  0  0  0  3  0  0  0  0  0  0
  190.4850  174.4400  144.7450 C   0  0  0  0  0  3  0  0  0  0  0  0
  191.1310  174.6090  142.3760 C   0  0  0  0  0  2  0  0  0  0  0  0
  192.1730  172.6160  144.5850 C   0  0  0  0  0  0  0  0  0  0  0  0
  190.7580  172.0500  142.5880 C   0  0  0  0  0  3  0  0  0  0  0  0
  191.2560  171.7650  143.7960 C   0  0  0  0  0  3  0  0  0  0  0  0
  187.4620  176.1690  141.3660 C   0  0  0  0  0  2  0  0  0  0  0  0
  188.1190  177.3990  141.9680 C   0  0  2  0  0  3  0  0  0  0  0  0
  188.8230  175.4130  143.1920 C   0  0  2  0  0  3  0  0  0  0  0  0
  188.2750  174.9880  141.8440 C   0  0  0  0  0  2  0  0  0  0  0  0
  188.9220  176.9300  143.1680 C   0  0  0  0  0  2  0  0  0  0  0  0
  187.0620  178.3940  142.4180 C   0  0  0  0  0  2  0  0  0  0  0  0
  185.7350  177.6920  142.7050 C   0  0  1  0  0  3  0  0  0  0  0  0
  185.9380  179.1200  144.7860 C   0  0  0  0  0  2  0  0  0  0  0  0
  185.5830  179.2710  146.2770 C   0  0  0  0  0  2  0  0  0  0  0  0
  185.7810  176.6200  145.0030 C   0  0  0  0  0  2  0  0  0  0  0  0
  185.8440  176.9140  146.5080 C   0  0  0  0  0  2  0  0  0  0  0  0
  185.3430  177.8430  144.1820 C   0  0  0  0  0  3  0  0  0  0  0  0
  184.9970  178.0540  146.8480 N   0  0  0  0  0  2  0  0  0  0  0  0
  184.6740  178.2380  141.7950 C   0  0  0  0  0  0  0  0  0  0  0  0
  183.3580  178.2970  142.2340 O   0  0  0  0  0  1  0  0  0  0  0  0
  184.9660  178.6390  140.6360 O   0  0  0  0  0  0  0  0  0  0  0  0
  193.4480  172.1270  145.0170 N   0  0  0  0  0  2  0  0  0  0  0  0
  194.4620  171.6820  142.9120 N   0  0  0  0  0  0  0  0  0  0  0  0
  194.5650  171.7310  144.2070 C   0  0  0  0  0  0  0  0  0  0  0  0
  195.8500  171.3850  144.8930 C   0  0  0  0  0  2  0  0  0  0  0  0
  196.3770  172.5900  145.6590 C   0  0  0  0  0  2  0  0  0  0  0  0
  197.1460  173.3890  144.8110 O   0  0  0  0  0  0  0  0  0  0  0  0
  196.6290  174.6780  144.9710 C   0  0  0  0  0  2  0  0  0  0  0  0
  196.6790  176.5360  143.1170 C   0  0  2  0  0  3  0  0  0  0  0  0
  196.0300  176.7030  141.8150 N   0  0  0  0  0  0  0  0  0  0  0  0
  196.8560  176.0570  140.8040 C   0  0  0  0  0  1  0  0  0  0  0  0
  196.1510  175.2150  143.6350 C   0  0  2  0  0  0  0  0  0  0  0  0
  194.7630  175.9360  141.9310 C   0  0  0  0  0  2  0  0  0  0  0  0
  195.5090  176.4800  144.0640 C   0  0  2  0  0  3  0  0  0  0  0  0
  194.6860  175.4300  143.3700 C   0  0  2  0  0  3  0  0  0  0  0  0
  195.5520  171.2810  142.0350 C   0  0  0  0  0  2  0  0  0  0  0  0
  195.9740  172.4560  141.1780 C   0  0  0  0  0  2  0  0  0  0  0  0
  197.3230  170.4850  139.8820 O   0  0  0  0  0  1  0  0  0  0  0  0
  197.9160  172.9230  139.1320 O   0  0  0  0  0  0  0  0  0  0  0  0
  196.7130  171.8470  139.6380 P   0  0  2  0  0  0  0  0  0  0  0  0
  195.4910  171.7280  138.4310 O   0  0  0  0  0  0  0  0  0  0  0  0
  194.1830  172.1880  138.6180 C   0  0  0  0  0  0  0  0  0  0  0  0
  193.1080  171.3190  139.1810 C   0  0  0  0  0  1  0  0  0  0  0  0
  193.9010  173.3720  138.3010 O   0  0  0  0  0  0  0  0  0  0  0  0
  1  5  1  0  0  0  0
  1  7  1  0  0  0  0
  2  4  2  0  0  0  0
  4  3  1  0  0  0  0
  5  2  1  0  0  0  0
  6 25  1  0  0  0  0
  6  3  2  0  0  0  0
  7  8  2  0  0  0  0
  8  6  1  0  0  0  0
  9 12  1  0  0  0  0
  9 10  1  0  0  0  0
 10 14  1  1  0  0  0
 10 13  1  0  0  0  0
 11  2  1  6  0  0  0
 12 11  1  0  0  0  0
 13 11  1  0  0  0  0
 15 14  1  1  0  0  0
 15 20  1  0  0  0  0
 16 17  1  0  0  0  0
 17 21  1  0  0  0  0
 18 19  1  0  0  0  0
 19 21  1  0  0  0  0
 20 16  1  0  0  0  0
 20 18  1  0  0  0  0
 22 23  1  0  0  0  0
 22 15  1  0  0  0  0
 24 22  2  0  0  0  0
 26 27  2  0  0  0  0
 27 28  1  0  0  0  0
 27 25  1  0  0  0  0
 28 29  1  0  0  0  0
 30 31  1  0  0  0  0
 30 29  1  0  0  0  0
 32 33  1  6  0  0  0
 32 35  1  0  0  0  0
 32 37  1  0  0  0  0
 33 36  1  0  0  0  0
 34 33  1  0  0  0  0
 35 37  1  0  0  0  0
 35 31  1  1  0  0  0
 36 38  1  0  0  0  0
 38 35  1  0  0  0  0
 38 37  1  0  0  0  0
 39 26  1  0  0  0  0
 40 39  1  0  0  0  0
 42 43  2  0  0  0  0
 43 41  1  0  0  0  0
 43 40  1  0  0  0  0
 44 45  1  0  0  0  0
 44 43  1  0  0  0  0
 45 46  1  0  0  0  0
 47 45  2  0  0  0  0
M  END
>  <MODEL>
7

>  <REMARK>
 VINA RESULT:      -6.6      1.664      2.501
  Name = 
  16 active torsions:
  status: ('A' for Active; 'I' for Inactive)
    1  A    between atoms: C_4  and  C_33
    2  A    between atoms: C_5  and  O_21
    3  A    between atoms: C_6  and  C_23
    4  A    between atoms: C_9  and  C_22
    5  A    between atoms: C_9  and  C_33
    6  A    between atoms: N_12  and  C_18
    7  A    between atoms: C_13  and  C_36
    8  A    between atoms: C_13  and  C_40
    9  A    between atoms: O_21  and  P_42
   10  A    between atoms: C_28  and  C_33
   11  A    between atoms: C_32  and  C_35
   12  A    between atoms: C_32  and  O_46
   13  A    between atoms: C_36  and  O_46
   14  A    between atoms: N_39  and  C_41
   15  A    between atoms: C_41  and  C_45
   16  A    between atoms: P_42  and  C_45
                            x       y       z     vdW  Elec       q    Type
                         _______ _______ _______ _____ _____    ______ ____

>  <TORSDO>
F 16

$$$$
=
 OpenBabel11042415353D

 47 52  0  0  1  0  0  0  0  0999 V2000
  192.2940  176.4500  142.6670 C   0  0  0  0  0  2  0  0  0  0  0  0
  190.7110  176.3980  144.6590 C   0  0  0  0  0  0  0  0  0  0  0  0
  192.5530  175.3960  145.9670 C   0  0  0  0  0  3  0  0  0  0  0  0
  191.1250  175.6120  145.6610 C   0  0  0  0  0  3  0  0  0  0  0  0
  191.7010  177.1940  143.8660 C   0  0  0  0  0  2  0  0  0  0  0  0
  193.4390  174.8770  145.1090 C   0  0  0  0  0  0  0  0  0  0  0  0
  192.4660  174.9580  142.7950 C   0  0  0  0  0  3  0  0  0  0  0  0
  193.0040  174.2920  143.8220 C   0  0  0  0  0  3  0  0  0  0  0  0
  187.6060  176.1950  142.6600 C   0  0  0  0  0  2  0  0  0  0  0  0
  187.9840  177.6650  142.5920 C   0  0  2  0  0  3  0  0  0  0  0  0
  189.2510  176.5760  144.3650 C   0  0  2  0  0  3  0  0  0  0  0  0
  188.7210  175.5160  143.4200 C   0  0  0  0  0  2  0  0  0  0  0  0
  188.9690  177.9210  143.7180 C   0  0  0  0  0  2  0  0  0  0  0  0
  186.7520  178.5340  142.7820 C   0  0  0  0  0  2  0  0  0  0  0  0
  185.5520  177.6960  143.2190 C   0  0  1  0  0  3  0  0  0  0  0  0
  185.8890  179.2100  145.2200 C   0  0  0  0  0  2  0  0  0  0  0  0
  185.6100  179.4370  146.7180 C   0  0  0  0  0  2  0  0  0  0  0  0
  185.6770  176.7270  145.5590 C   0  0  0  0  0  2  0  0  0  0  0  0
  185.8200  177.0870  147.0450 C   0  0  0  0  0  2  0  0  0  0  0  0
  185.2340  177.9240  144.7040 C   0  0  0  0  0  3  0  0  0  0  0  0
  185.0200  178.2640  147.3710 N   0  0  0  0  0  2  0  0  0  0  0  0
  184.3730  178.0190  142.3480 C   0  0  0  0  0  0  0  0  0  0  0  0
  183.1750  178.4110  142.9320 O   0  0  0  0  0  1  0  0  0  0  0  0
  184.4590  177.9330  141.0930 O   0  0  0  0  0  0  0  0  0  0  0  0
  194.7880  174.7280  145.5700 N   0  0  0  0  0  2  0  0  0  0  0  0
  194.9960  172.3590  145.4970 N   0  0  0  0  0  0  0  0  0  0  0  0
  195.5490  173.5180  145.7020 C   0  0  0  0  0  0  0  0  0  0  0  0
  196.9960  173.6300  146.0720 C   0  0  0  0  0  2  0  0  0  0  0  0
  197.7990  174.1720  144.8990 C   0  0  0  0  0  2  0  0  0  0  0  0
  197.1160  173.9280  143.7060 O   0  0  0  0  0  0  0  0  0  0  0  0
  197.2250  175.1190  142.9830 C   0  0  0  0  0  2  0  0  0  0  0  0
  197.7290  175.4890  140.4330 C   0  0  2  0  0  3  0  0  0  0  0  0
  197.1220  175.0140  139.1880 N   0  0  0  0  0  0  0  0  0  0  0  0
  197.7250  173.7350  138.8410 C   0  0  0  0  0  1  0  0  0  0  0  0
  196.8800  174.8760  141.5260 C   0  0  2  0  0  0  0  0  0  0  0  0
  195.6990  174.7700  139.5400 C   0  0  0  0  0  2  0  0  0  0  0  0
  196.6060  176.2610  141.0750 C   0  0  2  0  0  3  0  0  0  0  0  0
  195.5190  175.2240  140.9860 C   0  0  2  0  0  3  0  0  0  0  0  0
  195.7100  171.0970  145.6230 C   0  0  0  0  0  2  0  0  0  0  0  0
  196.0090  170.5420  144.2460 C   0  0  0  0  0  2  0  0  0  0  0  0
  193.9210  168.8870  144.7760 O   0  0  0  0  0  1  0  0  0  0  0  0
  195.0570  168.5380  142.4430 O   0  0  0  0  0  0  0  0  0  0  0  0
  194.5640  169.6360  143.6310 P   0  0  2  0  0  0  0  0  0  0  0  0
  193.4370  170.7540  142.9630 O   0  0  0  0  0  0  0  0  0  0  0  0
  192.2270  170.3650  142.3800 C   0  0  0  0  0  0  0  0  0  0  0  0
  191.2960  171.3490  141.7520 C   0  0  0  0  0  1  0  0  0  0  0  0
  191.9100  169.1470  142.3830 O   0  0  0  0  0  0  0  0  0  0  0  0
  1  7  1  0  0  0  0
  1  5  1  0  0  0  0
  2  4  2  0  0  0  0
  4  3  1  0  0  0  0
  5  2  1  0  0  0  0
  6 25  1  0  0  0  0
  6  3  2  0  0  0  0
  7  8  2  0  0  0  0
  8  6  1  0  0  0  0
  9 12  1  0  0  0  0
 10  9  1  0  0  0  0
 10 14  1  1  0  0  0
 10 13  1  0  0  0  0
 11  2  1  6  0  0  0
 12 11  1  0  0  0  0
 13 11  1  0  0  0  0
 15 14  1  6  0  0  0
 15 20  1  0  0  0  0
 16 17  1  0  0  0  0
 17 21  1  0  0  0  0
 18 19  1  0  0  0  0
 19 21  1  0  0  0  0
 20 16  1  0  0  0  0
 20 18  1  0  0  0  0
 22 23  1  0  0  0  0
 22 15  1  0  0  0  0
 24 22  2  0  0  0  0
 25 27  1  0  0  0  0
 26 39  1  0  0  0  0
 26 27  2  0  0  0  0
 27 28  1  0  0  0  0
 29 28  1  0  0  0  0
 30 29  1  0  0  0  0
 31 30  1  0  0  0  0
 32 33  1  6  0  0  0
 32 37  1  0  0  0  0
 32 35  1  0  0  0  0
 33 36  1  0  0  0  0
 34 33  1  0  0  0  0
 35 31  1  1  0  0  0
 36 38  1  0  0  0  0
 37 35  1  0  0  0  0
 38 37  1  0  0  0  0
 38 35  1  0  0  0  0
 40 39  1  0  0  0  0
 42 43  2  0  0  0  0
 43 40  1  0  0  0  0
 43 41  1  0  0  0  0
 44 43  1  0  0  0  0
 45 47  2  0  0  0  0
 45 44  1  0  0  0  0
 46 45  1  0  0  0  0
M  END
>  <MODEL>
8

>  <REMARK>
 VINA RESULT:      -6.6      2.308      4.342
  Name = 
  16 active torsions:
  status: ('A' for Active; 'I' for Inactive)
    1  A    between atoms: C_4  and  C_33
    2  A    between atoms: C_5  and  O_21
    3  A    between atoms: C_6  and  C_23
    4  A    between atoms: C_9  and  C_22
    5  A    between atoms: C_9  and  C_33
    6  A    between atoms: N_12  and  C_18
    7  A    between atoms: C_13  and  C_36
    8  A    between atoms: C_13  and  C_40
    9  A    between atoms: O_21  and  P_42
   10  A    between atoms: C_28  and  C_33
   11  A    between atoms: C_32  and  C_35
   12  A    between atoms: C_32  and  O_46
   13  A    between atoms: C_36  and  O_46
   14  A    between atoms: N_39  and  C_41
   15  A    between atoms: C_41  and  C_45
   16  A    between atoms: P_42  and  C_45
                            x       y       z     vdW  Elec       q    Type
                         _______ _______ _______ _____ _____    ______ ____

>  <TORSDO>
F 16

$$$$
=
 OpenBabel11042415353D

 47 52  0  0  1  0  0  0  0  0999 V2000
  188.3100  173.5740  142.2920 C   0  0  0  0  0  2  0  0  0  0  0  0
  190.0260  175.2290  143.1840 C   0  0  0  0  0  0  0  0  0  0  0  0
  188.5860  177.0370  142.3090 C   0  0  0  0  0  3  0  0  0  0  0  0
  189.8930  176.4660  142.6910 C   0  0  0  0  0  3  0  0  0  0  0  0
  188.8130  174.4000  143.4790 C   0  0  0  0  0  2  0  0  0  0  0  0
  187.7740  176.5130  141.3830 C   0  0  0  0  0  0  0  0  0  0  0  0
  188.5010  174.1540  140.9150 C   0  0  0  0  0  3  0  0  0  0  0  0
  188.2220  175.4000  140.5170 C   0  0  0  0  0  3  0  0  0  0  0  0
  192.4790  173.2800  145.1490 C   0  0  0  0  0  2  0  0  0  0  0  0
  192.7660  174.7190  145.5390 C   0  0  2  0  0  3  0  0  0  0  0  0
  191.3740  174.6760  143.5400 C   0  0  2  0  0  3  0  0  0  0  0  0
  191.2790  173.3300  144.2320 C   0  0  0  0  0  2  0  0  0  0  0  0
  192.1290  175.6010  144.4800 C   0  0  0  0  0  2  0  0  0  0  0  0
  194.2650  174.9660  145.5750 C   0  0  0  0  0  2  0  0  0  0  0  0
  195.0110  173.9300  144.7350 C   0  0  1  0  0  3  0  0  0  0  0  0
  195.9500  176.1030  143.8400 C   0  0  0  0  0  2  0  0  0  0  0  0
  196.6860  176.8020  142.6810 C   0  0  0  0  0  2  0  0  0  0  0  0
  195.0740  174.3730  142.2390 C   0  0  0  0  0  2  0  0  0  0  0  0
  195.5110  175.3840  141.1690 C   0  0  0  0  0  2  0  0  0  0  0  0
  195.7770  174.6020  143.5870 C   0  0  0  0  0  3  0  0  0  0  0  0
  196.8180  175.9490  141.4950 N   0  0  0  0  0  2  0  0  0  0  0  0
  195.9290  173.1380  145.6190 C   0  0  0  0  0  0  0  0  0  0  0  0
  196.7940  173.8010  146.4810 O   0  0  0  0  0  1  0  0  0  0  0  0
  195.9260  171.8770  145.5850 O   0  0  0  0  0  0  0  0  0  0  0  0
  186.5420  177.1970  141.1280 N   0  0  0  0  0  2  0  0  0  0  0  0
  185.9130  177.7680  143.3500 N   0  0  0  0  0  0  0  0  0  0  0  0
  185.6790  177.8470  142.0740 C   0  0  0  0  0  0  0  0  0  0  0  0
  184.5110  178.6220  141.5490 C   0  0  0  0  0  2  0  0  0  0  0  0
  183.8420  177.8610  140.4130 C   0  0  0  0  0  2  0  0  0  0  0  0
  182.5980  178.4280  140.1330 O   0  0  0  0  0  0  0  0  0  0  0  0
  181.8630  178.2760  141.3120 C   0  0  0  0  0  2  0  0  0  0  0  0
  179.6530  179.1130  140.1680 C   0  0  2  0  0  3  0  0  0  0  0  0
  178.2990  178.5700  140.0330 N   0  0  0  0  0  0  0  0  0  0  0  0
  178.2620  177.7170  138.8540 C   0  0  0  0  0  1  0  0  0  0  0  0
  180.3940  178.0770  140.9860 C   0  0  2  0  0  0  0  0  0  0  0  0
  178.1240  177.7070  141.2300 C   0  0  0  0  0  2  0  0  0  0  0  0
  179.8030  179.2560  141.6600 C   0  0  2  0  0  3  0  0  0  0  0  0
  179.3810  177.8750  142.0800 C   0  0  2  0  0  3  0  0  0  0  0  0
  185.0740  178.3960  144.3600 C   0  0  0  0  0  2  0  0  0  0  0  0
  185.9250  178.8220  145.5370 C   0  0  0  0  0  2  0  0  0  0  0  0
  184.5250  176.9210  146.8800 O   0  0  0  0  0  0  0  0  0  0  0  0
  186.3270  178.1880  148.2950 O   0  0  0  0  0  1  0  0  0  0  0  0
  185.9100  177.5200  146.7980 P   0  0  2  0  0  0  0  0  0  0  0  0
  187.0460  176.3000  146.3660 O   0  0  0  0  0  0  0  0  0  0  0  0
  188.4310  176.4890  146.4220 C   0  0  0  0  0  0  0  0  0  0  0  0
  189.3460  175.4800  147.0340 C   0  0  0  0  0  1  0  0  0  0  0  0
  188.9250  177.5410  145.9410 O   0  0  0  0  0  0  0  0  0  0  0  0
  1  5  1  0  0  0  0
  2  5  1  0  0  0  0
  3  4  1  0  0  0  0
  4  2  2  0  0  0  0
  6  3  2  0  0  0  0
  7  1  1  0  0  0  0
  8  7  2  0  0  0  0
  8  6  1  0  0  0  0
  9 10  1  0  0  0  0
 10 14  1  6  0  0  0
 11  2  1  1  0  0  0
 11 12  1  0  0  0  0
 11 13  1  0  0  0  0
 12  9  1  0  0  0  0
 13 10  1  0  0  0  0
 15 14  1  1  0  0  0
 15 22  1  0  0  0  0
 17 16  1  0  0  0  0
 18 20  1  0  0  0  0
 19 21  1  0  0  0  0
 19 18  1  0  0  0  0
 20 16  1  0  0  0  0
 20 15  1  0  0  0  0
 21 17  1  0  0  0  0
 22 23  1  0  0  0  0
 24 22  2  0  0  0  0
 25  6  1  0  0  0  0
 25 27  1  0  0  0  0
 26 39  1  0  0  0  0
 27 26  2  0  0  0  0
 28 27  1  0  0  0  0
 29 28  1  0  0  0  0
 30 29  1  0  0  0  0
 30 31  1  0  0  0  0
 32 33  1  1  0  0  0
 32 35  1  0  0  0  0
 32 37  1  0  0  0  0
 33 36  1  0  0  0  0
 34 33  1  0  0  0  0
 35 31  1  6  0  0  0
 35 37  1  0  0  0  0
 35 38  1  0  0  0  0
 36 38  1  0  0  0  0
 37 38  1  0  0  0  0
 39 40  1  0  0  0  0
 40 43  1  0  0  0  0
 43 41  2  0  0  0  0
 43 42  1  0  0  0  0
 44 45  1  0  0  0  0
 44 43  1  0  0  0  0
 45 46  1  0  0  0  0
 47 45  2  0  0  0  0
M  END
>  <MODEL>
9

>  <REMARK>
 VINA RESULT:      -6.6      3.885     11.037
  Name = 
  16 active torsions:
  status: ('A' for Active; 'I' for Inactive)
    1  A    between atoms: C_4  and  C_33
    2  A    between atoms: C_5  and  O_21
    3  A    between atoms: C_6  and  C_23
    4  A    between atoms: C_9  and  C_22
    5  A    between atoms: C_9  and  C_33
    6  A    between atoms: N_12  and  C_18
    7  A    between atoms: C_13  and  C_36
    8  A    between atoms: C_13  and  C_40
    9  A    between atoms: O_21  and  P_42
   10  A    between atoms: C_28  and  C_33
   11  A    between atoms: C_32  and  C_35
   12  A    between atoms: C_32  and  O_46
   13  A    between atoms: C_36  and  O_46
   14  A    between atoms: N_39  and  C_41
   15  A    between atoms: C_41  and  C_45
   16  A    between atoms: P_42  and  C_45
                            x       y       z     vdW  Elec       q    Type
                         _______ _______ _______ _____ _____    ______ ____

>  <TORSDO>
F 16

$$$$
