=
 OpenBabel11042417193D

 26 31  0  0  1  0  0  0  0  0999 V2000
  188.3980  176.0700  142.5450 N   0  0  0  0  0  0  0  0  0  0  0  0
  189.5520  177.8780  143.9330 C   0  0  0  0  0  2  0  0  0  0  0  0
  189.6130  176.5110  143.2690 C   0  0  0  0  0  0  0  0  0  0  0  0
  190.3890  177.6760  142.6710 C   0  0  0  0  0  2  0  0  0  0  0  0
  191.4710  175.6230  145.5690 C   0  0  2  0  0  0  0  0  0  0  0  0
  189.2640  174.8340  146.2790 C   0  0  0  0  0  3  0  0  0  0  0  0
  191.1060  175.3250  147.8760 C   0  0  0  0  0  3  0  0  0  0  0  0
  190.4780  175.4080  143.9160 C   0  0  1  0  0  0  0  0  0  0  0  0
  192.0010  175.7010  146.8430 C   0  0  0  0  0  3  0  0  0  0  0  0
  190.1610  175.2110  145.2980 C   0  0  0  0  0  0  0  0  0  0  0  0
  189.7690  174.9020  147.6010 C   0  0  0  0  0  2  0  0  0  0  0  0
  191.7730  175.8400  144.1860 O   0  0  0  0  0  0  0  0  0  0  0  0
  188.6120  175.3250  141.2870 C   0  0  0  0  0  2  0  0  0  0  0  0
  188.4790  173.8330  141.4190 C   0  0  0  0  0  0  0  0  0  0  0  0
  187.4940  173.3380  142.0250 O   0  0  0  0  0  0  0  0  0  0  0  0
  189.4500  172.9730  140.8330 N   0  0  0  0  0  1  0  0  0  0  0  0
  187.4460  177.1690  142.3860 C   0  0  0  0  0  2  0  0  0  0  0  0
  186.0540  176.7300  142.8190 C   0  0  0  0  0  2  0  0  0  0  0  0
  185.9820  176.5090  144.3240 C   0  0  0  0  0  2  0  0  0  0  0  0
  186.7660  179.0550  148.3610 O   0  0  0  0  0  1  0  0  0  0  0  0
  184.5990  178.2150  145.5160 C   0  0  0  0  0  2  0  0  0  0  0  0
  186.0030  177.8320  145.0790 C   0  0  1  0  0  3  0  0  0  0  0  0
  186.0540  178.2740  147.4540 C   0  0  1  0  0  0  0  0  0  0  0  0
  184.7300  178.7780  146.9170 C   0  0  0  0  0  2  0  0  0  0  0  0
  186.9080  177.7840  146.3130 C   0  0  1  0  0  3  0  0  0  0  0  0
  186.4110  176.8080  147.3830 C   0  0  0  0  0  2  0  0  0  0  0  0
  1  3  1  0  0  0  0
  3  2  1  0  0  0  0
  4  3  1  0  0  0  0
  4  2  1  0  0  0  0
  5  9  1  6  0  0  0
  6 11  1  0  0  0  0
  8  3  1  1  0  0  0
  8 12  1  0  0  0  0
  8 10  1  0  0  0  0
  8  5  1  0  0  0  0
  9  7  2  0  0  0  0
 10  5  1  0  0  0  0
 10  6  2  0  0  0  0
 11  7  1  0  0  0  0
 12  5  1  0  0  0  0
 13 14  1  0  0  0  0
 13  1  1  0  0  0  0
 14 15  2  0  0  0  0
 16 14  1  0  0  0  0
 17  1  1  0  0  0  0
 17 18  1  0  0  0  0
 18 19  1  0  0  0  0
 21 24  1  0  0  0  0
 22 19  1  1  0  0  0
 22 21  1  0  0  0  0
 22 25  1  0  0  0  0
 23 20  1  1  0  0  0
 24 23  1  0  0  0  0
 25 26  1  1  0  0  0
 25 23  1  0  0  0  0
 26 23  1  0  0  0  0
M  END
>  <MODEL>
1

>  <REMARK>
 VINA RESULT:      -6.6      0.000      0.000
  Name = 
  8 active torsions:
  status: ('A' for Active; 'I' for Inactive)
    1  A    between atoms: C_5  and  C_8
    2  A    between atoms: C_6  and  N_9
    3  A    between atoms: C_6  and  C_11
    4  A    between atoms: C_7  and  C_8
    5  A    between atoms: C_7  and  C_18
    6  A    between atoms: N_9  and  C_12
    7  A    between atoms: N_9  and  C_18
    8  A    between atoms: C_12  and  C_16
                            x       y       z     vdW  Elec       q    Type
                         _______ _______ _______ _____ _____    ______ ____

>  <TORSDO>
F 8

$$$$
=
 OpenBabel11042417193D

 26 31  0  0  1  0  0  0  0  0999 V2000
  188.9450  176.5740  143.1590 N   0  0  0  0  0  0  0  0  0  0  0  0
  186.4690  175.9810  142.9510 C   0  0  0  0  0  2  0  0  0  0  0  0
  187.5400  177.0420  143.1510 C   0  0  0  0  0  0  0  0  0  0  0  0
  186.7930  176.9630  141.8270 C   0  0  0  0  0  2  0  0  0  0  0  0
  185.4520  178.6760  144.7320 C   0  0  2  0  0  0  0  0  0  0  0  0
  186.5050  177.2800  146.4470 C   0  0  0  0  0  3  0  0  0  0  0  0
  184.2040  178.1990  146.6720 C   0  0  0  0  0  3  0  0  0  0  0  0
  187.2110  178.2750  144.0190 C   0  0  1  0  0  0  0  0  0  0  0  0
  184.2620  178.8490  145.4130 C   0  0  0  0  0  3  0  0  0  0  0  0
  186.5240  177.9240  145.2240 C   0  0  0  0  0  0  0  0  0  0  0  0
  185.2990  177.4330  147.1770 C   0  0  0  0  0  2  0  0  0  0  0  0
  186.1370  179.0050  143.5180 O   0  0  0  0  0  0  0  0  0  0  0  0
  189.9110  177.3640  142.3680 C   0  0  0  0  0  2  0  0  0  0  0  0
  191.1720  177.7210  143.1040 C   0  0  0  0  0  0  0  0  0  0  0  0
  191.2240  178.7730  143.7930 O   0  0  0  0  0  0  0  0  0  0  0  0
  192.3020  176.8580  143.0500 N   0  0  0  0  0  1  0  0  0  0  0  0
  189.0300  175.1420  142.8710 C   0  0  0  0  0  2  0  0  0  0  0  0
  189.7990  174.4250  143.9740 C   0  0  0  0  0  2  0  0  0  0  0  0
  189.1230  174.5990  145.3270 C   0  0  0  0  0  2  0  0  0  0  0  0
  191.4890  177.1420  148.6930 O   0  0  0  0  0  1  0  0  0  0  0  0
  191.5540  174.7850  145.8770 C   0  0  0  0  0  2  0  0  0  0  0  0
  190.1500  174.6880  146.4500 C   0  0  1  0  0  3  0  0  0  0  0  0
  191.2270  176.6160  147.4310 C   0  0  1  0  0  0  0  0  0  0  0  0
  192.2920  175.7980  146.7300 C   0  0  0  0  0  2  0  0  0  0  0  0
  189.9070  175.8900  147.3670 C   0  0  1  0  0  3  0  0  0  0  0  0
  190.0870  177.2330  146.6540 C   0  0  0  0  0  2  0  0  0  0  0  0
  2  3  1  0  0  0  0
  3  1  1  0  0  0  0
  4  2  1  0  0  0  0
  4  3  1  0  0  0  0
  5 10  1  0  0  0  0
  5  9  1  1  0  0  0
  6 11  1  0  0  0  0
  7 11  1  0  0  0  0
  8  3  1  6  0  0  0
  8  5  1  0  0  0  0
  8 10  1  0  0  0  0
  9  7  2  0  0  0  0
 10  6  2  0  0  0  0
 12  8  1  0  0  0  0
 12  5  1  0  0  0  0
 13 14  1  0  0  0  0
 13  1  1  0  0  0  0
 14 15  2  0  0  0  0
 16 14  1  0  0  0  0
 17  1  1  0  0  0  0
 17 18  1  0  0  0  0
 18 19  1  0  0  0  0
 21 22  1  0  0  0  0
 21 24  1  0  0  0  0
 22 19  1  6  0  0  0
 22 25  1  0  0  0  0
 23 20  1  1  0  0  0
 24 23  1  0  0  0  0
 25 26  1  6  0  0  0
 25 23  1  0  0  0  0
 26 23  1  0  0  0  0
M  END
>  <MODEL>
2

>  <REMARK>
 VINA RESULT:      -6.5      2.113      5.258
  Name = 
  8 active torsions:
  status: ('A' for Active; 'I' for Inactive)
    1  A    between atoms: C_5  and  C_8
    2  A    between atoms: C_6  and  N_9
    3  A    between atoms: C_6  and  C_11
    4  A    between atoms: C_7  and  C_8
    5  A    between atoms: C_7  and  C_18
    6  A    between atoms: N_9  and  C_12
    7  A    between atoms: N_9  and  C_18
    8  A    between atoms: C_12  and  C_16
                            x       y       z     vdW  Elec       q    Type
                         _______ _______ _______ _____ _____    ______ ____

>  <TORSDO>
F 8

$$$$
=
 OpenBabel11042417193D

 26 31  0  0  1  0  0  0  0  0999 V2000
  190.7540  175.0400  145.3210 N   0  0  0  0  0  0  0  0  0  0  0  0
  189.7660  172.7590  144.7310 C   0  0  0  0  0  2  0  0  0  0  0  0
  190.5510  173.9880  144.2980 C   0  0  0  0  0  0  0  0  0  0  0  0
  191.2750  172.6660  144.5130 C   0  0  0  0  0  2  0  0  0  0  0  0
  188.9000  175.3200  142.0560 C   0  0  2  0  0  0  0  0  0  0  0  0
  190.2510  177.1610  142.9420 C   0  0  0  0  0  3  0  0  0  0  0  0
  188.0810  177.5100  141.7780 C   0  0  0  0  0  3  0  0  0  0  0  0
  190.4530  174.4520  142.8300 C   0  0  1  0  0  0  0  0  0  0  0  0
  187.8890  176.1230  141.5630 C   0  0  0  0  0  3  0  0  0  0  0  0
  190.0290  175.8150  142.7180 C   0  0  0  0  0  0  0  0  0  0  0  0
  189.2340  178.0180  142.4520 C   0  0  0  0  0  2  0  0  0  0  0  0
  189.3200  173.9580  142.1910 O   0  0  0  0  0  0  0  0  0  0  0  0
  192.1100  175.1480  145.8980 C   0  0  0  0  0  2  0  0  0  0  0  0
  193.1100  175.8350  145.0110 C   0  0  0  0  0  0  0  0  0  0  0  0
  193.0950  177.0880  144.8940 O   0  0  0  0  0  0  0  0  0  0  0  0
  194.0970  175.0760  144.3220 N   0  0  0  0  0  1  0  0  0  0  0  0
  189.7140  174.9900  146.3480 C   0  0  0  0  0  2  0  0  0  0  0  0
  188.9810  176.3230  146.4230 C   0  0  0  0  0  2  0  0  0  0  0  0
  187.7980  176.3630  145.4650 C   0  0  0  0  0  2  0  0  0  0  0  0
  183.7460  178.9900  145.7370 O   0  0  0  0  0  1  0  0  0  0  0  0
  186.8200  177.7370  147.3090 C   0  0  0  0  0  2  0  0  0  0  0  0
  186.5150  176.7600  146.1860 C   0  0  1  0  0  3  0  0  0  0  0  0
  185.0980  178.6950  145.8990 C   0  0  1  0  0  0  0  0  0  0  0  0
  185.7160  178.7750  147.2790 C   0  0  0  0  0  2  0  0  0  0  0  0
  185.4900  177.3950  145.2440 C   0  0  1  0  0  3  0  0  0  0  0  0
  185.9610  178.7300  144.6590 C   0  0  0  0  0  2  0  0  0  0  0  0
  1 13  1  0  0  0  0
  1 17  1  0  0  0  0
  3  4  1  0  0  0  0
  3  2  1  0  0  0  0
  3  1  1  0  0  0  0
  4  2  1  0  0  0  0
  5  9  1  6  0  0  0
  5 12  1  0  0  0  0
  5 10  1  0  0  0  0
  5  8  1  0  0  0  0
  7 11  1  0  0  0  0
  8  3  1  1  0  0  0
  9  7  2  0  0  0  0
 10  8  1  0  0  0  0
 10  6  2  0  0  0  0
 11  6  1  0  0  0  0
 12  8  1  0  0  0  0
 14 13  1  0  0  0  0
 15 14  2  0  0  0  0
 16 14  1  0  0  0  0
 17 18  1  0  0  0  0
 19 18  1  0  0  0  0
 22 19  1  6  0  0  0
 22 21  1  0  0  0  0
 23 20  1  6  0  0  0
 23 24  1  0  0  0  0
 24 21  1  0  0  0  0
 25 26  1  6  0  0  0
 25 23  1  0  0  0  0
 25 22  1  0  0  0  0
 26 23  1  0  0  0  0
M  END
>  <MODEL>
3

>  <REMARK>
 VINA RESULT:      -6.5      2.091      4.526
  Name = 
  8 active torsions:
  status: ('A' for Active; 'I' for Inactive)
    1  A    between atoms: C_5  and  C_8
    2  A    between atoms: C_6  and  N_9
    3  A    between atoms: C_6  and  C_11
    4  A    between atoms: C_7  and  C_8
    5  A    between atoms: C_7  and  C_18
    6  A    between atoms: N_9  and  C_12
    7  A    between atoms: N_9  and  C_18
    8  A    between atoms: C_12  and  C_16
                            x       y       z     vdW  Elec       q    Type
                         _______ _______ _______ _____ _____    ______ ____

>  <TORSDO>
F 8

$$$$
=
 OpenBabel11042417193D

 26 31  0  0  1  0  0  0  0  0999 V2000
  190.0660  176.7240  145.9210 N   0  0  0  0  0  0  0  0  0  0  0  0
  191.3180  175.2940  147.6280 C   0  0  0  0  0  2  0  0  0  0  0  0
  191.3550  176.3820  146.5660 C   0  0  0  0  0  0  0  0  0  0  0  0
  191.5150  176.7540  148.0330 C   0  0  0  0  0  2  0  0  0  0  0  0
  194.2950  175.6030  146.0350 C   0  0  2  0  0  0  0  0  0  0  0  0
  193.0320  174.1040  144.5660 C   0  0  0  0  0  3  0  0  0  0  0  0
  195.3090  173.5710  145.4130 C   0  0  0  0  0  3  0  0  0  0  0  0
  192.6270  176.5380  145.7060 C   0  0  1  0  0  0  0  0  0  0  0  0
  195.4050  174.7860  146.1370 C   0  0  0  0  0  3  0  0  0  0  0  0
  193.1590  175.2770  145.2860 C   0  0  0  0  0  0  0  0  0  0  0  0
  194.1500  173.2370  144.6470 C   0  0  0  0  0  2  0  0  0  0  0  0
  193.7480  176.8530  146.4680 O   0  0  0  0  0  0  0  0  0  0  0  0
  190.1330  177.5850  144.7230 C   0  0  0  0  0  2  0  0  0  0  0  0
  189.5810  176.9560  143.4740 C   0  0  0  0  0  0  0  0  0  0  0  0
  189.4560  177.6390  142.4250 O   0  0  0  0  0  0  0  0  0  0  0  0
  189.2250  175.5780  143.4630 N   0  0  0  0  0  1  0  0  0  0  0  0
  189.0940  177.2090  146.9010 C   0  0  0  0  0  2  0  0  0  0  0  0
  187.7860  176.4410  146.7740 C   0  0  0  0  0  2  0  0  0  0  0  0
  186.6140  177.2400  147.3280 C   0  0  0  0  0  2  0  0  0  0  0  0
  184.4550  178.0340  143.0740 O   0  0  0  0  0  1  0  0  0  0  0  0
  184.4030  178.2450  146.7400 C   0  0  0  0  0  2  0  0  0  0  0  0
  185.3980  177.1440  146.4150 C   0  0  1  0  0  3  0  0  0  0  0  0
  184.8870  178.3190  144.3660 C   0  0  1  0  0  0  0  0  0  0  0  0
  183.8770  178.7480  145.4100 C   0  0  0  0  0  2  0  0  0  0  0  0
  185.7730  177.2390  144.9340 C   0  0  1  0  0  3  0  0  0  0  0  0
  186.3600  178.6010  144.5510 C   0  0  0  0  0  2  0  0  0  0  0  0
  1  3  1  0  0  0  0
  1 17  1  0  0  0  0
  2  4  1  0  0  0  0
  3  2  1  0  0  0  0
  3  4  1  0  0  0  0
  5  9  1  6  0  0  0
  5 12  1  0  0  0  0
  6 11  1  0  0  0  0
  6 10  2  0  0  0  0
  7  9  2  0  0  0  0
  8  5  1  0  0  0  0
  8 12  1  0  0  0  0
  8  3  1  1  0  0  0
 10  8  1  0  0  0  0
 10  5  1  0  0  0  0
 11  7  1  0  0  0  0
 13  1  1  0  0  0  0
 14 13  1  0  0  0  0
 15 14  2  0  0  0  0
 16 14  1  0  0  0  0
 18 17  1  0  0  0  0
 18 19  1  0  0  0  0
 22 21  1  0  0  0  0
 22 19  1  1  0  0  0
 23 20  1  6  0  0  0
 23 26  1  0  0  0  0
 23 25  1  0  0  0  0
 23 24  1  0  0  0  0
 24 21  1  0  0  0  0
 25 26  1  1  0  0  0
 25 22  1  0  0  0  0
M  END
>  <MODEL>
4

>  <REMARK>
 VINA RESULT:      -6.5      2.406      3.907
  Name = 
  8 active torsions:
  status: ('A' for Active; 'I' for Inactive)
    1  A    between atoms: C_5  and  C_8
    2  A    between atoms: C_6  and  N_9
    3  A    between atoms: C_6  and  C_11
    4  A    between atoms: C_7  and  C_8
    5  A    between atoms: C_7  and  C_18
    6  A    between atoms: N_9  and  C_12
    7  A    between atoms: N_9  and  C_18
    8  A    between atoms: C_12  and  C_16
                            x       y       z     vdW  Elec       q    Type
                         _______ _______ _______ _____ _____    ______ ____

>  <TORSDO>
F 8

$$$$
=
 OpenBabel11042417193D

 26 31  0  0  1  0  0  0  0  0999 V2000
  188.9810  175.4710  143.6360 N   0  0  0  0  0  0  0  0  0  0  0  0
  188.3770  177.9430  143.8630 C   0  0  0  0  0  2  0  0  0  0  0  0
  188.7370  176.6250  144.5320 C   0  0  0  0  0  0  0  0  0  0  0  0
  189.7550  177.7560  144.4950 C   0  0  0  0  0  2  0  0  0  0  0  0
  187.2940  177.6240  147.0710 C   0  0  2  0  0  0  0  0  0  0  0  0
  185.4750  176.7350  145.6930 C   0  0  0  0  0  3  0  0  0  0  0  0
  185.1290  178.4790  147.4320 C   0  0  0  0  0  3  0  0  0  0  0  0
  188.1510  176.3140  145.9250 C   0  0  1  0  0  0  0  0  0  0  0  0
  186.5010  178.4970  147.7910 C   0  0  0  0  0  3  0  0  0  0  0  0
  186.8050  176.7830  146.0660 C   0  0  0  0  0  0  0  0  0  0  0  0
  184.6290  177.6180  146.4070 C   0  0  0  0  0  2  0  0  0  0  0  0
  188.6410  177.1660  146.9100 O   0  0  0  0  0  0  0  0  0  0  0  0
  187.8690  175.0790  142.7450 C   0  0  0  0  0  2  0  0  0  0  0  0
  188.1380  175.3030  141.2830 C   0  0  0  0  0  0  0  0  0  0  0  0
  187.7150  176.3430  140.7150 O   0  0  0  0  0  0  0  0  0  0  0  0
  188.8950  174.3540  140.5400 N   0  0  0  0  0  1  0  0  0  0  0  0
  189.5310  174.3330  144.3730 C   0  0  0  0  0  2  0  0  0  0  0  0
  190.8580  173.9010  143.7650 C   0  0  0  0  0  2  0  0  0  0  0  0
  191.8420  173.4520  144.8370 C   0  0  0  0  0  2  0  0  0  0  0  0
  194.1720  177.1020  146.9920 O   0  0  0  0  0  1  0  0  0  0  0  0
  192.8790  175.5390  143.9310 C   0  0  0  0  0  2  0  0  0  0  0  0
  193.0300  174.4030  144.9290 C   0  0  1  0  0  3  0  0  0  0  0  0
  193.2710  176.4880  146.1260 C   0  0  1  0  0  0  0  0  0  0  0  0
  193.3380  176.7940  144.6440 C   0  0  0  0  0  2  0  0  0  0  0  0
  193.1930  174.9960  146.3310 C   0  0  1  0  0  3  0  0  0  0  0  0
  192.0230  175.8970  146.7390 C   0  0  0  0  0  2  0  0  0  0  0  0
  1 17  1  0  0  0  0
  1  3  1  0  0  0  0
  2  4  1  0  0  0  0
  2  3  1  0  0  0  0
  4  3  1  0  0  0  0
  5  9  1  1  0  0  0
  6 10  2  0  0  0  0
  6 11  1  0  0  0  0
  7  9  2  0  0  0  0
  8  3  1  6  0  0  0
  8 10  1  0  0  0  0
  8 12  1  0  0  0  0
  8  5  1  0  0  0  0
 10  5  1  0  0  0  0
 11  7  1  0  0  0  0
 12  5  1  0  0  0  0
 13  1  1  0  0  0  0
 14 13  1  0  0  0  0
 15 14  2  0  0  0  0
 16 14  1  0  0  0  0
 18 17  1  0  0  0  0
 18 19  1  0  0  0  0
 21 24  1  0  0  0  0
 21 22  1  0  0  0  0
 22 19  1  1  0  0  0
 22 25  1  0  0  0  0
 23 25  1  0  0  0  0
 23 26  1  0  0  0  0
 23 20  1  1  0  0  0
 24 23  1  0  0  0  0
 25 26  1  1  0  0  0
M  END
>  <MODEL>
5

>  <REMARK>
 VINA RESULT:      -6.4      1.812      5.355
  Name = 
  8 active torsions:
  status: ('A' for Active; 'I' for Inactive)
    1  A    between atoms: C_5  and  C_8
    2  A    between atoms: C_6  and  N_9
    3  A    between atoms: C_6  and  C_11
    4  A    between atoms: C_7  and  C_8
    5  A    between atoms: C_7  and  C_18
    6  A    between atoms: N_9  and  C_12
    7  A    between atoms: N_9  and  C_18
    8  A    between atoms: C_12  and  C_16
                            x       y       z     vdW  Elec       q    Type
                         _______ _______ _______ _____ _____    ______ ____

>  <TORSDO>
F 8

$$$$
=
 OpenBabel11042417193D

 26 31  0  0  1  0  0  0  0  0999 V2000
  190.2510  175.5330  142.7980 N   0  0  0  0  0  0  0  0  0  0  0  0
  192.6870  175.6120  142.0320 C   0  0  0  0  0  2  0  0  0  0  0  0
  191.6070  174.9400  142.8650 C   0  0  0  0  0  0  0  0  0  0  0  0
  192.1250  174.2560  141.6080 C   0  0  0  0  0  2  0  0  0  0  0  0
  191.8590  175.1020  145.9370 C   0  0  2  0  0  0  0  0  0  0  0  0
  189.6930  174.0100  145.5980 C   0  0  0  0  0  3  0  0  0  0  0  0
  190.2560  175.2950  147.6520 C   0  0  0  0  0  3  0  0  0  0  0  0
  192.0060  174.2640  144.1940 C   0  0  1  0  0  0  0  0  0  0  0  0
  191.5580  175.6090  147.1870 C   0  0  0  0  0  3  0  0  0  0  0  0
  190.9670  174.3390  145.1760 C   0  0  0  0  0  0  0  0  0  0  0  0
  189.3450  174.5150  146.8760 C   0  0  0  0  0  2  0  0  0  0  0  0
  192.8860  175.0410  144.9420 O   0  0  0  0  0  0  0  0  0  0  0  0
  189.3910  175.0920  141.6810 C   0  0  0  0  0  2  0  0  0  0  0  0
  188.1950  174.2830  142.1000 C   0  0  0  0  0  0  0  0  0  0  0  0
  187.1110  174.8580  142.3820 O   0  0  0  0  0  0  0  0  0  0  0  0
  188.2730  172.8630  142.1520 N   0  0  0  0  0  1  0  0  0  0  0  0
  190.3030  176.9900  142.9190 C   0  0  0  0  0  2  0  0  0  0  0  0
  189.5910  177.4420  144.1870 C   0  0  0  0  0  2  0  0  0  0  0  0
  188.1300  177.7780  143.9170 C   0  0  0  0  0  2  0  0  0  0  0  0
  184.0560  177.8900  146.5200 O   0  0  0  0  0  1  0  0  0  0  0  0
  187.7120  177.5810  146.3730 C   0  0  0  0  0  2  0  0  0  0  0  0
  187.2200  177.1920  144.9890 C   0  0  1  0  0  3  0  0  0  0  0  0
  185.3740  178.1900  146.1870 C   0  0  1  0  0  0  0  0  0  0  0  0
  186.4770  177.9090  147.1870 C   0  0  0  0  0  2  0  0  0  0  0  0
  185.7680  177.6510  144.8350 C   0  0  1  0  0  3  0  0  0  0  0  0
  185.5910  179.1570  145.0460 C   0  0  0  0  0  2  0  0  0  0  0  0
  1  3  1  0  0  0  0
  1 17  1  0  0  0  0
  2  3  1  0  0  0  0
  4  2  1  0  0  0  0
  4  3  1  0  0  0  0
  5  9  1  1  0  0  0
  6 11  1  0  0  0  0
  8  3  1  6  0  0  0
  8 12  1  0  0  0  0
  8 10  1  0  0  0  0
  8  5  1  0  0  0  0
  9  7  2  0  0  0  0
 10  6  2  0  0  0  0
 10  5  1  0  0  0  0
 11  7  1  0  0  0  0
 12  5  1  0  0  0  0
 13 14  1  0  0  0  0
 13  1  1  0  0  0  0
 14 16  1  0  0  0  0
 14 15  2  0  0  0  0
 17 18  1  0  0  0  0
 19 18  1  0  0  0  0
 21 24  1  0  0  0  0
 22 19  1  6  0  0  0
 22 21  1  0  0  0  0
 23 20  1  1  0  0  0
 23 24  1  0  0  0  0
 25 22  1  0  0  0  0
 25 26  1  6  0  0  0
 25 23  1  0  0  0  0
 26 23  1  0  0  0  0
M  END
>  <MODEL>
6

>  <REMARK>
 VINA RESULT:      -6.3      1.559      2.314
  Name = 
  8 active torsions:
  status: ('A' for Active; 'I' for Inactive)
    1  A    between atoms: C_5  and  C_8
    2  A    between atoms: C_6  and  N_9
    3  A    between atoms: C_6  and  C_11
    4  A    between atoms: C_7  and  C_8
    5  A    between atoms: C_7  and  C_18
    6  A    between atoms: N_9  and  C_12
    7  A    between atoms: N_9  and  C_18
    8  A    between atoms: C_12  and  C_16
                            x       y       z     vdW  Elec       q    Type
                         _______ _______ _______ _____ _____    ______ ____

>  <TORSDO>
F 8

$$$$
=
 OpenBabel11042417193D

 26 31  0  0  1  0  0  0  0  0999 V2000
  188.9640  175.9950  142.5790 N   0  0  0  0  0  0  0  0  0  0  0  0
  189.7650  177.5770  144.4180 C   0  0  0  0  0  2  0  0  0  0  0  0
  190.1000  176.6840  143.2330 C   0  0  0  0  0  0  0  0  0  0  0  0
  190.1720  178.1970  143.0830 C   0  0  0  0  0  2  0  0  0  0  0  0
  192.9810  176.4420  144.3160 C   0  0  2  0  0  0  0  0  0  0  0  0
  191.7220  174.8430  145.6790 C   0  0  0  0  0  3  0  0  0  0  0  0
  193.8350  175.9090  146.4450 C   0  0  0  0  0  3  0  0  0  0  0  0
  191.4610  175.9560  143.2130 C   0  0  1  0  0  0  0  0  0  0  0  0
  193.9840  176.6470  145.2450 C   0  0  0  0  0  3  0  0  0  0  0  0
  191.8970  175.5820  144.5240 C   0  0  0  0  0  0  0  0  0  0  0  0
  192.7300  175.0280  146.6580 C   0  0  0  0  0  2  0  0  0  0  0  0
  192.5270  176.8290  143.0150 O   0  0  0  0  0  0  0  0  0  0  0  0
  189.2900  174.8040  141.7690 C   0  0  0  0  0  2  0  0  0  0  0  0
  188.8010  173.5060  142.3480 C   0  0  0  0  0  0  0  0  0  0  0  0
  189.4380  172.9520  143.2810 O   0  0  0  0  0  0  0  0  0  0  0  0
  187.6010  172.9120  141.8650 N   0  0  0  0  0  1  0  0  0  0  0  0
  188.1130  176.9420  141.8590 C   0  0  0  0  0  2  0  0  0  0  0  0
  186.6440  176.5930  142.0600 C   0  0  0  0  0  2  0  0  0  0  0  0
  186.3110  176.4130  143.5350 C   0  0  0  0  0  2  0  0  0  0  0  0
  185.2650  179.0240  147.4700 O   0  0  0  0  0  1  0  0  0  0  0  0
  184.6810  178.2670  143.9240 C   0  0  0  0  0  2  0  0  0  0  0  0
  186.0820  177.7550  144.2190 C   0  0  1  0  0  3  0  0  0  0  0  0
  185.0150  178.2730  146.3240 C   0  0  1  0  0  0  0  0  0  0  0  0
  184.1670  178.8650  145.2170 C   0  0  0  0  0  2  0  0  0  0  0  0
  186.2680  177.6760  145.7360 C   0  0  1  0  0  3  0  0  0  0  0  0
  185.2310  176.7810  146.4210 C   0  0  0  0  0  2  0  0  0  0  0  0
  1  3  1  0  0  0  0
  3  2  1  0  0  0  0
  4  3  1  0  0  0  0
  4  2  1  0  0  0  0
  5 10  1  0  0  0  0
  5  9  1  6  0  0  0
  6 11  1  0  0  0  0
  7 11  1  0  0  0  0
  8  3  1  1  0  0  0
  8  5  1  0  0  0  0
  8 10  1  0  0  0  0
  9  7  2  0  0  0  0
 10  6  2  0  0  0  0
 12  8  1  0  0  0  0
 12  5  1  0  0  0  0
 13 14  1  0  0  0  0
 13  1  1  0  0  0  0
 14 15  2  0  0  0  0
 16 14  1  0  0  0  0
 17 18  1  0  0  0  0
 17  1  1  0  0  0  0
 18 19  1  0  0  0  0
 21 22  1  0  0  0  0
 21 24  1  0  0  0  0
 22 19  1  6  0  0  0
 22 25  1  0  0  0  0
 23 26  1  0  0  0  0
 23 20  1  1  0  0  0
 24 23  1  0  0  0  0
 25 23  1  0  0  0  0
 25 26  1  1  0  0  0
M  END
>  <MODEL>
7

>  <REMARK>
 VINA RESULT:      -6.3      1.432      1.723
  Name = 
  8 active torsions:
  status: ('A' for Active; 'I' for Inactive)
    1  A    between atoms: C_5  and  C_8
    2  A    between atoms: C_6  and  N_9
    3  A    between atoms: C_6  and  C_11
    4  A    between atoms: C_7  and  C_8
    5  A    between atoms: C_7  and  C_18
    6  A    between atoms: N_9  and  C_12
    7  A    between atoms: N_9  and  C_18
    8  A    between atoms: C_12  and  C_16
                            x       y       z     vdW  Elec       q    Type
                         _______ _______ _______ _____ _____    ______ ____

>  <TORSDO>
F 8

$$$$
=
 OpenBabel11042417193D

 26 31  0  0  1  0  0  0  0  0999 V2000
  189.5870  175.3950  144.7920 N   0  0  0  0  0  0  0  0  0  0  0  0
  189.5650  173.2860  143.3510 C   0  0  0  0  0  2  0  0  0  0  0  0
  190.3630  174.3260  144.1230 C   0  0  0  0  0  0  0  0  0  0  0  0
  190.2210  172.9170  144.6800 C   0  0  0  0  0  2  0  0  0  0  0  0
  192.8410  176.1540  144.3400 C   0  0  2  0  0  0  0  0  0  0  0  0
  193.4280  174.2280  145.7340 C   0  0  0  0  0  3  0  0  0  0  0  0
  194.4220  176.4850  146.0530 C   0  0  0  0  0  3  0  0  0  0  0  0
  191.7770  174.6970  143.6270 C   0  0  1  0  0  0  0  0  0  0  0  0
  193.6800  177.0440  144.9830 C   0  0  0  0  0  3  0  0  0  0  0  0
  192.7180  174.8070  144.6990 C   0  0  0  0  0  0  0  0  0  0  0  0
  194.2990  175.1090  146.4210 C   0  0  0  0  0  2  0  0  0  0  0  0
  191.8830  176.0410  143.2820 O   0  0  0  0  0  0  0  0  0  0  0  0
  189.2310  175.1680  146.2080 C   0  0  0  0  0  2  0  0  0  0  0  0
  190.1090  175.8890  147.1920 C   0  0  0  0  0  0  0  0  0  0  0  0
  190.8730  175.2380  147.9520 O   0  0  0  0  0  0  0  0  0  0  0  0
  190.1040  177.3110  147.2500 N   0  0  0  0  0  1  0  0  0  0  0  0
  188.4350  175.7990  143.9860 C   0  0  0  0  0  2  0  0  0  0  0  0
  188.3140  177.3170  143.9580 C   0  0  0  0  0  2  0  0  0  0  0  0
  186.9240  177.7570  143.5170 C   0  0  0  0  0  2  0  0  0  0  0  0
  184.7860  178.4730  147.7960 O   0  0  0  0  0  1  0  0  0  0  0  0
  184.8480  178.9910  144.1600 C   0  0  0  0  0  2  0  0  0  0  0  0
  186.2850  178.6810  144.5470 C   0  0  1  0  0  3  0  0  0  0  0  0
  184.8730  178.1680  146.4400 C   0  0  1  0  0  0  0  0  0  0  0  0
  184.0460  178.9570  145.4460 C   0  0  0  0  0  2  0  0  0  0  0  0
  186.2980  178.0810  145.9550 C   0  0  1  0  0  3  0  0  0  0  0  0
  185.4420  176.8170  146.0760 C   0  0  0  0  0  2  0  0  0  0  0  0
  1 13  1  0  0  0  0
  2  3  1  0  0  0  0
  2  4  1  0  0  0  0
  3  4  1  0  0  0  0
  3  1  1  0  0  0  0
  5 10  1  0  0  0  0
  5  9  1  6  0  0  0
  6 11  1  0  0  0  0
  7 11  1  0  0  0  0
  8  3  1  1  0  0  0
  8  5  1  0  0  0  0
  8 10  1  0  0  0  0
  9  7  2  0  0  0  0
 10  6  2  0  0  0  0
 12  8  1  0  0  0  0
 12  5  1  0  0  0  0
 13 14  1  0  0  0  0
 14 16  1  0  0  0  0
 14 15  2  0  0  0  0
 17  1  1  0  0  0  0
 18 17  1  0  0  0  0
 19 18  1  0  0  0  0
 21 22  1  0  0  0  0
 21 24  1  0  0  0  0
 22 19  1  6  0  0  0
 22 25  1  0  0  0  0
 23 20  1  1  0  0  0
 24 23  1  0  0  0  0
 25 26  1  6  0  0  0
 25 23  1  0  0  0  0
 26 23  1  0  0  0  0
M  END
>  <MODEL>
8

>  <REMARK>
 VINA RESULT:      -6.2      2.116      3.647
  Name = 
  8 active torsions:
  status: ('A' for Active; 'I' for Inactive)
    1  A    between atoms: C_5  and  C_8
    2  A    between atoms: C_6  and  N_9
    3  A    between atoms: C_6  and  C_11
    4  A    between atoms: C_7  and  C_8
    5  A    between atoms: C_7  and  C_18
    6  A    between atoms: N_9  and  C_12
    7  A    between atoms: N_9  and  C_18
    8  A    between atoms: C_12  and  C_16
                            x       y       z     vdW  Elec       q    Type
                         _______ _______ _______ _____ _____    ______ ____

>  <TORSDO>
F 8

$$$$
=
 OpenBabel11042417193D

 26 31  0  0  1  0  0  0  0  0999 V2000
  186.8950  177.6000  143.4580 N   0  0  0  0  0  0  0  0  0  0  0  0
  184.7740  178.0250  144.8160 C   0  0  0  0  0  2  0  0  0  0  0  0
  186.2900  178.0850  144.7200 C   0  0  0  0  0  0  0  0  0  0  0  0
  185.4780  179.3700  144.6490 C   0  0  0  0  0  2  0  0  0  0  0  0
  188.0990  176.2900  146.4640 C   0  0  2  0  0  0  0  0  0  0  0  0
  189.6940  177.6230  145.1680 C   0  0  0  0  0  3  0  0  0  0  0  0
  190.2480  175.3910  146.1170 C   0  0  0  0  0  3  0  0  0  0  0  0
  187.1240  177.9040  146.0070 C   0  0  1  0  0  0  0  0  0  0  0  0
  188.9600  175.2330  146.6880 C   0  0  0  0  0  3  0  0  0  0  0  0
  188.4480  177.4330  145.7350 C   0  0  0  0  0  0  0  0  0  0  0  0
  190.6060  176.5580  145.3750 C   0  0  0  0  0  2  0  0  0  0  0  0
  186.7690  176.7580  146.7130 O   0  0  0  0  0  0  0  0  0  0  0  0
  186.9150  178.5500  142.3270 C   0  0  0  0  0  2  0  0  0  0  0  0
  185.9820  178.1970  141.2030 C   0  0  0  0  0  0  0  0  0  0  0  0
  184.7620  178.5020  141.2760 O   0  0  0  0  0  0  0  0  0  0  0  0
  186.4750  177.5430  140.0390 N   0  0  0  0  0  1  0  0  0  0  0  0
  186.3580  176.2940  143.0790 C   0  0  0  0  0  2  0  0  0  0  0  0
  187.4480  175.2320  143.1480 C   0  0  0  0  0  2  0  0  0  0  0  0
  188.6370  175.5970  142.2690 C   0  0  0  0  0  2  0  0  0  0  0  0
  190.3460  171.5570  140.2320 O   0  0  0  0  0  1  0  0  0  0  0  0
  189.3100  173.3940  143.2380 C   0  0  0  0  0  2  0  0  0  0  0  0
  189.6530  174.4620  142.2130 C   0  0  1  0  0  3  0  0  0  0  0  0
  189.5540  172.3340  141.0730 C   0  0  1  0  0  0  0  0  0  0  0  0
  189.5600  172.0610  142.5630 C   0  0  0  0  0  2  0  0  0  0  0  0
  189.7240  173.8130  140.8290 C   0  0  1  0  0  3  0  0  0  0  0  0
  188.4240  173.1060  140.4320 C   0  0  0  0  0  2  0  0  0  0  0  0
  1  3  1  0  0  0  0
  3  2  1  0  0  0  0
  4  3  1  0  0  0  0
  4  2  1  0  0  0  0
  5  9  1  1  0  0  0
  5 12  1  0  0  0  0
  6 11  1  0  0  0  0
  6 10  2  0  0  0  0
  7  9  2  0  0  0  0
  8  3  1  6  0  0  0
  8  5  1  0  0  0  0
  8 12  1  0  0  0  0
 10  8  1  0  0  0  0
 10  5  1  0  0  0  0
 11  7  1  0  0  0  0
 13  1  1  0  0  0  0
 14 15  2  0  0  0  0
 14 13  1  0  0  0  0
 16 14  1  0  0  0  0
 17 18  1  0  0  0  0
 17  1  1  0  0  0  0
 19 18  1  0  0  0  0
 22 19  1  6  0  0  0
 22 21  1  0  0  0  0
 23 20  1  6  0  0  0
 23 24  1  0  0  0  0
 24 21  1  0  0  0  0
 25 26  1  6  0  0  0
 25 23  1  0  0  0  0
 25 22  1  0  0  0  0
 26 23  1  0  0  0  0
M  END
>  <MODEL>
9

>  <REMARK>
 VINA RESULT:      -6.2      2.294      5.612
  Name = 
  8 active torsions:
  status: ('A' for Active; 'I' for Inactive)
    1  A    between atoms: C_5  and  C_8
    2  A    between atoms: C_6  and  N_9
    3  A    between atoms: C_6  and  C_11
    4  A    between atoms: C_7  and  C_8
    5  A    between atoms: C_7  and  C_18
    6  A    between atoms: N_9  and  C_12
    7  A    between atoms: N_9  and  C_18
    8  A    between atoms: C_12  and  C_16
                            x       y       z     vdW  Elec       q    Type
                         _______ _______ _______ _____ _____    ______ ____

>  <TORSDO>
F 8

$$$$
