=
 OpenBabel11042416423D

 55 59  0  0  1  0  0  0  0  0999 V2000
  190.2870  177.3010  146.6360 F   0  0  0  0  0  0  0  0  0  0  0  0
  189.6530  175.0690  146.2570 C   0  0  0  0  0  0  0  0  0  0  0  0
  187.7970  177.1070  144.9930 C   0  0  0  0  0  0  0  0  0  0  0  0
  188.4230  176.2880  144.0390 O   0  0  0  0  0  0  0  0  0  0  0  0
  193.5120  176.5160  143.4140 C   0  0  0  0  0  2  0  0  0  0  0  0
  191.0460  175.1330  143.6200 C   0  0  1  0  0  0  0  0  0  0  0  0
  187.6040  177.9910  147.2170 O   0  0  0  0  0  1  0  0  0  0  0  0
  192.2050  174.7440  144.5500 C   0  0  0  0  0  2  0  0  0  0  0  0
  189.5030  175.0330  144.4890 P   0  0  1  0  0  4  0  0  0  0  0  0
  187.0670  178.1140  144.6100 N   0  0  0  0  0  0  0  0  0  0  0  0
  187.9360  176.8460  146.4870 C   0  0  2  0  0  3  0  0  0  0  0  0
  190.1320  173.1390  143.1000 C   0  0  2  0  0  3  0  0  0  0  0  0
  191.2820  176.5400  143.0570 C   0  0  0  0  0  2  0  0  0  0  0  0
  193.5730  175.0930  143.9540 C   0  0  2  0  0  3  0  0  0  0  0  0
  189.3210  176.3510  146.9340 C   0  0  2  0  0  3  0  0  0  0  0  0
  189.0190  173.5490  143.8810 O   0  0  0  0  0  0  0  0  0  0  0  0
  192.5310  176.6090  142.4120 O   0  0  0  0  0  0  0  0  0  0  0  0
  190.9020  174.2130  142.5820 O   0  0  0  0  0  0  0  0  0  0  0  0
  190.0250  174.0880  146.8850 O   0  0  0  0  0  0  0  0  0  0  0  0
  191.5960  170.1430  139.2490 C   0  0  0  0  0  2  0  0  0  0  0  0
  189.7590  172.1850  141.9560 C   0  0  1  0  0  3  0  0  0  0  0  0
  188.3220  173.6900  138.9230 C   0  0  0  0  0  2  0  0  0  0  0  0
  188.7660  173.9400  140.3780 C   0  0  0  0  0  2  0  0  0  0  0  0
  192.2020  171.5160  141.6660 C   0  0  0  0  0  2  0  0  0  0  0  0
  188.4950  172.7070  141.2470 C   0  0  0  0  0  2  0  0  0  0  0  0
  190.6590  171.1950  139.7650 C   0  0  0  0  0  0  0  0  0  0  0  0
  189.8670  171.8010  138.9280 C   0  0  0  0  0  0  0  0  0  0  0  0
  193.2830  171.5590  140.5880 C   0  0  0  0  0  2  0  0  0  0  0  0
  193.6930  169.2770  139.9830 O   0  0  0  0  0  1  0  0  0  0  0  0
  189.0250  172.5320  138.2510 C   0  0  0  0  0  3  0  0  0  0  0  0
  190.8870  171.7750  141.0710 N   0  0  0  0  0  0  0  0  0  0  0  0
  193.0800  170.4500  139.5310 C   0  0  1  0  0  0  0  0  0  0  0  0
  193.6950  172.3800  137.9850 C   0  0  0  0  0  1  0  0  0  0  0  0
  193.7190  170.8720  138.2050 C   0  0  0  0  0  2  0  0  0  0  0  0
  186.7640  178.4760  143.2800 N   0  0  0  0  0  2  0  0  0  0  0  0
  186.0630  177.6780  142.3110 C   0  0  0  0  0  0  0  0  0  0  0  0
  185.6680  176.5150  142.5820 O   0  0  0  0  0  0  0  0  0  0  0  0
  185.8090  178.2100  141.0110 N   0  0  0  0  0  0  0  0  0  0  0  0
  184.6180  178.4810  140.5530 C   0  0  0  0  0  3  0  0  0  0  0  0
  183.3600  178.1800  141.3060 C   0  0  0  0  0  2  0  0  0  0  0  0
  182.2320  178.1820  140.3920 N   0  0  0  0  0  2  0  0  0  0  0  0
  181.0210  178.2680  141.1910 C   0  0  0  0  0  2  0  0  0  0  0  0
  179.7980  178.3640  140.2910 C   0  0  0  0  0  2  0  0  0  0  0  0
  180.2050  180.7040  140.4620 O   0  0  0  0  0  1  0  0  0  0  0  0
  179.1910  179.7570  140.3630 C   0  0  0  0  0  2  0  0  0  0  0  0
  194.6680  175.0030  145.0140 C   0  0  0  0  0  2  0  0  0  0  0  0
  195.8200  174.1050  144.5610 C   0  0  2  0  0  3  0  0  0  0  0  0
  196.0640  173.0430  145.6340 C   0  0  2  0  0  3  0  0  0  0  0  0
  197.3560  172.5000  145.5390 O   0  0  0  0  0  1  0  0  0  0  0  0
  194.9950  171.9460  145.6340 C   0  0  0  0  0  2  0  0  0  0  0  0
  194.7620  171.3640  144.2490 C   0  0  0  0  0  1  0  0  0  0  0  0
  197.0070  174.8640  144.3360 O   0  0  0  0  0  0  0  0  0  0  0  0
  197.3320  174.9350  141.8660 C   0  0  0  0  0  1  0  0  0  0  0  0
  197.2300  175.6200  143.1820 C   0  0  0  0  0  0  0  0  0  0  0  0
  197.3830  176.8720  143.2410 O   0  0  0  0  0  0  0  0  0  0  0  0
  2 19  2  0  0  0  0
  2 15  1  0  0  0  0
  3 11  1  0  0  0  0
  4  9  1  0  0  0  0
  4  3  1  0  0  0  0
  5 14  1  0  0  0  0
  6 13  1  6  0  0  0
  6  9  1  0  0  0  0
  6  8  1  0  0  0  0
  9 16  1  6  0  0  0
  9  2  1  0  0  0  0
 10  3  2  0  0  0  0
 11 15  1  0  0  0  0
 11  7  1  1  0  0  0
 12 18  1  6  0  0  0
 12 16  1  0  0  0  0
 14  8  1  0  0  0  0
 14 46  1  1  0  0  0
 15  1  1  6  0  0  0
 17 13  1  0  0  0  0
 17  5  1  0  0  0  0
 18  6  1  0  0  0  0
 20 32  1  0  0  0  0
 20 26  1  0  0  0  0
 21 25  1  6  0  0  0
 21 12  1  0  0  0  0
 22 23  1  0  0  0  0
 23 25  1  0  0  0  0
 26 31  1  0  0  0  0
 27 26  2  0  0  0  0
 28 24  1  0  0  0  0
 30 22  1  0  0  0  0
 30 27  2  0  0  0  0
 31 24  1  0  0  0  0
 31 21  1  0  0  0  0
 32 29  1  1  0  0  0
 32 28  1  0  0  0  0
 33 34  1  0  0  0  0
 34 32  1  0  0  0  0
 35 10  1  0  0  0  0
 36 37  2  0  0  0  0
 36 35  1  0  0  0  0
 38 36  1  0  0  0  0
 39 38  2  0  0  0  0
 39 40  1  0  0  0  0
 41 42  1  0  0  0  0
 41 40  1  0  0  0  0
 43 45  1  0  0  0  0
 43 42  1  0  0  0  0
 45 44  1  0  0  0  0
 47 46  1  1  0  0  0
 47 48  1  0  0  0  0
 48 49  1  6  0  0  0
 48 50  1  0  0  0  0
 51 50  1  0  0  0  0
 52 47  1  0  0  0  0
 53 54  1  0  0  0  0
 54 55  2  0  0  0  0
 54 52  1  0  0  0  0
M  END
>  <MODEL>
1

>  <REMARK>
 VINA RESULT:      -7.1      0.000      0.000
  Name = 
  15 active torsions:
  status: ('A' for Active; 'I' for Inactive)
    1  A    between atoms: N_1  and  C_10
    2  A    between atoms: N_3  and  N_29
    3  A    between atoms: C_4  and  C_38
    4  A    between atoms: C_4  and  C_50
    5  A    between atoms: C_6  and  C_25
    6  A    between atoms: C_6  and  C_42
    7  A    between atoms: O_11  and  C_41
    8  A    between atoms: O_11  and  C_50
    9  A    between atoms: C_12  and  C_55
   10  A    between atoms: C_15  and  C_33
   11  A    between atoms: C_21  and  C_22
   12  A    between atoms: C_21  and  C_50
   13  A    between atoms: C_24  and  C_49
   14  A    between atoms: N_40  and  C_42
   15  A    between atoms: N_40  and  C_49
                            x       y       z     vdW  Elec       q    Type
                         _______ _______ _______ _____ _____    ______ ____

>  <TORSDO>
F 15

$$$$
=
 OpenBabel11042416423D

 55 59  0  0  1  0  0  0  0  0999 V2000
  189.6740  177.6340  146.4480 F   0  0  0  0  0  0  0  0  0  0  0  0
  189.6200  175.2850  146.5200 C   0  0  0  0  0  0  0  0  0  0  0  0
  187.3120  176.5230  144.9920 C   0  0  0  0  0  0  0  0  0  0  0  0
  188.1220  175.7160  144.1780 O   0  0  0  0  0  0  0  0  0  0  0  0
  192.9920  177.0620  143.2750 C   0  0  0  0  0  2  0  0  0  0  0  0
  190.9510  175.1830  143.8530 C   0  0  1  0  0  0  0  0  0  0  0  0
  186.9050  177.7430  147.0200 O   0  0  0  0  0  1  0  0  0  0  0  0
  192.1710  175.2750  144.7820 C   0  0  0  0  0  2  0  0  0  0  0  0
  189.4820  174.8750  144.7990 P   0  0  1  0  0  4  0  0  0  0  0  0
  186.3530  177.2280  144.4650 N   0  0  0  0  0  0  0  0  0  0  0  0
  187.5130  176.5970  146.5000 C   0  0  2  0  0  3  0  0  0  0  0  0
  190.5650  172.9630  143.7570 C   0  0  2  0  0  3  0  0  0  0  0  0
  190.8270  176.4700  143.0290 C   0  0  0  0  0  2  0  0  0  0  0  0
  193.4080  175.8290  144.0650 C   0  0  2  0  0  3  0  0  0  0  0  0
  188.9780  176.5520  146.9630 C   0  0  2  0  0  3  0  0  0  0  0  0
  189.3850  173.2290  144.5010 O   0  0  0  0  0  0  0  0  0  0  0  0
  192.0190  176.7180  142.3220 O   0  0  0  0  0  0  0  0  0  0  0  0
  191.0410  174.0730  143.0120 O   0  0  0  0  0  0  0  0  0  0  0  0
  190.2260  174.5650  147.3010 O   0  0  0  0  0  0  0  0  0  0  0  0
  192.7950  169.5280  140.7280 C   0  0  0  0  0  2  0  0  0  0  0  0
  190.4410  171.7450  142.8290 C   0  0  1  0  0  3  0  0  0  0  0  0
  189.0590  172.3330  139.4720 C   0  0  0  0  0  2  0  0  0  0  0  0
  189.3320  172.9480  140.8590 C   0  0  0  0  0  2  0  0  0  0  0  0
  192.9740  171.4500  142.8190 C   0  0  0  0  0  2  0  0  0  0  0  0
  189.1780  171.8920  141.9600 C   0  0  0  0  0  2  0  0  0  0  0  0
  191.6680  170.4910  140.9550 C   0  0  0  0  0  0  0  0  0  0  0  0
  190.8680  170.7710  139.9670 C   0  0  0  0  0  0  0  0  0  0  0  0
  194.1250  171.4510  141.8140 C   0  0  0  0  0  2  0  0  0  0  0  0
  194.9280  169.1940  141.7410 O   0  0  0  0  0  1  0  0  0  0  0  0
  189.9860  171.1960  139.1050 C   0  0  0  0  0  3  0  0  0  0  0  0
  191.6910  171.3580  142.1130 N   0  0  0  0  0  0  0  0  0  0  0  0
  194.1850  170.1300  141.0140 C   0  0  1  0  0  0  0  0  0  0  0  0
  194.6800  171.7950  139.1490 C   0  0  0  0  0  1  0  0  0  0  0  0
  194.8650  170.3720  139.6630 C   0  0  0  0  0  2  0  0  0  0  0  0
  185.9680  177.2430  143.1070 N   0  0  0  0  0  2  0  0  0  0  0  0
  185.7920  178.4030  142.2770 C   0  0  0  0  0  0  0  0  0  0  0  0
  185.9480  179.5650  142.7330 O   0  0  0  0  0  0  0  0  0  0  0  0
  185.4280  178.2410  140.9070 N   0  0  0  0  0  0  0  0  0  0  0  0
  184.1970  178.1950  140.4780 C   0  0  0  0  0  3  0  0  0  0  0  0
  183.0080  178.2160  141.3890 C   0  0  0  0  0  2  0  0  0  0  0  0
  181.7940  178.3430  140.6030 N   0  0  0  0  0  2  0  0  0  0  0  0
  180.6680  178.1950  141.5100 C   0  0  0  0  0  2  0  0  0  0  0  0
  179.3560  178.3230  140.7510 C   0  0  0  0  0  2  0  0  0  0  0  0
  178.6530  176.9910  142.5960 O   0  0  0  0  0  1  0  0  0  0  0  0
  178.3320  177.3330  141.2860 C   0  0  0  0  0  2  0  0  0  0  0  0
  194.4900  176.2150  145.0700 C   0  0  0  0  0  2  0  0  0  0  0  0
  195.6770  175.2510  145.0200 C   0  0  2  0  0  3  0  0  0  0  0  0
  196.6530  175.7320  143.9450 C   0  0  2  0  0  3  0  0  0  0  0  0
  196.5100  177.1060  143.6950 O   0  0  0  0  0  1  0  0  0  0  0  0
  196.5600  174.9150  142.6540 C   0  0  0  0  0  2  0  0  0  0  0  0
  197.7500  173.9850  142.4690 C   0  0  0  0  0  1  0  0  0  0  0  0
  195.2480  173.9190  144.7420 O   0  0  0  0  0  0  0  0  0  0  0  0
  196.9310  172.6920  146.1090 C   0  0  0  0  0  1  0  0  0  0  0  0
  195.5590  172.8250  145.5530 C   0  0  0  0  0  0  0  0  0  0  0  0
  194.7050  171.9270  145.7930 O   0  0  0  0  0  0  0  0  0  0  0  0
  2 15  1  0  0  0  0
  2 19  2  0  0  0  0
  3 11  1  0  0  0  0
  4  3  1  0  0  0  0
  5 14  1  0  0  0  0
  6 13  1  6  0  0  0
  6  8  1  0  0  0  0
  6  9  1  0  0  0  0
  9  4  1  6  0  0  0
  9  2  1  0  0  0  0
 10  3  2  0  0  0  0
 11 15  1  0  0  0  0
 11  7  1  6  0  0  0
 12 18  1  6  0  0  0
 12 16  1  0  0  0  0
 14  8  1  0  0  0  0
 14 46  1  1  0  0  0
 15  1  1  6  0  0  0
 16  9  1  0  0  0  0
 17 13  1  0  0  0  0
 17  5  1  0  0  0  0
 18  6  1  0  0  0  0
 20 26  1  0  0  0  0
 20 32  1  0  0  0  0
 21 25  1  6  0  0  0
 21 12  1  0  0  0  0
 22 23  1  0  0  0  0
 23 25  1  0  0  0  0
 26 31  1  0  0  0  0
 27 26  2  0  0  0  0
 28 24  1  0  0  0  0
 30 22  1  0  0  0  0
 30 27  2  0  0  0  0
 31 24  1  0  0  0  0
 31 21  1  0  0  0  0
 32 29  1  1  0  0  0
 32 28  1  0  0  0  0
 33 34  1  0  0  0  0
 34 32  1  0  0  0  0
 35 10  1  0  0  0  0
 36 37  2  0  0  0  0
 36 35  1  0  0  0  0
 38 36  1  0  0  0  0
 39 38  2  0  0  0  0
 39 40  1  0  0  0  0
 41 40  1  0  0  0  0
 41 42  1  0  0  0  0
 43 45  1  0  0  0  0
 43 42  1  0  0  0  0
 45 44  1  0  0  0  0
 47 46  1  6  0  0  0
 48 49  1  6  0  0  0
 48 47  1  0  0  0  0
 50 48  1  0  0  0  0
 51 50  1  0  0  0  0
 52 47  1  0  0  0  0
 52 54  1  0  0  0  0
 54 55  2  0  0  0  0
 54 53  1  0  0  0  0
M  END
>  <MODEL>
2

>  <REMARK>
 VINA RESULT:      -7.1      1.316      2.136
  Name = 
  15 active torsions:
  status: ('A' for Active; 'I' for Inactive)
    1  A    between atoms: N_1  and  C_10
    2  A    between atoms: N_3  and  N_29
    3  A    between atoms: C_4  and  C_38
    4  A    between atoms: C_4  and  C_50
    5  A    between atoms: C_6  and  C_25
    6  A    between atoms: C_6  and  C_42
    7  A    between atoms: O_11  and  C_41
    8  A    between atoms: O_11  and  C_50
    9  A    between atoms: C_12  and  C_55
   10  A    between atoms: C_15  and  C_33
   11  A    between atoms: C_21  and  C_22
   12  A    between atoms: C_21  and  C_50
   13  A    between atoms: C_24  and  C_49
   14  A    between atoms: N_40  and  C_42
   15  A    between atoms: N_40  and  C_49
                            x       y       z     vdW  Elec       q    Type
                         _______ _______ _______ _____ _____    ______ ____

>  <TORSDO>
F 15

$$$$
=
 OpenBabel11042416423D

 55 59  0  0  1  0  0  0  0  0999 V2000
  193.6140  176.3550  145.4270 F   0  0  0  0  0  0  0  0  0  0  0  0
  193.0410  175.9450  143.1840 C   0  0  0  0  0  0  0  0  0  0  0  0
  194.5410  173.6660  144.5060 C   0  0  0  0  0  0  0  0  0  0  0  0
  193.2480  173.2950  144.1050 O   0  0  0  0  0  0  0  0  0  0  0  0
  189.1580  175.4780  146.3100 C   0  0  0  0  0  2  0  0  0  0  0  0
  190.6040  174.4800  144.0850 C   0  0  1  0  0  0  0  0  0  0  0  0
  196.2120  175.3240  144.9790 O   0  0  0  0  0  1  0  0  0  0  0  0
  190.0790  175.9240  144.0530 C   0  0  0  0  0  2  0  0  0  0  0  0
  192.1960  174.3900  143.3070 P   0  0  1  0  0  4  0  0  0  0  0  0
  195.2700  172.8430  145.2020 N   0  0  0  0  0  0  0  0  0  0  0  0
  195.1360  175.0200  144.1410 C   0  0  2  0  0  3  0  0  0  0  0  0
  190.2590  173.7760  141.9710 C   0  0  2  0  0  3  0  0  0  0  0  0
  190.6600  173.9800  145.5340 C   0  0  0  0  0  2  0  0  0  0  0  0
  188.8600  176.1200  144.9620 C   0  0  2  0  0  3  0  0  0  0  0  0
  194.1410  176.1910  144.1540 C   0  0  2  0  0  3  0  0  0  0  0  0
  191.6720  173.7860  141.8340 O   0  0  0  0  0  0  0  0  0  0  0  0
  189.3980  174.1030  146.1460 O   0  0  0  0  0  0  0  0  0  0  0  0
  189.8080  173.6370  143.3100 O   0  0  0  0  0  0  0  0  0  0  0  0
  192.7230  176.7790  142.3480 O   0  0  0  0  0  0  0  0  0  0  0  0
  190.5300  169.4640  139.2730 C   0  0  0  0  0  2  0  0  0  0  0  0
  189.5660  172.7240  141.0920 C   0  0  1  0  0  3  0  0  0  0  0  0
  188.8180  173.6750  137.6180 C   0  0  0  0  0  2  0  0  0  0  0  0
  189.3110  174.1690  138.9930 C   0  0  0  0  0  2  0  0  0  0  0  0
  191.5860  171.1800  141.2820 C   0  0  0  0  0  2  0  0  0  0  0  0
  188.5930  173.4270  140.1260 C   0  0  0  0  0  2  0  0  0  0  0  0
  190.0490  170.8810  139.3720 C   0  0  0  0  0  0  0  0  0  0  0  0
  189.5470  171.4530  138.3160 C   0  0  0  0  0  0  0  0  0  0  0  0
  192.6130  170.5180  140.3660 C   0  0  0  0  0  2  0  0  0  0  0  0
  192.1470  168.1690  140.4540 O   0  0  0  0  0  1  0  0  0  0  0  0
  189.0440  172.2010  137.3720 C   0  0  0  0  0  3  0  0  0  0  0  0
  190.4670  171.7010  140.4890 N   0  0  0  0  0  0  0  0  0  0  0  0
  192.0200  169.2940  139.6330 C   0  0  1  0  0  0  0  0  0  0  0  0
  191.8990  168.4880  137.2190 C   0  0  0  0  0  1  0  0  0  0  0  0
  192.7810  169.0510  138.3270 C   0  0  0  0  0  2  0  0  0  0  0  0
  194.9250  171.5270  145.5810 N   0  0  0  0  0  2  0  0  0  0  0  0
  195.8180  170.5120  146.0700 C   0  0  0  0  0  0  0  0  0  0  0  0
  197.0540  170.7230  146.1770 O   0  0  0  0  0  0  0  0  0  0  0  0
  195.2990  169.2360  146.4410 N   0  0  0  0  0  0  0  0  0  0  0  0
  195.3640  168.1730  145.6850 C   0  0  0  0  0  3  0  0  0  0  0  0
  195.9140  168.1880  144.2920 C   0  0  0  0  0  2  0  0  0  0  0  0
  194.9440  168.7850  143.3920 N   0  0  0  0  0  2  0  0  0  0  0  0
  195.6640  169.2450  142.2160 C   0  0  0  0  0  2  0  0  0  0  0  0
  196.3360  170.5820  142.4960 C   0  0  0  0  0  2  0  0  0  0  0  0
  196.8280  172.5980  141.3280 O   0  0  0  0  0  1  0  0  0  0  0  0
  195.8360  171.6420  141.5280 C   0  0  0  0  0  2  0  0  0  0  0  0
  188.5670  177.6040  145.1640 C   0  0  0  0  0  2  0  0  0  0  0  0
  187.1240  177.9510  144.7910 C   0  0  2  0  0  3  0  0  0  0  0  0
  186.2340  177.7210  146.0130 C   0  0  2  0  0  3  0  0  0  0  0  0
  185.4670  176.5520  145.8800 O   0  0  0  0  0  1  0  0  0  0  0  0
  185.3570  178.9320  146.3440 C   0  0  0  0  0  2  0  0  0  0  0  0
  183.9490  178.7960  145.7870 C   0  0  0  0  0  1  0  0  0  0  0  0
  186.6720  177.1630  143.6920 O   0  0  0  0  0  0  0  0  0  0  0  0
  185.2830  177.8580  141.7440 C   0  0  0  0  0  1  0  0  0  0  0  0
  186.6090  177.6360  142.3790 C   0  0  0  0  0  0  0  0  0  0  0  0
  187.6580  177.8450  141.7090 O   0  0  0  0  0  0  0  0  0  0  0  0
  2  9  1  0  0  0  0
  2 15  1  0  0  0  0
  3 10  2  0  0  0  0
  4  3  1  0  0  0  0
  6  8  1  6  0  0  0
  6 13  1  0  0  0  0
  8 14  1  0  0  0  0
  9 16  1  6  0  0  0
  9  6  1  0  0  0  0
  9  4  1  0  0  0  0
 10 35  1  0  0  0  0
 11 15  1  0  0  0  0
 11  3  1  0  0  0  0
 11  7  1  1  0  0  0
 12 16  1  1  0  0  0
 12 18  1  0  0  0  0
 13 17  1  0  0  0  0
 14 46  1  1  0  0  0
 14  5  1  0  0  0  0
 15  1  1  1  0  0  0
 17  5  1  0  0  0  0
 18  6  1  0  0  0  0
 19  2  2  0  0  0  0
 20 26  1  0  0  0  0
 20 32  1  0  0  0  0
 21 25  1  6  0  0  0
 21 12  1  0  0  0  0
 22 23  1  0  0  0  0
 23 25  1  0  0  0  0
 26 31  1  0  0  0  0
 27 26  2  0  0  0  0
 28 24  1  0  0  0  0
 30 22  1  0  0  0  0
 30 27  2  0  0  0  0
 31 21  1  0  0  0  0
 31 24  1  0  0  0  0
 32 28  1  0  0  0  0
 32 29  1  1  0  0  0
 33 34  1  0  0  0  0
 34 32  1  0  0  0  0
 35 36  1  0  0  0  0
 36 37  2  0  0  0  0
 36 38  1  0  0  0  0
 39 38  2  0  0  0  0
 40 39  1  0  0  0  0
 41 40  1  0  0  0  0
 42 43  1  0  0  0  0
 42 41  1  0  0  0  0
 44 45  1  0  0  0  0
 45 43  1  0  0  0  0
 47 46  1  1  0  0  0
 47 48  1  0  0  0  0
 48 49  1  6  0  0  0
 48 50  1  0  0  0  0
 51 50  1  0  0  0  0
 52 47  1  0  0  0  0
 53 54  1  0  0  0  0
 54 52  1  0  0  0  0
 55 54  2  0  0  0  0
M  END
>  <MODEL>
3

>  <REMARK>
 VINA RESULT:      -6.7      3.313      9.111
  Name = 
  15 active torsions:
  status: ('A' for Active; 'I' for Inactive)
    1  A    between atoms: N_1  and  C_10
    2  A    between atoms: N_3  and  N_29
    3  A    between atoms: C_4  and  C_38
    4  A    between atoms: C_4  and  C_50
    5  A    between atoms: C_6  and  C_25
    6  A    between atoms: C_6  and  C_42
    7  A    between atoms: O_11  and  C_41
    8  A    between atoms: O_11  and  C_50
    9  A    between atoms: C_12  and  C_55
   10  A    between atoms: C_15  and  C_33
   11  A    between atoms: C_21  and  C_22
   12  A    between atoms: C_21  and  C_50
   13  A    between atoms: C_24  and  C_49
   14  A    between atoms: N_40  and  C_42
   15  A    between atoms: N_40  and  C_49
                            x       y       z     vdW  Elec       q    Type
                         _______ _______ _______ _____ _____    ______ ____

>  <TORSDO>
F 15

$$$$
=
 OpenBabel11042416423D

 55 59  0  0  1  0  0  0  0  0999 V2000
  190.0300  177.8170  146.7510 F   0  0  0  0  0  0  0  0  0  0  0  0
  189.5350  175.5260  146.5650 C   0  0  0  0  0  0  0  0  0  0  0  0
  187.5160  177.3360  145.2080 C   0  0  0  0  0  0  0  0  0  0  0  0
  188.1680  176.4850  144.3010 O   0  0  0  0  0  0  0  0  0  0  0  0
  193.2140  176.9870  143.5000 C   0  0  0  0  0  2  0  0  0  0  0  0
  190.8500  175.4710  143.8880 C   0  0  1  0  0  0  0  0  0  0  0  0
  187.3240  178.3790  147.3620 O   0  0  0  0  0  1  0  0  0  0  0  0
  192.0570  175.2300  144.8090 C   0  0  0  0  0  2  0  0  0  0  0  0
  189.3400  175.3420  144.8110 P   0  0  1  0  0  4  0  0  0  0  0  0
  186.7120  178.2610  144.7720 N   0  0  0  0  0  0  0  0  0  0  0  0
  187.7110  177.2040  146.7130 C   0  0  2  0  0  3  0  0  0  0  0  0
  190.0560  173.3870  143.5530 C   0  0  2  0  0  3  0  0  0  0  0  0
  190.9780  176.8410  143.2130 C   0  0  0  0  0  2  0  0  0  0  0  0
  193.3820  175.6180  144.1450 C   0  0  2  0  0  3  0  0  0  0  0  0
  189.1370  176.8340  147.1520 C   0  0  2  0  0  3  0  0  0  0  0  0
  188.9390  173.7860  144.3350 O   0  0  0  0  0  0  0  0  0  0  0  0
  192.2020  176.9380  142.5240 O   0  0  0  0  0  0  0  0  0  0  0  0
  190.7400  174.4640  142.9290 O   0  0  0  0  0  0  0  0  0  0  0  0
  189.9870  174.6240  147.2550 O   0  0  0  0  0  0  0  0  0  0  0  0
  191.6290  170.0530  140.0380 C   0  0  0  0  0  2  0  0  0  0  0  0
  189.7160  172.3240  142.4980 C   0  0  1  0  0  3  0  0  0  0  0  0
  188.3330  173.5170  139.3060 C   0  0  0  0  0  2  0  0  0  0  0  0
  188.7420  173.9100  140.7390 C   0  0  0  0  0  2  0  0  0  0  0  0
  192.1710  171.6570  142.3250 C   0  0  0  0  0  2  0  0  0  0  0  0
  188.4630  172.7620  141.7170 C   0  0  0  0  0  2  0  0  0  0  0  0
  190.6730  171.1390  140.4310 C   0  0  0  0  0  0  0  0  0  0  0  0
  189.8940  171.6540  139.5240 C   0  0  0  0  0  0  0  0  0  0  0  0
  193.2740  171.6090  141.2700 C   0  0  0  0  0  2  0  0  0  0  0  0
  193.7180  169.2840  140.8950 O   0  0  0  0  0  1  0  0  0  0  0  0
  189.0600  172.3080  138.7630 C   0  0  0  0  0  3  0  0  0  0  0  0
  190.8670  171.8440  141.6800 N   0  0  0  0  0  0  0  0  0  0  0  0
  193.1050  170.4020  140.3200 C   0  0  1  0  0  0  0  0  0  0  0  0
  193.3120  169.7650  137.8610 C   0  0  0  0  0  1  0  0  0  0  0  0
  193.7690  170.7020  138.9740 C   0  0  0  0  0  2  0  0  0  0  0  0
  186.3500  178.4980  143.4280 N   0  0  0  0  0  2  0  0  0  0  0  0
  185.0390  178.3600  142.8540 C   0  0  0  0  0  0  0  0  0  0  0  0
  184.0610  177.9660  143.5410 O   0  0  0  0  0  0  0  0  0  0  0  0
  184.8360  178.6710  141.4760 N   0  0  0  0  0  0  0  0  0  0  0  0
  185.4530  178.0740  140.4940 C   0  0  0  0  0  3  0  0  0  0  0  0
  186.5210  177.0440  140.6990 C   0  0  0  0  0  2  0  0  0  0  0  0
  187.1910  176.7780  139.4380 N   0  0  0  0  0  2  0  0  0  0  0  0
  186.2020  176.9140  138.3810 C   0  0  0  0  0  2  0  0  0  0  0  0
  186.6340  176.1320  137.1490 C   0  0  0  0  0  2  0  0  0  0  0  0
  185.9310  176.1320  134.8740 O   0  0  0  0  0  1  0  0  0  0  0  0
  185.4730  175.9820  136.1790 C   0  0  0  0  0  2  0  0  0  0  0  0
  194.5080  175.6810  145.1740 C   0  0  0  0  0  2  0  0  0  0  0  0
  195.6880  174.7930  144.7760 C   0  0  2  0  0  3  0  0  0  0  0  0
  196.6060  175.5870  143.8450 C   0  0  2  0  0  3  0  0  0  0  0  0
  196.4610  176.9710  144.0350 O   0  0  0  0  0  1  0  0  0  0  0  0
  196.4310  175.2030  142.3730 C   0  0  0  0  0  2  0  0  0  0  0  0
  196.3220  176.4190  141.4660 C   0  0  0  0  0  1  0  0  0  0  0  0
  195.2430  173.5990  144.1350 O   0  0  0  0  0  0  0  0  0  0  0  0
  196.0410  171.3140  143.5460 C   0  0  0  0  0  1  0  0  0  0  0  0
  195.6070  172.3170  144.5540 C   0  0  0  0  0  0  0  0  0  0  0  0
  195.5400  171.9840  145.7690 O   0  0  0  0  0  0  0  0  0  0  0  0
  2 15  1  0  0  0  0
  2 19  2  0  0  0  0
  3 11  1  0  0  0  0
  4  3  1  0  0  0  0
  5 14  1  0  0  0  0
  6 13  1  6  0  0  0
  6  8  1  0  0  0  0
  6  9  1  0  0  0  0
  9  4  1  6  0  0  0
  9  2  1  0  0  0  0
 10  3  2  0  0  0  0
 11 15  1  0  0  0  0
 11  7  1  1  0  0  0
 12 18  1  6  0  0  0
 12 16  1  0  0  0  0
 14  8  1  0  0  0  0
 14 46  1  1  0  0  0
 15  1  1  6  0  0  0
 16  9  1  0  0  0  0
 17 13  1  0  0  0  0
 17  5  1  0  0  0  0
 18  6  1  0  0  0  0
 20 32  1  0  0  0  0
 20 26  1  0  0  0  0
 21 25  1  6  0  0  0
 21 12  1  0  0  0  0
 22 23  1  0  0  0  0
 23 25  1  0  0  0  0
 26 31  1  0  0  0  0
 27 26  2  0  0  0  0
 28 24  1  0  0  0  0
 30 22  1  0  0  0  0
 30 27  2  0  0  0  0
 31 24  1  0  0  0  0
 31 21  1  0  0  0  0
 32 29  1  1  0  0  0
 32 28  1  0  0  0  0
 33 34  1  0  0  0  0
 34 32  1  0  0  0  0
 35 10  1  0  0  0  0
 36 35  1  0  0  0  0
 36 37  2  0  0  0  0
 38 36  1  0  0  0  0
 39 40  1  0  0  0  0
 39 38  2  0  0  0  0
 41 40  1  0  0  0  0
 42 41  1  0  0  0  0
 43 42  1  0  0  0  0
 44 45  1  0  0  0  0
 45 43  1  0  0  0  0
 47 46  1  6  0  0  0
 48 49  1  6  0  0  0
 48 47  1  0  0  0  0
 50 48  1  0  0  0  0
 51 50  1  0  0  0  0
 52 54  1  0  0  0  0
 52 47  1  0  0  0  0
 53 54  1  0  0  0  0
 54 55  2  0  0  0  0
M  END
>  <MODEL>
4

>  <REMARK>
 VINA RESULT:      -6.7      1.814      2.972
  Name = 
  15 active torsions:
  status: ('A' for Active; 'I' for Inactive)
    1  A    between atoms: N_1  and  C_10
    2  A    between atoms: N_3  and  N_29
    3  A    between atoms: C_4  and  C_38
    4  A    between atoms: C_4  and  C_50
    5  A    between atoms: C_6  and  C_25
    6  A    between atoms: C_6  and  C_42
    7  A    between atoms: O_11  and  C_41
    8  A    between atoms: O_11  and  C_50
    9  A    between atoms: C_12  and  C_55
   10  A    between atoms: C_15  and  C_33
   11  A    between atoms: C_21  and  C_22
   12  A    between atoms: C_21  and  C_50
   13  A    between atoms: C_24  and  C_49
   14  A    between atoms: N_40  and  C_42
   15  A    between atoms: N_40  and  C_49
                            x       y       z     vdW  Elec       q    Type
                         _______ _______ _______ _____ _____    ______ ____

>  <TORSDO>
F 15

$$$$
=
 OpenBabel11042416423D

 55 59  0  0  1  0  0  0  0  0999 V2000
  192.0030  176.2390  146.0500 F   0  0  0  0  0  0  0  0  0  0  0  0
  192.4680  176.8240  143.8210 C   0  0  0  0  0  0  0  0  0  0  0  0
  194.7780  175.4730  145.2460 C   0  0  0  0  0  0  0  0  0  0  0  0
  194.3160  174.7280  144.1500 O   0  0  0  0  0  0  0  0  0  0  0  0
  189.5770  172.7540  144.2120 C   0  0  0  0  0  2  0  0  0  0  0  0
  191.7620  174.0560  142.9590 C   0  0  1  0  0  0  0  0  0  0  0  0
  194.5260  177.2300  146.8640 O   0  0  0  0  0  1  0  0  0  0  0  0
  190.3790  174.7260  142.9440 C   0  0  0  0  0  2  0  0  0  0  0  0
  193.0320  175.2790  143.1540 P   0  0  1  0  0  4  0  0  0  0  0  0
  195.6810  174.9750  146.0400 N   0  0  0  0  0  0  0  0  0  0  0  0
  194.2580  176.8750  145.5390 C   0  0  2  0  0  3  0  0  0  0  0  0
  192.5570  174.5070  140.8980 C   0  0  2  0  0  3  0  0  0  0  0  0
  191.8180  173.0070  144.0760 C   0  0  0  0  0  2  0  0  0  0  0  0
  189.2390  173.7110  143.0770 C   0  0  2  0  0  3  0  0  0  0  0  0
  192.7620  177.0850  145.2550 C   0  0  2  0  0  3  0  0  0  0  0  0
  193.4880  175.3630  141.5430 O   0  0  0  0  0  0  0  0  0  0  0  0
  190.7740  172.0740  143.9270 O   0  0  0  0  0  0  0  0  0  0  0  0
  192.0520  173.4710  141.7270 O   0  0  0  0  0  0  0  0  0  0  0  0
  191.8540  177.6280  143.1340 O   0  0  0  0  0  0  0  0  0  0  0  0
  191.7180  171.7590  136.6910 C   0  0  0  0  0  2  0  0  0  0  0  0
  193.0900  173.8970  139.5930 C   0  0  1  0  0  3  0  0  0  0  0  0
  195.2520  170.9370  139.8900 C   0  0  0  0  0  2  0  0  0  0  0  0
  194.5300  172.0650  140.6540 C   0  0  0  0  0  2  0  0  0  0  0  0
  190.7200  173.3190  138.8500 C   0  0  0  0  0  2  0  0  0  0  0  0
  194.5120  173.3550  139.8260 C   0  0  0  0  0  2  0  0  0  0  0  0
  192.6030  172.0620  137.8640 C   0  0  0  0  0  0  0  0  0  0  0  0
  193.5990  171.2670  138.1260 C   0  0  0  0  0  0  0  0  0  0  0  0
  189.9000  172.0820  138.4890 C   0  0  0  0  0  2  0  0  0  0  0  0
  189.4520  172.2580  136.1420 O   0  0  0  0  0  1  0  0  0  0  0  0
  194.6210  170.5840  138.5630 C   0  0  0  0  0  3  0  0  0  0  0  0
  192.1480  172.9850  138.8810 N   0  0  0  0  0  0  0  0  0  0  0  0
  190.2360  171.5680  137.0710 C   0  0  1  0  0  0  0  0  0  0  0  0
  190.0250  169.3550  138.3170 C   0  0  0  0  0  1  0  0  0  0  0  0
  189.9290  170.0710  136.9750 C   0  0  0  0  0  2  0  0  0  0  0  0
  196.3300  173.7290  145.9000 N   0  0  0  0  0  2  0  0  0  0  0  0
  197.3240  173.3850  144.9190 C   0  0  0  0  0  0  0  0  0  0  0  0
  197.6910  174.2070  144.0410 O   0  0  0  0  0  0  0  0  0  0  0  0
  197.9080  172.0830  144.9350 N   0  0  0  0  0  0  0  0  0  0  0  0
  197.2880  170.9990  144.5550 C   0  0  0  0  0  3  0  0  0  0  0  0
  195.8500  170.9790  144.1380 C   0  0  0  0  0  2  0  0  0  0  0  0
  195.0310  170.4960  145.2350 N   0  0  0  0  0  2  0  0  0  0  0  0
  193.7650  170.0530  144.6740 C   0  0  0  0  0  2  0  0  0  0  0  0
  193.9820  169.4330  143.3010 C   0  0  0  0  0  2  0  0  0  0  0  0
  192.0210  168.2040  142.7410 O   0  0  0  0  0  1  0  0  0  0  0  0
  192.6800  169.4080  142.5160 C   0  0  0  0  0  2  0  0  0  0  0  0
  187.9190  174.4130  143.3860 C   0  0  0  0  0  2  0  0  0  0  0  0
  188.0560  175.9340  143.3040 C   0  0  2  0  0  3  0  0  0  0  0  0
  187.8080  176.5240  144.6930 C   0  0  2  0  0  3  0  0  0  0  0  0
  188.3420  175.7080  145.7030 O   0  0  0  0  0  1  0  0  0  0  0  0
  186.3310  176.8370  144.9480 C   0  0  0  0  0  2  0  0  0  0  0  0
  186.1110  178.2780  145.3820 C   0  0  0  0  0  1  0  0  0  0  0  0
  187.1390  176.4840  142.3590 O   0  0  0  0  0  0  0  0  0  0  0  0
  188.6790  178.3040  141.6360 C   0  0  0  0  0  1  0  0  0  0  0  0
  187.4990  177.4320  141.3980 C   0  0  0  0  0  0  0  0  0  0  0  0
  186.8190  177.5850  140.3450 O   0  0  0  0  0  0  0  0  0  0  0  0
  2 15  1  0  0  0  0
  3 11  1  0  0  0  0
  3 10  2  0  0  0  0
  4  3  1  0  0  0  0
  6  8  1  6  0  0  0
  6  9  1  0  0  0  0
  6 13  1  0  0  0  0
  8 14  1  0  0  0  0
  9 16  1  6  0  0  0
  9  2  1  0  0  0  0
  9  4  1  0  0  0  0
 11  7  1  1  0  0  0
 12 16  1  1  0  0  0
 12 18  1  0  0  0  0
 14 46  1  1  0  0  0
 14  5  1  0  0  0  0
 15 11  1  0  0  0  0
 15  1  1  1  0  0  0
 17 13  1  0  0  0  0
 17  5  1  0  0  0  0
 18  6  1  0  0  0  0
 19  2  2  0  0  0  0
 20 32  1  0  0  0  0
 20 26  1  0  0  0  0
 21 25  1  1  0  0  0
 21 12  1  0  0  0  0
 22 23  1  0  0  0  0
 24 31  1  0  0  0  0
 25 23  1  0  0  0  0
 26 27  2  0  0  0  0
 26 31  1  0  0  0  0
 27 30  2  0  0  0  0
 28 24  1  0  0  0  0
 30 22  1  0  0  0  0
 31 21  1  0  0  0  0
 32 29  1  6  0  0  0
 32 28  1  0  0  0  0
 34 32  1  0  0  0  0
 34 33  1  0  0  0  0
 35 10  1  0  0  0  0
 36 38  1  0  0  0  0
 36 35  1  0  0  0  0
 37 36  2  0  0  0  0
 39 38  2  0  0  0  0
 40 39  1  0  0  0  0
 40 41  1  0  0  0  0
 42 41  1  0  0  0  0
 43 42  1  0  0  0  0
 45 44  1  0  0  0  0
 45 43  1  0  0  0  0
 47 46  1  1  0  0  0
 47 48  1  0  0  0  0
 48 50  1  0  0  0  0
 48 49  1  1  0  0  0
 50 51  1  0  0  0  0
 52 47  1  0  0  0  0
 54 53  1  0  0  0  0
 54 52  1  0  0  0  0
 55 54  2  0  0  0  0
M  END
>  <MODEL>
5

>  <REMARK>
 VINA RESULT:      -6.5      3.840      8.748
  Name = 
  15 active torsions:
  status: ('A' for Active; 'I' for Inactive)
    1  A    between atoms: N_1  and  C_10
    2  A    between atoms: N_3  and  N_29
    3  A    between atoms: C_4  and  C_38
    4  A    between atoms: C_4  and  C_50
    5  A    between atoms: C_6  and  C_25
    6  A    between atoms: C_6  and  C_42
    7  A    between atoms: O_11  and  C_41
    8  A    between atoms: O_11  and  C_50
    9  A    between atoms: C_12  and  C_55
   10  A    between atoms: C_15  and  C_33
   11  A    between atoms: C_21  and  C_22
   12  A    between atoms: C_21  and  C_50
   13  A    between atoms: C_24  and  C_49
   14  A    between atoms: N_40  and  C_42
   15  A    between atoms: N_40  and  C_49
                            x       y       z     vdW  Elec       q    Type
                         _______ _______ _______ _____ _____    ______ ____

>  <TORSDO>
F 15

$$$$
=
 OpenBabel11042416423D

 55 59  0  0  1  0  0  0  0  0999 V2000
  195.0200  175.3150  145.5900 F   0  0  0  0  0  0  0  0  0  0  0  0
  194.8250  175.5820  143.2630 C   0  0  0  0  0  0  0  0  0  0  0  0
  196.0470  172.9360  144.1000 C   0  0  0  0  0  0  0  0  0  0  0  0
  194.8340  172.7730  143.4120 O   0  0  0  0  0  0  0  0  0  0  0  0
  190.4670  174.5070  145.4780 C   0  0  0  0  0  2  0  0  0  0  0  0
  192.2500  174.0790  143.3170 C   0  0  1  0  0  0  0  0  0  0  0  0
  197.6400  174.2900  145.2800 O   0  0  0  0  0  1  0  0  0  0  0  0
  191.7600  175.5040  143.6150 C   0  0  0  0  0  2  0  0  0  0  0  0
  193.9470  174.1100  142.8040 P   0  0  1  0  0  4  0  0  0  0  0  0
  196.6360  171.9080  144.6370 N   0  0  0  0  0  0  0  0  0  0  0  0
  196.7150  174.2980  144.2320 C   0  0  2  0  0  3  0  0  0  0  0  0
  192.2530  174.0140  141.0630 C   0  0  2  0  0  3  0  0  0  0  0  0
  192.0540  173.1930  144.5530 C   0  0  0  0  0  2  0  0  0  0  0  0
  190.4090  175.5160  144.3390 C   0  0  2  0  0  3  0  0  0  0  0  0
  195.7510  175.4790  144.4230 C   0  0  2  0  0  3  0  0  0  0  0  0
  193.6690  173.9740  141.1570 O   0  0  0  0  0  0  0  0  0  0  0  0
  190.7090  173.2190  144.9690 O   0  0  0  0  0  0  0  0  0  0  0  0
  191.5820  173.5360  142.2190 O   0  0  0  0  0  0  0  0  0  0  0  0
  194.6660  176.6340  142.6600 O   0  0  0  0  0  0  0  0  0  0  0  0
  192.0170  173.5920  135.9910 C   0  0  0  0  0  2  0  0  0  0  0  0
  191.7010  173.2940  139.8230 C   0  0  1  0  0  3  0  0  0  0  0  0
  188.1920  173.9430  138.9330 C   0  0  0  0  0  2  0  0  0  0  0  0
  189.2950  174.1540  139.9890 C   0  0  0  0  0  2  0  0  0  0  0  0
  193.3480  174.5340  138.3230 C   0  0  0  0  0  2  0  0  0  0  0  0
  190.2220  172.9350  140.0570 C   0  0  0  0  0  2  0  0  0  0  0  0
  191.2970  173.6060  137.3070 C   0  0  0  0  0  0  0  0  0  0  0  0
  189.9960  173.6520  137.3150 C   0  0  0  0  0  0  0  0  0  0  0  0
  193.3190  175.4980  137.1380 C   0  0  0  0  0  2  0  0  0  0  0  0
  194.1880  174.2680  135.2740 O   0  0  0  0  0  1  0  0  0  0  0  0
  188.7110  173.7220  137.5300 C   0  0  0  0  0  3  0  0  0  0  0  0
  192.0240  173.9330  138.5150 N   0  0  0  0  0  0  0  0  0  0  0  0
  192.9990  174.7670  135.8150 C   0  0  1  0  0  0  0  0  0  0  0  0
  192.5400  177.2040  135.2270 C   0  0  0  0  0  1  0  0  0  0  0  0
  192.3670  175.7450  134.8210 C   0  0  0  0  0  2  0  0  0  0  0  0
  196.2120  170.5620  144.5660 N   0  0  0  0  0  2  0  0  0  0  0  0
  195.1930  169.9400  145.3670 C   0  0  0  0  0  0  0  0  0  0  0  0
  194.5840  170.5770  146.2650 O   0  0  0  0  0  0  0  0  0  0  0  0
  194.8620  168.5700  145.1450 N   0  0  0  0  0  0  0  0  0  0  0  0
  193.9300  168.1670  144.3250 C   0  0  0  0  0  3  0  0  0  0  0  0
  193.0300  169.1040  143.5800 C   0  0  0  0  0  2  0  0  0  0  0  0
  192.3060  168.3720  142.5560 N   0  0  0  0  0  2  0  0  0  0  0  0
  192.5410  169.0450  141.2890 C   0  0  0  0  0  2  0  0  0  0  0  0
  193.2560  170.3690  141.5170 C   0  0  0  0  0  2  0  0  0  0  0  0
  194.8500  169.3980  140.0370 O   0  0  0  0  0  1  0  0  0  0  0  0
  194.2900  170.6100  140.4280 C   0  0  0  0  0  2  0  0  0  0  0  0
  190.1090  176.9010  144.9070 C   0  0  0  0  0  2  0  0  0  0  0  0
  188.6540  177.3080  144.6650 C   0  0  2  0  0  3  0  0  0  0  0  0
  187.9510  177.4410  146.0160 C   0  0  2  0  0  3  0  0  0  0  0  0
  187.7230  176.1870  146.6050 O   0  0  0  0  0  1  0  0  0  0  0  0
  186.6630  178.2650  145.9340 C   0  0  0  0  0  2  0  0  0  0  0  0
  185.6590  177.8780  147.0080 C   0  0  0  0  0  1  0  0  0  0  0  0
  187.9810  176.3530  143.8460 O   0  0  0  0  0  0  0  0  0  0  0  0
  187.8290  177.3120  141.5520 C   0  0  0  0  0  1  0  0  0  0  0  0
  187.1910  176.7000  142.7480 C   0  0  0  0  0  0  0  0  0  0  0  0
  185.9400  176.5350  142.7650 O   0  0  0  0  0  0  0  0  0  0  0  0
  2 15  1  0  0  0  0
  3 11  1  0  0  0  0
  3 10  2  0  0  0  0
  4  3  1  0  0  0  0
  6  8  1  1  0  0  0
  6 13  1  0  0  0  0
  8 14  1  0  0  0  0
  9 16  1  6  0  0  0
  9  2  1  0  0  0  0
  9  6  1  0  0  0  0
  9  4  1  0  0  0  0
 11 15  1  0  0  0  0
 11  7  1  1  0  0  0
 12 16  1  1  0  0  0
 12 18  1  0  0  0  0
 13 17  1  0  0  0  0
 14 46  1  1  0  0  0
 14  5  1  0  0  0  0
 15  1  1  1  0  0  0
 17  5  1  0  0  0  0
 18  6  1  0  0  0  0
 19  2  2  0  0  0  0
 20 26  1  0  0  0  0
 21 25  1  1  0  0  0
 21 12  1  0  0  0  0
 22 23  1  0  0  0  0
 23 25  1  0  0  0  0
 24 31  1  0  0  0  0
 26 27  2  0  0  0  0
 26 31  1  0  0  0  0
 27 30  2  0  0  0  0
 28 24  1  0  0  0  0
 30 22  1  0  0  0  0
 31 21  1  0  0  0  0
 32 29  1  6  0  0  0
 32 20  1  0  0  0  0
 32 28  1  0  0  0  0
 34 33  1  0  0  0  0
 34 32  1  0  0  0  0
 35 10  1  0  0  0  0
 35 36  1  0  0  0  0
 36 37  2  0  0  0  0
 38 36  1  0  0  0  0
 39 38  2  0  0  0  0
 40 39  1  0  0  0  0
 41 40  1  0  0  0  0
 42 43  1  0  0  0  0
 42 41  1  0  0  0  0
 44 45  1  0  0  0  0
 45 43  1  0  0  0  0
 47 46  1  1  0  0  0
 47 48  1  0  0  0  0
 48 49  1  6  0  0  0
 50 48  1  0  0  0  0
 50 51  1  0  0  0  0
 52 47  1  0  0  0  0
 53 54  1  0  0  0  0
 54 55  2  0  0  0  0
 54 52  1  0  0  0  0
M  END
>  <MODEL>
6

>  <REMARK>
 VINA RESULT:      -6.4      3.780      8.846
  Name = 
  15 active torsions:
  status: ('A' for Active; 'I' for Inactive)
    1  A    between atoms: N_1  and  C_10
    2  A    between atoms: N_3  and  N_29
    3  A    between atoms: C_4  and  C_38
    4  A    between atoms: C_4  and  C_50
    5  A    between atoms: C_6  and  C_25
    6  A    between atoms: C_6  and  C_42
    7  A    between atoms: O_11  and  C_41
    8  A    between atoms: O_11  and  C_50
    9  A    between atoms: C_12  and  C_55
   10  A    between atoms: C_15  and  C_33
   11  A    between atoms: C_21  and  C_22
   12  A    between atoms: C_21  and  C_50
   13  A    between atoms: C_24  and  C_49
   14  A    between atoms: N_40  and  C_42
   15  A    between atoms: N_40  and  C_49
                            x       y       z     vdW  Elec       q    Type
                         _______ _______ _______ _____ _____    ______ ____

>  <TORSDO>
F 15

$$$$
=
 OpenBabel11042416423D

 55 59  0  0  1  0  0  0  0  0999 V2000
  188.6620  175.2980  140.0130 F   0  0  0  0  0  0  0  0  0  0  0  0
  188.6550  173.0630  140.7420 C   0  0  0  0  0  0  0  0  0  0  0  0
  189.8930  173.4590  138.0030 C   0  0  0  0  0  0  0  0  0  0  0  0
  190.8130  172.9600  138.9390 O   0  0  0  0  0  0  0  0  0  0  0  0
  192.1820  175.8340  142.9660 C   0  0  0  0  0  2  0  0  0  0  0  0
  191.4500  173.3890  141.7330 C   0  0  1  0  0  0  0  0  0  0  0  0
  187.7980  174.4890  137.4420 O   0  0  0  0  0  1  0  0  0  0  0  0
  190.6520  173.8850  142.9480 C   0  0  0  0  0  2  0  0  0  0  0  0
  190.3640  172.6200  140.5600 P   0  0  1  0  0  4  0  0  0  0  0  0
  190.2950  173.8040  136.8140 N   0  0  0  0  0  0  0  0  0  0  0  0
  188.4130  173.6040  138.3320 C   0  0  2  0  0  3  0  0  0  0  0  0
  191.5710  171.1660  142.0900 C   0  0  2  0  0  3  0  0  0  0  0  0
  192.2170  174.5570  141.1030 C   0  0  0  0  0  2  0  0  0  0  0  0
  191.4780  174.8120  143.8480 C   0  0  2  0  0  3  0  0  0  0  0  0
  188.1090  174.0490  139.7720 C   0  0  2  0  0  3  0  0  0  0  0  0
  190.6990  171.0320  140.9770 O   0  0  0  0  0  0  0  0  0  0  0  0
  193.0380  175.1810  142.0610 O   0  0  0  0  0  0  0  0  0  0  0  0
  192.3290  172.3670  142.0900 O   0  0  0  0  0  0  0  0  0  0  0  0
  187.9650  172.5880  141.6330 O   0  0  0  0  0  0  0  0  0  0  0  0
  195.1880  168.8270  144.8090 C   0  0  0  0  0  2  0  0  0  0  0  0
  192.5180  169.9700  142.2730 C   0  0  1  0  0  3  0  0  0  0  0  0
  195.4680  169.8190  140.0830 C   0  0  0  0  0  2  0  0  0  0  0  0
  194.1380  170.5420  140.3760 C   0  0  0  0  0  2  0  0  0  0  0  0
  193.0810  170.7310  144.6410 C   0  0  0  0  0  2  0  0  0  0  0  0
  193.0900  169.5570  140.9050 C   0  0  0  0  0  2  0  0  0  0  0  0
  194.6760  169.2550  143.4670 C   0  0  0  0  0  0  0  0  0  0  0  0
  195.4550  169.1490  142.4290 C   0  0  0  0  0  0  0  0  0  0  0  0
  194.3050  171.1630  145.4460 C   0  0  0  0  0  2  0  0  0  0  0  0
  194.6710  169.4290  147.0580 O   0  0  0  0  0  1  0  0  0  0  0  0
  196.0850  169.1450  141.2870 C   0  0  0  0  0  3  0  0  0  0  0  0
  193.5020  170.0980  143.3860 N   0  0  0  0  0  0  0  0  0  0  0  0
  195.1720  169.9530  145.8620 C   0  0  1  0  0  0  0  0  0  0  0  0
  196.8160  171.9000  145.8850 C   0  0  0  0  0  1  0  0  0  0  0  0
  196.6200  170.4000  146.0760 C   0  0  0  0  0  2  0  0  0  0  0  0
  191.6040  173.6830  136.3000 N   0  0  0  0  0  2  0  0  0  0  0  0
  192.4840  174.7570  135.9280 C   0  0  0  0  0  0  0  0  0  0  0  0
  192.1220  175.9590  136.0110 O   0  0  0  0  0  0  0  0  0  0  0  0
  193.7960  174.4610  135.4510 N   0  0  0  0  0  0  0  0  0  0  0  0
  194.8660  174.4840  136.1970 C   0  0  0  0  0  3  0  0  0  0  0  0
  194.8590  174.9150  137.6310 C   0  0  0  0  0  2  0  0  0  0  0  0
  195.0480  173.7580  138.4880 N   0  0  0  0  0  2  0  0  0  0  0  0
  196.3890  173.8380  139.0420 C   0  0  0  0  0  2  0  0  0  0  0  0
  196.8000  175.2910  139.2290 C   0  0  0  0  0  2  0  0  0  0  0  0
  196.3810  174.9070  141.5410 O   0  0  0  0  0  1  0  0  0  0  0  0
  197.2530  175.5370  140.6590 C   0  0  0  0  0  2  0  0  0  0  0  0
  190.5810  175.5400  144.8460 C   0  0  0  0  0  2  0  0  0  0  0  0
  191.1700  175.5130  146.2580 C   0  0  2  0  0  3  0  0  0  0  0  0
  190.0370  175.7220  147.2640 C   0  0  2  0  0  3  0  0  0  0  0  0
  189.3020  174.5420  147.4660 O   0  0  0  0  0  1  0  0  0  0  0  0
  189.1250  176.8940  146.8940 C   0  0  0  0  0  2  0  0  0  0  0  0
  187.6560  176.5000  146.8700 C   0  0  0  0  0  1  0  0  0  0  0  0
  192.1700  176.5170  146.4190 O   0  0  0  0  0  0  0  0  0  0  0  0
  194.0120  174.8600  146.1590 C   0  0  0  0  0  1  0  0  0  0  0  0
  193.5410  176.2490  146.4010 C   0  0  0  0  0  0  0  0  0  0  0  0
  194.3870  177.1600  146.6210 O   0  0  0  0  0  0  0  0  0  0  0  0
  2 19  2  0  0  0  0
  3 11  1  0  0  0  0
  3  4  1  0  0  0  0
  5 14  1  0  0  0  0
  6 13  1  6  0  0  0
  6 18  1  0  0  0  0
  6  8  1  0  0  0  0
  8 14  1  0  0  0  0
  9  4  1  6  0  0  0
  9  2  1  0  0  0  0
  9 16  1  0  0  0  0
  9  6  1  0  0  0  0
 10  3  2  0  0  0  0
 11  7  1  6  0  0  0
 11 15  1  0  0  0  0
 12 16  1  6  0  0  0
 12 21  1  0  0  0  0
 13 17  1  0  0  0  0
 14 46  1  1  0  0  0
 15  1  1  1  0  0  0
 15  2  1  0  0  0  0
 17  5  1  0  0  0  0
 18 12  1  0  0  0  0
 20 32  1  0  0  0  0
 21 25  1  6  0  0  0
 21 31  1  0  0  0  0
 22 23  1  0  0  0  0
 22 30  1  0  0  0  0
 23 25  1  0  0  0  0
 24 28  1  0  0  0  0
 26 20  1  0  0  0  0
 27 26  2  0  0  0  0
 28 32  1  0  0  0  0
 30 27  2  0  0  0  0
 31 26  1  0  0  0  0
 31 24  1  0  0  0  0
 32 34  1  0  0  0  0
 32 29  1  1  0  0  0
 33 34  1  0  0  0  0
 35 10  1  0  0  0  0
 36 37  2  0  0  0  0
 36 35  1  0  0  0  0
 38 36  1  0  0  0  0
 38 39  2  0  0  0  0
 39 40  1  0  0  0  0
 40 41  1  0  0  0  0
 41 42  1  0  0  0  0
 42 43  1  0  0  0  0
 43 45  1  0  0  0  0
 45 44  1  0  0  0  0
 47 46  1  6  0  0  0
 47 52  1  0  0  0  0
 47 48  1  0  0  0  0
 48 49  1  6  0  0  0
 50 48  1  0  0  0  0
 51 50  1  0  0  0  0
 53 54  1  0  0  0  0
 54 52  1  0  0  0  0
 54 55  2  0  0  0  0
M  END
>  <MODEL>
7

>  <REMARK>
 VINA RESULT:      -6.4      4.418      8.269
  Name = 
  15 active torsions:
  status: ('A' for Active; 'I' for Inactive)
    1  A    between atoms: N_1  and  C_10
    2  A    between atoms: N_3  and  N_29
    3  A    between atoms: C_4  and  C_38
    4  A    between atoms: C_4  and  C_50
    5  A    between atoms: C_6  and  C_25
    6  A    between atoms: C_6  and  C_42
    7  A    between atoms: O_11  and  C_41
    8  A    between atoms: O_11  and  C_50
    9  A    between atoms: C_12  and  C_55
   10  A    between atoms: C_15  and  C_33
   11  A    between atoms: C_21  and  C_22
   12  A    between atoms: C_21  and  C_50
   13  A    between atoms: C_24  and  C_49
   14  A    between atoms: N_40  and  C_42
   15  A    between atoms: N_40  and  C_49
                            x       y       z     vdW  Elec       q    Type
                         _______ _______ _______ _____ _____    ______ ____

>  <TORSDO>
F 15

$$$$
=
 OpenBabel11042416423D

 55 59  0  0  1  0  0  0  0  0999 V2000
  194.2460  173.8890  146.2540 F   0  0  0  0  0  0  0  0  0  0  0  0
  194.4940  175.2500  144.3530 C   0  0  0  0  0  0  0  0  0  0  0  0
  196.4860  172.9680  144.5020 C   0  0  0  0  0  0  0  0  0  0  0  0
  195.6460  172.8740  143.3810 O   0  0  0  0  0  0  0  0  0  0  0  0
  190.6090  172.1090  144.0160 C   0  0  0  0  0  2  0  0  0  0  0  0
  192.8490  173.3260  142.7750 C   0  0  1  0  0  0  0  0  0  0  0  0
  197.0480  173.8840  146.6490 O   0  0  0  0  0  1  0  0  0  0  0  0
  191.7530  174.2150  143.3820 C   0  0  0  0  0  2  0  0  0  0  0  0
  194.4450  174.0520  143.0450 P   0  0  1  0  0  4  0  0  0  0  0  0
  197.3120  172.0030  144.7820 N   0  0  0  0  0  0  0  0  0  0  0  0
  196.4720  174.1890  145.4130 C   0  0  2  0  0  3  0  0  0  0  0  0
  193.3940  174.4280  140.8850 C   0  0  2  0  0  3  0  0  0  0  0  0
  192.7670  171.9170  143.3740 C   0  0  0  0  0  2  0  0  0  0  0  0
  190.3960  173.5040  143.4440 C   0  0  2  0  0  3  0  0  0  0  0  0
  195.0850  174.8100  145.6460 C   0  0  2  0  0  3  0  0  0  0  0  0
  194.6340  174.7120  141.5160 O   0  0  0  0  0  0  0  0  0  0  0  0
  191.4790  171.3780  143.1880 O   0  0  0  0  0  0  0  0  0  0  0  0
  192.7410  173.2710  141.3850 O   0  0  0  0  0  0  0  0  0  0  0  0
  194.0500  176.3790  144.2020 O   0  0  0  0  0  0  0  0  0  0  0  0
  191.3050  173.0720  136.4410 C   0  0  0  0  0  2  0  0  0  0  0  0
  193.4940  174.3310  139.3550 C   0  0  1  0  0  3  0  0  0  0  0  0
  195.6830  171.7120  137.9850 C   0  0  0  0  0  2  0  0  0  0  0  0
  195.2240  172.4440  139.2610 C   0  0  0  0  0  2  0  0  0  0  0  0
  191.0200  173.7370  139.1920 C   0  0  0  0  0  2  0  0  0  0  0  0
  194.9250  173.9180  138.9620 C   0  0  0  0  0  2  0  0  0  0  0  0
  192.5110  173.0930  137.3320 C   0  0  0  0  0  0  0  0  0  0  0  0
  193.5510  172.3820  137.0050 C   0  0  0  0  0  0  0  0  0  0  0  0
  190.1470  172.5880  138.6920 C   0  0  0  0  0  2  0  0  0  0  0  0
  188.9740  173.4420  136.7850 O   0  0  0  0  0  1  0  0  0  0  0  0
  194.6690  171.7230  136.8640 C   0  0  0  0  0  3  0  0  0  0  0  0
  192.3890  173.5850  138.6880 N   0  0  0  0  0  0  0  0  0  0  0  0
  190.0230  172.5930  137.1520 C   0  0  1  0  0  0  0  0  0  0  0  0
  190.3900  170.8660  135.3150 C   0  0  0  0  0  1  0  0  0  0  0  0
  189.7230  171.1780  136.6490 C   0  0  0  0  0  2  0  0  0  0  0  0
  197.5200  170.8280  144.0270 N   0  0  0  0  0  2  0  0  0  0  0  0
  196.8010  169.5890  144.1510 C   0  0  0  0  0  0  0  0  0  0  0  0
  195.8970  169.4390  145.0130 O   0  0  0  0  0  0  0  0  0  0  0  0
  197.1170  168.5010  143.2830 N   0  0  0  0  0  0  0  0  0  0  0  0
  196.6120  168.3480  142.0900 C   0  0  0  0  0  3  0  0  0  0  0  0
  195.5640  169.2530  141.5190 C   0  0  0  0  0  2  0  0  0  0  0  0
  194.2530  168.8300  141.9770 N   0  0  0  0  0  2  0  0  0  0  0  0
  193.5940  168.1660  140.8650 C   0  0  0  0  0  2  0  0  0  0  0  0
  193.5580  169.0800  139.6480 C   0  0  0  0  0  2  0  0  0  0  0  0
  191.3320  169.4430  140.4120 O   0  0  0  0  0  1  0  0  0  0  0  0
  192.3910  170.0500  139.7450 C   0  0  0  0  0  2  0  0  0  0  0  0
  189.4210  174.2700  144.3350 C   0  0  0  0  0  2  0  0  0  0  0  0
  189.8670  175.7190  144.5450 C   0  0  2  0  0  3  0  0  0  0  0  0
  189.6740  176.0820  146.0170 C   0  0  2  0  0  3  0  0  0  0  0  0
  190.2280  177.3380  146.3160 O   0  0  0  0  0  1  0  0  0  0  0  0
  190.1940  175.0000  146.9670 C   0  0  0  0  0  2  0  0  0  0  0  0
  191.5410  175.3610  147.5740 C   0  0  0  0  0  1  0  0  0  0  0  0
  189.1290  176.6110  143.7120 O   0  0  0  0  0  0  0  0  0  0  0  0
  191.1600  177.8930  143.0490 C   0  0  0  0  0  1  0  0  0  0  0  0
  189.7270  177.5430  142.8590 C   0  0  0  0  0  0  0  0  0  0  0  0
  189.0640  178.1190  141.9530 O   0  0  0  0  0  0  0  0  0  0  0  0
  2 15  1  0  0  0  0
  3 10  2  0  0  0  0
  3 11  1  0  0  0  0
  4  3  1  0  0  0  0
  6  9  1  0  0  0  0
  6 13  1  1  0  0  0
  6  8  1  0  0  0  0
  8 14  1  0  0  0  0
  9 16  1  6  0  0  0
  9  4  1  0  0  0  0
  9  2  1  0  0  0  0
 11 15  1  0  0  0  0
 11  7  1  1  0  0  0
 12 18  1  1  0  0  0
 12 16  1  0  0  0  0
 14  5  1  0  0  0  0
 14 46  1  1  0  0  0
 15  1  1  6  0  0  0
 17 13  1  0  0  0  0
 17  5  1  0  0  0  0
 18  6  1  0  0  0  0
 19  2  2  0  0  0  0
 20 32  1  0  0  0  0
 20 26  1  0  0  0  0
 21 25  1  1  0  0  0
 21 12  1  0  0  0  0
 22 23  1  0  0  0  0
 25 23  1  0  0  0  0
 26 31  1  0  0  0  0
 27 26  2  0  0  0  0
 28 24  1  0  0  0  0
 30 27  2  0  0  0  0
 30 22  1  0  0  0  0
 31 24  1  0  0  0  0
 31 21  1  0  0  0  0
 32 29  1  6  0  0  0
 32 28  1  0  0  0  0
 33 34  1  0  0  0  0
 34 32  1  0  0  0  0
 35 36  1  0  0  0  0
 35 10  1  0  0  0  0
 36 37  2  0  0  0  0
 38 36  1  0  0  0  0
 39 38  2  0  0  0  0
 40 41  1  0  0  0  0
 40 39  1  0  0  0  0
 42 41  1  0  0  0  0
 43 45  1  0  0  0  0
 43 42  1  0  0  0  0
 45 44  1  0  0  0  0
 47 46  1  1  0  0  0
 47 48  1  0  0  0  0
 48 49  1  1  0  0  0
 48 50  1  0  0  0  0
 50 51  1  0  0  0  0
 52 47  1  0  0  0  0
 54 53  1  0  0  0  0
 54 52  1  0  0  0  0
 55 54  2  0  0  0  0
M  END
>  <MODEL>
8

>  <REMARK>
 VINA RESULT:      -6.3      4.443      8.768
  Name = 
  15 active torsions:
  status: ('A' for Active; 'I' for Inactive)
    1  A    between atoms: N_1  and  C_10
    2  A    between atoms: N_3  and  N_29
    3  A    between atoms: C_4  and  C_38
    4  A    between atoms: C_4  and  C_50
    5  A    between atoms: C_6  and  C_25
    6  A    between atoms: C_6  and  C_42
    7  A    between atoms: O_11  and  C_41
    8  A    between atoms: O_11  and  C_50
    9  A    between atoms: C_12  and  C_55
   10  A    between atoms: C_15  and  C_33
   11  A    between atoms: C_21  and  C_22
   12  A    between atoms: C_21  and  C_50
   13  A    between atoms: C_24  and  C_49
   14  A    between atoms: N_40  and  C_42
   15  A    between atoms: N_40  and  C_49
                            x       y       z     vdW  Elec       q    Type
                         _______ _______ _______ _____ _____    ______ ____

>  <TORSDO>
F 15

$$$$
=
 OpenBabel11042416423D

 55 59  0  0  1  0  0  0  0  0999 V2000
  188.5740  175.2830  139.9740 F   0  0  0  0  0  0  0  0  0  0  0  0
  188.6860  172.9910  140.4830 C   0  0  0  0  0  0  0  0  0  0  0  0
  190.2270  173.7750  137.9920 C   0  0  0  0  0  0  0  0  0  0  0  0
  191.0600  173.2560  138.9960 O   0  0  0  0  0  0  0  0  0  0  0  0
  191.6120  175.7920  143.4250 C   0  0  0  0  0  2  0  0  0  0  0  0
  191.2840  173.4390  141.8790 C   0  0  1  0  0  0  0  0  0  0  0  0
  188.1330  174.6820  137.2440 O   0  0  0  0  0  1  0  0  0  0  0  0
  190.2910  173.7370  143.0120 C   0  0  0  0  0  2  0  0  0  0  0  0
  190.4380  172.7120  140.4990 P   0  0  1  0  0  4  0  0  0  0  0  0
  190.7440  174.2750  136.9080 N   0  0  0  0  0  0  0  0  0  0  0  0
  188.7090  173.7630  138.1240 C   0  0  2  0  0  3  0  0  0  0  0  0
  191.5700  171.2080  142.0400 C   0  0  2  0  0  3  0  0  0  0  0  0
  192.0110  174.7270  141.4740 C   0  0  0  0  0  2  0  0  0  0  0  0
  190.9000  174.6280  144.1010 C   0  0  2  0  0  3  0  0  0  0  0  0
  188.1790  174.0260  139.5430 C   0  0  2  0  0  3  0  0  0  0  0  0
  190.8670  171.1210  140.8090 O   0  0  0  0  0  0  0  0  0  0  0  0
  192.6370  175.3110  142.5910 O   0  0  0  0  0  0  0  0  0  0  0  0
  192.2030  172.4600  142.2580 O   0  0  0  0  0  0  0  0  0  0  0  0
  187.9340  172.3700  141.2210 O   0  0  0  0  0  0  0  0  0  0  0  0
  195.2780  169.1140  144.8350 C   0  0  0  0  0  2  0  0  0  0  0  0
  192.5940  170.0810  142.2410 C   0  0  1  0  0  3  0  0  0  0  0  0
  195.5990  170.1540  140.1220 C   0  0  0  0  0  2  0  0  0  0  0  0
  194.2150  170.7800  140.3850 C   0  0  0  0  0  2  0  0  0  0  0  0
  193.0450  170.8650  144.6250 C   0  0  0  0  0  2  0  0  0  0  0  0
  193.2270  169.7190  140.8840 C   0  0  0  0  0  2  0  0  0  0  0  0
  194.7680  169.5140  143.4820 C   0  0  0  0  0  0  0  0  0  0  0  0
  195.5770  169.4700  142.4640 C   0  0  0  0  0  0  0  0  0  0  0  0
  194.2160  171.3780  145.4610 C   0  0  0  0  0  2  0  0  0  0  0  0
  194.6660  169.6630  147.0740 O   0  0  0  0  0  1  0  0  0  0  0  0
  196.2340  169.5180  141.3370 C   0  0  0  0  0  3  0  0  0  0  0  0
  193.5400  170.2720  143.3770 N   0  0  0  0  0  0  0  0  0  0  0  0
  195.1560  170.2300  145.8920 C   0  0  1  0  0  0  0  0  0  0  0  0
  196.8330  172.0880  145.4150 C   0  0  0  0  0  1  0  0  0  0  0  0
  196.5640  170.7770  146.1440 C   0  0  0  0  0  2  0  0  0  0  0  0
  192.1150  174.3170  136.5710 N   0  0  0  0  0  2  0  0  0  0  0  0
  192.9530  173.1950  136.2450 C   0  0  0  0  0  0  0  0  0  0  0  0
  192.5100  172.0180  136.2620 O   0  0  0  0  0  0  0  0  0  0  0  0
  194.3190  173.4150  135.8940 N   0  0  0  0  0  0  0  0  0  0  0  0
  195.2800  173.5750  136.7620 C   0  0  0  0  0  3  0  0  0  0  0  0
  195.0490  173.6380  138.2400 C   0  0  0  0  0  2  0  0  0  0  0  0
  194.9970  175.0250  138.6670 N   0  0  0  0  0  2  0  0  0  0  0  0
  195.8880  175.1660  139.8070 C   0  0  0  0  0  2  0  0  0  0  0  0
  195.6850  174.0150  140.7820 C   0  0  0  0  0  2  0  0  0  0  0  0
  197.9360  173.2940  140.4910 O   0  0  0  0  0  1  0  0  0  0  0  0
  196.9990  173.6510  141.4560 C   0  0  0  0  0  2  0  0  0  0  0  0
  189.8160  175.1710  145.0290 C   0  0  0  0  0  2  0  0  0  0  0  0
  189.2880  176.5240  144.5490 C   0  0  2  0  0  3  0  0  0  0  0  0
  188.5390  177.1940  145.7020 C   0  0  2  0  0  3  0  0  0  0  0  0
  189.3700  177.3790  146.8190 O   0  0  0  0  0  1  0  0  0  0  0  0
  187.2500  176.4580  146.0780 C   0  0  0  0  0  2  0  0  0  0  0  0
  186.5750  177.0600  147.3010 C   0  0  0  0  0  1  0  0  0  0  0  0
  188.4290  176.3720  143.4210 O   0  0  0  0  0  0  0  0  0  0  0  0
  186.5140  177.6980  142.5380 C   0  0  0  0  0  1  0  0  0  0  0  0
  187.9740  177.4430  142.6480 C   0  0  0  0  0  0  0  0  0  0  0  0
  188.7800  178.1770  142.0110 O   0  0  0  0  0  0  0  0  0  0  0  0
  2  9  1  0  0  0  0
  2 19  2  0  0  0  0
  3 11  1  0  0  0  0
  3  4  1  0  0  0  0
  5 14  1  0  0  0  0
  6 13  1  6  0  0  0
  6 18  1  0  0  0  0
  6  8  1  0  0  0  0
  8 14  1  0  0  0  0
  9  4  1  6  0  0  0
  9 16  1  0  0  0  0
  9  6  1  0  0  0  0
 10  3  2  0  0  0  0
 11  7  1  6  0  0  0
 11 15  1  0  0  0  0
 12 16  1  6  0  0  0
 12 21  1  0  0  0  0
 12 18  1  0  0  0  0
 13 17  1  0  0  0  0
 14 46  1  1  0  0  0
 15  1  1  1  0  0  0
 15  2  1  0  0  0  0
 17  5  1  0  0  0  0
 20 32  1  0  0  0  0
 21 25  1  6  0  0  0
 21 31  1  0  0  0  0
 22 23  1  0  0  0  0
 22 30  1  0  0  0  0
 23 25  1  0  0  0  0
 24 28  1  0  0  0  0
 26 20  1  0  0  0  0
 27 26  2  0  0  0  0
 28 32  1  0  0  0  0
 30 27  2  0  0  0  0
 31 26  1  0  0  0  0
 31 24  1  0  0  0  0
 32 34  1  0  0  0  0
 32 29  1  1  0  0  0
 33 34  1  0  0  0  0
 35 10  1  0  0  0  0
 36 37  2  0  0  0  0
 36 35  1  0  0  0  0
 38 36  1  0  0  0  0
 38 39  2  0  0  0  0
 39 40  1  0  0  0  0
 40 41  1  0  0  0  0
 41 42  1  0  0  0  0
 42 43  1  0  0  0  0
 43 45  1  0  0  0  0
 44 45  1  0  0  0  0
 47 46  1  1  0  0  0
 47 48  1  0  0  0  0
 48 50  1  0  0  0  0
 48 49  1  1  0  0  0
 50 51  1  0  0  0  0
 52 47  1  0  0  0  0
 53 54  1  0  0  0  0
 54 52  1  0  0  0  0
 55 54  2  0  0  0  0
M  END
>  <MODEL>
9

>  <REMARK>
 VINA RESULT:      -6.1      3.926      8.775
  Name = 
  15 active torsions:
  status: ('A' for Active; 'I' for Inactive)
    1  A    between atoms: N_1  and  C_10
    2  A    between atoms: N_3  and  N_29
    3  A    between atoms: C_4  and  C_38
    4  A    between atoms: C_4  and  C_50
    5  A    between atoms: C_6  and  C_25
    6  A    between atoms: C_6  and  C_42
    7  A    between atoms: O_11  and  C_41
    8  A    between atoms: O_11  and  C_50
    9  A    between atoms: C_12  and  C_55
   10  A    between atoms: C_15  and  C_33
   11  A    between atoms: C_21  and  C_22
   12  A    between atoms: C_21  and  C_50
   13  A    between atoms: C_24  and  C_49
   14  A    between atoms: N_40  and  C_42
   15  A    between atoms: N_40  and  C_49
                            x       y       z     vdW  Elec       q    Type
                         _______ _______ _______ _____ _____    ______ ____

>  <TORSDO>
F 15

$$$$
