=
 OpenBabel11042416143D

 33 36  0  0  1  0  0  0  0  0999 V2000
  188.3620  175.1430  140.9440 C   0  0  0  0  0  2  0  0  0  0  0  0
  190.8180  174.4350  142.1860 C   0  0  0  0  0  3  0  0  0  0  0  0
  190.3190  176.1780  143.8460 C   0  0  2  0  0  3  0  0  0  0  0  0
  188.6390  175.7420  142.1080 C   0  0  0  0  0  0  0  0  0  0  0  0
  186.2340  176.2150  142.4450 O   0  0  0  0  0  1  0  0  0  0  0  0
  187.9610  174.0370  138.4150 O   0  0  0  0  0  0  0  0  0  0  0  0
  189.9540  175.4900  142.7530 C   0  0  0  0  0  0  0  0  0  0  0  0
  189.4990  177.7270  144.2320 S   0  0  0  0  0  0  0  0  0  0  0  0
  190.5040  173.8760  141.0170 C   0  0  0  0  0  3  0  0  0  0  0  0
  187.5500  176.4090  142.8610 C   0  0  1  0  0  3  0  0  0  0  0  0
  189.0250  173.7200  139.0140 C   0  0  0  0  0  0  0  0  0  0  0  0
  187.8180  177.1280  143.9690 C   0  0  2  0  0  3  0  0  0  0  0  0
  189.3160  174.2710  140.3080 N   0  0  0  0  0  0  0  0  0  0  0  0
  184.7160  178.3080  146.7030 C   0  0  0  0  0  3  0  0  0  0  0  0
  186.3640  176.6990  145.9610 C   0  0  0  0  0  3  0  0  0  0  0  0
  185.0910  179.1660  145.6680 C   0  0  0  0  0  3  0  0  0  0  0  0
  186.1030  178.7910  144.7800 C   0  0  0  0  0  3  0  0  0  0  0  0
  185.3510  177.0720  146.8490 C   0  0  0  0  0  3  0  0  0  0  0  0
  186.7590  177.5560  144.9220 C   0  0  0  0  0  0  0  0  0  0  0  0
  191.3890  175.2480  145.9320 C   0  0  0  0  0  0  0  0  0  0  0  0
  190.2740  174.9510  146.4390 O   0  0  0  0  0  0  0  0  0  0  0  0
  191.4670  175.8140  144.6200 N   0  0  0  0  0  2  0  0  0  0  0  0
  192.6430  174.9550  146.6820 C   0  0  0  0  0  2  0  0  0  0  0  0
  194.0140  173.2050  145.8010 O   0  0  0  0  0  0  0  0  0  0  0  0
  193.7690  174.5830  145.7290 C   0  0  2  0  0  3  0  0  0  0  0  0
  195.3610  173.0550  145.4390 C   0  0  0  0  0  2  0  0  0  0  0  0
  195.0430  175.3110  146.0960 C   0  0  0  0  0  2  0  0  0  0  0  0
  196.1150  174.2860  145.8850 C   0  0  0  0  0  2  0  0  0  0  0  0
  189.9530  172.7480  138.3630 C   0  0  0  0  0  2  0  0  0  0  0  0
  189.4600  171.3330  138.5910 C   0  0  0  0  0  2  0  0  0  0  0  0
  190.7380  170.2450  140.4720 N   0  0  0  0  0  1  0  0  0  0  0  0
  190.5780  170.4800  139.0780 C   0  0  0  0  0  0  0  0  0  0  0  0
  191.3990  169.9910  138.2600 O   0  0  0  0  0  0  0  0  0  0  0  0
  1  4  1  0  0  0  0
  2  7  1  0  0  0  0
  3  8  1  0  0  0  0
  3 22  1  6  0  0  0
  4  7  2  0  0  0  0
  4 10  1  0  0  0  0
  6 11  2  0  0  0  0
  7  3  1  0  0  0  0
  9  2  2  0  0  0  0
 10  5  1  1  0  0  0
 10 12  1  0  0  0  0
 11 13  1  0  0  0  0
 12  8  1  0  0  0  0
 12 19  1  6  0  0  0
 13  1  1  0  0  0  0
 13  9  1  0  0  0  0
 14 18  1  0  0  0  0
 15 18  2  0  0  0  0
 16 14  2  0  0  0  0
 17 19  2  0  0  0  0
 17 16  1  0  0  0  0
 19 15  1  0  0  0  0
 20 21  2  0  0  0  0
 20 23  1  0  0  0  0
 22 20  1  0  0  0  0
 25 24  1  0  0  0  0
 25 27  1  0  0  0  0
 25 23  1  1  0  0  0
 26 24  1  0  0  0  0
 26 28  1  0  0  0  0
 28 27  1  0  0  0  0
 29 30  1  0  0  0  0
 29 11  1  0  0  0  0
 30 32  1  0  0  0  0
 32 31  1  0  0  0  0
 33 32  2  0  0  0  0
M  END
>  <MODEL>
1

>  <REMARK>
 VINA RESULT:      -7.5      0.000      0.000
  Name = 
  7 active torsions:
  status: ('A' for Active; 'I' for Inactive)
    1  A    between atoms: C_2  and  C_18
    2  A    between atoms: C_8  and  N_30
    3  A    between atoms: C_9  and  C_21
    4  A    between atoms: C_9  and  C_28
    5  A    between atoms: C_15  and  C_21
    6  A    between atoms: C_18  and  C_19
    7  A    between atoms: C_25  and  C_31
                            x       y       z     vdW  Elec       q    Type
                         _______ _______ _______ _____ _____    ______ ____

>  <TORSDO>
F 7

$$$$
=
 OpenBabel11042416143D

 33 36  0  0  1  0  0  0  0  0999 V2000
  188.6960  174.3500  141.8680 C   0  0  0  0  0  2  0  0  0  0  0  0
  190.9330  174.0200  143.5880 C   0  0  0  0  0  3  0  0  0  0  0  0
  190.2070  176.0890  144.6990 C   0  0  2  0  0  3  0  0  0  0  0  0
  188.8010  175.2120  142.8860 C   0  0  0  0  0  0  0  0  0  0  0  0
  186.3760  175.6850  142.7460 O   0  0  0  0  0  1  0  0  0  0  0  0
  188.6660  172.6720  139.6400 O   0  0  0  0  0  0  0  0  0  0  0  0
  190.0040  175.1540  143.7570 C   0  0  0  0  0  0  0  0  0  0  0  0
  189.3520  177.6620  144.5850 S   0  0  0  0  0  0  0  0  0  0  0  0
  190.7930  173.1940  142.5500 C   0  0  0  0  0  3  0  0  0  0  0  0
  187.6170  176.0070  143.2930 C   0  0  1  0  0  3  0  0  0  0  0  0
  189.6260  172.5330  140.4460 C   0  0  0  0  0  0  0  0  0  0  0  0
  187.7240  176.9730  144.2270 C   0  0  2  0  0  3  0  0  0  0  0  0
  189.7260  173.3800  141.6020 N   0  0  0  0  0  0  0  0  0  0  0  0
  184.2560  178.6790  146.1130 C   0  0  0  0  0  3  0  0  0  0  0  0
  185.8790  176.8950  145.9180 C   0  0  0  0  0  3  0  0  0  0  0  0
  184.8950  179.3690  145.0810 C   0  0  0  0  0  3  0  0  0  0  0  0
  186.0260  178.8230  144.4690 C   0  0  0  0  0  3  0  0  0  0  0  0
  184.7470  177.4400  146.5310 C   0  0  0  0  0  3  0  0  0  0  0  0
  186.5390  177.5820  144.8870 C   0  0  0  0  0  0  0  0  0  0  0  0
  192.5390  176.5000  145.5680 C   0  0  0  0  0  0  0  0  0  0  0  0
  192.8360  177.2320  144.5860 O   0  0  0  0  0  0  0  0  0  0  0  0
  191.2250  175.9480  145.6960 N   0  0  0  0  0  2  0  0  0  0  0  0
  193.5480  176.2510  146.6360 C   0  0  0  0  0  2  0  0  0  0  0  0
  195.3860  175.9530  145.1350 O   0  0  0  0  0  0  0  0  0  0  0  0
  194.6420  175.3180  146.1390 C   0  0  2  0  0  3  0  0  0  0  0  0
  195.8900  174.9130  144.3420 C   0  0  0  0  0  2  0  0  0  0  0  0
  194.0450  174.0550  145.5580 C   0  0  0  0  0  2  0  0  0  0  0  0
  194.8970  173.7750  144.3580 C   0  0  0  0  0  2  0  0  0  0  0  0
  190.6330  171.4620  140.1850 C   0  0  0  0  0  2  0  0  0  0  0  0
  191.3150  171.7070  138.8530 C   0  0  0  0  0  2  0  0  0  0  0  0
  193.2540  172.9460  139.8840 N   0  0  0  0  0  1  0  0  0  0  0  0
  192.1840  172.9110  138.9450 C   0  0  0  0  0  0  0  0  0  0  0  0
  191.9570  173.9100  138.2140 O   0  0  0  0  0  0  0  0  0  0  0  0
  1  4  1  0  0  0  0
  2  7  1  0  0  0  0
  3 22  1  6  0  0  0
  4 10  1  0  0  0  0
  4  7  2  0  0  0  0
  6 11  2  0  0  0  0
  7  3  1  0  0  0  0
  8  3  1  0  0  0  0
  9  2  2  0  0  0  0
 10  5  1  1  0  0  0
 10 12  1  0  0  0  0
 11 13  1  0  0  0  0
 12  8  1  0  0  0  0
 12 19  1  6  0  0  0
 13  1  1  0  0  0  0
 13  9  1  0  0  0  0
 14 18  1  0  0  0  0
 15 18  2  0  0  0  0
 16 14  2  0  0  0  0
 17 19  2  0  0  0  0
 17 16  1  0  0  0  0
 19 15  1  0  0  0  0
 20 22  1  0  0  0  0
 20 23  1  0  0  0  0
 21 20  2  0  0  0  0
 24 25  1  0  0  0  0
 25 23  1  6  0  0  0
 26 28  1  0  0  0  0
 26 24  1  0  0  0  0
 27 25  1  0  0  0  0
 28 27  1  0  0  0  0
 29 11  1  0  0  0  0
 30 32  1  0  0  0  0
 30 29  1  0  0  0  0
 32 31  1  0  0  0  0
 33 32  2  0  0  0  0
M  END
>  <MODEL>
2

>  <REMARK>
 VINA RESULT:      -7.5      1.715      1.869
  Name = 
  7 active torsions:
  status: ('A' for Active; 'I' for Inactive)
    1  A    between atoms: C_2  and  C_18
    2  A    between atoms: C_8  and  N_30
    3  A    between atoms: C_9  and  C_21
    4  A    between atoms: C_9  and  C_28
    5  A    between atoms: C_15  and  C_21
    6  A    between atoms: C_18  and  C_19
    7  A    between atoms: C_25  and  C_31
                            x       y       z     vdW  Elec       q    Type
                         _______ _______ _______ _____ _____    ______ ____

>  <TORSDO>
F 7

$$$$
=
 OpenBabel11042416143D

 33 36  0  0  1  0  0  0  0  0999 V2000
  188.3570  177.0340  145.9740 C   0  0  0  0  0  2  0  0  0  0  0  0
  187.3330  175.9220  143.5690 C   0  0  0  0  0  3  0  0  0  0  0  0
  189.6690  175.7430  142.8230 C   0  0  2  0  0  3  0  0  0  0  0  0
  189.2570  176.5770  145.0960 C   0  0  0  0  0  0  0  0  0  0  0  0
  190.9250  176.3530  146.9100 O   0  0  0  0  0  1  0  0  0  0  0  0
  186.4420  178.1770  147.6500 O   0  0  0  0  0  0  0  0  0  0  0  0
  188.7860  176.0790  143.7770 C   0  0  0  0  0  0  0  0  0  0  0  0
  191.3510  176.3610  142.9140 S   0  0  0  0  0  0  0  0  0  0  0  0
  186.4770  176.4040  144.4690 C   0  0  0  0  0  3  0  0  0  0  0  0
  190.6450  176.3170  145.5450 C   0  0  1  0  0  3  0  0  0  0  0  0
  186.0240  177.6430  146.5870 C   0  0  0  0  0  0  0  0  0  0  0  0
  191.6040  175.9790  144.6590 C   0  0  2  0  0  3  0  0  0  0  0  0
  186.9520  177.0580  145.6590 N   0  0  0  0  0  0  0  0  0  0  0  0
  195.4290  174.3780  145.7980 C   0  0  0  0  0  3  0  0  0  0  0  0
  194.0130  176.2690  145.2770 C   0  0  0  0  0  3  0  0  0  0  0  0
  194.3510  173.5160  145.5890 C   0  0  0  0  0  3  0  0  0  0  0  0
  193.1040  174.0310  145.2260 C   0  0  0  0  0  3  0  0  0  0  0  0
  195.2610  175.7560  145.6400 C   0  0  0  0  0  3  0  0  0  0  0  0
  192.9160  175.4160  145.0750 C   0  0  0  0  0  0  0  0  0  0  0  0
  189.2640  173.6310  141.5050 C   0  0  0  0  0  0  0  0  0  0  0  0
  189.5300  172.8970  142.4940 O   0  0  0  0  0  0  0  0  0  0  0  0
  189.2690  175.0560  141.6320 N   0  0  0  0  0  2  0  0  0  0  0  0
  188.8850  173.0100  140.2050 C   0  0  0  0  0  2  0  0  0  0  0  0
  188.1260  173.9760  138.1530 O   0  0  0  0  0  0  0  0  0  0  0  0
  189.2050  173.9430  139.0460 C   0  0  2  0  0  3  0  0  0  0  0  0
  188.6910  174.2920  136.9100 C   0  0  0  0  0  2  0  0  0  0  0  0
  190.4270  173.4620  138.2950 C   0  0  0  0  0  2  0  0  0  0  0  0
  190.0860  173.7140  136.8580 C   0  0  0  0  0  2  0  0  0  0  0  0
  184.5530  177.6100  146.3310 C   0  0  0  0  0  2  0  0  0  0  0  0
  184.0740  178.9840  145.9030 C   0  0  0  0  0  2  0  0  0  0  0  0
  185.4470  180.1270  144.1250 N   0  0  0  0  0  1  0  0  0  0  0  0
  184.4120  179.2140  144.4730 C   0  0  0  0  0  0  0  0  0  0  0  0
  183.7640  178.6240  143.5700 O   0  0  0  0  0  0  0  0  0  0  0  0
  2  7  1  0  0  0  0
  2  9  2  0  0  0  0
  3 22  1  6  0  0  0
  3  8  1  0  0  0  0
  3  7  1  0  0  0  0
  4 10  1  0  0  0  0
  4  1  1  0  0  0  0
  7  4  2  0  0  0  0
  8 12  1  0  0  0  0
  9 13  1  0  0  0  0
 10  5  1  1  0  0  0
 11  6  2  0  0  0  0
 12 19  1  1  0  0  0
 12 10  1  0  0  0  0
 13  1  1  0  0  0  0
 13 11  1  0  0  0  0
 15 18  2  0  0  0  0
 16 14  2  0  0  0  0
 17 16  1  0  0  0  0
 18 14  1  0  0  0  0
 19 17  2  0  0  0  0
 19 15  1  0  0  0  0
 20 22  1  0  0  0  0
 20 21  2  0  0  0  0
 23 20  1  0  0  0  0
 24 25  1  0  0  0  0
 25 23  1  1  0  0  0
 26 24  1  0  0  0  0
 27 25  1  0  0  0  0
 28 26  1  0  0  0  0
 28 27  1  0  0  0  0
 29 11  1  0  0  0  0
 30 29  1  0  0  0  0
 31 32  1  0  0  0  0
 32 30  1  0  0  0  0
 33 32  2  0  0  0  0
M  END
>  <MODEL>
3

>  <REMARK>
 VINA RESULT:      -7.3      2.403      8.225
  Name = 
  7 active torsions:
  status: ('A' for Active; 'I' for Inactive)
    1  A    between atoms: C_2  and  C_18
    2  A    between atoms: C_8  and  N_30
    3  A    between atoms: C_9  and  C_21
    4  A    between atoms: C_9  and  C_28
    5  A    between atoms: C_15  and  C_21
    6  A    between atoms: C_18  and  C_19
    7  A    between atoms: C_25  and  C_31
                            x       y       z     vdW  Elec       q    Type
                         _______ _______ _______ _____ _____    ______ ____

>  <TORSDO>
F 7

$$$$
=
 OpenBabel11042416143D

 33 36  0  0  1  0  0  0  0  0999 V2000
  187.1860  176.4070  142.7170 C   0  0  0  0  0  2  0  0  0  0  0  0
  188.8160  177.1420  144.9250 C   0  0  0  0  0  3  0  0  0  0  0  0
  190.1000  175.0940  144.4790 C   0  0  2  0  0  3  0  0  0  0  0  0
  188.2630  175.6460  142.9450 C   0  0  0  0  0  0  0  0  0  0  0  0
  188.2240  174.8720  140.5950 O   0  0  0  0  0  1  0  0  0  0  0  0
  184.8380  177.8870  142.4430 O   0  0  0  0  0  0  0  0  0  0  0  0
  189.0960  175.9200  144.1450 C   0  0  0  0  0  0  0  0  0  0  0  0
  190.1290  173.4240  143.8230 S   0  0  0  0  0  0  0  0  0  0  0  0
  187.7230  177.8600  144.6660 C   0  0  0  0  0  3  0  0  0  0  0  0
  188.7610  174.7480  141.8750 C   0  0  1  0  0  3  0  0  0  0  0  0
  185.6050  178.2050  143.3920 C   0  0  0  0  0  0  0  0  0  0  0  0
  189.7630  173.8790  142.1160 C   0  0  2  0  0  3  0  0  0  0  0  0
  186.8200  177.4710  143.6150 N   0  0  0  0  0  0  0  0  0  0  0  0
  191.9070  171.8120  139.0140 C   0  0  0  0  0  3  0  0  0  0  0  0
  190.0980  171.9010  140.6180 C   0  0  0  0  0  3  0  0  0  0  0  0
  192.3250  173.0830  139.4180 C   0  0  0  0  0  3  0  0  0  0  0  0
  191.6270  173.7620  140.4210 C   0  0  0  0  0  3  0  0  0  0  0  0
  190.7940  171.2200  139.6160 C   0  0  0  0  0  3  0  0  0  0  0  0
  190.4980  173.1830  141.0270 C   0  0  0  0  0  0  0  0  0  0  0  0
  192.2880  176.1130  145.2130 C   0  0  0  0  0  0  0  0  0  0  0  0
  192.5470  176.5290  144.0520 O   0  0  0  0  0  0  0  0  0  0  0  0
  191.0570  175.4360  145.4880 N   0  0  0  0  0  2  0  0  0  0  0  0
  193.2460  176.3750  146.3230 C   0  0  0  0  0  2  0  0  0  0  0  0
  195.3290  176.1220  145.1760 O   0  0  0  0  0  0  0  0  0  0  0  0
  194.5090  175.5440  146.1550 C   0  0  2  0  0  3  0  0  0  0  0  0
  196.0760  175.0580  144.6510 C   0  0  0  0  0  2  0  0  0  0  0  0
  194.1690  174.1360  145.7170 C   0  0  0  0  0  2  0  0  0  0  0  0
  195.2350  173.8050  144.7170 C   0  0  0  0  0  2  0  0  0  0  0  0
  185.2370  179.3680  144.2540 C   0  0  0  0  0  2  0  0  0  0  0  0
  184.1300  178.9700  145.2100 C   0  0  0  0  0  2  0  0  0  0  0  0
  185.4730  179.0750  147.3410 N   0  0  0  0  0  1  0  0  0  0  0  0
  184.7120  178.3120  146.4110 C   0  0  0  0  0  0  0  0  0  0  0  0
  184.5560  177.0770  146.5890 O   0  0  0  0  0  0  0  0  0  0  0  0
  1  4  1  0  0  0  0
  1 13  1  0  0  0  0
  3 22  1  1  0  0  0
  4  7  2  0  0  0  0
  6 11  2  0  0  0  0
  7  3  1  0  0  0  0
  7  2  1  0  0  0  0
  8  3  1  0  0  0  0
  9  2  2  0  0  0  0
 10  5  1  6  0  0  0
 10 12  1  0  0  0  0
 10  4  1  0  0  0  0
 11 13  1  0  0  0  0
 11 29  1  0  0  0  0
 12 19  1  6  0  0  0
 12  8  1  0  0  0  0
 13  9  1  0  0  0  0
 14 16  2  0  0  0  0
 14 18  1  0  0  0  0
 15 19  1  0  0  0  0
 16 17  1  0  0  0  0
 17 19  2  0  0  0  0
 18 15  2  0  0  0  0
 20 22  1  0  0  0  0
 20 23  1  0  0  0  0
 21 20  2  0  0  0  0
 24 25  1  0  0  0  0
 25 23  1  6  0  0  0
 26 28  1  0  0  0  0
 26 24  1  0  0  0  0
 27 25  1  0  0  0  0
 28 27  1  0  0  0  0
 29 30  1  0  0  0  0
 30 32  1  0  0  0  0
 32 33  2  0  0  0  0
 32 31  1  0  0  0  0
M  END
>  <MODEL>
4

>  <REMARK>
 VINA RESULT:      -7.3      2.564      6.887
  Name = 
  7 active torsions:
  status: ('A' for Active; 'I' for Inactive)
    1  A    between atoms: C_2  and  C_18
    2  A    between atoms: C_8  and  N_30
    3  A    between atoms: C_9  and  C_21
    4  A    between atoms: C_9  and  C_28
    5  A    between atoms: C_15  and  C_21
    6  A    between atoms: C_18  and  C_19
    7  A    between atoms: C_25  and  C_31
                            x       y       z     vdW  Elec       q    Type
                         _______ _______ _______ _____ _____    ______ ____

>  <TORSDO>
F 7

$$$$
=
 OpenBabel11042416143D

 33 36  0  0  1  0  0  0  0  0999 V2000
  187.1970  176.4120  141.8100 C   0  0  0  0  0  2  0  0  0  0  0  0
  189.1610  176.8750  143.8100 C   0  0  0  0  0  3  0  0  0  0  0  0
  190.2050  174.7750  143.0720 C   0  0  2  0  0  3  0  0  0  0  0  0
  188.2310  175.5620  141.8420 C   0  0  0  0  0  0  0  0  0  0  0  0
  187.8160  174.9570  139.4790 O   0  0  0  0  0  1  0  0  0  0  0  0
  184.9610  178.0730  141.9500 O   0  0  0  0  0  0  0  0  0  0  0  0
  189.2350  175.6920  142.9300 C   0  0  0  0  0  0  0  0  0  0  0  0
  190.0120  173.1560  142.3230 S   0  0  0  0  0  0  0  0  0  0  0  0
  188.1050  177.6850  143.7470 C   0  0  0  0  0  3  0  0  0  0  0  0
  188.5070  174.7070  140.6640 C   0  0  1  0  0  3  0  0  0  0  0  0
  185.8710  178.2690  142.8000 C   0  0  0  0  0  0  0  0  0  0  0  0
  189.4590  173.7530  140.7120 C   0  0  2  0  0  3  0  0  0  0  0  0
  187.0420  177.4360  142.8100 N   0  0  0  0  0  0  0  0  0  0  0  0
  190.9610  171.8750  137.1470 C   0  0  0  0  0  3  0  0  0  0  0  0
  191.0700  173.6400  138.7990 C   0  0  0  0  0  3  0  0  0  0  0  0
  189.8730  171.3150  137.8210 C   0  0  0  0  0  3  0  0  0  0  0  0
  189.3860  171.9170  138.9830 C   0  0  0  0  0  3  0  0  0  0  0  0
  191.5590  173.0400  137.6360 C   0  0  0  0  0  3  0  0  0  0  0  0
  189.9840  173.0830  139.4930 C   0  0  0  0  0  0  0  0  0  0  0  0
  191.2880  174.6330  145.3460 C   0  0  0  0  0  0  0  0  0  0  0  0
  190.2950  174.0350  145.8420 O   0  0  0  0  0  0  0  0  0  0  0  0
  191.3130  174.9780  143.9580 N   0  0  0  0  0  2  0  0  0  0  0  0
  192.4710  174.9350  146.2000 C   0  0  0  0  0  2  0  0  0  0  0  0
  193.9860  173.2370  145.4660 O   0  0  0  0  0  0  0  0  0  0  0  0
  193.7640  174.6210  145.4630 C   0  0  2  0  0  3  0  0  0  0  0  0
  195.3770  173.0910  145.3690 C   0  0  0  0  0  2  0  0  0  0  0  0
  194.9400  175.2910  146.1380 C   0  0  0  0  0  2  0  0  0  0  0  0
  196.0300  174.2660  146.0590 C   0  0  0  0  0  2  0  0  0  0  0  0
  185.7160  179.3930  143.7710 C   0  0  0  0  0  2  0  0  0  0  0  0
  184.5590  179.1090  144.7080 C   0  0  0  0  0  2  0  0  0  0  0  0
  185.5660  179.0780  147.0190 N   0  0  0  0  0  1  0  0  0  0  0  0
  185.0460  178.3660  145.9020 C   0  0  0  0  0  0  0  0  0  0  0  0
  185.0250  177.1080  145.9120 O   0  0  0  0  0  0  0  0  0  0  0  0
  1  4  1  0  0  0  0
  1 13  1  0  0  0  0
  3 22  1  1  0  0  0
  4  7  2  0  0  0  0
  6 11  2  0  0  0  0
  7  3  1  0  0  0  0
  7  2  1  0  0  0  0
  8  3  1  0  0  0  0
  9  2  2  0  0  0  0
 10  5  1  6  0  0  0
 10 12  1  0  0  0  0
 10  4  1  0  0  0  0
 11 13  1  0  0  0  0
 11 29  1  0  0  0  0
 12 19  1  6  0  0  0
 12  8  1  0  0  0  0
 13  9  1  0  0  0  0
 14 18  2  0  0  0  0
 14 16  1  0  0  0  0
 15 19  2  0  0  0  0
 16 17  2  0  0  0  0
 17 19  1  0  0  0  0
 18 15  1  0  0  0  0
 20 21  2  0  0  0  0
 20 23  1  0  0  0  0
 22 20  1  0  0  0  0
 25 24  1  0  0  0  0
 25 27  1  0  0  0  0
 25 23  1  1  0  0  0
 26 24  1  0  0  0  0
 26 28  1  0  0  0  0
 28 27  1  0  0  0  0
 29 30  1  0  0  0  0
 30 32  1  0  0  0  0
 32 33  2  0  0  0  0
 32 31  1  0  0  0  0
M  END
>  <MODEL>
5

>  <REMARK>
 VINA RESULT:      -7.0      2.161      6.891
  Name = 
  7 active torsions:
  status: ('A' for Active; 'I' for Inactive)
    1  A    between atoms: C_2  and  C_18
    2  A    between atoms: C_8  and  N_30
    3  A    between atoms: C_9  and  C_21
    4  A    between atoms: C_9  and  C_28
    5  A    between atoms: C_15  and  C_21
    6  A    between atoms: C_18  and  C_19
    7  A    between atoms: C_25  and  C_31
                            x       y       z     vdW  Elec       q    Type
                         _______ _______ _______ _____ _____    ______ ____

>  <TORSDO>
F 7

$$$$
=
 OpenBabel11042416143D

 33 36  0  0  1  0  0  0  0  0999 V2000
  190.1930  175.8730  145.4860 C   0  0  0  0  0  2  0  0  0  0  0  0
  189.5600  175.2620  142.7840 C   0  0  0  0  0  3  0  0  0  0  0  0
  191.9660  174.8920  142.4510 C   0  0  2  0  0  3  0  0  0  0  0  0
  191.1990  175.4350  144.7200 C   0  0  0  0  0  0  0  0  0  0  0  0
  192.4440  174.7370  146.7410 O   0  0  0  0  0  1  0  0  0  0  0  0
  188.1080  177.0010  146.9580 O   0  0  0  0  0  0  0  0  0  0  0  0
  190.9510  175.1980  143.2740 C   0  0  0  0  0  0  0  0  0  0  0  0
  193.6510  175.2670  142.9450 S   0  0  0  0  0  0  0  0  0  0  0  0
  188.5940  175.7170  143.5840 C   0  0  0  0  0  3  0  0  0  0  0  0
  192.4380  174.9340  145.3610 C   0  0  1  0  0  3  0  0  0  0  0  0
  187.8570  176.6840  145.7630 C   0  0  0  0  0  0  0  0  0  0  0  0
  193.5140  174.6070  144.6180 C   0  0  2  0  0  3  0  0  0  0  0  0
  188.8880  176.1240  144.9320 N   0  0  0  0  0  0  0  0  0  0  0  0
  196.8580  172.3720  146.1400 C   0  0  0  0  0  3  0  0  0  0  0  0
  195.8010  174.4880  145.6290 C   0  0  0  0  0  3  0  0  0  0  0  0
  195.7290  171.6970  145.6690 C   0  0  0  0  0  3  0  0  0  0  0  0
  194.6370  172.4190  145.1800 C   0  0  0  0  0  3  0  0  0  0  0  0
  196.8950  173.7680  146.1180 C   0  0  0  0  0  3  0  0  0  0  0  0
  194.6550  173.8240  145.1630 C   0  0  0  0  0  0  0  0  0  0  0  0
  192.0080  173.1060  140.6700 C   0  0  0  0  0  0  0  0  0  0  0  0
  192.3710  172.2200  141.4890 O   0  0  0  0  0  0  0  0  0  0  0  0
  191.7440  174.4420  141.1100 N   0  0  0  0  0  2  0  0  0  0  0  0
  191.7970  172.7490  139.2390 C   0  0  0  0  0  2  0  0  0  0  0  0
  189.8080  173.8760  138.5420 O   0  0  0  0  0  0  0  0  0  0  0  0
  190.3140  172.6270  138.9240 C   0  0  2  0  0  3  0  0  0  0  0  0
  188.4470  173.8380  138.8790 C   0  0  0  0  0  2  0  0  0  0  0  0
  189.5460  172.1570  140.1400 C   0  0  0  0  0  2  0  0  0  0  0  0
  188.2830  172.9610  140.0990 C   0  0  0  0  0  2  0  0  0  0  0  0
  186.4700  176.8800  145.2450 C   0  0  0  0  0  2  0  0  0  0  0  0
  185.4900  176.9230  146.4000 C   0  0  0  0  0  2  0  0  0  0  0  0
  183.9020  178.7700  145.7500 N   0  0  0  0  0  1  0  0  0  0  0  0
  184.9690  178.3060  146.5700 C   0  0  0  0  0  0  0  0  0  0  0  0
  185.4900  179.0760  147.4180 O   0  0  0  0  0  0  0  0  0  0  0  0
  2  7  1  0  0  0  0
  2  9  2  0  0  0  0
  3 22  1  6  0  0  0
  3  8  1  0  0  0  0
  3  7  1  0  0  0  0
  4 10  1  0  0  0  0
  4  1  1  0  0  0  0
  7  4  2  0  0  0  0
  8 12  1  0  0  0  0
  9 13  1  0  0  0  0
 10  5  1  6  0  0  0
 11  6  2  0  0  0  0
 12 19  1  1  0  0  0
 12 10  1  0  0  0  0
 13  1  1  0  0  0  0
 13 11  1  0  0  0  0
 15 18  2  0  0  0  0
 16 14  2  0  0  0  0
 17 16  1  0  0  0  0
 18 14  1  0  0  0  0
 19 17  2  0  0  0  0
 19 15  1  0  0  0  0
 20 22  1  0  0  0  0
 20 21  2  0  0  0  0
 23 20  1  0  0  0  0
 24 26  1  0  0  0  0
 24 25  1  0  0  0  0
 25 23  1  1  0  0  0
 25 27  1  0  0  0  0
 26 28  1  0  0  0  0
 28 27  1  0  0  0  0
 29 11  1  0  0  0  0
 29 30  1  0  0  0  0
 30 32  1  0  0  0  0
 31 32  1  0  0  0  0
 32 33  2  0  0  0  0
M  END
>  <MODEL>
6

>  <REMARK>
 VINA RESULT:      -6.9      2.520      8.499
  Name = 
  7 active torsions:
  status: ('A' for Active; 'I' for Inactive)
    1  A    between atoms: C_2  and  C_18
    2  A    between atoms: C_8  and  N_30
    3  A    between atoms: C_9  and  C_21
    4  A    between atoms: C_9  and  C_28
    5  A    between atoms: C_15  and  C_21
    6  A    between atoms: C_18  and  C_19
    7  A    between atoms: C_25  and  C_31
                            x       y       z     vdW  Elec       q    Type
                         _______ _______ _______ _____ _____    ______ ____

>  <TORSDO>
F 7

$$$$
=
 OpenBabel11042416143D

 33 36  0  0  1  0  0  0  0  0999 V2000
  187.0980  176.5600  142.0860 C   0  0  0  0  0  2  0  0  0  0  0  0
  188.6370  176.4330  144.4710 C   0  0  0  0  0  3  0  0  0  0  0  0
  189.4620  174.2650  143.6580 C   0  0  2  0  0  3  0  0  0  0  0  0
  187.9500  175.5330  142.1950 C   0  0  0  0  0  0  0  0  0  0  0  0
  187.9580  175.2680  139.7350 O   0  0  0  0  0  1  0  0  0  0  0  0
  185.1820  178.5860  142.0290 O   0  0  0  0  0  0  0  0  0  0  0  0
  188.7060  175.3570  143.4630 C   0  0  0  0  0  0  0  0  0  0  0  0
  189.1750  172.8000  142.6630 S   0  0  0  0  0  0  0  0  0  0  0  0
  187.7640  177.4290  144.3220 C   0  0  0  0  0  3  0  0  0  0  0  0
  188.3300  174.7700  140.9830 C   0  0  1  0  0  3  0  0  0  0  0  0
  185.9080  178.5170  143.0570 C   0  0  0  0  0  0  0  0  0  0  0  0
  189.0830  173.6560  141.0770 C   0  0  2  0  0  3  0  0  0  0  0  0
  186.8990  177.4830  143.1730 N   0  0  0  0  0  0  0  0  0  0  0  0
  190.9840  171.7840  137.7050 C   0  0  0  0  0  3  0  0  0  0  0  0
  189.0720  172.0390  139.1660 C   0  0  0  0  0  3  0  0  0  0  0  0
  191.6670  172.7620  138.4320 C   0  0  0  0  0  3  0  0  0  0  0  0
  191.0510  173.3780  139.5240 C   0  0  0  0  0  3  0  0  0  0  0  0
  189.6860  171.4210  138.0730 C   0  0  0  0  0  3  0  0  0  0  0  0
  189.7410  173.0310  139.8990 C   0  0  0  0  0  0  0  0  0  0  0  0
  191.7900  174.0470  144.6040 C   0  0  0  0  0  0  0  0  0  0  0  0
  192.3210  174.1250  143.4630 O   0  0  0  0  0  0  0  0  0  0  0  0
  190.3720  174.1630  144.7580 N   0  0  0  0  0  2  0  0  0  0  0  0
  192.6500  173.8870  145.8100 C   0  0  0  0  0  2  0  0  0  0  0  0
  192.7550  176.2580  145.5180 O   0  0  0  0  0  0  0  0  0  0  0  0
  193.4170  175.1690  146.1000 C   0  0  2  0  0  3  0  0  0  0  0  0
  193.7580  177.2080  145.2780 C   0  0  0  0  0  2  0  0  0  0  0  0
  194.8140  175.0990  145.5230 C   0  0  0  0  0  2  0  0  0  0  0  0
  195.0480  176.4780  144.9850 C   0  0  0  0  0  2  0  0  0  0  0  0
  185.7330  179.5410  144.1290 C   0  0  0  0  0  2  0  0  0  0  0  0
  184.5170  179.2050  144.9700 C   0  0  0  0  0  2  0  0  0  0  0  0
  184.6330  177.2410  146.5470 N   0  0  0  0  0  1  0  0  0  0  0  0
  184.9460  178.6000  146.2600 C   0  0  0  0  0  0  0  0  0  0  0  0
  185.5590  179.2970  147.1090 O   0  0  0  0  0  0  0  0  0  0  0  0
  1  4  1  0  0  0  0
  1 13  1  0  0  0  0
  3 22  1  1  0  0  0
  4  7  2  0  0  0  0
  6 11  2  0  0  0  0
  7  3  1  0  0  0  0
  7  2  1  0  0  0  0
  8  3  1  0  0  0  0
  9  2  2  0  0  0  0
 10  5  1  6  0  0  0
 10 12  1  0  0  0  0
 10  4  1  0  0  0  0
 11 13  1  0  0  0  0
 11 29  1  0  0  0  0
 12 19  1  6  0  0  0
 12  8  1  0  0  0  0
 13  9  1  0  0  0  0
 14 18  2  0  0  0  0
 14 16  1  0  0  0  0
 15 19  2  0  0  0  0
 16 17  2  0  0  0  0
 17 19  1  0  0  0  0
 18 15  1  0  0  0  0
 20 22  1  0  0  0  0
 20 23  1  0  0  0  0
 21 20  2  0  0  0  0
 24 25  1  0  0  0  0
 25 23  1  6  0  0  0
 26 24  1  0  0  0  0
 27 25  1  0  0  0  0
 28 26  1  0  0  0  0
 28 27  1  0  0  0  0
 29 30  1  0  0  0  0
 30 32  1  0  0  0  0
 32 31  1  0  0  0  0
 32 33  2  0  0  0  0
M  END
>  <MODEL>
7

>  <REMARK>
 VINA RESULT:      -6.9      2.513      7.038
  Name = 
  7 active torsions:
  status: ('A' for Active; 'I' for Inactive)
    1  A    between atoms: C_2  and  C_18
    2  A    between atoms: C_8  and  N_30
    3  A    between atoms: C_9  and  C_21
    4  A    between atoms: C_9  and  C_28
    5  A    between atoms: C_15  and  C_21
    6  A    between atoms: C_18  and  C_19
    7  A    between atoms: C_25  and  C_31
                            x       y       z     vdW  Elec       q    Type
                         _______ _______ _______ _____ _____    ______ ____

>  <TORSDO>
F 7

$$$$
=
 OpenBabel11042416143D

 33 36  0  0  1  0  0  0  0  0999 V2000
  191.2210  176.0450  145.1010 C   0  0  0  0  0  2  0  0  0  0  0  0
  191.2920  175.4760  142.3180 C   0  0  0  0  0  3  0  0  0  0  0  0
  188.8360  175.4940  142.3940 C   0  0  2  0  0  3  0  0  0  0  0  0
  190.0460  176.0370  144.4610 C   0  0  0  0  0  0  0  0  0  0  0  0
  189.0600  177.4470  146.2400 O   0  0  0  0  0  1  0  0  0  0  0  0
  193.6720  175.8130  146.4130 O   0  0  0  0  0  0  0  0  0  0  0  0
  190.0100  175.6450  143.0280 C   0  0  0  0  0  0  0  0  0  0  0  0
  187.3370  175.2490  143.3500 S   0  0  0  0  0  0  0  0  0  0  0  0
  192.4360  175.4800  143.0020 C   0  0  0  0  0  3  0  0  0  0  0  0
  188.8670  176.6750  145.0950 C   0  0  1  0  0  3  0  0  0  0  0  0
  193.6680  175.6010  145.1700 C   0  0  0  0  0  0  0  0  0  0  0  0
  187.6450  176.5730  144.5360 C   0  0  2  0  0  3  0  0  0  0  0  0
  192.4390  175.6740  144.4280 N   0  0  0  0  0  0  0  0  0  0  0  0
  184.2920  178.9980  145.7060 C   0  0  0  0  0  3  0  0  0  0  0  0
  185.6100  176.9820  145.9360 C   0  0  0  0  0  3  0  0  0  0  0  0
  185.1640  179.4520  144.7140 C   0  0  0  0  0  3  0  0  0  0  0  0
  186.2590  178.6720  144.3350 C   0  0  0  0  0  3  0  0  0  0  0  0
  184.5140  177.7610  146.3170 C   0  0  0  0  0  3  0  0  0  0  0  0
  186.5010  177.4300  144.9490 C   0  0  0  0  0  0  0  0  0  0  0  0
  188.5390  174.0800  140.3270 C   0  0  0  0  0  0  0  0  0  0  0  0
  188.3040  173.0420  141.0030 O   0  0  0  0  0  0  0  0  0  0  0  0
  188.7590  175.3370  140.9720 N   0  0  0  0  0  2  0  0  0  0  0  0
  188.5320  174.0080  138.8390 C   0  0  0  0  0  2  0  0  0  0  0  0
  189.3810  171.8280  138.3450 O   0  0  0  0  0  0  0  0  0  0  0  0
  189.7090  173.1910  138.3310 C   0  0  2  0  0  3  0  0  0  0  0  0
  190.6050  171.1600  138.4880 C   0  0  0  0  0  2  0  0  0  0  0  0
  190.9220  173.3950  139.2120 C   0  0  0  0  0  2  0  0  0  0  0  0
  191.5330  172.0300  139.3030 C   0  0  0  0  0  2  0  0  0  0  0  0
  194.9630  175.3010  144.4890 C   0  0  0  0  0  2  0  0  0  0  0  0
  195.6940  176.5920  144.1790 C   0  0  0  0  0  2  0  0  0  0  0  0
  197.8130  175.8520  143.0330 N   0  0  0  0  0  1  0  0  0  0  0  0
  196.5140  176.4270  142.9490 C   0  0  0  0  0  0  0  0  0  0  0  0
  196.0710  176.8220  141.8390 O   0  0  0  0  0  0  0  0  0  0  0  0
  2  9  2  0  0  0  0
  2  7  1  0  0  0  0
  3 22  1  6  0  0  0
  3  7  1  0  0  0  0
  3  8  1  0  0  0  0
  4 10  1  0  0  0  0
  4  1  1  0  0  0  0
  7  4  2  0  0  0  0
  8 12  1  0  0  0  0
  9 13  1  0  0  0  0
 10  5  1  6  0  0  0
 11  6  2  0  0  0  0
 12 19  1  1  0  0  0
 12 10  1  0  0  0  0
 13  1  1  0  0  0  0
 13 11  1  0  0  0  0
 14 18  1  0  0  0  0
 15 18  2  0  0  0  0
 16 14  2  0  0  0  0
 17 16  1  0  0  0  0
 17 19  2  0  0  0  0
 19 15  1  0  0  0  0
 20 22  1  0  0  0  0
 20 21  2  0  0  0  0
 23 20  1  0  0  0  0
 24 26  1  0  0  0  0
 25 24  1  0  0  0  0
 25 23  1  1  0  0  0
 25 27  1  0  0  0  0
 26 28  1  0  0  0  0
 27 28  1  0  0  0  0
 29 11  1  0  0  0  0
 30 29  1  0  0  0  0
 32 31  1  0  0  0  0
 32 30  1  0  0  0  0
 33 32  2  0  0  0  0
M  END
>  <MODEL>
8

>  <REMARK>
 VINA RESULT:      -6.7      2.240      6.164
  Name = 
  7 active torsions:
  status: ('A' for Active; 'I' for Inactive)
    1  A    between atoms: C_2  and  C_18
    2  A    between atoms: C_8  and  N_30
    3  A    between atoms: C_9  and  C_21
    4  A    between atoms: C_9  and  C_28
    5  A    between atoms: C_15  and  C_21
    6  A    between atoms: C_18  and  C_19
    7  A    between atoms: C_25  and  C_31
                            x       y       z     vdW  Elec       q    Type
                         _______ _______ _______ _____ _____    ______ ____

>  <TORSDO>
F 7

$$$$
=
 OpenBabel11042416143D

 33 36  0  0  1  0  0  0  0  0999 V2000
  190.2650  176.0580  145.3960 C   0  0  0  0  0  2  0  0  0  0  0  0
  189.4440  175.2050  142.8130 C   0  0  0  0  0  3  0  0  0  0  0  0
  191.8150  174.7310  142.3700 C   0  0  2  0  0  3  0  0  0  0  0  0
  191.2080  175.5170  144.6160 C   0  0  0  0  0  0  0  0  0  0  0  0
  192.5650  174.9830  146.6160 O   0  0  0  0  0  1  0  0  0  0  0  0
  188.3070  177.3870  146.8730 O   0  0  0  0  0  0  0  0  0  0  0  0
  190.8620  175.1470  143.2190 C   0  0  0  0  0  0  0  0  0  0  0  0
  193.5360  175.1020  142.7180 S   0  0  0  0  0  0  0  0  0  0  0  0
  188.5440  175.7640  143.6210 C   0  0  0  0  0  3  0  0  0  0  0  0
  192.4740  175.0450  145.2260 C   0  0  1  0  0  3  0  0  0  0  0  0
  187.9720  176.9630  145.7340 C   0  0  0  0  0  0  0  0  0  0  0  0
  193.4920  174.6130  144.4550 C   0  0  2  0  0  3  0  0  0  0  0  0
  188.9330  176.2930  144.9020 N   0  0  0  0  0  0  0  0  0  0  0  0
  196.7910  172.3980  146.0990 C   0  0  0  0  0  3  0  0  0  0  0  0
  194.5530  172.4650  145.1810 C   0  0  0  0  0  3  0  0  0  0  0  0
  196.8950  173.7820  145.9390 C   0  0  0  0  0  3  0  0  0  0  0  0
  195.8290  174.5050  145.3990 C   0  0  0  0  0  3  0  0  0  0  0  0
  195.6180  171.7390  145.7210 C   0  0  0  0  0  3  0  0  0  0  0  0
  194.6470  173.8540  145.0030 C   0  0  0  0  0  0  0  0  0  0  0  0
  191.4110  172.7500  140.8620 C   0  0  0  0  0  0  0  0  0  0  0  0
  191.5270  171.9310  141.8140 O   0  0  0  0  0  0  0  0  0  0  0  0
  191.4950  174.1590  141.0970 N   0  0  0  0  0  2  0  0  0  0  0  0
  191.1280  172.2490  139.4880 C   0  0  0  0  0  2  0  0  0  0  0  0
  192.3530  170.2960  138.8550 O   0  0  0  0  0  0  0  0  0  0  0  0
  191.1600  170.7290  139.4490 C   0  0  2  0  0  3  0  0  0  0  0  0
  192.0520  169.0430  138.3020 C   0  0  0  0  0  2  0  0  0  0  0  0
  190.0030  170.1900  138.6350 C   0  0  0  0  0  2  0  0  0  0  0  0
  190.6020  169.0450  137.8770 C   0  0  0  0  0  2  0  0  0  0  0  0
  186.5600  177.1480  145.2860 C   0  0  0  0  0  2  0  0  0  0  0  0
  185.6130  176.8740  146.4380 C   0  0  0  0  0  2  0  0  0  0  0  0
  183.9630  178.6770  145.8230 N   0  0  0  0  0  1  0  0  0  0  0  0
  184.8550  178.1090  146.7750 C   0  0  0  0  0  0  0  0  0  0  0  0
  185.0240  178.6670  147.8890 O   0  0  0  0  0  0  0  0  0  0  0  0
  2  7  1  0  0  0  0
  2  9  2  0  0  0  0
  3 22  1  6  0  0  0
  3  8  1  0  0  0  0
  3  7  1  0  0  0  0
  4 10  1  0  0  0  0
  4  1  1  0  0  0  0
  7  4  2  0  0  0  0
  8 12  1  0  0  0  0
  9 13  1  0  0  0  0
 10  5  1  1  0  0  0
 11  6  2  0  0  0  0
 12 19  1  1  0  0  0
 12 10  1  0  0  0  0
 13  1  1  0  0  0  0
 13 11  1  0  0  0  0
 15 18  1  0  0  0  0
 16 14  1  0  0  0  0
 17 16  2  0  0  0  0
 18 14  2  0  0  0  0
 19 15  2  0  0  0  0
 19 17  1  0  0  0  0
 20 22  1  0  0  0  0
 20 21  2  0  0  0  0
 23 20  1  0  0  0  0
 24 25  1  0  0  0  0
 25 23  1  6  0  0  0
 26 24  1  0  0  0  0
 27 25  1  0  0  0  0
 28 26  1  0  0  0  0
 28 27  1  0  0  0  0
 29 11  1  0  0  0  0
 29 30  1  0  0  0  0
 30 32  1  0  0  0  0
 31 32  1  0  0  0  0
 32 33  2  0  0  0  0
M  END
>  <MODEL>
9

>  <REMARK>
 VINA RESULT:      -6.6      2.534      8.528
  Name = 
  7 active torsions:
  status: ('A' for Active; 'I' for Inactive)
    1  A    between atoms: C_2  and  C_18
    2  A    between atoms: C_8  and  N_30
    3  A    between atoms: C_9  and  C_21
    4  A    between atoms: C_9  and  C_28
    5  A    between atoms: C_15  and  C_21
    6  A    between atoms: C_18  and  C_19
    7  A    between atoms: C_25  and  C_31
                            x       y       z     vdW  Elec       q    Type
                         _______ _______ _______ _____ _____    ______ ____

>  <TORSDO>
F 7

$$$$
