=
 OpenBabel11042414153D

 45 49  0  0  1  0  0  0  0  0999 V2000
  192.1750  173.6720  141.9470 C   0  0  0  0  0  0  0  0  0  0  0  0
  192.6710  174.4940  141.0020 N   0  0  0  0  0  0  0  0  0  0  0  0
  193.1290  173.1260  142.7180 N   0  0  0  0  0  0  0  0  0  0  0  0
  190.8250  173.3510  142.1570 C   0  0  0  0  0  0  0  0  0  0  0  0
  191.5160  171.9270  143.9520 C   0  0  0  0  0  3  0  0  0  0  0  0
  190.5410  172.4790  143.1690 N   0  0  0  0  0  0  0  0  0  0  0  0
  194.3100  173.5970  142.2840 C   0  0  0  0  0  3  0  0  0  0  0  0
  192.8560  172.2640  143.7300 C   0  0  0  0  0  0  0  0  0  0  0  0
  194.0050  174.4410  141.2230 C   0  0  0  0  0  0  0  0  0  0  0  0
  194.9870  175.1860  140.4260 C   0  0  0  0  0  0  0  0  0  0  0  0
  195.2380  176.3910  140.6990 O   0  0  0  0  0  0  0  0  0  0  0  0
  195.6540  174.5380  139.3400 N   0  0  0  0  0  2  0  0  0  0  0  0
  197.3110  174.2140  137.6060 C   0  0  2  0  0  3  0  0  0  0  0  0
  196.2710  175.1150  137.0640 C   0  0  1  0  0  3  0  0  0  0  0  0
  196.6510  175.2150  138.5270 C   0  0  1  0  0  3  0  0  0  0  0  0
  197.4040  174.7570  136.3090 O   0  0  0  0  0  0  0  0  0  0  0  0
  189.7330  173.9470  141.3430 C   0  0  0  0  0  0  0  0  0  0  0  0
  189.6080  173.6130  140.1350 O   0  0  0  0  0  0  0  0  0  0  0  0
  188.8080  174.9030  141.8770 N   0  0  0  0  0  2  0  0  0  0  0  0
  188.7180  175.2660  143.2540 C   0  0  0  0  0  3  0  0  0  0  0  0
  184.5190  178.2750  145.0590 C   0  0  0  0  0  0  0  0  0  0  0  0
  185.4790  177.6550  146.0020 C   0  0  0  0  0  0  0  0  0  0  0  0
  187.7150  175.9810  143.6750 C   0  0  0  0  0  0  0  0  0  0  0  0
  185.8820  177.1380  141.9020 O   0  0  0  0  0  0  0  0  0  0  0  0
  185.7550  177.3010  143.1450 C   0  0  0  0  0  0  0  0  0  0  0  0
  187.3800  176.3660  146.4310 F   0  0  0  0  0  0  0  0  0  0  0  0
  186.7070  176.6990  144.0980 C   0  0  0  0  0  0  0  0  0  0  0  0
  186.5050  176.9180  145.5480 C   0  0  0  0  0  0  0  0  0  0  0  0
  184.6730  178.0840  143.6510 N   0  0  0  0  0  2  0  0  0  0  0  0
  183.5650  178.9760  145.4890 O   0  0  0  0  0  0  0  0  0  0  0  0
  185.3020  177.8610  147.4700 C   0  0  0  0  0  1  0  0  0  0  0  0
  193.9370  171.6510  144.5560 C   0  0  0  0  0  2  0  0  0  0  0  0
  194.2110  172.4640  145.6550 O   0  0  0  0  0  0  0  0  0  0  0  0
  195.5350  172.8640  145.4720 C   0  0  0  0  0  2  0  0  0  0  0  0
  195.7400  174.2570  146.0390 C   0  0  0  0  0  2  0  0  0  0  0  0
  195.6760  175.2060  145.0140 O   0  0  0  0  0  0  0  0  0  0  0  0
  194.3210  176.1660  145.3630 P   0  0  2  0  0  0  0  0  0  0  0  0
  193.6040  176.5260  144.0780 O   0  0  0  0  0  0  0  0  0  0  0  0
  194.8190  177.5830  146.1490 O   0  0  0  0  0  1  0  0  0  0  0  0
  193.2770  175.2870  146.3690 O   0  0  0  0  0  0  0  0  0  0  0  0
  192.0170  175.3870  145.7770 C   0  0  0  0  0  2  0  0  0  0  0  0
  191.7610  176.9930  148.1300 O   0  0  0  0  0  1  0  0  0  0  0  0
  190.0790  177.2620  146.1470 O   0  0  0  0  0  0  0  0  0  0  0  0
  190.8770  176.2300  146.9090 P   0  0  0  0  0  0  0  0  0  0  0  0
  189.8250  175.0990  147.5970 O   0  0  0  0  0  1  0  0  0  0  0  0
  1  4  1  0  0  0  0
  1  3  1  0  0  0  0
  2  9  1  0  0  0  0
  2  1  2  0  0  0  0
  3  8  1  0  0  0  0
  4  6  2  0  0  0  0
  6  5  1  0  0  0  0
  7  3  1  0  0  0  0
  8  5  2  0  0  0  0
  8 32  1  0  0  0  0
  9  7  2  0  0  0  0
 10 11  2  0  0  0  0
 10  9  1  0  0  0  0
 12 10  1  0  0  0  0
 13 16  1  6  0  0  0
 13 15  1  0  0  0  0
 14 16  1  6  0  0  0
 14 13  1  0  0  0  0
 14 15  1  0  0  0  0
 15 12  1  1  0  0  0
 17 19  1  0  0  0  0
 17  4  1  0  0  0  0
 18 17  2  0  0  0  0
 19 20  1  0  0  0  0
 20 23  2  0  0  0  0
 21 30  2  0  0  0  0
 21 22  1  0  0  0  0
 22 31  1  0  0  0  0
 23 27  2  0  0  0  0
 24 25  2  0  0  0  0
 25 29  1  0  0  0  0
 25 27  1  0  0  0  0
 27 28  1  0  0  0  0
 28 22  2  0  0  0  0
 28 26  1  0  0  0  0
 29 21  1  0  0  0  0
 32 33  1  0  0  0  0
 34 33  1  0  0  0  0
 34 35  1  0  0  0  0
 36 37  1  0  0  0  0
 36 35  1  0  0  0  0
 37 38  2  6  0  0  0
 37 39  1  0  0  0  0
 37 40  1  0  0  0  0
 41 40  1  0  0  0  0
 41 44  1  0  0  0  0
 43 44  2  0  0  0  0
 44 45  1  0  0  0  0
 44 42  1  0  0  0  0
M  END
>  <MODEL>
1

>  <REMARK>
 VINA RESULT:      -6.8      0.000      0.000
  Name = 
  13 active torsions:
  status: ('A' for Active; 'I' for Inactive)
    1  A    between atoms: C_1  and  O_22
    2  A    between atoms: C_1  and  C_41
    3  A    between atoms: C_2  and  N_37
    4  A    between atoms: C_6  and  O_16
    5  A    between atoms: C_6  and  P_36
    6  A    between atoms: O_8  and  C_9
    7  A    between atoms: O_8  and  P_12
    8  A    between atoms: C_9  and  C_19
    9  A    between atoms: C_10  and  C_42
   10  A    between atoms: P_12  and  O_16
   11  A    between atoms: N_13  and  C_30
   12  A    between atoms: C_19  and  O_22
   13  A    between atoms: C_21  and  C_26
                            x       y       z     vdW  Elec       q    Type
                         _______ _______ _______ _____ _____    ______ ____

>  <TORSDO>
F 13

$$$$
=
 OpenBabel11042414153D

 45 49  0  0  1  0  0  0  0  0999 V2000
  191.3860  173.3700  141.3570 C   0  0  0  0  0  0  0  0  0  0  0  0
  192.0420  174.3850  140.7620 N   0  0  0  0  0  0  0  0  0  0  0  0
  192.2050  172.5290  142.0100 N   0  0  0  0  0  0  0  0  0  0  0  0
  190.0030  173.1330  141.3310 C   0  0  0  0  0  0  0  0  0  0  0  0
  190.3830  171.1780  142.6580 C   0  0  0  0  0  3  0  0  0  0  0  0
  189.5460  172.0290  141.9950 N   0  0  0  0  0  0  0  0  0  0  0  0
  193.4560  172.9920  141.8540 C   0  0  0  0  0  3  0  0  0  0  0  0
  191.7600  171.4340  142.6770 C   0  0  0  0  0  0  0  0  0  0  0  0
  193.3340  174.1400  141.0800 C   0  0  0  0  0  0  0  0  0  0  0  0
  194.4490  174.9900  140.6460 C   0  0  0  0  0  0  0  0  0  0  0  0
  194.5410  176.1740  141.0690 O   0  0  0  0  0  0  0  0  0  0  0  0
  195.4270  174.4670  139.7440 N   0  0  0  0  0  2  0  0  0  0  0  0
  197.5240  174.3590  138.5390 C   0  0  2  0  0  3  0  0  0  0  0  0
  196.6200  175.2510  137.7800 C   0  0  1  0  0  3  0  0  0  0  0  0
  196.5650  175.2530  139.2940 C   0  0  1  0  0  3  0  0  0  0  0  0
  197.9410  175.0070  137.3590 O   0  0  0  0  0  0  0  0  0  0  0  0
  189.0550  174.0470  140.6410 C   0  0  0  0  0  0  0  0  0  0  0  0
  188.7910  173.8610  139.4230 O   0  0  0  0  0  0  0  0  0  0  0  0
  188.4270  175.1510  141.3060 N   0  0  0  0  0  2  0  0  0  0  0  0
  188.4990  175.4020  142.7080 C   0  0  0  0  0  3  0  0  0  0  0  0
  184.5530  178.2390  145.2220 C   0  0  0  0  0  0  0  0  0  0  0  0
  185.6120  177.5510  145.9950 C   0  0  0  0  0  0  0  0  0  0  0  0
  187.5550  176.0780  143.2980 C   0  0  0  0  0  0  0  0  0  0  0  0
  185.5330  177.3620  141.8480 O   0  0  0  0  0  0  0  0  0  0  0  0
  185.5530  177.4260  143.1070 C   0  0  0  0  0  0  0  0  0  0  0  0
  187.5450  176.2410  146.0960 F   0  0  0  0  0  0  0  0  0  0  0  0
  186.6070  176.7550  143.8920 C   0  0  0  0  0  0  0  0  0  0  0  0
  186.5760  176.8570  145.3680 C   0  0  0  0  0  0  0  0  0  0  0  0
  184.5400  178.1600  143.7950 N   0  0  0  0  0  2  0  0  0  0  0  0
  183.6580  178.8990  145.8150 O   0  0  0  0  0  0  0  0  0  0  0  0
  185.6090  177.6390  147.4860 C   0  0  0  0  0  1  0  0  0  0  0  0
  192.6930  170.5010  143.3720 C   0  0  0  0  0  2  0  0  0  0  0  0
  193.0000  170.9960  144.6390 O   0  0  0  0  0  0  0  0  0  0  0  0
  194.3200  170.6040  144.8570 C   0  0  0  0  0  2  0  0  0  0  0  0
  195.1660  171.8100  145.2260 C   0  0  0  0  0  2  0  0  0  0  0  0
  194.3520  172.9360  145.3790 O   0  0  0  0  0  0  0  0  0  0  0  0
  195.4080  174.2650  145.3860 P   0  0  2  0  0  0  0  0  0  0  0  0
  195.7900  174.6230  143.9650 O   0  0  0  0  0  0  0  0  0  0  0  0
  196.8020  173.8750  146.2660 O   0  0  0  0  0  1  0  0  0  0  0  0
  194.6200  175.5810  146.1100 O   0  0  0  0  0  0  0  0  0  0  0  0
  193.3380  175.1240  146.4180 C   0  0  0  0  0  2  0  0  0  0  0  0
  192.9450  176.8650  144.1830 O   0  0  0  0  0  0  0  0  0  0  0  0
  191.4570  174.7370  144.4890 O   0  0  0  0  0  1  0  0  0  0  0  0
  192.1400  175.8420  145.2600 P   0  0  0  0  0  0  0  0  0  0  0  0
  190.9840  176.7270  146.1210 O   0  0  0  0  0  1  0  0  0  0  0  0
  1  3  1  0  0  0  0
  2  9  1  0  0  0  0
  2  1  2  0  0  0  0
  3  8  1  0  0  0  0
  4  1  1  0  0  0  0
  4  6  2  0  0  0  0
  5  8  2  0  0  0  0
  6  5  1  0  0  0  0
  7  3  1  0  0  0  0
  8 32  1  0  0  0  0
  9  7  2  0  0  0  0
 10 11  2  0  0  0  0
 10  9  1  0  0  0  0
 12 10  1  0  0  0  0
 13 16  1  1  0  0  0
 13 15  1  0  0  0  0
 14 16  1  1  0  0  0
 14 13  1  0  0  0  0
 14 15  1  0  0  0  0
 15 12  1  6  0  0  0
 17 19  1  0  0  0  0
 17  4  1  0  0  0  0
 18 17  2  0  0  0  0
 19 20  1  0  0  0  0
 20 23  2  0  0  0  0
 21 30  2  0  0  0  0
 21 22  1  0  0  0  0
 22 31  1  0  0  0  0
 23 27  2  0  0  0  0
 24 25  2  0  0  0  0
 25 29  1  0  0  0  0
 25 27  1  0  0  0  0
 27 28  1  0  0  0  0
 28 22  2  0  0  0  0
 28 26  1  0  0  0  0
 29 21  1  0  0  0  0
 32 33  1  0  0  0  0
 33 34  1  0  0  0  0
 34 35  1  0  0  0  0
 35 36  1  0  0  0  0
 36 37  1  0  0  0  0
 37 38  2  6  0  0  0
 37 40  1  0  0  0  0
 37 39  1  0  0  0  0
 40 41  1  0  0  0  0
 42 44  2  0  0  0  0
 43 44  1  0  0  0  0
 44 45  1  0  0  0  0
 44 41  1  0  0  0  0
M  END
>  <MODEL>
2

>  <REMARK>
 VINA RESULT:      -6.8      1.187      1.688
  Name = 
  13 active torsions:
  status: ('A' for Active; 'I' for Inactive)
    1  A    between atoms: C_1  and  O_22
    2  A    between atoms: C_1  and  C_41
    3  A    between atoms: C_2  and  N_37
    4  A    between atoms: C_6  and  O_16
    5  A    between atoms: C_6  and  P_36
    6  A    between atoms: O_8  and  C_9
    7  A    between atoms: O_8  and  P_12
    8  A    between atoms: C_9  and  C_19
    9  A    between atoms: C_10  and  C_42
   10  A    between atoms: P_12  and  O_16
   11  A    between atoms: N_13  and  C_30
   12  A    between atoms: C_19  and  O_22
   13  A    between atoms: C_21  and  C_26
                            x       y       z     vdW  Elec       q    Type
                         _______ _______ _______ _____ _____    ______ ____

>  <TORSDO>
F 13

$$$$
=
 OpenBabel11042414153D

 45 49  0  0  1  0  0  0  0  0999 V2000
  193.0820  174.3840  145.4670 C   0  0  0  0  0  0  0  0  0  0  0  0
  193.0620  173.1030  145.8840 N   0  0  0  0  0  0  0  0  0  0  0  0
  193.9910  174.6070  144.5040 N   0  0  0  0  0  0  0  0  0  0  0  0
  192.2880  175.4360  145.9480 C   0  0  0  0  0  0  0  0  0  0  0  0
  193.4060  176.8910  144.4120 C   0  0  0  0  0  3  0  0  0  0  0  0
  192.4810  176.6690  145.3930 N   0  0  0  0  0  0  0  0  0  0  0  0
  194.6040  173.4380  144.2570 C   0  0  0  0  0  3  0  0  0  0  0  0
  194.1860  175.8270  143.9420 C   0  0  0  0  0  0  0  0  0  0  0  0
  194.0160  172.5200  145.1200 C   0  0  0  0  0  0  0  0  0  0  0  0
  194.3710  171.0990  145.2120 C   0  0  0  0  0  0  0  0  0  0  0  0
  193.6410  170.2300  144.6640 O   0  0  0  0  0  0  0  0  0  0  0  0
  195.5450  170.7090  145.9270 N   0  0  0  0  0  2  0  0  0  0  0  0
  197.4680  169.2540  146.1410 C   0  0  2  0  0  3  0  0  0  0  0  0
  196.6530  169.0980  147.3650 C   0  0  1  0  0  3  0  0  0  0  0  0
  195.9600  169.3200  146.0370 C   0  0  1  0  0  3  0  0  0  0  0  0
  197.8310  168.3530  147.1610 O   0  0  0  0  0  0  0  0  0  0  0  0
  191.2540  175.2320  146.9970 C   0  0  0  0  0  0  0  0  0  0  0  0
  191.5960  175.2210  148.2100 O   0  0  0  0  0  0  0  0  0  0  0  0
  189.8680  175.0380  146.6860 N   0  0  0  0  0  2  0  0  0  0  0  0
  189.3000  175.1780  145.3850 C   0  0  0  0  0  3  0  0  0  0  0  0
  185.5400  179.0300  144.4010 C   0  0  0  0  0  0  0  0  0  0  0  0
  186.1360  178.2410  143.2980 C   0  0  0  0  0  0  0  0  0  0  0  0
  188.4070  176.0970  145.1600 C   0  0  0  0  0  0  0  0  0  0  0  0
  187.2930  177.6110  147.2350 O   0  0  0  0  0  0  0  0  0  0  0  0
  186.9350  177.8060  146.0420 C   0  0  0  0  0  0  0  0  0  0  0  0
  187.5850  176.5790  142.5230 F   0  0  0  0  0  0  0  0  0  0  0  0
  187.5100  177.0220  144.9320 C   0  0  0  0  0  0  0  0  0  0  0  0
  187.0580  177.2980  143.5510 C   0  0  0  0  0  0  0  0  0  0  0  0
  185.9530  178.8010  145.7500 N   0  0  0  0  0  2  0  0  0  0  0  0
  184.6660  179.9050  144.1600 O   0  0  0  0  0  0  0  0  0  0  0  0
  185.6970  178.4950  141.8930 C   0  0  0  0  0  1  0  0  0  0  0  0
  195.2200  176.0540  142.8910 C   0  0  0  0  0  2  0  0  0  0  0  0
  194.6040  176.3760  141.6830 O   0  0  0  0  0  0  0  0  0  0  0  0
  194.7030  175.2120  140.9200 C   0  0  0  0  0  2  0  0  0  0  0  0
  193.3200  174.7390  140.5120 C   0  0  0  0  0  2  0  0  0  0  0  0
  192.9620  173.6100  141.2550 O   0  0  0  0  0  0  0  0  0  0  0  0
  191.3660  173.8840  141.7640 P   0  0  2  0  0  0  0  0  0  0  0  0
  191.2180  175.3160  142.2360 O   0  0  0  0  0  0  0  0  0  0  0  0
  190.9880  172.8270  143.0330 O   0  0  0  0  0  1  0  0  0  0  0  0
  190.3240  173.6070  140.4550 O   0  0  0  0  0  0  0  0  0  0  0  0
  189.9410  172.2690  140.5600 C   0  0  0  0  0  2  0  0  0  0  0  0
  192.1540  170.5210  140.0820 O   0  0  0  0  0  1  0  0  0  0  0  0
  189.9210  170.2330  138.7540 O   0  0  0  0  0  1  0  0  0  0  0  0
  190.8420  171.2790  139.3360 P   0  0  0  0  0  0  0  0  0  0  0  0
  191.4030  172.2870  138.0980 O   0  0  0  0  0  0  0  0  0  0  0  0
  1  2  2  0  0  0  0
  1  4  1  0  0  0  0
  3  1  1  0  0  0  0
  4 17  1  0  0  0  0
  5  6  1  0  0  0  0
  6  4  2  0  0  0  0
  7  3  1  0  0  0  0
  7  9  2  0  0  0  0
  8  5  2  0  0  0  0
  8  3  1  0  0  0  0
  9 10  1  0  0  0  0
  9  2  1  0  0  0  0
 10 12  1  0  0  0  0
 11 10  2  0  0  0  0
 13 16  1  6  0  0  0
 13 14  1  0  0  0  0
 14 16  1  6  0  0  0
 15 12  1  1  0  0  0
 15 13  1  0  0  0  0
 15 14  1  0  0  0  0
 17 18  2  0  0  0  0
 19 17  1  0  0  0  0
 20 19  1  0  0  0  0
 21 29  1  0  0  0  0
 22 28  2  0  0  0  0
 22 21  1  0  0  0  0
 23 20  2  0  0  0  0
 25 24  2  0  0  0  0
 26 28  1  0  0  0  0
 27 23  2  0  0  0  0
 27 25  1  0  0  0  0
 28 27  1  0  0  0  0
 29 25  1  0  0  0  0
 30 21  2  0  0  0  0
 31 22  1  0  0  0  0
 32  8  1  0  0  0  0
 33 32  1  0  0  0  0
 34 33  1  0  0  0  0
 35 34  1  0  0  0  0
 35 36  1  0  0  0  0
 36 37  1  0  0  0  0
 37 38  2  1  0  0  0
 37 39  1  0  0  0  0
 40 41  1  0  0  0  0
 40 37  1  0  0  0  0
 43 44  1  0  0  0  0
 44 42  1  0  0  0  0
 44 41  1  0  0  0  0
 45 44  2  0  0  0  0
M  END
>  <MODEL>
3

>  <REMARK>
 VINA RESULT:      -6.7      3.080      6.263
  Name = 
  13 active torsions:
  status: ('A' for Active; 'I' for Inactive)
    1  A    between atoms: C_1  and  O_22
    2  A    between atoms: C_1  and  C_41
    3  A    between atoms: C_2  and  N_37
    4  A    between atoms: C_6  and  O_16
    5  A    between atoms: C_6  and  P_36
    6  A    between atoms: O_8  and  C_9
    7  A    between atoms: O_8  and  P_12
    8  A    between atoms: C_9  and  C_19
    9  A    between atoms: C_10  and  C_42
   10  A    between atoms: P_12  and  O_16
   11  A    between atoms: N_13  and  C_30
   12  A    between atoms: C_19  and  O_22
   13  A    between atoms: C_21  and  C_26
                            x       y       z     vdW  Elec       q    Type
                         _______ _______ _______ _____ _____    ______ ____

>  <TORSDO>
F 13

$$$$
=
 OpenBabel11042414153D

 45 49  0  0  1  0  0  0  0  0999 V2000
  191.1390  175.4250  143.9650 C   0  0  0  0  0  0  0  0  0  0  0  0
  191.4550  174.1350  143.7350 N   0  0  0  0  0  0  0  0  0  0  0  0
  190.2800  175.9220  143.0610 N   0  0  0  0  0  0  0  0  0  0  0  0
  191.6250  176.2370  145.0010 C   0  0  0  0  0  0  0  0  0  0  0  0
  190.3080  178.0300  144.1200 C   0  0  0  0  0  3  0  0  0  0  0  0
  191.1830  177.5280  145.0420 N   0  0  0  0  0  0  0  0  0  0  0  0
  190.0020  174.9360  142.1920 C   0  0  0  0  0  3  0  0  0  0  0  0
  189.8300  177.2020  143.0970 C   0  0  0  0  0  0  0  0  0  0  0  0
  190.7380  173.8390  142.6260 C   0  0  0  0  0  0  0  0  0  0  0  0
  190.7550  172.5230  141.9790 C   0  0  0  0  0  0  0  0  0  0  0  0
  190.2280  171.5310  142.5520 O   0  0  0  0  0  0  0  0  0  0  0  0
  191.3720  172.3730  140.6980 N   0  0  0  0  0  2  0  0  0  0  0  0
  190.1990  170.9970  139.0890 C   0  0  2  0  0  3  0  0  0  0  0  0
  191.5150  171.3400  138.5060 C   0  0  1  0  0  3  0  0  0  0  0  0
  191.4040  171.0990  139.9970 C   0  0  1  0  0  3  0  0  0  0  0  0
  190.6000  170.5120  137.8280 O   0  0  0  0  0  0  0  0  0  0  0  0
  192.5600  175.7250  146.0370 C   0  0  0  0  0  0  0  0  0  0  0  0
  192.1100  175.0390  146.9940 O   0  0  0  0  0  0  0  0  0  0  0  0
  193.9700  175.9860  146.0010 N   0  0  0  0  0  2  0  0  0  0  0  0
  194.6530  176.6070  144.9140 C   0  0  0  0  0  3  0  0  0  0  0  0
  197.3140  173.5750  141.2160 C   0  0  0  0  0  0  0  0  0  0  0  0
  197.1160  175.0290  141.0160 C   0  0  0  0  0  0  0  0  0  0  0  0
  195.2830  175.8780  144.0380 C   0  0  0  0  0  0  0  0  0  0  0  0
  195.6400  173.1240  144.3960 O   0  0  0  0  0  0  0  0  0  0  0  0
  196.0930  173.6960  143.3680 C   0  0  0  0  0  0  0  0  0  0  0  0
  196.3000  177.1000  141.7290 F   0  0  0  0  0  0  0  0  0  0  0  0
  195.9140  175.1460  143.1580 C   0  0  0  0  0  0  0  0  0  0  0  0
  196.4610  175.7640  141.9290 C   0  0  0  0  0  0  0  0  0  0  0  0
  196.7950  172.9360  142.3850 N   0  0  0  0  0  2  0  0  0  0  0  0
  197.9390  172.8930  140.3620 O   0  0  0  0  0  0  0  0  0  0  0  0
  197.6600  175.6810  139.7870 C   0  0  0  0  0  1  0  0  0  0  0  0
  188.8950  177.7370  142.0640 C   0  0  0  0  0  2  0  0  0  0  0  0
  187.5780  177.4770  142.4390 O   0  0  0  0  0  0  0  0  0  0  0  0
  186.8370  177.6820  141.2750 C   0  0  0  0  0  2  0  0  0  0  0  0
  185.4800  178.2680  141.6200 C   0  0  0  0  0  2  0  0  0  0  0  0
  184.8740  177.5140  142.6300 O   0  0  0  0  0  0  0  0  0  0  0  0
  184.4330  178.6290  143.8310 P   0  0  2  0  0  0  0  0  0  0  0  0
  183.0520  179.1770  143.5390 O   0  0  0  0  0  0  0  0  0  0  0  0
  185.5520  179.9010  143.8610 O   0  0  0  0  0  1  0  0  0  0  0  0
  184.4240  177.8360  145.3310 O   0  0  0  0  0  0  0  0  0  0  0  0
  185.6950  177.2730  145.4630 C   0  0  0  0  0  2  0  0  0  0  0  0
  185.9390  179.3500  147.4140 O   0  0  0  0  0  1  0  0  0  0  0  0
  185.9460  176.8380  148.1370 O   0  0  0  0  0  1  0  0  0  0  0  0
  186.4200  177.7720  147.0490 P   0  0  0  0  0  0  0  0  0  0  0  0
  188.1060  177.7070  146.9430 O   0  0  0  0  0  0  0  0  0  0  0  0
  1  4  1  0  0  0  0
  2  1  2  0  0  0  0
  3  8  1  0  0  0  0
  3  1  1  0  0  0  0
  4  6  2  0  0  0  0
  4 17  1  0  0  0  0
  5  6  1  0  0  0  0
  7  9  2  0  0  0  0
  7  3  1  0  0  0  0
  8  5  2  0  0  0  0
  9  2  1  0  0  0  0
 10 11  2  0  0  0  0
 10  9  1  0  0  0  0
 12 10  1  0  0  0  0
 13 16  1  6  0  0  0
 13 15  1  0  0  0  0
 14 16  1  6  0  0  0
 14 13  1  0  0  0  0
 14 15  1  0  0  0  0
 15 12  1  1  0  0  0
 17 18  2  0  0  0  0
 19 17  1  0  0  0  0
 20 19  1  0  0  0  0
 21 29  1  0  0  0  0
 22 21  1  0  0  0  0
 22 28  2  0  0  0  0
 23 20  2  0  0  0  0
 25 24  2  0  0  0  0
 26 28  1  0  0  0  0
 27 25  1  0  0  0  0
 27 23  2  0  0  0  0
 28 27  1  0  0  0  0
 29 25  1  0  0  0  0
 30 21  2  0  0  0  0
 31 22  1  0  0  0  0
 32 33  1  0  0  0  0
 32  8  1  0  0  0  0
 34 35  1  0  0  0  0
 34 33  1  0  0  0  0
 35 36  1  0  0  0  0
 36 37  1  0  0  0  0
 37 38  2  6  0  0  0
 37 39  1  0  0  0  0
 37 40  1  0  0  0  0
 40 41  1  0  0  0  0
 41 44  1  0  0  0  0
 44 42  1  0  0  0  0
 44 43  1  0  0  0  0
 45 44  2  0  0  0  0
M  END
>  <MODEL>
4

>  <REMARK>
 VINA RESULT:      -6.7      3.272      8.672
  Name = 
  13 active torsions:
  status: ('A' for Active; 'I' for Inactive)
    1  A    between atoms: C_1  and  O_22
    2  A    between atoms: C_1  and  C_41
    3  A    between atoms: C_2  and  N_37
    4  A    between atoms: C_6  and  O_16
    5  A    between atoms: C_6  and  P_36
    6  A    between atoms: O_8  and  C_9
    7  A    between atoms: O_8  and  P_12
    8  A    between atoms: C_9  and  C_19
    9  A    between atoms: C_10  and  C_42
   10  A    between atoms: P_12  and  O_16
   11  A    between atoms: N_13  and  C_30
   12  A    between atoms: C_19  and  O_22
   13  A    between atoms: C_21  and  C_26
                            x       y       z     vdW  Elec       q    Type
                         _______ _______ _______ _____ _____    ______ ____

>  <TORSDO>
F 13

$$$$
=
 OpenBabel11042414153D

 45 49  0  0  1  0  0  0  0  0999 V2000
  191.9170  174.7510  145.0560 C   0  0  0  0  0  0  0  0  0  0  0  0
  193.0080  175.5190  144.8640 N   0  0  0  0  0  0  0  0  0  0  0  0
  192.0400  173.5250  144.5240 N   0  0  0  0  0  0  0  0  0  0  0  0
  190.7330  175.1230  145.7110 C   0  0  0  0  0  0  0  0  0  0  0  0
  189.8700  172.9420  145.2400 C   0  0  0  0  0  3  0  0  0  0  0  0
  189.7390  174.1890  145.7820 N   0  0  0  0  0  0  0  0  0  0  0  0
  193.2560  173.4580  143.9560 C   0  0  0  0  0  3  0  0  0  0  0  0
  191.0610  172.5880  144.5950 C   0  0  0  0  0  0  0  0  0  0  0  0
  193.8390  174.7000  144.1770 C   0  0  0  0  0  0  0  0  0  0  0  0
  195.1780  175.0970  143.7290 C   0  0  0  0  0  0  0  0  0  0  0  0
  195.9350  175.7460  144.5000 O   0  0  0  0  0  0  0  0  0  0  0  0
  195.6170  174.7450  142.4150 N   0  0  0  0  0  2  0  0  0  0  0  0
  197.0460  174.7070  140.4610 C   0  0  2  0  0  3  0  0  0  0  0  0
  196.8180  176.1240  140.8190 C   0  0  1  0  0  3  0  0  0  0  0  0
  196.9390  175.0920  141.9200 C   0  0  1  0  0  3  0  0  0  0  0  0
  197.6460  175.7580  139.7390 O   0  0  0  0  0  0  0  0  0  0  0  0
  190.5600  176.4620  146.3340 C   0  0  0  0  0  0  0  0  0  0  0  0
  190.9930  176.6640  147.5000 O   0  0  0  0  0  0  0  0  0  0  0  0
  189.9040  177.5460  145.6620 N   0  0  0  0  0  2  0  0  0  0  0  0
  189.5000  177.5280  144.2940 C   0  0  0  0  0  3  0  0  0  0  0  0
  184.2560  178.3170  142.9450 C   0  0  0  0  0  0  0  0  0  0  0  0
  185.3150  178.2740  141.9110 C   0  0  0  0  0  0  0  0  0  0  0  0
  188.2500  177.7170  143.9830 C   0  0  0  0  0  0  0  0  0  0  0  0
  186.2430  177.8250  145.9320 O   0  0  0  0  0  0  0  0  0  0  0  0
  185.9540  177.9590  144.7130 C   0  0  0  0  0  0  0  0  0  0  0  0
  187.5540  178.0340  141.2860 F   0  0  0  0  0  0  0  0  0  0  0  0
  186.9950  177.9090  143.6680 C   0  0  0  0  0  0  0  0  0  0  0  0
  186.5990  178.0800  142.2530 C   0  0  0  0  0  0  0  0  0  0  0  0
  184.5950  178.1630  144.3250 N   0  0  0  0  0  2  0  0  0  0  0  0
  183.0510  178.4870  142.6180 O   0  0  0  0  0  0  0  0  0  0  0  0
  184.9440  178.4410  140.4740 C   0  0  0  0  0  1  0  0  0  0  0  0
  191.2120  171.2400  143.9730 C   0  0  0  0  0  2  0  0  0  0  0  0
  190.6520  171.2440  142.6960 O   0  0  0  0  0  0  0  0  0  0  0  0
  191.6640  170.7550  141.8690 C   0  0  0  0  0  2  0  0  0  0  0  0
  191.2220  170.8130  140.4180 C   0  0  0  0  0  2  0  0  0  0  0  0
  191.6540  172.0070  139.8330 O   0  0  0  0  0  0  0  0  0  0  0  0
  190.6330  172.2590  138.5010 P   0  0  2  0  0  0  0  0  0  0  0  0
  189.5930  171.1590  138.4380 O   0  0  0  0  0  1  0  0  0  0  0  0
  191.5490  172.2540  137.0760 O   0  0  0  0  0  0  0  0  0  0  0  0
  189.8620  173.7590  138.6840 O   0  0  0  0  0  0  0  0  0  0  0  0
  188.6360  173.4760  139.2890 C   0  0  0  0  0  2  0  0  0  0  0  0
  188.0930  172.6400  141.9700 O   0  0  0  0  0  1  0  0  0  0  0  0
  190.1420  174.1760  141.4450 O   0  0  0  0  0  1  0  0  0  0  0  0
  188.7080  173.9150  141.0480 P   0  0  0  0  0  0  0  0  0  0  0  0
  187.7850  175.3050  141.3210 O   0  0  0  0  0  0  0  0  0  0  0  0
  1  4  1  0  0  0  0
  2  1  2  0  0  0  0
  3  8  1  0  0  0  0
  3  1  1  0  0  0  0
  4  6  2  0  0  0  0
  4 17  1  0  0  0  0
  5  6  1  0  0  0  0
  7  9  2  0  0  0  0
  7  3  1  0  0  0  0
  8  5  2  0  0  0  0
  9  2  1  0  0  0  0
 10  9  1  0  0  0  0
 10 11  2  0  0  0  0
 12 10  1  0  0  0  0
 13 16  1  1  0  0  0
 13 14  1  0  0  0  0
 13 15  1  0  0  0  0
 14 16  1  1  0  0  0
 14 15  1  0  0  0  0
 15 12  1  6  0  0  0
 17 18  2  0  0  0  0
 19 17  1  0  0  0  0
 20 19  1  0  0  0  0
 21 29  1  0  0  0  0
 22 28  2  0  0  0  0
 22 21  1  0  0  0  0
 23 20  2  0  0  0  0
 25 24  2  0  0  0  0
 26 28  1  0  0  0  0
 27 23  2  0  0  0  0
 27 25  1  0  0  0  0
 28 27  1  0  0  0  0
 29 25  1  0  0  0  0
 30 21  2  0  0  0  0
 31 22  1  0  0  0  0
 32  8  1  0  0  0  0
 33 32  1  0  0  0  0
 34 33  1  0  0  0  0
 35 34  1  0  0  0  0
 36 35  1  0  0  0  0
 37 39  2  6  0  0  0
 37 40  1  0  0  0  0
 37 36  1  0  0  0  0
 38 37  1  0  0  0  0
 40 41  1  0  0  0  0
 41 44  1  0  0  0  0
 44 45  2  0  0  0  0
 44 43  1  0  0  0  0
 44 42  1  0  0  0  0
M  END
>  <MODEL>
5

>  <REMARK>
 VINA RESULT:      -6.6      2.931      5.190
  Name = 
  13 active torsions:
  status: ('A' for Active; 'I' for Inactive)
    1  A    between atoms: C_1  and  O_22
    2  A    between atoms: C_1  and  C_41
    3  A    between atoms: C_2  and  N_37
    4  A    between atoms: C_6  and  O_16
    5  A    between atoms: C_6  and  P_36
    6  A    between atoms: O_8  and  C_9
    7  A    between atoms: O_8  and  P_12
    8  A    between atoms: C_9  and  C_19
    9  A    between atoms: C_10  and  C_42
   10  A    between atoms: P_12  and  O_16
   11  A    between atoms: N_13  and  C_30
   12  A    between atoms: C_19  and  O_22
   13  A    between atoms: C_21  and  C_26
                            x       y       z     vdW  Elec       q    Type
                         _______ _______ _______ _____ _____    ______ ____

>  <TORSDO>
F 13

$$$$
=
 OpenBabel11042414153D

 45 49  0  0  1  0  0  0  0  0999 V2000
  190.6300  174.0900  142.0720 C   0  0  0  0  0  0  0  0  0  0  0  0
  191.8350  174.0990  142.6760 N   0  0  0  0  0  0  0  0  0  0  0  0
  190.0250  175.2880  142.0960 N   0  0  0  0  0  0  0  0  0  0  0  0
  189.9970  172.9880  141.4770 C   0  0  0  0  0  0  0  0  0  0  0  0
  188.1510  174.4190  140.9560 C   0  0  0  0  0  3  0  0  0  0  0  0
  188.7630  173.1970  140.9300 N   0  0  0  0  0  0  0  0  0  0  0  0
  190.8470  176.1370  142.7330 C   0  0  0  0  0  3  0  0  0  0  0  0
  188.8010  175.5070  141.5500 C   0  0  0  0  0  0  0  0  0  0  0  0
  191.9610  175.3830  143.0840 C   0  0  0  0  0  0  0  0  0  0  0  0
  193.1320  175.8910  143.8070 C   0  0  0  0  0  0  0  0  0  0  0  0
  193.0290  176.2290  145.0170 O   0  0  0  0  0  0  0  0  0  0  0  0
  194.3870  175.9990  143.1310 N   0  0  0  0  0  2  0  0  0  0  0  0
  196.7030  175.4730  143.6000 C   0  0  2  0  0  3  0  0  0  0  0  0
  196.6840  176.7020  142.7780 C   0  0  1  0  0  3  0  0  0  0  0  0
  195.5880  176.4750  143.7990 C   0  0  1  0  0  3  0  0  0  0  0  0
  197.8890  176.1500  143.2520 O   0  0  0  0  0  0  0  0  0  0  0  0
  190.6380  171.6480  141.4070 C   0  0  0  0  0  0  0  0  0  0  0  0
  190.3530  170.7790  142.2730 O   0  0  0  0  0  0  0  0  0  0  0  0
  191.5850  171.2990  140.3880 N   0  0  0  0  0  2  0  0  0  0  0  0
  191.8950  172.1080  139.2550 C   0  0  0  0  0  3  0  0  0  0  0  0
  196.5840  174.9220  139.0570 C   0  0  0  0  0  0  0  0  0  0  0  0
  195.7000  174.8210  137.8730 C   0  0  0  0  0  0  0  0  0  0  0  0
  193.0130  172.7730  139.2160 C   0  0  0  0  0  0  0  0  0  0  0  0
  194.7030  172.9490  141.4420 O   0  0  0  0  0  0  0  0  0  0  0  0
  195.0110  173.5220  140.3620 C   0  0  0  0  0  0  0  0  0  0  0  0
  193.7510  174.0560  136.8350 F   0  0  0  0  0  0  0  0  0  0  0  0
  194.1370  173.4410  139.1760 C   0  0  0  0  0  0  0  0  0  0  0  0
  194.5520  174.1270  137.9320 C   0  0  0  0  0  0  0  0  0  0  0  0
  196.2250  174.2680  140.2770 N   0  0  0  0  0  2  0  0  0  0  0  0
  197.6550  175.5830  138.9990 O   0  0  0  0  0  0  0  0  0  0  0  0
  196.0920  175.5060  136.6050 C   0  0  0  0  0  1  0  0  0  0  0  0
  188.1380  176.8420  141.6130 C   0  0  0  0  0  2  0  0  0  0  0  0
  186.7540  176.6860  141.5470 O   0  0  0  0  0  0  0  0  0  0  0  0
  186.2430  177.8960  142.0170 C   0  0  0  0  0  2  0  0  0  0  0  0
  185.1680  177.6370  143.0570 C   0  0  0  0  0  2  0  0  0  0  0  0
  185.6090  176.6760  143.9730 O   0  0  0  0  0  0  0  0  0  0  0  0
  185.6670  177.4670  145.4730 P   0  0  2  0  0  0  0  0  0  0  0  0
  184.9730  176.6240  146.5230 O   0  0  0  0  0  1  0  0  0  0  0  0
  184.8930  178.9690  145.3510 O   0  0  0  0  0  0  0  0  0  0  0  0
  187.2910  177.6900  145.9070 O   0  0  0  0  0  0  0  0  0  0  0  0
  188.0060  176.7440  145.1710 C   0  0  0  0  0  2  0  0  0  0  0  0
  190.3300  176.6220  146.8340 O   0  0  0  0  0  1  0  0  0  0  0  0
  188.1640  175.3070  147.4760 O   0  0  0  0  0  1  0  0  0  0  0  0
  189.0040  175.7260  146.2930 P   0  0  0  0  0  0  0  0  0  0  0  0
  189.5490  174.3510  145.4730 O   0  0  0  0  0  0  0  0  0  0  0  0
  1  3  1  0  0  0  0
  1  2  2  0  0  0  0
  2  9  1  0  0  0  0
  3  7  1  0  0  0  0
  4  1  1  0  0  0  0
  5  8  2  0  0  0  0
  6  5  1  0  0  0  0
  6  4  2  0  0  0  0
  7  9  2  0  0  0  0
  8 32  1  0  0  0  0
  8  3  1  0  0  0  0
  9 10  1  0  0  0  0
 10 11  2  0  0  0  0
 12 10  1  0  0  0  0
 13 16  1  1  0  0  0
 13 15  1  0  0  0  0
 14 16  1  1  0  0  0
 14 13  1  0  0  0  0
 14 15  1  0  0  0  0
 15 12  1  6  0  0  0
 17  4  1  0  0  0  0
 17 18  2  0  0  0  0
 19 17  1  0  0  0  0
 20 19  1  0  0  0  0
 21 29  1  0  0  0  0
 22 28  2  0  0  0  0
 22 21  1  0  0  0  0
 23 20  2  0  0  0  0
 25 24  2  0  0  0  0
 26 28  1  0  0  0  0
 27 23  2  0  0  0  0
 27 25  1  0  0  0  0
 28 27  1  0  0  0  0
 29 25  1  0  0  0  0
 30 21  2  0  0  0  0
 31 22  1  0  0  0  0
 33 32  1  0  0  0  0
 33 34  1  0  0  0  0
 34 35  1  0  0  0  0
 35 36  1  0  0  0  0
 36 37  1  0  0  0  0
 37 39  2  6  0  0  0
 37 40  1  0  0  0  0
 37 38  1  0  0  0  0
 41 40  1  0  0  0  0
 41 44  1  0  0  0  0
 44 42  1  0  0  0  0
 44 43  1  0  0  0  0
 45 44  2  0  0  0  0
M  END
>  <MODEL>
6

>  <REMARK>
 VINA RESULT:      -6.6      3.048      8.041
  Name = 
  13 active torsions:
  status: ('A' for Active; 'I' for Inactive)
    1  A    between atoms: C_1  and  O_22
    2  A    between atoms: C_1  and  C_41
    3  A    between atoms: C_2  and  N_37
    4  A    between atoms: C_6  and  O_16
    5  A    between atoms: C_6  and  P_36
    6  A    between atoms: O_8  and  C_9
    7  A    between atoms: O_8  and  P_12
    8  A    between atoms: C_9  and  C_19
    9  A    between atoms: C_10  and  C_42
   10  A    between atoms: P_12  and  O_16
   11  A    between atoms: N_13  and  C_30
   12  A    between atoms: C_19  and  O_22
   13  A    between atoms: C_21  and  C_26
                            x       y       z     vdW  Elec       q    Type
                         _______ _______ _______ _____ _____    ______ ____

>  <TORSDO>
F 13

$$$$
=
 OpenBabel11042414153D

 45 49  0  0  1  0  0  0  0  0999 V2000
  191.1300  173.2530  140.7720 C   0  0  0  0  0  0  0  0  0  0  0  0
  191.7580  174.1690  140.0090 N   0  0  0  0  0  0  0  0  0  0  0  0
  191.9790  172.4060  141.3760 N   0  0  0  0  0  0  0  0  0  0  0  0
  189.7450  173.1170  140.9540 C   0  0  0  0  0  0  0  0  0  0  0  0
  190.1860  171.2450  142.3770 C   0  0  0  0  0  3  0  0  0  0  0  0
  189.3180  172.1040  141.7640 N   0  0  0  0  0  0  0  0  0  0  0  0
  193.2220  172.7620  141.0130 C   0  0  0  0  0  3  0  0  0  0  0  0
  191.5650  171.4000  142.1880 C   0  0  0  0  0  0  0  0  0  0  0  0
  193.0650  173.8540  140.1680 C   0  0  0  0  0  0  0  0  0  0  0  0
  194.1580  174.5850  139.5170 C   0  0  0  0  0  0  0  0  0  0  0  0
  194.5750  175.6670  140.0100 O   0  0  0  0  0  0  0  0  0  0  0  0
  194.7440  174.0610  138.3230 N   0  0  0  0  0  2  0  0  0  0  0  0
  196.0030  174.1450  136.2570 C   0  0  2  0  0  3  0  0  0  0  0  0
  195.3230  175.4490  136.4170 C   0  0  1  0  0  3  0  0  0  0  0  0
  195.8430  174.7280  137.6430 C   0  0  1  0  0  3  0  0  0  0  0  0
  196.1720  175.1870  135.3240 O   0  0  0  0  0  0  0  0  0  0  0  0
  188.7690  174.0440  140.3230 C   0  0  0  0  0  0  0  0  0  0  0  0
  188.4610  173.8890  139.1110 O   0  0  0  0  0  0  0  0  0  0  0  0
  188.1600  175.1270  141.0400 N   0  0  0  0  0  2  0  0  0  0  0  0
  188.2830  175.3420  142.4450 C   0  0  0  0  0  3  0  0  0  0  0  0
  184.5180  178.2540  145.1430 C   0  0  0  0  0  0  0  0  0  0  0  0
  185.5740  177.5100  145.8670 C   0  0  0  0  0  0  0  0  0  0  0  0
  187.3820  176.0350  143.0790 C   0  0  0  0  0  0  0  0  0  0  0  0
  185.3660  177.4250  141.7210 O   0  0  0  0  0  0  0  0  0  0  0  0
  185.4250  177.4580  142.9800 C   0  0  0  0  0  0  0  0  0  0  0  0
  187.4600  176.1300  145.8790 F   0  0  0  0  0  0  0  0  0  0  0  0
  186.4770  176.7310  143.7160 C   0  0  0  0  0  0  0  0  0  0  0  0
  186.4930  176.7980  145.1950 C   0  0  0  0  0  0  0  0  0  0  0  0
  184.4600  178.2100  143.7150 N   0  0  0  0  0  2  0  0  0  0  0  0
  183.6650  178.9300  145.7780 O   0  0  0  0  0  0  0  0  0  0  0  0
  185.6180  177.5620  147.3590 C   0  0  0  0  0  1  0  0  0  0  0  0
  192.5270  170.4560  142.8270 C   0  0  0  0  0  2  0  0  0  0  0  0
  192.4920  170.6100  144.2120 O   0  0  0  0  0  0  0  0  0  0  0  0
  193.6680  171.2960  144.5160 C   0  0  0  0  0  2  0  0  0  0  0  0
  193.3390  172.6780  145.0520 C   0  0  0  0  0  2  0  0  0  0  0  0
  193.9820  173.6550  144.2860 O   0  0  0  0  0  0  0  0  0  0  0  0
  194.3720  174.9020  145.3690 P   0  0  2  0  0  0  0  0  0  0  0  0
  194.3060  176.2380  144.6570 O   0  0  0  0  0  0  0  0  0  0  0  0
  195.9370  174.6590  145.9720 O   0  0  0  0  0  1  0  0  0  0  0  0
  193.2540  174.8830  146.6440 O   0  0  0  0  0  0  0  0  0  0  0  0
  192.6570  176.1450  146.6350 C   0  0  0  0  0  2  0  0  0  0  0  0
  190.1230  175.2550  147.6180 O   0  0  0  0  0  1  0  0  0  0  0  0
  190.2840  177.3420  146.0510 O   0  0  0  0  0  1  0  0  0  0  0  0
  190.8830  175.9770  146.2930 P   0  0  0  0  0  0  0  0  0  0  0  0
  190.6620  175.0120  144.9220 O   0  0  0  0  0  0  0  0  0  0  0  0
  1  4  1  0  0  0  0
  1  3  1  0  0  0  0
  2  9  1  0  0  0  0
  2  1  2  0  0  0  0
  3  8  1  0  0  0  0
  4  6  2  0  0  0  0
  6  5  1  0  0  0  0
  7  3  1  0  0  0  0
  8  5  2  0  0  0  0
  8 32  1  0  0  0  0
  9  7  2  0  0  0  0
 10 11  2  0  0  0  0
 10  9  1  0  0  0  0
 12 10  1  0  0  0  0
 13 16  1  6  0  0  0
 13 14  1  0  0  0  0
 13 15  1  0  0  0  0
 14 16  1  6  0  0  0
 14 15  1  0  0  0  0
 15 12  1  1  0  0  0
 17  4  1  0  0  0  0
 17 19  1  0  0  0  0
 18 17  2  0  0  0  0
 19 20  1  0  0  0  0
 20 23  2  0  0  0  0
 21 30  2  0  0  0  0
 21 22  1  0  0  0  0
 22 31  1  0  0  0  0
 23 27  2  0  0  0  0
 24 25  2  0  0  0  0
 25 29  1  0  0  0  0
 25 27  1  0  0  0  0
 27 28  1  0  0  0  0
 28 22  2  0  0  0  0
 28 26  1  0  0  0  0
 29 21  1  0  0  0  0
 32 33  1  0  0  0  0
 33 34  1  0  0  0  0
 34 35  1  0  0  0  0
 36 35  1  0  0  0  0
 36 37  1  0  0  0  0
 37 38  2  6  0  0  0
 37 39  1  0  0  0  0
 37 40  1  0  0  0  0
 41 40  1  0  0  0  0
 43 44  1  0  0  0  0
 44 41  1  0  0  0  0
 44 42  1  0  0  0  0
 45 44  2  0  0  0  0
M  END
>  <MODEL>
7

>  <REMARK>
 VINA RESULT:      -6.6      1.333      1.623
  Name = 
  13 active torsions:
  status: ('A' for Active; 'I' for Inactive)
    1  A    between atoms: C_1  and  O_22
    2  A    between atoms: C_1  and  C_41
    3  A    between atoms: C_2  and  N_37
    4  A    between atoms: C_6  and  O_16
    5  A    between atoms: C_6  and  P_36
    6  A    between atoms: O_8  and  C_9
    7  A    between atoms: O_8  and  P_12
    8  A    between atoms: C_9  and  C_19
    9  A    between atoms: C_10  and  C_42
   10  A    between atoms: P_12  and  O_16
   11  A    between atoms: N_13  and  C_30
   12  A    between atoms: C_19  and  O_22
   13  A    between atoms: C_21  and  C_26
                            x       y       z     vdW  Elec       q    Type
                         _______ _______ _______ _____ _____    ______ ____

>  <TORSDO>
F 13

$$$$
=
 OpenBabel11042414153D

 45 49  0  0  1  0  0  0  0  0999 V2000
  188.9560  175.3440  141.8910 C   0  0  0  0  0  0  0  0  0  0  0  0
  187.7010  175.7900  141.6840 N   0  0  0  0  0  0  0  0  0  0  0  0
  189.7950  176.3120  142.2920 N   0  0  0  0  0  0  0  0  0  0  0  0
  189.4210  174.0330  141.7120 C   0  0  0  0  0  0  0  0  0  0  0  0
  191.5930  174.7880  142.3760 C   0  0  0  0  0  3  0  0  0  0  0  0
  190.7430  173.7990  141.9670 N   0  0  0  0  0  0  0  0  0  0  0  0
  189.0850  177.4510  142.3630 C   0  0  0  0  0  3  0  0  0  0  0  0
  191.1080  176.0890  142.5540 C   0  0  0  0  0  0  0  0  0  0  0  0
  187.7930  177.1070  141.9830 C   0  0  0  0  0  0  0  0  0  0  0  0
  186.6600  178.0350  141.9040 C   0  0  0  0  0  0  0  0  0  0  0  0
  186.6210  179.0490  142.6520 O   0  0  0  0  0  0  0  0  0  0  0  0
  185.6020  177.7820  140.9770 N   0  0  0  0  0  2  0  0  0  0  0  0
  183.2540  177.8800  140.3950 C   0  0  2  0  0  3  0  0  0  0  0  0
  183.3770  178.2740  141.8150 C   0  0  1  0  0  3  0  0  0  0  0  0
  184.4630  178.6740  140.8370 C   0  0  1  0  0  3  0  0  0  0  0  0
  182.1330  178.2640  141.1570 O   0  0  0  0  0  0  0  0  0  0  0  0
  188.5250  172.9240  141.2900 C   0  0  0  0  0  0  0  0  0  0  0  0
  188.0800  172.1240  142.1560 O   0  0  0  0  0  0  0  0  0  0  0  0
  188.1460  172.7170  139.9230 N   0  0  0  0  0  2  0  0  0  0  0  0
  188.4350  173.6160  138.8540 C   0  0  0  0  0  3  0  0  0  0  0  0
  193.2450  173.3730  136.2550 C   0  0  0  0  0  0  0  0  0  0  0  0
  192.1440  174.2280  135.7530 C   0  0  0  0  0  0  0  0  0  0  0  0
  189.5820  173.5510  138.2410 C   0  0  0  0  0  0  0  0  0  0  0  0
  191.6600  171.9180  139.1680 O   0  0  0  0  0  0  0  0  0  0  0  0
  191.8150  172.6190  138.1320 C   0  0  0  0  0  0  0  0  0  0  0  0
  189.9750  175.0800  135.9250 F   0  0  0  0  0  0  0  0  0  0  0  0
  190.7330  173.4850  137.6240 C   0  0  0  0  0  0  0  0  0  0  0  0
  190.9680  174.2800  136.3980 C   0  0  0  0  0  0  0  0  0  0  0  0
  193.0580  172.5830  137.4310 N   0  0  0  0  0  2  0  0  0  0  0  0
  194.3500  173.3380  135.6520 O   0  0  0  0  0  0  0  0  0  0  0  0
  192.3540  175.0450  134.5200 C   0  0  0  0  0  1  0  0  0  0  0  0
  192.0260  177.1870  142.9740 C   0  0  0  0  0  2  0  0  0  0  0  0
  191.7740  177.5330  144.3010 O   0  0  0  0  0  0  0  0  0  0  0  0
  192.6090  176.6970  145.0430 C   0  0  0  0  0  2  0  0  0  0  0  0
  191.8340  176.0770  146.1920 C   0  0  0  0  0  2  0  0  0  0  0  0
  190.7570  175.3340  145.6990 O   0  0  0  0  0  0  0  0  0  0  0  0
  189.4050  175.8390  146.5910 P   0  0  2  0  0  0  0  0  0  0  0  0
  189.7570  177.0700  147.4010 O   0  0  0  0  0  0  0  0  0  0  0  0
  188.9180  174.5950  147.6330 O   0  0  0  0  0  1  0  0  0  0  0  0
  188.1500  176.2100  145.5120 O   0  0  0  0  0  0  0  0  0  0  0  0
  187.8750  177.5640  145.7130 C   0  0  0  0  0  2  0  0  0  0  0  0
  186.2500  177.8090  148.0540 O   0  0  0  0  0  1  0  0  0  0  0  0
  185.5880  179.0330  145.8420 O   0  0  0  0  0  0  0  0  0  0  0  0
  186.1930  177.7530  146.3670 P   0  0  0  0  0  0  0  0  0  0  0  0
  185.2470  176.4390  145.8780 O   0  0  0  0  0  1  0  0  0  0  0  0
  1  3  1  0  0  0  0
  2  1  2  0  0  0  0
  2  9  1  0  0  0  0
  3  7  1  0  0  0  0
  3  8  1  0  0  0  0
  4  1  1  0  0  0  0
  4  6  2  0  0  0  0
  5  8  2  0  0  0  0
  6  5  1  0  0  0  0
  8 32  1  0  0  0  0
  9  7  2  0  0  0  0
 10  9  1  0  0  0  0
 10 11  2  0  0  0  0
 12 10  1  0  0  0  0
 13 15  1  0  0  0  0
 13 16  1  6  0  0  0
 13 14  1  0  0  0  0
 14 16  1  6  0  0  0
 15 12  1  1  0  0  0
 15 14  1  0  0  0  0
 17  4  1  0  0  0  0
 17 18  2  0  0  0  0
 19 17  1  0  0  0  0
 20 19  1  0  0  0  0
 21 29  1  0  0  0  0
 22 21  1  0  0  0  0
 22 28  2  0  0  0  0
 23 20  2  0  0  0  0
 25 24  2  0  0  0  0
 26 28  1  0  0  0  0
 27 25  1  0  0  0  0
 27 23  2  0  0  0  0
 28 27  1  0  0  0  0
 29 25  1  0  0  0  0
 30 21  2  0  0  0  0
 31 22  1  0  0  0  0
 32 33  1  0  0  0  0
 33 34  1  0  0  0  0
 34 35  1  0  0  0  0
 36 35  1  0  0  0  0
 36 37  1  0  0  0  0
 37 38  2  1  0  0  0
 37 39  1  0  0  0  0
 40 41  1  0  0  0  0
 40 37  1  0  0  0  0
 41 44  1  0  0  0  0
 43 44  2  0  0  0  0
 44 42  1  0  0  0  0
 45 44  1  0  0  0  0
M  END
>  <MODEL>
8

>  <REMARK>
 VINA RESULT:      -6.6      3.423      8.414
  Name = 
  13 active torsions:
  status: ('A' for Active; 'I' for Inactive)
    1  A    between atoms: C_1  and  O_22
    2  A    between atoms: C_1  and  C_41
    3  A    between atoms: C_2  and  N_37
    4  A    between atoms: C_6  and  O_16
    5  A    between atoms: C_6  and  P_36
    6  A    between atoms: O_8  and  C_9
    7  A    between atoms: O_8  and  P_12
    8  A    between atoms: C_9  and  C_19
    9  A    between atoms: C_10  and  C_42
   10  A    between atoms: P_12  and  O_16
   11  A    between atoms: N_13  and  C_30
   12  A    between atoms: C_19  and  O_22
   13  A    between atoms: C_21  and  C_26
                            x       y       z     vdW  Elec       q    Type
                         _______ _______ _______ _____ _____    ______ ____

>  <TORSDO>
F 13

$$$$
=
 OpenBabel11042414153D

 45 49  0  0  1  0  0  0  0  0999 V2000
  191.9410  174.7470  145.0430 C   0  0  0  0  0  0  0  0  0  0  0  0
  193.0390  175.5130  144.8900 N   0  0  0  0  0  0  0  0  0  0  0  0
  192.0500  173.5510  144.4420 N   0  0  0  0  0  0  0  0  0  0  0  0
  190.7640  175.0930  145.7240 C   0  0  0  0  0  0  0  0  0  0  0  0
  189.8750  172.9510  145.1320 C   0  0  0  0  0  3  0  0  0  0  0  0
  189.7600  174.1670  145.7450 N   0  0  0  0  0  0  0  0  0  0  0  0
  193.2620  173.5040  143.8660 C   0  0  0  0  0  3  0  0  0  0  0  0
  191.0600  172.6220  144.4630 C   0  0  0  0  0  0  0  0  0  0  0  0
  193.8590  174.7260  144.1550 C   0  0  0  0  0  0  0  0  0  0  0  0
  195.2010  175.1340  143.7250 C   0  0  0  0  0  0  0  0  0  0  0  0
  196.0060  175.6330  144.5570 O   0  0  0  0  0  0  0  0  0  0  0  0
  195.5880  174.9630  142.3590 N   0  0  0  0  0  2  0  0  0  0  0  0
  197.1990  174.5830  140.5930 C   0  0  2  0  0  3  0  0  0  0  0  0
  196.7910  176.0030  140.5250 C   0  0  1  0  0  3  0  0  0  0  0  0
  196.9090  175.3290  141.8760 C   0  0  1  0  0  3  0  0  0  0  0  0
  197.7540  175.4680  139.6480 O   0  0  0  0  0  0  0  0  0  0  0  0
  190.6060  176.3960  146.4230 C   0  0  0  0  0  0  0  0  0  0  0  0
  191.0080  176.5140  147.6110 O   0  0  0  0  0  0  0  0  0  0  0  0
  190.0020  177.5370  145.7990 N   0  0  0  0  0  2  0  0  0  0  0  0
  189.6400  177.6130  144.4220 C   0  0  0  0  0  3  0  0  0  0  0  0
  184.3970  178.1880  142.9620 C   0  0  0  0  0  0  0  0  0  0  0  0
  185.4870  178.3020  141.9660 C   0  0  0  0  0  0  0  0  0  0  0  0
  188.3900  177.7510  144.0840 C   0  0  0  0  0  0  0  0  0  0  0  0
  186.3240  177.5620  145.9640 O   0  0  0  0  0  0  0  0  0  0  0  0
  186.0620  177.7840  144.7510 C   0  0  0  0  0  0  0  0  0  0  0  0
  187.7540  178.2590  141.4010 F   0  0  0  0  0  0  0  0  0  0  0  0
  187.1350  177.8900  143.7430 C   0  0  0  0  0  0  0  0  0  0  0  0
  186.7700  178.1600  142.3350 C   0  0  0  0  0  0  0  0  0  0  0  0
  184.7050  177.9360  144.3350 N   0  0  0  0  0  2  0  0  0  0  0  0
  183.1940  178.3110  142.6080 O   0  0  0  0  0  0  0  0  0  0  0  0
  185.1490  178.5710  140.5360 C   0  0  0  0  0  1  0  0  0  0  0  0
  191.1960  171.3110  143.7640 C   0  0  0  0  0  2  0  0  0  0  0  0
  190.3300  171.2660  142.6730 O   0  0  0  0  0  0  0  0  0  0  0  0
  190.9980  170.4840  141.7300 C   0  0  0  0  0  2  0  0  0  0  0  0
  190.9240  171.1430  140.3640 C   0  0  0  0  0  2  0  0  0  0  0  0
  191.3630  172.4680  140.4470 O   0  0  0  0  0  0  0  0  0  0  0  0
  192.5510  172.6330  139.2470 P   0  0  2  0  0  0  0  0  0  0  0  0
  193.5180  171.4700  139.3210 O   0  0  0  0  0  0  0  0  0  0  0  0
  193.3920  174.0850  139.4800 O   0  0  0  0  0  1  0  0  0  0  0  0
  191.7920  172.6440  137.7300 O   0  0  0  0  0  0  0  0  0  0  0  0
  191.0530  173.8280  137.6920 C   0  0  0  0  0  2  0  0  0  0  0  0
  189.3670  172.0510  136.2160 O   0  0  0  0  0  1  0  0  0  0  0  0
  188.4550  173.3110  138.3160 O   0  0  0  0  0  1  0  0  0  0  0  0
  189.3670  173.4760  137.1230 P   0  0  0  0  0  0  0  0  0  0  0  0
  188.8160  174.7550  136.1640 O   0  0  0  0  0  0  0  0  0  0  0  0
  1  4  1  0  0  0  0
  2  1  2  0  0  0  0
  3  8  1  0  0  0  0
  3  1  1  0  0  0  0
  4  6  2  0  0  0  0
  4 17  1  0  0  0  0
  5  6  1  0  0  0  0
  7  9  2  0  0  0  0
  7  3  1  0  0  0  0
  8  5  2  0  0  0  0
  9  2  1  0  0  0  0
 10  9  1  0  0  0  0
 10 11  2  0  0  0  0
 12 10  1  0  0  0  0
 13 16  1  1  0  0  0
 13 15  1  0  0  0  0
 14 16  1  1  0  0  0
 14 13  1  0  0  0  0
 14 15  1  0  0  0  0
 15 12  1  6  0  0  0
 17 18  2  0  0  0  0
 19 17  1  0  0  0  0
 20 19  1  0  0  0  0
 21 29  1  0  0  0  0
 22 28  2  0  0  0  0
 22 21  1  0  0  0  0
 23 20  2  0  0  0  0
 25 24  2  0  0  0  0
 26 28  1  0  0  0  0
 27 23  2  0  0  0  0
 27 25  1  0  0  0  0
 28 27  1  0  0  0  0
 29 25  1  0  0  0  0
 30 21  2  0  0  0  0
 31 22  1  0  0  0  0
 32  8  1  0  0  0  0
 33 32  1  0  0  0  0
 34 33  1  0  0  0  0
 35 36  1  0  0  0  0
 35 34  1  0  0  0  0
 37 38  2  1  0  0  0
 37 39  1  0  0  0  0
 37 36  1  0  0  0  0
 40 37  1  0  0  0  0
 41 40  1  0  0  0  0
 42 44  1  0  0  0  0
 44 41  1  0  0  0  0
 44 43  1  0  0  0  0
 45 44  2  0  0  0  0
M  END
>  <MODEL>
9

>  <REMARK>
 VINA RESULT:      -6.4      3.226      5.624
  Name = 
  13 active torsions:
  status: ('A' for Active; 'I' for Inactive)
    1  A    between atoms: C_1  and  O_22
    2  A    between atoms: C_1  and  C_41
    3  A    between atoms: C_2  and  N_37
    4  A    between atoms: C_6  and  O_16
    5  A    between atoms: C_6  and  P_36
    6  A    between atoms: O_8  and  C_9
    7  A    between atoms: O_8  and  P_12
    8  A    between atoms: C_9  and  C_19
    9  A    between atoms: C_10  and  C_42
   10  A    between atoms: P_12  and  O_16
   11  A    between atoms: N_13  and  C_30
   12  A    between atoms: C_19  and  O_22
   13  A    between atoms: C_21  and  C_26
                            x       y       z     vdW  Elec       q    Type
                         _______ _______ _______ _____ _____    ______ ____

>  <TORSDO>
F 13

$$$$
