=
 OpenBabel11042413513D

 25 27  0  0  1  0  0  0  0  0999 V2000
  184.6690  178.2680  145.6080 C   0  0  0  0  0  3  0  0  0  0  0  0
  185.6070  178.0290  144.5950 C   0  0  0  0  0  0  0  0  0  0  0  0
  185.3650  178.0210  140.9630 C   0  0  0  0  0  0  0  0  0  0  0  0
  188.0130  177.5120  143.8660 C   0  0  2  0  0  3  0  0  0  0  0  0
  186.0810  177.9050  142.2090 C   0  0  0  0  0  0  0  0  0  0  0  0
  185.2000  178.0340  143.1820 C   0  0  0  0  0  0  0  0  0  0  0  0
  186.4150  178.0900  147.2750 C   0  0  0  0  0  3  0  0  0  0  0  0
  184.1650  178.5260  147.9210 F   0  0  0  0  0  0  0  0  0  0  0  0
  184.0200  178.2220  141.2180 O   0  0  0  0  0  0  0  0  0  0  0  0
  185.8650  177.9560  139.8090 O   0  0  0  0  0  0  0  0  0  0  0  0
  188.3310  177.7130  141.4940 O   0  0  0  0  0  0  0  0  0  0  0  0
  185.0740  178.2950  146.9440 C   0  0  0  0  0  0  0  0  0  0  0  0
  183.8150  178.2490  142.6320 C   0  0  0  0  0  2  0  0  0  0  0  0
  186.9660  177.8150  144.9260 C   0  0  0  0  0  0  0  0  0  0  0  0
  187.5160  177.7210  142.4530 C   0  0  0  0  0  0  0  0  0  0  0  0
  187.3570  177.8500  146.2710 C   0  0  0  0  0  3  0  0  0  0  0  0
  188.4620  176.1980  144.0100 O   0  0  0  0  0  0  0  0  0  0  0  0
  189.8080  176.2340  143.6390 C   0  0  0  0  0  2  0  0  0  0  0  0
  190.5170  177.3520  144.3780 C   0  0  2  0  0  3  0  0  0  0  0  0
  191.3660  178.0880  143.4560 N   0  0  0  0  0  1  0  0  0  0  0  0
  191.3660  176.7570  145.4890 C   0  0  0  0  0  2  0  0  0  0  0  0
  190.6360  176.7190  146.7100 O   0  0  0  0  0  0  0  0  0  0  0  0
  189.2430  174.7380  147.1130 N   0  0  0  0  0  1  0  0  0  0  0  0
  191.2050  175.1480  148.2810 O   0  0  0  0  0  0  0  0  0  0  0  0
  190.3930  175.5290  147.4000 C   0  0  0  0  0  0  0  0  0  0  0  0
  1 12  1  0  0  0  0
  2 14  1  0  0  0  0
  2  1  2  0  0  0  0
  3  9  1  0  0  0  0
  3  5  1  0  0  0  0
  4 17  1  6  0  0  0
  4 14  1  0  0  0  0
  5 15  1  0  0  0  0
  5  6  2  0  0  0  0
  6  2  1  0  0  0  0
  9 13  1  0  0  0  0
 10  3  2  0  0  0  0
 11 15  2  0  0  0  0
 12  7  2  0  0  0  0
 12  8  1  0  0  0  0
 13  6  1  0  0  0  0
 14 16  2  0  0  0  0
 15  4  1  0  0  0  0
 16  7  1  0  0  0  0
 18 17  1  0  0  0  0
 18 19  1  0  0  0  0
 19 20  1  6  0  0  0
 19 21  1  0  0  0  0
 21 22  1  0  0  0  0
 22 25  1  0  0  0  0
 23 25  1  0  0  0  0
 25 24  2  0  0  0  0
M  END
>  <MODEL>
1

>  <REMARK>
 VINA RESULT:      -7.1      0.000      0.000
  Name = 
  6 active torsions:
  status: ('A' for Active; 'I' for Inactive)
    1  A    between atoms: C_2  and  C_21
    2  A    between atoms: C_2  and  C_25
    3  A    between atoms: C_5  and  O_18
    4  A    between atoms: O_7  and  C_17
    5  A    between atoms: O_7  and  C_21
    6  A    between atoms: O_18  and  C_25
                            x       y       z     vdW  Elec       q    Type
                         _______ _______ _______ _____ _____    ______ ____

>  <TORSDO>
F 6

$$$$
=
 OpenBabel11042413513D

 25 27  0  0  1  0  0  0  0  0999 V2000
  184.7650  178.1880  145.6490 C   0  0  0  0  0  3  0  0  0  0  0  0
  185.7480  177.9310  144.6840 C   0  0  0  0  0  0  0  0  0  0  0  0
  185.6870  177.9170  141.0450 C   0  0  0  0  0  0  0  0  0  0  0  0
  188.1790  177.3780  144.0770 C   0  0  2  0  0  3  0  0  0  0  0  0
  186.3380  177.7930  142.3250 C   0  0  0  0  0  0  0  0  0  0  0  0
  185.4120  177.9380  143.2530 C   0  0  0  0  0  0  0  0  0  0  0  0
  186.4240  177.9890  147.4010 C   0  0  0  0  0  3  0  0  0  0  0  0
  184.1500  178.4610  147.9340 F   0  0  0  0  0  0  0  0  0  0  0  0
  184.3340  178.1380  141.2330 O   0  0  0  0  0  0  0  0  0  0  0  0
  186.2420  177.8400  139.9170 O   0  0  0  0  0  0  0  0  0  0  0  0
  188.6180  177.5660  141.7230 O   0  0  0  0  0  0  0  0  0  0  0  0
  185.1030  178.2130  147.0040 C   0  0  0  0  0  0  0  0  0  0  0  0
  184.0590  178.1720  142.6350 C   0  0  0  0  0  2  0  0  0  0  0  0
  187.0860  177.6990  145.0830 C   0  0  0  0  0  0  0  0  0  0  0  0
  187.7570  177.5890  142.6410 C   0  0  0  0  0  0  0  0  0  0  0  0
  187.4100  177.7320  146.4450 C   0  0  0  0  0  3  0  0  0  0  0  0
  188.6010  176.0570  144.2470 O   0  0  0  0  0  0  0  0  0  0  0  0
  189.9920  176.1340  144.3600 C   0  0  0  0  0  2  0  0  0  0  0  0
  190.4540  175.3500  145.5740 C   0  0  2  0  0  3  0  0  0  0  0  0
  189.3180  174.6820  146.1870 N   0  0  0  0  0  1  0  0  0  0  0  0
  191.0870  176.3040  146.5730 C   0  0  0  0  0  2  0  0  0  0  0  0
  192.2870  175.7500  147.1020 O   0  0  0  0  0  0  0  0  0  0  0  0
  194.1330  175.1030  145.6180 N   0  0  0  0  0  1  0  0  0  0  0  0
  194.1510  177.0640  146.8580 O   0  0  0  0  0  0  0  0  0  0  0  0
  193.5400  176.0100  146.5440 C   0  0  0  0  0  0  0  0  0  0  0  0
  1 12  1  0  0  0  0
  2 14  1  0  0  0  0
  2  1  2  0  0  0  0
  3  9  1  0  0  0  0
  3  5  1  0  0  0  0
  4 17  1  6  0  0  0
  4 14  1  0  0  0  0
  5 15  1  0  0  0  0
  5  6  2  0  0  0  0
  6  2  1  0  0  0  0
  9 13  1  0  0  0  0
 10  3  2  0  0  0  0
 11 15  2  0  0  0  0
 12  7  2  0  0  0  0
 12  8  1  0  0  0  0
 13  6  1  0  0  0  0
 14 16  2  0  0  0  0
 15  4  1  0  0  0  0
 16  7  1  0  0  0  0
 17 18  1  0  0  0  0
 18 19  1  0  0  0  0
 19 20  1  1  0  0  0
 19 21  1  0  0  0  0
 21 22  1  0  0  0  0
 23 25  1  0  0  0  0
 25 24  2  0  0  0  0
 25 22  1  0  0  0  0
M  END
>  <MODEL>
2

>  <REMARK>
 VINA RESULT:      -6.9      1.415      1.869
  Name = 
  6 active torsions:
  status: ('A' for Active; 'I' for Inactive)
    1  A    between atoms: C_2  and  C_21
    2  A    between atoms: C_2  and  C_25
    3  A    between atoms: C_5  and  O_18
    4  A    between atoms: O_7  and  C_17
    5  A    between atoms: O_7  and  C_21
    6  A    between atoms: O_18  and  C_25
                            x       y       z     vdW  Elec       q    Type
                         _______ _______ _______ _____ _____    ______ ____

>  <TORSDO>
F 6

$$$$
=
 OpenBabel11042413513D

 25 27  0  0  1  0  0  0  0  0999 V2000
  184.7700  178.1860  145.6520 C   0  0  0  0  0  3  0  0  0  0  0  0
  185.7760  177.9690  144.7020 C   0  0  0  0  0  0  0  0  0  0  0  0
  185.7640  177.9330  141.0620 C   0  0  0  0  0  0  0  0  0  0  0  0
  188.2370  177.5210  144.1300 C   0  0  2  0  0  3  0  0  0  0  0  0
  186.4030  177.8450  142.3520 C   0  0  0  0  0  0  0  0  0  0  0  0
  185.4580  177.9540  143.2670 C   0  0  0  0  0  0  0  0  0  0  0  0
  186.4110  178.0710  147.4270 C   0  0  0  0  0  3  0  0  0  0  0  0
  184.1120  178.4430  147.9270 F   0  0  0  0  0  0  0  0  0  0  0  0
  184.4000  178.0950  141.2310 O   0  0  0  0  0  0  0  0  0  0  0  0
  186.3370  177.8760  139.9420 O   0  0  0  0  0  0  0  0  0  0  0  0
  188.6980  177.7170  141.7810 O   0  0  0  0  0  0  0  0  0  0  0  0
  185.0880  178.2330  147.0110 C   0  0  0  0  0  0  0  0  0  0  0  0
  184.1050  178.1240  142.6290 C   0  0  0  0  0  2  0  0  0  0  0  0
  187.1170  177.7980  145.1200 C   0  0  0  0  0  0  0  0  0  0  0  0
  187.8250  177.7070  142.6870 C   0  0  0  0  0  0  0  0  0  0  0  0
  187.4210  177.8530  146.4860 C   0  0  0  0  0  3  0  0  0  0  0  0
  188.7150  176.2220  144.3120 O   0  0  0  0  0  0  0  0  0  0  0  0
  190.0760  176.3730  144.5870 C   0  0  0  0  0  2  0  0  0  0  0  0
  190.8810  175.3850  143.7650 C   0  0  2  0  0  3  0  0  0  0  0  0
  191.5680  176.0840  142.6930 N   0  0  0  0  0  1  0  0  0  0  0  0
  189.9430  174.3430  143.1780 C   0  0  0  0  0  2  0  0  0  0  0  0
  189.8180  174.5200  141.7710 O   0  0  0  0  0  0  0  0  0  0  0  0
  187.9430  172.9730  141.4190 N   0  0  0  0  0  1  0  0  0  0  0  0
  188.2620  174.8710  140.1230 O   0  0  0  0  0  0  0  0  0  0  0  0
  188.6670  174.1500  141.0710 C   0  0  0  0  0  0  0  0  0  0  0  0
  1 12  1  0  0  0  0
  2 14  1  0  0  0  0
  2  1  2  0  0  0  0
  3  9  1  0  0  0  0
  3  5  1  0  0  0  0
  4 17  1  6  0  0  0
  4 14  1  0  0  0  0
  5 15  1  0  0  0  0
  5  6  2  0  0  0  0
  6  2  1  0  0  0  0
  9 13  1  0  0  0  0
 10  3  2  0  0  0  0
 11 15  2  0  0  0  0
 12  7  2  0  0  0  0
 12  8  1  0  0  0  0
 13  6  1  0  0  0  0
 14 16  2  0  0  0  0
 15  4  1  0  0  0  0
 16  7  1  0  0  0  0
 17 18  1  0  0  0  0
 19 20  1  6  0  0  0
 19 18  1  0  0  0  0
 21 19  1  0  0  0  0
 22 21  1  0  0  0  0
 24 25  2  0  0  0  0
 25 23  1  0  0  0  0
 25 22  1  0  0  0  0
M  END
>  <MODEL>
3

>  <REMARK>
 VINA RESULT:      -6.9      1.813      2.914
  Name = 
  6 active torsions:
  status: ('A' for Active; 'I' for Inactive)
    1  A    between atoms: C_2  and  C_21
    2  A    between atoms: C_2  and  C_25
    3  A    between atoms: C_5  and  O_18
    4  A    between atoms: O_7  and  C_17
    5  A    between atoms: O_7  and  C_21
    6  A    between atoms: O_18  and  C_25
                            x       y       z     vdW  Elec       q    Type
                         _______ _______ _______ _____ _____    ______ ____

>  <TORSDO>
F 6

$$$$
=
 OpenBabel11042413513D

 25 27  0  0  1  0  0  0  0  0999 V2000
  184.6580  178.4130  142.4440 C   0  0  0  0  0  3  0  0  0  0  0  0
  185.5550  177.8870  143.3830 C   0  0  0  0  0  0  0  0  0  0  0  0
  185.4810  177.6770  147.0160 C   0  0  0  0  0  0  0  0  0  0  0  0
  187.7400  176.6550  143.9260 C   0  0  2  0  0  3  0  0  0  0  0  0
  186.0650  177.4320  145.7210 C   0  0  0  0  0  0  0  0  0  0  0  0
  185.2830  178.0010  144.8230 C   0  0  0  0  0  0  0  0  0  0  0  0
  186.0520  177.5940  140.6430 C   0  0  0  0  0  3  0  0  0  0  0  0
  184.0390  178.7780  140.1730 F   0  0  0  0  0  0  0  0  0  0  0  0
  184.3210  178.4170  146.8690 O   0  0  0  0  0  0  0  0  0  0  0  0
  185.9370  177.2880  148.1230 O   0  0  0  0  0  0  0  0  0  0  0  0
  187.9200  176.0550  146.2440 O   0  0  0  0  0  0  0  0  0  0  0  0
  184.9090  178.2680  141.0780 C   0  0  0  0  0  0  0  0  0  0  0  0
  184.1070  178.6740  145.4800 C   0  0  0  0  0  2  0  0  0  0  0  0
  186.7170  177.2080  142.9460 C   0  0  0  0  0  0  0  0  0  0  0  0
  187.2680  176.6720  145.3620 C   0  0  0  0  0  0  0  0  0  0  0  0
  186.9520  177.0670  141.5730 C   0  0  0  0  0  3  0  0  0  0  0  0
  188.9300  177.3770  143.8200 O   0  0  0  0  0  0  0  0  0  0  0  0
  189.8810  176.4450  143.3960 C   0  0  0  0  0  2  0  0  0  0  0  0
  191.2240  176.7550  144.0290 C   0  0  2  0  0  3  0  0  0  0  0  0
  192.2940  176.3420  143.1360 N   0  0  0  0  0  1  0  0  0  0  0  0
  191.3410  176.0070  145.3460 C   0  0  0  0  0  2  0  0  0  0  0  0
  191.0490  176.8700  146.4390 O   0  0  0  0  0  0  0  0  0  0  0  0
  191.5340  177.4390  148.7780 N   0  0  0  0  0  1  0  0  0  0  0  0
  191.1130  175.2680  148.0790 O   0  0  0  0  0  0  0  0  0  0  0  0
  191.2290  176.4810  147.7690 C   0  0  0  0  0  0  0  0  0  0  0  0
  1  2  1  0  0  0  0
  2  6  1  0  0  0  0
  3 10  2  0  0  0  0
  4 17  1  1  0  0  0
  4 15  1  0  0  0  0
  5  3  1  0  0  0  0
  6 13  1  0  0  0  0
  6  5  2  0  0  0  0
  7 12  1  0  0  0  0
  7 16  2  0  0  0  0
  8 12  1  0  0  0  0
  9  3  1  0  0  0  0
 12  1  2  0  0  0  0
 13  9  1  0  0  0  0
 14  2  2  0  0  0  0
 14  4  1  0  0  0  0
 15  5  1  0  0  0  0
 15 11  2  0  0  0  0
 16 14  1  0  0  0  0
 18 17  1  0  0  0  0
 18 19  1  0  0  0  0
 19 20  1  6  0  0  0
 19 21  1  0  0  0  0
 21 22  1  0  0  0  0
 22 25  1  0  0  0  0
 25 24  2  0  0  0  0
 25 23  1  0  0  0  0
M  END
>  <MODEL>
4

>  <REMARK>
 VINA RESULT:      -6.8      2.520      4.002
  Name = 
  6 active torsions:
  status: ('A' for Active; 'I' for Inactive)
    1  A    between atoms: C_2  and  C_21
    2  A    between atoms: C_2  and  C_25
    3  A    between atoms: C_5  and  O_18
    4  A    between atoms: O_7  and  C_17
    5  A    between atoms: O_7  and  C_21
    6  A    between atoms: O_18  and  C_25
                            x       y       z     vdW  Elec       q    Type
                         _______ _______ _______ _____ _____    ______ ____

>  <TORSDO>
F 6

$$$$
=
 OpenBabel11042413513D

 25 27  0  0  1  0  0  0  0  0999 V2000
  188.1170  176.0150  146.8970 C   0  0  0  0  0  3  0  0  0  0  0  0
  187.6450  176.5930  145.7120 C   0  0  0  0  0  0  0  0  0  0  0  0
  185.0690  179.0740  145.0330 C   0  0  0  0  0  0  0  0  0  0  0  0
  187.7690  176.8590  143.1620 C   0  0  2  0  0  3  0  0  0  0  0  0
  186.1270  178.1720  144.6480 C   0  0  0  0  0  0  0  0  0  0  0  0
  186.5250  177.5460  145.7380 C   0  0  0  0  0  0  0  0  0  0  0  0
  189.8260  174.8390  145.6510 C   0  0  0  0  0  3  0  0  0  0  0  0
  189.6570  174.5810  148.0130 F   0  0  0  0  0  0  0  0  0  0  0  0
  184.8420  178.9670  146.3930 O   0  0  0  0  0  0  0  0  0  0  0  0
  184.4370  179.8490  144.2680 O   0  0  0  0  0  0  0  0  0  0  0  0
  186.4010  178.6550  142.3450 O   0  0  0  0  0  0  0  0  0  0  0  0
  189.2030  175.1380  146.8650 C   0  0  0  0  0  0  0  0  0  0  0  0
  185.7420  178.0010  146.9400 C   0  0  0  0  0  2  0  0  0  0  0  0
  188.2700  176.2880  144.4800 C   0  0  0  0  0  0  0  0  0  0  0  0
  186.7410  177.9530  143.3330 C   0  0  0  0  0  0  0  0  0  0  0  0
  189.3610  175.4100  144.4640 C   0  0  0  0  0  3  0  0  0  0  0  0
  187.2310  175.8340  142.3810 O   0  0  0  0  0  0  0  0  0  0  0  0
  187.9180  175.9070  141.1660 C   0  0  0  0  0  2  0  0  0  0  0  0
  188.5660  174.5700  140.8600 C   0  0  2  0  0  3  0  0  0  0  0  0
  188.3800  174.2460  139.4560 N   0  0  0  0  0  1  0  0  0  0  0  0
  187.9240  173.4950  141.7220 C   0  0  0  0  0  2  0  0  0  0  0  0
  188.7020  172.3040  141.6980 O   0  0  0  0  0  0  0  0  0  0  0  0
  191.0140  171.8040  142.3580 N   0  0  0  0  0  1  0  0  0  0  0  0
  189.2730  171.9180  143.8860 O   0  0  0  0  0  0  0  0  0  0  0  0
  189.6420  172.0050  142.6870 C   0  0  0  0  0  0  0  0  0  0  0  0
  2  6  1  0  0  0  0
  2  1  2  0  0  0  0
  3  9  1  0  0  0  0
  4 17  1  6  0  0  0
  4 15  1  0  0  0  0
  4 14  1  0  0  0  0
  5  3  1  0  0  0  0
  5  6  2  0  0  0  0
  6 13  1  0  0  0  0
  7 12  2  0  0  0  0
  9 13  1  0  0  0  0
 10  3  2  0  0  0  0
 11 15  2  0  0  0  0
 12  1  1  0  0  0  0
 12  8  1  0  0  0  0
 14  2  1  0  0  0  0
 15  5  1  0  0  0  0
 16 14  2  0  0  0  0
 16  7  1  0  0  0  0
 18 17  1  0  0  0  0
 19 20  1  6  0  0  0
 19 18  1  0  0  0  0
 19 21  1  0  0  0  0
 22 21  1  0  0  0  0
 22 25  1  0  0  0  0
 23 25  1  0  0  0  0
 25 24  2  0  0  0  0
M  END
>  <MODEL>
5

>  <REMARK>
 VINA RESULT:      -6.8      3.341      4.573
  Name = 
  6 active torsions:
  status: ('A' for Active; 'I' for Inactive)
    1  A    between atoms: C_2  and  C_21
    2  A    between atoms: C_2  and  C_25
    3  A    between atoms: C_5  and  O_18
    4  A    between atoms: O_7  and  C_17
    5  A    between atoms: O_7  and  C_21
    6  A    between atoms: O_18  and  C_25
                            x       y       z     vdW  Elec       q    Type
                         _______ _______ _______ _____ _____    ______ ____

>  <TORSDO>
F 6

$$$$
=
 OpenBabel11042413513D

 25 27  0  0  1  0  0  0  0  0999 V2000
  185.4880  178.4280  142.5050 C   0  0  0  0  0  3  0  0  0  0  0  0
  186.2270  177.9640  143.6000 C   0  0  0  0  0  0  0  0  0  0  0  0
  185.5800  177.9410  147.1820 C   0  0  0  0  0  0  0  0  0  0  0  0
  188.3040  176.7900  144.5460 C   0  0  2  0  0  3  0  0  0  0  0  0
  186.3630  177.6370  146.0100 C   0  0  0  0  0  0  0  0  0  0  0  0
  185.7300  178.1480  144.9710 C   0  0  0  0  0  0  0  0  0  0  0  0
  187.1530  177.5350  140.9930 C   0  0  0  0  0  3  0  0  0  0  0  0
  185.2350  178.6670  140.1490 F   0  0  0  0  0  0  0  0  0  0  0  0
  184.4550  178.6570  146.8140 O   0  0  0  0  0  0  0  0  0  0  0  0
  185.8570  177.6150  148.3670 O   0  0  0  0  0  0  0  0  0  0  0  0
  188.1180  176.3130  146.8920 O   0  0  0  0  0  0  0  0  0  0  0  0
  185.9520  178.2160  141.2050 C   0  0  0  0  0  0  0  0  0  0  0  0
  184.4620  178.8390  145.3970 C   0  0  0  0  0  2  0  0  0  0  0  0
  187.4470  177.2780  143.3890 C   0  0  0  0  0  0  0  0  0  0  0  0
  187.6110  176.8750  145.8860 C   0  0  0  0  0  0  0  0  0  0  0  0
  187.8980  177.0690  142.0790 C   0  0  0  0  0  3  0  0  0  0  0  0
  189.4930  177.5210  144.5910 O   0  0  0  0  0  0  0  0  0  0  0  0
  190.5050  176.5600  144.6730 C   0  0  0  0  0  2  0  0  0  0  0  0
  191.8290  177.1700  144.2550 C   0  0  2  0  0  3  0  0  0  0  0  0
  191.6220  178.0710  143.1340 N   0  0  0  0  0  1  0  0  0  0  0  0
  192.7840  176.0600  143.8480 C   0  0  0  0  0  2  0  0  0  0  0  0
  194.1260  176.4130  144.1650 O   0  0  0  0  0  0  0  0  0  0  0  0
  194.4770  175.7870  146.5120 N   0  0  0  0  0  1  0  0  0  0  0  0
  194.9390  177.9100  145.7000 O   0  0  0  0  0  0  0  0  0  0  0  0
  194.5250  176.7470  145.4610 C   0  0  0  0  0  0  0  0  0  0  0  0
  1  2  1  0  0  0  0
  2  6  1  0  0  0  0
  3 10  2  0  0  0  0
  4 17  1  1  0  0  0
  4 15  1  0  0  0  0
  5  3  1  0  0  0  0
  6 13  1  0  0  0  0
  6  5  2  0  0  0  0
  7 12  1  0  0  0  0
  7 16  2  0  0  0  0
  8 12  1  0  0  0  0
  9  3  1  0  0  0  0
 12  1  2  0  0  0  0
 13  9  1  0  0  0  0
 14  2  2  0  0  0  0
 14  4  1  0  0  0  0
 15  5  1  0  0  0  0
 15 11  2  0  0  0  0
 16 14  1  0  0  0  0
 17 18  1  0  0  0  0
 19 20  1  6  0  0  0
 19 18  1  0  0  0  0
 21 22  1  0  0  0  0
 21 19  1  0  0  0  0
 22 25  1  0  0  0  0
 25 24  2  0  0  0  0
 25 23  1  0  0  0  0
M  END
>  <MODEL>
6

>  <REMARK>
 VINA RESULT:      -6.7      2.965      4.444
  Name = 
  6 active torsions:
  status: ('A' for Active; 'I' for Inactive)
    1  A    between atoms: C_2  and  C_21
    2  A    between atoms: C_2  and  C_25
    3  A    between atoms: C_5  and  O_18
    4  A    between atoms: O_7  and  C_17
    5  A    between atoms: O_7  and  C_21
    6  A    between atoms: O_18  and  C_25
                            x       y       z     vdW  Elec       q    Type
                         _______ _______ _______ _____ _____    ______ ____

>  <TORSDO>
F 6

$$$$
=
 OpenBabel11042413513D

 25 27  0  0  1  0  0  0  0  0999 V2000
  185.3230  178.5170  142.4870 C   0  0  0  0  0  3  0  0  0  0  0  0
  186.1310  178.1280  143.5640 C   0  0  0  0  0  0  0  0  0  0  0  0
  185.6320  178.1860  147.1690 C   0  0  0  0  0  0  0  0  0  0  0  0
  188.3060  177.1000  144.4560 C   0  0  2  0  0  3  0  0  0  0  0  0
  186.3820  177.8870  145.9740 C   0  0  0  0  0  0  0  0  0  0  0  0
  185.6800  178.3300  144.9480 C   0  0  0  0  0  0  0  0  0  0  0  0
  186.9730  177.6670  140.9330 C   0  0  0  0  0  3  0  0  0  0  0  0
  184.9620  178.6660  140.1380 F   0  0  0  0  0  0  0  0  0  0  0  0
  184.4540  178.8280  146.8280 O   0  0  0  0  0  0  0  0  0  0  0  0
  185.9730  177.9140  148.3500 O   0  0  0  0  0  0  0  0  0  0  0  0
  188.2420  176.6900  146.8210 O   0  0  0  0  0  0  0  0  0  0  0  0
  185.7460  178.2890  141.1760 C   0  0  0  0  0  0  0  0  0  0  0  0
  184.3940  178.9640  145.4060 C   0  0  0  0  0  2  0  0  0  0  0  0
  187.3770  177.5030  143.3220 C   0  0  0  0  0  0  0  0  0  0  0  0
  187.6640  177.1910  145.8210 C   0  0  0  0  0  0  0  0  0  0  0  0
  187.7850  177.2770  142.0010 C   0  0  0  0  0  3  0  0  0  0  0  0
  189.4540  177.8960  144.4290 O   0  0  0  0  0  0  0  0  0  0  0  0
  190.4830  177.0320  144.0430 C   0  0  0  0  0  2  0  0  0  0  0  0
  191.5020  176.9150  145.1600 C   0  0  2  0  0  3  0  0  0  0  0  0
  192.8340  177.1650  144.6360 N   0  0  0  0  0  1  0  0  0  0  0  0
  191.4390  175.5160  145.7490 C   0  0  0  0  0  2  0  0  0  0  0  0
  190.7060  174.6460  144.8950 O   0  0  0  0  0  0  0  0  0  0  0  0
  189.6940  172.4220  144.6530 N   0  0  0  0  0  1  0  0  0  0  0  0
  189.3170  173.7760  146.4990 O   0  0  0  0  0  0  0  0  0  0  0  0
  189.8870  173.6280  145.3880 C   0  0  0  0  0  0  0  0  0  0  0  0
  1  2  1  0  0  0  0
  2  6  1  0  0  0  0
  3 10  2  0  0  0  0
  4 17  1  1  0  0  0
  4 15  1  0  0  0  0
  5  3  1  0  0  0  0
  6 13  1  0  0  0  0
  6  5  2  0  0  0  0
  7 12  1  0  0  0  0
  7 16  2  0  0  0  0
  8 12  1  0  0  0  0
  9  3  1  0  0  0  0
 12  1  2  0  0  0  0
 13  9  1  0  0  0  0
 14  2  2  0  0  0  0
 14  4  1  0  0  0  0
 15  5  1  0  0  0  0
 15 11  2  0  0  0  0
 16 14  1  0  0  0  0
 18 17  1  0  0  0  0
 18 19  1  0  0  0  0
 19 20  1  6  0  0  0
 19 21  1  0  0  0  0
 22 25  1  0  0  0  0
 22 21  1  0  0  0  0
 23 25  1  0  0  0  0
 25 24  2  0  0  0  0
M  END
>  <MODEL>
7

>  <REMARK>
 VINA RESULT:      -6.7      2.733      4.143
  Name = 
  6 active torsions:
  status: ('A' for Active; 'I' for Inactive)
    1  A    between atoms: C_2  and  C_21
    2  A    between atoms: C_2  and  C_25
    3  A    between atoms: C_5  and  O_18
    4  A    between atoms: O_7  and  C_17
    5  A    between atoms: O_7  and  C_21
    6  A    between atoms: O_18  and  C_25
                            x       y       z     vdW  Elec       q    Type
                         _______ _______ _______ _____ _____    ______ ____

>  <TORSDO>
F 6

$$$$
=
 OpenBabel11042413513D

 25 27  0  0  1  0  0  0  0  0999 V2000
  188.0970  175.8540  146.9650 C   0  0  0  0  0  3  0  0  0  0  0  0
  187.8320  176.4450  145.7230 C   0  0  0  0  0  0  0  0  0  0  0  0
  185.8010  179.2990  144.7330 C   0  0  0  0  0  0  0  0  0  0  0  0
  188.2060  176.5570  143.1860 C   0  0  2  0  0  3  0  0  0  0  0  0
  186.7090  178.2090  144.4740 C   0  0  0  0  0  0  0  0  0  0  0  0
  186.9010  177.5780  145.6170 C   0  0  0  0  0  0  0  0  0  0  0  0
  189.6650  174.3370  145.9160 C   0  0  0  0  0  3  0  0  0  0  0  0
  189.2630  174.2310  148.2610 F   0  0  0  0  0  0  0  0  0  0  0  0
  185.4490  179.3010  146.0710 O   0  0  0  0  0  0  0  0  0  0  0  0
  185.3800  180.1330  143.8890 O   0  0  0  0  0  0  0  0  0  0  0  0
  187.2480  178.5210  142.1890 O   0  0  0  0  0  0  0  0  0  0  0  0
  189.0090  174.8000  147.0590 C   0  0  0  0  0  0  0  0  0  0  0  0
  186.1160  178.2220  146.7290 C   0  0  0  0  0  2  0  0  0  0  0  0
  188.4900  175.9750  144.5620 C   0  0  0  0  0  0  0  0  0  0  0  0
  187.3780  177.8210  143.2270 C   0  0  0  0  0  0  0  0  0  0  0  0
  189.4060  174.9210  144.6730 C   0  0  0  0  0  3  0  0  0  0  0  0
  187.5590  175.6040  142.3970 O   0  0  0  0  0  0  0  0  0  0  0  0
  188.4020  175.4120  141.2990 C   0  0  0  0  0  2  0  0  0  0  0  0
  188.5500  173.9300  141.0150 C   0  0  2  0  0  3  0  0  0  0  0  0
  187.6440  173.1760  141.8650 N   0  0  0  0  0  1  0  0  0  0  0  0
  189.9830  173.5080  141.2960 C   0  0  0  0  0  2  0  0  0  0  0  0
  190.8100  174.6480  141.4970 O   0  0  0  0  0  0  0  0  0  0  0  0
  193.0540  175.5580  141.8990 N   0  0  0  0  0  1  0  0  0  0  0  0
  192.2920  173.6120  142.9070 O   0  0  0  0  0  0  0  0  0  0  0  0
  192.0540  174.5680  142.1260 C   0  0  0  0  0  0  0  0  0  0  0  0
  1 12  1  0  0  0  0
  2  1  2  0  0  0  0
  3  9  1  0  0  0  0
  4 17  1  6  0  0  0
  4 15  1  0  0  0  0
  4 14  1  0  0  0  0
  5  3  1  0  0  0  0
  5  6  2  0  0  0  0
  6  2  1  0  0  0  0
  6 13  1  0  0  0  0
  7 12  2  0  0  0  0
  9 13  1  0  0  0  0
 10  3  2  0  0  0  0
 11 15  2  0  0  0  0
 12  8  1  0  0  0  0
 14 16  2  0  0  0  0
 14  2  1  0  0  0  0
 15  5  1  0  0  0  0
 16  7  1  0  0  0  0
 18 17  1  0  0  0  0
 19 21  1  0  0  0  0
 19 18  1  0  0  0  0
 19 20  1  1  0  0  0
 21 22  1  0  0  0  0
 22 25  1  0  0  0  0
 23 25  1  0  0  0  0
 25 24  2  0  0  0  0
M  END
>  <MODEL>
8

>  <REMARK>
 VINA RESULT:      -6.6      3.075      4.475
  Name = 
  6 active torsions:
  status: ('A' for Active; 'I' for Inactive)
    1  A    between atoms: C_2  and  C_21
    2  A    between atoms: C_2  and  C_25
    3  A    between atoms: C_5  and  O_18
    4  A    between atoms: O_7  and  C_17
    5  A    between atoms: O_7  and  C_21
    6  A    between atoms: O_18  and  C_25
                            x       y       z     vdW  Elec       q    Type
                         _______ _______ _______ _____ _____    ______ ____

>  <TORSDO>
F 6

$$$$
=
 OpenBabel11042413513D

 25 27  0  0  1  0  0  0  0  0999 V2000
  188.1790  175.9750  146.8910 C   0  0  0  0  0  3  0  0  0  0  0  0
  187.8250  176.5700  145.6730 C   0  0  0  0  0  0  0  0  0  0  0  0
  185.6230  179.3420  144.8280 C   0  0  0  0  0  0  0  0  0  0  0  0
  188.0650  176.7300  143.1230 C   0  0  2  0  0  3  0  0  0  0  0  0
  186.5640  178.2980  144.5080 C   0  0  0  0  0  0  0  0  0  0  0  0
  186.8420  177.6610  145.6300 C   0  0  0  0  0  0  0  0  0  0  0  0
  189.7570  174.5440  145.7430 C   0  0  0  0  0  3  0  0  0  0  0  0
  189.4790  174.3910  148.1040 F   0  0  0  0  0  0  0  0  0  0  0  0
  185.3410  179.3120  146.1820 O   0  0  0  0  0  0  0  0  0  0  0  0
  185.1240  180.1670  144.0190 O   0  0  0  0  0  0  0  0  0  0  0  0
  186.9730  178.6610  142.2030 O   0  0  0  0  0  0  0  0  0  0  0  0
  189.1400  174.9630  146.9240 C   0  0  0  0  0  0  0  0  0  0  0  0
  186.0870  178.2560  146.7900 C   0  0  0  0  0  2  0  0  0  0  0  0
  188.4440  176.1440  144.4730 C   0  0  0  0  0  0  0  0  0  0  0  0
  187.1860  177.9550  143.2240 C   0  0  0  0  0  0  0  0  0  0  0  0
  189.4100  175.1310  144.5230 C   0  0  0  0  0  3  0  0  0  0  0  0
  187.4210  175.7590  142.3530 O   0  0  0  0  0  0  0  0  0  0  0  0
  188.1920  175.6490  141.1920 C   0  0  0  0  0  2  0  0  0  0  0  0
  188.5100  174.1910  140.9210 C   0  0  2  0  0  3  0  0  0  0  0  0
  187.8340  173.3530  141.8960 N   0  0  0  0  0  1  0  0  0  0  0  0
  190.0120  173.9800  141.0210 C   0  0  0  0  0  2  0  0  0  0  0  0
  190.4130  172.8590  140.2420 O   0  0  0  0  0  0  0  0  0  0  0  0
  189.7120  171.5510  138.2860 N   0  0  0  0  0  1  0  0  0  0  0  0
  190.3240  173.7850  138.1460 O   0  0  0  0  0  0  0  0  0  0  0  0
  190.1600  172.7710  138.8710 C   0  0  0  0  0  0  0  0  0  0  0  0
  1 12  1  0  0  0  0
  2  1  2  0  0  0  0
  3  9  1  0  0  0  0
  4 17  1  6  0  0  0
  4 15  1  0  0  0  0
  4 14  1  0  0  0  0
  5  3  1  0  0  0  0
  5  6  2  0  0  0  0
  6  2  1  0  0  0  0
  6 13  1  0  0  0  0
  7 12  2  0  0  0  0
  9 13  1  0  0  0  0
 10  3  2  0  0  0  0
 11 15  2  0  0  0  0
 12  8  1  0  0  0  0
 14 16  2  0  0  0  0
 14  2  1  0  0  0  0
 15  5  1  0  0  0  0
 16  7  1  0  0  0  0
 18 17  1  0  0  0  0
 19 21  1  0  0  0  0
 19 18  1  0  0  0  0
 19 20  1  1  0  0  0
 22 21  1  0  0  0  0
 23 25  1  0  0  0  0
 24 25  2  0  0  0  0
 25 22  1  0  0  0  0
M  END
>  <MODEL>
9

>  <REMARK>
 VINA RESULT:      -6.6      3.698      5.264
  Name = 
  6 active torsions:
  status: ('A' for Active; 'I' for Inactive)
    1  A    between atoms: C_2  and  C_21
    2  A    between atoms: C_2  and  C_25
    3  A    between atoms: C_5  and  O_18
    4  A    between atoms: O_7  and  C_17
    5  A    between atoms: O_7  and  C_21
    6  A    between atoms: O_18  and  C_25
                            x       y       z     vdW  Elec       q    Type
                         _______ _______ _______ _____ _____    ______ ____

>  <TORSDO>
F 6

$$$$
