=
 OpenBabel11042419053D

 43 46  0  0  1  0  0  0  0  0999 V2000
  188.2620  175.3990  140.4810 O   0  0  0  0  0  0  0  0  0  0  0  0
  191.1620  171.8660  141.3360 O   0  0  0  0  0  0  0  0  0  0  0  0
  190.5280  171.0710  142.3020 C   0  0  2  0  0  3  0  0  0  0  0  0
  189.9910  171.5270  144.6920 O   0  0  0  0  0  1  0  0  0  0  0  0
  190.6410  171.5470  140.1570 O   0  0  0  0  0  0  0  0  0  0  0  0
  189.0230  173.8300  141.8600 C   0  0  0  0  0  0  0  0  0  0  0  0
  188.5190  175.1320  141.7460 C   0  0  0  0  0  0  0  0  0  0  0  0
  189.0520  173.3530  140.5590 C   0  0  0  0  0  0  0  0  0  0  0  0
  189.9320  171.9520  143.3710 C   0  0  0  0  0  0  0  0  0  0  0  0
  189.3640  172.0270  140.1440 N   0  0  0  0  0  2  0  0  0  0  0  0
  188.5570  174.3480  139.7570 C   0  0  0  0  0  0  0  0  0  0  0  0
  189.3140  173.1220  143.1350 C   0  0  0  0  0  3  0  0  0  0  0  0
  189.3400  176.7920  143.4380 C   0  0  0  0  0  3  0  0  0  0  0  0
  188.2710  176.1070  142.8390 C   0  0  0  0  0  0  0  0  0  0  0  0
  189.1190  177.6970  144.4760 C   0  0  0  0  0  3  0  0  0  0  0  0
  187.8230  177.9310  144.9320 C   0  0  0  0  0  3  0  0  0  0  0  0
  186.9600  176.3510  143.3040 C   0  0  0  0  0  0  0  0  0  0  0  0
  186.7380  177.2630  144.3490 C   0  0  0  0  0  0  0  0  0  0  0  0
  185.8970  175.7180  142.7370 F   0  0  0  0  0  0  0  0  0  0  0  0
  185.3420  177.5100  144.8430 C   0  0  2  0  0  3  0  0  0  0  0  0
  183.9910  178.6230  143.4800 C   0  0  0  0  0  1  0  0  0  0  0  0
  184.9250  178.8020  144.5030 O   0  0  0  0  0  0  0  0  0  0  0  0
  185.2740  177.3140  146.3260 C   0  0  0  0  0  3  0  0  0  0  0  0
  184.8320  178.2850  147.1200 C   0  0  0  0  0  2  0  0  0  0  0  0
  188.3770  174.2530  138.3410 N   0  0  0  0  0  2  0  0  0  0  0  0
  189.4490  174.1000  137.4060 C   0  0  0  0  0  0  0  0  0  0  0  0
  189.1440  174.0110  135.9540 C   0  0  0  0  0  1  0  0  0  0  0  0
  190.6450  174.0390  137.7940 O   0  0  0  0  0  0  0  0  0  0  0  0
  191.5320  170.0820  142.8840 C   0  0  0  0  0  2  0  0  0  0  0  0
  192.9480  170.6370  142.8250 C   0  0  0  0  0  2  0  0  0  0  0  0
  193.3560  171.2110  144.1410 C   0  0  0  0  0  3  0  0  0  0  0  0
  193.3250  172.5200  144.3440 C   0  0  0  0  0  3  0  0  0  0  0  0
  193.6960  173.0450  145.5810 O   0  0  0  0  0  0  0  0  0  0  0  0
  193.2160  174.3090  146.0410 C   0  0  1  0  0  3  0  0  0  0  0  0
  196.1570  175.5440  144.5090 C   0  0  0  0  0  2  0  0  0  0  0  0
  195.6300  174.8400  145.7180 C   0  0  0  0  0  2  0  0  0  0  0  0
  194.2480  175.4060  145.7860 C   0  0  1  0  0  3  0  0  0  0  0  0
  194.0280  175.9940  144.5340 O   0  0  0  0  0  0  0  0  0  0  0  0
  195.1990  176.5110  144.1770 O   0  0  0  0  0  0  0  0  0  0  0  0
  191.8760  174.6510  145.3920 C   0  0  0  0  0  2  0  0  0  0  0  0
  189.6650  174.5260  146.2750 O   0  0  0  0  0  0  0  0  0  0  0  0
  191.1900  175.6340  147.5780 O   0  0  0  0  0  1  0  0  0  0  0  0
  190.8440  174.9370  146.4290 C   0  0  0  0  0  0  0  0  0  0  0  0
  1  7  1  0  0  0  0
  2  3  1  0  0  0  0
  3 29  1  1  0  0  0
  3  9  1  0  0  0  0
  5  2  1  0  0  0  0
  6 12  1  0  0  0  0
  7  6  2  0  0  0  0
  7 14  1  0  0  0  0
  8  6  1  0  0  0  0
  9  4  1  0  0  0  0
 10  5  1  0  0  0  0
 10  8  1  0  0  0  0
 11  1  1  0  0  0  0
 11  8  2  0  0  0  0
 12  9  2  0  0  0  0
 13 15  1  0  0  0  0
 14 17  1  0  0  0  0
 14 13  2  0  0  0  0
 15 16  2  0  0  0  0
 17 18  2  0  0  0  0
 18 20  1  0  0  0  0
 18 16  1  0  0  0  0
 19 17  1  0  0  0  0
 20 23  1  1  0  0  0
 21 22  1  0  0  0  0
 22 20  1  0  0  0  0
 23 24  2  0  0  0  0
 25 11  1  0  0  0  0
 26 28  2  0  0  0  0
 26 25  1  0  0  0  0
 27 26  1  0  0  0  0
 30 29  1  0  0  0  0
 30 31  1  0  0  0  0
 31 32  2  0  0  0  0
 32 33  1  0  0  0  0
 33 34  1  0  0  0  0
 34 40  1  6  0  0  0
 35 36  1  0  0  0  0
 36 37  1  0  0  0  0
 37 34  1  6  0  0  0
 38 37  1  0  0  0  0
 39 35  1  0  0  0  0
 39 38  1  0  0  0  0
 40 43  1  0  0  0  0
 41 43  2  0  0  0  0
 43 42  1  0  0  0  0
M  END
>  <MODEL>
1

>  <REMARK>
 VINA RESULT:      -6.7      0.000      0.000
  Name = 
  13 active torsions:
  status: ('A' for Active; 'I' for Inactive)
    1  A    between atoms: O_1  and  C_5
    2  A    between atoms: O_1  and  C_42
    3  A    between atoms: N_2  and  C_40
    4  A    between atoms: C_5  and  C_22
    5  A    between atoms: C_5  and  C_24
    6  A    between atoms: C_10  and  C_27
    7  A    between atoms: C_11  and  C_41
    8  A    between atoms: C_12  and  O_30
    9  A    between atoms: C_12  and  C_32
   10  A    between atoms: C_12  and  C_33
   11  A    between atoms: C_20  and  C_21
   12  A    between atoms: C_21  and  C_41
   13  A    between atoms: C_22  and  C_38
                            x       y       z     vdW  Elec       q    Type
                         _______ _______ _______ _____ _____    ______ ____

>  <TORSDO>
F 13

$$$$
=
 OpenBabel11042419053D

 43 46  0  0  1  0  0  0  0  0999 V2000
  188.2840  175.3050  140.4980 O   0  0  0  0  0  0  0  0  0  0  0  0
  191.4030  171.9390  141.2490 O   0  0  0  0  0  0  0  0  0  0  0  0
  190.8620  171.1300  142.2580 C   0  0  2  0  0  3  0  0  0  0  0  0
  190.4270  171.5970  144.6670 O   0  0  0  0  0  1  0  0  0  0  0  0
  190.8380  171.5740  140.1040 O   0  0  0  0  0  0  0  0  0  0  0  0
  189.1960  173.8000  141.8570 C   0  0  0  0  0  0  0  0  0  0  0  0
  188.6210  175.0730  141.7520 C   0  0  0  0  0  0  0  0  0  0  0  0
  189.1820  173.3040  140.5630 C   0  0  0  0  0  0  0  0  0  0  0  0
  190.2780  171.9970  143.3440 C   0  0  0  0  0  0  0  0  0  0  0  0
  189.5390  171.9880  140.1520 N   0  0  0  0  0  2  0  0  0  0  0  0
  188.5950  174.2580  139.7740 C   0  0  0  0  0  0  0  0  0  0  0  0
  189.5890  173.1300  143.1250 C   0  0  0  0  0  3  0  0  0  0  0  0
  189.4530  176.7400  143.4310 C   0  0  0  0  0  3  0  0  0  0  0  0
  188.3800  176.0530  142.8420 C   0  0  0  0  0  0  0  0  0  0  0  0
  189.2390  177.6490  144.4670 C   0  0  0  0  0  3  0  0  0  0  0  0
  187.9460  177.8850  144.9310 C   0  0  0  0  0  3  0  0  0  0  0  0
  187.0720  176.2990  143.3150 C   0  0  0  0  0  0  0  0  0  0  0  0
  186.8570  177.2150  144.3580 C   0  0  0  0  0  0  0  0  0  0  0  0
  186.0050  175.6630  142.7580 F   0  0  0  0  0  0  0  0  0  0  0  0
  185.4640  177.4640  144.8600 C   0  0  2  0  0  3  0  0  0  0  0  0
  184.1030  178.5690  143.5030 C   0  0  0  0  0  1  0  0  0  0  0  0
  185.0440  178.7530  144.5170 O   0  0  0  0  0  0  0  0  0  0  0  0
  185.4080  177.2740  146.3460 C   0  0  0  0  0  3  0  0  0  0  0  0
  184.9760  178.2510  147.1380 C   0  0  0  0  0  2  0  0  0  0  0  0
  188.3470  174.1310  138.3720 N   0  0  0  0  0  2  0  0  0  0  0  0
  189.3740  174.0480  137.3810 C   0  0  0  0  0  0  0  0  0  0  0  0
  188.9990  173.9160  135.9480 C   0  0  0  0  0  1  0  0  0  0  0  0
  190.5910  174.0850  137.7030 O   0  0  0  0  0  0  0  0  0  0  0  0
  191.9450  170.2020  142.8000 C   0  0  0  0  0  2  0  0  0  0  0  0
  193.3340  170.7040  142.4310 C   0  0  0  0  0  2  0  0  0  0  0  0
  193.9050  171.5510  143.5190 C   0  0  0  0  0  3  0  0  0  0  0  0
  194.2890  172.7960  143.2740 C   0  0  0  0  0  3  0  0  0  0  0  0
  194.8100  173.5820  144.3000 O   0  0  0  0  0  0  0  0  0  0  0  0
  194.3010  174.8840  144.5880 C   0  0  1  0  0  3  0  0  0  0  0  0
  191.9410  176.3580  146.7740 C   0  0  0  0  0  2  0  0  0  0  0  0
  193.4020  176.1610  146.5320 C   0  0  0  0  0  2  0  0  0  0  0  0
  193.3880  174.8500  145.8130 C   0  0  1  0  0  3  0  0  0  0  0  0
  192.0580  174.6590  145.4190 O   0  0  0  0  0  0  0  0  0  0  0  0
  191.3220  175.1540  146.4090 O   0  0  0  0  0  0  0  0  0  0  0  0
  195.4390  175.8850  144.7770 C   0  0  0  0  0  2  0  0  0  0  0  0
  195.1900  176.2620  142.4360 O   0  0  0  0  0  0  0  0  0  0  0  0
  197.1070  177.0950  143.3750 O   0  0  0  0  0  1  0  0  0  0  0  0
  195.9020  176.4130  143.4620 C   0  0  0  0  0  0  0  0  0  0  0  0
  1  7  1  0  0  0  0
  2  3  1  0  0  0  0
  3 29  1  1  0  0  0
  3  9  1  0  0  0  0
  5 10  1  0  0  0  0
  5  2  1  0  0  0  0
  6 12  1  0  0  0  0
  7  6  2  0  0  0  0
  7 14  1  0  0  0  0
  8  6  1  0  0  0  0
  9  4  1  0  0  0  0
 10  8  1  0  0  0  0
 11  1  1  0  0  0  0
 11  8  2  0  0  0  0
 12  9  2  0  0  0  0
 13 15  1  0  0  0  0
 14 17  1  0  0  0  0
 14 13  2  0  0  0  0
 15 16  2  0  0  0  0
 17 18  2  0  0  0  0
 18 20  1  0  0  0  0
 18 16  1  0  0  0  0
 19 17  1  0  0  0  0
 20 23  1  1  0  0  0
 21 22  1  0  0  0  0
 22 20  1  0  0  0  0
 23 24  2  0  0  0  0
 25 11  1  0  0  0  0
 26 28  2  0  0  0  0
 26 25  1  0  0  0  0
 27 26  1  0  0  0  0
 30 29  1  0  0  0  0
 30 31  1  0  0  0  0
 32 31  2  0  0  0  0
 32 33  1  0  0  0  0
 33 34  1  0  0  0  0
 34 40  1  1  0  0  0
 36 35  1  0  0  0  0
 37 34  1  6  0  0  0
 37 36  1  0  0  0  0
 38 37  1  0  0  0  0
 38 39  1  0  0  0  0
 39 35  1  0  0  0  0
 41 43  2  0  0  0  0
 42 43  1  0  0  0  0
 43 40  1  0  0  0  0
M  END
>  <MODEL>
2

>  <REMARK>
 VINA RESULT:      -6.5      0.865      2.292
  Name = 
  13 active torsions:
  status: ('A' for Active; 'I' for Inactive)
    1  A    between atoms: O_1  and  C_5
    2  A    between atoms: O_1  and  C_42
    3  A    between atoms: N_2  and  C_40
    4  A    between atoms: C_5  and  C_22
    5  A    between atoms: C_5  and  C_24
    6  A    between atoms: C_10  and  C_27
    7  A    between atoms: C_11  and  C_41
    8  A    between atoms: C_12  and  O_30
    9  A    between atoms: C_12  and  C_32
   10  A    between atoms: C_12  and  C_33
   11  A    between atoms: C_20  and  C_21
   12  A    between atoms: C_21  and  C_41
   13  A    between atoms: C_22  and  C_38
                            x       y       z     vdW  Elec       q    Type
                         _______ _______ _______ _____ _____    ______ ____

>  <TORSDO>
F 13

$$$$
=
 OpenBabel11042419053D

 43 46  0  0  1  0  0  0  0  0999 V2000
  194.2880  174.7380  146.1390 O   0  0  0  0  0  0  0  0  0  0  0  0
  191.5070  175.1720  142.4370 O   0  0  0  0  0  0  0  0  0  0  0  0
  190.8770  173.9300  142.2800 C   0  0  2  0  0  3  0  0  0  0  0  0
  191.7960  171.7050  141.6320 O   0  0  0  0  0  1  0  0  0  0  0  0
  190.8500  175.8320  143.3840 O   0  0  0  0  0  0  0  0  0  0  0  0
  193.2100  173.8140  144.4270 C   0  0  0  0  0  0  0  0  0  0  0  0
  194.3630  173.7930  145.2220 C   0  0  0  0  0  0  0  0  0  0  0  0
  192.4530  174.8550  144.9420 C   0  0  0  0  0  0  0  0  0  0  0  0
  191.8880  172.8240  142.4510 C   0  0  0  0  0  0  0  0  0  0  0  0
  191.1250  175.2080  144.5660 N   0  0  0  0  0  2  0  0  0  0  0  0
  193.1500  175.3730  146.0010 C   0  0  0  0  0  0  0  0  0  0  0  0
  192.8690  172.8260  143.3690 C   0  0  0  0  0  3  0  0  0  0  0  0
  196.7080  173.2820  144.4950 C   0  0  0  0  0  3  0  0  0  0  0  0
  195.5210  172.8680  145.1170 C   0  0  0  0  0  0  0  0  0  0  0  0
  197.7950  172.4140  144.3760 C   0  0  0  0  0  3  0  0  0  0  0  0
  197.7090  171.1180  144.8780 C   0  0  0  0  0  3  0  0  0  0  0  0
  195.4410  171.5530  145.6260 C   0  0  0  0  0  0  0  0  0  0  0  0
  196.5350  170.6800  145.5070 C   0  0  0  0  0  0  0  0  0  0  0  0
  194.3120  171.1200  146.2500 F   0  0  0  0  0  0  0  0  0  0  0  0
  196.4400  169.2810  146.0440 C   0  0  2  0  0  3  0  0  0  0  0  0
  197.1380  168.4150  147.9630 C   0  0  0  0  0  1  0  0  0  0  0  0
  197.5970  168.9510  146.7570 O   0  0  0  0  0  0  0  0  0  0  0  0
  196.2230  168.3100  144.9240 C   0  0  0  0  0  3  0  0  0  0  0  0
  195.0290  168.1940  144.3490 C   0  0  0  0  0  2  0  0  0  0  0  0
  192.7030  176.4420  146.8390 N   0  0  0  0  0  2  0  0  0  0  0  0
  191.7270  176.2940  147.8740 C   0  0  0  0  0  0  0  0  0  0  0  0
  191.3380  177.4770  148.6860 C   0  0  0  0  0  1  0  0  0  0  0  0
  191.1920  175.1780  148.1080 O   0  0  0  0  0  0  0  0  0  0  0  0
  190.2060  173.8710  140.9110 C   0  0  0  0  0  2  0  0  0  0  0  0
  188.6910  173.9560  141.0390 C   0  0  0  0  0  2  0  0  0  0  0  0
  188.2480  175.3660  141.2480 C   0  0  0  0  0  3  0  0  0  0  0  0
  187.5860  175.7090  142.3440 C   0  0  0  0  0  3  0  0  0  0  0  0
  187.1870  177.0310  142.5350 O   0  0  0  0  0  0  0  0  0  0  0  0
  187.2350  177.6560  143.8180 C   0  0  1  0  0  3  0  0  0  0  0  0
  183.9130  178.8760  143.8330 C   0  0  0  0  0  2  0  0  0  0  0  0
  185.0810  178.5670  142.9530 C   0  0  0  0  0  2  0  0  0  0  0  0
  186.2100  178.7870  143.9070 C   0  0  1  0  0  3  0  0  0  0  0  0
  185.6220  178.8050  145.1770 O   0  0  0  0  0  0  0  0  0  0  0  0
  184.4480  179.4060  145.0140 O   0  0  0  0  0  0  0  0  0  0  0  0
  187.0240  176.6320  144.9310 C   0  0  0  0  0  2  0  0  0  0  0  0
  189.0260  177.5770  145.8160 O   0  0  0  0  0  0  0  0  0  0  0  0
  188.1240  175.8540  147.0280 O   0  0  0  0  0  1  0  0  0  0  0  0
  188.1190  176.7130  145.9380 C   0  0  0  0  0  0  0  0  0  0  0  0
  2  5  1  0  0  0  0
  3 29  1  6  0  0  0
  3  2  1  0  0  0  0
  3  9  1  0  0  0  0
  4  9  1  0  0  0  0
  5 10  1  0  0  0  0
  6  8  1  0  0  0  0
  6  7  2  0  0  0  0
  7  1  1  0  0  0  0
  8 11  2  0  0  0  0
  9 12  2  0  0  0  0
 10  8  1  0  0  0  0
 11  1  1  0  0  0  0
 11 25  1  0  0  0  0
 12  6  1  0  0  0  0
 13 14  1  0  0  0  0
 14  7  1  0  0  0  0
 14 17  2  0  0  0  0
 15 13  2  0  0  0  0
 15 16  1  0  0  0  0
 16 18  2  0  0  0  0
 17 19  1  0  0  0  0
 18 17  1  0  0  0  0
 18 20  1  0  0  0  0
 20 23  1  6  0  0  0
 20 22  1  0  0  0  0
 22 21  1  0  0  0  0
 24 23  2  0  0  0  0
 25 26  1  0  0  0  0
 26 28  2  0  0  0  0
 26 27  1  0  0  0  0
 29 30  1  0  0  0  0
 30 31  1  0  0  0  0
 31 32  2  0  0  0  0
 32 33  1  0  0  0  0
 33 34  1  0  0  0  0
 34 40  1  1  0  0  0
 35 39  1  0  0  0  0
 36 35  1  0  0  0  0
 36 37  1  0  0  0  0
 37 34  1  1  0  0  0
 37 38  1  0  0  0  0
 39 38  1  0  0  0  0
 40 43  1  0  0  0  0
 41 43  2  0  0  0  0
 43 42  1  0  0  0  0
M  END
>  <MODEL>
3

>  <REMARK>
 VINA RESULT:      -6.5      3.356      9.218
  Name = 
  13 active torsions:
  status: ('A' for Active; 'I' for Inactive)
    1  A    between atoms: O_1  and  C_5
    2  A    between atoms: O_1  and  C_42
    3  A    between atoms: N_2  and  C_40
    4  A    between atoms: C_5  and  C_22
    5  A    between atoms: C_5  and  C_24
    6  A    between atoms: C_10  and  C_27
    7  A    between atoms: C_11  and  C_41
    8  A    between atoms: C_12  and  O_30
    9  A    between atoms: C_12  and  C_32
   10  A    between atoms: C_12  and  C_33
   11  A    between atoms: C_20  and  C_21
   12  A    between atoms: C_21  and  C_41
   13  A    between atoms: C_22  and  C_38
                            x       y       z     vdW  Elec       q    Type
                         _______ _______ _______ _____ _____    ______ ____

>  <TORSDO>
F 13

$$$$
=
 OpenBabel11042419053D

 43 46  0  0  1  0  0  0  0  0999 V2000
  188.5930  177.4750  144.8460 O   0  0  0  0  0  0  0  0  0  0  0  0
  188.5490  175.1570  140.8150 O   0  0  0  0  0  0  0  0  0  0  0  0
  188.2280  173.8310  141.1370 C   0  0  2  0  0  3  0  0  0  0  0  0
  189.5070  172.1020  142.3960 O   0  0  0  0  0  1  0  0  0  0  0  0
  187.4120  175.8420  140.7800 O   0  0  0  0  0  0  0  0  0  0  0  0
  188.8190  175.5690  143.7250 C   0  0  0  0  0  0  0  0  0  0  0  0
  189.2670  176.3440  144.8020 C   0  0  0  0  0  0  0  0  0  0  0  0
  187.8320  176.3400  143.1300 C   0  0  0  0  0  0  0  0  0  0  0  0
  189.0120  173.3990  142.3510 C   0  0  0  0  0  0  0  0  0  0  0  0
  186.9700  175.9470  142.0660 N   0  0  0  0  0  2  0  0  0  0  0  0
  187.7200  177.4880  143.8690 C   0  0  0  0  0  0  0  0  0  0  0  0
  189.2480  174.1780  143.4200 C   0  0  0  0  0  3  0  0  0  0  0  0
  189.9730  175.5140  147.0610 C   0  0  0  0  0  3  0  0  0  0  0  0
  190.3210  175.9990  145.7910 C   0  0  0  0  0  0  0  0  0  0  0  0
  190.9550  175.2040  148.0030 C   0  0  0  0  0  3  0  0  0  0  0  0
  192.3010  175.3740  147.6880 C   0  0  0  0  0  3  0  0  0  0  0  0
  191.6870  176.1670  145.4770 C   0  0  0  0  0  0  0  0  0  0  0  0
  192.6750  175.8540  146.4260 C   0  0  0  0  0  0  0  0  0  0  0  0
  192.0640  176.6200  144.2500 F   0  0  0  0  0  0  0  0  0  0  0  0
  194.1260  176.0430  146.0860 C   0  0  2  0  0  3  0  0  0  0  0  0
  195.0960  178.0160  145.7950 C   0  0  0  0  0  1  0  0  0  0  0  0
  194.2800  177.0790  145.1580 O   0  0  0  0  0  0  0  0  0  0  0  0
  194.7020  174.7700  145.5480 C   0  0  0  0  0  3  0  0  0  0  0  0
  195.9610  174.4310  145.8100 C   0  0  0  0  0  2  0  0  0  0  0  0
  186.7860  178.5420  143.6190 N   0  0  0  0  0  2  0  0  0  0  0  0
  185.8370  179.0150  144.5780 C   0  0  0  0  0  0  0  0  0  0  0  0
  184.9120  180.1190  144.2080 C   0  0  0  0  0  1  0  0  0  0  0  0
  185.7710  178.5100  145.7300 O   0  0  0  0  0  0  0  0  0  0  0  0
  188.5120  172.9350  139.9360 C   0  0  0  0  0  2  0  0  0  0  0  0
  189.5320  173.5740  139.0030 C   0  0  0  0  0  2  0  0  0  0  0  0
  190.8850  172.9730  139.1930 C   0  0  0  0  0  3  0  0  0  0  0  0
  191.7870  173.5720  139.9570 C   0  0  0  0  0  3  0  0  0  0  0  0
  193.0440  172.9970  140.1380 O   0  0  0  0  0  0  0  0  0  0  0  0
  193.8000  173.1930  141.3330 C   0  0  1  0  0  3  0  0  0  0  0  0
  195.6000  176.1140  142.1990 C   0  0  0  0  0  2  0  0  0  0  0  0
  194.4520  175.5990  141.3920 C   0  0  0  0  0  2  0  0  0  0  0  0
  194.9200  174.2080  141.1050 C   0  0  1  0  0  3  0  0  0  0  0  0
  195.9690  173.9780  142.0030 O   0  0  0  0  0  0  0  0  0  0  0  0
  196.6040  175.1400  142.1080 O   0  0  0  0  0  0  0  0  0  0  0  0
  192.8940  173.6210  142.4860 C   0  0  0  0  0  2  0  0  0  0  0  0
  192.0970  172.7140  144.5410 O   0  0  0  0  0  1  0  0  0  0  0  0
  193.4200  171.3210  143.2910 O   0  0  0  0  0  0  0  0  0  0  0  0
  192.7850  172.5370  143.5020 C   0  0  0  0  0  0  0  0  0  0  0  0
  2  3  1  0  0  0  0
  3 29  1  6  0  0  0
  3  9  1  0  0  0  0
  5  2  1  0  0  0  0
  5 10  1  0  0  0  0
  6  7  2  0  0  0  0
  7  1  1  0  0  0  0
  7 14  1  0  0  0  0
  8  6  1  0  0  0  0
  8 11  2  0  0  0  0
  9  4  1  0  0  0  0
  9 12  2  0  0  0  0
 10  8  1  0  0  0  0
 11  1  1  0  0  0  0
 12  6  1  0  0  0  0
 13 15  1  0  0  0  0
 14 13  2  0  0  0  0
 16 15  2  0  0  0  0
 17 14  1  0  0  0  0
 17 18  2  0  0  0  0
 18 16  1  0  0  0  0
 19 17  1  0  0  0  0
 20 23  1  6  0  0  0
 20 18  1  0  0  0  0
 22 21  1  0  0  0  0
 22 20  1  0  0  0  0
 23 24  2  0  0  0  0
 25 11  1  0  0  0  0
 25 26  1  0  0  0  0
 26 28  2  0  0  0  0
 27 26  1  0  0  0  0
 30 31  1  0  0  0  0
 30 29  1  0  0  0  0
 31 32  2  0  0  0  0
 32 33  1  0  0  0  0
 33 34  1  0  0  0  0
 34 40  1  1  0  0  0
 36 35  1  0  0  0  0
 37 34  1  1  0  0  0
 37 36  1  0  0  0  0
 37 38  1  0  0  0  0
 38 39  1  0  0  0  0
 39 35  1  0  0  0  0
 40 43  1  0  0  0  0
 42 43  2  0  0  0  0
 43 41  1  0  0  0  0
M  END
>  <MODEL>
4

>  <REMARK>
 VINA RESULT:      -6.3      2.509      6.116
  Name = 
  13 active torsions:
  status: ('A' for Active; 'I' for Inactive)
    1  A    between atoms: O_1  and  C_5
    2  A    between atoms: O_1  and  C_42
    3  A    between atoms: N_2  and  C_40
    4  A    between atoms: C_5  and  C_22
    5  A    between atoms: C_5  and  C_24
    6  A    between atoms: C_10  and  C_27
    7  A    between atoms: C_11  and  C_41
    8  A    between atoms: C_12  and  O_30
    9  A    between atoms: C_12  and  C_32
   10  A    between atoms: C_12  and  C_33
   11  A    between atoms: C_20  and  C_21
   12  A    between atoms: C_21  and  C_41
   13  A    between atoms: C_22  and  C_38
                            x       y       z     vdW  Elec       q    Type
                         _______ _______ _______ _____ _____    ______ ____

>  <TORSDO>
F 13

$$$$
=
 OpenBabel11042419053D

 43 46  0  0  1  0  0  0  0  0999 V2000
  190.5190  177.0660  145.1750 O   0  0  0  0  0  0  0  0  0  0  0  0
  191.4430  172.6990  143.8690 O   0  0  0  0  0  0  0  0  0  0  0  0
  190.6770  172.4710  142.7170 C   0  0  2  0  0  3  0  0  0  0  0  0
  188.2100  172.2980  142.4080 O   0  0  0  0  0  1  0  0  0  0  0  0
  192.5320  173.3610  143.4940 O   0  0  0  0  0  0  0  0  0  0  0  0
  189.8980  175.1990  144.1390 C   0  0  0  0  0  0  0  0  0  0  0  0
  189.4850  176.2900  144.9140 C   0  0  0  0  0  0  0  0  0  0  0  0
  191.2620  175.3870  143.9720 C   0  0  0  0  0  0  0  0  0  0  0  0
  189.2850  173.0150  142.9190 C   0  0  0  0  0  0  0  0  0  0  0  0
  192.1330  174.6190  143.1480 N   0  0  0  0  0  2  0  0  0  0  0  0
  191.5860  176.5560  144.6100 C   0  0  0  0  0  0  0  0  0  0  0  0
  189.0040  174.1720  143.5410 C   0  0  0  0  0  3  0  0  0  0  0  0
  187.7510  176.3640  146.7240 C   0  0  0  0  0  3  0  0  0  0  0  0
  188.1120  176.5970  145.3880 C   0  0  0  0  0  0  0  0  0  0  0  0
  186.4580  176.6330  147.1740 C   0  0  0  0  0  3  0  0  0  0  0  0
  185.5050  177.1400  146.2940 C   0  0  0  0  0  3  0  0  0  0  0  0
  187.1410  177.1140  144.5010 C   0  0  0  0  0  0  0  0  0  0  0  0
  185.8400  177.3850  144.9550 C   0  0  0  0  0  0  0  0  0  0  0  0
  187.4580  177.3680  143.2020 F   0  0  0  0  0  0  0  0  0  0  0  0
  184.8130  177.9270  144.0040 C   0  0  2  0  0  3  0  0  0  0  0  0
  184.0750  177.9160  141.9120 C   0  0  0  0  0  1  0  0  0  0  0  0
  185.2290  177.7480  142.6800 O   0  0  0  0  0  0  0  0  0  0  0  0
  184.5650  179.3790  144.2810 C   0  0  0  0  0  3  0  0  0  0  0  0
  185.5650  180.2540  144.2530 C   0  0  0  0  0  2  0  0  0  0  0  0
  192.8900  177.1400  144.6480 N   0  0  0  0  0  2  0  0  0  0  0  0
  193.8080  176.9820  145.7330 C   0  0  0  0  0  0  0  0  0  0  0  0
  195.1410  177.6360  145.6640 C   0  0  0  0  0  1  0  0  0  0  0  0
  193.5040  176.2960  146.7450 O   0  0  0  0  0  0  0  0  0  0  0  0
  190.6580  170.9770  142.4090 C   0  0  0  0  0  2  0  0  0  0  0  0
  191.4880  170.6600  141.1730 C   0  0  0  0  0  2  0  0  0  0  0  0
  190.9740  171.3940  139.9790 C   0  0  0  0  0  3  0  0  0  0  0  0
  191.3140  171.0120  138.7560 C   0  0  0  0  0  3  0  0  0  0  0  0
  190.8200  171.6960  137.6470 O   0  0  0  0  0  0  0  0  0  0  0  0
  190.7000  173.1180  137.6270 C   0  0  1  0  0  3  0  0  0  0  0  0
  192.2580  175.8610  136.0250 C   0  0  0  0  0  2  0  0  0  0  0  0
  191.3280  174.7110  135.8150 C   0  0  0  0  0  2  0  0  0  0  0  0
  191.8450  173.7490  136.8360 C   0  0  1  0  0  3  0  0  0  0  0  0
  192.6550  174.5120  137.6850 O   0  0  0  0  0  0  0  0  0  0  0  0
  193.2530  175.4000  136.8980 O   0  0  0  0  0  0  0  0  0  0  0  0
  189.3440  173.5420  137.0670 C   0  0  0  0  0  2  0  0  0  0  0  0
  187.8160  174.9280  138.2640 O   0  0  0  0  0  0  0  0  0  0  0  0
  188.0660  172.7990  139.0750 O   0  0  0  0  0  1  0  0  0  0  0  0
  188.3750  173.8040  138.1680 C   0  0  0  0  0  0  0  0  0  0  0  0
  3 29  1  1  0  0  0
  3  9  1  0  0  0  0
  3  2  1  0  0  0  0
  4  9  1  0  0  0  0
  5  2  1  0  0  0  0
  6  7  2  0  0  0  0
  7  1  1  0  0  0  0
  7 14  1  0  0  0  0
  8  6  1  0  0  0  0
  8 11  2  0  0  0  0
  9 12  2  0  0  0  0
 10  5  1  0  0  0  0
 10  8  1  0  0  0  0
 11 25  1  0  0  0  0
 11  1  1  0  0  0  0
 12  6  1  0  0  0  0
 13 15  1  0  0  0  0
 14 13  2  0  0  0  0
 16 15  2  0  0  0  0
 17 18  2  0  0  0  0
 17 14  1  0  0  0  0
 18 16  1  0  0  0  0
 19 17  1  0  0  0  0
 20 23  1  1  0  0  0
 20 18  1  0  0  0  0
 21 22  1  0  0  0  0
 22 20  1  0  0  0  0
 24 23  2  0  0  0  0
 25 26  1  0  0  0  0
 26 28  2  0  0  0  0
 27 26  1  0  0  0  0
 30 29  1  0  0  0  0
 31 30  1  0  0  0  0
 32 31  2  0  0  0  0
 33 32  1  0  0  0  0
 34 40  1  6  0  0  0
 34 33  1  0  0  0  0
 35 39  1  0  0  0  0
 36 35  1  0  0  0  0
 36 37  1  0  0  0  0
 37 34  1  1  0  0  0
 37 38  1  0  0  0  0
 39 38  1  0  0  0  0
 40 43  1  0  0  0  0
 43 41  2  0  0  0  0
 43 42  1  0  0  0  0
M  END
>  <MODEL>
5

>  <REMARK>
 VINA RESULT:      -6.1      2.435      6.074
  Name = 
  13 active torsions:
  status: ('A' for Active; 'I' for Inactive)
    1  A    between atoms: O_1  and  C_5
    2  A    between atoms: O_1  and  C_42
    3  A    between atoms: N_2  and  C_40
    4  A    between atoms: C_5  and  C_22
    5  A    between atoms: C_5  and  C_24
    6  A    between atoms: C_10  and  C_27
    7  A    between atoms: C_11  and  C_41
    8  A    between atoms: C_12  and  O_30
    9  A    between atoms: C_12  and  C_32
   10  A    between atoms: C_12  and  C_33
   11  A    between atoms: C_20  and  C_21
   12  A    between atoms: C_21  and  C_41
   13  A    between atoms: C_22  and  C_38
                            x       y       z     vdW  Elec       q    Type
                         _______ _______ _______ _____ _____    ______ ____

>  <TORSDO>
F 13

$$$$
=
 OpenBabel11042419053D

 43 46  0  0  1  0  0  0  0  0999 V2000
  193.0560  173.6430  140.8860 O   0  0  0  0  0  0  0  0  0  0  0  0
  190.2720  173.4010  144.6030 O   0  0  0  0  0  0  0  0  0  0  0  0
  190.3470  174.6560  145.2230 C   0  0  2  0  0  3  0  0  0  0  0  0
  192.2300  175.7820  146.4050 O   0  0  0  0  0  1  0  0  0  0  0  0
  189.4160  173.5090  143.5940 O   0  0  0  0  0  0  0  0  0  0  0  0
  192.5140  174.3360  142.9280 C   0  0  0  0  0  0  0  0  0  0  0  0
  193.5550  174.0590  142.0330 C   0  0  0  0  0  0  0  0  0  0  0  0
  191.3590  174.0400  142.2200 C   0  0  0  0  0  0  0  0  0  0  0  0
  191.7840  175.1120  145.2720 C   0  0  0  0  0  0  0  0  0  0  0  0
  190.0190  174.2760  142.6410 N   0  0  0  0  0  2  0  0  0  0  0  0
  191.7480  173.6400  140.9690 C   0  0  0  0  0  0  0  0  0  0  0  0
  192.6700  174.9410  144.2770 C   0  0  0  0  0  3  0  0  0  0  0  0
  195.7470  175.1960  141.5950 C   0  0  0  0  0  3  0  0  0  0  0  0
  195.0150  174.2040  142.2660 C   0  0  0  0  0  0  0  0  0  0  0  0
  197.1220  175.3290  141.7940 C   0  0  0  0  0  3  0  0  0  0  0  0
  197.7860  174.4720  142.6680 C   0  0  0  0  0  3  0  0  0  0  0  0
  195.6940  173.3400  143.1530 C   0  0  0  0  0  0  0  0  0  0  0  0
  197.0770  173.4750  143.3530 C   0  0  0  0  0  0  0  0  0  0  0  0
  195.0150  172.3770  143.8330 F   0  0  0  0  0  0  0  0  0  0  0  0
  197.7920  172.5470  144.2920 C   0  0  2  0  0  3  0  0  0  0  0  0
  197.5240  170.4450  144.9470 C   0  0  0  0  0  1  0  0  0  0  0  0
  197.7390  171.2320  143.8150 O   0  0  0  0  0  0  0  0  0  0  0  0
  197.1900  172.6290  145.6610 C   0  0  0  0  0  3  0  0  0  0  0  0
  197.1280  173.7910  146.3050 C   0  0  0  0  0  2  0  0  0  0  0  0
  190.8610  173.2800  139.9060 N   0  0  0  0  0  2  0  0  0  0  0  0
  190.2280  172.0030  139.7890 C   0  0  0  0  0  0  0  0  0  0  0  0
  189.3230  171.7390  138.6390 C   0  0  0  0  0  1  0  0  0  0  0  0
  190.4240  171.1000  140.6440 O   0  0  0  0  0  0  0  0  0  0  0  0
  189.7360  174.5700  146.6180 C   0  0  0  0  0  2  0  0  0  0  0  0
  188.5740  175.5420  146.7700 C   0  0  0  0  0  2  0  0  0  0  0  0
  188.3020  176.2590  145.4890 C   0  0  0  0  0  3  0  0  0  0  0  0
  187.7570  177.4670  145.4960 C   0  0  0  0  0  3  0  0  0  0  0  0
  187.5180  178.1330  144.2950 O   0  0  0  0  0  0  0  0  0  0  0  0
  186.2250  178.1620  143.6910 C   0  0  1  0  0  3  0  0  0  0  0  0
  185.7710  177.9460  140.1890 C   0  0  0  0  0  2  0  0  0  0  0  0
  185.0800  177.8030  141.5060 C   0  0  0  0  0  2  0  0  0  0  0  0
  186.2240  177.3880  142.3740 C   0  0  1  0  0  3  0  0  0  0  0  0
  187.3750  177.6900  141.6360 O   0  0  0  0  0  0  0  0  0  0  0  0
  187.0620  177.4310  140.3710 O   0  0  0  0  0  0  0  0  0  0  0  0
  185.1650  177.6220  144.6490 C   0  0  0  0  0  2  0  0  0  0  0  0
  183.7160  178.6620  146.2300 O   0  0  0  0  0  1  0  0  0  0  0  0
  183.9990  179.7900  144.2550 O   0  0  0  0  0  0  0  0  0  0  0  0
  184.2470  178.7100  145.0910 C   0  0  0  0  0  0  0  0  0  0  0  0
  1 11  1  0  0  0  0
  1  7  1  0  0  0  0
  2  3  1  0  0  0  0
  3  9  1  0  0  0  0
  3 29  1  1  0  0  0
  5  2  1  0  0  0  0
  6 12  1  0  0  0  0
  7 14  1  0  0  0  0
  7  6  2  0  0  0  0
  8 10  1  0  0  0  0
  8  6  1  0  0  0  0
  9  4  1  0  0  0  0
 10  5  1  0  0  0  0
 11  8  2  0  0  0  0
 12  9  2  0  0  0  0
 13 15  2  0  0  0  0
 13 14  1  0  0  0  0
 14 17  2  0  0  0  0
 15 16  1  0  0  0  0
 16 18  2  0  0  0  0
 17 18  1  0  0  0  0
 17 19  1  0  0  0  0
 18 20  1  0  0  0  0
 20 23  1  1  0  0  0
 22 20  1  0  0  0  0
 22 21  1  0  0  0  0
 23 24  2  0  0  0  0
 25 11  1  0  0  0  0
 26 25  1  0  0  0  0
 26 28  2  0  0  0  0
 27 26  1  0  0  0  0
 29 30  1  0  0  0  0
 31 32  2  0  0  0  0
 31 30  1  0  0  0  0
 33 32  1  0  0  0  0
 34 33  1  0  0  0  0
 34 40  1  1  0  0  0
 35 39  1  0  0  0  0
 35 36  1  0  0  0  0
 36 37  1  0  0  0  0
 37 34  1  1  0  0  0
 38 37  1  0  0  0  0
 39 38  1  0  0  0  0
 40 43  1  0  0  0  0
 42 43  2  0  0  0  0
 43 41  1  0  0  0  0
M  END
>  <MODEL>
6

>  <REMARK>
 VINA RESULT:      -6.0      2.831      8.237
  Name = 
  13 active torsions:
  status: ('A' for Active; 'I' for Inactive)
    1  A    between atoms: O_1  and  C_5
    2  A    between atoms: O_1  and  C_42
    3  A    between atoms: N_2  and  C_40
    4  A    between atoms: C_5  and  C_22
    5  A    between atoms: C_5  and  C_24
    6  A    between atoms: C_10  and  C_27
    7  A    between atoms: C_11  and  C_41
    8  A    between atoms: C_12  and  O_30
    9  A    between atoms: C_12  and  C_32
   10  A    between atoms: C_12  and  C_33
   11  A    between atoms: C_20  and  C_21
   12  A    between atoms: C_21  and  C_41
   13  A    between atoms: C_22  and  C_38
                            x       y       z     vdW  Elec       q    Type
                         _______ _______ _______ _____ _____    ______ ____

>  <TORSDO>
F 13

$$$$
=
 OpenBabel11042419053D

 43 46  0  0  1  0  0  0  0  0999 V2000
  188.8310  176.5090  143.4830 O   0  0  0  0  0  0  0  0  0  0  0  0
  190.2560  173.6460  140.1070 O   0  0  0  0  0  0  0  0  0  0  0  0
  189.9550  172.3500  140.5470 C   0  0  2  0  0  3  0  0  0  0  0  0
  190.8990  171.0030  142.4200 O   0  0  0  0  0  1  0  0  0  0  0  0
  189.1390  174.1640  139.6090 O   0  0  0  0  0  0  0  0  0  0  0  0
  189.5520  174.5060  142.8400 C   0  0  0  0  0  0  0  0  0  0  0  0
  189.5720  175.4800  143.8460 C   0  0  0  0  0  0  0  0  0  0  0  0
  188.7480  175.0470  141.8480 C   0  0  0  0  0  0  0  0  0  0  0  0
  190.3430  172.2050  141.9970 C   0  0  0  0  0  0  0  0  0  0  0  0
  188.3040  174.3950  140.6620 N   0  0  0  0  0  2  0  0  0  0  0  0
  188.3170  176.2660  142.3020 C   0  0  0  0  0  0  0  0  0  0  0  0
  190.1640  173.1540  142.9310 C   0  0  0  0  0  3  0  0  0  0  0  0
  189.6030  175.0090  146.3090 C   0  0  0  0  0  3  0  0  0  0  0  0
  190.2790  175.4230  145.1510 C   0  0  0  0  0  0  0  0  0  0  0  0
  190.2540  174.9680  147.5420 C   0  0  0  0  0  3  0  0  0  0  0  0
  191.5930  175.3410  147.6360 C   0  0  0  0  0  3  0  0  0  0  0  0
  191.6370  175.7970  145.2530 C   0  0  0  0  0  0  0  0  0  0  0  0
  192.2920  175.7560  146.4940 C   0  0  0  0  0  0  0  0  0  0  0  0
  192.3300  176.1890  144.1490 F   0  0  0  0  0  0  0  0  0  0  0  0
  193.7340  176.1630  146.5940 C   0  0  2  0  0  3  0  0  0  0  0  0
  194.9430  177.5890  145.4010 C   0  0  0  0  0  1  0  0  0  0  0  0
  193.8790  177.5240  146.3030 O   0  0  0  0  0  0  0  0  0  0  0  0
  194.5710  175.3380  145.6650 C   0  0  0  0  0  3  0  0  0  0  0  0
  195.5230  174.5390  146.1390 C   0  0  0  0  0  2  0  0  0  0  0  0
  187.4310  177.1410  141.6000 N   0  0  0  0  0  2  0  0  0  0  0  0
  186.0690  177.3700  141.9710 C   0  0  0  0  0  0  0  0  0  0  0  0
  185.2390  178.3050  141.1650 C   0  0  0  0  0  1  0  0  0  0  0  0
  185.5630  176.7930  142.9690 O   0  0  0  0  0  0  0  0  0  0  0  0
  190.6770  171.3340  139.6670 C   0  0  0  0  0  2  0  0  0  0  0  0
  191.7650  172.0020  138.8380 C   0  0  0  0  0  2  0  0  0  0  0  0
  193.1030  171.8440  139.4810 C   0  0  0  0  0  3  0  0  0  0  0  0
  193.6550  172.8500  140.1440 C   0  0  0  0  0  3  0  0  0  0  0  0
  194.8990  172.6890  140.7510 O   0  0  0  0  0  0  0  0  0  0  0  0
  195.1200  173.0220  142.1220 C   0  0  1  0  0  3  0  0  0  0  0  0
  196.5950  175.9310  140.7500 C   0  0  0  0  0  2  0  0  0  0  0  0
  196.8380  174.4920  141.0720 C   0  0  0  0  0  2  0  0  0  0  0  0
  195.9270  174.3140  142.2430 C   0  0  1  0  0  3  0  0  0  0  0  0
  195.0710  175.4220  142.2160 O   0  0  0  0  0  0  0  0  0  0  0  0
  195.8210  176.4370  141.8020 O   0  0  0  0  0  0  0  0  0  0  0  0
  193.7960  173.1260  142.8770 C   0  0  0  0  0  2  0  0  0  0  0  0
  194.6700  171.3170  144.1610 O   0  0  0  0  0  0  0  0  0  0  0  0
  192.7920  172.3190  145.0110 O   0  0  0  0  0  1  0  0  0  0  0  0
  193.7780  172.1970  144.0420 C   0  0  0  0  0  0  0  0  0  0  0  0
  1  7  1  0  0  0  0
  2  3  1  0  0  0  0
  3 29  1  6  0  0  0
  3  9  1  0  0  0  0
  5  2  1  0  0  0  0
  5 10  1  0  0  0  0
  6 12  1  0  0  0  0
  6  7  2  0  0  0  0
  7 14  1  0  0  0  0
  8 11  2  0  0  0  0
  8  6  1  0  0  0  0
  9  4  1  0  0  0  0
  9 12  2  0  0  0  0
 10  8  1  0  0  0  0
 11  1  1  0  0  0  0
 13 15  1  0  0  0  0
 14 17  1  0  0  0  0
 14 13  2  0  0  0  0
 15 16  2  0  0  0  0
 17 18  2  0  0  0  0
 18 20  1  0  0  0  0
 18 16  1  0  0  0  0
 19 17  1  0  0  0  0
 20 23  1  6  0  0  0
 21 22  1  0  0  0  0
 22 20  1  0  0  0  0
 23 24  2  0  0  0  0
 25 26  1  0  0  0  0
 25 11  1  0  0  0  0
 26 28  2  0  0  0  0
 27 26  1  0  0  0  0
 30 31  1  0  0  0  0
 30 29  1  0  0  0  0
 31 32  2  0  0  0  0
 32 33  1  0  0  0  0
 33 34  1  0  0  0  0
 34 40  1  1  0  0  0
 35 36  1  0  0  0  0
 35 39  1  0  0  0  0
 36 37  1  0  0  0  0
 37 34  1  6  0  0  0
 38 37  1  0  0  0  0
 39 38  1  0  0  0  0
 40 43  1  0  0  0  0
 43 41  2  0  0  0  0
 43 42  1  0  0  0  0
M  END
>  <MODEL>
7

>  <REMARK>
 VINA RESULT:      -6.0      2.546      5.308
  Name = 
  13 active torsions:
  status: ('A' for Active; 'I' for Inactive)
    1  A    between atoms: O_1  and  C_5
    2  A    between atoms: O_1  and  C_42
    3  A    between atoms: N_2  and  C_40
    4  A    between atoms: C_5  and  C_22
    5  A    between atoms: C_5  and  C_24
    6  A    between atoms: C_10  and  C_27
    7  A    between atoms: C_11  and  C_41
    8  A    between atoms: C_12  and  O_30
    9  A    between atoms: C_12  and  C_32
   10  A    between atoms: C_12  and  C_33
   11  A    between atoms: C_20  and  C_21
   12  A    between atoms: C_21  and  C_41
   13  A    between atoms: C_22  and  C_38
                            x       y       z     vdW  Elec       q    Type
                         _______ _______ _______ _____ _____    ______ ____

>  <TORSDO>
F 13

$$$$
=
 OpenBabel11042419053D

 43 46  0  0  1  0  0  0  0  0999 V2000
  187.7940  175.9420  140.3630 O   0  0  0  0  0  0  0  0  0  0  0  0
  190.6990  172.3110  140.3960 O   0  0  0  0  0  0  0  0  0  0  0  0
  190.1640  171.3970  141.3150 C   0  0  2  0  0  3  0  0  0  0  0  0
  189.9150  171.5290  143.7910 O   0  0  0  0  0  1  0  0  0  0  0  0
  190.0390  172.1560  139.2540 O   0  0  0  0  0  0  0  0  0  0  0  0
  188.6760  174.1970  141.4230 C   0  0  0  0  0  0  0  0  0  0  0  0
  188.1900  175.5060  141.5430 C   0  0  0  0  0  0  0  0  0  0  0  0
  188.5450  173.9000  140.0750 C   0  0  0  0  0  0  0  0  0  0  0  0
  189.7130  172.1290  142.5540 C   0  0  0  0  0  0  0  0  0  0  0  0
  188.7790  172.6400  139.4540 N   0  0  0  0  0  2  0  0  0  0  0  0
  187.9810  174.9960  139.4760 C   0  0  0  0  0  0  0  0  0  0  0  0
  189.0970  173.3230  142.5490 C   0  0  0  0  0  3  0  0  0  0  0  0
  189.2480  176.7940  143.4170 C   0  0  0  0  0  3  0  0  0  0  0  0
  188.0890  176.3260  142.7770 C   0  0  0  0  0  0  0  0  0  0  0  0
  189.1640  177.5510  144.5860 C   0  0  0  0  0  3  0  0  0  0  0  0
  187.9200  177.8520  145.1340 C   0  0  0  0  0  3  0  0  0  0  0  0
  186.8300  176.6370  143.3360 C   0  0  0  0  0  0  0  0  0  0  0  0
  186.7470  177.3990  144.5130 C   0  0  0  0  0  0  0  0  0  0  0  0
  185.6840  176.2150  142.7360 F   0  0  0  0  0  0  0  0  0  0  0  0
  185.4050  177.7190  145.1050 C   0  0  2  0  0  3  0  0  0  0  0  0
  184.0360  179.0420  143.9680 C   0  0  0  0  0  1  0  0  0  0  0  0
  185.0830  179.0630  144.8910 O   0  0  0  0  0  0  0  0  0  0  0  0
  185.3980  177.4070  146.5710 C   0  0  0  0  0  3  0  0  0  0  0  0
  184.9420  178.2940  147.4500 C   0  0  0  0  0  2  0  0  0  0  0  0
  187.6380  175.0940  138.0910 N   0  0  0  0  0  2  0  0  0  0  0  0
  186.6920  176.0270  137.5640 C   0  0  0  0  0  0  0  0  0  0  0  0
  186.4130  176.0400  136.1040 C   0  0  0  0  0  1  0  0  0  0  0  0
  186.0910  176.8380  138.3170 O   0  0  0  0  0  0  0  0  0  0  0  0
  191.2070  170.3330  141.6380 C   0  0  0  0  0  2  0  0  0  0  0  0
  192.5530  170.6750  141.0130 C   0  0  0  0  0  2  0  0  0  0  0  0
  193.5110  171.1760  142.0420 C   0  0  0  0  0  3  0  0  0  0  0  0
  193.7740  172.4710  142.1430 C   0  0  0  0  0  3  0  0  0  0  0  0
  194.6620  172.9310  143.1160 O   0  0  0  0  0  0  0  0  0  0  0  0
  194.2420  173.7890  144.1770 C   0  0  1  0  0  3  0  0  0  0  0  0
  196.8150  172.1420  145.9630 C   0  0  0  0  0  2  0  0  0  0  0  0
  195.3880  172.0370  145.5320 C   0  0  0  0  0  2  0  0  0  0  0  0
  195.0160  173.4830  145.4590 C   0  0  1  0  0  3  0  0  0  0  0  0
  196.2310  174.1780  145.4670 O   0  0  0  0  0  0  0  0  0  0  0  0
  197.0250  173.4910  146.2800 O   0  0  0  0  0  0  0  0  0  0  0  0
  194.3900  175.2560  143.7800 C   0  0  0  0  0  2  0  0  0  0  0  0
  192.3290  175.8090  144.8440 O   0  0  0  0  0  1  0  0  0  0  0  0
  192.6840  176.7900  142.8040 O   0  0  0  0  0  0  0  0  0  0  0  0
  193.0750  175.9550  143.8420 C   0  0  0  0  0  0  0  0  0  0  0  0
  1  7  1  0  0  0  0
  2  3  1  0  0  0  0
  3 29  1  1  0  0  0
  3  9  1  0  0  0  0
  5 10  1  0  0  0  0
  5  2  1  0  0  0  0
  6  7  2  0  0  0  0
  6 12  1  0  0  0  0
  7 14  1  0  0  0  0
  8  6  1  0  0  0  0
  9  4  1  0  0  0  0
 10  8  1  0  0  0  0
 11  8  2  0  0  0  0
 11  1  1  0  0  0  0
 12  9  2  0  0  0  0
 13 15  1  0  0  0  0
 14 17  1  0  0  0  0
 14 13  2  0  0  0  0
 15 16  2  0  0  0  0
 17 18  2  0  0  0  0
 18 20  1  0  0  0  0
 18 16  1  0  0  0  0
 19 17  1  0  0  0  0
 20 23  1  1  0  0  0
 21 22  1  0  0  0  0
 22 20  1  0  0  0  0
 23 24  2  0  0  0  0
 25 11  1  0  0  0  0
 26 25  1  0  0  0  0
 26 28  2  0  0  0  0
 27 26  1  0  0  0  0
 30 29  1  0  0  0  0
 30 31  1  0  0  0  0
 31 32  2  0  0  0  0
 32 33  1  0  0  0  0
 33 34  1  0  0  0  0
 34 40  1  6  0  0  0
 35 39  1  0  0  0  0
 36 35  1  0  0  0  0
 37 34  1  6  0  0  0
 37 38  1  0  0  0  0
 37 36  1  0  0  0  0
 38 39  1  0  0  0  0
 40 43  1  0  0  0  0
 42 43  2  0  0  0  0
 43 41  1  0  0  0  0
M  END
>  <MODEL>
8

>  <REMARK>
 VINA RESULT:      -6.0      1.672      2.172
  Name = 
  13 active torsions:
  status: ('A' for Active; 'I' for Inactive)
    1  A    between atoms: O_1  and  C_5
    2  A    between atoms: O_1  and  C_42
    3  A    between atoms: N_2  and  C_40
    4  A    between atoms: C_5  and  C_22
    5  A    between atoms: C_5  and  C_24
    6  A    between atoms: C_10  and  C_27
    7  A    between atoms: C_11  and  C_41
    8  A    between atoms: C_12  and  O_30
    9  A    between atoms: C_12  and  C_32
   10  A    between atoms: C_12  and  C_33
   11  A    between atoms: C_20  and  C_21
   12  A    between atoms: C_21  and  C_41
   13  A    between atoms: C_22  and  C_38
                            x       y       z     vdW  Elec       q    Type
                         _______ _______ _______ _____ _____    ______ ____

>  <TORSDO>
F 13

$$$$
=
 OpenBabel11042419053D

 43 46  0  0  1  0  0  0  0  0999 V2000
  192.4370  174.1930  141.2200 O   0  0  0  0  0  0  0  0  0  0  0  0
  189.8310  173.5950  145.0250 O   0  0  0  0  0  0  0  0  0  0  0  0
  189.8840  174.8090  145.7240 C   0  0  2  0  0  3  0  0  0  0  0  0
  191.7730  175.9340  146.8980 O   0  0  0  0  0  1  0  0  0  0  0  0
  188.9280  173.7320  144.0620 O   0  0  0  0  0  0  0  0  0  0  0  0
  191.9590  174.7290  143.3250 C   0  0  0  0  0  0  0  0  0  0  0  0
  192.9700  174.5540  142.3700 C   0  0  0  0  0  0  0  0  0  0  0  0
  190.7870  174.4310  142.6470 C   0  0  0  0  0  0  0  0  0  0  0  0
  191.3030  175.3210  145.7430 C   0  0  0  0  0  0  0  0  0  0  0  0
  189.4580  174.5830  143.1370 N   0  0  0  0  0  2  0  0  0  0  0  0
  191.1350  174.1290  141.3570 C   0  0  0  0  0  0  0  0  0  0  0  0
  192.1500  175.2520  144.7030 C   0  0  0  0  0  3  0  0  0  0  0  0
  195.0600  175.9120  142.0900 C   0  0  0  0  0  3  0  0  0  0  0  0
  194.4320  174.7450  142.5520 C   0  0  0  0  0  0  0  0  0  0  0  0
  196.4340  176.0930  142.2410 C   0  0  0  0  0  3  0  0  0  0  0  0
  197.2040  175.1080  142.8560 C   0  0  0  0  0  3  0  0  0  0  0  0
  195.2170  173.7510  143.1770 C   0  0  0  0  0  0  0  0  0  0  0  0
  196.6020  173.9340  143.3280 C   0  0  0  0  0  0  0  0  0  0  0  0
  194.6420  172.6130  143.6510 F   0  0  0  0  0  0  0  0  0  0  0  0
  197.4300  172.8690  143.9860 C   0  0  2  0  0  3  0  0  0  0  0  0
  197.7410  170.6850  144.2190 C   0  0  0  0  0  1  0  0  0  0  0  0
  197.2750  171.6480  143.3210 O   0  0  0  0  0  0  0  0  0  0  0  0
  197.0460  172.7300  145.4280 C   0  0  0  0  0  3  0  0  0  0  0  0
  197.0400  173.7880  146.2320 C   0  0  0  0  0  2  0  0  0  0  0  0
  190.2170  173.8020  140.3100 N   0  0  0  0  0  2  0  0  0  0  0  0
  189.7530  172.4770  140.0370 C   0  0  0  0  0  0  0  0  0  0  0  0
  188.7970  172.2540  138.9200 C   0  0  0  0  0  1  0  0  0  0  0  0
  190.1420  171.4980  140.7260 O   0  0  0  0  0  0  0  0  0  0  0  0
  189.3400  174.6080  147.1340 C   0  0  0  0  0  2  0  0  0  0  0  0
  188.1900  175.5640  147.4210 C   0  0  0  0  0  2  0  0  0  0  0  0
  188.0560  176.5830  146.3380 C   0  0  0  0  0  3  0  0  0  0  0  0
  186.8600  177.0100  145.9590 C   0  0  0  0  0  3  0  0  0  0  0  0
  186.7460  177.9700  144.9550 O   0  0  0  0  0  0  0  0  0  0  0  0
  186.3780  177.6270  143.6190 C   0  0  1  0  0  3  0  0  0  0  0  0
  183.1760  179.0630  143.1680 C   0  0  0  0  0  2  0  0  0  0  0  0
  184.1800  178.6530  144.1960 C   0  0  0  0  0  2  0  0  0  0  0  0
  184.8590  177.5280  143.4830 C   0  0  1  0  0  3  0  0  0  0  0  0
  184.4850  177.6620  142.1410 O   0  0  0  0  0  0  0  0  0  0  0  0
  183.2260  178.0850  142.1660 O   0  0  0  0  0  0  0  0  0  0  0  0
  186.9560  178.6290  142.6210 C   0  0  0  0  0  2  0  0  0  0  0  0
  189.1320  177.8880  141.9890 O   0  0  0  0  0  1  0  0  0  0  0  0
  187.4500  177.3910  140.5150 O   0  0  0  0  0  0  0  0  0  0  0  0
  187.9110  177.9600  141.6940 C   0  0  0  0  0  0  0  0  0  0  0  0
  1 11  1  0  0  0  0
  1  7  1  0  0  0  0
  2  3  1  0  0  0  0
  3  9  1  0  0  0  0
  3 29  1  1  0  0  0
  5  2  1  0  0  0  0
  6 12  1  0  0  0  0
  7 14  1  0  0  0  0
  7  6  2  0  0  0  0
  8 10  1  0  0  0  0
  8  6  1  0  0  0  0
  9  4  1  0  0  0  0
 10  5  1  0  0  0  0
 11  8  2  0  0  0  0
 12  9  2  0  0  0  0
 13 15  2  0  0  0  0
 13 14  1  0  0  0  0
 14 17  2  0  0  0  0
 15 16  1  0  0  0  0
 16 18  2  0  0  0  0
 17 18  1  0  0  0  0
 17 19  1  0  0  0  0
 18 20  1  0  0  0  0
 20 23  1  1  0  0  0
 22 20  1  0  0  0  0
 22 21  1  0  0  0  0
 23 24  2  0  0  0  0
 25 11  1  0  0  0  0
 26 25  1  0  0  0  0
 26 28  2  0  0  0  0
 27 26  1  0  0  0  0
 29 30  1  0  0  0  0
 31 30  1  0  0  0  0
 32 31  2  0  0  0  0
 33 32  1  0  0  0  0
 34 40  1  6  0  0  0
 34 33  1  0  0  0  0
 35 36  1  0  0  0  0
 37 34  1  6  0  0  0
 37 36  1  0  0  0  0
 38 39  1  0  0  0  0
 38 37  1  0  0  0  0
 39 35  1  0  0  0  0
 42 43  2  0  0  0  0
 43 41  1  0  0  0  0
 43 40  1  0  0  0  0
M  END
>  <MODEL>
9

>  <REMARK>
 VINA RESULT:      -5.9      2.785      8.296
  Name = 
  13 active torsions:
  status: ('A' for Active; 'I' for Inactive)
    1  A    between atoms: O_1  and  C_5
    2  A    between atoms: O_1  and  C_42
    3  A    between atoms: N_2  and  C_40
    4  A    between atoms: C_5  and  C_22
    5  A    between atoms: C_5  and  C_24
    6  A    between atoms: C_10  and  C_27
    7  A    between atoms: C_11  and  C_41
    8  A    between atoms: C_12  and  O_30
    9  A    between atoms: C_12  and  C_32
   10  A    between atoms: C_12  and  C_33
   11  A    between atoms: C_20  and  C_21
   12  A    between atoms: C_21  and  C_41
   13  A    between atoms: C_22  and  C_38
                            x       y       z     vdW  Elec       q    Type
                         _______ _______ _______ _____ _____    ______ ____

>  <TORSDO>
F 13

$$$$
