=
 OpenBabel11042418533D

 27 31  0  0  1  0  0  0  0  0999 V2000
  189.1480  173.1750  141.0790 C   0  0  0  0  0  3  0  0  0  0  0  0
  188.0070  173.8960  141.4840 C   0  0  0  0  0  3  0  0  0  0  0  0
  189.6710  176.0830  144.1760 C   0  0  1  0  0  3  0  0  0  0  0  0
  190.4550  174.3890  142.6770 C   0  0  0  0  0  0  0  0  0  0  0  0
  192.0340  176.3680  145.2490 C   0  0  0  0  0  3  0  0  0  0  0  0
  197.5750  174.6930  144.3620 N   0  0  0  0  0  1  0  0  0  0  0  0
  196.2940  175.2880  144.2050 C   0  0  0  0  0  0  0  0  0  0  0  0
  196.2040  176.5280  144.0010 O   0  0  0  0  0  0  0  0  0  0  0  0
  193.7780  174.9520  144.2850 C   0  0  0  0  0  0  0  0  0  0  0  0
  194.2970  176.4810  146.2610 C   0  0  0  0  0  1  0  0  0  0  0  0
  188.0970  174.8690  142.4940 C   0  0  0  0  0  3  0  0  0  0  0  0
  190.3940  173.4180  141.6810 C   0  0  0  0  0  3  0  0  0  0  0  0
  195.1250  174.4640  144.2310 N   0  0  0  0  0  2  0  0  0  0  0  0
  189.3420  175.1040  143.0800 C   0  0  0  0  0  0  0  0  0  0  0  0
  192.8560  174.4040  143.4390 N   0  0  0  0  0  0  0  0  0  0  0  0
  193.3690  175.9390  145.2280 C   0  0  0  0  0  0  0  0  0  0  0  0
  191.5720  174.8370  143.4680 C   0  0  0  0  0  0  0  0  0  0  0  0
  191.1430  175.8090  144.3400 C   0  0  0  0  0  0  0  0  0  0  0  0
  189.4680  177.4420  143.6950 N   0  0  0  0  0  2  0  0  0  0  0  0
  186.9560  178.4650  143.8670 C   0  0  0  0  0  0  0  0  0  0  0  0
  185.1420  178.3020  145.8550 C   0  0  0  0  0  0  0  0  0  0  0  0
  186.3640  177.6850  146.1200 N   0  0  0  0  0  0  0  0  0  0  0  0
  184.8570  178.9940  144.5810 C   0  0  0  0  0  3  0  0  0  0  0  0
  184.1260  178.2660  146.8490 N   0  0  0  0  0  1  0  0  0  0  0  0
  187.1640  177.8370  145.0680 C   0  0  0  0  0  0  0  0  0  0  0  0
  188.1950  177.8470  144.1170 N   0  0  0  0  0  0  0  0  0  0  0  0
  185.8080  179.0980  143.4940 C   0  0  0  0  0  3  0  0  0  0  0  0
  1  2  2  0  0  0  0
  1 12  1  0  0  0  0
  2 11  1  0  0  0  0
  3 19  1  6  0  0  0
  3 18  1  0  0  0  0
  4 14  1  0  0  0  0
  4 17  1  0  0  0  0
  7 13  1  0  0  0  0
  7  6  1  0  0  0  0
  8  7  2  0  0  0  0
  9 16  1  0  0  0  0
 11 14  2  0  0  0  0
 12  4  2  0  0  0  0
 13  9  1  0  0  0  0
 14  3  1  0  0  0  0
 15 17  1  0  0  0  0
 15  9  2  0  0  0  0
 16  5  2  0  0  0  0
 16 10  1  0  0  0  0
 17 18  2  0  0  0  0
 18  5  1  0  0  0  0
 19 26  1  0  0  0  0
 20 26  1  0  0  0  0
 20 25  1  0  0  0  0
 21 22  1  0  0  0  0
 21 24  1  0  0  0  0
 23 21  2  0  0  0  0
 25 22  2  0  0  0  0
 26 25  1  0  0  0  0
 27 20  2  0  0  0  0
 27 23  1  0  0  0  0
M  END
>  <MODEL>
1

>  <REMARK>
 VINA RESULT:      -7.6      0.000      0.000
  Name = 
  2 active torsions:
  status: ('A' for Active; 'I' for Inactive)
    1  A    between atoms: C_3  and  N_12
    2  A    between atoms: N_12  and  N_23
                            x       y       z     vdW  Elec       q    Type
                         _______ _______ _______ _____ _____    ______ ____

>  <TORSDO>
F 2

$$$$
=
 OpenBabel11042418533D

 27 31  0  0  1  0  0  0  0  0999 V2000
  193.6210  175.8050  146.5100 C   0  0  0  0  0  3  0  0  0  0  0  0
  192.7360  176.5340  147.3280 C   0  0  0  0  0  3  0  0  0  0  0  0
  189.6280  176.3500  145.0680 C   0  0  1  0  0  3  0  0  0  0  0  0
  191.8680  175.5200  144.9030 C   0  0  0  0  0  0  0  0  0  0  0  0
  188.9950  175.3950  142.7230 C   0  0  0  0  0  3  0  0  0  0  0  0
  191.1820  171.8510  138.6040 N   0  0  0  0  0  1  0  0  0  0  0  0
  190.6640  172.3540  139.8280 C   0  0  0  0  0  0  0  0  0  0  0  0
  189.6650  171.7990  140.3570 O   0  0  0  0  0  0  0  0  0  0  0  0
  190.7890  174.1790  141.5900 C   0  0  0  0  0  0  0  0  0  0  0  0
  188.5380  174.5320  140.4410 C   0  0  0  0  0  1  0  0  0  0  0  0
  191.4080  176.7550  146.9260 C   0  0  0  0  0  3  0  0  0  0  0  0
  193.1900  175.2890  145.2760 C   0  0  0  0  0  3  0  0  0  0  0  0
  191.3150  173.4540  140.4710 N   0  0  0  0  0  2  0  0  0  0  0  0
  190.9900  176.2320  145.7010 C   0  0  0  0  0  0  0  0  0  0  0  0
  191.6220  174.4430  142.6400 N   0  0  0  0  0  0  0  0  0  0  0  0
  189.4540  174.6750  141.6090 C   0  0  0  0  0  0  0  0  0  0  0  0
  191.1590  175.1310  143.7120 C   0  0  0  0  0  0  0  0  0  0  0  0
  189.8690  175.6010  143.7840 C   0  0  0  0  0  0  0  0  0  0  0  0
  188.6480  175.6420  145.8800 N   0  0  0  0  0  2  0  0  0  0  0  0
  186.3550  177.0040  146.3980 C   0  0  0  0  0  0  0  0  0  0  0  0
  184.6550  178.2520  144.7180 C   0  0  0  0  0  0  0  0  0  0  0  0
  185.7280  177.6100  144.1020 N   0  0  0  0  0  0  0  0  0  0  0  0
  184.4600  178.2520  146.1830 C   0  0  0  0  0  3  0  0  0  0  0  0
  183.7070  178.9360  143.9080 N   0  0  0  0  0  1  0  0  0  0  0  0
  186.4840  177.0370  145.0330 C   0  0  0  0  0  0  0  0  0  0  0  0
  187.4440  176.3510  145.7930 N   0  0  0  0  0  0  0  0  0  0  0  0
  185.3540  177.5930  147.1110 C   0  0  0  0  0  3  0  0  0  0  0  0
  1  2  1  0  0  0  0
  3 14  1  0  0  0  0
  3 19  1  1  0  0  0
  4 12  1  0  0  0  0
  4 14  2  0  0  0  0
  5 18  1  0  0  0  0
  6  7  1  0  0  0  0
  7  8  2  0  0  0  0
  7 13  1  0  0  0  0
  9 16  1  0  0  0  0
  9 15  2  0  0  0  0
 10 16  1  0  0  0  0
 11  2  2  0  0  0  0
 12  1  2  0  0  0  0
 13  9  1  0  0  0  0
 14 11  1  0  0  0  0
 15 17  1  0  0  0  0
 16  5  2  0  0  0  0
 17 18  2  0  0  0  0
 17  4  1  0  0  0  0
 18  3  1  0  0  0  0
 20 27  1  0  0  0  0
 21 23  1  0  0  0  0
 22 21  2  0  0  0  0
 22 25  1  0  0  0  0
 23 27  2  0  0  0  0
 24 21  1  0  0  0  0
 25 26  1  0  0  0  0
 25 20  2  0  0  0  0
 26 19  1  0  0  0  0
 26 20  1  0  0  0  0
M  END
>  <MODEL>
2

>  <REMARK>
 VINA RESULT:      -7.5      2.680      4.888
  Name = 
  2 active torsions:
  status: ('A' for Active; 'I' for Inactive)
    1  A    between atoms: C_3  and  N_12
    2  A    between atoms: N_12  and  N_23
                            x       y       z     vdW  Elec       q    Type
                         _______ _______ _______ _____ _____    ______ ____

>  <TORSDO>
F 2

$$$$
=
 OpenBabel11042418533D

 27 31  0  0  1  0  0  0  0  0999 V2000
  184.1190  178.8190  144.1290 C   0  0  0  0  0  3  0  0  0  0  0  0
  183.9640  178.2910  142.8320 C   0  0  0  0  0  3  0  0  0  0  0  0
  187.4380  176.6770  142.4830 C   0  0  1  0  0  3  0  0  0  0  0  0
  186.3380  177.9210  144.2070 C   0  0  0  0  0  0  0  0  0  0  0  0
  189.6330  176.4870  143.8830 C   0  0  0  0  0  3  0  0  0  0  0  0
  191.5760  177.5330  149.3090 N   0  0  0  0  0  1  0  0  0  0  0  0
  190.8590  177.0060  148.2000 C   0  0  0  0  0  0  0  0  0  0  0  0
  190.8400  175.7610  148.0050 O   0  0  0  0  0  0  0  0  0  0  0  0
  189.5330  177.5220  146.0960 C   0  0  0  0  0  0  0  0  0  0  0  0
  191.6970  176.4580  145.2610 C   0  0  0  0  0  1  0  0  0  0  0  0
  185.0070  177.5740  142.2230 C   0  0  0  0  0  3  0  0  0  0  0  0
  185.3210  178.6380  144.8330 C   0  0  0  0  0  3  0  0  0  0  0  0
  190.1260  177.8910  147.3480 N   0  0  0  0  0  2  0  0  0  0  0  0
  186.1940  177.3960  142.9350 C   0  0  0  0  0  0  0  0  0  0  0  0
  188.2510  177.9200  145.8450 N   0  0  0  0  0  0  0  0  0  0  0  0
  190.2570  176.8080  145.0980 C   0  0  0  0  0  0  0  0  0  0  0  0
  187.6610  177.5930  144.6690 C   0  0  0  0  0  0  0  0  0  0  0  0
  188.3130  176.8800  143.6910 C   0  0  0  0  0  0  0  0  0  0  0  0
  187.1480  175.2600  142.3110 N   0  0  0  0  0  2  0  0  0  0  0  0
  189.1950  174.1750  140.8900 C   0  0  0  0  0  0  0  0  0  0  0  0
  189.3890  173.6300  138.2570 C   0  0  0  0  0  0  0  0  0  0  0  0
  188.1930  174.2310  138.6480 N   0  0  0  0  0  0  0  0  0  0  0  0
  190.4720  173.3130  139.2100 C   0  0  0  0  0  3  0  0  0  0  0  0
  189.5790  173.3080  136.8840 N   0  0  0  0  0  1  0  0  0  0  0  0
  188.2250  174.4470  139.9600 C   0  0  0  0  0  0  0  0  0  0  0  0
  187.9950  174.7810  141.3030 N   0  0  0  0  0  0  0  0  0  0  0  0
  190.3990  173.5910  140.6300 C   0  0  0  0  0  3  0  0  0  0  0  0
  1 12  1  0  0  0  0
  2  1  2  0  0  0  0
  3 19  1  1  0  0  0
  3 14  1  0  0  0  0
  3 18  1  0  0  0  0
  4 17  1  0  0  0  0
  4 12  2  0  0  0  0
  5 16  2  0  0  0  0
  7  6  1  0  0  0  0
  8  7  2  0  0  0  0
  9 13  1  0  0  0  0
 11  2  1  0  0  0  0
 11 14  2  0  0  0  0
 13  7  1  0  0  0  0
 14  4  1  0  0  0  0
 15  9  2  0  0  0  0
 16 10  1  0  0  0  0
 16  9  1  0  0  0  0
 17 15  1  0  0  0  0
 18  5  1  0  0  0  0
 18 17  2  0  0  0  0
 20 26  1  0  0  0  0
 21 22  2  0  0  0  0
 21 23  1  0  0  0  0
 22 25  1  0  0  0  0
 23 27  2  0  0  0  0
 24 21  1  0  0  0  0
 25 20  2  0  0  0  0
 25 26  1  0  0  0  0
 26 19  1  0  0  0  0
 27 20  1  0  0  0  0
M  END
>  <MODEL>
3

>  <REMARK>
 VINA RESULT:      -7.4      3.277      6.526
  Name = 
  2 active torsions:
  status: ('A' for Active; 'I' for Inactive)
    1  A    between atoms: C_3  and  N_12
    2  A    between atoms: N_12  and  N_23
                            x       y       z     vdW  Elec       q    Type
                         _______ _______ _______ _____ _____    ______ ____

>  <TORSDO>
F 2

$$$$
=
 OpenBabel11042418533D

 27 31  0  0  1  0  0  0  0  0999 V2000
  184.7980  178.1680  143.8600 C   0  0  0  0  0  3  0  0  0  0  0  0
  185.4060  178.7650  144.9820 C   0  0  0  0  0  3  0  0  0  0  0  0
  188.6840  176.7520  144.9630 C   0  0  1  0  0  3  0  0  0  0  0  0
  186.7220  176.7680  143.5900 C   0  0  0  0  0  0  0  0  0  0  0  0
  189.7510  174.8060  143.5880 C   0  0  0  0  0  3  0  0  0  0  0  0
  188.8610  171.8330  138.6200 N   0  0  0  0  0  1  0  0  0  0  0  0
  189.1230  172.8740  139.5530 C   0  0  0  0  0  0  0  0  0  0  0  0
  190.1650  173.5710  139.4320 O   0  0  0  0  0  0  0  0  0  0  0  0
  188.4070  174.0230  141.7020 C   0  0  0  0  0  0  0  0  0  0  0  0
  190.6210  172.8900  142.2730 C   0  0  0  0  0  1  0  0  0  0  0  0
  186.6810  178.3570  145.4070 C   0  0  0  0  0  3  0  0  0  0  0  0
  185.4580  177.1520  143.1490 C   0  0  0  0  0  3  0  0  0  0  0  0
  188.1770  173.1480  140.5900 N   0  0  0  0  0  2  0  0  0  0  0  0
  187.3290  177.3500  144.6890 C   0  0  0  0  0  0  0  0  0  0  0  0
  187.4350  174.9250  142.0280 N   0  0  0  0  0  0  0  0  0  0  0  0
  189.5840  173.9360  142.5000 C   0  0  0  0  0  0  0  0  0  0  0  0
  187.6170  175.7630  143.0770 C   0  0  0  0  0  0  0  0  0  0  0  0
  188.7510  175.7340  143.8550 C   0  0  0  0  0  0  0  0  0  0  0  0
  189.7130  177.7640  144.7720 N   0  0  0  0  0  2  0  0  0  0  0  0
  191.7210  176.4310  146.0290 C   0  0  0  0  0  0  0  0  0  0  0  0
  194.2350  175.9010  145.2130 C   0  0  0  0  0  0  0  0  0  0  0  0
  193.4720  176.6520  144.3200 N   0  0  0  0  0  0  0  0  0  0  0  0
  193.7090  175.4270  146.5100 C   0  0  0  0  0  3  0  0  0  0  0  0
  195.5750  175.5740  144.8650 N   0  0  0  0  0  1  0  0  0  0  0  0
  192.2630  176.8440  144.8380 C   0  0  0  0  0  0  0  0  0  0  0  0
  190.9360  177.1880  145.1400 N   0  0  0  0  0  0  0  0  0  0  0  0
  192.3650  175.6930  146.9760 C   0  0  0  0  0  3  0  0  0  0  0  0
  1  2  1  0  0  0  0
  2 11  2  0  0  0  0
  3 19  1  6  0  0  0
  4 14  2  0  0  0  0
  5 18  1  0  0  0  0
  6  7  1  0  0  0  0
  7 13  1  0  0  0  0
  8  7  2  0  0  0  0
  9 15  2  0  0  0  0
  9 16  1  0  0  0  0
 10 16  1  0  0  0  0
 12  4  1  0  0  0  0
 12  1  2  0  0  0  0
 13  9  1  0  0  0  0
 14  3  1  0  0  0  0
 14 11  1  0  0  0  0
 15 17  1  0  0  0  0
 16  5  2  0  0  0  0
 17  4  1  0  0  0  0
 17 18  2  0  0  0  0
 18  3  1  0  0  0  0
 19 26  1  0  0  0  0
 20 27  1  0  0  0  0
 21 23  1  0  0  0  0
 22 25  1  0  0  0  0
 22 21  2  0  0  0  0
 23 27  2  0  0  0  0
 24 21  1  0  0  0  0
 25 26  1  0  0  0  0
 25 20  2  0  0  0  0
 26 20  1  0  0  0  0
M  END
>  <MODEL>
4

>  <REMARK>
 VINA RESULT:      -7.3      2.685      6.673
  Name = 
  2 active torsions:
  status: ('A' for Active; 'I' for Inactive)
    1  A    between atoms: C_3  and  N_12
    2  A    between atoms: N_12  and  N_23
                            x       y       z     vdW  Elec       q    Type
                         _______ _______ _______ _____ _____    ______ ____

>  <TORSDO>
F 2

$$$$
=
 OpenBabel11042418533D

 27 31  0  0  1  0  0  0  0  0999 V2000
  185.6920  177.3700  143.7630 C   0  0  0  0  0  3  0  0  0  0  0  0
  186.4420  177.8210  144.8680 C   0  0  0  0  0  3  0  0  0  0  0  0
  189.7770  176.1110  143.9980 C   0  0  1  0  0  3  0  0  0  0  0  0
  187.6200  176.1940  142.9630 C   0  0  0  0  0  0  0  0  0  0  0  0
  190.7090  174.5120  142.1580 C   0  0  0  0  0  3  0  0  0  0  0  0
  189.1830  172.3390  136.9370 N   0  0  0  0  0  1  0  0  0  0  0  0
  189.5370  173.2290  137.9870 C   0  0  0  0  0  0  0  0  0  0  0  0
  190.5070  174.0190  137.8340 O   0  0  0  0  0  0  0  0  0  0  0  0
  189.1200  173.9450  140.3880 C   0  0  0  0  0  0  0  0  0  0  0  0
  191.4550  172.9160  140.4090 C   0  0  0  0  0  1  0  0  0  0  0  0
  187.7900  177.4520  145.0160 C   0  0  0  0  0  3  0  0  0  0  0  0
  186.2820  176.5420  142.7930 C   0  0  0  0  0  3  0  0  0  0  0  0
  188.7590  173.2500  139.1870 N   0  0  0  0  0  2  0  0  0  0  0  0
  188.3650  176.6340  144.0420 C   0  0  0  0  0  0  0  0  0  0  0  0
  188.1670  174.6990  141.0110 N   0  0  0  0  0  0  0  0  0  0  0  0
  190.4140  173.8230  140.9710 C   0  0  0  0  0  0  0  0  0  0  0  0
  188.4720  175.3640  142.1520 C   0  0  0  0  0  0  0  0  0  0  0  0
  189.7170  175.2990  142.7310 C   0  0  0  0  0  0  0  0  0  0  0  0
  190.7050  177.2200  143.8350 N   0  0  0  0  0  2  0  0  0  0  0  0
  192.7780  176.5000  145.4380 C   0  0  0  0  0  0  0  0  0  0  0  0
  195.2050  175.5100  144.8050 C   0  0  0  0  0  0  0  0  0  0  0  0
  194.3880  175.8100  143.7160 N   0  0  0  0  0  0  0  0  0  0  0  0
  194.7770  175.7160  146.2040 C   0  0  0  0  0  3  0  0  0  0  0  0
  196.5040  174.9830  144.5650 N   0  0  0  0  0  1  0  0  0  0  0  0
  193.2300  176.2880  144.1610 C   0  0  0  0  0  0  0  0  0  0  0  0
  191.9410  176.8090  144.3510 N   0  0  0  0  0  0  0  0  0  0  0  0
  193.4810  176.2440  146.5770 C   0  0  0  0  0  3  0  0  0  0  0  0
  1  2  1  0  0  0  0
  2 11  2  0  0  0  0
  3 19  1  6  0  0  0
  3 14  1  0  0  0  0
  4 14  2  0  0  0  0
  5 18  1  0  0  0  0
  6  7  1  0  0  0  0
  7 13  1  0  0  0  0
  8  7  2  0  0  0  0
  9 16  1  0  0  0  0
  9 15  2  0  0  0  0
 10 16  1  0  0  0  0
 12  4  1  0  0  0  0
 12  1  2  0  0  0  0
 13  9  1  0  0  0  0
 14 11  1  0  0  0  0
 15 17  1  0  0  0  0
 16  5  2  0  0  0  0
 17 18  2  0  0  0  0
 17  4  1  0  0  0  0
 18  3  1  0  0  0  0
 19 26  1  0  0  0  0
 20 27  1  0  0  0  0
 21 23  1  0  0  0  0
 22 25  1  0  0  0  0
 22 21  2  0  0  0  0
 23 27  2  0  0  0  0
 24 21  1  0  0  0  0
 25 26  1  0  0  0  0
 25 20  2  0  0  0  0
 26 20  1  0  0  0  0
M  END
>  <MODEL>
5

>  <REMARK>
 VINA RESULT:      -7.1      2.957      6.961
  Name = 
  2 active torsions:
  status: ('A' for Active; 'I' for Inactive)
    1  A    between atoms: C_3  and  N_12
    2  A    between atoms: N_12  and  N_23
                            x       y       z     vdW  Elec       q    Type
                         _______ _______ _______ _____ _____    ______ ____

>  <TORSDO>
F 2

$$$$
=
 OpenBabel11042418533D

 27 31  0  0  1  0  0  0  0  0999 V2000
  186.7830  177.8550  147.5560 C   0  0  0  0  0  3  0  0  0  0  0  0
  185.8830  178.1790  146.5210 C   0  0  0  0  0  3  0  0  0  0  0  0
  188.2600  177.6470  143.5440 C   0  0  1  0  0  3  0  0  0  0  0  0
  188.4820  177.4430  145.9190 C   0  0  0  0  0  0  0  0  0  0  0  0
  190.7620  177.0110  143.1550 C   0  0  0  0  0  3  0  0  0  0  0  0
  195.3590  174.9360  146.1330 N   0  0  0  0  0  1  0  0  0  0  0  0
  194.0850  175.0620  145.5140 C   0  0  0  0  0  0  0  0  0  0  0  0
  193.7040  174.1900  144.6890 O   0  0  0  0  0  0  0  0  0  0  0  0
  192.0220  176.5070  145.1890 C   0  0  0  0  0  0  0  0  0  0  0  0
  193.1770  176.4950  142.9140 C   0  0  0  0  0  1  0  0  0  0  0  0
  186.2910  178.1330  145.1770 C   0  0  0  0  0  3  0  0  0  0  0  0
  188.1040  177.4830  147.2590 C   0  0  0  0  0  3  0  0  0  0  0  0
  193.2310  176.1520  145.8720 N   0  0  0  0  0  2  0  0  0  0  0  0
  187.6050  177.7570  144.8960 C   0  0  0  0  0  0  0  0  0  0  0  0
  190.9100  176.7720  145.9360 N   0  0  0  0  0  0  0  0  0  0  0  0
  191.9680  176.6450  143.7720 C   0  0  0  0  0  0  0  0  0  0  0  0
  189.7510  177.1160  145.3230 C   0  0  0  0  0  0  0  0  0  0  0  0
  189.6470  177.2300  143.9560 C   0  0  0  0  0  0  0  0  0  0  0  0
  187.6270  176.5820  142.7780 N   0  0  0  0  0  2  0  0  0  0  0  0
  185.7630  177.5390  141.0480 C   0  0  0  0  0  0  0  0  0  0  0  0
  183.2120  178.2960  141.4820 C   0  0  0  0  0  0  0  0  0  0  0  0
  183.9060  177.8850  142.6190 N   0  0  0  0  0  0  0  0  0  0  0  0
  183.8230  178.3150  140.1380 C   0  0  0  0  0  3  0  0  0  0  0  0
  181.8590  178.7130  141.6180 N   0  0  0  0  0  1  0  0  0  0  0  0
  185.1430  177.5420  142.2720 C   0  0  0  0  0  0  0  0  0  0  0  0
  186.4790  177.1220  142.1850 N   0  0  0  0  0  0  0  0  0  0  0  0
  185.1880  177.9140  139.8710 C   0  0  0  0  0  3  0  0  0  0  0  0
  2  1  2  0  0  0  0
  3 19  1  6  0  0  0
  3 18  1  0  0  0  0
  3 14  1  0  0  0  0
  4 12  2  0  0  0  0
  5 16  2  0  0  0  0
  5 18  1  0  0  0  0
  7 13  1  0  0  0  0
  7  6  1  0  0  0  0
  8  7  2  0  0  0  0
  9 13  1  0  0  0  0
  9 15  2  0  0  0  0
 10 16  1  0  0  0  0
 11  2  1  0  0  0  0
 12  1  1  0  0  0  0
 14 11  2  0  0  0  0
 14  4  1  0  0  0  0
 16  9  1  0  0  0  0
 17  4  1  0  0  0  0
 17 15  1  0  0  0  0
 18 17  2  0  0  0  0
 20 26  1  0  0  0  0
 20 25  1  0  0  0  0
 21 24  1  0  0  0  0
 21 22  1  0  0  0  0
 23 21  2  0  0  0  0
 25 22  2  0  0  0  0
 26 25  1  0  0  0  0
 26 19  1  0  0  0  0
 27 23  1  0  0  0  0
 27 20  2  0  0  0  0
M  END
>  <MODEL>
6

>  <REMARK>
 VINA RESULT:      -7.1      2.601      4.198
  Name = 
  2 active torsions:
  status: ('A' for Active; 'I' for Inactive)
    1  A    between atoms: C_3  and  N_12
    2  A    between atoms: N_12  and  N_23
                            x       y       z     vdW  Elec       q    Type
                         _______ _______ _______ _____ _____    ______ ____

>  <TORSDO>
F 2

$$$$
=
 OpenBabel11042418533D

 27 31  0  0  1  0  0  0  0  0999 V2000
  189.2910  175.1520  147.6130 C   0  0  0  0  0  3  0  0  0  0  0  0
  188.1940  175.6660  146.8950 C   0  0  0  0  0  3  0  0  0  0  0  0
  190.0320  176.5110  143.6230 C   0  0  1  0  0  3  0  0  0  0  0  0
  190.6970  175.5620  145.7180 C   0  0  0  0  0  0  0  0  0  0  0  0
  192.4690  176.4150  142.6930 C   0  0  0  0  0  3  0  0  0  0  0  0
  197.6950  174.1640  144.0800 N   0  0  0  0  0  1  0  0  0  0  0  0
  196.3250  174.3010  143.7280 C   0  0  0  0  0  0  0  0  0  0  0  0
  195.8810  173.7070  142.7100 O   0  0  0  0  0  0  0  0  0  0  0  0
  194.1160  175.4520  144.2220 C   0  0  0  0  0  0  0  0  0  0  0  0
  194.8370  176.3680  141.9520 C   0  0  0  0  0  1  0  0  0  0  0  0
  188.3550  176.1310  145.5790 C   0  0  0  0  0  3  0  0  0  0  0  0
  190.5650  175.0970  147.0240 C   0  0  0  0  0  3  0  0  0  0  0  0
  195.4550  175.0720  144.5620 N   0  0  0  0  0  2  0  0  0  0  0  0
  189.6250  176.0660  145.0030 C   0  0  0  0  0  0  0  0  0  0  0  0
  193.1380  175.2870  145.1610 N   0  0  0  0  0  0  0  0  0  0  0  0
  193.7940  176.0450  142.9670 C   0  0  0  0  0  0  0  0  0  0  0  0
  191.8610  175.6420  144.8750 C   0  0  0  0  0  0  0  0  0  0  0  0
  191.5020  176.1880  143.6660 C   0  0  0  0  0  0  0  0  0  0  0  0
  189.3690  175.6810  142.6270 N   0  0  0  0  0  2  0  0  0  0  0  0
  187.4420  176.9740  141.2120 C   0  0  0  0  0  0  0  0  0  0  0  0
  184.9960  177.8160  141.9710 C   0  0  0  0  0  0  0  0  0  0  0  0
  185.7500  177.2130  142.9770 N   0  0  0  0  0  0  0  0  0  0  0  0
  185.4940  177.9810  140.5900 C   0  0  0  0  0  3  0  0  0  0  0  0
  183.6920  178.2910  142.2820 N   0  0  0  0  0  1  0  0  0  0  0  0
  186.9270  176.8480  142.4770 C   0  0  0  0  0  0  0  0  0  0  0  0
  188.2170  176.3640  142.2150 N   0  0  0  0  0  0  0  0  0  0  0  0
  186.8010  177.5390  140.1510 C   0  0  0  0  0  3  0  0  0  0  0  0
  2  1  2  0  0  0  0
  3 19  1  6  0  0  0
  3 18  1  0  0  0  0
  3 14  1  0  0  0  0
  4 12  2  0  0  0  0
  5 16  2  0  0  0  0
  5 18  1  0  0  0  0
  7  6  1  0  0  0  0
  7 13  1  0  0  0  0
  8  7  2  0  0  0  0
  9 13  1  0  0  0  0
  9 15  2  0  0  0  0
 10 16  1  0  0  0  0
 11  2  1  0  0  0  0
 12  1  1  0  0  0  0
 14 11  2  0  0  0  0
 14  4  1  0  0  0  0
 16  9  1  0  0  0  0
 17 15  1  0  0  0  0
 17  4  1  0  0  0  0
 18 17  2  0  0  0  0
 20 26  1  0  0  0  0
 20 25  1  0  0  0  0
 21 24  1  0  0  0  0
 21 22  1  0  0  0  0
 23 21  2  0  0  0  0
 25 22  2  0  0  0  0
 26 25  1  0  0  0  0
 26 19  1  0  0  0  0
 27 23  1  0  0  0  0
 27 20  2  0  0  0  0
M  END
>  <MODEL>
7

>  <REMARK>
 VINA RESULT:      -7.1      2.410      3.301
  Name = 
  2 active torsions:
  status: ('A' for Active; 'I' for Inactive)
    1  A    between atoms: C_3  and  N_12
    2  A    between atoms: N_12  and  N_23
                            x       y       z     vdW  Elec       q    Type
                         _______ _______ _______ _____ _____    ______ ____

>  <TORSDO>
F 2

$$$$
=
 OpenBabel11042418533D

 27 31  0  0  1  0  0  0  0  0999 V2000
  189.4660  174.6260  147.2110 C   0  0  0  0  0  3  0  0  0  0  0  0
  190.3150  175.6670  147.6380 C   0  0  0  0  0  3  0  0  0  0  0  0
  192.2610  176.1660  144.3570 C   0  0  1  0  0  3  0  0  0  0  0  0
  190.4940  174.7060  145.0490 C   0  0  0  0  0  0  0  0  0  0  0  0
  192.3520  175.0930  141.9800 C   0  0  0  0  0  3  0  0  0  0  0  0
  189.3160  171.3570  138.6440 N   0  0  0  0  0  1  0  0  0  0  0  0
  189.6950  172.4840  139.4220 C   0  0  0  0  0  0  0  0  0  0  0  0
  189.6030  173.6400  138.9300 O   0  0  0  0  0  0  0  0  0  0  0  0
  190.7230  173.3120  141.5930 C   0  0  0  0  0  0  0  0  0  0  0  0
  192.4180  173.9310  139.7880 C   0  0  0  0  0  1  0  0  0  0  0  0
  191.2580  176.2270  146.7610 C   0  0  0  0  0  3  0  0  0  0  0  0
  189.5520  174.1310  145.8980 C   0  0  0  0  0  3  0  0  0  0  0  0
  190.1300  172.2970  140.7720 N   0  0  0  0  0  2  0  0  0  0  0  0
  191.3300  175.7300  145.4580 C   0  0  0  0  0  0  0  0  0  0  0  0
  190.2710  173.4560  142.8730 N   0  0  0  0  0  0  0  0  0  0  0  0
  191.7970  174.1260  141.1290 C   0  0  0  0  0  0  0  0  0  0  0  0
  190.8140  174.4010  143.6780 C   0  0  0  0  0  0  0  0  0  0  0  0
  191.8300  175.2280  143.2610 C   0  0  0  0  0  0  0  0  0  0  0  0
  191.9630  177.5410  143.9810 N   0  0  0  0  0  2  0  0  0  0  0  0
  189.2600  177.7050  144.2150 C   0  0  0  0  0  0  0  0  0  0  0  0
  187.3660  178.0210  142.3220 C   0  0  0  0  0  0  0  0  0  0  0  0
  188.6720  177.9370  141.8410 N   0  0  0  0  0  0  0  0  0  0  0  0
  187.0390  177.9450  143.7610 C   0  0  0  0  0  3  0  0  0  0  0  0
  186.3010  178.1880  141.3940 N   0  0  0  0  0  1  0  0  0  0  0  0
  189.5030  177.7830  142.8670 C   0  0  0  0  0  0  0  0  0  0  0  0
  190.5840  177.6190  143.7470 N   0  0  0  0  0  0  0  0  0  0  0  0
  188.0320  177.7770  144.8020 C   0  0  0  0  0  3  0  0  0  0  0  0
  1  2  1  0  0  0  0
  3 19  1  6  0  0  0
  3 14  1  0  0  0  0
  4 14  2  0  0  0  0
  4 12  1  0  0  0  0
  5 18  1  0  0  0  0
  6  7  1  0  0  0  0
  7 13  1  0  0  0  0
  8  7  2  0  0  0  0
  9 15  2  0  0  0  0
 10 16  1  0  0  0  0
 11  2  2  0  0  0  0
 12  1  2  0  0  0  0
 13  9  1  0  0  0  0
 14 11  1  0  0  0  0
 15 17  1  0  0  0  0
 16  9  1  0  0  0  0
 16  5  2  0  0  0  0
 17  4  1  0  0  0  0
 18 17  2  0  0  0  0
 18  3  1  0  0  0  0
 20 27  1  0  0  0  0
 21 23  1  0  0  0  0
 22 21  2  0  0  0  0
 22 25  1  0  0  0  0
 23 27  2  0  0  0  0
 24 21  1  0  0  0  0
 25 26  1  0  0  0  0
 25 20  2  0  0  0  0
 26 19  1  0  0  0  0
 26 20  1  0  0  0  0
M  END
>  <MODEL>
8

>  <REMARK>
 VINA RESULT:      -7.0      3.261      5.089
  Name = 
  2 active torsions:
  status: ('A' for Active; 'I' for Inactive)
    1  A    between atoms: C_3  and  N_12
    2  A    between atoms: N_12  and  N_23
                            x       y       z     vdW  Elec       q    Type
                         _______ _______ _______ _____ _____    ______ ____

>  <TORSDO>
F 2

$$$$
=
 OpenBabel11042418533D

 27 31  0  0  1  0  0  0  0  0999 V2000
  187.6340  176.0410  146.8880 C   0  0  0  0  0  3  0  0  0  0  0  0
  187.1610  177.1700  146.1900 C   0  0  0  0  0  3  0  0  0  0  0  0
  190.3340  177.9160  144.1460 C   0  0  1  0  0  3  0  0  0  0  0  0
  189.7360  176.2500  145.7590 C   0  0  0  0  0  0  0  0  0  0  0  0
  192.7550  176.9670  143.9170 C   0  0  0  0  0  3  0  0  0  0  0  0
  195.8970  172.2980  145.5400 N   0  0  0  0  0  1  0  0  0  0  0  0
  194.9170  173.1340  144.9390 C   0  0  0  0  0  0  0  0  0  0  0  0
  194.7550  173.1040  143.6900 O   0  0  0  0  0  0  0  0  0  0  0  0
  193.2180  174.9910  145.2800 C   0  0  0  0  0  0  0  0  0  0  0  0
  195.0570  176.0410  143.8560 C   0  0  0  0  0  1  0  0  0  0  0  0
  187.9860  177.8410  145.2720 C   0  0  0  0  0  3  0  0  0  0  0  0
  188.9400  175.5680  146.6760 C   0  0  0  0  0  3  0  0  0  0  0  0
  194.0950  173.9650  145.7630 N   0  0  0  0  0  2  0  0  0  0  0  0
  189.2800  177.3580  145.0670 C   0  0  0  0  0  0  0  0  0  0  0  0
  191.9490  175.0480  145.7820 N   0  0  0  0  0  0  0  0  0  0  0  0
  193.6500  175.9740  144.3440 C   0  0  0  0  0  0  0  0  0  0  0  0
  191.0960  176.0090  145.3530 C   0  0  0  0  0  0  0  0  0  0  0  0
  191.4620  176.9580  144.4270 C   0  0  0  0  0  0  0  0  0  0  0  0
  189.8980  177.7790  142.7640 N   0  0  0  0  0  2  0  0  0  0  0  0
  188.6450  175.3880  142.4530 C   0  0  0  0  0  0  0  0  0  0  0  0
  189.6330  172.9870  141.7250 C   0  0  0  0  0  0  0  0  0  0  0  0
  190.5780  174.0080  141.8240 N   0  0  0  0  0  0  0  0  0  0  0  0
  188.1970  173.2000  141.9960 C   0  0  0  0  0  3  0  0  0  0  0  0
  190.0660  171.6860  141.3470 N   0  0  0  0  0  1  0  0  0  0  0  0
  189.9660  175.1310  142.1890 C   0  0  0  0  0  0  0  0  0  0  0  0
  189.5850  176.4300  142.5570 N   0  0  0  0  0  0  0  0  0  0  0  0
  187.6350  174.4760  142.3870 C   0  0  0  0  0  3  0  0  0  0  0  0
  2  1  2  0  0  0  0
  3 19  1  6  0  0  0
  3 18  1  0  0  0  0
  3 14  1  0  0  0  0
  4 12  2  0  0  0  0
  5 16  2  0  0  0  0
  5 18  1  0  0  0  0
  7  6  1  0  0  0  0
  7 13  1  0  0  0  0
  8  7  2  0  0  0  0
  9 13  1  0  0  0  0
  9 15  2  0  0  0  0
 10 16  1  0  0  0  0
 11  2  1  0  0  0  0
 12  1  1  0  0  0  0
 14 11  2  0  0  0  0
 14  4  1  0  0  0  0
 16  9  1  0  0  0  0
 17  4  1  0  0  0  0
 17 15  1  0  0  0  0
 18 17  2  0  0  0  0
 20 26  1  0  0  0  0
 21 22  2  0  0  0  0
 21 23  1  0  0  0  0
 22 25  1  0  0  0  0
 23 27  2  0  0  0  0
 24 21  1  0  0  0  0
 25 20  2  0  0  0  0
 25 26  1  0  0  0  0
 26 19  1  0  0  0  0
 27 20  1  0  0  0  0
M  END
>  <MODEL>
9

>  <REMARK>
 VINA RESULT:      -6.9      2.483      4.548
  Name = 
  2 active torsions:
  status: ('A' for Active; 'I' for Inactive)
    1  A    between atoms: C_3  and  N_12
    2  A    between atoms: N_12  and  N_23
                            x       y       z     vdW  Elec       q    Type
                         _______ _______ _______ _____ _____    ______ ____

>  <TORSDO>
F 2

$$$$
