=
 OpenBabel11042418213D

 37 39  0  0  1  0  0  0  0  0999 V2000
  190.6290  175.2420  147.5720 C   0  0  0  0  0  2  0  0  0  0  0  0
  189.5460  176.0390  145.4520 C   0  0  2  0  0  3  0  0  0  0  0  0
  190.9300  176.2600  144.8310 C   0  0  0  0  0  2  0  0  0  0  0  0
  192.0000  175.4460  146.9350 C   0  0  0  0  0  2  0  0  0  0  0  0
  189.5890  174.9240  146.4990 C   0  0  0  0  0  2  0  0  0  0  0  0
  191.9380  176.5900  145.9260 C   0  0  1  0  0  3  0  0  0  0  0  0
  188.4500  175.7790  144.4060 C   0  0  1  0  0  3  0  0  0  0  0  0
  184.1100  178.6520  145.8050 C   0  0  0  0  0  3  0  0  0  0  0  0
  185.7930  176.9150  146.0410 C   0  0  0  0  0  3  0  0  0  0  0  0
  187.6840  177.7460  143.0510 C   0  0  0  0  0  3  0  0  0  0  0  0
  187.5710  176.9820  144.1430 C   0  0  1  0  0  3  0  0  0  0  0  0
  185.8420  178.4800  144.2210 C   0  0  0  0  0  0  0  0  0  0  0  0
  184.7180  179.0970  144.6660 N   0  0  0  0  0  0  0  0  0  0  0  0
  186.6160  178.8090  143.0000 C   0  0  0  0  0  3  0  0  0  0  0  0
  184.6340  177.5530  146.5120 C   0  0  0  0  0  3  0  0  0  0  0  0
  186.3900  177.4150  144.8830 C   0  0  0  0  0  0  0  0  0  0  0  0
  188.4090  174.1460  142.5490 C   0  0  0  0  0  3  0  0  0  0  0  0
  188.9850  175.2030  143.1220 C   0  0  0  0  0  3  0  0  0  0  0  0
  190.3380  173.4410  141.3800 O   0  0  0  0  0  1  0  0  0  0  0  0
  188.9520  173.5850  141.2780 C   0  0  2  0  0  3  0  0  0  0  0  0
  188.6150  174.5230  140.1310 C   0  0  0  0  0  2  0  0  0  0  0  0
  189.3600  173.8380  137.9700 O   0  0  0  0  0  1  0  0  0  0  0  0
  188.2970  173.7380  138.8690 C   0  0  0  0  0  3  0  0  0  0  0  0
  188.0960  172.4000  139.1970 O   0  0  0  0  0  1  0  0  0  0  0  0
  193.2500  176.7940  145.3400 N   0  0  0  0  0  2  0  0  0  0  0  0
  193.9940  175.6390  145.6140 N   0  0  0  0  0  2  0  0  0  0  0  0
  195.5740  174.0760  144.9510 O   0  0  0  0  0  0  0  0  0  0  0  0
  195.1060  175.7560  143.4050 N   0  0  0  0  0  0  0  0  0  0  0  0
  194.9170  175.1110  144.6650 C   0  0  0  0  0  0  0  0  0  0  0  0
  196.1540  177.1570  141.2280 O   0  0  0  0  0  0  0  0  0  0  0  0
  195.8990  175.1660  142.4120 N   0  0  0  0  0  0  0  0  0  0  0  0
  196.3610  175.9140  141.2850 C   0  0  0  0  0  0  0  0  0  0  0  0
  197.0920  175.2360  140.1600 C   0  0  1  0  0  3  0  0  0  0  0  0
  197.6070  173.8550  140.5400 C   0  0  0  0  0  1  0  0  0  0  0  0
  195.0050  174.9330  139.0500 O   0  0  0  0  0  0  0  0  0  0  0  0
  196.8050  175.3310  137.6390 N   0  0  0  0  0  1  0  0  0  0  0  0
  196.2380  175.1560  138.9340 C   0  0  0  0  0  0  0  0  0  0  0  0
  2  7  1  6  0  0  0
  2  5  1  0  0  0  0
  3  2  1  0  0  0  0
  3  6  1  0  0  0  0
  4  1  1  0  0  0  0
  5  1  1  0  0  0  0
  6 25  1  6  0  0  0
  6  4  1  0  0  0  0
  7 18  1  6  0  0  0
  8 15  1  0  0  0  0
  9 15  2  0  0  0  0
 10 11  1  0  0  0  0
 11  7  1  6  0  0  0
 11 16  1  0  0  0  0
 12 13  1  0  0  0  0
 12 16  2  0  0  0  0
 13  8  2  0  0  0  0
 14 10  2  0  0  0  0
 14 12  1  0  0  0  0
 16  9  1  0  0  0  0
 17 18  2  0  0  0  0
 20 19  1  1  0  0  0
 20 17  1  0  0  0  0
 21 20  1  0  0  0  0
 22 23  1  0  0  0  0
 23 24  1  0  0  0  0
 23 21  1  0  0  0  0
 25 26  1  0  0  0  0
 28 29  1  0  0  0  0
 29 27  2  0  0  0  0
 29 26  1  0  0  0  0
 30 32  2  0  0  0  0
 31 28  2  0  0  0  0
 32 31  1  0  0  0  0
 33 34  1  1  0  0  0
 33 32  1  0  0  0  0
 36 37  1  0  0  0  0
 37 35  2  0  0  0  0
 37 33  1  0  0  0  0
M  END
>  <MODEL>
1

>  <REMARK>
 VINA RESULT:      -7.3      0.000      0.000
  Name = 
  11 active torsions:
  status: ('A' for Active; 'I' for Inactive)
    1  A    between atoms: C_5  and  C_6
    2  A    between atoms: C_6  and  C_21
    3  A    between atoms: C_6  and  C_37
    4  A    between atoms: C_7  and  C_30
    5  A    between atoms: C_10  and  C_12
    6  A    between atoms: C_10  and  C_33
    7  A    between atoms: N_11  and  N_25
    8  A    between atoms: N_13  and  N_17
    9  A    between atoms: N_13  and  C_29
   10  A    between atoms: C_14  and  C_19
   11  A    between atoms: C_14  and  C_30
                            x       y       z     vdW  Elec       q    Type
                         _______ _______ _______ _____ _____    ______ ____

>  <TORSDO>
F 11

$$$$
=
 OpenBabel11042418213D

 37 39  0  0  1  0  0  0  0  0999 V2000
  188.4770  175.1350  141.0270 C   0  0  0  0  0  2  0  0  0  0  0  0
  188.6580  175.3050  143.5240 C   0  0  2  0  0  3  0  0  0  0  0  0
  189.4050  173.9670  143.5590 C   0  0  0  0  0  2  0  0  0  0  0  0
  189.2400  173.8160  141.0720 C   0  0  0  0  0  2  0  0  0  0  0  0
  188.8900  176.0270  142.1960 C   0  0  0  0  0  2  0  0  0  0  0  0
  188.9570  173.0980  142.3890 C   0  0  1  0  0  3  0  0  0  0  0  0
  188.9910  176.2140  144.7190 C   0  0  1  0  0  3  0  0  0  0  0  0
  184.7050  179.4740  144.9330 C   0  0  0  0  0  3  0  0  0  0  0  0
  186.6370  178.4110  143.9110 C   0  0  0  0  0  3  0  0  0  0  0  0
  187.5220  176.3200  146.7480 C   0  0  0  0  0  3  0  0  0  0  0  0
  187.7720  176.6760  145.4830 C   0  0  0  0  0  0  0  0  0  0  0  0
  185.9250  177.8600  146.1360 C   0  0  0  0  0  0  0  0  0  0  0  0
  184.8970  178.7450  146.0720 N   0  0  0  0  0  2  0  0  0  0  0  0
  186.2960  177.0090  147.2920 C   0  0  0  0  0  3  0  0  0  0  0  0
  185.5720  179.3220  143.8340 C   0  0  0  0  0  3  0  0  0  0  0  0
  186.7840  177.6750  145.0880 C   0  0  0  0  0  0  0  0  0  0  0  0
  191.2050  176.2060  145.8220 C   0  0  0  0  0  3  0  0  0  0  0  0
  190.0220  175.6190  145.6420 C   0  0  0  0  0  3  0  0  0  0  0  0
  191.6260  175.3240  147.9730 O   0  0  0  0  0  1  0  0  0  0  0  0
  192.2160  175.6040  146.7380 C   0  0  2  0  0  3  0  0  0  0  0  0
  193.3680  176.5780  146.9270 C   0  0  0  0  0  2  0  0  0  0  0  0
  194.9200  177.9420  145.7340 O   0  0  0  0  0  1  0  0  0  0  0  0
  194.0740  176.8390  145.6070 C   0  0  0  0  0  3  0  0  0  0  0  0
  194.8260  175.7200  145.2570 O   0  0  0  0  0  1  0  0  0  0  0  0
  189.6680  171.8330  142.4170 N   0  0  0  0  0  2  0  0  0  0  0  0
  190.8900  172.0470  141.7670 N   0  0  0  0  0  2  0  0  0  0  0  0
  193.1960  171.8090  141.7180 O   0  0  0  0  0  0  0  0  0  0  0  0
  192.1310  170.9280  143.5940 N   0  0  0  0  0  2  0  0  0  0  0  0
  192.1190  171.6060  142.3370 C   0  0  0  0  0  0  0  0  0  0  0  0
  193.3720  172.6050  145.4510 O   0  0  0  0  0  0  0  0  0  0  0  0
  193.3410  170.6210  144.2300 N   0  0  0  0  0  2  0  0  0  0  0  0
  193.9670  171.5400  145.1280 C   0  0  0  0  0  0  0  0  0  0  0  0
  195.3300  171.2560  145.6930 C   0  0  1  0  0  3  0  0  0  0  0  0
  195.8480  169.8760  145.3130 C   0  0  0  0  0  1  0  0  0  0  0  0
  196.5490  172.5040  144.0690 O   0  0  0  0  0  0  0  0  0  0  0  0
  196.9750  173.1020  146.2720 N   0  0  0  0  0  1  0  0  0  0  0  0
  196.3100  172.3120  145.2900 C   0  0  0  0  0  0  0  0  0  0  0  0
  1  4  1  0  0  0  0
  1  5  1  0  0  0  0
  2  3  1  0  0  0  0
  2  7  1  1  0  0  0
  4  6  1  0  0  0  0
  5  2  1  0  0  0  0
  6 25  1  6  0  0  0
  6  3  1  0  0  0  0
  7 11  1  0  0  0  0
  7 18  1  1  0  0  0
  8 13  1  0  0  0  0
  9 16  2  0  0  0  0
 10 14  1  0  0  0  0
 11 10  2  0  0  0  0
 12 14  2  0  0  0  0
 13 12  1  0  0  0  0
 15  9  1  0  0  0  0
 15  8  2  0  0  0  0
 16 11  1  0  0  0  0
 16 12  1  0  0  0  0
 17 20  1  0  0  0  0
 18 17  2  0  0  0  0
 20 21  1  0  0  0  0
 20 19  1  1  0  0  0
 23 22  1  0  0  0  0
 23 21  1  0  0  0  0
 24 23  1  0  0  0  0
 26 29  1  0  0  0  0
 26 25  1  0  0  0  0
 27 29  2  0  0  0  0
 28 31  1  0  0  0  0
 29 28  1  0  0  0  0
 31 32  1  0  0  0  0
 32 30  2  0  0  0  0
 32 33  1  0  0  0  0
 33 34  1  6  0  0  0
 35 37  2  0  0  0  0
 37 33  1  0  0  0  0
 37 36  1  0  0  0  0
M  END
>  <MODEL>
2

>  <REMARK>
 VINA RESULT:      -7.3      3.402      5.800
  Name = 
  11 active torsions:
  status: ('A' for Active; 'I' for Inactive)
    1  A    between atoms: C_5  and  C_6
    2  A    between atoms: C_6  and  C_21
    3  A    between atoms: C_6  and  C_37
    4  A    between atoms: C_7  and  C_30
    5  A    between atoms: C_10  and  C_12
    6  A    between atoms: C_10  and  C_33
    7  A    between atoms: N_11  and  N_25
    8  A    between atoms: N_13  and  N_17
    9  A    between atoms: N_13  and  C_29
   10  A    between atoms: C_14  and  C_19
   11  A    between atoms: C_14  and  C_30
                            x       y       z     vdW  Elec       q    Type
                         _______ _______ _______ _____ _____    ______ ____

>  <TORSDO>
F 11

$$$$
=
 OpenBabel11042418213D

 37 39  0  0  1  0  0  0  0  0999 V2000
  191.5060  172.9150  140.2690 C   0  0  0  0  0  2  0  0  0  0  0  0
  191.7340  174.1540  142.4400 C   0  0  2  0  0  3  0  0  0  0  0  0
  190.2090  174.2910  142.5190 C   0  0  0  0  0  2  0  0  0  0  0  0
  189.9900  173.0390  140.3690 C   0  0  0  0  0  2  0  0  0  0  0  0
  192.1300  172.8970  141.6630 C   0  0  0  0  0  2  0  0  0  0  0  0
  189.6230  174.3210  141.1120 C   0  0  1  0  0  3  0  0  0  0  0  0
  192.4160  174.1950  143.8170 C   0  0  1  0  0  3  0  0  0  0  0  0
  197.4620  173.4800  145.5700 C   0  0  0  0  0  3  0  0  0  0  0  0
  195.1030  172.9520  145.3180 C   0  0  0  0  0  3  0  0  0  0  0  0
  194.2730  175.7380  143.1380 C   0  0  0  0  0  3  0  0  0  0  0  0
  193.8640  174.6270  143.7600 C   0  0  1  0  0  3  0  0  0  0  0  0
  196.0980  174.8360  144.2130 C   0  0  0  0  0  0  0  0  0  0  0  0
  197.3140  174.5630  144.7490 N   0  0  0  0  0  0  0  0  0  0  0  0
  195.7500  175.9740  143.3280 C   0  0  0  0  0  3  0  0  0  0  0  0
  196.3600  172.6570  145.8700 C   0  0  0  0  0  3  0  0  0  0  0  0
  195.0040  174.0560  144.4710 C   0  0  0  0  0  0  0  0  0  0  0  0
  191.6880  174.6930  146.1280 C   0  0  0  0  0  3  0  0  0  0  0  0
  191.6460  175.0000  144.8310 C   0  0  0  0  0  3  0  0  0  0  0  0
  191.4450  175.3010  148.3990 O   0  0  0  0  0  1  0  0  0  0  0  0
  190.9180  175.4980  147.1200 C   0  0  2  0  0  3  0  0  0  0  0  0
  189.4600  175.0700  147.0930 C   0  0  0  0  0  2  0  0  0  0  0  0
  187.2770  176.0200  146.9300 O   0  0  0  0  0  1  0  0  0  0  0  0
  188.5910  176.1550  146.4780 C   0  0  0  0  0  3  0  0  0  0  0  0
  189.0800  177.4040  146.8530 O   0  0  0  0  0  1  0  0  0  0  0  0
  188.1780  174.4460  141.1850 N   0  0  0  0  0  2  0  0  0  0  0  0
  187.8560  175.6910  140.6280 N   0  0  0  0  0  2  0  0  0  0  0  0
  186.7990  177.7460  140.8080 O   0  0  0  0  0  0  0  0  0  0  0  0
  186.5700  176.3300  142.6440 N   0  0  0  0  0  2  0  0  0  0  0  0
  187.0590  176.6350  141.3380 C   0  0  0  0  0  0  0  0  0  0  0  0
  187.3560  178.4960  144.2230 O   0  0  0  0  0  0  0  0  0  0  0  0
  185.6690  177.1880  143.2880 N   0  0  0  0  0  2  0  0  0  0  0  0
  186.1220  178.2470  144.1350 C   0  0  0  0  0  0  0  0  0  0  0  0
  185.1460  179.0690  144.9280 C   0  0  1  0  0  3  0  0  0  0  0  0
  183.7650  179.1220  144.2890 C   0  0  0  0  0  1  0  0  0  0  0  0
  184.2010  177.7000  146.6350 O   0  0  0  0  0  0  0  0  0  0  0  0
  185.9110  179.0980  147.3490 N   0  0  0  0  0  1  0  0  0  0  0  0
  185.0500  178.5800  146.3390 C   0  0  0  0  0  0  0  0  0  0  0  0
  1  4  1  0  0  0  0
  1  5  1  0  0  0  0
  2  3  1  0  0  0  0
  2  7  1  1  0  0  0
  4  6  1  0  0  0  0
  5  2  1  0  0  0  0
  6 25  1  1  0  0  0
  6  3  1  0  0  0  0
  7 18  1  1  0  0  0
  8 15  1  0  0  0  0
  9 15  2  0  0  0  0
 10 14  2  0  0  0  0
 10 11  1  0  0  0  0
 11  7  1  1  0  0  0
 11 16  1  0  0  0  0
 12 16  2  0  0  0  0
 12 13  1  0  0  0  0
 13  8  2  0  0  0  0
 14 12  1  0  0  0  0
 16  9  1  0  0  0  0
 17 20  1  0  0  0  0
 18 17  2  0  0  0  0
 20 19  1  1  0  0  0
 21 20  1  0  0  0  0
 23 24  1  0  0  0  0
 23 22  1  0  0  0  0
 23 21  1  0  0  0  0
 26 25  1  0  0  0  0
 26 29  1  0  0  0  0
 27 29  2  0  0  0  0
 28 31  1  0  0  0  0
 29 28  1  0  0  0  0
 31 32  1  0  0  0  0
 32 30  2  0  0  0  0
 32 33  1  0  0  0  0
 33 34  1  6  0  0  0
 33 37  1  0  0  0  0
 37 35  2  0  0  0  0
 37 36  1  0  0  0  0
M  END
>  <MODEL>
3

>  <REMARK>
 VINA RESULT:      -7.2      3.658      9.555
  Name = 
  11 active torsions:
  status: ('A' for Active; 'I' for Inactive)
    1  A    between atoms: C_5  and  C_6
    2  A    between atoms: C_6  and  C_21
    3  A    between atoms: C_6  and  C_37
    4  A    between atoms: C_7  and  C_30
    5  A    between atoms: C_10  and  C_12
    6  A    between atoms: C_10  and  C_33
    7  A    between atoms: N_11  and  N_25
    8  A    between atoms: N_13  and  N_17
    9  A    between atoms: N_13  and  C_29
   10  A    between atoms: C_14  and  C_19
   11  A    between atoms: C_14  and  C_30
                            x       y       z     vdW  Elec       q    Type
                         _______ _______ _______ _____ _____    ______ ____

>  <TORSDO>
F 11

$$$$
=
 OpenBabel11042418213D

 37 39  0  0  1  0  0  0  0  0999 V2000
  190.3760  175.2910  147.5410 C   0  0  0  0  0  2  0  0  0  0  0  0
  189.4230  176.1680  145.3910 C   0  0  2  0  0  3  0  0  0  0  0  0
  190.8410  176.3340  144.8320 C   0  0  0  0  0  2  0  0  0  0  0  0
  191.7800  175.4410  146.9660 C   0  0  0  0  0  2  0  0  0  0  0  0
  189.3700  175.0370  146.4200 C   0  0  0  0  0  2  0  0  0  0  0  0
  191.8140  176.6000  145.9750 C   0  0  1  0  0  3  0  0  0  0  0  0
  188.3610  175.9750  144.2950 C   0  0  1  0  0  3  0  0  0  0  0  0
  184.0660  178.6590  146.1380 C   0  0  0  0  0  3  0  0  0  0  0  0
  185.8140  176.9710  146.1770 C   0  0  0  0  0  3  0  0  0  0  0  0
  187.4280  177.9560  143.0740 C   0  0  0  0  0  3  0  0  0  0  0  0
  187.4280  177.1550  144.1450 C   0  0  1  0  0  3  0  0  0  0  0  0
  185.6670  178.5920  144.4140 C   0  0  0  0  0  0  0  0  0  0  0  0
  184.5650  179.1580  144.9690 N   0  0  0  0  0  0  0  0  0  0  0  0
  186.3270  178.9840  143.1450 C   0  0  0  0  0  3  0  0  0  0  0  0
  184.6800  177.5560  146.7620 C   0  0  0  0  0  3  0  0  0  0  0  0
  186.2990  177.5260  144.9930 C   0  0  0  0  0  0  0  0  0  0  0  0
  188.5880  174.4360  142.3720 C   0  0  0  0  0  3  0  0  0  0  0  0
  188.9500  175.5720  142.9690 C   0  0  0  0  0  3  0  0  0  0  0  0
  188.5300  174.7310  140.0280 O   0  0  0  0  0  1  0  0  0  0  0  0
  189.1820  174.0500  141.0590 C   0  0  2  0  0  3  0  0  0  0  0  0
  189.0310  172.5500  140.8610 C   0  0  0  0  0  2  0  0  0  0  0  0
  191.3000  172.7530  141.5710 O   0  0  0  0  0  1  0  0  0  0  0  0
  190.3050  171.8240  141.2610 C   0  0  0  0  0  3  0  0  0  0  0  0
  190.0520  171.0320  142.3780 O   0  0  0  0  0  1  0  0  0  0  0  0
  193.1590  176.7530  145.4480 N   0  0  0  0  0  2  0  0  0  0  0  0
  193.2290  175.9570  144.2970 N   0  0  0  0  0  2  0  0  0  0  0  0
  194.1570  174.1600  143.1640 O   0  0  0  0  0  0  0  0  0  0  0  0
  194.9850  174.5370  145.3080 N   0  0  0  0  0  2  0  0  0  0  0  0
  194.1290  174.8570  144.2120 C   0  0  0  0  0  0  0  0  0  0  0  0
  194.5240  171.8180  145.7560 O   0  0  0  0  0  0  0  0  0  0  0  0
  195.9730  173.5510  145.1810 N   0  0  0  0  0  2  0  0  0  0  0  0
  195.7010  172.1800  145.4810 C   0  0  0  0  0  0  0  0  0  0  0  0
  196.8040  171.1580  145.4740 C   0  0  1  0  0  3  0  0  0  0  0  0
  196.6140  170.0830  146.5350 C   0  0  0  0  0  1  0  0  0  0  0  0
  196.5740  169.3510  143.9370 O   0  0  0  0  0  0  0  0  0  0  0  0
  197.5210  171.2730  143.0420 N   0  0  0  0  0  1  0  0  0  0  0  0
  196.9540  170.5370  144.1220 C   0  0  0  0  0  0  0  0  0  0  0  0
  2  7  1  6  0  0  0
  2  5  1  0  0  0  0
  3  2  1  0  0  0  0
  3  6  1  0  0  0  0
  4  1  1  0  0  0  0
  5  1  1  0  0  0  0
  6 25  1  6  0  0  0
  6  4  1  0  0  0  0
  7 18  1  6  0  0  0
  8 15  1  0  0  0  0
  9 15  2  0  0  0  0
 10 14  2  0  0  0  0
 10 11  1  0  0  0  0
 11  7  1  6  0  0  0
 11 16  1  0  0  0  0
 12 13  1  0  0  0  0
 12 16  2  0  0  0  0
 13  8  2  0  0  0  0
 14 12  1  0  0  0  0
 16  9  1  0  0  0  0
 17 18  2  0  0  0  0
 20 19  1  6  0  0  0
 20 17  1  0  0  0  0
 21 20  1  0  0  0  0
 21 23  1  0  0  0  0
 23 22  1  0  0  0  0
 23 24  1  0  0  0  0
 26 25  1  0  0  0  0
 27 29  2  0  0  0  0
 29 26  1  0  0  0  0
 29 28  1  0  0  0  0
 31 28  1  0  0  0  0
 31 32  1  0  0  0  0
 32 30  2  0  0  0  0
 33 32  1  0  0  0  0
 33 34  1  1  0  0  0
 35 37  2  0  0  0  0
 36 37  1  0  0  0  0
 37 33  1  0  0  0  0
M  END
>  <MODEL>
4

>  <REMARK>
 VINA RESULT:      -7.2      2.450      3.354
  Name = 
  11 active torsions:
  status: ('A' for Active; 'I' for Inactive)
    1  A    between atoms: C_5  and  C_6
    2  A    between atoms: C_6  and  C_21
    3  A    between atoms: C_6  and  C_37
    4  A    between atoms: C_7  and  C_30
    5  A    between atoms: C_10  and  C_12
    6  A    between atoms: C_10  and  C_33
    7  A    between atoms: N_11  and  N_25
    8  A    between atoms: N_13  and  N_17
    9  A    between atoms: N_13  and  C_29
   10  A    between atoms: C_14  and  C_19
   11  A    between atoms: C_14  and  C_30
                            x       y       z     vdW  Elec       q    Type
                         _______ _______ _______ _____ _____    ______ ____

>  <TORSDO>
F 11

$$$$
=
 OpenBabel11042418213D

 37 39  0  0  1  0  0  0  0  0999 V2000
  188.4970  174.1680  139.3870 C   0  0  0  0  0  2  0  0  0  0  0  0
  188.0650  174.5050  141.8360 C   0  0  2  0  0  3  0  0  0  0  0  0
  189.4060  173.8370  142.1620 C   0  0  0  0  0  2  0  0  0  0  0  0
  189.8380  173.5250  139.7220 C   0  0  0  0  0  2  0  0  0  0  0  0
  188.1090  175.1790  140.4640 C   0  0  0  0  0  2  0  0  0  0  0  0
  189.7530  172.8250  141.0760 C   0  0  1  0  0  3  0  0  0  0  0  0
  187.5990  175.4850  142.9250 C   0  0  1  0  0  3  0  0  0  0  0  0
  190.6860  175.9510  147.3180 C   0  0  0  0  0  3  0  0  0  0  0  0
  189.0160  174.9330  145.8760 C   0  0  0  0  0  3  0  0  0  0  0  0
  189.2930  177.3210  143.1510 C   0  0  0  0  0  3  0  0  0  0  0  0
  188.7370  176.1990  143.6200 C   0  0  0  0  0  0  0  0  0  0  0  0
  190.2290  176.8950  145.2110 C   0  0  0  0  0  0  0  0  0  0  0  0
  190.9180  176.9170  146.3800 N   0  0  0  0  0  0  0  0  0  0  0  0
  190.3310  177.8680  144.0970 C   0  0  0  0  0  2  0  0  0  0  0  0
  189.7310  174.9440  147.0840 C   0  0  0  0  0  3  0  0  0  0  0  0
  189.2990  175.9280  144.9400 C   0  0  0  0  0  0  0  0  0  0  0  0
  185.6260  176.9400  143.2550 C   0  0  0  0  0  3  0  0  0  0  0  0
  186.5620  176.4610  142.4340 C   0  0  0  0  0  3  0  0  0  0  0  0
  185.0300  178.4560  141.5420 O   0  0  0  0  0  1  0  0  0  0  0  0
  184.6040  177.9040  142.7530 C   0  0  2  0  0  3  0  0  0  0  0  0
  184.4080  179.0080  143.7800 C   0  0  0  0  0  2  0  0  0  0  0  0
  185.8670  179.3230  145.6410 O   0  0  0  0  0  1  0  0  0  0  0  0
  184.8190  178.5340  145.1640 C   0  0  0  0  0  3  0  0  0  0  0  0
  183.7330  178.6400  146.0300 O   0  0  0  0  0  1  0  0  0  0  0  0
  191.0250  172.1960  141.3800 N   0  0  0  0  0  2  0  0  0  0  0  0
  191.0630  172.0220  142.7690 N   0  0  0  0  0  2  0  0  0  0  0  0
  192.1500  172.3370  144.7930 O   0  0  0  0  0  0  0  0  0  0  0  0
  193.2450  173.1820  142.9190 N   0  0  0  0  0  2  0  0  0  0  0  0
  192.1560  172.5040  143.5460 C   0  0  0  0  0  0  0  0  0  0  0  0
  193.6080  175.6710  144.1330 O   0  0  0  0  0  0  0  0  0  0  0  0
  194.3880  173.5290  143.6500 N   0  0  0  0  0  2  0  0  0  0  0  0
  194.5530  174.8380  144.2010 C   0  0  0  0  0  0  0  0  0  0  0  0
  195.8410  175.2380  144.8620 C   0  0  1  0  0  3  0  0  0  0  0  0
  196.3860  174.1610  145.7900 C   0  0  0  0  0  1  0  0  0  0  0  0
  197.8250  174.8400  143.6030 O   0  0  0  0  0  0  0  0  0  0  0  0
  196.7800  176.8640  143.1520 N   0  0  0  0  0  1  0  0  0  0  0  0
  196.8700  175.6230  143.8470 C   0  0  0  0  0  0  0  0  0  0  0  0
  1  4  1  0  0  0  0
  1  5  1  0  0  0  0
  2  3  1  0  0  0  0
  2  7  1  1  0  0  0
  4  6  1  0  0  0  0
  5  2  1  0  0  0  0
  6 25  1  1  0  0  0
  6  3  1  0  0  0  0
  7 18  1  6  0  0  0
  7 11  1  0  0  0  0
  9 15  2  0  0  0  0
 10 11  2  0  0  0  0
 10 14  1  0  0  0  0
 11 16  1  0  0  0  0
 12 13  1  0  0  0  0
 13  8  2  0  0  0  0
 14 12  1  0  0  0  0
 15  8  1  0  0  0  0
 16 12  2  0  0  0  0
 16  9  1  0  0  0  0
 18 17  2  0  0  0  0
 20 19  1  6  0  0  0
 20 17  1  0  0  0  0
 20 21  1  0  0  0  0
 21 23  1  0  0  0  0
 23 22  1  0  0  0  0
 23 24  1  0  0  0  0
 25 26  1  0  0  0  0
 26 29  1  0  0  0  0
 28 29  1  0  0  0  0
 28 31  1  0  0  0  0
 29 27  2  0  0  0  0
 30 32  2  0  0  0  0
 31 32  1  0  0  0  0
 32 33  1  0  0  0  0
 33 34  1  6  0  0  0
 35 37  2  0  0  0  0
 36 37  1  0  0  0  0
 37 33  1  0  0  0  0
M  END
>  <MODEL>
5

>  <REMARK>
 VINA RESULT:      -7.2      3.267      5.665
  Name = 
  11 active torsions:
  status: ('A' for Active; 'I' for Inactive)
    1  A    between atoms: C_5  and  C_6
    2  A    between atoms: C_6  and  C_21
    3  A    between atoms: C_6  and  C_37
    4  A    between atoms: C_7  and  C_30
    5  A    between atoms: C_10  and  C_12
    6  A    between atoms: C_10  and  C_33
    7  A    between atoms: N_11  and  N_25
    8  A    between atoms: N_13  and  N_17
    9  A    between atoms: N_13  and  C_29
   10  A    between atoms: C_14  and  C_19
   11  A    between atoms: C_14  and  C_30
                            x       y       z     vdW  Elec       q    Type
                         _______ _______ _______ _____ _____    ______ ____

>  <TORSDO>
F 11

$$$$
=
 OpenBabel11042418213D

 37 39  0  0  1  0  0  0  0  0999 V2000
  187.8020  175.9150  140.8880 C   0  0  0  0  0  2  0  0  0  0  0  0
  188.2140  175.6710  143.3520 C   0  0  2  0  0  3  0  0  0  0  0  0
  189.0040  174.3830  143.0900 C   0  0  0  0  0  2  0  0  0  0  0  0
  188.6080  174.6450  140.6380 C   0  0  0  0  0  2  0  0  0  0  0  0
  188.2960  176.6160  142.1520 C   0  0  0  0  0  2  0  0  0  0  0  0
  188.4750  173.7040  141.8320 C   0  0  1  0  0  3  0  0  0  0  0  0
  188.6300  176.3810  144.6500 C   0  0  1  0  0  3  0  0  0  0  0  0
  183.9940  178.9990  145.4890 C   0  0  0  0  0  3  0  0  0  0  0  0
  185.9020  178.2180  144.2010 C   0  0  0  0  0  3  0  0  0  0  0  0
  187.4480  176.2840  146.8600 C   0  0  0  0  0  3  0  0  0  0  0  0
  187.4710  176.6680  145.5790 C   0  0  0  0  0  0  0  0  0  0  0  0
  185.5810  177.5790  146.4920 C   0  0  0  0  0  0  0  0  0  0  0  0
  184.4390  178.3080  146.5800 N   0  0  0  0  0  2  0  0  0  0  0  0
  186.2210  176.7920  147.5730 C   0  0  0  0  0  3  0  0  0  0  0  0
  184.7180  178.9680  144.2810 C   0  0  0  0  0  3  0  0  0  0  0  0
  186.3080  177.5140  145.3350 C   0  0  0  0  0  0  0  0  0  0  0  0
  190.7840  176.3590  145.8660 C   0  0  0  0  0  3  0  0  0  0  0  0
  189.7490  175.6780  145.3740 C   0  0  0  0  0  3  0  0  0  0  0  0
  191.5060  175.3930  147.8990 O   0  0  0  0  0  1  0  0  0  0  0  0
  191.8850  175.6480  146.5780 C   0  0  2  0  0  3  0  0  0  0  0  0
  193.1360  176.5110  146.5590 C   0  0  0  0  0  2  0  0  0  0  0  0
  193.9850  174.4050  145.8260 O   0  0  0  0  0  1  0  0  0  0  0  0
  194.3690  175.6660  146.2860 C   0  0  0  0  0  3  0  0  0  0  0  0
  195.1510  176.2910  145.3170 O   0  0  0  0  0  1  0  0  0  0  0  0
  189.2250  172.4870  141.5800 N   0  0  0  0  0  2  0  0  0  0  0  0
  190.0000  172.7260  140.4370 N   0  0  0  0  0  2  0  0  0  0  0  0
  192.0800  173.0540  139.4660 O   0  0  0  0  0  0  0  0  0  0  0  0
  192.0840  172.7270  141.7730 N   0  0  0  0  0  2  0  0  0  0  0  0
  191.4170  172.8480  140.5160 C   0  0  0  0  0  0  0  0  0  0  0  0
  193.1270  175.1440  142.7060 O   0  0  0  0  0  0  0  0  0  0  0  0
  193.4560  172.9890  141.8830 N   0  0  0  0  0  2  0  0  0  0  0  0
  193.9400  174.2650  142.3090 C   0  0  0  0  0  0  0  0  0  0  0  0
  195.4100  174.5760  142.2890 C   0  0  1  0  0  3  0  0  0  0  0  0
  196.2700  173.3400  142.0650 C   0  0  0  0  0  1  0  0  0  0  0  0
  195.5250  175.3820  140.0490 O   0  0  0  0  0  0  0  0  0  0  0  0
  196.2470  176.8890  141.6610 N   0  0  0  0  0  1  0  0  0  0  0  0
  195.7250  175.6230  141.2680 C   0  0  0  0  0  0  0  0  0  0  0  0
  1  5  1  0  0  0  0
  2  7  1  1  0  0  0
  3  2  1  0  0  0  0
  4  1  1  0  0  0  0
  4  6  1  0  0  0  0
  5  2  1  0  0  0  0
  6 25  1  6  0  0  0
  6  3  1  0  0  0  0
  7 18  1  1  0  0  0
  7 11  1  0  0  0  0
  8 13  1  0  0  0  0
  9 15  1  0  0  0  0
  9 16  2  0  0  0  0
 10 14  1  0  0  0  0
 11 10  2  0  0  0  0
 12 13  1  0  0  0  0
 12 14  2  0  0  0  0
 15  8  2  0  0  0  0
 16 11  1  0  0  0  0
 16 12  1  0  0  0  0
 17 20  1  0  0  0  0
 18 17  2  0  0  0  0
 20 19  1  1  0  0  0
 21 20  1  0  0  0  0
 22 23  1  0  0  0  0
 23 21  1  0  0  0  0
 24 23  1  0  0  0  0
 26 29  1  0  0  0  0
 26 25  1  0  0  0  0
 27 29  2  0  0  0  0
 28 31  1  0  0  0  0
 29 28  1  0  0  0  0
 31 32  1  0  0  0  0
 32 30  2  0  0  0  0
 33 34  1  6  0  0  0
 33 32  1  0  0  0  0
 35 37  2  0  0  0  0
 37 36  1  0  0  0  0
 37 33  1  0  0  0  0
M  END
>  <MODEL>
6

>  <REMARK>
 VINA RESULT:      -7.1      2.536      5.162
  Name = 
  11 active torsions:
  status: ('A' for Active; 'I' for Inactive)
    1  A    between atoms: C_5  and  C_6
    2  A    between atoms: C_6  and  C_21
    3  A    between atoms: C_6  and  C_37
    4  A    between atoms: C_7  and  C_30
    5  A    between atoms: C_10  and  C_12
    6  A    between atoms: C_10  and  C_33
    7  A    between atoms: N_11  and  N_25
    8  A    between atoms: N_13  and  N_17
    9  A    between atoms: N_13  and  C_29
   10  A    between atoms: C_14  and  C_19
   11  A    between atoms: C_14  and  C_30
                            x       y       z     vdW  Elec       q    Type
                         _______ _______ _______ _____ _____    ______ ____

>  <TORSDO>
F 11

$$$$
=
 OpenBabel11042418213D

 37 39  0  0  1  0  0  0  0  0999 V2000
  188.3450  174.9330  141.1570 C   0  0  0  0  0  2  0  0  0  0  0  0
  188.7120  175.2950  143.6130 C   0  0  2  0  0  3  0  0  0  0  0  0
  189.8250  174.2410  143.6010 C   0  0  0  0  0  2  0  0  0  0  0  0
  189.4680  173.9010  141.1530 C   0  0  0  0  0  2  0  0  0  0  0  0
  188.5870  175.9740  142.2480 C   0  0  0  0  0  2  0  0  0  0  0  0
  189.5440  173.2110  142.5120 C   0  0  1  0  0  3  0  0  0  0  0  0
  188.8750  176.3310  144.7380 C   0  0  1  0  0  3  0  0  0  0  0  0
  184.4800  179.4360  144.4390 C   0  0  0  0  0  3  0  0  0  0  0  0
  186.5470  178.4330  143.6480 C   0  0  0  0  0  3  0  0  0  0  0  0
  187.1910  176.4060  146.5950 C   0  0  0  0  0  3  0  0  0  0  0  0
  187.5640  176.7580  145.3590 C   0  0  0  0  0  0  0  0  0  0  0  0
  185.6170  177.8810  145.7910 C   0  0  0  0  0  0  0  0  0  0  0  0
  184.5720  178.7270  145.6020 N   0  0  0  0  0  2  0  0  0  0  0  0
  185.8900  177.0560  146.9920 C   0  0  0  0  0  3  0  0  0  0  0  0
  185.4660  179.3040  143.4420 C   0  0  0  0  0  3  0  0  0  0  0  0
  186.5900  177.7160  144.8440 C   0  0  0  0  0  0  0  0  0  0  0  0
  190.9410  176.6480  146.0600 C   0  0  0  0  0  3  0  0  0  0  0  0
  189.8660  175.9080  145.7900 C   0  0  0  0  0  3  0  0  0  0  0  0
  191.5490  176.7490  148.3420 O   0  0  0  0  0  1  0  0  0  0  0  0
  191.9140  176.2140  147.1040 C   0  0  2  0  0  3  0  0  0  0  0  0
  193.3050  176.6960  146.7250 C   0  0  0  0  0  2  0  0  0  0  0  0
  194.0070  176.3280  144.4740 O   0  0  0  0  0  1  0  0  0  0  0  0
  193.9560  175.7390  145.7400 C   0  0  0  0  0  3  0  0  0  0  0  0
  195.2500  175.4490  146.1650 O   0  0  0  0  0  1  0  0  0  0  0  0
  190.5990  172.2150  142.4950 N   0  0  0  0  0  2  0  0  0  0  0  0
  191.1840  172.2320  143.7680 N   0  0  0  0  0  2  0  0  0  0  0  0
  193.0400  172.5980  145.1080 O   0  0  0  0  0  0  0  0  0  0  0  0
  193.3630  172.9370  142.8260 N   0  0  0  0  0  2  0  0  0  0  0  0
  192.5530  172.5860  143.9480 C   0  0  0  0  0  0  0  0  0  0  0  0
  194.8230  174.7750  141.3130 O   0  0  0  0  0  0  0  0  0  0  0  0
  194.7400  173.1450  142.9750 N   0  0  0  0  0  2  0  0  0  0  0  0
  195.4530  174.0540  142.1340 C   0  0  0  0  0  0  0  0  0  0  0  0
  196.9500  174.1630  142.2120 C   0  0  1  0  0  3  0  0  0  0  0  0
  197.5540  174.8450  140.9930 C   0  0  0  0  0  1  0  0  0  0  0  0
  197.2270  176.1070  143.5630 O   0  0  0  0  0  0  0  0  0  0  0  0
  197.9410  174.1300  144.5500 N   0  0  0  0  0  1  0  0  0  0  0  0
  197.3740  174.8610  143.4660 C   0  0  0  0  0  0  0  0  0  0  0  0
  1  5  1  0  0  0  0
  2  7  1  1  0  0  0
  3  2  1  0  0  0  0
  4  1  1  0  0  0  0
  4  6  1  0  0  0  0
  5  2  1  0  0  0  0
  6 25  1  6  0  0  0
  6  3  1  0  0  0  0
  7 11  1  0  0  0  0
  7 18  1  1  0  0  0
  8 13  1  0  0  0  0
  9 16  2  0  0  0  0
 10 14  1  0  0  0  0
 11 10  2  0  0  0  0
 12 14  2  0  0  0  0
 13 12  1  0  0  0  0
 15  9  1  0  0  0  0
 15  8  2  0  0  0  0
 16 11  1  0  0  0  0
 16 12  1  0  0  0  0
 17 20  1  0  0  0  0
 18 17  2  0  0  0  0
 20 19  1  1  0  0  0
 21 20  1  0  0  0  0
 22 23  1  0  0  0  0
 23 24  1  0  0  0  0
 23 21  1  0  0  0  0
 25 26  1  0  0  0  0
 26 29  1  0  0  0  0
 28 31  1  0  0  0  0
 28 29  1  0  0  0  0
 29 27  2  0  0  0  0
 30 32  2  0  0  0  0
 32 33  1  0  0  0  0
 32 31  1  0  0  0  0
 33 34  1  6  0  0  0
 33 37  1  0  0  0  0
 37 35  2  0  0  0  0
 37 36  1  0  0  0  0
M  END
>  <MODEL>
7

>  <REMARK>
 VINA RESULT:      -7.0      2.674      4.947
  Name = 
  11 active torsions:
  status: ('A' for Active; 'I' for Inactive)
    1  A    between atoms: C_5  and  C_6
    2  A    between atoms: C_6  and  C_21
    3  A    between atoms: C_6  and  C_37
    4  A    between atoms: C_7  and  C_30
    5  A    between atoms: C_10  and  C_12
    6  A    between atoms: C_10  and  C_33
    7  A    between atoms: N_11  and  N_25
    8  A    between atoms: N_13  and  N_17
    9  A    between atoms: N_13  and  C_29
   10  A    between atoms: C_14  and  C_19
   11  A    between atoms: C_14  and  C_30
                            x       y       z     vdW  Elec       q    Type
                         _______ _______ _______ _____ _____    ______ ____

>  <TORSDO>
F 11

$$$$
=
 OpenBabel11042418213D

 37 39  0  0  1  0  0  0  0  0999 V2000
  192.9860  176.8360  147.1540 C   0  0  0  0  0  2  0  0  0  0  0  0
  191.5900  176.4240  145.1090 C   0  0  2  0  0  3  0  0  0  0  0  0
  192.7580  175.6690  144.4660 C   0  0  0  0  0  2  0  0  0  0  0  0
  194.1330  176.0640  146.5120 C   0  0  0  0  0  2  0  0  0  0  0  0
  191.6450  176.3210  146.6340 C   0  0  0  0  0  2  0  0  0  0  0  0
  194.0780  176.2180  144.9950 C   0  0  1  0  0  3  0  0  0  0  0  0
  190.2180  175.9860  144.5700 C   0  0  1  0  0  3  0  0  0  0  0  0
  189.9290  171.9230  141.0410 C   0  0  0  0  0  3  0  0  0  0  0  0
  190.2390  174.2250  141.7560 C   0  0  0  0  0  3  0  0  0  0  0  0
  189.8440  173.6220  145.3180 C   0  0  0  0  0  3  0  0  0  0  0  0
  190.1090  174.4960  144.3400 C   0  0  0  0  0  0  0  0  0  0  0  0
  189.8570  172.4560  143.3330 C   0  0  0  0  0  0  0  0  0  0  0  0
  189.7730  171.5330  142.3410 N   0  0  0  0  0  2  0  0  0  0  0  0
  189.6910  172.2190  144.7870 C   0  0  0  0  0  3  0  0  0  0  0  0
  190.1630  173.2750  140.7250 C   0  0  0  0  0  3  0  0  0  0  0  0
  190.0920  173.7770  143.0690 C   0  0  0  0  0  0  0  0  0  0  0  0
  188.0930  177.2210  144.8500 C   0  0  0  0  0  3  0  0  0  0  0  0
  189.0690  176.4970  145.3990 C   0  0  0  0  0  3  0  0  0  0  0  0
  186.1490  176.6510  146.0680 O   0  0  0  0  0  1  0  0  0  0  0  0
  186.9620  177.7200  145.6850 C   0  0  2  0  0  3  0  0  0  0  0  0
  186.1490  178.7230  144.8820 C   0  0  0  0  0  2  0  0  0  0  0  0
  184.3600  178.0170  143.4690 O   0  0  0  0  0  1  0  0  0  0  0  0
  185.7500  178.1380  143.5370 C   0  0  0  0  0  3  0  0  0  0  0  0
  186.1890  178.9800  142.5190 O   0  0  0  0  0  1  0  0  0  0  0  0
  195.1860  175.5000  144.3910 N   0  0  0  0  0  2  0  0  0  0  0  0
  196.0050  175.0720  145.4430 N   0  0  0  0  0  2  0  0  0  0  0  0
  197.1770  173.3710  146.4980 O   0  0  0  0  0  0  0  0  0  0  0  0
  196.0370  172.7590  144.5600 N   0  0  0  0  0  2  0  0  0  0  0  0
  196.4340  173.7160  145.5420 C   0  0  0  0  0  0  0  0  0  0  0  0
  194.3440  170.9550  145.8570 O   0  0  0  0  0  0  0  0  0  0  0  0
  196.3320  171.4000  144.7260 N   0  0  0  0  0  2  0  0  0  0  0  0
  195.4600  170.5300  145.4510 C   0  0  0  0  0  0  0  0  0  0  0  0
  195.8560  169.1090  145.7400 C   0  0  1  0  0  3  0  0  0  0  0  0
  197.2170  168.7480  145.1600 C   0  0  0  0  0  1  0  0  0  0  0  0
  196.8840  168.9210  147.8820 O   0  0  0  0  0  0  0  0  0  0  0  0
  194.6080  168.4620  147.8540 N   0  0  0  0  0  1  0  0  0  0  0  0
  195.8240  168.8290  147.2090 C   0  0  0  0  0  0  0  0  0  0  0  0
  2  7  1  6  0  0  0
  2  5  1  0  0  0  0
  3  6  1  0  0  0  0
  3  2  1  0  0  0  0
  4  1  1  0  0  0  0
  5  1  1  0  0  0  0
  6 25  1  6  0  0  0
  6  4  1  0  0  0  0
  7 18  1  1  0  0  0
  8 13  1  0  0  0  0
  9 16  2  0  0  0  0
 11  7  1  0  0  0  0
 11 10  2  0  0  0  0
 12 14  2  0  0  0  0
 13 12  1  0  0  0  0
 14 10  1  0  0  0  0
 15  8  2  0  0  0  0
 15  9  1  0  0  0  0
 16 12  1  0  0  0  0
 16 11  1  0  0  0  0
 17 18  2  0  0  0  0
 17 20  1  0  0  0  0
 20 19  1  6  0  0  0
 21 20  1  0  0  0  0
 22 23  1  0  0  0  0
 23 21  1  0  0  0  0
 24 23  1  0  0  0  0
 25 26  1  0  0  0  0
 26 29  1  0  0  0  0
 28 31  1  0  0  0  0
 28 29  1  0  0  0  0
 29 27  2  0  0  0  0
 31 32  1  0  0  0  0
 32 33  1  0  0  0  0
 32 30  2  0  0  0  0
 33 34  1  1  0  0  0
 33 37  1  0  0  0  0
 37 36  1  0  0  0  0
 37 35  2  0  0  0  0
M  END
>  <MODEL>
8

>  <REMARK>
 VINA RESULT:      -7.0      4.004      6.437
  Name = 
  11 active torsions:
  status: ('A' for Active; 'I' for Inactive)
    1  A    between atoms: C_5  and  C_6
    2  A    between atoms: C_6  and  C_21
    3  A    between atoms: C_6  and  C_37
    4  A    between atoms: C_7  and  C_30
    5  A    between atoms: C_10  and  C_12
    6  A    between atoms: C_10  and  C_33
    7  A    between atoms: N_11  and  N_25
    8  A    between atoms: N_13  and  N_17
    9  A    between atoms: N_13  and  C_29
   10  A    between atoms: C_14  and  C_19
   11  A    between atoms: C_14  and  C_30
                            x       y       z     vdW  Elec       q    Type
                         _______ _______ _______ _____ _____    ______ ____

>  <TORSDO>
F 11

$$$$
=
 OpenBabel11042418213D

 37 39  0  0  1  0  0  0  0  0999 V2000
  191.7470  176.4300  147.5250 C   0  0  0  0  0  2  0  0  0  0  0  0
  190.3990  176.4230  145.4080 C   0  0  2  0  0  3  0  0  0  0  0  0
  191.6650  176.1010  144.6050 C   0  0  0  0  0  2  0  0  0  0  0  0
  192.9960  176.0890  146.7180 C   0  0  0  0  0  2  0  0  0  0  0  0
  190.5030  175.8780  146.8330 C   0  0  0  0  0  2  0  0  0  0  0  0
  192.8840  176.6800  145.3150 C   0  0  1  0  0  3  0  0  0  0  0  0
  189.1100  175.9440  144.7200 C   0  0  1  0  0  3  0  0  0  0  0  0
  185.1010  178.6020  147.1490 C   0  0  0  0  0  3  0  0  0  0  0  0
  186.9860  177.0750  147.0060 C   0  0  0  0  0  3  0  0  0  0  0  0
  187.7000  177.6090  143.4840 C   0  0  0  0  0  3  0  0  0  0  0  0
  188.0420  177.0110  144.6300 C   0  0  1  0  0  3  0  0  0  0  0  0
  186.2460  178.3460  145.1090 C   0  0  0  0  0  0  0  0  0  0  0  0
  185.2500  178.9220  145.8300 N   0  0  0  0  0  0  0  0  0  0  0  0
  186.5400  178.5530  143.6710 C   0  0  0  0  0  3  0  0  0  0  0  0
  185.9640  177.6720  147.7610 C   0  0  0  0  0  3  0  0  0  0  0  0
  187.1120  177.4450  145.6670 C   0  0  0  0  0  0  0  0  0  0  0  0
  189.0310  174.0360  143.1480 C   0  0  0  0  0  3  0  0  0  0  0  0
  189.3600  175.3070  143.3780 C   0  0  0  0  0  3  0  0  0  0  0  0
  190.5740  172.8760  141.7840 O   0  0  0  0  0  1  0  0  0  0  0  0
  189.2870  173.4190  141.8140 C   0  0  2  0  0  3  0  0  0  0  0  0
  189.1520  174.4810  140.7350 C   0  0  0  0  0  2  0  0  0  0  0  0
  189.5040  173.8030  138.4740 O   0  0  0  0  0  1  0  0  0  0  0  0
  188.5350  173.8940  139.4760 C   0  0  0  0  0  3  0  0  0  0  0  0
  188.0410  172.6220  139.7550 O   0  0  0  0  0  1  0  0  0  0  0  0
  194.0840  176.3710  144.5590 N   0  0  0  0  0  2  0  0  0  0  0  0
  195.0230  175.8880  145.4800 N   0  0  0  0  0  2  0  0  0  0  0  0
  196.4170  174.1820  146.2030 O   0  0  0  0  0  0  0  0  0  0  0  0
  195.1700  173.7230  144.2900 N   0  0  0  0  0  2  0  0  0  0  0  0
  195.5690  174.5770  145.3610 C   0  0  0  0  0  0  0  0  0  0  0  0
  193.5760  171.5740  145.0890 O   0  0  0  0  0  0  0  0  0  0  0  0
  195.5900  172.3870  144.2460 N   0  0  0  0  0  2  0  0  0  0  0  0
  194.7580  171.3270  144.7240 C   0  0  0  0  0  0  0  0  0  0  0  0
  195.2740  169.9180  144.8000 C   0  0  1  0  0  3  0  0  0  0  0  0
  196.7770  169.8540  145.0300 C   0  0  0  0  0  1  0  0  0  0  0  0
  194.8460  169.3020  147.0620 O   0  0  0  0  0  0  0  0  0  0  0  0
  193.5310  168.2060  145.4930 N   0  0  0  0  0  1  0  0  0  0  0  0
  194.5510  169.1350  145.8500 C   0  0  0  0  0  0  0  0  0  0  0  0
  2  7  1  6  0  0  0
  2  5  1  0  0  0  0
  3  6  1  0  0  0  0
  3  2  1  0  0  0  0
  4  1  1  0  0  0  0
  5  1  1  0  0  0  0
  6 25  1  6  0  0  0
  6  4  1  0  0  0  0
  7 18  1  6  0  0  0
  8 15  1  0  0  0  0
  9 15  2  0  0  0  0
 10 14  2  0  0  0  0
 10 11  1  0  0  0  0
 11  7  1  6  0  0  0
 11 16  1  0  0  0  0
 12 16  2  0  0  0  0
 12 13  1  0  0  0  0
 13  8  2  0  0  0  0
 14 12  1  0  0  0  0
 16  9  1  0  0  0  0
 17 18  2  0  0  0  0
 20 19  1  1  0  0  0
 20 17  1  0  0  0  0
 21 20  1  0  0  0  0
 22 23  1  0  0  0  0
 23 24  1  0  0  0  0
 23 21  1  0  0  0  0
 25 26  1  0  0  0  0
 28 29  1  0  0  0  0
 29 26  1  0  0  0  0
 29 27  2  0  0  0  0
 31 28  1  0  0  0  0
 31 32  1  0  0  0  0
 32 33  1  0  0  0  0
 32 30  2  0  0  0  0
 33 34  1  1  0  0  0
 33 37  1  0  0  0  0
 36 37  1  0  0  0  0
 37 35  2  0  0  0  0
M  END
>  <MODEL>
9

>  <REMARK>
 VINA RESULT:      -6.9      2.705      3.795
  Name = 
  11 active torsions:
  status: ('A' for Active; 'I' for Inactive)
    1  A    between atoms: C_5  and  C_6
    2  A    between atoms: C_6  and  C_21
    3  A    between atoms: C_6  and  C_37
    4  A    between atoms: C_7  and  C_30
    5  A    between atoms: C_10  and  C_12
    6  A    between atoms: C_10  and  C_33
    7  A    between atoms: N_11  and  N_25
    8  A    between atoms: N_13  and  N_17
    9  A    between atoms: N_13  and  C_29
   10  A    between atoms: C_14  and  C_19
   11  A    between atoms: C_14  and  C_30
                            x       y       z     vdW  Elec       q    Type
                         _______ _______ _______ _____ _____    ______ ____

>  <TORSDO>
F 11

$$$$
