=
 OpenBabel11042414123D

 49 55  0  0  1  0  0  0  0  0999 V2000
  192.8070  171.3230  141.2830 N   0  0  0  0  0  2  0  0  0  0  0  0
  190.9190  174.0280  142.9860 C   0  0  0  0  0  0  0  0  0  0  0  0
  188.7000  174.6110  143.2070 N   0  0  0  0  0  2  0  0  0  0  0  0
  189.3280  172.5680  141.9170 C   0  0  0  0  0  3  0  0  0  0  0  0
  191.9940  173.2610  142.5380 C   0  0  0  0  0  3  0  0  0  0  0  0
  189.6330  173.6920  142.6800 C   0  0  0  0  0  0  0  0  0  0  0  0
  189.4520  175.6460  143.9200 C   0  0  2  0  0  3  0  0  0  0  0  0
  190.9450  175.2680  143.8010 C   0  0  0  0  0  2  0  0  0  0  0  0
  190.3910  171.7760  141.4550 C   0  0  0  0  0  3  0  0  0  0  0  0
  191.7250  172.1200  141.7590 C   0  0  0  0  0  0  0  0  0  0  0  0
  188.9740  175.6560  145.6730 S   0  0  0  0  0  0  0  0  0  0  0  0
  187.4400  177.6160  146.8150 C   0  0  0  0  0  2  0  0  0  0  0  0
  188.4550  177.3980  145.6770 C   0  0  2  0  0  3  0  0  0  0  0  0
  186.3950  178.3750  146.1640 N   0  0  1  0  0  0  0  0  0  0  0  0
  185.1880  178.6000  144.2300 C   0  0  2  0  0  3  0  0  0  0  0  0
  186.2650  177.7530  144.8750 C   0  0  1  0  0  0  0  0  0  0  0  0
  187.6850  177.7340  144.3800 C   0  0  0  0  0  2  0  0  0  0  0  0
  185.0390  178.4150  146.6690 C   0  0  0  0  0  2  0  0  0  0  0  0
  185.8170  176.4190  144.9900 O   0  0  0  0  0  1  0  0  0  0  0  0
  184.2200  178.8020  145.4170 C   0  0  0  0  0  2  0  0  0  0  0  0
  184.4840  177.9090  143.0660 C   0  0  0  0  0  2  0  0  0  0  0  0
  184.2210  178.4980  140.6040 N   0  0  0  0  0  2  0  0  0  0  0  0
  186.2580  178.7030  141.6900 O   0  0  0  0  0  0  0  0  0  0  0  0
  182.8160  178.1290  140.6040 C   0  0  0  0  0  1  0  0  0  0  0  0
  185.0460  178.3760  141.7610 C   0  0  0  0  0  0  0  0  0  0  0  0
  192.7220  170.6330  140.0660 N   0  0  0  0  0  2  0  0  0  0  0  0
  193.7850  171.1270  139.2090 C   0  0  0  0  0  2  0  0  0  0  0  0
  193.2090  172.0380  138.1280 C   0  0  1  0  0  3  0  0  0  0  0  0
  191.7390  171.6860  137.8780 C   0  0  1  0  0  3  0  0  0  0  0  0
  189.3020  172.0500  136.3870 C   0  0  0  0  0  2  0  0  0  0  0  0
  190.8570  172.9330  137.9470 C   0  0  0  0  0  2  0  0  0  0  0  0
  188.6810  173.7860  137.8230 C   0  0  0  0  0  1  0  0  0  0  0  0
  189.4550  172.5620  137.7460 N   0  0  0  0  0  0  0  0  0  0  0  0
  190.0980  170.7590  136.2200 C   0  0  0  0  0  2  0  0  0  0  0  0
  191.5720  171.0360  136.5010 C   0  0  0  0  0  2  0  0  0  0  0  0
  193.3200  173.3720  138.5440 O   0  0  0  0  0  0  0  0  0  0  0  0
  194.6470  174.6570  139.9850 C   0  0  1  0  0  3  0  0  0  0  0  0
  195.1780  174.6930  138.6840 O   0  0  0  0  0  0  0  0  0  0  0  0
  194.6000  173.4790  139.0920 C   0  0  2  0  0  3  0  0  0  0  0  0
  195.7330  174.5120  140.9390 N   0  0  0  0  0  2  0  0  0  0  0  0
  195.0240  176.0380  143.1120 S   0  0  0  0  0  0  0  0  0  0  0  0
  195.2830  174.0030  144.5550 C   0  0  0  0  0  0  0  0  0  0  0  0
  194.9240  175.3510  144.6400 C   0  0  0  0  0  0  0  0  0  0  0  0
  195.5170  174.6270  142.3440 C   0  0  0  0  0  0  0  0  0  0  0  0
  195.6110  173.5870  143.2600 C   0  0  0  0  0  3  0  0  0  0  0  0
  194.0900  176.6180  146.7460 N   0  0  0  0  0  0  0  0  0  0  0  0
  194.4610  176.0530  145.8070 C   0  0  0  0  0  0  0  0  0  0  0  0
  195.3280  173.1000  145.6570 N   0  0  0  0  0  2  0  0  0  0  0  0
  195.3150  171.7520  145.5010 O   0  0  0  0  0  1  0  0  0  0  0  0
  1 10  1  0  0  0  0
  2  8  1  0  0  0  0
  3  7  1  0  0  0  0
  4  6  2  0  0  0  0
  5  2  2  0  0  0  0
  6  2  1  0  0  0  0
  6  3  1  0  0  0  0
  7 11  1  1  0  0  0
  8  7  1  0  0  0  0
  9 10  2  0  0  0  0
  9  4  1  0  0  0  0
 10  5  1  0  0  0  0
 13 11  1  6  0  0  0
 13 12  1  0  0  0  0
 14 18  1  1  0  0  0
 14 12  1  0  0  0  0
 15 21  1  6  0  0  0
 15 16  1  0  0  0  0
 15 20  1  0  0  0  0
 16 19  1  1  0  0  0
 16 14  1  0  0  0  0
 17 16  1  0  0  0  0
 17 13  1  0  0  0  0
 20 18  1  0  0  0  0
 22 24  1  0  0  0  0
 22 25  1  0  0  0  0
 23 25  2  0  0  0  0
 25 21  1  0  0  0  0
 26  1  1  0  0  0  0
 27 26  1  0  0  0  0
 28 36  1  0  0  0  0
 28 27  1  1  0  0  0
 29 31  1  0  0  0  0
 29 28  1  6  0  0  0
 30 33  1  0  0  0  0
 33 32  1  0  0  0  0
 33 31  1  0  0  0  0
 34 30  1  0  0  0  0
 34 35  1  0  0  0  0
 35 29  1  0  0  0  0
 37 40  1  1  0  0  0
 38 39  1  0  0  0  0
 38 37  1  0  0  0  0
 39 36  1  6  0  0  0
 39 37  1  0  0  0  0
 40 44  1  0  0  0  0
 41 43  1  0  0  0  0
 42 43  2  0  0  0  0
 42 48  1  0  0  0  0
 43 47  1  0  0  0  0
 44 41  1  0  0  0  0
 44 45  2  0  0  0  0
 45 42  1  0  0  0  0
 47 46  3  0  0  0  0
 49 48  1  0  0  0  0
M  END
>  <MODEL>
1

>  <REMARK>
 VINA RESULT:      -6.5      0.000      0.000
  Name = 
  15 active torsions:
  status: ('A' for Active; 'I' for Inactive)
    1  A    between atoms: C_1  and  C_10
    2  A    between atoms: N_4  and  C_39
    3  A    between atoms: N_4  and  N_48
    4  A    between atoms: C_8  and  C_29
    5  A    between atoms: C_8  and  C_37
    6  A    between atoms: C_10  and  O_17
    7  A    between atoms: C_10  and  C_39
    8  A    between atoms: N_12  and  C_31
    9  A    between atoms: C_14  and  C_34
   10  A    between atoms: O_17  and  C_40
   11  A    between atoms: C_18  and  S_24
   12  A    between atoms: C_19  and  N_32
   13  A    between atoms: S_24  and  C_35
   14  A    between atoms: N_32  and  C_38
   15  A    between atoms: C_46  and  N_48
                            x       y       z     vdW  Elec       q    Type
                         _______ _______ _______ _____ _____    ______ ____

>  <TORSDO>
F 15

$$$$
=
 OpenBabel11042414123D

 49 55  0  0  1  0  0  0  0  0999 V2000
  187.3170  176.6100  141.3200 N   0  0  0  0  0  2  0  0  0  0  0  0
  190.0690  174.1470  141.6930 C   0  0  0  0  0  0  0  0  0  0  0  0
  190.8860  172.3780  140.4620 N   0  0  0  0  0  2  0  0  0  0  0  0
  188.9610  173.7130  139.5990 C   0  0  0  0  0  3  0  0  0  0  0  0
  189.2150  175.2120  141.9790 C   0  0  0  0  0  3  0  0  0  0  0  0
  189.9410  173.4240  140.5440 C   0  0  0  0  0  0  0  0  0  0  0  0
  191.7040  172.4240  141.6760 C   0  0  2  0  0  3  0  0  0  0  0  0
  191.1870  173.6150  142.5130 C   0  0  0  0  0  2  0  0  0  0  0  0
  188.0890  174.7810  139.8590 C   0  0  0  0  0  3  0  0  0  0  0  0
  188.2090  175.5300  141.0490 C   0  0  0  0  0  0  0  0  0  0  0  0
  193.4430  172.7110  141.2350 S   0  0  0  0  0  0  0  0  0  0  0  0
  194.2820  175.3070  141.4610 C   0  0  0  0  0  2  0  0  0  0  0  0
  193.6230  174.1840  142.2830 C   0  0  2  0  0  3  0  0  0  0  0  0
  195.2970  175.8040  142.3630 N   0  0  1  0  0  0  0  0  0  0  0  0
  196.8680  175.1940  143.9150 C   0  0  2  0  0  3  0  0  0  0  0  0
  195.8390  174.6170  142.9640 C   0  0  1  0  0  0  0  0  0  0  0  0
  194.6060  173.9040  143.4430 C   0  0  0  0  0  2  0  0  0  0  0  0
  196.4640  176.5220  141.8960 C   0  0  0  0  0  2  0  0  0  0  0  0
  196.4810  173.8020  142.0070 O   0  0  0  0  0  1  0  0  0  0  0  0
  197.4740  176.3200  143.0480 C   0  0  0  0  0  2  0  0  0  0  0  0
  197.9410  174.1940  144.3340 C   0  0  0  0  0  2  0  0  0  0  0  0
  197.4400  171.8510  145.1930 N   0  0  0  0  0  2  0  0  0  0  0  0
  196.9750  173.7360  146.4620 O   0  0  0  0  0  0  0  0  0  0  0  0
  197.9200  171.2340  143.9690 C   0  0  0  0  0  1  0  0  0  0  0  0
  197.4140  173.2650  145.3810 C   0  0  0  0  0  0  0  0  0  0  0  0
  186.6440  176.7080  142.5460 N   0  0  0  0  0  2  0  0  0  0  0  0
  186.4870  178.1210  142.8450 C   0  0  0  0  0  2  0  0  0  0  0  0
  185.1350  178.3700  143.5090 C   0  0  1  0  0  3  0  0  0  0  0  0
  184.0040  178.0000  142.5460 C   0  0  1  0  0  3  0  0  0  0  0  0
  182.0100  178.7730  140.6170 C   0  0  0  0  0  2  0  0  0  0  0  0
  182.7240  178.7680  142.8800 C   0  0  0  0  0  2  0  0  0  0  0  0
  180.4750  179.1280  142.3440 C   0  0  0  0  0  1  0  0  0  0  0  0
  181.6500  178.3630  141.9720 N   0  0  0  0  0  0  0  0  0  0  0  0
  183.2500  178.0160  140.1520 C   0  0  0  0  0  2  0  0  0  0  0  0
  184.4070  178.3120  141.1020 C   0  0  0  0  0  2  0  0  0  0  0  0
  185.0470  177.5970  144.6760 O   0  0  0  0  0  0  0  0  0  0  0  0
  186.6170  177.1400  146.3540 C   0  0  1  0  0  3  0  0  0  0  0  0
  185.5390  177.8670  146.8890 O   0  0  0  0  0  0  0  0  0  0  0  0
  185.9280  178.1950  145.5790 C   0  0  2  0  0  3  0  0  0  0  0  0
  187.8600  177.6580  146.8990 N   0  0  0  0  0  2  0  0  0  0  0  0
  190.0750  176.0910  147.3320 S   0  0  0  0  0  0  0  0  0  0  0  0
  190.9410  176.7930  145.0860 C   0  0  0  0  0  0  0  0  0  0  0  0
  191.2770  175.9750  146.1670 C   0  0  0  0  0  0  0  0  0  0  0  0
  189.1280  177.1750  146.4640 C   0  0  0  0  0  0  0  0  0  0  0  0
  189.7250  177.4660  145.2440 C   0  0  0  0  0  3  0  0  0  0  0  0
  193.3290  174.3940  146.3550 N   0  0  0  0  0  0  0  0  0  0  0  0
  192.4140  175.0990  146.2710 C   0  0  0  0  0  0  0  0  0  0  0  0
  191.7330  176.9600  143.9120 N   0  0  0  0  0  2  0  0  0  0  0  0
  191.4280  177.8610  142.9440 O   0  0  0  0  0  1  0  0  0  0  0  0
  1 26  1  0  0  0  0
  2  5  1  0  0  0  0
  2  8  1  0  0  0  0
  3  6  1  0  0  0  0
  3  7  1  0  0  0  0
  4  9  2  0  0  0  0
  4  6  1  0  0  0  0
  6  2  2  0  0  0  0
  7 11  1  6  0  0  0
  7  8  1  0  0  0  0
  9 10  1  0  0  0  0
 10  1  1  0  0  0  0
 10  5  2  0  0  0  0
 12 13  1  0  0  0  0
 13 11  1  6  0  0  0
 13 17  1  0  0  0  0
 14 12  1  6  0  0  0
 14 16  1  0  0  0  0
 15 21  1  6  0  0  0
 16 19  1  6  0  0  0
 16 17  1  0  0  0  0
 16 15  1  0  0  0  0
 18 14  1  0  0  0  0
 18 20  1  0  0  0  0
 20 15  1  0  0  0  0
 21 25  1  0  0  0  0
 22 25  1  0  0  0  0
 24 22  1  0  0  0  0
 25 23  2  0  0  0  0
 26 27  1  0  0  0  0
 28 27  1  6  0  0  0
 28 36  1  0  0  0  0
 29 31  1  0  0  0  0
 29 28  1  1  0  0  0
 30 33  1  0  0  0  0
 33 32  1  0  0  0  0
 33 31  1  0  0  0  0
 34 30  1  0  0  0  0
 34 35  1  0  0  0  0
 35 29  1  0  0  0  0
 37 38  1  0  0  0  0
 37 40  1  1  0  0  0
 39 36  1  6  0  0  0
 39 37  1  0  0  0  0
 39 38  1  0  0  0  0
 42 45  1  0  0  0  0
 42 43  2  0  0  0  0
 43 47  1  0  0  0  0
 43 41  1  0  0  0  0
 44 40  1  0  0  0  0
 44 41  1  0  0  0  0
 45 44  2  0  0  0  0
 47 46  3  0  0  0  0
 48 42  1  0  0  0  0
 49 48  1  0  0  0  0
M  END
>  <MODEL>
2

>  <REMARK>
 VINA RESULT:      -6.5      2.473      9.510
  Name = 
  15 active torsions:
  status: ('A' for Active; 'I' for Inactive)
    1  A    between atoms: C_1  and  C_10
    2  A    between atoms: N_4  and  C_39
    3  A    between atoms: N_4  and  N_48
    4  A    between atoms: C_8  and  C_29
    5  A    between atoms: C_8  and  C_37
    6  A    between atoms: C_10  and  O_17
    7  A    between atoms: C_10  and  C_39
    8  A    between atoms: N_12  and  C_31
    9  A    between atoms: C_14  and  C_34
   10  A    between atoms: O_17  and  C_40
   11  A    between atoms: C_18  and  S_24
   12  A    between atoms: C_19  and  N_32
   13  A    between atoms: S_24  and  C_35
   14  A    between atoms: N_32  and  C_38
   15  A    between atoms: C_46  and  N_48
                            x       y       z     vdW  Elec       q    Type
                         _______ _______ _______ _____ _____    ______ ____

>  <TORSDO>
F 15

$$$$
=
 OpenBabel11042414123D

 49 55  0  0  1  0  0  0  0  0999 V2000
  186.0800  177.9820  145.2700 N   0  0  0  0  0  2  0  0  0  0  0  0
  189.7120  177.2140  145.3310 C   0  0  0  0  0  0  0  0  0  0  0  0
  191.0880  175.8170  146.5420 N   0  0  0  0  0  2  0  0  0  0  0  0
  188.6290  175.8260  146.9760 C   0  0  0  0  0  3  0  0  0  0  0  0
  188.5020  177.8030  144.9630 C   0  0  0  0  0  3  0  0  0  0  0  0
  189.7690  176.2620  146.3070 C   0  0  0  0  0  0  0  0  0  0  0  0
  191.9730  176.5520  145.6360 C   0  0  2  0  0  3  0  0  0  0  0  0
  191.0710  177.4860  144.7990 C   0  0  0  0  0  2  0  0  0  0  0  0
  187.3980  176.4000  146.6250 C   0  0  0  0  0  3  0  0  0  0  0  0
  187.3290  177.3910  145.6220 C   0  0  0  0  0  0  0  0  0  0  0  0
  192.8240  175.3890  144.5290 S   0  0  0  0  0  0  0  0  0  0  0  0
  195.2990  175.0040  145.6340 C   0  0  0  0  0  2  0  0  0  0  0  0
  193.8200  174.6300  145.8460 C   0  0  2  0  0  3  0  0  0  0  0  0
  195.9720  173.7360  145.8070 N   0  0  1  0  0  0  0  0  0  0  0  0
  195.8520  171.4910  145.3710 C   0  0  2  0  0  3  0  0  0  0  0  0
  195.1200  172.7960  145.1330 C   0  0  1  0  0  0  0  0  0  0  0  0
  193.7740  173.0890  145.7350 C   0  0  0  0  0  2  0  0  0  0  0  0
  197.2840  173.4750  145.2530 C   0  0  0  0  0  2  0  0  0  0  0  0
  195.0540  173.0590  143.7480 O   0  0  0  0  0  1  0  0  0  0  0  0
  197.3180  171.9320  145.1670 C   0  0  0  0  0  2  0  0  0  0  0  0
  195.4740  170.3910  144.3820 C   0  0  0  0  0  2  0  0  0  0  0  0
  193.1020  169.4880  144.1950 N   0  0  0  0  0  2  0  0  0  0  0  0
  194.4730  168.9370  145.9810 O   0  0  0  0  0  0  0  0  0  0  0  0
  192.8610  170.2110  142.9580 C   0  0  0  0  0  1  0  0  0  0  0  0
  194.3330  169.5800  144.9090 C   0  0  0  0  0  0  0  0  0  0  0  0
  185.9850  179.3420  144.9430 N   0  0  0  0  0  2  0  0  0  0  0  0
  185.3740  179.4320  143.6290 C   0  0  0  0  0  2  0  0  0  0  0  0
  185.3780  178.0640  142.9520 C   0  0  1  0  0  3  0  0  0  0  0  0
  184.0430  177.8300  142.2390 C   0  0  1  0  0  3  0  0  0  0  0  0
  181.8090  178.8340  140.7250 C   0  0  0  0  0  2  0  0  0  0  0  0
  182.9520  178.7410  142.8030 C   0  0  0  0  0  2  0  0  0  0  0  0
  180.6980  179.3620  142.7130 C   0  0  0  0  0  1  0  0  0  0  0  0
  181.6800  178.4660  142.1330 N   0  0  0  0  0  0  0  0  0  0  0  0
  182.8360  177.9380  140.0410 C   0  0  0  0  0  2  0  0  0  0  0  0
  184.1850  178.0960  140.7380 C   0  0  0  0  0  2  0  0  0  0  0  0
  186.4320  178.0110  142.0280 O   0  0  0  0  0  0  0  0  0  0  0  0
  188.1540  176.4470  141.7550 C   0  0  1  0  0  3  0  0  0  0  0  0
  187.3360  176.4650  140.6120 O   0  0  0  0  0  0  0  0  0  0  0  0
  186.6920  176.6510  141.8470 C   0  0  2  0  0  3  0  0  0  0  0  0
  188.4830  175.0710  142.0840 N   0  0  0  0  0  2  0  0  0  0  0  0
  189.2440  173.3220  140.1060 S   0  0  0  0  0  0  0  0  0  0  0  0
  191.6320  173.6960  140.7710 C   0  0  0  0  0  0  0  0  0  0  0  0
  190.8670  172.9910  139.8380 C   0  0  0  0  0  0  0  0  0  0  0  0
  189.5120  174.3610  141.3990 C   0  0  0  0  0  0  0  0  0  0  0  0
  190.8730  174.4770  141.6490 C   0  0  0  0  0  3  0  0  0  0  0  0
  191.7450  171.5150  137.8920 N   0  0  0  0  0  0  0  0  0  0  0  0
  191.3520  172.1730  138.7600 C   0  0  0  0  0  0  0  0  0  0  0  0
  193.0550  173.6530  140.8590 N   0  0  0  0  0  2  0  0  0  0  0  0
  193.8210  174.7720  140.8980 O   0  0  0  0  0  1  0  0  0  0  0  0
  1 10  1  0  0  0  0
  2  6  1  0  0  0  0
  5  2  2  0  0  0  0
  5 10  1  0  0  0  0
  6  3  1  0  0  0  0
  6  4  2  0  0  0  0
  7 11  1  6  0  0  0
  7  3  1  0  0  0  0
  8  2  1  0  0  0  0
  8  7  1  0  0  0  0
  9  4  1  0  0  0  0
 10  9  2  0  0  0  0
 12 14  1  0  0  0  0
 12 13  1  0  0  0  0
 13 11  1  6  0  0  0
 14 18  1  6  0  0  0
 15 21  1  6  0  0  0
 16 19  1  6  0  0  0
 16 15  1  0  0  0  0
 16 17  1  0  0  0  0
 16 14  1  0  0  0  0
 17 13  1  0  0  0  0
 20 18  1  0  0  0  0
 20 15  1  0  0  0  0
 21 25  1  0  0  0  0
 22 25  1  0  0  0  0
 24 22  1  0  0  0  0
 25 23  2  0  0  0  0
 26  1  1  0  0  0  0
 27 26  1  0  0  0  0
 28 27  1  6  0  0  0
 29 31  1  0  0  0  0
 29 28  1  1  0  0  0
 30 33  1  0  0  0  0
 33 32  1  0  0  0  0
 33 31  1  0  0  0  0
 34 30  1  0  0  0  0
 34 35  1  0  0  0  0
 35 29  1  0  0  0  0
 36 28  1  0  0  0  0
 37 39  1  0  0  0  0
 37 40  1  1  0  0  0
 38 37  1  0  0  0  0
 38 39  1  0  0  0  0
 39 36  1  6  0  0  0
 41 44  1  0  0  0  0
 42 48  1  0  0  0  0
 42 45  1  0  0  0  0
 43 41  1  0  0  0  0
 43 42  2  0  0  0  0
 44 45  2  0  0  0  0
 44 40  1  0  0  0  0
 46 47  3  0  0  0  0
 47 43  1  0  0  0  0
 48 49  1  0  0  0  0
M  END
>  <MODEL>
3

>  <REMARK>
 VINA RESULT:      -6.5      2.302      9.395
  Name = 
  15 active torsions:
  status: ('A' for Active; 'I' for Inactive)
    1  A    between atoms: C_1  and  C_10
    2  A    between atoms: N_4  and  C_39
    3  A    between atoms: N_4  and  N_48
    4  A    between atoms: C_8  and  C_29
    5  A    between atoms: C_8  and  C_37
    6  A    between atoms: C_10  and  O_17
    7  A    between atoms: C_10  and  C_39
    8  A    between atoms: N_12  and  C_31
    9  A    between atoms: C_14  and  C_34
   10  A    between atoms: O_17  and  C_40
   11  A    between atoms: C_18  and  S_24
   12  A    between atoms: C_19  and  N_32
   13  A    between atoms: S_24  and  C_35
   14  A    between atoms: N_32  and  C_38
   15  A    between atoms: C_46  and  N_48
                            x       y       z     vdW  Elec       q    Type
                         _______ _______ _______ _____ _____    ______ ____

>  <TORSDO>
F 15

$$$$
=
 OpenBabel11042414123D

 49 55  0  0  1  0  0  0  0  0999 V2000
  184.9760  178.7250  145.4750 N   0  0  0  0  0  2  0  0  0  0  0  0
  188.4380  177.4550  145.9070 C   0  0  0  0  0  0  0  0  0  0  0  0
  189.4570  175.8310  147.1860 N   0  0  0  0  0  2  0  0  0  0  0  0
  186.9880  176.1650  147.3350 C   0  0  0  0  0  3  0  0  0  0  0  0
  187.3710  178.2220  145.4380 C   0  0  0  0  0  3  0  0  0  0  0  0
  188.2490  176.4660  146.8270 C   0  0  0  0  0  0  0  0  0  0  0  0
  190.5360  176.4720  146.4310 C   0  0  2  0  0  3  0  0  0  0  0  0
  189.8750  177.5570  145.5510 C   0  0  0  0  0  2  0  0  0  0  0  0
  185.8960  176.9190  146.8780 C   0  0  0  0  0  3  0  0  0  0  0  0
  186.0830  177.9510  145.9330 C   0  0  0  0  0  0  0  0  0  0  0  0
  191.3520  175.2490  145.3640 S   0  0  0  0  0  0  0  0  0  0  0  0
  193.5250  176.6070  144.4000 C   0  0  0  0  0  2  0  0  0  0  0  0
  193.0290  175.8810  145.6640 C   0  0  2  0  0  3  0  0  0  0  0  0
  194.8620  176.0810  144.2390 N   0  0  1  0  0  0  0  0  0  0  0  0
  196.1500  174.1930  144.3920 C   0  0  2  0  0  3  0  0  0  0  0  0
  194.7250  174.6840  144.5450 C   0  0  1  0  0  0  0  0  0  0  0  0
  194.0170  174.7110  145.8710 C   0  0  0  0  0  2  0  0  0  0  0  0
  195.5500  176.0910  142.9650 C   0  0  0  0  0  2  0  0  0  0  0  0
  193.8930  174.0300  143.6100 O   0  0  0  0  0  1  0  0  0  0  0  0
  196.5950  174.9660  143.1310 C   0  0  0  0  0  2  0  0  0  0  0  0
  196.2550  172.6860  144.1700 C   0  0  0  0  0  2  0  0  0  0  0  0
  197.1810  170.6360  145.3600 N   0  0  0  0  0  2  0  0  0  0  0  0
  197.0040  172.6850  146.4310 O   0  0  0  0  0  0  0  0  0  0  0  0
  196.9830  169.7950  144.1920 C   0  0  0  0  0  1  0  0  0  0  0  0
  196.8150  172.0150  145.3830 C   0  0  0  0  0  0  0  0  0  0  0  0
  185.1520  179.7810  144.5710 N   0  0  0  0  0  2  0  0  0  0  0  0
  184.1520  179.6330  143.5270 C   0  0  0  0  0  2  0  0  0  0  0  0
  184.4280  178.3720  142.7110 C   0  0  1  0  0  3  0  0  0  0  0  0
  183.1440  177.9080  142.0180 C   0  0  1  0  0  3  0  0  0  0  0  0
  180.8220  178.4810  140.4130 C   0  0  0  0  0  2  0  0  0  0  0  0
  181.9380  178.7180  142.4950 C   0  0  0  0  0  2  0  0  0  0  0  0
  179.6240  179.0340  142.3430 C   0  0  0  0  0  1  0  0  0  0  0  0
  180.7210  178.2240  141.8470 N   0  0  0  0  0  0  0  0  0  0  0  0
  181.9650  177.6680  139.8150 C   0  0  0  0  0  2  0  0  0  0  0  0
  183.2730  178.0570  140.4990 C   0  0  0  0  0  2  0  0  0  0  0  0
  185.4170  178.6510  141.7560 O   0  0  0  0  0  0  0  0  0  0  0  0
  186.8440  176.8640  141.2480 C   0  0  1  0  0  3  0  0  0  0  0  0
  186.2040  176.6320  142.4780 O   0  0  0  0  0  0  0  0  0  0  0  0
  186.5510  177.9640  142.1930 C   0  0  2  0  0  3  0  0  0  0  0  0
  188.2410  176.4780  141.3570 N   0  0  0  0  0  2  0  0  0  0  0  0
  189.0520  174.1770  140.0930 S   0  0  0  0  0  0  0  0  0  0  0  0
  189.2590  173.0830  142.3390 C   0  0  0  0  0  0  0  0  0  0  0  0
  189.4530  172.8120  140.9820 C   0  0  0  0  0  0  0  0  0  0  0  0
  188.6370  175.1110  141.4270 C   0  0  0  0  0  0  0  0  0  0  0  0
  188.8060  174.3810  142.5970 C   0  0  0  0  0  3  0  0  0  0  0  0
  190.4130  170.6360  139.9420 N   0  0  0  0  0  0  0  0  0  0  0  0
  189.9850  171.6060  140.4060 C   0  0  0  0  0  0  0  0  0  0  0  0
  189.4850  172.1530  143.3970 N   0  0  0  0  0  2  0  0  0  0  0  0
  190.7030  171.9770  143.9690 O   0  0  0  0  0  1  0  0  0  0  0  0
  1 10  1  0  0  0  0
  2  6  1  0  0  0  0
  5  2  2  0  0  0  0
  5 10  1  0  0  0  0
  6  3  1  0  0  0  0
  6  4  2  0  0  0  0
  7 11  1  6  0  0  0
  7  3  1  0  0  0  0
  8  2  1  0  0  0  0
  8  7  1  0  0  0  0
  9  4  1  0  0  0  0
 10  9  2  0  0  0  0
 12 13  1  0  0  0  0
 13 11  1  6  0  0  0
 13 17  1  0  0  0  0
 14 18  1  6  0  0  0
 14 12  1  0  0  0  0
 14 16  1  0  0  0  0
 15 21  1  6  0  0  0
 15 16  1  0  0  0  0
 16 19  1  6  0  0  0
 16 17  1  0  0  0  0
 18 20  1  0  0  0  0
 20 15  1  0  0  0  0
 21 25  1  0  0  0  0
 22 25  1  0  0  0  0
 24 22  1  0  0  0  0
 25 23  2  0  0  0  0
 26  1  1  0  0  0  0
 27 26  1  0  0  0  0
 28 27  1  6  0  0  0
 29 31  1  0  0  0  0
 29 28  1  1  0  0  0
 30 33  1  0  0  0  0
 33 32  1  0  0  0  0
 33 31  1  0  0  0  0
 34 30  1  0  0  0  0
 34 35  1  0  0  0  0
 35 29  1  0  0  0  0
 36 28  1  0  0  0  0
 37 40  1  1  0  0  0
 37 39  1  0  0  0  0
 37 38  1  0  0  0  0
 39 36  1  6  0  0  0
 39 38  1  0  0  0  0
 40 44  1  0  0  0  0
 41 43  1  0  0  0  0
 41 44  1  0  0  0  0
 42 45  1  0  0  0  0
 42 48  1  0  0  0  0
 43 42  2  0  0  0  0
 44 45  2  0  0  0  0
 46 47  3  0  0  0  0
 47 43  1  0  0  0  0
 48 49  1  0  0  0  0
M  END
>  <MODEL>
4

>  <REMARK>
 VINA RESULT:      -6.4      2.738      9.723
  Name = 
  15 active torsions:
  status: ('A' for Active; 'I' for Inactive)
    1  A    between atoms: C_1  and  C_10
    2  A    between atoms: N_4  and  C_39
    3  A    between atoms: N_4  and  N_48
    4  A    between atoms: C_8  and  C_29
    5  A    between atoms: C_8  and  C_37
    6  A    between atoms: C_10  and  O_17
    7  A    between atoms: C_10  and  C_39
    8  A    between atoms: N_12  and  C_31
    9  A    between atoms: C_14  and  C_34
   10  A    between atoms: O_17  and  C_40
   11  A    between atoms: C_18  and  S_24
   12  A    between atoms: C_19  and  N_32
   13  A    between atoms: S_24  and  C_35
   14  A    between atoms: N_32  and  C_38
   15  A    between atoms: C_46  and  N_48
                            x       y       z     vdW  Elec       q    Type
                         _______ _______ _______ _____ _____    ______ ____

>  <TORSDO>
F 15

$$$$
=
 OpenBabel11042414123D

 49 55  0  0  1  0  0  0  0  0999 V2000
  191.2080  176.8630  145.7690 N   0  0  0  0  0  2  0  0  0  0  0  0
  194.4580  176.0230  144.1830 C   0  0  0  0  0  0  0  0  0  0  0  0
  195.3220  174.2240  143.0320 N   0  0  0  0  0  2  0  0  0  0  0  0
  192.9550  174.1750  143.8240 C   0  0  0  0  0  3  0  0  0  0  0  0
  193.4860  176.7400  144.8810 C   0  0  0  0  0  3  0  0  0  0  0  0
  194.1990  174.7830  143.6780 C   0  0  0  0  0  0  0  0  0  0  0  0
  196.4180  175.1900  143.1300 C   0  0  2  0  0  3  0  0  0  0  0  0
  195.8580  176.4160  143.8850 C   0  0  0  0  0  2  0  0  0  0  0  0
  191.9570  174.8740  144.5190 C   0  0  0  0  0  3  0  0  0  0  0  0
  192.2180  176.1540  145.0530 C   0  0  0  0  0  0  0  0  0  0  0  0
  196.9420  175.6980  141.4660 S   0  0  0  0  0  0  0  0  0  0  0  0
  197.1000  173.5270  139.8060 C   0  0  0  0  0  2  0  0  0  0  0  0
  196.0770  174.3440  140.6170 C   0  0  2  0  0  3  0  0  0  0  0  0
  196.4400  173.3750  138.5280 N   0  0  1  0  0  0  0  0  0  0  0  0
  195.1440  174.4370  136.9650 C   0  0  2  0  0  3  0  0  0  0  0  0
  195.8420  174.6600  138.2910 C   0  0  1  0  0  0  0  0  0  0  0  0
  195.0900  174.9080  139.5690 C   0  0  0  0  0  2  0  0  0  0  0  0
  197.1690  173.1010  137.3080 C   0  0  0  0  0  2  0  0  0  0  0  0
  196.8220  175.6670  138.1500 O   0  0  0  0  0  1  0  0  0  0  0  0
  196.2020  173.6010  136.2110 C   0  0  0  0  0  2  0  0  0  0  0  0
  194.8360  175.7290  136.2130 C   0  0  0  0  0  2  0  0  0  0  0  0
  192.8320  177.1790  135.6140 N   0  0  0  0  0  2  0  0  0  0  0  0
  192.5920  175.2170  136.8260 O   0  0  0  0  0  0  0  0  0  0  0  0
  193.6680  178.1600  134.9430 C   0  0  0  0  0  1  0  0  0  0  0  0
  193.3700  176.0230  136.2530 C   0  0  0  0  0  0  0  0  0  0  0  0
  190.1710  177.5260  145.0980 N   0  0  0  0  0  2  0  0  0  0  0  0
  188.9170  177.0610  145.6660 C   0  0  0  0  0  2  0  0  0  0  0  0
  188.0980  176.3320  144.6040 C   0  0  1  0  0  3  0  0  0  0  0  0
  186.7440  177.0240  144.4220 C   0  0  1  0  0  3  0  0  0  0  0  0
  185.0020  179.2690  144.8920 C   0  0  0  0  0  2  0  0  0  0  0  0
  186.1180  177.3690  145.7740 C   0  0  0  0  0  2  0  0  0  0  0  0
  184.2760  178.2900  146.8860 C   0  0  0  0  0  1  0  0  0  0  0  0
  184.8080  177.9900  145.5700 N   0  0  0  0  0  0  0  0  0  0  0  0
  185.5710  179.0400  143.4950 C   0  0  0  0  0  2  0  0  0  0  0  0
  186.9070  178.3110  143.6080 C   0  0  0  0  0  2  0  0  0  0  0  0
  188.8070  176.3360  143.3940 O   0  0  0  0  0  0  0  0  0  0  0  0
  189.3320  174.9200  141.6030 C   0  0  1  0  0  3  0  0  0  0  0  0
  188.0590  175.4850  141.4110 O   0  0  0  0  0  0  0  0  0  0  0  0
  188.4120  175.1710  142.7350 C   0  0  2  0  0  3  0  0  0  0  0  0
  189.2910  173.5150  141.2340 N   0  0  0  0  0  2  0  0  0  0  0  0
  189.3750  172.8280  138.5750 S   0  0  0  0  0  0  0  0  0  0  0  0
  191.8030  172.2680  138.8550 C   0  0  0  0  0  0  0  0  0  0  0  0
  190.8070  172.3040  137.8750 C   0  0  0  0  0  0  0  0  0  0  0  0
  190.0180  173.0120  140.1170 C   0  0  0  0  0  0  0  0  0  0  0  0
  191.3660  172.6740  140.1200 C   0  0  0  0  0  3  0  0  0  0  0  0
  191.0860  171.8020  135.3440 N   0  0  0  0  0  0  0  0  0  0  0  0
  190.9610  172.0260  136.4720 C   0  0  0  0  0  0  0  0  0  0  0  0
  193.1510  171.8590  138.6330 N   0  0  0  0  0  2  0  0  0  0  0  0
  193.9630  171.4360  139.6350 O   0  0  0  0  0  1  0  0  0  0  0  0
  2  5  1  0  0  0  0
  3  7  1  0  0  0  0
  3  6  1  0  0  0  0
  4  9  2  0  0  0  0
  5 10  2  0  0  0  0
  6  4  1  0  0  0  0
  6  2  2  0  0  0  0
  7 11  1  6  0  0  0
  7  8  1  0  0  0  0
  8  2  1  0  0  0  0
  9 10  1  0  0  0  0
 10  1  1  0  0  0  0
 12 13  1  0  0  0  0
 13 11  1  6  0  0  0
 14 18  1  6  0  0  0
 14 12  1  0  0  0  0
 15 21  1  6  0  0  0
 15 16  1  0  0  0  0
 16 19  1  6  0  0  0
 16 14  1  0  0  0  0
 16 17  1  0  0  0  0
 17 13  1  0  0  0  0
 20 15  1  0  0  0  0
 20 18  1  0  0  0  0
 21 25  1  0  0  0  0
 22 25  1  0  0  0  0
 24 22  1  0  0  0  0
 25 23  2  0  0  0  0
 26 27  1  0  0  0  0
 26  1  1  0  0  0  0
 28 27  1  1  0  0  0
 29 28  1  1  0  0  0
 29 31  1  0  0  0  0
 30 33  1  0  0  0  0
 33 31  1  0  0  0  0
 33 32  1  0  0  0  0
 34 35  1  0  0  0  0
 34 30  1  0  0  0  0
 35 29  1  0  0  0  0
 36 28  1  0  0  0  0
 37 40  1  6  0  0  0
 37 39  1  0  0  0  0
 38 37  1  0  0  0  0
 38 39  1  0  0  0  0
 39 36  1  1  0  0  0
 41 44  1  0  0  0  0
 42 45  1  0  0  0  0
 43 41  1  0  0  0  0
 43 42  2  0  0  0  0
 44 45  2  0  0  0  0
 44 40  1  0  0  0  0
 46 47  3  0  0  0  0
 47 43  1  0  0  0  0
 48 42  1  0  0  0  0
 48 49  1  0  0  0  0
M  END
>  <MODEL>
5

>  <REMARK>
 VINA RESULT:      -6.3      2.675      9.545
  Name = 
  15 active torsions:
  status: ('A' for Active; 'I' for Inactive)
    1  A    between atoms: C_1  and  C_10
    2  A    between atoms: N_4  and  C_39
    3  A    between atoms: N_4  and  N_48
    4  A    between atoms: C_8  and  C_29
    5  A    between atoms: C_8  and  C_37
    6  A    between atoms: C_10  and  O_17
    7  A    between atoms: C_10  and  C_39
    8  A    between atoms: N_12  and  C_31
    9  A    between atoms: C_14  and  C_34
   10  A    between atoms: O_17  and  C_40
   11  A    between atoms: C_18  and  S_24
   12  A    between atoms: C_19  and  N_32
   13  A    between atoms: S_24  and  C_35
   14  A    between atoms: N_32  and  C_38
   15  A    between atoms: C_46  and  N_48
                            x       y       z     vdW  Elec       q    Type
                         _______ _______ _______ _____ _____    ______ ____

>  <TORSDO>
F 15

$$$$
=
 OpenBabel11042414123D

 49 55  0  0  1  0  0  0  0  0999 V2000
  190.2720  173.4580  144.4440 N   0  0  0  0  0  2  0  0  0  0  0  0
  190.0340  171.9320  141.0680 C   0  0  0  0  0  0  0  0  0  0  0  0
  188.7820  172.3030  139.1690 N   0  0  0  0  0  2  0  0  0  0  0  0
  188.4800  173.7700  141.1660 C   0  0  0  0  0  3  0  0  0  0  0  0
  190.4530  172.1550  142.3800 C   0  0  0  0  0  3  0  0  0  0  0  0
  189.0780  172.7120  140.4870 C   0  0  0  0  0  0  0  0  0  0  0  0
  189.6240  171.1440  138.8650 C   0  0  2  0  0  3  0  0  0  0  0  0
  190.4870  170.8840  140.1200 C   0  0  0  0  0  2  0  0  0  0  0  0
  188.8840  174.0190  142.4870 C   0  0  0  0  0  3  0  0  0  0  0  0
  189.8670  173.2120  143.0990 C   0  0  0  0  0  0  0  0  0  0  0  0
  190.7080  171.5230  137.4580 S   0  0  0  0  0  0  0  0  0  0  0  0
  190.7430  174.0520  136.4100 C   0  0  0  0  0  2  0  0  0  0  0  0
  190.7280  173.3140  137.7620 C   0  0  2  0  0  3  0  0  0  0  0  0
  191.7750  175.0460  136.6050 N   0  0  1  0  0  0  0  0  0  0  0  0
  193.8380  175.4320  137.5220 C   0  0  2  0  0  3  0  0  0  0  0  0
  192.8040  174.3430  137.3200 C   0  0  1  0  0  0  0  0  0  0  0  0
  192.0430  173.7270  138.4610 C   0  0  0  0  0  2  0  0  0  0  0  0
  192.4770  175.6600  135.4980 C   0  0  0  0  0  2  0  0  0  0  0  0
  193.3540  173.3030  136.5400 O   0  0  0  0  0  1  0  0  0  0  0  0
  193.7910  176.1440  136.1520 C   0  0  0  0  0  2  0  0  0  0  0  0
  195.2390  174.8970  137.8080 C   0  0  0  0  0  2  0  0  0  0  0  0
  195.6200  173.4390  139.8590 N   0  0  0  0  0  2  0  0  0  0  0  0
  195.5090  175.7490  140.0150 O   0  0  0  0  0  0  0  0  0  0  0  0
  195.5500  172.2170  139.0760 C   0  0  0  0  0  1  0  0  0  0  0  0
  195.4470  174.7310  139.2800 C   0  0  0  0  0  0  0  0  0  0  0  0
  191.6240  173.4210  144.8150 N   0  0  0  0  0  2  0  0  0  0  0  0
  192.3320  174.3700  143.9750 C   0  0  0  0  0  2  0  0  0  0  0  0
  192.7030  175.6120  144.7810 C   0  0  1  0  0  3  0  0  0  0  0  0
  194.2260  175.7380  144.8760 C   0  0  1  0  0  3  0  0  0  0  0  0
  196.8590  174.7880  144.2000 C   0  0  0  0  0  2  0  0  0  0  0  0
  194.8510  174.4520  145.4180 C   0  0  0  0  0  2  0  0  0  0  0  0
  196.8240  173.3650  146.0540 C   0  0  0  0  0  1  0  0  0  0  0  0
  196.3010  174.6160  145.5380 N   0  0  0  0  0  0  0  0  0  0  0  0
  196.3480  176.0850  143.5810 C   0  0  0  0  0  2  0  0  0  0  0  0
  194.8250  176.0380  143.4990 C   0  0  0  0  0  2  0  0  0  0  0  0
  192.1650  176.7440  144.1530 O   0  0  0  0  0  0  0  0  0  0  0  0
  189.9040  177.2990  143.8940 C   0  0  1  0  0  3  0  0  0  0  0  0
  190.5810  178.3400  144.5510 O   0  0  0  0  0  0  0  0  0  0  0  0
  190.9940  177.0320  144.8570 C   0  0  2  0  0  3  0  0  0  0  0  0
  188.6170  177.0880  144.5330 N   0  0  0  0  0  2  0  0  0  0  0  0
  187.0020  177.4360  142.3370 S   0  0  0  0  0  0  0  0  0  0  0  0
  185.2900  178.4930  143.8340 C   0  0  0  0  0  0  0  0  0  0  0  0
  185.4860  178.1380  142.4970 C   0  0  0  0  0  0  0  0  0  0  0  0
  187.4060  177.5790  143.9620 C   0  0  0  0  0  0  0  0  0  0  0  0
  186.3670  178.1720  144.6670 C   0  0  0  0  0  3  0  0  0  0  0  0
  183.7800  178.3580  140.5520 N   0  0  0  0  0  0  0  0  0  0  0  0
  184.5400  178.2600  141.4200 C   0  0  0  0  0  0  0  0  0  0  0  0
  184.1190  179.1270  144.3460 N   0  0  0  0  0  2  0  0  0  0  0  0
  183.6370  178.8790  145.5900 O   0  0  0  0  0  1  0  0  0  0  0  0
  1 26  1  0  0  0  0
  2  5  1  0  0  0  0
  3  6  1  0  0  0  0
  4  9  2  0  0  0  0
  5 10  2  0  0  0  0
  6  2  2  0  0  0  0
  6  4  1  0  0  0  0
  7 11  1  6  0  0  0
  7  3  1  0  0  0  0
  7  8  1  0  0  0  0
  8  2  1  0  0  0  0
  9 10  1  0  0  0  0
 10  1  1  0  0  0  0
 12 14  1  0  0  0  0
 12 13  1  0  0  0  0
 13 11  1  6  0  0  0
 13 17  1  0  0  0  0
 14 18  1  6  0  0  0
 14 16  1  0  0  0  0
 15 21  1  6  0  0  0
 16 19  1  6  0  0  0
 16 15  1  0  0  0  0
 16 17  1  0  0  0  0
 18 20  1  0  0  0  0
 20 15  1  0  0  0  0
 21 25  1  0  0  0  0
 24 22  1  0  0  0  0
 25 22  1  0  0  0  0
 25 23  2  0  0  0  0
 27 26  1  0  0  0  0
 28 27  1  6  0  0  0
 29 28  1  6  0  0  0
 29 31  1  0  0  0  0
 30 33  1  0  0  0  0
 31 33  1  0  0  0  0
 33 32  1  0  0  0  0
 34 30  1  0  0  0  0
 35 34  1  0  0  0  0
 35 29  1  0  0  0  0
 36 28  1  0  0  0  0
 37 40  1  1  0  0  0
 37 38  1  0  0  0  0
 37 39  1  0  0  0  0
 38 39  1  0  0  0  0
 39 36  1  6  0  0  0
 41 43  1  0  0  0  0
 41 44  1  0  0  0  0
 42 48  1  0  0  0  0
 42 45  1  0  0  0  0
 43 42  2  0  0  0  0
 44 40  1  0  0  0  0
 44 45  2  0  0  0  0
 46 47  3  0  0  0  0
 47 43  1  0  0  0  0
 48 49  1  0  0  0  0
M  END
>  <MODEL>
6

>  <REMARK>
 VINA RESULT:      -6.3      2.607      9.451
  Name = 
  15 active torsions:
  status: ('A' for Active; 'I' for Inactive)
    1  A    between atoms: C_1  and  C_10
    2  A    between atoms: N_4  and  C_39
    3  A    between atoms: N_4  and  N_48
    4  A    between atoms: C_8  and  C_29
    5  A    between atoms: C_8  and  C_37
    6  A    between atoms: C_10  and  O_17
    7  A    between atoms: C_10  and  C_39
    8  A    between atoms: N_12  and  C_31
    9  A    between atoms: C_14  and  C_34
   10  A    between atoms: O_17  and  C_40
   11  A    between atoms: C_18  and  S_24
   12  A    between atoms: C_19  and  N_32
   13  A    between atoms: S_24  and  C_35
   14  A    between atoms: N_32  and  C_38
   15  A    between atoms: C_46  and  N_48
                            x       y       z     vdW  Elec       q    Type
                         _______ _______ _______ _____ _____    ______ ____

>  <TORSDO>
F 15

$$$$
=
 OpenBabel11042414123D

 49 55  0  0  1  0  0  0  0  0999 V2000
  187.9510  175.1990  142.6530 N   0  0  0  0  0  2  0  0  0  0  0  0
  189.7380  172.0810  141.7210 C   0  0  0  0  0  0  0  0  0  0  0  0
  190.4450  171.1030  139.7580 N   0  0  0  0  0  2  0  0  0  0  0  0
  189.2960  173.3180  139.7020 C   0  0  0  0  0  3  0  0  0  0  0  0
  189.1270  173.0570  142.5090 C   0  0  0  0  0  3  0  0  0  0  0  0
  189.8140  172.2090  140.3650 C   0  0  0  0  0  0  0  0  0  0  0  0
  190.8120  170.1630  140.8200 C   0  0  2  0  0  3  0  0  0  0  0  0
  190.3620  170.8050  142.1520 C   0  0  0  0  0  2  0  0  0  0  0  0
  188.6780  174.3170  140.4700 C   0  0  0  0  0  3  0  0  0  0  0  0
  188.5870  174.1890  141.8720 C   0  0  0  0  0  0  0  0  0  0  0  0
  192.6140  169.9330  140.8430 S   0  0  0  0  0  0  0  0  0  0  0  0
  193.9920  172.1040  139.9020 C   0  0  0  0  0  2  0  0  0  0  0  0
  192.9900  171.7040  141.0010 C   0  0  2  0  0  3  0  0  0  0  0  0
  194.9670  172.8830  140.6340 N   0  0  1  0  0  0  0  0  0  0  0  0
  196.1360  173.0310  142.5980 C   0  0  2  0  0  3  0  0  0  0  0  0
  195.1360  172.1610  141.8640 C   0  0  1  0  0  0  0  0  0  0  0  0
  193.7200  171.9840  142.3340 C   0  0  0  0  0  2  0  0  0  0  0  0
  196.3190  173.0780  140.1550 C   0  0  0  0  0  2  0  0  0  0  0  0
  195.6930  170.8830  141.6390 O   0  0  0  0  0  1  0  0  0  0  0  0
  197.0940  173.4150  141.4490 C   0  0  0  0  0  2  0  0  0  0  0  0
  196.8850  172.2980  143.7070 C   0  0  0  0  0  2  0  0  0  0  0  0
  195.6870  170.9540  145.5060 N   0  0  0  0  0  2  0  0  0  0  0  0
  195.6790  173.2720  145.5150 O   0  0  0  0  0  0  0  0  0  0  0  0
  196.0630  169.6900  144.8970 C   0  0  0  0  0  1  0  0  0  0  0  0
  196.0450  172.2140  144.9420 C   0  0  0  0  0  0  0  0  0  0  0  0
  188.5150  175.6530  143.8540 N   0  0  0  0  0  2  0  0  0  0  0  0
  188.3560  177.0960  143.8910 C   0  0  0  0  0  2  0  0  0  0  0  0
  188.5250  177.6070  145.3200 C   0  0  1  0  0  3  0  0  0  0  0  0
  187.2040  178.1960  145.8240 C   0  0  1  0  0  3  0  0  0  0  0  0
  184.3470  178.0190  146.1350 C   0  0  0  0  0  2  0  0  0  0  0  0
  186.1960  178.3390  144.6830 C   0  0  0  0  0  2  0  0  0  0  0  0
  184.0550  179.0470  144.0560 C   0  0  0  0  0  1  0  0  0  0  0  0
  184.9600  178.9430  145.1850 N   0  0  0  0  0  0  0  0  0  0  0  0
  185.2460  177.8480  147.3550 C   0  0  0  0  0  2  0  0  0  0  0  0
  186.6000  177.3010  146.9100 C   0  0  0  0  0  2  0  0  0  0  0  0
  188.9220  176.5440  146.1440 O   0  0  0  0  0  0  0  0  0  0  0  0
  191.0580  175.8080  146.7650 C   0  0  1  0  0  3  0  0  0  0  0  0
  190.3460  176.2300  147.9010 O   0  0  0  0  0  0  0  0  0  0  0  0
  190.1260  176.9560  146.7180 C   0  0  2  0  0  3  0  0  0  0  0  0
  192.4270  176.2850  146.8550 N   0  0  0  0  0  2  0  0  0  0  0  0
  194.9270  176.6630  145.7790 S   0  0  0  0  0  0  0  0  0  0  0  0
  193.9760  176.1240  143.5220 C   0  0  0  0  0  0  0  0  0  0  0  0
  195.1880  176.4530  144.1350 C   0  0  0  0  0  0  0  0  0  0  0  0
  193.2810  176.3330  145.7140 C   0  0  0  0  0  0  0  0  0  0  0  0
  192.8980  176.0470  144.4100 C   0  0  0  0  0  3  0  0  0  0  0  0
  197.5240  176.5900  143.0090 N   0  0  0  0  0  0  0  0  0  0  0  0
  196.4820  176.5280  143.5110 C   0  0  0  0  0  0  0  0  0  0  0  0
  193.8060  175.8830  142.1270 N   0  0  0  0  0  2  0  0  0  0  0  0
  192.7300  175.2280  141.6220 O   0  0  0  0  0  1  0  0  0  0  0  0
  1 26  1  0  0  0  0
  2  8  1  0  0  0  0
  2  5  1  0  0  0  0
  3  6  1  0  0  0  0
  3  7  1  0  0  0  0
  4  6  1  0  0  0  0
  4  9  2  0  0  0  0
  6  2  2  0  0  0  0
  7 11  1  1  0  0  0
  7  8  1  0  0  0  0
  9 10  1  0  0  0  0
 10  5  2  0  0  0  0
 10  1  1  0  0  0  0
 12 13  1  0  0  0  0
 13 11  1  6  0  0  0
 13 17  1  0  0  0  0
 14 12  1  6  0  0  0
 14 16  1  0  0  0  0
 15 21  1  1  0  0  0
 16 19  1  6  0  0  0
 16 17  1  0  0  0  0
 16 15  1  0  0  0  0
 18 14  1  0  0  0  0
 18 20  1  0  0  0  0
 20 15  1  0  0  0  0
 21 25  1  0  0  0  0
 24 22  1  0  0  0  0
 25 22  1  0  0  0  0
 25 23  2  0  0  0  0
 26 27  1  0  0  0  0
 28 27  1  6  0  0  0
 28 36  1  0  0  0  0
 29 28  1  6  0  0  0
 29 35  1  0  0  0  0
 30 34  1  0  0  0  0
 31 33  1  0  0  0  0
 31 29  1  0  0  0  0
 32 33  1  0  0  0  0
 33 30  1  0  0  0  0
 35 34  1  0  0  0  0
 37 40  1  1  0  0  0
 37 38  1  0  0  0  0
 39 36  1  6  0  0  0
 39 37  1  0  0  0  0
 39 38  1  0  0  0  0
 42 43  2  0  0  0  0
 42 45  1  0  0  0  0
 43 41  1  0  0  0  0
 44 41  1  0  0  0  0
 44 40  1  0  0  0  0
 45 44  2  0  0  0  0
 46 47  3  0  0  0  0
 47 43  1  0  0  0  0
 48 42  1  0  0  0  0
 49 48  1  0  0  0  0
M  END
>  <MODEL>
7

>  <REMARK>
 VINA RESULT:      -6.2      2.552      9.240
  Name = 
  15 active torsions:
  status: ('A' for Active; 'I' for Inactive)
    1  A    between atoms: C_1  and  C_10
    2  A    between atoms: N_4  and  C_39
    3  A    between atoms: N_4  and  N_48
    4  A    between atoms: C_8  and  C_29
    5  A    between atoms: C_8  and  C_37
    6  A    between atoms: C_10  and  O_17
    7  A    between atoms: C_10  and  C_39
    8  A    between atoms: N_12  and  C_31
    9  A    between atoms: C_14  and  C_34
   10  A    between atoms: O_17  and  C_40
   11  A    between atoms: C_18  and  S_24
   12  A    between atoms: C_19  and  N_32
   13  A    between atoms: S_24  and  C_35
   14  A    between atoms: N_32  and  C_38
   15  A    between atoms: C_46  and  N_48
                            x       y       z     vdW  Elec       q    Type
                         _______ _______ _______ _____ _____    ______ ____

>  <TORSDO>
F 15

$$$$
=
 OpenBabel11042414123D

 49 55  0  0  1  0  0  0  0  0999 V2000
  192.9140  169.2340  141.6500 N   0  0  0  0  0  2  0  0  0  0  0  0
  194.2730  171.6920  144.0770 C   0  0  0  0  0  0  0  0  0  0  0  0
  195.9840  173.2360  144.0860 N   0  0  0  0  0  2  0  0  0  0  0  0
  195.5480  171.8730  142.0410 C   0  0  0  0  0  3  0  0  0  0  0  0
  193.4690  170.6860  143.5400 C   0  0  0  0  0  3  0  0  0  0  0  0
  195.2780  172.2600  143.3510 C   0  0  0  0  0  0  0  0  0  0  0  0
  195.3830  173.3080  145.4200 C   0  0  2  0  0  3  0  0  0  0  0  0
  194.2200  172.2910  145.4340 C   0  0  0  0  0  2  0  0  0  0  0  0
  194.7530  170.8640  141.4740 C   0  0  0  0  0  3  0  0  0  0  0  0
  193.7160  170.2650  142.2210 C   0  0  0  0  0  0  0  0  0  0  0  0
  194.7260  174.9760  145.7100 S   0  0  0  0  0  0  0  0  0  0  0  0
  193.2440  175.9600  143.6290 C   0  0  0  0  0  2  0  0  0  0  0  0
  193.2980  174.7700  144.6050 C   0  0  2  0  0  3  0  0  0  0  0  0
  191.8490  176.3410  143.6750 N   0  0  1  0  0  0  0  0  0  0  0  0
  190.0380  176.6090  145.0520 C   0  0  2  0  0  3  0  0  0  0  0  0
  191.5050  176.2310  145.0660 C   0  0  1  0  0  0  0  0  0  0  0  0
  191.9800  174.8470  145.4090 C   0  0  0  0  0  2  0  0  0  0  0  0
  191.3970  177.6670  143.3090 C   0  0  0  0  0  2  0  0  0  0  0  0
  192.2270  177.1560  145.8510 O   0  0  0  0  0  1  0  0  0  0  0  0
  190.0450  177.7830  144.0470 C   0  0  0  0  0  2  0  0  0  0  0  0
  189.5110  177.0610  146.4110 C   0  0  0  0  0  2  0  0  0  0  0  0
  187.0530  176.5630  146.8450 N   0  0  0  0  0  2  0  0  0  0  0  0
  188.7050  174.9930  147.2740 O   0  0  0  0  0  0  0  0  0  0  0  0
  186.6470  177.8890  146.4130 C   0  0  0  0  0  1  0  0  0  0  0  0
  188.4190  176.1530  146.8790 C   0  0  0  0  0  0  0  0  0  0  0  0
  192.3550  169.3690  140.3710 N   0  0  0  0  0  2  0  0  0  0  0  0
  191.2910  170.3520  140.4630 C   0  0  0  0  0  2  0  0  0  0  0  0
  191.6210  171.5670  139.5990 C   0  0  1  0  0  3  0  0  0  0  0  0
  190.5480  171.7480  138.5210 C   0  0  1  0  0  3  0  0  0  0  0  0
  189.8210  172.2430  135.7780 C   0  0  0  0  0  2  0  0  0  0  0  0
  190.7060  173.0930  137.8100 C   0  0  0  0  0  2  0  0  0  0  0  0
  189.8550  174.5450  136.1840 C   0  0  0  0  0  1  0  0  0  0  0  0
  189.6440  173.2560  136.8150 N   0  0  0  0  0  0  0  0  0  0  0  0
  189.6220  170.8500  136.3670 C   0  0  0  0  0  2  0  0  0  0  0  0
  190.6390  170.6250  137.4830 C   0  0  0  0  0  2  0  0  0  0  0  0
  191.6820  172.7070  140.4130 O   0  0  0  0  0  0  0  0  0  0  0  0
  190.2310  173.9150  141.8000 C   0  0  1  0  0  3  0  0  0  0  0  0
  191.0160  173.0410  142.5720 O   0  0  0  0  0  0  0  0  0  0  0  0
  190.6170  172.5750  141.3070 C   0  0  2  0  0  3  0  0  0  0  0  0
  188.8640  173.8870  142.2900 N   0  0  0  0  0  2  0  0  0  0  0  0
  186.9550  175.6170  143.2460 S   0  0  0  0  0  0  0  0  0  0  0  0
  186.9230  176.7340  141.0020 C   0  0  0  0  0  0  0  0  0  0  0  0
  186.3380  176.8310  142.2670 C   0  0  0  0  0  0  0  0  0  0  0  0
  187.9660  174.9720  142.0690 C   0  0  0  0  0  0  0  0  0  0  0  0
  187.8490  175.6920  140.8870 C   0  0  0  0  0  3  0  0  0  0  0  0
  184.6770  178.6510  143.0850 N   0  0  0  0  0  0  0  0  0  0  0  0
  185.4170  177.8390  142.7200 C   0  0  0  0  0  0  0  0  0  0  0  0
  186.6340  177.5930  139.9010 N   0  0  0  0  0  2  0  0  0  0  0  0
  186.6680  177.1680  138.6120 O   0  0  0  0  0  1  0  0  0  0  0  0
  1 10  1  0  0  0  0
  2  8  1  0  0  0  0
  3  7  1  0  0  0  0
  4  6  1  0  0  0  0
  5  2  1  0  0  0  0
  6  2  2  0  0  0  0
  6  3  1  0  0  0  0
  7  8  1  0  0  0  0
  7 11  1  6  0  0  0
  9  4  2  0  0  0  0
  9 10  1  0  0  0  0
 10  5  2  0  0  0  0
 12 14  1  0  0  0  0
 12 13  1  0  0  0  0
 13 17  1  0  0  0  0
 13 11  1  1  0  0  0
 14 18  1  1  0  0  0
 14 16  1  0  0  0  0
 15 16  1  0  0  0  0
 15 21  1  1  0  0  0
 16 17  1  0  0  0  0
 16 19  1  1  0  0  0
 18 20  1  0  0  0  0
 20 15  1  0  0  0  0
 21 25  1  0  0  0  0
 22 25  1  0  0  0  0
 24 22  1  0  0  0  0
 25 23  2  0  0  0  0
 26 27  1  0  0  0  0
 26  1  1  0  0  0  0
 28 36  1  0  0  0  0
 28 27  1  1  0  0  0
 29 28  1  1  0  0  0
 30 34  1  0  0  0  0
 30 33  1  0  0  0  0
 31 29  1  0  0  0  0
 32 33  1  0  0  0  0
 33 31  1  0  0  0  0
 34 35  1  0  0  0  0
 35 29  1  0  0  0  0
 37 40  1  1  0  0  0
 37 38  1  0  0  0  0
 39 36  1  6  0  0  0
 39 37  1  0  0  0  0
 39 38  1  0  0  0  0
 42 43  2  0  0  0  0
 43 47  1  0  0  0  0
 43 41  1  0  0  0  0
 44 40  1  0  0  0  0
 44 41  1  0  0  0  0
 45 42  1  0  0  0  0
 45 44  2  0  0  0  0
 47 46  3  0  0  0  0
 48 42  1  0  0  0  0
 49 48  1  0  0  0  0
M  END
>  <MODEL>
8

>  <REMARK>
 VINA RESULT:      -6.2      2.367      6.162
  Name = 
  15 active torsions:
  status: ('A' for Active; 'I' for Inactive)
    1  A    between atoms: C_1  and  C_10
    2  A    between atoms: N_4  and  C_39
    3  A    between atoms: N_4  and  N_48
    4  A    between atoms: C_8  and  C_29
    5  A    between atoms: C_8  and  C_37
    6  A    between atoms: C_10  and  O_17
    7  A    between atoms: C_10  and  C_39
    8  A    between atoms: N_12  and  C_31
    9  A    between atoms: C_14  and  C_34
   10  A    between atoms: O_17  and  C_40
   11  A    between atoms: C_18  and  S_24
   12  A    between atoms: C_19  and  N_32
   13  A    between atoms: S_24  and  C_35
   14  A    between atoms: N_32  and  C_38
   15  A    between atoms: C_46  and  N_48
                            x       y       z     vdW  Elec       q    Type
                         _______ _______ _______ _____ _____    ______ ____

>  <TORSDO>
F 15

$$$$
=
 OpenBabel11042414123D

 49 55  0  0  1  0  0  0  0  0999 V2000
  190.9080  177.3400  145.4300 N   0  0  0  0  0  2  0  0  0  0  0  0
  193.9930  175.7350  144.1300 C   0  0  0  0  0  0  0  0  0  0  0  0
  195.9850  175.0050  145.0310 N   0  0  0  0  0  2  0  0  0  0  0  0
  194.2350  175.9920  146.5130 C   0  0  0  0  0  3  0  0  0  0  0  0
  192.7230  176.3120  144.1490 C   0  0  0  0  0  3  0  0  0  0  0  0
  194.7210  175.5860  145.2740 C   0  0  0  0  0  0  0  0  0  0  0  0
  196.0900  174.7560  143.5920 C   0  0  2  0  0  3  0  0  0  0  0  0
  194.7570  175.2230  142.9650 C   0  0  0  0  0  2  0  0  0  0  0  0
  192.9590  176.5740  146.5620 C   0  0  0  0  0  3  0  0  0  0  0  0
  192.2010  176.7400  145.3830 C   0  0  0  0  0  0  0  0  0  0  0  0
  196.3060  172.9780  143.2890 S   0  0  0  0  0  0  0  0  0  0  0  0
  195.2500  171.6530  145.4390 C   0  0  0  0  0  2  0  0  0  0  0  0
  194.8230  172.4860  144.2170 C   0  0  2  0  0  3  0  0  0  0  0  0
  194.3370  170.5330  145.3910 N   0  0  1  0  0  0  0  0  0  0  0  0
  193.2740  169.0570  143.9990 C   0  0  2  0  0  3  0  0  0  0  0  0
  194.2590  170.2070  143.9940 C   0  0  1  0  0  0  0  0  0  0  0  0
  193.9470  171.5370  143.3680 C   0  0  0  0  0  2  0  0  0  0  0  0
  194.6310  169.2660  146.0280 C   0  0  0  0  0  2  0  0  0  0  0  0
  195.5050  169.7640  143.4980 O   0  0  0  0  0  1  0  0  0  0  0  0
  193.7360  168.2760  145.2490 C   0  0  0  0  0  2  0  0  0  0  0  0
  193.3520  168.1800  142.7520 C   0  0  0  0  0  2  0  0  0  0  0  0
  192.7280  169.1960  140.5030 N   0  0  0  0  0  2  0  0  0  0  0  0
  191.1140  168.4160  141.9740 O   0  0  0  0  0  0  0  0  0  0  0  0
  194.1170  169.4620  140.1710 C   0  0  0  0  0  1  0  0  0  0  0  0
  192.3350  168.6100  141.7430 C   0  0  0  0  0  0  0  0  0  0  0  0
  189.9820  176.9960  146.4240 N   0  0  0  0  0  2  0  0  0  0  0  0
  189.3380  175.7610  146.0130 C   0  0  0  0  0  2  0  0  0  0  0  0
  188.0720  176.0670  145.2170 C   0  0  1  0  0  3  0  0  0  0  0  0
  187.3740  177.2990  145.8000 C   0  0  1  0  0  3  0  0  0  0  0  0
  184.9640  178.7720  146.3630 C   0  0  0  0  0  2  0  0  0  0  0  0
  186.5140  177.9940  144.7430 C   0  0  0  0  0  2  0  0  0  0  0  0
  185.0970  179.7940  144.2650 C   0  0  0  0  0  1  0  0  0  0  0  0
  185.8930  179.1890  145.3160 N   0  0  0  0  0  0  0  0  0  0  0  0
  185.7260  178.1150  147.5090 C   0  0  0  0  0  2  0  0  0  0  0  0
  186.4820  176.8990  146.9790 C   0  0  0  0  0  2  0  0  0  0  0  0
  188.4170  176.2980  143.8770 O   0  0  0  0  0  0  0  0  0  0  0  0
  189.9370  175.1830  142.4860 C   0  0  1  0  0  3  0  0  0  0  0  0
  188.6370  175.0710  141.9640 O   0  0  0  0  0  0  0  0  0  0  0  0
  188.7550  175.0440  143.3640 C   0  0  2  0  0  3  0  0  0  0  0  0
  190.6130  173.9030  142.3620 N   0  0  0  0  0  2  0  0  0  0  0  0
  189.9980  171.6860  140.8600 S   0  0  0  0  0  0  0  0  0  0  0  0
  191.0720  172.7960  138.8840 C   0  0  0  0  0  0  0  0  0  0  0  0
  190.4000  171.6210  139.2320 C   0  0  0  0  0  0  0  0  0  0  0  0
  190.6710  173.2030  141.1210 C   0  0  0  0  0  0  0  0  0  0  0  0
  191.2210  173.6960  139.9450 C   0  0  0  0  0  3  0  0  0  0  0  0
  189.7180  169.6810  137.6480 N   0  0  0  0  0  0  0  0  0  0  0  0
  190.0230  170.5460  138.3540 C   0  0  0  0  0  0  0  0  0  0  0  0
  191.5790  173.0910  137.5840 N   0  0  0  0  0  2  0  0  0  0  0  0
  191.6540  174.3560  137.0980 O   0  0  0  0  0  1  0  0  0  0  0  0
  1 26  1  0  0  0  0
  2  5  2  0  0  0  0
  2  6  1  0  0  0  0
  3  6  1  0  0  0  0
  4  9  1  0  0  0  0
  5 10  1  0  0  0  0
  6  4  2  0  0  0  0
  7 11  1  1  0  0  0
  7  3  1  0  0  0  0
  8  7  1  0  0  0  0
  8  2  1  0  0  0  0
 10  1  1  0  0  0  0
 10  9  2  0  0  0  0
 13 11  1  6  0  0  0
 13 12  1  0  0  0  0
 14 12  1  6  0  0  0
 14 18  1  0  0  0  0
 15 21  1  6  0  0  0
 15 20  1  0  0  0  0
 16 19  1  6  0  0  0
 16 15  1  0  0  0  0
 16 14  1  0  0  0  0
 17 16  1  0  0  0  0
 17 13  1  0  0  0  0
 20 18  1  0  0  0  0
 22 25  1  0  0  0  0
 24 22  1  0  0  0  0
 25 23  2  0  0  0  0
 25 21  1  0  0  0  0
 27 26  1  0  0  0  0
 28 27  1  1  0  0  0
 29 28  1  6  0  0  0
 29 35  1  0  0  0  0
 30 34  1  0  0  0  0
 31 33  1  0  0  0  0
 31 29  1  0  0  0  0
 32 33  1  0  0  0  0
 33 30  1  0  0  0  0
 35 34  1  0  0  0  0
 36 28  1  0  0  0  0
 37 40  1  6  0  0  0
 37 39  1  0  0  0  0
 38 37  1  0  0  0  0
 38 39  1  0  0  0  0
 39 36  1  1  0  0  0
 41 44  1  0  0  0  0
 42 43  2  0  0  0  0
 42 45  1  0  0  0  0
 43 41  1  0  0  0  0
 44 40  1  0  0  0  0
 45 44  2  0  0  0  0
 46 47  3  0  0  0  0
 47 43  1  0  0  0  0
 48 42  1  0  0  0  0
 49 48  1  0  0  0  0
M  END
>  <MODEL>
9

>  <REMARK>
 VINA RESULT:      -6.2      2.792      9.598
  Name = 
  15 active torsions:
  status: ('A' for Active; 'I' for Inactive)
    1  A    between atoms: C_1  and  C_10
    2  A    between atoms: N_4  and  C_39
    3  A    between atoms: N_4  and  N_48
    4  A    between atoms: C_8  and  C_29
    5  A    between atoms: C_8  and  C_37
    6  A    between atoms: C_10  and  O_17
    7  A    between atoms: C_10  and  C_39
    8  A    between atoms: N_12  and  C_31
    9  A    between atoms: C_14  and  C_34
   10  A    between atoms: O_17  and  C_40
   11  A    between atoms: C_18  and  S_24
   12  A    between atoms: C_19  and  N_32
   13  A    between atoms: S_24  and  C_35
   14  A    between atoms: N_32  and  C_38
   15  A    between atoms: C_46  and  N_48
                            x       y       z     vdW  Elec       q    Type
                         _______ _______ _______ _____ _____    ______ ____

>  <TORSDO>
F 15

$$$$
