=
 OpenBabel11042419533D

 56 60  0  0  1  0  0  0  0  0999 V2000
  192.4190  177.0850  143.4940 C   0  0  1  0  0  3  0  0  0  0  0  0
  195.1690  174.4310  143.3830 C   0  0  2  0  0  3  0  0  0  0  0  0
  192.3450  176.9680  145.8930 O   0  0  0  0  0  0  0  0  0  0  0  0
  193.9490  174.6240  146.0220 C   0  0  0  0  0  2  0  0  0  0  0  0
  193.2880  175.1140  144.8240 N   0  0  0  0  0  0  0  0  0  0  0  0
  192.6360  176.3920  144.8100 C   0  0  0  0  0  0  0  0  0  0  0  0
  192.2770  176.0980  142.3700 C   0  0  0  0  0  3  0  0  0  0  0  0
  195.4660  174.7250  145.8250 C   0  0  0  0  0  2  0  0  0  0  0  0
  192.8590  174.8920  142.3840 C   0  0  0  0  0  0  0  0  0  0  0  0
  193.6420  174.4320  143.5840 C   0  0  1  0  0  3  0  0  0  0  0  0
  195.9440  174.0710  144.5920 N   0  0  0  0  0  0  0  0  0  0  0  0
  195.6990  175.5360  142.6760 O   0  0  0  0  0  0  0  0  0  0  0  0
  196.4880  175.0770  141.6140 C   0  0  0  0  0  2  0  0  0  0  0  0
  197.9350  174.9990  142.0560 C   0  0  0  0  0  1  0  0  0  0  0  0
  191.2250  178.0350  143.5310 C   0  0  0  0  0  2  0  0  0  0  0  0
  189.9230  177.2760  143.3270 C   0  0  1  0  0  3  0  0  0  0  0  0
  188.8250  177.9880  144.0190 C   0  0  1  0  0  3  0  0  0  0  0  0
  189.0090  178.0880  142.6280 O   0  0  0  0  0  0  0  0  0  0  0  0
  187.6690  177.0320  144.3070 C   0  0  2  0  0  3  0  0  0  0  0  0
  185.9900  178.8620  144.8100 C   0  0  0  0  0  3  0  0  0  0  0  0
  183.9100  179.0000  143.5790 C   0  0  0  0  0  3  0  0  0  0  0  0
  184.2700  177.8680  142.8390 C   0  0  0  0  0  3  0  0  0  0  0  0
  185.4890  177.2310  143.0860 C   0  0  0  0  0  3  0  0  0  0  0  0
  184.7700  179.4970  144.5640 C   0  0  0  0  0  3  0  0  0  0  0  0
  186.3550  177.7230  144.0720 C   0  0  0  0  0  0  0  0  0  0  0  0
  186.5010  176.4290  146.3220 O   0  0  0  0  0  1  0  0  0  0  0  0
  187.7650  176.4610  145.7300 C   0  0  2  0  0  3  0  0  0  0  0  0
  189.6130  176.4830  147.2470 O   0  0  0  0  0  1  0  0  0  0  0  0
  188.6940  177.3040  146.5920 C   0  0  0  0  0  2  0  0  0  0  0  0
  192.7480  173.9850  141.3160 O   0  0  0  0  0  0  0  0  0  0  0  0
  194.1860  172.8490  139.7670 C   0  0  0  0  0  2  0  0  0  0  0  0
  193.5030  173.9290  140.1300 C   0  0  0  0  0  0  0  0  0  0  0  0
  193.5240  175.0390  139.2830 O   0  0  0  0  0  0  0  0  0  0  0  0
  194.4790  175.1760  138.2360 C   0  0  0  0  0  2  0  0  0  0  0  0
  193.7910  175.3050  136.9140 C   0  0  0  0  0  0  0  0  0  0  0  0
  192.5820  175.4730  136.8680 O   0  0  0  0  0  0  0  0  0  0  0  0
  194.5720  175.1960  135.6500 C   0  0  0  0  0  1  0  0  0  0  0  0
  195.8840  172.6260  144.7630 C   0  0  0  0  0  2  0  0  0  0  0  0
  195.6970  171.9660  143.4060 C   0  0  0  0  0  2  0  0  0  0  0  0
  194.7880  170.7530  143.5240 C   0  0  0  0  0  2  0  0  0  0  0  0
  194.4160  170.2520  142.2040 N   0  0  0  0  0  0  0  0  0  0  0  0
  192.2490  170.9320  143.2080 C   0  0  0  0  0  2  0  0  0  0  0  0
  192.3180  170.2540  140.8420 C   0  0  2  0  0  3  0  0  0  0  0  0
  192.9680  170.0000  142.2150 C   0  0  1  0  0  3  0  0  0  0  0  0
  190.2290  171.4900  140.2520 C   0  0  0  0  0  3  0  0  0  0  0  0
  188.6730  172.3560  142.6170 C   0  0  0  0  0  1  0  0  0  0  0  0
  190.2360  172.5910  144.3770 O   0  0  0  0  0  0  0  0  0  0  0  0
  190.0180  172.1360  143.2250 C   0  0  0  0  0  0  0  0  0  0  0  0
  191.1090  171.0570  141.1590 C   0  0  0  0  0  0  0  0  0  0  0  0
  191.0500  171.4010  142.5390 N   0  0  0  0  0  0  0  0  0  0  0  0
  191.9470  169.0310  140.2810 O   0  0  0  0  0  1  0  0  0  0  0  0
  190.3560  171.1950  138.7940 C   0  0  0  0  0  2  0  0  0  0  0  0
  190.7470  172.4560  138.0420 C   0  0  0  0  0  2  0  0  0  0  0  0
  190.2460  173.5740  138.7130 O   0  0  0  0  0  1  0  0  0  0  0  0
  194.8590  168.1700  143.1650 O   0  0  0  0  0  1  0  0  0  0  0  0
  195.1140  168.9770  142.0510 C   0  0  0  0  0  2  0  0  0  0  0  0
  1 15  1  1  0  0  0
  1  6  1  0  0  0  0
  2 12  1  1  0  0  0
  2 10  1  0  0  0  0
  2 11  1  0  0  0  0
  5  4  1  0  0  0  0
  6  5  1  0  0  0  0
  6  3  2  0  0  0  0
  7  9  2  0  0  0  0
  7  1  1  0  0  0  0
  8  4  1  0  0  0  0
 10  9  1  6  0  0  0
 10  5  1  0  0  0  0
 11 38  1  0  0  0  0
 11  8  1  0  0  0  0
 13 14  1  0  0  0  0
 13 12  1  0  0  0  0
 16 15  1  1  0  0  0
 16 17  1  0  0  0  0
 17 19  1  6  0  0  0
 18 16  1  0  0  0  0
 18 17  1  0  0  0  0
 19 27  1  1  0  0  0
 21 24  2  0  0  0  0
 22 23  2  0  0  0  0
 22 21  1  0  0  0  0
 23 25  1  0  0  0  0
 24 20  1  0  0  0  0
 25 19  1  0  0  0  0
 25 20  2  0  0  0  0
 27 26  1  1  0  0  0
 27 29  1  0  0  0  0
 29 28  1  0  0  0  0
 30  9  1  0  0  0  0
 31 32  2  0  0  0  0
 32 30  1  0  0  0  0
 33 32  1  0  0  0  0
 34 33  1  0  0  0  0
 35 34  1  0  0  0  0
 36 35  2  0  0  0  0
 37 35  1  0  0  0  0
 39 40  1  0  0  0  0
 39 38  1  0  0  0  0
 41 40  1  0  0  0  0
 43 51  1  1  0  0  0
 43 49  1  0  0  0  0
 43 44  1  0  0  0  0
 44 41  1  6  0  0  0
 44 42  1  0  0  0  0
 45 49  2  0  0  0  0
 46 48  1  0  0  0  0
 48 47  2  0  0  0  0
 49 50  1  0  0  0  0
 50 42  1  0  0  0  0
 50 48  1  0  0  0  0
 52 45  1  0  0  0  0
 53 54  1  0  0  0  0
 53 52  1  0  0  0  0
 56 41  1  0  0  0  0
 56 55  1  0  0  0  0
M  END
>  <MODEL>
1

>  <REMARK>
 VINA RESULT:      -5.6      0.000      0.000
  Name = 
  21 active torsions:
  status: ('A' for Active; 'I' for Inactive)
    1  A    between atoms: C_1  and  C_14
    2  A    between atoms: C_1  and  C_35
    3  A    between atoms: C_3  and  O_43
    4  A    between atoms: C_4  and  C_36
    5  A    between atoms: C_5  and  O_43
    6  A    between atoms: O_7  and  C_25
    7  A    between atoms: O_7  and  C_47
    8  A    between atoms: C_11  and  C_30
    9  A    between atoms: C_11  and  C_34
   10  A    between atoms: C_11  and  C_55
   11  A    between atoms: C_12  and  N_42
   12  A    between atoms: C_14  and  N_51
   13  A    between atoms: C_17  and  C_36
   14  A    between atoms: C_18  and  C_21
   15  A    between atoms: C_21  and  O_22
   16  A    between atoms: O_22  and  C_25
   17  A    between atoms: C_23  and  C_53
   18  A    between atoms: C_27  and  N_42
   19  A    between atoms: C_34  and  C_44
   20  A    between atoms: C_35  and  N_42
   21  A    between atoms: C_37  and  C_53
                            x       y       z     vdW  Elec       q    Type
                         _______ _______ _______ _____ _____    ______ ____

>  <TORSDO>
F 21

$$$$
=
 OpenBabel11042419533D

 56 60  0  0  1  0  0  0  0  0999 V2000
  184.7000  178.8360  143.4410 C   0  0  1  0  0  3  0  0  0  0  0  0
  187.8350  177.0450  144.6980 C   0  0  2  0  0  3  0  0  0  0  0  0
  183.7790  178.8690  145.6600 O   0  0  0  0  0  0  0  0  0  0  0  0
  185.7220  177.0760  146.7030 C   0  0  0  0  0  2  0  0  0  0  0  0
  185.4540  177.2790  145.2900 N   0  0  0  0  0  0  0  0  0  0  0  0
  184.5740  178.3230  144.8480 C   0  0  0  0  0  0  0  0  0  0  0  0
  185.2160  177.7740  142.5130 C   0  0  0  0  0  3  0  0  0  0  0  0
  187.1360  177.5780  147.0150 C   0  0  0  0  0  2  0  0  0  0  0  0
  186.0160  176.7790  142.9190 C   0  0  0  0  0  0  0  0  0  0  0  0
  186.3870  176.6380  144.3710 C   0  0  1  0  0  3  0  0  0  0  0  0
  188.1730  176.9980  146.1390 N   0  0  0  0  0  0  0  0  0  0  0  0
  188.3150  178.2020  144.0400 O   0  0  0  0  0  0  0  0  0  0  0  0
  189.3760  177.8540  143.1960 C   0  0  0  0  0  2  0  0  0  0  0  0
  190.6860  178.2700  143.8320 C   0  0  0  0  0  1  0  0  0  0  0  0
  183.3910  179.4200  142.9180 C   0  0  0  0  0  2  0  0  0  0  0  0
  182.5650  178.3520  142.2150 C   0  0  1  0  0  3  0  0  0  0  0  0
  181.4020  178.9860  141.5530 C   0  0  1  0  0  3  0  0  0  0  0  0
  182.5480  178.6050  140.8300 O   0  0  0  0  0  0  0  0  0  0  0  0
  180.2960  177.9580  141.3230 C   0  0  2  0  0  3  0  0  0  0  0  0
  178.7720  177.4480  139.3640 C   0  0  0  0  0  3  0  0  0  0  0  0
  177.7650  179.2410  138.0850 C   0  0  0  0  0  3  0  0  0  0  0  0
  178.4050  180.1840  138.8980 C   0  0  0  0  0  3  0  0  0  0  0  0
  179.2300  179.7590  139.9430 C   0  0  0  0  0  3  0  0  0  0  0  0
  177.9490  177.8740  138.3180 C   0  0  0  0  0  3  0  0  0  0  0  0
  179.4180  178.3910  140.1820 C   0  0  0  0  0  0  0  0  0  0  0  0
  178.4790  176.7820  142.3730 O   0  0  0  0  0  1  0  0  0  0  0  0
  179.4850  177.7210  142.6060 C   0  0  2  0  0  3  0  0  0  0  0  0
  179.2360  179.2690  144.4120 O   0  0  0  0  0  1  0  0  0  0  0  0
  178.8510  179.0160  143.0940 C   0  0  0  0  0  2  0  0  0  0  0  0
  186.5200  175.8060  142.0400 O   0  0  0  0  0  0  0  0  0  0  0  0
  187.1130  176.9650  140.0240 C   0  0  0  0  0  2  0  0  0  0  0  0
  187.3210  175.9850  140.8960 C   0  0  0  0  0  0  0  0  0  0  0  0
  188.3920  175.1180  140.6730 O   0  0  0  0  0  0  0  0  0  0  0  0
  188.2450  173.7030  140.7210 C   0  0  0  0  0  2  0  0  0  0  0  0
  189.5130  173.0600  141.1830 C   0  0  0  0  0  0  0  0  0  0  0  0
  190.4180  172.8530  140.3890 O   0  0  0  0  0  0  0  0  0  0  0  0
  189.6660  172.6400  142.6040 C   0  0  0  0  0  1  0  0  0  0  0  0
  188.3930  175.6080  146.5140 C   0  0  0  0  0  2  0  0  0  0  0  0
  189.5380  175.0400  145.6910 C   0  0  0  0  0  2  0  0  0  0  0  0
  190.7670  174.8310  146.5620 C   0  0  0  0  0  2  0  0  0  0  0  0
  191.5420  176.0640  146.6690 N   0  0  0  0  0  0  0  0  0  0  0  0
  193.1510  174.1810  146.4830 C   0  0  0  0  0  2  0  0  0  0  0  0
  193.5960  176.2690  145.2570 C   0  0  2  0  0  3  0  0  0  0  0  0
  192.9630  175.7090  146.5440 C   0  0  1  0  0  3  0  0  0  0  0  0
  195.0760  175.1650  143.5750 C   0  0  0  0  0  3  0  0  0  0  0  0
  195.9150  172.4370  144.3660 C   0  0  0  0  0  1  0  0  0  0  0  0
  194.2160  171.6190  145.7940 O   0  0  0  0  0  0  0  0  0  0  0  0
  194.7120  172.6280  145.2280 C   0  0  0  0  0  0  0  0  0  0  0  0
  194.3520  175.1190  144.6970 C   0  0  0  0  0  0  0  0  0  0  0  0
  194.1300  173.9280  145.4420 N   0  0  0  0  0  0  0  0  0  0  0  0
  194.4750  177.3000  145.5930 O   0  0  0  0  0  1  0  0  0  0  0  0
  195.2250  176.4030  142.7550 C   0  0  0  0  0  2  0  0  0  0  0  0
  194.2400  176.3810  141.5990 C   0  0  0  0  0  2  0  0  0  0  0  0
  194.0160  175.0600  141.2020 O   0  0  0  0  0  1  0  0  0  0  0  0
  192.2740  177.5230  148.3400 O   0  0  0  0  0  1  0  0  0  0  0  0
  191.3020  176.5690  148.0200 C   0  0  0  0  0  2  0  0  0  0  0  0
  1 15  1  6  0  0  0
  1  6  1  0  0  0  0
  2 12  1  1  0  0  0
  2 11  1  0  0  0  0
  4  8  1  0  0  0  0
  5  4  1  0  0  0  0
  6  5  1  0  0  0  0
  6  3  2  0  0  0  0
  7  9  2  0  0  0  0
  7  1  1  0  0  0  0
 10  9  1  6  0  0  0
 10  2  1  0  0  0  0
 10  5  1  0  0  0  0
 11 38  1  0  0  0  0
 11  8  1  0  0  0  0
 13 14  1  0  0  0  0
 13 12  1  0  0  0  0
 16 15  1  1  0  0  0
 17 19  1  6  0  0  0
 17 16  1  0  0  0  0
 18 17  1  0  0  0  0
 18 16  1  0  0  0  0
 19 27  1  1  0  0  0
 20 25  1  0  0  0  0
 21 24  1  0  0  0  0
 21 22  2  0  0  0  0
 22 23  1  0  0  0  0
 23 25  2  0  0  0  0
 24 20  2  0  0  0  0
 25 19  1  0  0  0  0
 27 26  1  6  0  0  0
 27 29  1  0  0  0  0
 29 28  1  0  0  0  0
 30  9  1  0  0  0  0
 31 32  2  0  0  0  0
 32 30  1  0  0  0  0
 33 34  1  0  0  0  0
 33 32  1  0  0  0  0
 34 35  1  0  0  0  0
 35 37  1  0  0  0  0
 36 35  2  0  0  0  0
 39 38  1  0  0  0  0
 39 40  1  0  0  0  0
 40 41  1  0  0  0  0
 41 56  1  0  0  0  0
 42 44  1  0  0  0  0
 43 51  1  1  0  0  0
 43 44  1  0  0  0  0
 44 41  1  6  0  0  0
 45 49  2  0  0  0  0
 46 48  1  0  0  0  0
 48 50  1  0  0  0  0
 48 47  2  0  0  0  0
 49 43  1  0  0  0  0
 49 50  1  0  0  0  0
 50 42  1  0  0  0  0
 52 45  1  0  0  0  0
 53 52  1  0  0  0  0
 54 53  1  0  0  0  0
 56 55  1  0  0  0  0
M  END
>  <MODEL>
2

>  <REMARK>
 VINA RESULT:      -5.5      3.851      7.811
  Name = 
  21 active torsions:
  status: ('A' for Active; 'I' for Inactive)
    1  A    between atoms: C_1  and  C_14
    2  A    between atoms: C_1  and  C_35
    3  A    between atoms: C_3  and  O_43
    4  A    between atoms: C_4  and  C_36
    5  A    between atoms: C_5  and  O_43
    6  A    between atoms: O_7  and  C_25
    7  A    between atoms: O_7  and  C_47
    8  A    between atoms: C_11  and  C_30
    9  A    between atoms: C_11  and  C_34
   10  A    between atoms: C_11  and  C_55
   11  A    between atoms: C_12  and  N_42
   12  A    between atoms: C_14  and  N_51
   13  A    between atoms: C_17  and  C_36
   14  A    between atoms: C_18  and  C_21
   15  A    between atoms: C_21  and  O_22
   16  A    between atoms: O_22  and  C_25
   17  A    between atoms: C_23  and  C_53
   18  A    between atoms: C_27  and  N_42
   19  A    between atoms: C_34  and  C_44
   20  A    between atoms: C_35  and  N_42
   21  A    between atoms: C_37  and  C_53
                            x       y       z     vdW  Elec       q    Type
                         _______ _______ _______ _____ _____    ______ ____

>  <TORSDO>
F 21

$$$$
=
 OpenBabel11042419533D

 56 60  0  0  1  0  0  0  0  0999 V2000
  189.8030  174.0790  141.6950 C   0  0  1  0  0  3  0  0  0  0  0  0
  193.2910  172.5150  141.7840 C   0  0  2  0  0  3  0  0  0  0  0  0
  189.3480  173.2910  143.9180 O   0  0  0  0  0  0  0  0  0  0  0  0
  191.6310  171.5990  143.9960 C   0  0  0  0  0  2  0  0  0  0  0  0
  191.0650  172.1760  142.7880 N   0  0  0  0  0  0  0  0  0  0  0  0
  190.0140  173.1510  142.8570 C   0  0  0  0  0  0  0  0  0  0  0  0
  190.2270  173.4450  140.4010 C   0  0  0  0  0  3  0  0  0  0  0  0
  193.0210  172.2020  144.2260 C   0  0  0  0  0  2  0  0  0  0  0  0
  191.1870  172.5150  140.3270 C   0  0  0  0  0  0  0  0  0  0  0  0
  191.8550  172.0010  141.5750 C   0  0  1  0  0  3  0  0  0  0  0  0
  193.9140  172.0880  143.0570 N   0  0  0  0  0  0  0  0  0  0  0  0
  193.5100  173.8780  141.4730 O   0  0  0  0  0  0  0  0  0  0  0  0
  194.5580  173.9850  140.5510 C   0  0  0  0  0  2  0  0  0  0  0  0
  194.6130  175.3990  140.0100 C   0  0  0  0  0  1  0  0  0  0  0  0
  188.3640  174.5780  141.6050 C   0  0  0  0  0  2  0  0  0  0  0  0
  187.8430  174.9770  142.9780 C   0  0  1  0  0  3  0  0  0  0  0  0
  187.7780  176.4540  143.0690 C   0  0  1  0  0  3  0  0  0  0  0  0
  186.6290  175.6750  142.8360 O   0  0  0  0  0  0  0  0  0  0  0  0
  187.8000  176.8980  144.5300 C   0  0  2  0  0  3  0  0  0  0  0  0
  186.1530  178.7920  144.1800 C   0  0  0  0  0  3  0  0  0  0  0  0
  184.1320  178.9310  145.5060 C   0  0  0  0  0  3  0  0  0  0  0  0
  184.5000  177.7680  146.1930 C   0  0  0  0  0  3  0  0  0  0  0  0
  185.6950  177.1170  145.8740 C   0  0  0  0  0  3  0  0  0  0  0  0
  184.9580  179.4430  144.5000 C   0  0  0  0  0  3  0  0  0  0  0  0
  186.5280  177.6250  144.8670 C   0  0  0  0  0  0  0  0  0  0  0  0
  189.8640  177.8190  143.7070 O   0  0  0  0  0  1  0  0  0  0  0  0
  189.0400  177.7530  144.8310 C   0  0  2  0  0  3  0  0  0  0  0  0
  189.2730  175.9520  146.3870 O   0  0  0  0  0  1  0  0  0  0  0  0
  189.8320  177.1680  145.9920 C   0  0  0  0  0  2  0  0  0  0  0  0
  191.6000  171.9470  139.1090 O   0  0  0  0  0  0  0  0  0  0  0  0
  189.9000  171.1460  137.6160 C   0  0  0  0  0  2  0  0  0  0  0  0
  190.9320  171.9430  137.8710 C   0  0  0  0  0  0  0  0  0  0  0  0
  191.3480  172.8240  136.8710 O   0  0  0  0  0  0  0  0  0  0  0  0
  191.1390  174.2290  136.9640 C   0  0  0  0  0  2  0  0  0  0  0  0
  190.0290  174.6540  136.0550 C   0  0  0  0  0  0  0  0  0  0  0  0
  188.8660  174.5110  136.4020 O   0  0  0  0  0  0  0  0  0  0  0  0
  190.3360  175.2250  134.7140 C   0  0  0  0  0  1  0  0  0  0  0  0
  194.3430  170.7030  142.9170 C   0  0  0  0  0  2  0  0  0  0  0  0
  195.4510  170.6230  141.8780 C   0  0  0  0  0  2  0  0  0  0  0  0
  196.8120  170.5680  142.5550 C   0  0  0  0  0  2  0  0  0  0  0  0
  196.6820  170.7580  143.9970 N   0  0  0  0  0  0  0  0  0  0  0  0
  197.5990  172.8700  143.0650 C   0  0  0  0  0  2  0  0  0  0  0  0
  196.3840  172.9270  145.2060 C   0  0  2  0  0  3  0  0  0  0  0  0
  197.3000  172.0490  144.3340 C   0  0  1  0  0  3  0  0  0  0  0  0
  195.8110  175.3500  145.0100 C   0  0  0  0  0  3  0  0  0  0  0  0
  197.3590  176.7530  142.9110 C   0  0  0  0  0  1  0  0  0  0  0  0
  197.9410  175.1060  141.3180 O   0  0  0  0  0  0  0  0  0  0  0  0
  197.5100  175.3340  142.4770 C   0  0  0  0  0  0  0  0  0  0  0  0
  196.4510  174.2660  144.5650 C   0  0  0  0  0  0  0  0  0  0  0  0
  197.1990  174.2340  143.3540 N   0  0  0  0  0  0  0  0  0  0  0  0
  196.9100  172.9900  146.4980 O   0  0  0  0  0  1  0  0  0  0  0  0
  194.9570  175.3430  146.2340 C   0  0  0  0  0  2  0  0  0  0  0  0
  193.7450  176.2340  146.0250 C   0  0  0  0  0  2  0  0  0  0  0  0
  192.8870  175.6450  145.0940 O   0  0  0  0  0  1  0  0  0  0  0  0
  197.0180  168.4510  144.1350 O   0  0  0  0  0  1  0  0  0  0  0  0
  197.4650  169.6880  144.6120 C   0  0  0  0  0  2  0  0  0  0  0  0
  1 15  1  6  0  0  0
  1  6  1  0  0  0  0
  2 12  1  1  0  0  0
  2 11  1  0  0  0  0
  4  8  1  0  0  0  0
  5  6  1  0  0  0  0
  5  4  1  0  0  0  0
  6  3  2  0  0  0  0
  7  1  1  0  0  0  0
  9  7  2  0  0  0  0
 10  9  1  6  0  0  0
 10  2  1  0  0  0  0
 10  5  1  0  0  0  0
 11  8  1  0  0  0  0
 13 12  1  0  0  0  0
 14 13  1  0  0  0  0
 16 15  1  6  0  0  0
 16 17  1  0  0  0  0
 17 19  1  1  0  0  0
 18 16  1  0  0  0  0
 18 17  1  0  0  0  0
 19 27  1  6  0  0  0
 19 25  1  0  0  0  0
 20 24  2  0  0  0  0
 20 25  1  0  0  0  0
 21 22  2  0  0  0  0
 23 22  1  0  0  0  0
 24 21  1  0  0  0  0
 25 23  2  0  0  0  0
 27 26  1  6  0  0  0
 27 29  1  0  0  0  0
 29 28  1  0  0  0  0
 30  9  1  0  0  0  0
 31 32  2  0  0  0  0
 32 30  1  0  0  0  0
 33 34  1  0  0  0  0
 33 32  1  0  0  0  0
 35 36  2  0  0  0  0
 35 34  1  0  0  0  0
 37 35  1  0  0  0  0
 38 11  1  0  0  0  0
 39 40  1  0  0  0  0
 39 38  1  0  0  0  0
 40 41  1  0  0  0  0
 41 56  1  0  0  0  0
 42 50  1  0  0  0  0
 42 44  1  0  0  0  0
 43 51  1  1  0  0  0
 44 41  1  6  0  0  0
 44 43  1  0  0  0  0
 45 52  1  0  0  0  0
 47 48  2  0  0  0  0
 48 46  1  0  0  0  0
 48 50  1  0  0  0  0
 49 45  2  0  0  0  0
 49 43  1  0  0  0  0
 50 49  1  0  0  0  0
 53 52  1  0  0  0  0
 54 53  1  0  0  0  0
 55 56  1  0  0  0  0
M  END
>  <MODEL>
3

>  <REMARK>
 VINA RESULT:      -5.5      1.958      4.823
  Name = 
  21 active torsions:
  status: ('A' for Active; 'I' for Inactive)
    1  A    between atoms: C_1  and  C_14
    2  A    between atoms: C_1  and  C_35
    3  A    between atoms: C_3  and  O_43
    4  A    between atoms: C_4  and  C_36
    5  A    between atoms: C_5  and  O_43
    6  A    between atoms: O_7  and  C_25
    7  A    between atoms: O_7  and  C_47
    8  A    between atoms: C_11  and  C_30
    9  A    between atoms: C_11  and  C_34
   10  A    between atoms: C_11  and  C_55
   11  A    between atoms: C_12  and  N_42
   12  A    between atoms: C_14  and  N_51
   13  A    between atoms: C_17  and  C_36
   14  A    between atoms: C_18  and  C_21
   15  A    between atoms: C_21  and  O_22
   16  A    between atoms: O_22  and  C_25
   17  A    between atoms: C_23  and  C_53
   18  A    between atoms: C_27  and  N_42
   19  A    between atoms: C_34  and  C_44
   20  A    between atoms: C_35  and  N_42
   21  A    between atoms: C_37  and  C_53
                            x       y       z     vdW  Elec       q    Type
                         _______ _______ _______ _____ _____    ______ ____

>  <TORSDO>
F 21

$$$$
=
 OpenBabel11042419533D

 56 60  0  0  1  0  0  0  0  0999 V2000
  193.1630  171.5010  142.1290 C   0  0  1  0  0  3  0  0  0  0  0  0
  190.1830  173.0690  140.3170 C   0  0  2  0  0  3  0  0  0  0  0  0
  191.9520  171.4960  144.2030 O   0  0  0  0  0  0  0  0  0  0  0  0
  189.8600  173.1460  143.2120 C   0  0  0  0  0  2  0  0  0  0  0  0
  191.1580  172.9800  142.5800 N   0  0  0  0  0  0  0  0  0  0  0  0
  192.0930  172.0010  143.0580 C   0  0  0  0  0  0  0  0  0  0  0  0
  193.5380  172.5410  141.1120 C   0  0  0  0  0  3  0  0  0  0  0  0
  188.7850  172.5490  142.2960 C   0  0  0  0  0  2  0  0  0  0  0  0
  192.6830  173.4760  140.6780 C   0  0  0  0  0  0  0  0  0  0  0  0
  191.2950  173.5730  141.2550 C   0  0  1  0  0  3  0  0  0  0  0  0
  188.8290  173.0730  140.9170 N   0  0  0  0  0  0  0  0  0  0  0  0
  190.4760  171.8920  139.5880 O   0  0  0  0  0  0  0  0  0  0  0  0
  189.5090  171.7060  138.5920 C   0  0  0  0  0  2  0  0  0  0  0  0
  189.7180  170.3600  137.9310 C   0  0  0  0  0  1  0  0  0  0  0  0
  194.3980  171.0110  142.8790 C   0  0  0  0  0  2  0  0  0  0  0  0
  195.3550  172.1610  143.1570 C   0  0  1  0  0  3  0  0  0  0  0  0
  195.3600  172.4570  144.6070 C   0  0  1  0  0  3  0  0  0  0  0  0
  196.3920  171.7170  143.9990 O   0  0  0  0  0  0  0  0  0  0  0  0
  195.8420  173.8840  144.8570 C   0  0  2  0  0  3  0  0  0  0  0  0
  193.4590  174.1750  145.6690 C   0  0  0  0  0  3  0  0  0  0  0  0
  192.7860  176.1960  146.8200 C   0  0  0  0  0  3  0  0  0  0  0  0
  194.0820  176.7070  146.6860 C   0  0  0  0  0  3  0  0  0  0  0  0
  195.0670  175.9530  146.0420 C   0  0  0  0  0  3  0  0  0  0  0  0
  192.4750  174.9310  146.3120 C   0  0  0  0  0  3  0  0  0  0  0  0
  194.7620  174.6840  145.5300 C   0  0  0  0  0  0  0  0  0  0  0  0
  197.6830  174.7990  143.6060 O   0  0  0  0  0  1  0  0  0  0  0  0
  196.3110  174.5460  143.5520 C   0  0  2  0  0  3  0  0  0  0  0  0
  194.5710  175.6750  142.3620 O   0  0  0  0  0  1  0  0  0  0  0  0
  195.5750  175.8570  143.3150 C   0  0  0  0  0  2  0  0  0  0  0  0
  193.0310  174.4280  139.7040 O   0  0  0  0  0  0  0  0  0  0  0  0
  194.1450  174.9750  137.6510 C   0  0  0  0  0  2  0  0  0  0  0  0
  193.2850  174.2300  138.3340 C   0  0  0  0  0  0  0  0  0  0  0  0
  192.6280  173.1960  137.6640 O   0  0  0  0  0  0  0  0  0  0  0  0
  193.3300  172.2200  136.9020 C   0  0  0  0  0  2  0  0  0  0  0  0
  193.9140  171.1760  137.7990 C   0  0  0  0  0  0  0  0  0  0  0  0
  193.1840  170.3730  138.3600 O   0  0  0  0  0  0  0  0  0  0  0  0
  195.3840  171.1310  138.0380 C   0  0  0  0  0  1  0  0  0  0  0  0
  188.3280  174.4410  140.9100 C   0  0  0  0  0  2  0  0  0  0  0  0
  187.7230  174.7620  142.2670 C   0  0  0  0  0  2  0  0  0  0  0  0
  186.7490  175.9250  142.1540 C   0  0  0  0  0  2  0  0  0  0  0  0
  187.4270  177.1240  141.6670 N   0  0  0  0  0  0  0  0  0  0  0  0
  186.2590  178.4570  143.4070 C   0  0  0  0  0  2  0  0  0  0  0  0
  188.3930  177.3610  143.9620 C   0  0  2  0  0  3  0  0  0  0  0  0
  187.6130  178.0260  142.8130 C   0  0  1  0  0  3  0  0  0  0  0  0
  187.9380  177.3380  146.4170 C   0  0  0  0  0  3  0  0  0  0  0  0
  185.6830  179.0870  147.2060 C   0  0  0  0  0  1  0  0  0  0  0  0
  184.2740  179.2300  145.3130 O   0  0  0  0  0  0  0  0  0  0  0  0
  185.4050  178.9010  145.7520 C   0  0  0  0  0  0  0  0  0  0  0  0
  187.6080  177.7030  145.1750 C   0  0  0  0  0  0  0  0  0  0  0  0
  186.4010  178.3820  144.8490 N   0  0  0  0  0  0  0  0  0  0  0  0
  189.6650  177.9320  144.0380 O   0  0  0  0  0  1  0  0  0  0  0  0
  189.1650  176.5470  146.7310 C   0  0  0  0  0  2  0  0  0  0  0  0
  188.8850  175.0650  146.5500 C   0  0  0  0  0  2  0  0  0  0  0  0
  188.9800  174.4180  147.7850 O   0  0  0  0  0  1  0  0  0  0  0  0
  186.8590  177.3920  139.4180 O   0  0  0  0  0  1  0  0  0  0  0  0
  186.5030  177.7480  140.7230 C   0  0  0  0  0  2  0  0  0  0  0  0
  1 15  1  1  0  0  0
  1  6  1  0  0  0  0
  2 12  1  1  0  0  0
  2 11  1  0  0  0  0
  2 10  1  0  0  0  0
  5  6  1  0  0  0  0
  5  4  1  0  0  0  0
  6  3  2  0  0  0  0
  7  1  1  0  0  0  0
  8  4  1  0  0  0  0
  9  7  2  0  0  0  0
 10  9  1  6  0  0  0
 10  5  1  0  0  0  0
 11  8  1  0  0  0  0
 13 12  1  0  0  0  0
 14 13  1  0  0  0  0
 16 15  1  1  0  0  0
 16 18  1  0  0  0  0
 16 17  1  0  0  0  0
 17 19  1  6  0  0  0
 18 17  1  0  0  0  0
 19 27  1  6  0  0  0
 19 25  1  0  0  0  0
 20 24  1  0  0  0  0
 22 21  1  0  0  0  0
 23 22  2  0  0  0  0
 24 21  2  0  0  0  0
 25 20  2  0  0  0  0
 25 23  1  0  0  0  0
 27 26  1  1  0  0  0
 28 29  1  0  0  0  0
 29 27  1  0  0  0  0
 30  9  1  0  0  0  0
 31 32  2  0  0  0  0
 32 30  1  0  0  0  0
 33 32  1  0  0  0  0
 34 33  1  0  0  0  0
 34 35  1  0  0  0  0
 35 37  1  0  0  0  0
 35 36  2  0  0  0  0
 38 11  1  0  0  0  0
 38 39  1  0  0  0  0
 40 39  1  0  0  0  0
 41 40  1  0  0  0  0
 42 50  1  0  0  0  0
 43 51  1  1  0  0  0
 43 49  1  0  0  0  0
 44 41  1  6  0  0  0
 44 42  1  0  0  0  0
 44 43  1  0  0  0  0
 45 52  1  0  0  0  0
 47 48  2  0  0  0  0
 48 46  1  0  0  0  0
 49 45  2  0  0  0  0
 50 49  1  0  0  0  0
 50 48  1  0  0  0  0
 53 52  1  0  0  0  0
 53 54  1  0  0  0  0
 55 56  1  0  0  0  0
 56 41  1  0  0  0  0
M  END
>  <MODEL>
4

>  <REMARK>
 VINA RESULT:      -5.5      2.337      8.048
  Name = 
  21 active torsions:
  status: ('A' for Active; 'I' for Inactive)
    1  A    between atoms: C_1  and  C_14
    2  A    between atoms: C_1  and  C_35
    3  A    between atoms: C_3  and  O_43
    4  A    between atoms: C_4  and  C_36
    5  A    between atoms: C_5  and  O_43
    6  A    between atoms: O_7  and  C_25
    7  A    between atoms: O_7  and  C_47
    8  A    between atoms: C_11  and  C_30
    9  A    between atoms: C_11  and  C_34
   10  A    between atoms: C_11  and  C_55
   11  A    between atoms: C_12  and  N_42
   12  A    between atoms: C_14  and  N_51
   13  A    between atoms: C_17  and  C_36
   14  A    between atoms: C_18  and  C_21
   15  A    between atoms: C_21  and  O_22
   16  A    between atoms: O_22  and  C_25
   17  A    between atoms: C_23  and  C_53
   18  A    between atoms: C_27  and  N_42
   19  A    between atoms: C_34  and  C_44
   20  A    between atoms: C_35  and  N_42
   21  A    between atoms: C_37  and  C_53
                            x       y       z     vdW  Elec       q    Type
                         _______ _______ _______ _____ _____    ______ ____

>  <TORSDO>
F 21

$$$$
=
 OpenBabel11042419533D

 56 60  0  0  1  0  0  0  0  0999 V2000
  191.6040  175.3810  144.1850 C   0  0  1  0  0  3  0  0  0  0  0  0
  192.1900  172.4500  141.8010 C   0  0  2  0  0  3  0  0  0  0  0  0
  192.6320  176.9010  142.6350 O   0  0  0  0  0  0  0  0  0  0  0  0
  193.6600  174.8290  140.9830 C   0  0  0  0  0  2  0  0  0  0  0  0
  193.1740  174.6450  142.3400 N   0  0  0  0  0  0  0  0  0  0  0  0
  192.5190  175.7130  143.0410 C   0  0  0  0  0  0  0  0  0  0  0  0
  192.0160  174.1060  144.8660 C   0  0  0  0  0  3  0  0  0  0  0  0
  192.7270  174.0860  140.0200 C   0  0  0  0  0  2  0  0  0  0  0  0
  192.6500  173.1140  144.2290 C   0  0  0  0  0  0  0  0  0  0  0  0
  193.0510  173.2620  142.7850 C   0  0  1  0  0  3  0  0  0  0  0  0
  192.5210  172.6690  140.3750 N   0  0  0  0  0  0  0  0  0  0  0  0
  190.8000  172.4340  142.0650 O   0  0  0  0  0  0  0  0  0  0  0  0
  190.1340  171.7770  141.0230 C   0  0  0  0  0  2  0  0  0  0  0  0
  188.9460  172.6070  140.5800 C   0  0  0  0  0  1  0  0  0  0  0  0
  191.5010  176.5210  145.1940 C   0  0  0  0  0  2  0  0  0  0  0  0
  190.3740  177.4730  144.8210 C   0  0  1  0  0  3  0  0  0  0  0  0
  189.0740  176.7840  144.9790 C   0  0  1  0  0  3  0  0  0  0  0  0
  189.5510  177.6920  145.9420 O   0  0  0  0  0  0  0  0  0  0  0  0
  188.0040  177.4650  144.1290 C   0  0  2  0  0  3  0  0  0  0  0  0
  186.2560  176.6760  145.7860 C   0  0  0  0  0  3  0  0  0  0  0  0
  184.4530  178.1410  146.4680 C   0  0  0  0  0  3  0  0  0  0  0  0
  184.9500  179.1480  145.6320 C   0  0  0  0  0  3  0  0  0  0  0  0
  186.1000  178.9180  144.8710 C   0  0  0  0  0  3  0  0  0  0  0  0
  185.1050  176.9060  146.5450 C   0  0  0  0  0  3  0  0  0  0  0  0
  186.7580  177.6820  144.9430 C   0  0  0  0  0  0  0  0  0  0  0  0
  188.4310  175.4630  142.8650 O   0  0  0  0  0  1  0  0  0  0  0  0
  187.7150  176.6610  142.8520 C   0  0  2  0  0  3  0  0  0  0  0  0
  186.9650  177.7190  140.8430 O   0  0  0  0  0  1  0  0  0  0  0  0
  188.1000  177.4550  141.6130 C   0  0  0  0  0  2  0  0  0  0  0  0
  193.0050  171.9110  144.8630 O   0  0  0  0  0  0  0  0  0  0  0  0
  194.5990  170.4470  145.9000 C   0  0  0  0  0  2  0  0  0  0  0  0
  194.2690  171.2950  144.9330 C   0  0  0  0  0  0  0  0  0  0  0  0
  195.2110  171.5610  143.9380 O   0  0  0  0  0  0  0  0  0  0  0  0
  196.5250  172.0150  144.2410 C   0  0  0  0  0  2  0  0  0  0  0  0
  196.4830  173.3940  144.8170 C   0  0  0  0  0  0  0  0  0  0  0  0
  196.0780  174.3280  144.1410 O   0  0  0  0  0  0  0  0  0  0  0  0
  196.9640  173.6420  146.2060 C   0  0  0  0  0  1  0  0  0  0  0  0
  193.7300  171.9180  140.0630 C   0  0  0  0  0  2  0  0  0  0  0  0
  193.3470  170.5710  139.4710 C   0  0  0  0  0  2  0  0  0  0  0  0
  193.1480  170.6880  137.9670 C   0  0  0  0  0  2  0  0  0  0  0  0
  194.4270  170.6040  137.2670 N   0  0  0  0  0  0  0  0  0  0  0  0
  193.2450  172.6200  136.4260 C   0  0  0  0  0  2  0  0  0  0  0  0
  195.6610  172.7450  136.8810 C   0  0  2  0  0  3  0  0  0  0  0  0
  194.5450  171.7940  136.4120 C   0  0  1  0  0  3  0  0  0  0  0  0
  195.6510  175.2260  137.1660 C   0  0  0  0  0  3  0  0  0  0  0  0
  193.1650  176.5060  136.1940 C   0  0  0  0  0  1  0  0  0  0  0  0
  191.4730  174.8630  136.3670 O   0  0  0  0  0  0  0  0  0  0  0  0
  192.7090  175.0970  136.3750 C   0  0  0  0  0  0  0  0  0  0  0  0
  195.0280  174.0880  136.8470 C   0  0  0  0  0  0  0  0  0  0  0  0
  193.6420  174.0120  136.5330 N   0  0  0  0  0  0  0  0  0  0  0  0
  196.7180  172.6910  135.9690 O   0  0  0  0  0  1  0  0  0  0  0  0
  197.0840  175.2780  137.5810 C   0  0  0  0  0  2  0  0  0  0  0  0
  197.1840  175.3190  139.0960 C   0  0  0  0  0  2  0  0  0  0  0  0
  197.6100  174.0760  139.5700 O   0  0  0  0  0  1  0  0  0  0  0  0
  195.5060  169.3060  135.6530 O   0  0  0  0  0  1  0  0  0  0  0  0
  194.3380  169.4200  136.4150 C   0  0  0  0  0  2  0  0  0  0  0  0
  1  7  1  0  0  0  0
  1 15  1  1  0  0  0
  2 12  1  6  0  0  0
  2 10  1  0  0  0  0
  3  6  2  0  0  0  0
  4  5  1  0  0  0  0
  5 10  1  0  0  0  0
  5  6  1  0  0  0  0
  6  1  1  0  0  0  0
  8 11  1  0  0  0  0
  8  4  1  0  0  0  0
  9 30  1  0  0  0  0
  9  7  2  0  0  0  0
 10  9  1  1  0  0  0
 11  2  1  0  0  0  0
 13 12  1  0  0  0  0
 14 13  1  0  0  0  0
 16 17  1  0  0  0  0
 16 15  1  1  0  0  0
 16 18  1  0  0  0  0
 17 19  1  6  0  0  0
 17 18  1  0  0  0  0
 19 27  1  6  0  0  0
 19 25  1  0  0  0  0
 20 24  1  0  0  0  0
 21 24  2  0  0  0  0
 22 21  1  0  0  0  0
 23 25  1  0  0  0  0
 23 22  2  0  0  0  0
 25 20  2  0  0  0  0
 27 26  1  1  0  0  0
 28 29  1  0  0  0  0
 29 27  1  0  0  0  0
 30 32  1  0  0  0  0
 32 31  2  0  0  0  0
 33 34  1  0  0  0  0
 33 32  1  0  0  0  0
 34 35  1  0  0  0  0
 35 37  1  0  0  0  0
 36 35  2  0  0  0  0
 38 11  1  0  0  0  0
 39 38  1  0  0  0  0
 40 39  1  0  0  0  0
 41 40  1  0  0  0  0
 42 50  1  0  0  0  0
 43 51  1  6  0  0  0
 44 42  1  0  0  0  0
 44 43  1  0  0  0  0
 44 41  1  1  0  0  0
 45 52  1  0  0  0  0
 46 48  1  0  0  0  0
 47 48  2  0  0  0  0
 48 50  1  0  0  0  0
 49 43  1  0  0  0  0
 49 45  2  0  0  0  0
 50 49  1  0  0  0  0
 52 53  1  0  0  0  0
 53 54  1  0  0  0  0
 55 56  1  0  0  0  0
 56 41  1  0  0  0  0
M  END
>  <MODEL>
5

>  <REMARK>
 VINA RESULT:      -5.5      2.601      5.728
  Name = 
  21 active torsions:
  status: ('A' for Active; 'I' for Inactive)
    1  A    between atoms: C_1  and  C_14
    2  A    between atoms: C_1  and  C_35
    3  A    between atoms: C_3  and  O_43
    4  A    between atoms: C_4  and  C_36
    5  A    between atoms: C_5  and  O_43
    6  A    between atoms: O_7  and  C_25
    7  A    between atoms: O_7  and  C_47
    8  A    between atoms: C_11  and  C_30
    9  A    between atoms: C_11  and  C_34
   10  A    between atoms: C_11  and  C_55
   11  A    between atoms: C_12  and  N_42
   12  A    between atoms: C_14  and  N_51
   13  A    between atoms: C_17  and  C_36
   14  A    between atoms: C_18  and  C_21
   15  A    between atoms: C_21  and  O_22
   16  A    between atoms: O_22  and  C_25
   17  A    between atoms: C_23  and  C_53
   18  A    between atoms: C_27  and  N_42
   19  A    between atoms: C_34  and  C_44
   20  A    between atoms: C_35  and  N_42
   21  A    between atoms: C_37  and  C_53
                            x       y       z     vdW  Elec       q    Type
                         _______ _______ _______ _____ _____    ______ ____

>  <TORSDO>
F 21

$$$$
=
 OpenBabel11042419533D

 56 60  0  0  1  0  0  0  0  0999 V2000
  189.9990  177.5620  142.8950 C   0  0  1  0  0  3  0  0  0  0  0  0
  192.7680  175.1440  143.9460 C   0  0  2  0  0  3  0  0  0  0  0  0
  189.7210  178.2960  145.1650 O   0  0  0  0  0  0  0  0  0  0  0  0
  191.3240  176.2110  146.2420 C   0  0  0  0  0  2  0  0  0  0  0  0
  190.7650  176.2210  144.9000 N   0  0  0  0  0  0  0  0  0  0  0  0
  190.1080  177.3870  144.3830 C   0  0  0  0  0  0  0  0  0  0  0  0
  189.9620  176.2380  142.1870 C   0  0  0  0  0  3  0  0  0  0  0  0
  192.8520  176.2920  146.1410 C   0  0  0  0  0  2  0  0  0  0  0  0
  190.5480  175.1360  142.6720 C   0  0  0  0  0  0  0  0  0  0  0  0
  191.2300  175.1590  144.0150 C   0  0  1  0  0  3  0  0  0  0  0  0
  193.4390  175.2630  145.2600 N   0  0  0  0  0  0  0  0  0  0  0  0
  193.3490  175.9480  142.9370 O   0  0  0  0  0  0  0  0  0  0  0  0
  194.6520  175.5050  142.6800 C   0  0  0  0  0  2  0  0  0  0  0  0
  195.2420  176.3070  141.5380 C   0  0  0  0  0  1  0  0  0  0  0  0
  188.8000  178.4190  142.4990 C   0  0  0  0  0  2  0  0  0  0  0  0
  187.4950  177.7240  142.8590 C   0  0  1  0  0  3  0  0  0  0  0  0
  186.3550  178.5800  142.4610 C   0  0  1  0  0  3  0  0  0  0  0  0
  186.7560  177.4740  141.6880 O   0  0  0  0  0  0  0  0  0  0  0  0
  185.1080  178.2120  143.2610 C   0  0  2  0  0  3  0  0  0  0  0  0
  182.6450  178.6690  142.8790 C   0  0  0  0  0  3  0  0  0  0  0  0
  181.6610  178.3750  140.6860 C   0  0  0  0  0  3  0  0  0  0  0  0
  182.9020  177.9710  140.1800 C   0  0  0  0  0  3  0  0  0  0  0  0
  184.0150  177.9150  141.0240 C   0  0  0  0  0  3  0  0  0  0  0  0
  181.5320  178.7230  142.0350 C   0  0  0  0  0  3  0  0  0  0  0  0
  183.8930  178.2630  142.3770 C   0  0  0  0  0  0  0  0  0  0  0  0
  185.6100  180.3300  144.2860 O   0  0  0  0  0  1  0  0  0  0  0  0
  184.9530  179.1160  144.4930 C   0  0  2  0  0  3  0  0  0  0  0  0
  185.1830  177.0930  145.7480 O   0  0  0  0  0  1  0  0  0  0  0  0
  185.5280  178.4460  145.7330 C   0  0  0  0  0  2  0  0  0  0  0  0
  190.5360  173.9080  141.9900 O   0  0  0  0  0  0  0  0  0  0  0  0
  192.2000  173.7450  140.2680 C   0  0  0  0  0  2  0  0  0  0  0  0
  190.9390  173.6320  140.6700 C   0  0  0  0  0  0  0  0  0  0  0  0
  189.9870  173.1990  139.7450 O   0  0  0  0  0  0  0  0  0  0  0  0
  188.7150  173.8250  139.6180 C   0  0  0  0  0  2  0  0  0  0  0  0
  188.4210  174.1260  138.1830 C   0  0  0  0  0  0  0  0  0  0  0  0
  187.5680  174.9510  137.8930 O   0  0  0  0  0  0  0  0  0  0  0  0
  189.1430  173.3990  137.1010 C   0  0  0  0  0  1  0  0  0  0  0  0
  193.3750  173.9700  145.9280 C   0  0  0  0  0  2  0  0  0  0  0  0
  194.4730  173.0690  145.3860 C   0  0  0  0  0  2  0  0  0  0  0  0
  194.0090  171.6210  145.3580 C   0  0  0  0  0  2  0  0  0  0  0  0
  195.0320  170.7590  144.7730 N   0  0  0  0  0  0  0  0  0  0  0  0
  192.8840  170.2170  143.6500 C   0  0  0  0  0  2  0  0  0  0  0  0
  195.0010  169.7910  142.4670 C   0  0  2  0  0  3  0  0  0  0  0  0
  194.3560  169.8200  143.8650 C   0  0  1  0  0  3  0  0  0  0  0  0
  193.9450  169.8540  140.2040 C   0  0  0  0  0  3  0  0  0  0  0  0
  190.9890  169.7040  140.2860 C   0  0  0  0  0  1  0  0  0  0  0  0
  190.3480  170.5910  142.3830 O   0  0  0  0  0  0  0  0  0  0  0  0
  191.2920  170.1490  141.6780 C   0  0  0  0  0  0  0  0  0  0  0  0
  193.8450  169.8670  141.5360 C   0  0  0  0  0  0  0  0  0  0  0  0
  192.6190  170.0620  142.2310 N   0  0  0  0  0  0  0  0  0  0  0  0
  195.6700  168.5770  142.2990 O   0  0  0  0  0  1  0  0  0  0  0  0
  195.2510  169.7390  139.4900 C   0  0  0  0  0  2  0  0  0  0  0  0
  195.5070  170.9940  138.6730 C   0  0  0  0  0  2  0  0  0  0  0  0
  194.2880  171.5750  138.3150 O   0  0  0  0  0  1  0  0  0  0  0  0
  196.9200  170.4250  146.1050 O   0  0  0  0  0  1  0  0  0  0  0  0
  195.6040  170.0060  145.8870 C   0  0  0  0  0  2  0  0  0  0  0  0
  1 15  1  1  0  0  0
  1  6  1  0  0  0  0
  2 12  1  6  0  0  0
  2 10  1  0  0  0  0
  2 11  1  0  0  0  0
  5  4  1  0  0  0  0
  6  5  1  0  0  0  0
  6  3  2  0  0  0  0
  7  9  2  0  0  0  0
  7  1  1  0  0  0  0
  8  4  1  0  0  0  0
 10  9  1  6  0  0  0
 10  5  1  0  0  0  0
 11 38  1  0  0  0  0
 11  8  1  0  0  0  0
 13 12  1  0  0  0  0
 14 13  1  0  0  0  0
 16 15  1  6  0  0  0
 17 16  1  0  0  0  0
 17 19  1  1  0  0  0
 18 17  1  0  0  0  0
 18 16  1  0  0  0  0
 19 27  1  1  0  0  0
 21 24  1  0  0  0  0
 22 21  2  0  0  0  0
 22 23  1  0  0  0  0
 23 25  2  0  0  0  0
 24 20  2  0  0  0  0
 25 20  1  0  0  0  0
 25 19  1  0  0  0  0
 27 26  1  6  0  0  0
 27 29  1  0  0  0  0
 29 28  1  0  0  0  0
 30  9  1  0  0  0  0
 31 32  2  0  0  0  0
 32 30  1  0  0  0  0
 33 32  1  0  0  0  0
 34 33  1  0  0  0  0
 35 34  1  0  0  0  0
 36 35  2  0  0  0  0
 37 35  1  0  0  0  0
 39 38  1  0  0  0  0
 40 39  1  0  0  0  0
 41 40  1  0  0  0  0
 41 56  1  0  0  0  0
 42 44  1  0  0  0  0
 43 51  1  6  0  0  0
 43 44  1  0  0  0  0
 44 41  1  1  0  0  0
 45 49  2  0  0  0  0
 46 48  1  0  0  0  0
 48 50  1  0  0  0  0
 48 47  2  0  0  0  0
 49 50  1  0  0  0  0
 49 43  1  0  0  0  0
 50 42  1  0  0  0  0
 52 45  1  0  0  0  0
 53 52  1  0  0  0  0
 54 53  1  0  0  0  0
 56 55  1  0  0  0  0
M  END
>  <MODEL>
6

>  <REMARK>
 VINA RESULT:      -5.4      2.227      3.477
  Name = 
  21 active torsions:
  status: ('A' for Active; 'I' for Inactive)
    1  A    between atoms: C_1  and  C_14
    2  A    between atoms: C_1  and  C_35
    3  A    between atoms: C_3  and  O_43
    4  A    between atoms: C_4  and  C_36
    5  A    between atoms: C_5  and  O_43
    6  A    between atoms: O_7  and  C_25
    7  A    between atoms: O_7  and  C_47
    8  A    between atoms: C_11  and  C_30
    9  A    between atoms: C_11  and  C_34
   10  A    between atoms: C_11  and  C_55
   11  A    between atoms: C_12  and  N_42
   12  A    between atoms: C_14  and  N_51
   13  A    between atoms: C_17  and  C_36
   14  A    between atoms: C_18  and  C_21
   15  A    between atoms: C_21  and  O_22
   16  A    between atoms: O_22  and  C_25
   17  A    between atoms: C_23  and  C_53
   18  A    between atoms: C_27  and  N_42
   19  A    between atoms: C_34  and  C_44
   20  A    between atoms: C_35  and  N_42
   21  A    between atoms: C_37  and  C_53
                            x       y       z     vdW  Elec       q    Type
                         _______ _______ _______ _____ _____    ______ ____

>  <TORSDO>
F 21

$$$$
=
 OpenBabel11042419533D

 56 60  0  0  1  0  0  0  0  0999 V2000
  195.7200  173.5460  140.4100 C   0  0  1  0  0  3  0  0  0  0  0  0
  195.5920  173.8220  144.2210 C   0  0  2  0  0  3  0  0  0  0  0  0
  194.8690  175.7800  140.1780 O   0  0  0  0  0  0  0  0  0  0  0  0
  194.1660  176.0070  142.9230 C   0  0  0  0  0  2  0  0  0  0  0  0
  194.4600  174.7570  142.2410 N   0  0  0  0  0  0  0  0  0  0  0  0
  194.9660  174.7500  140.8980 C   0  0  0  0  0  0  0  0  0  0  0  0
  195.2640  172.2930  141.1040 C   0  0  0  0  0  3  0  0  0  0  0  0
  195.2540  176.2640  143.9710 C   0  0  0  0  0  2  0  0  0  0  0  0
  194.7640  172.2910  142.3460 C   0  0  0  0  0  0  0  0  0  0  0  0
  194.5690  173.5810  143.0960 C   0  0  1  0  0  3  0  0  0  0  0  0
  195.4600  175.1330  144.8970 N   0  0  0  0  0  0  0  0  0  0  0  0
  196.9290  173.4670  143.9260 O   0  0  0  0  0  0  0  0  0  0  0  0
  197.4620  172.7270  144.9890 C   0  0  0  0  0  2  0  0  0  0  0  0
  197.8730  171.3560  144.4930 C   0  0  0  0  0  1  0  0  0  0  0  0
  195.6360  173.3840  138.8950 C   0  0  0  0  0  2  0  0  0  0  0  0
  194.7230  172.2250  138.5240 C   0  0  1  0  0  3  0  0  0  0  0  0
  193.6000  172.7260  137.6990 C   0  0  1  0  0  3  0  0  0  0  0  0
  194.7050  172.0690  137.1250 O   0  0  0  0  0  0  0  0  0  0  0  0
  192.4180  171.7620  137.7670 C   0  0  2  0  0  3  0  0  0  0  0  0
  191.3410  173.4450  136.2090 C   0  0  0  0  0  3  0  0  0  0  0  0
  189.4340  172.8250  134.8520 C   0  0  0  0  0  3  0  0  0  0  0  0
  189.4650  171.5340  135.3930 C   0  0  0  0  0  3  0  0  0  0  0  0
  190.4330  171.1990  136.3430 C   0  0  0  0  0  3  0  0  0  0  0  0
  190.3710  173.7800  135.2600 C   0  0  0  0  0  3  0  0  0  0  0  0
  191.3750  172.1510  136.7570 C   0  0  0  0  0  0  0  0  0  0  0  0
  191.1030  170.5220  139.3550 O   0  0  0  0  0  1  0  0  0  0  0  0
  191.8370  171.6970  139.1880 C   0  0  2  0  0  3  0  0  0  0  0  0
  191.6080  173.8380  140.2280 O   0  0  0  0  0  1  0  0  0  0  0  0
  190.9320  172.8900  139.4580 C   0  0  0  0  0  2  0  0  0  0  0  0
  194.3670  171.1120  143.0000 O   0  0  0  0  0  0  0  0  0  0  0  0
  193.5400  170.1070  145.0160 C   0  0  0  0  0  2  0  0  0  0  0  0
  193.3910  170.9500  144.0010 C   0  0  0  0  0  0  0  0  0  0  0  0
  192.2260  171.7180  143.9450 O   0  0  0  0  0  0  0  0  0  0  0  0
  191.2680  171.5670  142.9040 C   0  0  0  0  0  2  0  0  0  0  0  0
  189.9010  171.9260  143.3930 C   0  0  0  0  0  0  0  0  0  0  0  0
  188.9550  171.9260  142.6200 O   0  0  0  0  0  0  0  0  0  0  0  0
  189.6930  172.3160  144.8160 C   0  0  0  0  0  1  0  0  0  0  0  0
  194.3370  175.0620  145.8220 C   0  0  0  0  0  2  0  0  0  0  0  0
  194.1250  176.4260  146.4600 C   0  0  0  0  0  2  0  0  0  0  0  0
  192.7120  176.5420  147.0120 C   0  0  0  0  0  2  0  0  0  0  0  0
  191.8010  175.6530  146.2950 N   0  0  0  0  0  0  0  0  0  0  0  0
  190.5120  175.8750  144.1840 C   0  0  0  0  0  2  0  0  0  0  0  0
  189.5110  176.6590  146.2920 C   0  0  2  0  0  3  0  0  0  0  0  0
  190.8510  176.4950  145.5530 C   0  0  1  0  0  3  0  0  0  0  0  0
  187.1690  176.4830  145.4420 C   0  0  0  0  0  3  0  0  0  0  0  0
  187.0110  176.1610  142.5030 C   0  0  0  0  0  1  0  0  0  0  0  0
  189.0390  175.1340  141.8480 O   0  0  0  0  0  0  0  0  0  0  0  0
  188.4180  175.7360  142.7620 C   0  0  0  0  0  0  0  0  0  0  0  0
  188.4880  176.4220  145.2410 C   0  0  0  0  0  0  0  0  0  0  0  0
  189.0790  176.0190  144.0100 N   0  0  0  0  0  0  0  0  0  0  0  0
  189.4120  177.9670  146.7700 O   0  0  0  0  0  1  0  0  0  0  0  0
  186.5650  176.8200  146.7650 C   0  0  0  0  0  2  0  0  0  0  0  0
  185.9660  178.2150  146.7200 C   0  0  0  0  0  2  0  0  0  0  0  0
  184.6710  178.1850  147.2440 O   0  0  0  0  0  1  0  0  0  0  0  0
  191.5480  175.2840  148.5880 O   0  0  0  0  0  1  0  0  0  0  0  0
  191.0700  174.9170  147.3250 C   0  0  0  0  0  2  0  0  0  0  0  0
  1 15  1  6  0  0  0
  1  6  1  0  0  0  0
  1  7  1  0  0  0  0
  2 12  1  6  0  0  0
  2 11  1  0  0  0  0
  3  6  2  0  0  0  0
  4  8  1  0  0  0  0
  5  4  1  0  0  0  0
  5 10  1  0  0  0  0
  6  5  1  0  0  0  0
  7  9  2  0  0  0  0
  8 11  1  0  0  0  0
  9 30  1  0  0  0  0
 10  9  1  6  0  0  0
 10  2  1  0  0  0  0
 11 38  1  0  0  0  0
 12 13  1  0  0  0  0
 14 13  1  0  0  0  0
 16 15  1  6  0  0  0
 17 19  1  1  0  0  0
 17 16  1  0  0  0  0
 18 17  1  0  0  0  0
 18 16  1  0  0  0  0
 19 27  1  1  0  0  0
 20 25  1  0  0  0  0
 21 24  1  0  0  0  0
 21 22  2  0  0  0  0
 22 23  1  0  0  0  0
 23 25  2  0  0  0  0
 24 20  2  0  0  0  0
 25 19  1  0  0  0  0
 27 26  1  6  0  0  0
 27 29  1  0  0  0  0
 29 28  1  0  0  0  0
 30 32  1  0  0  0  0
 32 31  2  0  0  0  0
 33 32  1  0  0  0  0
 34 35  1  0  0  0  0
 34 33  1  0  0  0  0
 35 37  1  0  0  0  0
 36 35  2  0  0  0  0
 38 39  1  0  0  0  0
 39 40  1  0  0  0  0
 41 40  1  0  0  0  0
 41 56  1  0  0  0  0
 42 44  1  0  0  0  0
 43 51  1  6  0  0  0
 44 43  1  0  0  0  0
 44 41  1  1  0  0  0
 45 52  1  0  0  0  0
 46 48  1  0  0  0  0
 47 48  2  0  0  0  0
 48 50  1  0  0  0  0
 49 45  2  0  0  0  0
 49 43  1  0  0  0  0
 50 42  1  0  0  0  0
 50 49  1  0  0  0  0
 53 52  1  0  0  0  0
 53 54  1  0  0  0  0
 56 55  1  0  0  0  0
M  END
>  <MODEL>
7

>  <REMARK>
 VINA RESULT:      -5.3      2.285      7.641
  Name = 
  21 active torsions:
  status: ('A' for Active; 'I' for Inactive)
    1  A    between atoms: C_1  and  C_14
    2  A    between atoms: C_1  and  C_35
    3  A    between atoms: C_3  and  O_43
    4  A    between atoms: C_4  and  C_36
    5  A    between atoms: C_5  and  O_43
    6  A    between atoms: O_7  and  C_25
    7  A    between atoms: O_7  and  C_47
    8  A    between atoms: C_11  and  C_30
    9  A    between atoms: C_11  and  C_34
   10  A    between atoms: C_11  and  C_55
   11  A    between atoms: C_12  and  N_42
   12  A    between atoms: C_14  and  N_51
   13  A    between atoms: C_17  and  C_36
   14  A    between atoms: C_18  and  C_21
   15  A    between atoms: C_21  and  O_22
   16  A    between atoms: O_22  and  C_25
   17  A    between atoms: C_23  and  C_53
   18  A    between atoms: C_27  and  N_42
   19  A    between atoms: C_34  and  C_44
   20  A    between atoms: C_35  and  N_42
   21  A    between atoms: C_37  and  C_53
                            x       y       z     vdW  Elec       q    Type
                         _______ _______ _______ _____ _____    ______ ____

>  <TORSDO>
F 21

$$$$
=
 OpenBabel11042419533D

 56 60  0  0  1  0  0  0  0  0999 V2000
  189.4460  173.6380  141.2450 C   0  0  1  0  0  3  0  0  0  0  0  0
  192.9350  172.1200  140.8670 C   0  0  2  0  0  3  0  0  0  0  0  0
  189.2980  172.8370  143.5050 O   0  0  0  0  0  0  0  0  0  0  0  0
  191.5920  171.1740  143.2740 C   0  0  0  0  0  2  0  0  0  0  0  0
  190.8650  171.7480  142.1530 N   0  0  0  0  0  0  0  0  0  0  0  0
  189.8200  172.7090  142.3650 C   0  0  0  0  0  0  0  0  0  0  0  0
  189.7040  173.0130  139.9040 C   0  0  0  0  0  3  0  0  0  0  0  0
  192.9930  171.7950  143.3220 C   0  0  0  0  0  2  0  0  0  0  0  0
  190.6580  172.0960  139.6990 C   0  0  0  0  0  0  0  0  0  0  0  0
  191.4900  171.5880  140.8460 C   0  0  1  0  0  3  0  0  0  0  0  0
  193.7250  171.6970  142.0450 N   0  0  0  0  0  0  0  0  0  0  0  0
  193.0940  173.4870  140.5370 O   0  0  0  0  0  0  0  0  0  0  0  0
  193.9490  174.0940  141.4650 C   0  0  0  0  0  2  0  0  0  0  0  0
  193.2540  175.2890  142.0850 C   0  0  0  0  0  1  0  0  0  0  0  0
  188.0010  174.1180  141.3490 C   0  0  0  0  0  2  0  0  0  0  0  0
  187.9460  175.6080  141.6530 C   0  0  1  0  0  3  0  0  0  0  0  0
  187.0600  175.8400  142.8160 C   0  0  1  0  0  3  0  0  0  0  0  0
  188.4620  175.8450  142.9410 O   0  0  0  0  0  0  0  0  0  0  0  0
  186.5480  177.2790  142.8160 C   0  0  2  0  0  3  0  0  0  0  0  0
  186.0460  179.0250  144.5820 C   0  0  0  0  0  3  0  0  0  0  0  0
  185.2840  178.3690  146.7840 C   0  0  0  0  0  3  0  0  0  0  0  0
  185.3540  177.0220  146.4100 C   0  0  0  0  0  3  0  0  0  0  0  0
  185.7710  176.6760  145.1220 C   0  0  0  0  0  3  0  0  0  0  0  0
  185.6300  179.3700  145.8710 C   0  0  0  0  0  3  0  0  0  0  0  0
  186.1190  177.6740  144.2020 C   0  0  0  0  0  0  0  0  0  0  0  0
  185.8060  178.3580  140.7970 O   0  0  0  0  0  1  0  0  0  0  0  0
  185.4150  177.4640  141.7960 C   0  0  2  0  0  3  0  0  0  0  0  0
  183.1380  178.1430  141.5310 O   0  0  0  0  0  1  0  0  0  0  0  0
  184.1590  177.9940  142.4710 C   0  0  0  0  0  2  0  0  0  0  0  0
  190.9140  171.5380  138.4350 O   0  0  0  0  0  0  0  0  0  0  0  0
  190.3620  172.4320  136.2780 C   0  0  0  0  0  2  0  0  0  0  0  0
  191.2490  172.1950  137.2370 C   0  0  0  0  0  0  0  0  0  0  0  0
  192.5600  172.6390  137.0480 O   0  0  0  0  0  0  0  0  0  0  0  0
  192.9060  173.5650  136.0240 C   0  0  0  0  0  2  0  0  0  0  0  0
  193.0950  174.9330  136.5970 C   0  0  0  0  0  0  0  0  0  0  0  0
  193.7900  175.0910  137.5890 O   0  0  0  0  0  0  0  0  0  0  0  0
  192.4130  176.1050  135.9780 C   0  0  0  0  0  1  0  0  0  0  0  0
  194.1490  170.3180  141.8420 C   0  0  0  0  0  2  0  0  0  0  0  0
  195.0810  169.9080  142.9720 C   0  0  0  0  0  2  0  0  0  0  0  0
  196.3180  170.7920  142.9890 C   0  0  0  0  0  2  0  0  0  0  0  0
  196.8270  170.9470  144.3490 N   0  0  0  0  0  0  0  0  0  0  0  0
  197.4900  172.9870  143.0990 C   0  0  0  0  0  2  0  0  0  0  0  0
  196.4140  173.2230  145.3010 C   0  0  2  0  0  3  0  0  0  0  0  0
  197.3470  172.3160  144.4770 C   0  0  1  0  0  3  0  0  0  0  0  0
  195.6150  175.5460  144.8520 C   0  0  0  0  0  3  0  0  0  0  0  0
  196.8950  176.7870  142.4870 C   0  0  0  0  0  1  0  0  0  0  0  0
  197.5190  175.0000  141.0690 O   0  0  0  0  0  0  0  0  0  0  0  0
  197.1440  175.3400  142.2200 C   0  0  0  0  0  0  0  0  0  0  0  0
  196.3200  174.4680  144.4970 C   0  0  0  0  0  0  0  0  0  0  0  0
  196.9890  174.3410  143.2470 N   0  0  0  0  0  0  0  0  0  0  0  0
  197.0140  173.4930  146.5330 O   0  0  0  0  0  1  0  0  0  0  0  0
  194.8450  175.6270  146.1280 C   0  0  0  0  0  2  0  0  0  0  0  0
  193.3550  175.5790  145.8370 C   0  0  0  0  0  2  0  0  0  0  0  0
  192.9450  176.7990  145.2940 O   0  0  0  0  0  1  0  0  0  0  0  0
  197.5260  168.8810  145.1850 O   0  0  0  0  0  1  0  0  0  0  0  0
  197.9410  170.0080  144.4670 C   0  0  0  0  0  2  0  0  0  0  0  0
  1 15  1  6  0  0  0
  1  6  1  0  0  0  0
  2 12  1  1  0  0  0
  2 11  1  0  0  0  0
  4  8  1  0  0  0  0
  5  6  1  0  0  0  0
  5  4  1  0  0  0  0
  6  3  2  0  0  0  0
  7  1  1  0  0  0  0
  9  7  2  0  0  0  0
 10  9  1  6  0  0  0
 10  2  1  0  0  0  0
 10  5  1  0  0  0  0
 11  8  1  0  0  0  0
 12 13  1  0  0  0  0
 13 14  1  0  0  0  0
 16 15  1  1  0  0  0
 16 17  1  0  0  0  0
 16 18  1  0  0  0  0
 17 19  1  6  0  0  0
 17 18  1  0  0  0  0
 19 27  1  6  0  0  0
 19 25  1  0  0  0  0
 20 24  1  0  0  0  0
 22 21  1  0  0  0  0
 23 22  2  0  0  0  0
 24 21  2  0  0  0  0
 25 20  2  0  0  0  0
 25 23  1  0  0  0  0
 27 26  1  6  0  0  0
 27 29  1  0  0  0  0
 28 29  1  0  0  0  0
 30  9  1  0  0  0  0
 31 32  2  0  0  0  0
 32 30  1  0  0  0  0
 33 32  1  0  0  0  0
 34 35  1  0  0  0  0
 34 33  1  0  0  0  0
 35 36  2  0  0  0  0
 37 35  1  0  0  0  0
 38 11  1  0  0  0  0
 38 39  1  0  0  0  0
 39 40  1  0  0  0  0
 40 41  1  0  0  0  0
 41 56  1  0  0  0  0
 42 50  1  0  0  0  0
 42 44  1  0  0  0  0
 43 51  1  1  0  0  0
 44 41  1  6  0  0  0
 44 43  1  0  0  0  0
 45 52  1  0  0  0  0
 47 48  2  0  0  0  0
 48 46  1  0  0  0  0
 48 50  1  0  0  0  0
 49 45  2  0  0  0  0
 49 43  1  0  0  0  0
 50 49  1  0  0  0  0
 53 52  1  0  0  0  0
 54 53  1  0  0  0  0
 56 55  1  0  0  0  0
M  END
>  <MODEL>
8

>  <REMARK>
 VINA RESULT:      -5.3      2.019      5.206
  Name = 
  21 active torsions:
  status: ('A' for Active; 'I' for Inactive)
    1  A    between atoms: C_1  and  C_14
    2  A    between atoms: C_1  and  C_35
    3  A    between atoms: C_3  and  O_43
    4  A    between atoms: C_4  and  C_36
    5  A    between atoms: C_5  and  O_43
    6  A    between atoms: O_7  and  C_25
    7  A    between atoms: O_7  and  C_47
    8  A    between atoms: C_11  and  C_30
    9  A    between atoms: C_11  and  C_34
   10  A    between atoms: C_11  and  C_55
   11  A    between atoms: C_12  and  N_42
   12  A    between atoms: C_14  and  N_51
   13  A    between atoms: C_17  and  C_36
   14  A    between atoms: C_18  and  C_21
   15  A    between atoms: C_21  and  O_22
   16  A    between atoms: O_22  and  C_25
   17  A    between atoms: C_23  and  C_53
   18  A    between atoms: C_27  and  N_42
   19  A    between atoms: C_34  and  C_44
   20  A    between atoms: C_35  and  N_42
   21  A    between atoms: C_37  and  C_53
                            x       y       z     vdW  Elec       q    Type
                         _______ _______ _______ _____ _____    ______ ____

>  <TORSDO>
F 21

$$$$
=
 OpenBabel11042419533D

 56 60  0  0  1  0  0  0  0  0999 V2000
  192.8830  176.1840  142.3870 C   0  0  1  0  0  3  0  0  0  0  0  0
  194.6740  174.2080  139.6460 C   0  0  2  0  0  3  0  0  0  0  0  0
  194.9850  176.8030  143.3710 O   0  0  0  0  0  0  0  0  0  0  0  0
  196.4840  174.9700  141.7990 C   0  0  0  0  0  2  0  0  0  0  0  0
  195.0420  174.9270  141.9760 N   0  0  0  0  0  0  0  0  0  0  0  0
  194.3490  175.9880  142.6500 C   0  0  0  0  0  0  0  0  0  0  0  0
  192.2120  174.8900  142.0220 C   0  0  0  0  0  3  0  0  0  0  0  0
  196.7920  175.2950  140.3330 C   0  0  0  0  0  2  0  0  0  0  0  0
  192.8550  173.8830  141.4170 C   0  0  0  0  0  0  0  0  0  0  0  0
  194.3300  173.9770  141.1290 C   0  0  1  0  0  3  0  0  0  0  0  0
  196.1170  174.3960  139.3760 N   0  0  0  0  0  0  0  0  0  0  0  0
  193.8420  175.1210  138.9550 O   0  0  0  0  0  0  0  0  0  0  0  0
  194.1760  175.1180  137.5950 C   0  0  0  0  0  2  0  0  0  0  0  0
  192.9310  175.3680  136.7690 C   0  0  0  0  0  1  0  0  0  0  0  0
  192.1680  176.8500  143.5590 C   0  0  0  0  0  2  0  0  0  0  0  0
  190.7240  176.3800  143.6500 C   0  0  1  0  0  3  0  0  0  0  0  0
  189.8990  177.4430  144.2680 C   0  0  1  0  0  3  0  0  0  0  0  0
  189.9050  177.2250  142.8770 O   0  0  0  0  0  0  0  0  0  0  0  0
  188.6260  176.8470  144.8660 C   0  0  2  0  0  3  0  0  0  0  0  0
  187.1250  178.1880  143.3260 C   0  0  0  0  0  3  0  0  0  0  0  0
  185.2640  179.4560  144.2130 C   0  0  0  0  0  3  0  0  0  0  0  0
  185.5930  179.0380  145.5080 C   0  0  0  0  0  3  0  0  0  0  0  0
  186.6900  178.1970  145.7120 C   0  0  0  0  0  3  0  0  0  0  0  0
  186.0300  179.0310  143.1230 C   0  0  0  0  0  3  0  0  0  0  0  0
  187.4620  177.7670  144.6240 C   0  0  0  0  0  0  0  0  0  0  0  0
  189.7550  177.4030  146.9180 O   0  0  0  0  0  1  0  0  0  0  0  0
  188.8080  176.5420  146.3610 C   0  0  2  0  0  3  0  0  0  0  0  0
  188.5960  174.5470  147.6620 O   0  0  0  0  0  1  0  0  0  0  0  0
  189.2620  175.1040  146.5690 C   0  0  0  0  0  2  0  0  0  0  0  0
  192.2140  172.6870  141.0510 O   0  0  0  0  0  0  0  0  0  0  0  0
  190.4860  171.3620  140.0420 C   0  0  0  0  0  2  0  0  0  0  0  0
  191.1710  172.4970  140.1250 C   0  0  0  0  0  0  0  0  0  0  0  0
  190.8200  173.5450  139.2720 O   0  0  0  0  0  0  0  0  0  0  0  0
  189.8330  173.3980  138.2570 C   0  0  0  0  0  2  0  0  0  0  0  0
  188.5990  174.1650  138.6100 C   0  0  0  0  0  0  0  0  0  0  0  0
  188.2060  174.1920  139.7670 O   0  0  0  0  0  0  0  0  0  0  0  0
  187.8280  174.8730  137.5510 C   0  0  0  0  0  1  0  0  0  0  0  0
  196.7640  173.0920  139.4070 C   0  0  0  0  0  2  0  0  0  0  0  0
  195.7890  172.0340  138.9150 C   0  0  0  0  0  2  0  0  0  0  0  0
  196.1160  170.6820  139.5290 C   0  0  0  0  0  2  0  0  0  0  0  0
  194.9000  170.0050  139.9720 N   0  0  0  0  0  0  0  0  0  0  0  0
  196.1280  170.6640  142.0270 C   0  0  0  0  0  2  0  0  0  0  0  0
  193.7210  170.1670  142.1710 C   0  0  2  0  0  3  0  0  0  0  0  0
  195.0120  169.7910  141.4220 C   0  0  1  0  0  3  0  0  0  0  0  0
  193.3980  171.4990  144.2590 C   0  0  0  0  0  3  0  0  0  0  0  0
  195.9420  172.2240  145.5900 C   0  0  0  0  0  1  0  0  0  0  0  0
  197.5790  172.2820  143.8840 O   0  0  0  0  0  0  0  0  0  0  0  0
  196.4180  171.9220  144.2090 C   0  0  0  0  0  0  0  0  0  0  0  0
  194.1950  170.9750  143.3240 C   0  0  0  0  0  0  0  0  0  0  0  0
  195.5970  171.2140  143.2610 N   0  0  0  0  0  0  0  0  0  0  0  0
  193.1030  169.0010  142.6270 O   0  0  0  0  0  1  0  0  0  0  0  0
  191.9170  171.3130  144.2600 C   0  0  0  0  0  2  0  0  0  0  0  0
  191.2310  172.6190  144.6210 C   0  0  0  0  0  2  0  0  0  0  0  0
  190.0350  172.7320  143.9090 O   0  0  0  0  0  1  0  0  0  0  0  0
  193.9010  168.6810  138.3270 O   0  0  0  0  0  1  0  0  0  0  0  0
  194.9020  168.7040  139.3040 C   0  0  0  0  0  2  0  0  0  0  0  0
  1  6  1  0  0  0  0
  1 15  1  1  0  0  0
  2 12  1  1  0  0  0
  2 10  1  0  0  0  0
  4  5  1  0  0  0  0
  5  6  1  0  0  0  0
  6  3  2  0  0  0  0
  7  1  1  0  0  0  0
  8  4  1  0  0  0  0
  9  7  2  0  0  0  0
 10  9  1  6  0  0  0
 10  5  1  0  0  0  0
 11 38  1  0  0  0  0
 11  2  1  0  0  0  0
 11  8  1  0  0  0  0
 13 12  1  0  0  0  0
 14 13  1  0  0  0  0
 16 15  1  6  0  0  0
 16 17  1  0  0  0  0
 17 19  1  1  0  0  0
 18 16  1  0  0  0  0
 18 17  1  0  0  0  0
 19 27  1  1  0  0  0
 20 25  1  0  0  0  0
 21 22  2  0  0  0  0
 22 23  1  0  0  0  0
 24 20  2  0  0  0  0
 24 21  1  0  0  0  0
 25 19  1  0  0  0  0
 25 23  2  0  0  0  0
 27 29  1  0  0  0  0
 27 26  1  6  0  0  0
 29 28  1  0  0  0  0
 30  9  1  0  0  0  0
 31 32  2  0  0  0  0
 32 30  1  0  0  0  0
 33 32  1  0  0  0  0
 34 35  1  0  0  0  0
 34 33  1  0  0  0  0
 35 36  2  0  0  0  0
 37 35  1  0  0  0  0
 39 38  1  0  0  0  0
 39 40  1  0  0  0  0
 40 41  1  0  0  0  0
 42 50  1  0  0  0  0
 43 51  1  1  0  0  0
 43 49  1  0  0  0  0
 44 41  1  6  0  0  0
 44 42  1  0  0  0  0
 44 43  1  0  0  0  0
 45 52  1  0  0  0  0
 47 48  2  0  0  0  0
 48 46  1  0  0  0  0
 49 45  2  0  0  0  0
 50 49  1  0  0  0  0
 50 48  1  0  0  0  0
 52 53  1  0  0  0  0
 54 53  1  0  0  0  0
 55 56  1  0  0  0  0
 56 41  1  0  0  0  0
M  END
>  <MODEL>
9

>  <REMARK>
 VINA RESULT:      -5.3      1.839      4.070
  Name = 
  21 active torsions:
  status: ('A' for Active; 'I' for Inactive)
    1  A    between atoms: C_1  and  C_14
    2  A    between atoms: C_1  and  C_35
    3  A    between atoms: C_3  and  O_43
    4  A    between atoms: C_4  and  C_36
    5  A    between atoms: C_5  and  O_43
    6  A    between atoms: O_7  and  C_25
    7  A    between atoms: O_7  and  C_47
    8  A    between atoms: C_11  and  C_30
    9  A    between atoms: C_11  and  C_34
   10  A    between atoms: C_11  and  C_55
   11  A    between atoms: C_12  and  N_42
   12  A    between atoms: C_14  and  N_51
   13  A    between atoms: C_17  and  C_36
   14  A    between atoms: C_18  and  C_21
   15  A    between atoms: C_21  and  O_22
   16  A    between atoms: O_22  and  C_25
   17  A    between atoms: C_23  and  C_53
   18  A    between atoms: C_27  and  N_42
   19  A    between atoms: C_34  and  C_44
   20  A    between atoms: C_35  and  N_42
   21  A    between atoms: C_37  and  C_53
                            x       y       z     vdW  Elec       q    Type
                         _______ _______ _______ _____ _____    ______ ____

>  <TORSDO>
F 21

$$$$
