=
 OpenBabel11042419323D

 32 36  0  0  1  0  0  0  0  0999 V2000
  185.9630  178.2320  144.9240 C   0  0  0  0  0  0  0  0  0  0  0  0
  189.2450  177.4500  145.8240 C   0  0  0  0  0  2  0  0  0  0  0  0
  186.6160  177.4250  142.1480 C   0  0  0  0  0  0  0  0  0  0  0  0
  187.8960  176.9100  145.6590 N   0  0  0  0  0  0  0  0  0  0  0  0
  184.9470  178.8330  143.6990 S   0  0  0  0  0  0  0  0  0  0  0  0
  190.7960  176.6130  143.8750 C   0  0  1  0  0  3  0  0  0  0  0  0
  192.8790  173.3650  143.7520 C   0  0  0  0  0  1  0  0  0  0  0  0
  185.4700  178.2650  142.2210 C   0  0  0  0  0  0  0  0  0  0  0  0
  192.1240  174.5070  144.3970 C   0  0  1  0  0  3  0  0  0  0  0  0
  187.0510  177.3740  144.5950 C   0  0  0  0  0  0  0  0  0  0  0  0
  190.2060  175.0480  145.9360 C   0  0  2  0  0  3  0  0  0  0  0  0
  191.6630  175.4750  143.3200 C   0  0  0  0  0  2  0  0  0  0  0  0
  187.3550  175.9980  146.6560 C   0  0  0  0  0  1  0  0  0  0  0  0
  185.8000  177.9170  140.1360 N   0  0  0  0  0  0  0  0  0  0  0  0
  185.0070  178.5450  140.9990 N   0  0  0  0  0  0  0  0  0  0  0  0
  189.7500  176.9850  142.9200 N   0  0  0  0  0  2  0  0  0  0  0  0
  187.3560  176.9590  143.2580 C   0  0  0  0  0  0  0  0  0  0  0  0
  188.5130  175.0930  141.9450 C   0  0  0  0  0  1  0  0  0  0  0  0
  190.8950  173.9650  145.1020 C   0  0  0  0  0  2  0  0  0  0  0  0
  186.7800  177.2380  140.7870 C   0  0  0  0  0  3  0  0  0  0  0  0
  188.5900  176.1160  143.0680 C   0  0  1  0  0  3  0  0  0  0  0  0
  190.3360  176.4710  145.3570 C   0  0  2  0  0  3  0  0  0  0  0  0
  184.9250  178.6730  147.5180 C   0  0  0  0  0  2  0  0  0  0  0  0
  185.7370  178.6600  146.2660 N   0  0  0  0  0  0  0  0  0  0  0  0
  186.0750  179.4310  147.4990 C   0  0  0  0  0  2  0  0  0  0  0  0
  190.7460  175.0360  147.3620 C   0  0  0  0  0  2  0  0  0  0  0  0
  191.7990  176.0270  147.5310 N   0  0  0  0  0  0  0  0  0  0  0  0
  191.4260  177.9950  149.1330 N   0  0  0  0  0  0  0  0  0  0  0  0
  191.5940  177.1070  148.4110 C   0  0  0  0  0  0  0  0  0  0  0  0
  193.0640  175.7980  146.8290 C   0  0  0  0  0  2  0  0  0  0  0  0
  194.5550  177.0830  145.3900 N   0  0  0  0  0  1  0  0  0  0  0  0
  193.9310  177.0470  146.7020 C   0  0  0  0  0  2  0  0  0  0  0  0
  1 24  1  0  0  0  0
  3  8  1  0  0  0  0
  3 17  2  0  0  0  0
  4  2  1  0  0  0  0
  4 13  1  0  0  0  0
  5  1  1  0  0  0  0
  6 12  1  6  0  0  0
  6 22  1  0  0  0  0
  8  5  1  0  0  0  0
  9  7  1  6  0  0  0
  9 19  1  0  0  0  0
 10  1  2  0  0  0  0
 10  4  1  0  0  0  0
 11 26  1  1  0  0  0
 12  9  1  0  0  0  0
 14 20  2  0  0  0  0
 14 15  1  0  0  0  0
 15  8  2  0  0  0  0
 16 21  1  0  0  0  0
 16  6  1  0  0  0  0
 17 10  1  0  0  0  0
 19 11  1  0  0  0  0
 20  3  1  0  0  0  0
 21 18  1  6  0  0  0
 21 17  1  0  0  0  0
 22  2  1  6  0  0  0
 22 11  1  0  0  0  0
 24 25  1  0  0  0  0
 24 23  1  0  0  0  0
 25 23  1  0  0  0  0
 26 27  1  0  0  0  0
 27 29  1  0  0  0  0
 29 28  3  0  0  0  0
 30 27  1  0  0  0  0
 31 32  1  0  0  0  0
 32 30  1  0  0  0  0
M  END
>  <MODEL>
1

>  <REMARK>
 VINA RESULT:      -7.3      0.000      0.000
  Name = 
  6 active torsions:
  status: ('A' for Active; 'I' for Inactive)
    1  A    between atoms: C_1  and  N_20
    2  A    between atoms: C_13  and  C_24
    3  A    between atoms: C_17  and  C_30
    4  A    between atoms: C_24  and  N_27
    5  A    between atoms: N_27  and  C_30
    6  A    between atoms: N_27  and  C_31
                            x       y       z     vdW  Elec       q    Type
                         _______ _______ _______ _____ _____    ______ ____

>  <TORSDO>
F 6

$$$$
=
 OpenBabel11042419323D

 32 36  0  0  1  0  0  0  0  0999 V2000
  186.1950  177.8270  143.0650 C   0  0  0  0  0  0  0  0  0  0  0  0
  188.9890  175.7300  143.0590 C   0  0  0  0  0  2  0  0  0  0  0  0
  186.3420  177.8820  146.0240 C   0  0  0  0  0  0  0  0  0  0  0  0
  188.5480  177.1250  143.0590 N   0  0  0  0  0  0  0  0  0  0  0  0
  184.7750  178.2730  143.8870 S   0  0  0  0  0  0  0  0  0  0  0  0
  189.9380  175.0840  145.4230 C   0  0  1  0  0  3  0  0  0  0  0  0
  193.5590  175.4870  146.6980 C   0  0  0  0  0  1  0  0  0  0  0  0
  185.0600  178.2520  145.5310 C   0  0  0  0  0  0  0  0  0  0  0  0
  192.4550  175.3500  145.6720 C   0  0  1  0  0  3  0  0  0  0  0  0
  187.3790  177.5200  143.7950 C   0  0  0  0  0  0  0  0  0  0  0  0
  191.3870  176.4760  143.6880 C   0  0  2  0  0  3  0  0  0  0  0  0
  191.1320  175.1300  146.3860 C   0  0  0  0  0  2  0  0  0  0  0  0
  189.2150  178.0940  142.2030 C   0  0  0  0  0  1  0  0  0  0  0  0
  184.8820  178.2580  147.6620 N   0  0  0  0  0  0  0  0  0  0  0  0
  184.2060  178.4660  146.5360 N   0  0  0  0  0  0  0  0  0  0  0  0
  188.7530  175.6920  146.0330 N   0  0  0  0  0  2  0  0  0  0  0  0
  187.4640  177.5700  145.2240 C   0  0  0  0  0  0  0  0  0  0  0  0
  189.1440  177.8600  147.1310 C   0  0  0  0  0  1  0  0  0  0  0  0
  192.3510  176.6320  144.8680 C   0  0  0  0  0  2  0  0  0  0  0  0
  186.1650  177.9010  147.3960 C   0  0  0  0  0  3  0  0  0  0  0  0
  188.7650  177.1360  145.8480 C   0  0  1  0  0  3  0  0  0  0  0  0
  190.2230  175.4990  143.9490 C   0  0  2  0  0  3  0  0  0  0  0  0
  185.5300  178.0160  140.3220 C   0  0  0  0  0  2  0  0  0  0  0  0
  186.1490  177.7070  141.6440 N   0  0  0  0  0  0  0  0  0  0  0  0
  186.6310  177.1880  140.3290 C   0  0  0  0  0  2  0  0  0  0  0  0
  192.1480  176.0300  142.4450 C   0  0  0  0  0  2  0  0  0  0  0  0
  192.7340  174.7100  142.6350 N   0  0  0  0  0  0  0  0  0  0  0  0
  191.2600  172.6290  142.3620 N   0  0  0  0  0  0  0  0  0  0  0  0
  191.9250  173.5680  142.4850 C   0  0  0  0  0  0  0  0  0  0  0  0
  194.1740  174.6410  142.8950 C   0  0  0  0  0  2  0  0  0  0  0  0
  195.7560  176.3740  143.5560 N   0  0  0  0  0  1  0  0  0  0  0  0
  194.9370  175.8880  142.4590 C   0  0  0  0  0  2  0  0  0  0  0  0
  1 10  2  0  0  0  0
  1  5  1  0  0  0  0
  2  4  1  0  0  0  0
  3 20  1  0  0  0  0
  4 10  1  0  0  0  0
  5  8  1  0  0  0  0
  6 16  1  0  0  0  0
  6 12  1  1  0  0  0
  8  3  1  0  0  0  0
  8 15  2  0  0  0  0
  9 12  1  0  0  0  0
  9  7  1  1  0  0  0
 10 17  1  0  0  0  0
 11 26  1  6  0  0  0
 11 22  1  0  0  0  0
 11 19  1  0  0  0  0
 13  4  1  0  0  0  0
 15 14  1  0  0  0  0
 17 21  1  0  0  0  0
 17  3  2  0  0  0  0
 19  9  1  0  0  0  0
 20 14  2  0  0  0  0
 21 16  1  0  0  0  0
 21 18  1  1  0  0  0
 22  2  1  1  0  0  0
 22  6  1  0  0  0  0
 23 25  1  0  0  0  0
 23 24  1  0  0  0  0
 24  1  1  0  0  0  0
 25 24  1  0  0  0  0
 26 27  1  0  0  0  0
 27 30  1  0  0  0  0
 28 29  3  0  0  0  0
 29 27  1  0  0  0  0
 32 30  1  0  0  0  0
 32 31  1  0  0  0  0
M  END
>  <MODEL>
2

>  <REMARK>
 VINA RESULT:      -7.2      1.758      4.590
  Name = 
  6 active torsions:
  status: ('A' for Active; 'I' for Inactive)
    1  A    between atoms: C_1  and  N_20
    2  A    between atoms: C_13  and  C_24
    3  A    between atoms: C_17  and  C_30
    4  A    between atoms: C_24  and  N_27
    5  A    between atoms: N_27  and  C_30
    6  A    between atoms: N_27  and  C_31
                            x       y       z     vdW  Elec       q    Type
                         _______ _______ _______ _____ _____    ______ ____

>  <TORSDO>
F 6

$$$$
=
 OpenBabel11042419323D

 32 36  0  0  1  0  0  0  0  0999 V2000
  186.0660  177.9380  143.0300 C   0  0  0  0  0  0  0  0  0  0  0  0
  188.7140  175.6620  142.9830 C   0  0  0  0  0  2  0  0  0  0  0  0
  186.2340  177.9520  145.9890 C   0  0  0  0  0  0  0  0  0  0  0  0
  188.3670  177.0820  143.0010 N   0  0  0  0  0  0  0  0  0  0  0  0
  184.6830  178.4680  143.8670 S   0  0  0  0  0  0  0  0  0  0  0  0
  189.6330  174.9290  145.3330 C   0  0  1  0  0  3  0  0  0  0  0  0
  193.2820  175.0780  146.5860 C   0  0  0  0  0  1  0  0  0  0  0  0
  184.9770  178.4110  145.5080 C   0  0  0  0  0  0  0  0  0  0  0  0
  192.1640  175.0250  145.5670 C   0  0  1  0  0  3  0  0  0  0  0  0
  187.2310  177.5460  143.7480 C   0  0  0  0  0  0  0  0  0  0  0  0
  191.1610  176.2400  143.6030 C   0  0  2  0  0  3  0  0  0  0  0  0
  190.8340  174.8850  146.2880 C   0  0  0  0  0  2  0  0  0  0  0  0
  189.0910  178.0150  142.1490 C   0  0  0  0  0  1  0  0  0  0  0  0
  184.8130  178.4050  147.6410 N   0  0  0  0  0  0  0  0  0  0  0  0
  184.1460  178.6700  146.5220 N   0  0  0  0  0  0  0  0  0  0  0  0
  188.4950  175.6070  145.9580 N   0  0  0  0  0  2  0  0  0  0  0  0
  187.3280  177.5750  145.1770 C   0  0  0  0  0  0  0  0  0  0  0  0
  189.0360  177.7330  147.0760 C   0  0  0  0  0  1  0  0  0  0  0  0
  192.1400  176.3200  144.7770 C   0  0  0  0  0  2  0  0  0  0  0  0
  186.0680  177.9680  147.3620 C   0  0  0  0  0  3  0  0  0  0  0  0
  188.6020  177.0490  145.7880 C   0  0  1  0  0  3  0  0  0  0  0  0
  189.9360  175.3400  143.8610 C   0  0  2  0  0  3  0  0  0  0  0  0
  185.3860  178.1870  140.2950 C   0  0  0  0  0  2  0  0  0  0  0  0
  186.0030  177.8360  141.6090 N   0  0  0  0  0  0  0  0  0  0  0  0
  186.4500  177.3120  140.2840 C   0  0  0  0  0  2  0  0  0  0  0  0
  191.8820  175.7580  142.3490 C   0  0  0  0  0  2  0  0  0  0  0  0
  191.6580  174.3370  142.1300 N   0  0  0  0  0  0  0  0  0  0  0  0
  190.0420  173.5890  140.2850 N   0  0  0  0  0  0  0  0  0  0  0  0
  190.7710  173.9260  141.1170 C   0  0  0  0  0  0  0  0  0  0  0  0
  192.4420  173.3960  142.9350 C   0  0  0  0  0  2  0  0  0  0  0  0
  191.2040  171.7650  144.2580 N   0  0  0  0  0  1  0  0  0  0  0  0
  191.8560  171.9880  142.9790 C   0  0  0  0  0  2  0  0  0  0  0  0
  1 10  2  0  0  0  0
  1  5  1  0  0  0  0
  2  4  1  0  0  0  0
  3 20  1  0  0  0  0
  4 10  1  0  0  0  0
  5  8  1  0  0  0  0
  6 16  1  0  0  0  0
  6 12  1  1  0  0  0
  8  3  1  0  0  0  0
  8 15  2  0  0  0  0
  9 12  1  0  0  0  0
  9  7  1  1  0  0  0
 10 17  1  0  0  0  0
 11 26  1  6  0  0  0
 11 22  1  0  0  0  0
 11 19  1  0  0  0  0
 13  4  1  0  0  0  0
 15 14  1  0  0  0  0
 17 21  1  0  0  0  0
 17  3  2  0  0  0  0
 19  9  1  0  0  0  0
 20 14  2  0  0  0  0
 21 16  1  0  0  0  0
 21 18  1  1  0  0  0
 22  2  1  1  0  0  0
 22  6  1  0  0  0  0
 23 24  1  0  0  0  0
 24  1  1  0  0  0  0
 25 23  1  0  0  0  0
 25 24  1  0  0  0  0
 27 26  1  0  0  0  0
 27 30  1  0  0  0  0
 28 29  3  0  0  0  0
 29 27  1  0  0  0  0
 30 32  1  0  0  0  0
 32 31  1  0  0  0  0
M  END
>  <MODEL>
3

>  <REMARK>
 VINA RESULT:      -7.1      1.892      4.927
  Name = 
  6 active torsions:
  status: ('A' for Active; 'I' for Inactive)
    1  A    between atoms: C_1  and  N_20
    2  A    between atoms: C_13  and  C_24
    3  A    between atoms: C_17  and  C_30
    4  A    between atoms: C_24  and  N_27
    5  A    between atoms: N_27  and  C_30
    6  A    between atoms: N_27  and  C_31
                            x       y       z     vdW  Elec       q    Type
                         _______ _______ _______ _____ _____    ______ ____

>  <TORSDO>
F 6

$$$$
=
 OpenBabel11042419323D

 32 36  0  0  1  0  0  0  0  0999 V2000
  188.1910  174.6550  139.9950 C   0  0  0  0  0  0  0  0  0  0  0  0
  189.3940  176.6720  142.5800 C   0  0  0  0  0  2  0  0  0  0  0  0
  189.8980  172.4600  141.0200 C   0  0  0  0  0  0  0  0  0  0  0  0
  188.3690  175.6960  142.2110 N   0  0  0  0  0  0  0  0  0  0  0  0
  188.5570  173.4040  138.9010 S   0  0  0  0  0  0  0  0  0  0  0  0
  191.1690  175.5580  144.1660 C   0  0  1  0  0  3  0  0  0  0  0  0
  191.0470  175.2910  148.0160 C   0  0  0  0  0  1  0  0  0  0  0  0
  189.5130  172.2690  139.6630 C   0  0  0  0  0  0  0  0  0  0  0  0
  190.7140  175.8550  146.6510 C   0  0  1  0  0  3  0  0  0  0  0  0
  188.6830  174.6060  141.3300 C   0  0  0  0  0  0  0  0  0  0  0  0
  188.8090  176.3580  145.0820 C   0  0  2  0  0  3  0  0  0  0  0  0
  191.5220  175.1210  145.5950 C   0  0  0  0  0  2  0  0  0  0  0  0
  186.9900  175.9040  142.6270 C   0  0  0  0  0  1  0  0  0  0  0  0
  190.8140  170.6360  140.1300 N   0  0  0  0  0  0  0  0  0  0  0  0
  190.0820  171.1710  139.1570 N   0  0  0  0  0  0  0  0  0  0  0  0
  191.2440  174.4260  143.2410 N   0  0  0  0  0  2  0  0  0  0  0  0
  189.4870  173.5350  141.8390 C   0  0  0  0  0  0  0  0  0  0  0  0
  190.1380  172.3690  144.0220 C   0  0  0  0  0  1  0  0  0  0  0  0
  189.2410  175.6320  146.3600 C   0  0  0  0  0  2  0  0  0  0  0  0
  190.7330  171.3840  141.2610 C   0  0  0  0  0  3  0  0  0  0  0  0
  189.9970  173.6730  143.2510 C   0  0  1  0  0  3  0  0  0  0  0  0
  189.9150  176.4700  144.0130 C   0  0  2  0  0  3  0  0  0  0  0  0
  186.6900  176.4880  138.4490 C   0  0  0  0  0  2  0  0  0  0  0  0
  187.4420  175.7730  139.5220 N   0  0  0  0  0  0  0  0  0  0  0  0
  186.8140  177.1200  139.6670 C   0  0  0  0  0  2  0  0  0  0  0  0
  188.2950  177.7530  145.4200 C   0  0  0  0  0  2  0  0  0  0  0  0
  186.8460  177.8220  145.2900 N   0  0  0  0  0  0  0  0  0  0  0  0
  185.8130  179.4130  143.5650 N   0  0  0  0  0  0  0  0  0  0  0  0
  186.2790  178.6950  144.3430 C   0  0  0  0  0  0  0  0  0  0  0  0
  186.0490  176.9040  146.1080 C   0  0  0  0  0  2  0  0  0  0  0  0
  184.8530  178.4050  147.6110 N   0  0  0  0  0  1  0  0  0  0  0  0
  184.6900  177.4660  146.5150 C   0  0  0  0  0  2  0  0  0  0  0  0
  1 10  2  0  0  0  0
  3 20  1  0  0  0  0
  3 17  2  0  0  0  0
  4  2  1  0  0  0  0
  4 13  1  0  0  0  0
  5  8  1  0  0  0  0
  5  1  1  0  0  0  0
  6 12  1  1  0  0  0
  8  3  1  0  0  0  0
  9  7  1  1  0  0  0
 10 17  1  0  0  0  0
 10  4  1  0  0  0  0
 11 26  1  1  0  0  0
 11 19  1  0  0  0  0
 12  9  1  0  0  0  0
 14 20  2  0  0  0  0
 15  8  2  0  0  0  0
 15 14  1  0  0  0  0
 16 21  1  0  0  0  0
 16  6  1  0  0  0  0
 17 21  1  0  0  0  0
 19  9  1  0  0  0  0
 21 18  1  6  0  0  0
 22  2  1  6  0  0  0
 22  6  1  0  0  0  0
 22 11  1  0  0  0  0
 23 24  1  0  0  0  0
 23 25  1  0  0  0  0
 24 25  1  0  0  0  0
 24  1  1  0  0  0  0
 27 26  1  0  0  0  0
 27 30  1  0  0  0  0
 28 29  3  0  0  0  0
 29 27  1  0  0  0  0
 30 32  1  0  0  0  0
 32 31  1  0  0  0  0
M  END
>  <MODEL>
4

>  <REMARK>
 VINA RESULT:      -7.0      2.945      6.108
  Name = 
  6 active torsions:
  status: ('A' for Active; 'I' for Inactive)
    1  A    between atoms: C_1  and  N_20
    2  A    between atoms: C_13  and  C_24
    3  A    between atoms: C_17  and  C_30
    4  A    between atoms: C_24  and  N_27
    5  A    between atoms: N_27  and  C_30
    6  A    between atoms: N_27  and  C_31
                            x       y       z     vdW  Elec       q    Type
                         _______ _______ _______ _____ _____    ______ ____

>  <TORSDO>
F 6

$$$$
=
 OpenBabel11042419323D

 32 36  0  0  1  0  0  0  0  0999 V2000
  186.0960  177.9460  143.0350 C   0  0  0  0  0  0  0  0  0  0  0  0
  188.8110  175.7500  142.9940 C   0  0  0  0  0  2  0  0  0  0  0  0
  186.2400  177.9450  145.9950 C   0  0  0  0  0  0  0  0  0  0  0  0
  188.4210  177.1590  143.0190 N   0  0  0  0  0  0  0  0  0  0  0  0
  184.6910  178.4290  143.8630 S   0  0  0  0  0  0  0  0  0  0  0  0
  189.7330  175.0290  145.3480 C   0  0  1  0  0  3  0  0  0  0  0  0
  193.3650  175.2770  146.6320 C   0  0  0  0  0  1  0  0  0  0  0  0
  184.9730  178.3690  145.5070 C   0  0  0  0  0  0  0  0  0  0  0  0
  192.2580  175.1980  145.6030 C   0  0  1  0  0  3  0  0  0  0  0  0
  187.2670  177.5830  143.7600 C   0  0  0  0  0  0  0  0  0  0  0  0
  191.2340  176.3960  143.6380 C   0  0  2  0  0  3  0  0  0  0  0  0
  190.9270  175.0140  146.3120 C   0  0  0  0  0  2  0  0  0  0  0  0
  189.1240  178.1180  142.1790 C   0  0  0  0  0  1  0  0  0  0  0  0
  184.7920  178.3450  147.6380 N   0  0  0  0  0  0  0  0  0  0  0  0
  184.1270  178.5970  146.5150 N   0  0  0  0  0  0  0  0  0  0  0  0
  188.5700  175.6680  145.9680 N   0  0  0  0  0  2  0  0  0  0  0  0
  187.3510  177.6060  145.1900 C   0  0  0  0  0  0  0  0  0  0  0  0
  189.0380  177.8020  147.1030 C   0  0  0  0  0  1  0  0  0  0  0  0
  192.2020  176.4970  144.8210 C   0  0  0  0  0  2  0  0  0  0  0  0
  186.0620  177.9470  147.3670 C   0  0  0  0  0  3  0  0  0  0  0  0
  188.6350  177.1140  145.8070 C   0  0  1  0  0  3  0  0  0  0  0  0
  190.0340  175.4590  143.8810 C   0  0  2  0  0  3  0  0  0  0  0  0
  185.3320  178.0100  140.3120 C   0  0  0  0  0  2  0  0  0  0  0  0
  186.0470  177.8520  141.6120 N   0  0  0  0  0  0  0  0  0  0  0  0
  186.6180  177.5180  140.2730 C   0  0  0  0  0  2  0  0  0  0  0  0
  191.9800  175.9440  142.3880 C   0  0  0  0  0  2  0  0  0  0  0  0
  192.5550  174.6190  142.5720 N   0  0  0  0  0  0  0  0  0  0  0  0
  195.0240  174.4000  143.2260 N   0  0  0  0  0  0  0  0  0  0  0  0
  193.9100  174.4990  142.9310 C   0  0  0  0  0  0  0  0  0  0  0  0
  191.6550  173.4690  142.4510 C   0  0  0  0  0  2  0  0  0  0  0  0
  191.1510  171.9190  144.2640 N   0  0  0  0  0  1  0  0  0  0  0  0
  192.1190  172.2420  143.2300 C   0  0  0  0  0  2  0  0  0  0  0  0
  1 10  2  0  0  0  0
  1  5  1  0  0  0  0
  2  4  1  0  0  0  0
  3 20  1  0  0  0  0
  4 10  1  0  0  0  0
  5  8  1  0  0  0  0
  6 16  1  0  0  0  0
  6 12  1  1  0  0  0
  8  3  1  0  0  0  0
  8 15  2  0  0  0  0
  9 12  1  0  0  0  0
  9  7  1  1  0  0  0
 10 17  1  0  0  0  0
 11 26  1  6  0  0  0
 11 22  1  0  0  0  0
 11 19  1  0  0  0  0
 13  4  1  0  0  0  0
 15 14  1  0  0  0  0
 17 21  1  0  0  0  0
 17  3  2  0  0  0  0
 19  9  1  0  0  0  0
 20 14  2  0  0  0  0
 21 16  1  0  0  0  0
 21 18  1  1  0  0  0
 22  2  1  1  0  0  0
 22  6  1  0  0  0  0
 23 24  1  0  0  0  0
 24  1  1  0  0  0  0
 25 23  1  0  0  0  0
 25 24  1  0  0  0  0
 26 27  1  0  0  0  0
 27 29  1  0  0  0  0
 29 28  3  0  0  0  0
 30 27  1  0  0  0  0
 30 32  1  0  0  0  0
 32 31  1  0  0  0  0
M  END
>  <MODEL>
5

>  <REMARK>
 VINA RESULT:      -6.9      1.778      4.715
  Name = 
  6 active torsions:
  status: ('A' for Active; 'I' for Inactive)
    1  A    between atoms: C_1  and  N_20
    2  A    between atoms: C_13  and  C_24
    3  A    between atoms: C_17  and  C_30
    4  A    between atoms: C_24  and  N_27
    5  A    between atoms: N_27  and  C_30
    6  A    between atoms: N_27  and  C_31
                            x       y       z     vdW  Elec       q    Type
                         _______ _______ _______ _____ _____    ______ ____

>  <TORSDO>
F 6

$$$$
=
 OpenBabel11042419323D

 32 36  0  0  1  0  0  0  0  0999 V2000
  186.3210  177.8450  145.3600 C   0  0  0  0  0  0  0  0  0  0  0  0
  189.7950  177.5410  145.5640 C   0  0  0  0  0  2  0  0  0  0  0  0
  186.5330  177.4050  142.4370 C   0  0  0  0  0  0  0  0  0  0  0  0
  188.5330  176.8020  145.5790 N   0  0  0  0  0  0  0  0  0  0  0  0
  185.0100  178.3750  144.4160 S   0  0  0  0  0  0  0  0  0  0  0  0
  191.0420  177.1470  143.2850 C   0  0  1  0  0  3  0  0  0  0  0  0
  193.5130  174.3120  142.4110 C   0  0  0  0  0  1  0  0  0  0  0  0
  185.3130  178.0340  142.8110 C   0  0  0  0  0  0  0  0  0  0  0  0
  192.7390  175.2520  143.3100 C   0  0  1  0  0  3  0  0  0  0  0  0
  187.4380  177.2110  144.7440 C   0  0  0  0  0  0  0  0  0  0  0  0
  191.0990  175.3310  145.2200 C   0  0  2  0  0  3  0  0  0  0  0  0
  191.9410  176.2210  142.4540 C   0  0  0  0  0  2  0  0  0  0  0  0
  188.3350  175.7290  146.5420 C   0  0  0  0  0  1  0  0  0  0  0  0
  185.2780  177.9300  140.6750 N   0  0  0  0  0  0  0  0  0  0  0  0
  184.5860  178.3400  141.7330 N   0  0  0  0  0  0  0  0  0  0  0  0
  189.7870  177.4230  142.5820 N   0  0  0  0  0  2  0  0  0  0  0  0
  187.5350  176.9720  143.3360 C   0  0  0  0  0  0  0  0  0  0  0  0
  188.6740  175.4460  141.6270 C   0  0  0  0  0  1  0  0  0  0  0  0
  191.7630  174.4540  144.1550 C   0  0  0  0  0  2  0  0  0  0  0  0
  186.4550  177.3680  141.0570 C   0  0  0  0  0  3  0  0  0  0  0  0
  188.8180  176.3640  142.8310 C   0  0  1  0  0  3  0  0  0  0  0  0
  190.9050  176.8010  144.7970 C   0  0  2  0  0  3  0  0  0  0  0  0
  185.8220  177.8150  148.1450 C   0  0  0  0  0  2  0  0  0  0  0  0
  186.3000  178.1100  146.7620 N   0  0  0  0  0  0  0  0  0  0  0  0
  186.6920  178.8720  147.9850 C   0  0  0  0  0  2  0  0  0  0  0  0
  191.9020  175.2830  146.5150 C   0  0  0  0  0  2  0  0  0  0  0  0
  193.3330  175.2960  146.2440 N   0  0  0  0  0  0  0  0  0  0  0  0
  194.5680  177.5400  146.1190 N   0  0  0  0  0  0  0  0  0  0  0  0
  194.0110  176.5280  146.1750 C   0  0  0  0  0  0  0  0  0  0  0  0
  194.0130  174.0030  146.1380 C   0  0  0  0  0  2  0  0  0  0  0  0
  196.1050  172.8090  145.7570 N   0  0  0  0  0  1  0  0  0  0  0  0
  195.4580  174.1070  145.6590 C   0  0  0  0  0  2  0  0  0  0  0  0
  1 24  1  0  0  0  0
  2  4  1  0  0  0  0
  3  8  1  0  0  0  0
  3 17  2  0  0  0  0
  4 13  1  0  0  0  0
  5  1  1  0  0  0  0
  6 12  1  6  0  0  0
  6 22  1  0  0  0  0
  8  5  1  0  0  0  0
  9  7  1  6  0  0  0
  9 19  1  0  0  0  0
 10  1  2  0  0  0  0
 10  4  1  0  0  0  0
 11 26  1  1  0  0  0
 12  9  1  0  0  0  0
 14 20  2  0  0  0  0
 14 15  1  0  0  0  0
 15  8  2  0  0  0  0
 16 21  1  0  0  0  0
 16  6  1  0  0  0  0
 17 10  1  0  0  0  0
 19 11  1  0  0  0  0
 20  3  1  0  0  0  0
 21 18  1  6  0  0  0
 21 17  1  0  0  0  0
 22 11  1  0  0  0  0
 22  2  1  6  0  0  0
 24 25  1  0  0  0  0
 24 23  1  0  0  0  0
 25 23  1  0  0  0  0
 27 26  1  0  0  0  0
 28 29  3  0  0  0  0
 29 27  1  0  0  0  0
 30 27  1  0  0  0  0
 32 31  1  0  0  0  0
 32 30  1  0  0  0  0
M  END
>  <MODEL>
6

>  <REMARK>
 VINA RESULT:      -6.9      1.385      1.728
  Name = 
  6 active torsions:
  status: ('A' for Active; 'I' for Inactive)
    1  A    between atoms: C_1  and  N_20
    2  A    between atoms: C_13  and  C_24
    3  A    between atoms: C_17  and  C_30
    4  A    between atoms: C_24  and  N_27
    5  A    between atoms: N_27  and  C_30
    6  A    between atoms: N_27  and  C_31
                            x       y       z     vdW  Elec       q    Type
                         _______ _______ _______ _____ _____    ______ ____

>  <TORSDO>
F 6

$$$$
=
 OpenBabel11042419323D

 32 36  0  0  1  0  0  0  0  0999 V2000
  192.6080  175.4240  145.8030 C   0  0  0  0  0  0  0  0  0  0  0  0
  189.7900  173.9590  144.3510 C   0  0  0  0  0  2  0  0  0  0  0  0
  194.1960  174.4780  143.4860 C   0  0  0  0  0  0  0  0  0  0  0  0
  190.6040  175.1730  144.4070 N   0  0  0  0  0  0  0  0  0  0  0  0
  194.2910  175.3140  146.0300 S   0  0  0  0  0  0  0  0  0  0  0  0
  190.1970  172.7060  142.0780 C   0  0  1  0  0  3  0  0  0  0  0  0
  188.3540  173.2450  138.7280 C   0  0  0  0  0  1  0  0  0  0  0  0
  195.0020  174.7750  144.6200 C   0  0  0  0  0  0  0  0  0  0  0  0
  188.5500  173.2870  140.2290 C   0  0  1  0  0  3  0  0  0  0  0  0
  192.0310  175.0870  144.5450 C   0  0  0  0  0  0  0  0  0  0  0  0
  188.6150  174.8330  142.2160 C   0  0  2  0  0  3  0  0  0  0  0  0
  189.8660  172.6160  140.5820 C   0  0  0  0  0  2  0  0  0  0  0  0
  189.9580  176.4760  144.4620 C   0  0  0  0  0  1  0  0  0  0  0  0
  196.3450  174.0140  143.1390 N   0  0  0  0  0  0  0  0  0  0  0  0
  196.2840  174.4820  144.3820 N   0  0  0  0  0  0  0  0  0  0  0  0
  191.6390  172.8570  142.2850 N   0  0  0  0  0  2  0  0  0  0  0  0
  192.7950  174.6540  143.4140 C   0  0  0  0  0  0  0  0  0  0  0  0
  192.7230  174.5460  140.8590 C   0  0  0  0  0  1  0  0  0  0  0  0
  188.6180  174.7320  140.6880 C   0  0  0  0  0  2  0  0  0  0  0  0
  195.1120  173.9920  142.5710 C   0  0  0  0  0  3  0  0  0  0  0  0
  192.0270  174.2570  142.1800 C   0  0  1  0  0  3  0  0  0  0  0  0
  189.2920  173.6460  142.9300 C   0  0  2  0  0  3  0  0  0  0  0  0
  191.2800  176.8110  147.8800 C   0  0  0  0  0  2  0  0  0  0  0  0
  191.7960  175.7960  146.9150 N   0  0  0  0  0  0  0  0  0  0  0  0
  190.8350  175.5150  148.0230 C   0  0  0  0  0  2  0  0  0  0  0  0
  187.1860  174.9780  142.7290 C   0  0  0  0  0  2  0  0  0  0  0  0
  186.8270  176.3800  142.8860 N   0  0  0  0  0  0  0  0  0  0  0  0
  186.8150  177.9120  140.8300 N   0  0  0  0  0  0  0  0  0  0  0  0
  186.8200  177.2210  141.7570 C   0  0  0  0  0  0  0  0  0  0  0  0
  186.4050  176.8260  144.2160 C   0  0  0  0  0  2  0  0  0  0  0  0
  185.9450  179.1690  144.7090 N   0  0  0  0  0  1  0  0  0  0  0  0
  185.3650  177.9420  144.1900 C   0  0  0  0  0  2  0  0  0  0  0  0
  1  5  1  0  0  0  0
  1 24  1  0  0  0  0
  2  4  1  0  0  0  0
  3  8  1  0  0  0  0
  4 13  1  0  0  0  0
  4 10  1  0  0  0  0
  6 12  1  6  0  0  0
  6 16  1  0  0  0  0
  6 22  1  0  0  0  0
  8  5  1  0  0  0  0
  9  7  1  6  0  0  0
  9 12  1  0  0  0  0
  9 19  1  0  0  0  0
 10  1  2  0  0  0  0
 11 26  1  1  0  0  0
 11 22  1  0  0  0  0
 14 15  1  0  0  0  0
 15  8  2  0  0  0  0
 17  3  2  0  0  0  0
 17 10  1  0  0  0  0
 19 11  1  0  0  0  0
 20 14  2  0  0  0  0
 20  3  1  0  0  0  0
 21 18  1  6  0  0  0
 21 16  1  0  0  0  0
 21 17  1  0  0  0  0
 22  2  1  1  0  0  0
 23 25  1  0  0  0  0
 24 23  1  0  0  0  0
 24 25  1  0  0  0  0
 26 27  1  0  0  0  0
 27 30  1  0  0  0  0
 28 29  3  0  0  0  0
 29 27  1  0  0  0  0
 32 30  1  0  0  0  0
 32 31  1  0  0  0  0
M  END
>  <MODEL>
7

>  <REMARK>
 VINA RESULT:      -6.8      2.839      7.108
  Name = 
  6 active torsions:
  status: ('A' for Active; 'I' for Inactive)
    1  A    between atoms: C_1  and  N_20
    2  A    between atoms: C_13  and  C_24
    3  A    between atoms: C_17  and  C_30
    4  A    between atoms: C_24  and  N_27
    5  A    between atoms: N_27  and  C_30
    6  A    between atoms: N_27  and  C_31
                            x       y       z     vdW  Elec       q    Type
                         _______ _______ _______ _____ _____    ______ ____

>  <TORSDO>
F 6

$$$$
=
 OpenBabel11042419323D

 32 36  0  0  1  0  0  0  0  0999 V2000
  189.3120  174.3090  140.8960 C   0  0  0  0  0  0  0  0  0  0  0  0
  190.2990  173.5560  144.1600 C   0  0  0  0  0  2  0  0  0  0  0  0
  187.9230  176.7040  141.9530 C   0  0  0  0  0  0  0  0  0  0  0  0
  190.6530  174.3010  142.9530 N   0  0  0  0  0  0  0  0  0  0  0  0
  188.0930  174.9740  139.9140 S   0  0  0  0  0  0  0  0  0  0  0  0
  189.4500  175.2070  146.0200 C   0  0  1  0  0  3  0  0  0  0  0  0
  191.5650  177.0790  148.6520 C   0  0  0  0  0  1  0  0  0  0  0  0
  187.4410  176.3090  140.6740 C   0  0  0  0  0  0  0  0  0  0  0  0
  191.2410  175.9970  147.6450 C   0  0  1  0  0  3  0  0  0  0  0  0
  189.6330  174.9100  142.1470 C   0  0  0  0  0  0  0  0  0  0  0  0
  192.0390  174.9080  145.5190 C   0  0  2  0  0  3  0  0  0  0  0  0
  189.8270  176.2010  147.1270 C   0  0  0  0  0  2  0  0  0  0  0  0
  192.0320  174.3100  142.4880 C   0  0  0  0  0  1  0  0  0  0  0  0
  186.2220  177.9650  141.2640 N   0  0  0  0  0  0  0  0  0  0  0  0
  186.4200  177.0810  140.2910 N   0  0  0  0  0  0  0  0  0  0  0  0
  188.5840  175.8400  145.0230 N   0  0  0  0  0  2  0  0  0  0  0  0
  188.9830  176.0830  142.6510 C   0  0  0  0  0  0  0  0  0  0  0  0
  189.3370  178.0520  144.2460 C   0  0  0  0  0  1  0  0  0  0  0  0
  192.1940  176.0990  146.4690 C   0  0  0  0  0  2  0  0  0  0  0  0
  187.1010  177.7670  142.2810 C   0  0  0  0  0  3  0  0  0  0  0  0
  189.3800  176.5460  144.0290 C   0  0  1  0  0  3  0  0  0  0  0  0
  190.6090  174.3370  145.4490 C   0  0  2  0  0  3  0  0  0  0  0  0
  190.2100  171.6440  140.5890 C   0  0  0  0  0  2  0  0  0  0  0  0
  189.9520  173.1090  140.4660 N   0  0  0  0  0  0  0  0  0  0  0  0
  190.8740  172.3240  139.5920 C   0  0  0  0  0  2  0  0  0  0  0  0
  193.0060  173.7960  145.9100 C   0  0  0  0  0  2  0  0  0  0  0  0
  194.1410  173.7450  144.9990 N   0  0  0  0  0  0  0  0  0  0  0  0
  195.4690  175.8870  144.5250 N   0  0  0  0  0  0  0  0  0  0  0  0
  194.8700  174.9200  144.7390 C   0  0  0  0  0  0  0  0  0  0  0  0
  194.5170  172.4360  144.4600 C   0  0  0  0  0  2  0  0  0  0  0  0
  192.9370  170.9520  143.3430 N   0  0  0  0  0  1  0  0  0  0  0  0
  193.4440  171.3660  144.6400 C   0  0  0  0  0  2  0  0  0  0  0  0
  1 10  2  0  0  0  0
  3 20  1  0  0  0  0
  3 17  2  0  0  0  0
  4  2  1  0  0  0  0
  5  8  1  0  0  0  0
  5  1  1  0  0  0  0
  6 12  1  6  0  0  0
  8  3  1  0  0  0  0
  9  7  1  1  0  0  0
 10 17  1  0  0  0  0
 10  4  1  0  0  0  0
 11 26  1  1  0  0  0
 11 19  1  0  0  0  0
 12  9  1  0  0  0  0
 13  4  1  0  0  0  0
 14 20  2  0  0  0  0
 15  8  2  0  0  0  0
 15 14  1  0  0  0  0
 16  6  1  0  0  0  0
 17 21  1  0  0  0  0
 19  9  1  0  0  0  0
 21 18  1  6  0  0  0
 21 16  1  0  0  0  0
 22  2  1  6  0  0  0
 22 11  1  0  0  0  0
 22  6  1  0  0  0  0
 24 23  1  0  0  0  0
 24  1  1  0  0  0  0
 25 24  1  0  0  0  0
 25 23  1  0  0  0  0
 27 26  1  0  0  0  0
 28 29  3  0  0  0  0
 29 27  1  0  0  0  0
 30 32  1  0  0  0  0
 30 27  1  0  0  0  0
 31 32  1  0  0  0  0
M  END
>  <MODEL>
8

>  <REMARK>
 VINA RESULT:      -6.7      2.625      5.211
  Name = 
  6 active torsions:
  status: ('A' for Active; 'I' for Inactive)
    1  A    between atoms: C_1  and  N_20
    2  A    between atoms: C_13  and  C_24
    3  A    between atoms: C_17  and  C_30
    4  A    between atoms: C_24  and  N_27
    5  A    between atoms: N_27  and  C_30
    6  A    between atoms: N_27  and  C_31
                            x       y       z     vdW  Elec       q    Type
                         _______ _______ _______ _____ _____    ______ ____

>  <TORSDO>
F 6

$$$$
=
 OpenBabel11042419323D

 32 36  0  0  1  0  0  0  0  0999 V2000
  189.2780  174.2680  140.7020 C   0  0  0  0  0  0  0  0  0  0  0  0
  191.4010  173.5620  143.3840 C   0  0  0  0  0  2  0  0  0  0  0  0
  188.4950  176.7710  142.0830 C   0  0  0  0  0  0  0  0  0  0  0  0
  191.2990  174.2470  142.0960 N   0  0  0  0  0  0  0  0  0  0  0  0
  187.8050  174.9710  140.2220 S   0  0  0  0  0  0  0  0  0  0  0  0
  191.3920  175.3170  145.3400 C   0  0  1  0  0  3  0  0  0  0  0  0
  194.4250  177.1470  146.8760 C   0  0  0  0  0  1  0  0  0  0  0  0
  187.5470  176.3640  141.1030 C   0  0  0  0  0  0  0  0  0  0  0  0
  193.6970  176.0540  146.1230 C   0  0  1  0  0  3  0  0  0  0  0  0
  190.0750  174.8890  141.7060 C   0  0  0  0  0  0  0  0  0  0  0  0
  193.5810  174.8550  143.9120 C   0  0  2  0  0  3  0  0  0  0  0  0
  192.2030  176.3230  146.1690 C   0  0  0  0  0  2  0  0  0  0  0  0
  192.3960  174.1630  141.1440 C   0  0  0  0  0  1  0  0  0  0  0  0
  186.7130  178.1040  142.0260 N   0  0  0  0  0  0  0  0  0  0  0  0
  186.4890  177.1810  141.0970 N   0  0  0  0  0  0  0  0  0  0  0  0
  190.2390  175.9680  144.7140 N   0  0  0  0  0  2  0  0  0  0  0  0
  189.7140  176.1120  142.3590 C   0  0  0  0  0  0  0  0  0  0  0  0
  190.7300  178.1060  143.5980 C   0  0  0  0  0  1  0  0  0  0  0  0
  194.1350  176.0640  144.6710 C   0  0  0  0  0  2  0  0  0  0  0  0
  187.9040  177.8890  142.6420 C   0  0  0  0  0  3  0  0  0  0  0  0
  190.6250  176.5950  143.4580 C   0  0  1  0  0  3  0  0  0  0  0  0
  192.2100  174.3640  144.4180 C   0  0  2  0  0  3  0  0  0  0  0  0
  190.0170  171.5770  140.2410 C   0  0  0  0  0  2  0  0  0  0  0  0
  189.6560  173.0200  140.1240 N   0  0  0  0  0  0  0  0  0  0  0  0
  190.0150  172.1300  138.9800 C   0  0  0  0  0  2  0  0  0  0  0  0
  194.5770  173.7010  143.9640 C   0  0  0  0  0  2  0  0  0  0  0  0
  195.8760  174.1090  143.4480 N   0  0  0  0  0  0  0  0  0  0  0  0
  197.8990  174.1530  145.0240 N   0  0  0  0  0  0  0  0  0  0  0  0
  196.9860  174.1330  144.3130 C   0  0  0  0  0  0  0  0  0  0  0  0
  195.9750  174.3950  142.0140 C   0  0  0  0  0  2  0  0  0  0  0  0
  196.2150  176.7740  141.5380 N   0  0  0  0  0  1  0  0  0  0  0  0
  196.9440  175.5250  141.6790 C   0  0  0  0  0  2  0  0  0  0  0  0
  1 10  2  0  0  0  0
  3 17  2  0  0  0  0
  3 20  1  0  0  0  0
  4  2  1  0  0  0  0
  5  1  1  0  0  0  0
  5  8  1  0  0  0  0
  6 12  1  6  0  0  0
  8  3  1  0  0  0  0
  9 12  1  0  0  0  0
  9  7  1  1  0  0  0
 10  4  1  0  0  0  0
 10 17  1  0  0  0  0
 11 26  1  1  0  0  0
 11 22  1  0  0  0  0
 11 19  1  0  0  0  0
 13  4  1  0  0  0  0
 14 20  2  0  0  0  0
 15  8  2  0  0  0  0
 15 14  1  0  0  0  0
 16  6  1  0  0  0  0
 17 21  1  0  0  0  0
 19  9  1  0  0  0  0
 21 18  1  1  0  0  0
 21 16  1  0  0  0  0
 22  2  1  6  0  0  0
 22  6  1  0  0  0  0
 24 23  1  0  0  0  0
 24  1  1  0  0  0  0
 25 24  1  0  0  0  0
 25 23  1  0  0  0  0
 27 26  1  0  0  0  0
 27 29  1  0  0  0  0
 29 28  3  0  0  0  0
 30 27  1  0  0  0  0
 31 32  1  0  0  0  0
 32 30  1  0  0  0  0
M  END
>  <MODEL>
9

>  <REMARK>
 VINA RESULT:      -6.6      2.876      5.598
  Name = 
  6 active torsions:
  status: ('A' for Active; 'I' for Inactive)
    1  A    between atoms: C_1  and  N_20
    2  A    between atoms: C_13  and  C_24
    3  A    between atoms: C_17  and  C_30
    4  A    between atoms: C_24  and  N_27
    5  A    between atoms: N_27  and  C_30
    6  A    between atoms: N_27  and  C_31
                            x       y       z     vdW  Elec       q    Type
                         _______ _______ _______ _____ _____    ______ ____

>  <TORSDO>
F 6

$$$$
