=
 OpenBabel11042415243D

 51 56  0  0  1  0  0  0  0  0999 V2000
  192.8180  173.1550  140.4100 C   0  0  1  0  0  3  0  0  0  0  0  0
  189.2750  173.1130  141.1130 C   0  0  0  0  0  3  0  0  0  0  0  0
  190.8390  176.7220  143.5890 C   0  0  2  0  0  3  0  0  0  0  0  0
  194.9350  176.0090  143.2960 C   0  0  0  0  0  2  0  0  0  0  0  0
  194.2590  174.7350  141.3160 N   0  0  1  0  0  0  0  0  0  0  0  0
  189.7920  176.9960  142.6600 O   0  0  0  0  0  0  0  0  0  0  0  0
  193.0210  174.0810  141.5240 N   0  0  0  0  0  2  0  0  0  0  0  0
  189.2100  173.4350  142.5730 C   0  0  0  0  0  2  0  0  0  0  0  0
  191.4950  173.3880  139.7640 C   0  0  0  0  0  3  0  0  0  0  0  0
  194.7680  173.6070  143.5300 C   0  0  0  0  0  2  0  0  0  0  0  0
  192.5770  174.9460  145.1460 O   0  0  0  0  0  0  0  0  0  0  0  0
  190.3880  173.2450  140.4350 C   0  0  0  0  0  0  0  0  0  0  0  0
  191.5390  174.4310  144.3820 C   0  0  0  0  0  3  0  0  0  0  0  0
  193.5800  174.1030  145.6970 C   0  0  0  0  0  2  0  0  0  0  0  0
  189.1260  175.8650  142.2560 N   0  0  0  0  0  0  0  0  0  0  0  0
  193.9190  173.4140  139.4240 C   0  0  1  0  0  3  0  0  0  0  0  0
  189.6390  174.8410  142.8400 C   0  0  0  0  0  0  0  0  0  0  0  0
  194.8880  174.2190  144.9160 C   0  0  2  0  0  3  0  0  0  0  0  0
  190.7320  175.2410  143.7070 C   0  0  0  0  0  0  0  0  0  0  0  0
  195.0700  174.7230  142.5420 C   0  0  2  0  0  3  0  0  0  0  0  0
  195.2880  175.6640  144.7260 C   0  0  0  0  0  2  0  0  0  0  0  0
  194.9790  173.9950  140.2970 C   0  0  0  0  0  2  0  0  0  0  0  0
  189.7000  176.8280  145.7060 C   0  0  0  0  0  0  0  0  0  0  0  0
  189.1310  174.8880  147.0190 C   0  0  0  0  0  1  0  0  0  0  0  0
  190.5300  177.3830  144.8800 C   0  0  0  0  0  3  0  0  0  0  0  0
  188.8460  176.2600  146.5190 C   0  0  0  0  0  0  0  0  0  0  0  0
  186.6680  176.2690  147.4560 O   0  0  0  0  0  0  0  0  0  0  0  0
  187.5380  176.8790  146.7700 C   0  0  0  0  0  0  0  0  0  0  0  0
  187.2480  178.1460  146.2370 O   0  0  0  0  0  0  0  0  0  0  0  0
  186.2450  178.3410  145.2450 C   0  0  1  0  0  3  0  0  0  0  0  0
  186.5780  178.7260  142.8000 C   0  0  0  0  0  1  0  0  0  0  0  0
  185.9100  176.4700  143.5910 C   0  0  0  0  0  1  0  0  0  0  0  0
  186.6890  177.7220  143.9240 C   0  0  0  0  0  3  0  0  0  0  0  0
  183.8360  178.8560  145.5440 C   0  0  0  0  0  2  0  0  0  0  0  0
  184.4230  178.6010  146.9130 C   0  0  0  0  0  2  0  0  0  0  0  0
  184.9100  177.7940  145.7360 C   0  0  0  0  0  3  0  0  0  0  0  0
  193.9510  171.7640  137.5380 C   0  0  0  0  0  0  0  0  0  0  0  0
  194.3700  172.1670  138.8380 N   0  0  0  0  0  2  0  0  0  0  0  0
  193.2500  172.5400  136.8260 O   0  0  0  0  0  0  0  0  0  0  0  0
  194.2270  170.3670  137.0630 C   0  0  2  0  0  3  0  0  0  0  0  0
  191.9680  169.6600  136.2780 C   0  0  0  0  0  0  0  0  0  0  0  0
  193.0340  169.5360  137.2290 N   0  0  0  0  0  0  0  0  0  0  0  0
  190.7640  169.5720  136.6590 O   0  0  0  0  0  0  0  0  0  0  0  0
  192.3290  169.9020  134.5190 S   0  0  0  0  0  1  0  0  0  0  0  0
  192.8080  168.8510  138.4930 C   0  0  0  0  0  2  0  0  0  0  0  0
  192.0710  169.7550  139.4670 C   0  0  0  0  0  2  0  0  0  0  0  0
  190.7930  169.6140  141.5810 C   0  0  0  0  0  1  0  0  0  0  0  0
  191.0270  168.9550  140.2380 C   0  0  0  0  0  2  0  0  0  0  0  0
  196.2030  169.0520  136.8670 O   0  0  0  0  0  0  0  0  0  0  0  0
  195.4420  169.7620  137.7710 C   0  0  0  0  0  3  0  0  0  0  0  0
  196.5930  170.2810  137.2280 O   0  0  0  0  0  0  0  0  0  0  0  0
  1  9  1  6  0  0  0
  1  7  1  0  0  0  0
  2  8  1  0  0  0  0
  3 19  1  0  0  0  0
  3 25  1  1  0  0  0
  4 21  1  0  0  0  0
  5 22  1  6  0  0  0
  5  7  1  0  0  0  0
  5 20  1  0  0  0  0
  6  3  1  0  0  0  0
  8 17  1  0  0  0  0
  9 12  2  0  0  0  0
 11 14  1  0  0  0  0
 12  2  2  0  0  0  0
 13 11  1  0  0  0  0
 15  6  1  0  0  0  0
 15 17  2  0  0  0  0
 16 38  1  1  0  0  0
 16 22  1  0  0  0  0
 16  1  1  0  0  0  0
 17 19  1  0  0  0  0
 18 10  1  6  0  0  0
 18 14  1  0  0  0  0
 19 13  2  0  0  0  0
 20  4  1  1  0  0  0
 20 10  1  0  0  0  0
 21 18  1  0  0  0  0
 23 26  2  0  0  0  0
 25 23  2  0  0  0  0
 26 28  1  0  0  0  0
 26 24  1  0  0  0  0
 28 27  2  0  0  0  0
 29 28  1  0  0  0  0
 30 33  1  6  0  0  0
 30 36  1  0  0  0  0
 30 29  1  0  0  0  0
 31 33  1  0  0  0  0
 32 33  1  0  0  0  0
 34 36  1  0  0  0  0
 34 35  1  0  0  0  0
 36 35  1  0  0  0  0
 37 38  1  0  0  0  0
 39 37  2  0  0  0  0
 40 42  1  0  0  0  0
 40 37  1  1  0  0  0
 40 50  1  0  0  0  0
 41 43  2  0  0  0  0
 41 42  1  0  0  0  0
 42 45  1  0  0  0  0
 44 41  1  0  0  0  0
 45 46  1  0  0  0  0
 46 48  1  0  0  0  0
 48 47  1  0  0  0  0
 49 51  1  0  0  0  0
 49 50  1  0  0  0  0
 51 50  1  0  0  0  0
M  END
>  <MODEL>
1

>  <REMARK>
 VINA RESULT:      -6.8      0.000      0.000
  Name = 
  13 active torsions:
  status: ('A' for Active; 'I' for Inactive)
    1  A    between atoms: O_2  and  C_40
    2  A    between atoms: O_2  and  C_48
    3  A    between atoms: C_3  and  N_16
    4  A    between atoms: C_3  and  C_38
    5  A    between atoms: C_7  and  C_33
    6  A    between atoms: C_11  and  C_37
    7  A    between atoms: N_16  and  C_37
    8  A    between atoms: N_22  and  C_34
    9  A    between atoms: C_31  and  C_37
   10  A    between atoms: C_35  and  C_40
   11  A    between atoms: C_38  and  C_47
   12  A    between atoms: C_40  and  C_41
   13  A    between atoms: C_44  and  C_48
                            x       y       z     vdW  Elec       q    Type
                         _______ _______ _______ _____ _____    ______ ____

>  <TORSDO>
F 13

$$$$
=
 OpenBabel11042415243D

 51 56  0  0  1  0  0  0  0  0999 V2000
  194.5920  173.0770  141.5160 C   0  0  1  0  0  3  0  0  0  0  0  0
  196.7760  175.3810  143.2400 C   0  0  0  0  0  3  0  0  0  0  0  0
  193.0910  175.0530  146.0540 C   0  0  2  0  0  3  0  0  0  0  0  0
  190.4570  173.0980  143.4820 C   0  0  0  0  0  2  0  0  0  0  0  0
  192.5320  172.4240  142.3680 N   0  0  1  0  0  0  0  0  0  0  0  0
  194.3590  174.7430  146.6290 O   0  0  0  0  0  0  0  0  0  0  0  0
  193.4960  173.4590  142.4070 N   0  0  0  0  0  2  0  0  0  0  0  0
  195.8330  176.4060  143.7860 C   0  0  0  0  0  2  0  0  0  0  0  0
  195.8990  173.1370  142.2290 C   0  0  0  0  0  3  0  0  0  0  0  0
  191.1050  174.3350  141.5060 C   0  0  0  0  0  2  0  0  0  0  0  0
  191.3460  176.1150  143.9510 O   0  0  0  0  0  0  0  0  0  0  0  0
  196.3390  174.2570  142.7280 C   0  0  0  0  0  0  0  0  0  0  0  0
  192.7250  176.2480  143.8620 C   0  0  0  0  0  3  0  0  0  0  0  0
  190.5020  176.3880  142.8400 C   0  0  0  0  0  2  0  0  0  0  0  0
  195.4130  175.2180  145.8880 N   0  0  0  0  0  0  0  0  0  0  0  0
  194.3180  171.6700  141.0710 C   0  0  1  0  0  3  0  0  0  0  0  0
  194.9600  175.8300  144.8530 C   0  0  0  0  0  0  0  0  0  0  0  0
  189.9900  175.0950  142.2070 C   0  0  2  0  0  3  0  0  0  0  0  0
  193.5100  175.7970  144.8340 C   0  0  0  0  0  0  0  0  0  0  0  0
  191.1820  172.9730  142.1780 C   0  0  2  0  0  3  0  0  0  0  0  0
  189.4100  174.1660  143.2480 C   0  0  0  0  0  2  0  0  0  0  0  0
  192.8380  171.5850  141.2240 C   0  0  0  0  0  2  0  0  0  0  0  0
  191.0420  175.8870  147.0010 C   0  0  0  0  0  0  0  0  0  0  0  0
  189.0600  174.5470  147.2930 C   0  0  0  0  0  1  0  0  0  0  0  0
  192.3370  175.9310  146.9810 C   0  0  0  0  0  3  0  0  0  0  0  0
  189.7350  175.8390  146.9940 C   0  0  0  0  0  0  0  0  0  0  0  0
  189.5410  178.0390  146.1310 O   0  0  0  0  0  0  0  0  0  0  0  0
  188.9540  176.9820  146.5020 C   0  0  0  0  0  0  0  0  0  0  0  0
  187.5520  176.9040  146.4530 O   0  0  0  0  0  0  0  0  0  0  0  0
  186.7850  177.6170  145.4880 C   0  0  1  0  0  3  0  0  0  0  0  0
  187.3510  178.2810  143.1480 C   0  0  0  0  0  1  0  0  0  0  0  0
  186.0440  176.2060  143.5360 C   0  0  0  0  0  1  0  0  0  0  0  0
  187.1170  177.1190  144.0850 C   0  0  0  0  0  3  0  0  0  0  0  0
  184.7020  178.9120  145.8670 C   0  0  0  0  0  2  0  0  0  0  0  0
  185.0190  178.1700  147.1450 C   0  0  0  0  0  2  0  0  0  0  0  0
  185.3000  177.5130  145.8180 C   0  0  0  0  0  3  0  0  0  0  0  0
  194.4750  172.5330  138.7240 C   0  0  0  0  0  0  0  0  0  0  0  0
  194.6950  171.5020  139.6810 N   0  0  0  0  0  2  0  0  0  0  0  0
  194.0350  173.6610  139.0920 O   0  0  0  0  0  0  0  0  0  0  0  0
  194.6410  172.2430  137.2600 C   0  0  2  0  0  3  0  0  0  0  0  0
  193.1470  173.4260  135.6520 C   0  0  0  0  0  0  0  0  0  0  0  0
  193.3500  172.3510  136.5790 N   0  0  0  0  0  0  0  0  0  0  0  0
  192.0170  173.9920  135.5730 O   0  0  0  0  0  0  0  0  0  0  0  0
  194.4870  173.9600  134.5550 S   0  0  0  0  0  1  0  0  0  0  0  0
  192.2130  171.5870  137.0710 C   0  0  0  0  0  2  0  0  0  0  0  0
  191.6870  170.6550  135.9910 C   0  0  0  0  0  2  0  0  0  0  0  0
  189.7700  170.0480  137.4320 C   0  0  0  0  0  1  0  0  0  0  0  0
  190.1680  170.5700  136.0670 C   0  0  0  0  0  2  0  0  0  0  0  0
  195.6400  170.7450  135.7010 O   0  0  0  0  0  0  0  0  0  0  0  0
  195.2900  170.8760  137.0280 C   0  0  0  0  0  3  0  0  0  0  0  0
  196.5840  171.0520  136.6000 O   0  0  0  0  0  0  0  0  0  0  0  0
  1  9  1  1  0  0  0
  1  7  1  0  0  0  0
  2  8  1  0  0  0  0
  3  6  1  0  0  0  0
  3 25  1  1  0  0  0
  5 22  1  6  0  0  0
  5  7  1  0  0  0  0
  8 17  1  0  0  0  0
  9 12  2  0  0  0  0
 12  2  2  0  0  0  0
 13 11  1  0  0  0  0
 13 19  2  0  0  0  0
 14 11  1  0  0  0  0
 15  6  1  0  0  0  0
 16 38  1  6  0  0  0
 16 22  1  0  0  0  0
 16  1  1  0  0  0  0
 17 15  2  0  0  0  0
 18 10  1  1  0  0  0
 18 14  1  0  0  0  0
 18 21  1  0  0  0  0
 19 17  1  0  0  0  0
 19  3  1  0  0  0  0
 20 10  1  1  0  0  0
 20  5  1  0  0  0  0
 20  4  1  0  0  0  0
 21  4  1  0  0  0  0
 25 23  2  0  0  0  0
 26 23  2  0  0  0  0
 26 24  1  0  0  0  0
 27 28  2  0  0  0  0
 28 26  1  0  0  0  0
 29 28  1  0  0  0  0
 30 33  1  6  0  0  0
 30 36  1  0  0  0  0
 30 29  1  0  0  0  0
 31 33  1  0  0  0  0
 32 33  1  0  0  0  0
 34 35  1  0  0  0  0
 36 34  1  0  0  0  0
 36 35  1  0  0  0  0
 37 39  2  0  0  0  0
 37 38  1  0  0  0  0
 40 37  1  1  0  0  0
 41 42  1  0  0  0  0
 42 45  1  0  0  0  0
 42 40  1  0  0  0  0
 43 41  2  0  0  0  0
 44 41  1  0  0  0  0
 46 48  1  0  0  0  0
 46 45  1  0  0  0  0
 48 47  1  0  0  0  0
 49 51  1  0  0  0  0
 49 50  1  0  0  0  0
 50 40  1  0  0  0  0
 51 50  1  0  0  0  0
M  END
>  <MODEL>
2

>  <REMARK>
 VINA RESULT:      -6.5      1.963      3.776
  Name = 
  13 active torsions:
  status: ('A' for Active; 'I' for Inactive)
    1  A    between atoms: O_2  and  C_40
    2  A    between atoms: O_2  and  C_48
    3  A    between atoms: C_3  and  N_16
    4  A    between atoms: C_3  and  C_38
    5  A    between atoms: C_7  and  C_33
    6  A    between atoms: C_11  and  C_37
    7  A    between atoms: N_16  and  C_37
    8  A    between atoms: N_22  and  C_34
    9  A    between atoms: C_31  and  C_37
   10  A    between atoms: C_35  and  C_40
   11  A    between atoms: C_38  and  C_47
   12  A    between atoms: C_40  and  C_41
   13  A    between atoms: C_44  and  C_48
                            x       y       z     vdW  Elec       q    Type
                         _______ _______ _______ _____ _____    ______ ____

>  <TORSDO>
F 13

$$$$
=
 OpenBabel11042415243D

 51 56  0  0  1  0  0  0  0  0999 V2000
  194.6620  172.9830  141.5980 C   0  0  1  0  0  3  0  0  0  0  0  0
  196.7870  175.4050  143.2310 C   0  0  0  0  0  3  0  0  0  0  0  0
  193.0700  175.1600  146.0110 C   0  0  2  0  0  3  0  0  0  0  0  0
  190.5010  173.0380  143.5060 C   0  0  0  0  0  2  0  0  0  0  0  0
  192.6010  172.3410  142.4550 N   0  0  1  0  0  0  0  0  0  0  0  0
  194.3340  174.9000  146.6170 O   0  0  0  0  0  0  0  0  0  0  0  0
  193.5490  173.3920  142.4540 N   0  0  0  0  0  2  0  0  0  0  0  0
  195.8210  176.4420  143.7120 C   0  0  0  0  0  2  0  0  0  0  0  0
  195.9580  173.1000  142.3240 C   0  0  0  0  0  3  0  0  0  0  0  0
  191.1570  174.1840  141.4790 C   0  0  0  0  0  2  0  0  0  0  0  0
  191.3370  176.0880  143.8340 O   0  0  0  0  0  0  0  0  0  0  0  0
  196.3740  174.2510  142.7710 C   0  0  0  0  0  0  0  0  0  0  0  0
  192.7150  176.2380  143.7570 C   0  0  0  0  0  3  0  0  0  0  0  0
  190.5050  176.2910  142.7000 C   0  0  0  0  0  2  0  0  0  0  0  0
  195.3910  175.3540  145.8670 N   0  0  0  0  0  0  0  0  0  0  0  0
  194.4160  171.5520  141.2210 C   0  0  1  0  0  3  0  0  0  0  0  0
  194.9430  175.9060  144.7960 C   0  0  0  0  0  0  0  0  0  0  0  0
  190.0210  174.9600  142.1260 C   0  0  2  0  0  3  0  0  0  0  0  0
  193.4930  175.8490  144.7600 C   0  0  0  0  0  0  0  0  0  0  0  0
  191.2450  172.8580  142.2200 C   0  0  2  0  0  3  0  0  0  0  0  0
  189.4420  174.0750  143.2050 C   0  0  0  0  0  2  0  0  0  0  0  0
  192.9350  171.4510  141.3590 C   0  0  0  0  0  2  0  0  0  0  0  0
  190.9970  175.9850  146.9130 C   0  0  0  0  0  0  0  0  0  0  0  0
  189.0630  174.6010  147.3070 C   0  0  0  0  0  1  0  0  0  0  0  0
  192.2890  176.0720  146.8820 C   0  0  0  0  0  3  0  0  0  0  0  0
  189.6920  175.8920  146.9190 C   0  0  0  0  0  0  0  0  0  0  0  0
  189.3950  178.0860  146.0690 O   0  0  0  0  0  0  0  0  0  0  0  0
  188.8700  176.9720  146.3560 C   0  0  0  0  0  0  0  0  0  0  0  0
  187.4950  176.7710  146.1480 O   0  0  0  0  0  0  0  0  0  0  0  0
  186.7370  177.5780  145.2530 C   0  0  1  0  0  3  0  0  0  0  0  0
  186.9090  178.4250  142.9100 C   0  0  0  0  0  1  0  0  0  0  0  0
  186.2660  176.0590  143.2980 C   0  0  0  0  0  1  0  0  0  0  0  0
  187.0820  177.2240  143.8100 C   0  0  0  0  0  3  0  0  0  0  0  0
  184.6790  178.8150  145.8790 C   0  0  0  0  0  2  0  0  0  0  0  0
  184.9760  177.8310  146.9870 C   0  0  0  0  0  2  0  0  0  0  0  0
  185.2490  177.4410  145.5560 C   0  0  0  0  0  3  0  0  0  0  0  0
  194.5380  172.2720  138.8240 C   0  0  0  0  0  0  0  0  0  0  0  0
  194.8150  171.3210  139.8460 N   0  0  0  0  0  2  0  0  0  0  0  0
  194.0240  173.3900  139.1170 O   0  0  0  0  0  0  0  0  0  0  0  0
  194.7340  171.9000  137.3830 C   0  0  2  0  0  3  0  0  0  0  0  0
  196.6820  170.4680  136.7760 C   0  0  0  0  0  0  0  0  0  0  0  0
  196.1600  171.7670  137.0880 N   0  0  0  0  0  0  0  0  0  0  0  0
  197.8350  170.1330  137.1760 O   0  0  0  0  0  0  0  0  0  0  0  0
  195.7180  169.3080  135.7710 S   0  0  0  0  0  1  0  0  0  0  0  0
  197.0670  172.8560  137.4220 C   0  0  0  0  0  2  0  0  0  0  0  0
  197.7150  173.4160  136.1660 C   0  0  0  0  0  2  0  0  0  0  0  0
  196.6230  175.5820  136.6470 C   0  0  0  0  0  1  0  0  0  0  0  0
  197.9410  174.9150  136.3170 C   0  0  0  0  0  2  0  0  0  0  0  0
  193.6180  172.2590  135.3090 O   0  0  0  0  0  0  0  0  0  0  0  0
  194.0550  172.9040  136.4460 C   0  0  0  0  0  3  0  0  0  0  0  0
  192.7380  172.5500  136.2750 O   0  0  0  0  0  0  0  0  0  0  0  0
  1  9  1  1  0  0  0
  1  7  1  0  0  0  0
  2  8  1  0  0  0  0
  3  6  1  0  0  0  0
  3 25  1  1  0  0  0
  5 22  1  6  0  0  0
  7  5  1  0  0  0  0
  8 17  1  0  0  0  0
  9 12  2  0  0  0  0
 12  2  2  0  0  0  0
 13 11  1  0  0  0  0
 13 19  2  0  0  0  0
 14 11  1  0  0  0  0
 15  6  1  0  0  0  0
 16 38  1  6  0  0  0
 16 22  1  0  0  0  0
 16  1  1  0  0  0  0
 17 15  2  0  0  0  0
 18 10  1  1  0  0  0
 18 14  1  0  0  0  0
 18 21  1  0  0  0  0
 19 17  1  0  0  0  0
 19  3  1  0  0  0  0
 20 10  1  1  0  0  0
 20  5  1  0  0  0  0
 20  4  1  0  0  0  0
 21  4  1  0  0  0  0
 23 26  2  0  0  0  0
 25 23  2  0  0  0  0
 26 24  1  0  0  0  0
 27 28  2  0  0  0  0
 28 26  1  0  0  0  0
 29 28  1  0  0  0  0
 30 33  1  6  0  0  0
 30 36  1  0  0  0  0
 30 29  1  0  0  0  0
 31 33  1  0  0  0  0
 32 33  1  0  0  0  0
 34 35  1  0  0  0  0
 36 34  1  0  0  0  0
 36 35  1  0  0  0  0
 37 39  2  0  0  0  0
 37 38  1  0  0  0  0
 40 37  1  1  0  0  0
 41 42  1  0  0  0  0
 41 43  2  0  0  0  0
 42 40  1  0  0  0  0
 42 45  1  0  0  0  0
 44 41  1  0  0  0  0
 46 48  1  0  0  0  0
 46 45  1  0  0  0  0
 48 47  1  0  0  0  0
 49 51  1  0  0  0  0
 49 50  1  0  0  0  0
 50 40  1  0  0  0  0
 51 50  1  0  0  0  0
M  END
>  <MODEL>
3

>  <REMARK>
 VINA RESULT:      -6.4      2.071      4.491
  Name = 
  13 active torsions:
  status: ('A' for Active; 'I' for Inactive)
    1  A    between atoms: O_2  and  C_40
    2  A    between atoms: O_2  and  C_48
    3  A    between atoms: C_3  and  N_16
    4  A    between atoms: C_3  and  C_38
    5  A    between atoms: C_7  and  C_33
    6  A    between atoms: C_11  and  C_37
    7  A    between atoms: N_16  and  C_37
    8  A    between atoms: N_22  and  C_34
    9  A    between atoms: C_31  and  C_37
   10  A    between atoms: C_35  and  C_40
   11  A    between atoms: C_38  and  C_47
   12  A    between atoms: C_40  and  C_41
   13  A    between atoms: C_44  and  C_48
                            x       y       z     vdW  Elec       q    Type
                         _______ _______ _______ _____ _____    ______ ____

>  <TORSDO>
F 13

$$$$
=
 OpenBabel11042415243D

 51 56  0  0  1  0  0  0  0  0999 V2000
  189.8830  175.8190  143.0200 C   0  0  1  0  0  3  0  0  0  0  0  0
  192.9240  176.7510  144.7320 C   0  0  0  0  0  3  0  0  0  0  0  0
  194.3730  173.7730  141.4700 C   0  0  2  0  0  3  0  0  0  0  0  0
  190.6850  172.2430  140.2760 C   0  0  0  0  0  2  0  0  0  0  0  0
  189.8540  174.3410  141.2280 N   0  0  1  0  0  0  0  0  0  0  0  0
  194.9810  175.0630  141.4670 O   0  0  0  0  0  0  0  0  0  0  0  0
  190.5920  174.7120  142.3770 N   0  0  0  0  0  2  0  0  0  0  0  0
  193.6830  175.4630  144.8110 C   0  0  0  0  0  2  0  0  0  0  0  0
  190.7960  176.9770  143.2340 C   0  0  0  0  0  3  0  0  0  0  0  0
  189.7420  172.1510  142.5020 C   0  0  0  0  0  2  0  0  0  0  0  0
  192.7300  171.6420  142.6350 O   0  0  0  0  0  0  0  0  0  0  0  0
  191.8540  176.8660  143.9860 C   0  0  0  0  0  0  0  0  0  0  0  0
  193.0120  172.7950  143.3550 C   0  0  0  0  0  3  0  0  0  0  0  0
  191.7390  170.7200  143.0700 C   0  0  0  0  0  2  0  0  0  0  0  0
  194.8060  175.7400  142.6490 N   0  0  0  0  0  0  0  0  0  0  0  0
  188.7670  176.2130  142.0970 C   0  0  1  0  0  3  0  0  0  0  0  0
  194.1260  175.0090  143.4580 C   0  0  0  0  0  0  0  0  0  0  0  0
  190.4680  170.8420  142.2310 C   0  0  2  0  0  3  0  0  0  0  0  0
  193.7850  173.7420  142.8380 C   0  0  0  0  0  0  0  0  0  0  0  0
  189.6710  172.8840  141.1710 C   0  0  2  0  0  3  0  0  0  0  0  0
  190.7790  170.8100  140.7530 C   0  0  0  0  0  2  0  0  0  0  0  0
  188.5420  174.9520  141.3350 C   0  0  0  0  0  2  0  0  0  0  0  0
  196.2650  172.8110  140.3350 C   0  0  0  0  0  0  0  0  0  0  0  0
  197.9380  174.1100  139.1850 C   0  0  0  0  0  1  0  0  0  0  0  0
  195.4250  172.7380  141.3190 C   0  0  0  0  0  3  0  0  0  0  0  0
  197.0930  172.8940  139.3250 C   0  0  0  0  0  0  0  0  0  0  0  0
  197.5370  170.7510  138.4120 O   0  0  0  0  0  0  0  0  0  0  0  0
  197.0420  171.9020  138.2420 C   0  0  0  0  0  0  0  0  0  0  0  0
  196.4520  172.2380  137.0120 O   0  0  0  0  0  0  0  0  0  0  0  0
  195.4740  173.2660  136.8950 C   0  0  1  0  0  3  0  0  0  0  0  0
  197.1450  173.7990  135.1170 C   0  0  0  0  0  1  0  0  0  0  0  0
  196.0810  175.6560  136.3760 C   0  0  0  0  0  1  0  0  0  0  0  0
  195.8900  174.2630  135.8190 C   0  0  0  0  0  3  0  0  0  0  0  0
  193.0920  173.2800  137.5910 C   0  0  0  0  0  2  0  0  0  0  0  0
  193.6380  171.8950  137.8540 C   0  0  0  0  0  2  0  0  0  0  0  0
  194.1010  172.6560  136.6370 C   0  0  0  0  0  3  0  0  0  0  0  0
  187.1930  177.9200  143.0400 C   0  0  0  0  0  0  0  0  0  0  0  0
  187.5860  176.5630  142.8620 N   0  0  0  0  0  2  0  0  0  0  0  0
  187.8160  178.8460  142.4460 O   0  0  0  0  0  0  0  0  0  0  0  0
  186.1220  178.2640  144.0340 C   0  0  2  0  0  3  0  0  0  0  0  0
  185.8750  178.5530  146.4980 C   0  0  0  0  0  0  0  0  0  0  0  0
  186.5910  177.9880  145.3920 N   0  0  0  0  0  0  0  0  0  0  0  0
  186.5010  178.9560  147.5220 O   0  0  0  0  0  0  0  0  0  0  0  0
  184.0670  178.6590  146.4640 S   0  0  0  0  0  1  0  0  0  0  0  0
  187.9210  177.4310  145.5920 C   0  0  0  0  0  2  0  0  0  0  0  0
  187.8850  176.3160  146.6250 C   0  0  0  0  0  2  0  0  0  0  0  0
  190.1790  175.5590  147.1520 C   0  0  0  0  0  1  0  0  0  0  0  0
  188.9530  175.2760  146.3110 C   0  0  0  0  0  2  0  0  0  0  0  0
  183.9120  178.4050  143.1570 O   0  0  0  0  0  0  0  0  0  0  0  0
  184.8130  177.5320  143.7270 C   0  0  0  0  0  3  0  0  0  0  0  0
  184.5840  177.5540  142.3730 O   0  0  0  0  0  0  0  0  0  0  0  0
  1  9  1  6  0  0  0
  2  8  1  0  0  0  0
  3 25  1  1  0  0  0
  3 19  1  0  0  0  0
  4 21  1  0  0  0  0
  5 22  1  1  0  0  0
  5  7  1  0  0  0  0
  6  3  1  0  0  0  0
  6 15  1  0  0  0  0
  7  1  1  0  0  0  0
  9 12  2  0  0  0  0
 11 14  1  0  0  0  0
 11 13  1  0  0  0  0
 12  2  2  0  0  0  0
 15 17  2  0  0  0  0
 16 38  1  1  0  0  0
 16  1  1  0  0  0  0
 17  8  1  0  0  0  0
 18 21  1  6  0  0  0
 18 10  1  0  0  0  0
 18 14  1  0  0  0  0
 19 13  2  0  0  0  0
 19 17  1  0  0  0  0
 20  4  1  6  0  0  0
 20  5  1  0  0  0  0
 20 10  1  0  0  0  0
 22 16  1  0  0  0  0
 23 25  2  0  0  0  0
 24 26  1  0  0  0  0
 26 23  2  0  0  0  0
 28 27  2  0  0  0  0
 28 26  1  0  0  0  0
 29 28  1  0  0  0  0
 30 33  1  6  0  0  0
 30 29  1  0  0  0  0
 31 33  1  0  0  0  0
 33 32  1  0  0  0  0
 34 35  1  0  0  0  0
 36 30  1  0  0  0  0
 36 34  1  0  0  0  0
 36 35  1  0  0  0  0
 38 37  1  0  0  0  0
 39 37  2  0  0  0  0
 40 37  1  6  0  0  0
 40 42  1  0  0  0  0
 41 43  2  0  0  0  0
 42 45  1  0  0  0  0
 42 41  1  0  0  0  0
 44 41  1  0  0  0  0
 45 46  1  0  0  0  0
 48 46  1  0  0  0  0
 48 47  1  0  0  0  0
 49 50  1  0  0  0  0
 50 40  1  0  0  0  0
 51 49  1  0  0  0  0
 51 50  1  0  0  0  0
M  END
>  <MODEL>
4

>  <REMARK>
 VINA RESULT:      -6.3      3.355     10.336
  Name = 
  13 active torsions:
  status: ('A' for Active; 'I' for Inactive)
    1  A    between atoms: O_2  and  C_40
    2  A    between atoms: O_2  and  C_48
    3  A    between atoms: C_3  and  N_16
    4  A    between atoms: C_3  and  C_38
    5  A    between atoms: C_7  and  C_33
    6  A    between atoms: C_11  and  C_37
    7  A    between atoms: N_16  and  C_37
    8  A    between atoms: N_22  and  C_34
    9  A    between atoms: C_31  and  C_37
   10  A    between atoms: C_35  and  C_40
   11  A    between atoms: C_38  and  C_47
   12  A    between atoms: C_40  and  C_41
   13  A    between atoms: C_44  and  C_48
                            x       y       z     vdW  Elec       q    Type
                         _______ _______ _______ _____ _____    ______ ____

>  <TORSDO>
F 13

$$$$
=
 OpenBabel11042415243D

 51 56  0  0  1  0  0  0  0  0999 V2000
  188.9290  177.1700  143.8610 C   0  0  1  0  0  3  0  0  0  0  0  0
  190.1410  177.0600  147.2620 C   0  0  0  0  0  3  0  0  0  0  0  0
  192.8450  174.0030  145.0380 C   0  0  2  0  0  3  0  0  0  0  0  0
  190.7140  173.6980  141.4690 C   0  0  0  0  0  2  0  0  0  0  0  0
  189.8470  175.8830  142.1590 N   0  0  1  0  0  0  0  0  0  0  0  0
  193.5130  175.0550  145.7290 O   0  0  0  0  0  0  0  0  0  0  0  0
  189.6760  175.9470  143.5620 N   0  0  0  0  0  2  0  0  0  0  0  0
  190.4080  175.6040  147.4850 C   0  0  0  0  0  2  0  0  0  0  0  0
  189.6480  177.9940  144.8730 C   0  0  0  0  0  3  0  0  0  0  0  0
  188.5270  173.7450  142.5010 C   0  0  0  0  0  2  0  0  0  0  0  0
  190.5030  172.3760  144.3520 O   0  0  0  0  0  0  0  0  0  0  0  0
  189.8890  177.5300  146.0660 C   0  0  0  0  0  0  0  0  0  0  0  0
  190.4270  173.3470  145.3410 C   0  0  0  0  0  3  0  0  0  0  0  0
  189.3340  171.7590  143.8290 C   0  0  0  0  0  2  0  0  0  0  0  0
  192.7140  175.6780  146.6570 N   0  0  0  0  0  0  0  0  0  0  0  0
  188.8120  177.9320  142.5730 C   0  0  1  0  0  3  0  0  0  0  0  0
  191.5530  175.1270  146.6530 C   0  0  0  0  0  0  0  0  0  0  0  0
  189.0010  172.3010  142.4400 C   0  0  2  0  0  3  0  0  0  0  0  0
  191.4990  174.0580  145.6730 C   0  0  0  0  0  0  0  0  0  0  0  0
  189.4960  174.5500  141.6490 C   0  0  2  0  0  3  0  0  0  0  0  0
  190.2100  172.2730  141.5340 C   0  0  0  0  0  2  0  0  0  0  0  0
  188.9370  176.8430  141.5630 C   0  0  0  0  0  2  0  0  0  0  0  0
  194.8150  172.6670  145.3930 C   0  0  0  0  0  0  0  0  0  0  0  0
  196.8380  173.5070  146.4000 C   0  0  0  0  0  1  0  0  0  0  0  0
  193.5220  172.7170  145.3360 C   0  0  0  0  0  3  0  0  0  0  0  0
  196.1230  172.6350  145.4300 C   0  0  0  0  0  0  0  0  0  0  0  0
  197.3180  170.7470  144.6350 O   0  0  0  0  0  0  0  0  0  0  0  0
  196.8750  171.9080  144.3980 C   0  0  0  0  0  0  0  0  0  0  0  0
  197.1130  172.5080  143.1500 O   0  0  0  0  0  0  0  0  0  0  0  0
  196.4620  173.7100  142.7500 C   0  0  1  0  0  3  0  0  0  0  0  0
  196.8800  176.0520  143.5100 C   0  0  0  0  0  1  0  0  0  0  0  0
  197.8700  175.2790  141.3690 C   0  0  0  0  0  1  0  0  0  0  0  0
  197.4520  174.8700  142.7640 C   0  0  0  0  0  3  0  0  0  0  0  0
  194.2820  173.5300  141.5780 C   0  0  0  0  0  2  0  0  0  0  0  0
  195.0190  172.2240  141.3790 C   0  0  0  0  0  2  0  0  0  0  0  0
  195.7940  173.5180  141.3940 C   0  0  0  0  0  3  0  0  0  0  0  0
  186.3140  177.7910  142.4340 C   0  0  0  0  0  0  0  0  0  0  0  0
  187.5090  178.5620  142.4810 N   0  0  0  0  0  2  0  0  0  0  0  0
  186.3610  176.5340  142.5730 O   0  0  0  0  0  0  0  0  0  0  0  0
  185.0110  178.4510  142.0880 C   0  0  2  0  0  3  0  0  0  0  0  0
  182.6910  178.6640  142.9790 C   0  0  0  0  0  0  0  0  0  0  0  0
  184.0600  178.2910  143.1890 N   0  0  0  0  0  0  0  0  0  0  0  0
  182.0290  179.2030  143.9140 O   0  0  0  0  0  0  0  0  0  0  0  0
  181.8820  178.3320  141.3930 S   0  0  0  0  0  1  0  0  0  0  0  0
  184.5570  178.0700  144.5400 C   0  0  0  0  0  2  0  0  0  0  0  0
  185.1320  179.3540  145.1150 C   0  0  0  0  0  2  0  0  0  0  0  0
  186.1870  177.5590  146.4500 C   0  0  0  0  0  1  0  0  0  0  0  0
  185.9400  179.0510  146.3710 C   0  0  0  0  0  2  0  0  0  0  0  0
  184.8110  178.7510  139.7340 O   0  0  0  0  0  0  0  0  0  0  0  0
  184.4430  177.9180  140.7700 C   0  0  0  0  0  3  0  0  0  0  0  0
  185.4770  177.6050  139.9210 O   0  0  0  0  0  0  0  0  0  0  0  0
  1  9  1  1  0  0  0
  2  8  1  0  0  0  0
  3 25  1  1  0  0  0
  3 19  1  0  0  0  0
  3  6  1  0  0  0  0
  4 21  1  0  0  0  0
  5 22  1  6  0  0  0
  5  7  1  0  0  0  0
  6 15  1  0  0  0  0
  7  1  1  0  0  0  0
  9 12  2  0  0  0  0
 11 13  1  0  0  0  0
 12  2  2  0  0  0  0
 13 19  2  0  0  0  0
 14 11  1  0  0  0  0
 16 38  1  1  0  0  0
 16  1  1  0  0  0  0
 17 15  2  0  0  0  0
 17  8  1  0  0  0  0
 18 21  1  6  0  0  0
 18 10  1  0  0  0  0
 18 14  1  0  0  0  0
 19 17  1  0  0  0  0
 20  4  1  1  0  0  0
 20  5  1  0  0  0  0
 20 10  1  0  0  0  0
 22 16  1  0  0  0  0
 23 26  2  0  0  0  0
 25 23  2  0  0  0  0
 26 24  1  0  0  0  0
 28 27  2  0  0  0  0
 28 26  1  0  0  0  0
 29 28  1  0  0  0  0
 30 33  1  6  0  0  0
 30 29  1  0  0  0  0
 32 33  1  0  0  0  0
 33 31  1  0  0  0  0
 35 36  1  0  0  0  0
 35 34  1  0  0  0  0
 36 34  1  0  0  0  0
 36 30  1  0  0  0  0
 37 38  1  0  0  0  0
 37 39  2  0  0  0  0
 40 37  1  1  0  0  0
 40 42  1  0  0  0  0
 41 42  1  0  0  0  0
 41 43  2  0  0  0  0
 42 45  1  0  0  0  0
 44 41  1  0  0  0  0
 45 46  1  0  0  0  0
 46 48  1  0  0  0  0
 48 47  1  0  0  0  0
 49 51  1  0  0  0  0
 49 50  1  0  0  0  0
 50 40  1  0  0  0  0
 51 50  1  0  0  0  0
M  END
>  <MODEL>
5

>  <REMARK>
 VINA RESULT:      -6.2      4.155      9.821
  Name = 
  13 active torsions:
  status: ('A' for Active; 'I' for Inactive)
    1  A    between atoms: O_2  and  C_40
    2  A    between atoms: O_2  and  C_48
    3  A    between atoms: C_3  and  N_16
    4  A    between atoms: C_3  and  C_38
    5  A    between atoms: C_7  and  C_33
    6  A    between atoms: C_11  and  C_37
    7  A    between atoms: N_16  and  C_37
    8  A    between atoms: N_22  and  C_34
    9  A    between atoms: C_31  and  C_37
   10  A    between atoms: C_35  and  C_40
   11  A    between atoms: C_38  and  C_47
   12  A    between atoms: C_40  and  C_41
   13  A    between atoms: C_44  and  C_48
                            x       y       z     vdW  Elec       q    Type
                         _______ _______ _______ _____ _____    ______ ____

>  <TORSDO>
F 13

$$$$
=
 OpenBabel11042415243D

 51 56  0  0  1  0  0  0  0  0999 V2000
  194.2470  173.2830  141.0620 C   0  0  1  0  0  3  0  0  0  0  0  0
  196.6870  175.4200  142.6520 C   0  0  0  0  0  3  0  0  0  0  0  0
  193.3360  175.0190  145.8480 C   0  0  2  0  0  3  0  0  0  0  0  0
  190.3640  173.2930  143.4880 C   0  0  0  0  0  2  0  0  0  0  0  0
  192.2760  172.6340  142.1060 N   0  0  1  0  0  0  0  0  0  0  0  0
  194.6490  174.6410  146.2550 O   0  0  0  0  0  0  0  0  0  0  0  0
  193.2730  173.6390  142.0940 N   0  0  0  0  0  2  0  0  0  0  0  0
  195.8450  176.4350  143.3610 C   0  0  0  0  0  2  0  0  0  0  0  0
  195.6280  173.2650  141.6230 C   0  0  0  0  0  3  0  0  0  0  0  0
  190.8250  174.6300  141.5250 C   0  0  0  0  0  2  0  0  0  0  0  0
  191.3990  176.2520  144.0240 O   0  0  0  0  0  0  0  0  0  0  0  0
  196.1580  174.3420  142.1310 C   0  0  0  0  0  0  0  0  0  0  0  0
  192.7630  176.3540  143.7850 C   0  0  0  0  0  3  0  0  0  0  0  0
  190.4450  176.6140  143.0340 C   0  0  0  0  0  2  0  0  0  0  0  0
  195.6280  175.1330  145.4260 N   0  0  0  0  0  0  0  0  0  0  0  0
  193.8790  171.9130  140.5720 C   0  0  1  0  0  3  0  0  0  0  0  0
  195.0810  175.8190  144.4860 C   0  0  0  0  0  0  0  0  0  0  0  0
  189.8220  175.3750  142.3910 C   0  0  2  0  0  3  0  0  0  0  0  0
  193.6370  175.8240  144.6320 C   0  0  0  0  0  0  0  0  0  0  0  0
  190.9320  173.2280  142.1050 C   0  0  2  0  0  3  0  0  0  0  0  0
  189.3330  174.4000  143.4370 C   0  0  0  0  0  2  0  0  0  0  0  0
  192.4230  171.8580  140.8890 C   0  0  0  0  0  2  0  0  0  0  0  0
  191.4300  175.9400  146.9930 C   0  0  0  0  0  0  0  0  0  0  0  0
  189.3350  174.7770  147.2560 C   0  0  0  0  0  1  0  0  0  0  0  0
  192.7200  175.8590  146.9040 C   0  0  0  0  0  3  0  0  0  0  0  0
  190.1250  176.0210  147.0570 C   0  0  0  0  0  0  0  0  0  0  0  0
  189.6030  178.2970  147.4730 O   0  0  0  0  0  0  0  0  0  0  0  0
  189.4460  177.2830  146.7330 C   0  0  0  0  0  0  0  0  0  0  0  0
  188.6100  177.3600  145.6060 O   0  0  0  0  0  0  0  0  0  0  0  0
  187.1910  177.3070  145.7080 C   0  0  1  0  0  3  0  0  0  0  0  0
  185.9540  176.6310  147.7690 C   0  0  0  0  0  1  0  0  0  0  0  0
  185.9630  179.0190  147.0900 C   0  0  0  0  0  1  0  0  0  0  0  0
  186.7520  177.7290  147.1060 C   0  0  0  0  0  3  0  0  0  0  0  0
  185.7910  177.2350  143.6600 C   0  0  0  0  0  2  0  0  0  0  0  0
  187.1450  177.7820  143.2700 C   0  0  0  0  0  2  0  0  0  0  0  0
  186.5550  178.1500  144.6080 C   0  0  0  0  0  3  0  0  0  0  0  0
  195.0880  170.9650  138.5920 C   0  0  0  0  0  0  0  0  0  0  0  0
  194.0900  171.8200  139.1400 N   0  0  0  0  0  2  0  0  0  0  0  0
  195.7450  170.1900  139.3460 O   0  0  0  0  0  0  0  0  0  0  0  0
  195.4530  171.0750  137.1400 C   0  0  2  0  0  3  0  0  0  0  0  0
  194.1760  172.8170  135.8940 C   0  0  0  0  0  0  0  0  0  0  0  0
  195.3130  172.4610  136.6920 N   0  0  0  0  0  0  0  0  0  0  0  0
  194.2960  173.6610  134.9580 O   0  0  0  0  0  0  0  0  0  0  0  0
  192.5490  172.0980  136.2400 S   0  0  0  0  0  1  0  0  0  0  0  0
  196.4520  173.3620  136.7810 C   0  0  0  0  0  2  0  0  0  0  0  0
  196.2330  174.3950  137.8740 C   0  0  0  0  0  2  0  0  0  0  0  0
  197.9380  175.5290  139.2630 C   0  0  0  0  0  1  0  0  0  0  0  0
  197.3650  175.4160  137.8660 C   0  0  0  0  0  2  0  0  0  0  0  0
  195.4620  169.4030  135.4450 O   0  0  0  0  0  0  0  0  0  0  0  0
  194.6270  170.1160  136.2790 C   0  0  0  0  0  3  0  0  0  0  0  0
  194.9950  168.8210  136.5560 O   0  0  0  0  0  0  0  0  0  0  0  0
  1  9  1  1  0  0  0
  1  7  1  0  0  0  0
  2  8  1  0  0  0  0
  3  6  1  0  0  0  0
  3 25  1  1  0  0  0
  5 22  1  6  0  0  0
  7  5  1  0  0  0  0
  8 17  1  0  0  0  0
  9 12  2  0  0  0  0
 12  2  2  0  0  0  0
 13 11  1  0  0  0  0
 13 19  2  0  0  0  0
 14 11  1  0  0  0  0
 15  6  1  0  0  0  0
 16 38  1  6  0  0  0
 16 22  1  0  0  0  0
 16  1  1  0  0  0  0
 17 19  1  0  0  0  0
 17 15  2  0  0  0  0
 18 10  1  6  0  0  0
 18 14  1  0  0  0  0
 18 21  1  0  0  0  0
 19  3  1  0  0  0  0
 20 10  1  1  0  0  0
 20  5  1  0  0  0  0
 20  4  1  0  0  0  0
 21  4  1  0  0  0  0
 23 26  2  0  0  0  0
 25 23  2  0  0  0  0
 26 24  1  0  0  0  0
 28 26  1  0  0  0  0
 28 27  2  0  0  0  0
 29 28  1  0  0  0  0
 30 29  1  1  0  0  0
 30 33  1  0  0  0  0
 32 33  1  0  0  0  0
 33 31  1  0  0  0  0
 34 36  1  0  0  0  0
 35 34  1  0  0  0  0
 35 36  1  0  0  0  0
 36 30  1  0  0  0  0
 37 38  1  0  0  0  0
 37 39  2  0  0  0  0
 40 37  1  1  0  0  0
 41 44  1  0  0  0  0
 41 42  1  0  0  0  0
 42 45  1  0  0  0  0
 42 40  1  0  0  0  0
 43 41  2  0  0  0  0
 45 46  1  0  0  0  0
 48 46  1  0  0  0  0
 48 47  1  0  0  0  0
 49 50  1  0  0  0  0
 49 51  1  0  0  0  0
 50 51  1  0  0  0  0
 50 40  1  0  0  0  0
M  END
>  <MODEL>
6

>  <REMARK>
 VINA RESULT:      -6.0      2.001      4.475
  Name = 
  13 active torsions:
  status: ('A' for Active; 'I' for Inactive)
    1  A    between atoms: O_2  and  C_40
    2  A    between atoms: O_2  and  C_48
    3  A    between atoms: C_3  and  N_16
    4  A    between atoms: C_3  and  C_38
    5  A    between atoms: C_7  and  C_33
    6  A    between atoms: C_11  and  C_37
    7  A    between atoms: N_16  and  C_37
    8  A    between atoms: N_22  and  C_34
    9  A    between atoms: C_31  and  C_37
   10  A    between atoms: C_35  and  C_40
   11  A    between atoms: C_38  and  C_47
   12  A    between atoms: C_40  and  C_41
   13  A    between atoms: C_44  and  C_48
                            x       y       z     vdW  Elec       q    Type
                         _______ _______ _______ _____ _____    ______ ____

>  <TORSDO>
F 13

$$$$
=
 OpenBabel11042415243D

 51 56  0  0  1  0  0  0  0  0999 V2000
  190.5540  175.7070  143.6440 C   0  0  1  0  0  3  0  0  0  0  0  0
  193.4150  176.7160  145.6060 C   0  0  0  0  0  3  0  0  0  0  0  0
  195.2390  173.9270  142.3650 C   0  0  2  0  0  3  0  0  0  0  0  0
  191.7240  172.2730  140.8520 C   0  0  0  0  0  2  0  0  0  0  0  0
  190.7260  174.2950  141.8080 N   0  0  1  0  0  0  0  0  0  0  0  0
  195.7820  175.2420  142.4490 O   0  0  0  0  0  0  0  0  0  0  0  0
  191.3610  174.6580  143.0200 N   0  0  0  0  0  2  0  0  0  0  0  0
  194.2280  175.4620  145.6990 C   0  0  0  0  0  2  0  0  0  0  0  0
  191.3920  176.8980  143.9630 C   0  0  0  0  0  3  0  0  0  0  0  0
  190.6290  172.0580  142.9980 C   0  0  0  0  0  2  0  0  0  0  0  0
  193.6200  171.6820  143.3360 O   0  0  0  0  0  0  0  0  0  0  0  0
  192.3970  176.8080  144.7870 C   0  0  0  0  0  0  0  0  0  0  0  0
  193.7930  172.8200  144.1120 C   0  0  0  0  0  3  0  0  0  0  0  0
  192.6460  170.7010  143.6660 C   0  0  0  0  0  2  0  0  0  0  0  0
  195.4890  175.8680  143.6360 N   0  0  0  0  0  0  0  0  0  0  0  0
  189.4900  176.0830  142.6550 C   0  0  1  0  0  3  0  0  0  0  0  0
  194.7880  175.0770  144.3690 C   0  0  0  0  0  0  0  0  0  0  0  0
  191.4340  170.7950  142.7400 C   0  0  2  0  0  3  0  0  0  0  0  0
  194.5550  173.8190  143.6840 C   0  0  0  0  0  0  0  0  0  0  0  0
  190.6190  172.8340  141.6900 C   0  0  2  0  0  3  0  0  0  0  0  0
  191.8530  170.8300  141.2880 C   0  0  0  0  0  2  0  0  0  0  0  0
  189.3820  174.8410  141.8380 C   0  0  0  0  0  2  0  0  0  0  0  0
  196.8600  172.6770  141.1000 C   0  0  0  0  0  0  0  0  0  0  0  0
  197.9370  173.5100  139.1110 C   0  0  0  0  0  1  0  0  0  0  0  0
  196.3470  172.9470  142.2590 C   0  0  0  0  0  3  0  0  0  0  0  0
  197.3530  172.4060  139.9180 C   0  0  0  0  0  0  0  0  0  0  0  0
  197.4180  170.0360  139.9770 O   0  0  0  0  0  0  0  0  0  0  0  0
  197.1500  171.0810  139.3170 C   0  0  0  0  0  0  0  0  0  0  0  0
  196.6660  170.9750  138.0020 O   0  0  0  0  0  0  0  0  0  0  0  0
  195.3890  171.4760  137.6200 C   0  0  1  0  0  3  0  0  0  0  0  0
  194.2700  173.3700  136.4390 C   0  0  0  0  0  1  0  0  0  0  0  0
  195.9950  172.0460  135.2420 C   0  0  0  0  0  1  0  0  0  0  0  0
  195.5510  172.5830  136.5840 C   0  0  0  0  0  3  0  0  0  0  0  0
  193.1640  170.4030  137.8560 C   0  0  0  0  0  2  0  0  0  0  0  0
  194.2070  169.3910  138.2720 C   0  0  0  0  0  2  0  0  0  0  0  0
  194.5030  170.3350  137.1340 C   0  0  0  0  0  3  0  0  0  0  0  0
  187.7440  177.6770  143.4860 C   0  0  0  0  0  0  0  0  0  0  0  0
  188.2410  176.3510  143.3400 N   0  0  0  0  0  2  0  0  0  0  0  0
  188.3390  178.6440  142.9280 O   0  0  0  0  0  0  0  0  0  0  0  0
  186.5910  177.9470  144.4080 C   0  0  2  0  0  3  0  0  0  0  0  0
  186.2170  178.2510  146.8550 C   0  0  0  0  0  0  0  0  0  0  0  0
  186.9780  177.6630  145.7910 N   0  0  0  0  0  0  0  0  0  0  0  0
  186.7970  178.6420  147.9100 O   0  0  0  0  0  0  0  0  0  0  0  0
  184.4170  178.4040  146.7210 S   0  0  0  0  0  1  0  0  0  0  0  0
  188.2800  177.0730  146.0650 C   0  0  0  0  0  2  0  0  0  0  0  0
  188.1340  175.8380  146.9380 C   0  0  0  0  0  2  0  0  0  0  0  0
  190.4350  175.2240  147.6030 C   0  0  0  0  0  1  0  0  0  0  0  0
  189.2860  174.8750  146.6820 C   0  0  0  0  0  2  0  0  0  0  0  0
  184.4530  177.9960  143.3590 O   0  0  0  0  0  0  0  0  0  0  0  0
  185.3450  177.1590  143.9960 C   0  0  0  0  0  3  0  0  0  0  0  0
  185.2230  177.1810  142.6280 O   0  0  0  0  0  0  0  0  0  0  0  0
  1  9  1  6  0  0  0
  2  8  1  0  0  0  0
  3 25  1  1  0  0  0
  3  6  1  0  0  0  0
  3 19  1  0  0  0  0
  4 21  1  0  0  0  0
  5 22  1  1  0  0  0
  5  7  1  0  0  0  0
  6 15  1  0  0  0  0
  7  1  1  0  0  0  0
  9 12  2  0  0  0  0
 11 14  1  0  0  0  0
 11 13  1  0  0  0  0
 12  2  2  0  0  0  0
 15 17  2  0  0  0  0
 16 38  1  1  0  0  0
 16  1  1  0  0  0  0
 17  8  1  0  0  0  0
 18 21  1  6  0  0  0
 18 10  1  0  0  0  0
 18 14  1  0  0  0  0
 19 13  2  0  0  0  0
 19 17  1  0  0  0  0
 20  4  1  6  0  0  0
 20  5  1  0  0  0  0
 20 10  1  0  0  0  0
 22 16  1  0  0  0  0
 23 25  2  0  0  0  0
 24 26  1  0  0  0  0
 26 23  2  0  0  0  0
 28 26  1  0  0  0  0
 28 27  2  0  0  0  0
 29 28  1  0  0  0  0
 30 33  1  6  0  0  0
 30 29  1  0  0  0  0
 31 33  1  0  0  0  0
 32 33  1  0  0  0  0
 34 35  1  0  0  0  0
 36 30  1  0  0  0  0
 36 34  1  0  0  0  0
 36 35  1  0  0  0  0
 38 37  1  0  0  0  0
 39 37  2  0  0  0  0
 40 37  1  6  0  0  0
 40 42  1  0  0  0  0
 41 43  2  0  0  0  0
 42 45  1  0  0  0  0
 42 41  1  0  0  0  0
 44 41  1  0  0  0  0
 45 46  1  0  0  0  0
 48 46  1  0  0  0  0
 48 47  1  0  0  0  0
 49 50  1  0  0  0  0
 50 40  1  0  0  0  0
 51 49  1  0  0  0  0
 51 50  1  0  0  0  0
M  END
>  <MODEL>
7

>  <REMARK>
 VINA RESULT:      -6.0      3.279     10.303
  Name = 
  13 active torsions:
  status: ('A' for Active; 'I' for Inactive)
    1  A    between atoms: O_2  and  C_40
    2  A    between atoms: O_2  and  C_48
    3  A    between atoms: C_3  and  N_16
    4  A    between atoms: C_3  and  C_38
    5  A    between atoms: C_7  and  C_33
    6  A    between atoms: C_11  and  C_37
    7  A    between atoms: N_16  and  C_37
    8  A    between atoms: N_22  and  C_34
    9  A    between atoms: C_31  and  C_37
   10  A    between atoms: C_35  and  C_40
   11  A    between atoms: C_38  and  C_47
   12  A    between atoms: C_40  and  C_41
   13  A    between atoms: C_44  and  C_48
                            x       y       z     vdW  Elec       q    Type
                         _______ _______ _______ _____ _____    ______ ____

>  <TORSDO>
F 13

$$$$
=
 OpenBabel11042415243D

 51 56  0  0  1  0  0  0  0  0999 V2000
  193.5900  172.4980  140.9190 C   0  0  1  0  0  3  0  0  0  0  0  0
  196.3490  174.1400  142.5740 C   0  0  0  0  0  3  0  0  0  0  0  0
  192.9170  174.3510  145.7010 C   0  0  2  0  0  3  0  0  0  0  0  0
  189.7270  173.2150  143.2700 C   0  0  0  0  0  2  0  0  0  0  0  0
  191.5120  172.2200  141.9200 N   0  0  1  0  0  0  0  0  0  0  0  0
  194.1290  173.7350  146.1300 O   0  0  0  0  0  0  0  0  0  0  0  0
  192.6770  173.0240  141.9350 N   0  0  0  0  0  2  0  0  0  0  0  0
  195.6960  175.2900  143.2750 C   0  0  0  0  0  2  0  0  0  0  0  0
  194.9320  172.2230  141.5070 C   0  0  0  0  0  3  0  0  0  0  0  0
  190.4670  174.4530  141.3270 C   0  0  0  0  0  2  0  0  0  0  0  0
  191.2790  175.9290  143.8500 O   0  0  0  0  0  0  0  0  0  0  0  0
  195.6410  173.1800  142.0340 C   0  0  0  0  0  0  0  0  0  0  0  0
  192.6430  175.7780  143.6380 C   0  0  0  0  0  3  0  0  0  0  0  0
  190.4290  176.4660  142.8450 C   0  0  0  0  0  2  0  0  0  0  0  0
  195.1990  174.0410  145.3250 N   0  0  0  0  0  0  0  0  0  0  0  0
  192.9850  171.2220  140.4110 C   0  0  1  0  0  3  0  0  0  0  0  0
  194.8080  174.8200  144.3800 C   0  0  0  0  0  0  0  0  0  0  0  0
  189.6010  175.3670  142.1800 C   0  0  2  0  0  3  0  0  0  0  0  0
  193.3870  175.0920  144.4980 C   0  0  0  0  0  0  0  0  0  0  0  0
  190.3010  173.0520  141.8980 C   0  0  2  0  0  3  0  0  0  0  0  0
  188.9200  174.4940  143.2080 C   0  0  0  0  0  2  0  0  0  0  0  0
  191.5380  171.4360  140.7000 C   0  0  0  0  0  2  0  0  0  0  0  0
  191.1790  175.5200  146.8860 C   0  0  0  0  0  0  0  0  0  0  0  0
  188.9750  174.6180  147.2610 C   0  0  0  0  0  1  0  0  0  0  0  0
  192.4460  175.2860  146.7520 C   0  0  0  0  0  3  0  0  0  0  0  0
  189.8960  175.7550  146.9940 C   0  0  0  0  0  0  0  0  0  0  0  0
  189.6870  178.0930  147.3350 O   0  0  0  0  0  0  0  0  0  0  0  0
  189.3550  177.0790  146.6560 C   0  0  0  0  0  0  0  0  0  0  0  0
  188.4580  177.2160  145.5830 O   0  0  0  0  0  0  0  0  0  0  0  0
  187.0460  177.2000  145.7670 C   0  0  1  0  0  3  0  0  0  0  0  0
  185.9410  176.7430  147.9600 C   0  0  0  0  0  1  0  0  0  0  0  0
  185.8960  179.0480  147.0370 C   0  0  0  0  0  1  0  0  0  0  0  0
  186.6910  177.7660  147.1380 C   0  0  0  0  0  3  0  0  0  0  0  0
  185.9400  176.9370  143.5610 C   0  0  0  0  0  2  0  0  0  0  0  0
  187.1660  177.7970  143.3590 C   0  0  0  0  0  2  0  0  0  0  0  0
  186.3600  177.9420  144.6250 C   0  0  0  0  0  3  0  0  0  0  0  0
  192.7210  172.0780  138.0710 C   0  0  0  0  0  0  0  0  0  0  0  0
  193.2050  171.0980  138.9830 N   0  0  0  0  0  2  0  0  0  0  0  0
  192.1740  173.1340  138.5020 O   0  0  0  0  0  0  0  0  0  0  0  0
  192.7420  171.8020  136.5950 C   0  0  2  0  0  3  0  0  0  0  0  0
  190.3520  171.5130  135.9470 C   0  0  0  0  0  0  0  0  0  0  0  0
  191.5300  172.3310  135.9690 N   0  0  0  0  0  0  0  0  0  0  0  0
  189.5830  171.5340  134.9410 O   0  0  0  0  0  0  0  0  0  0  0  0
  189.9260  170.4750  137.3690 S   0  0  0  0  0  1  0  0  0  0  0  0
  191.6170  173.5080  135.1180 C   0  0  0  0  0  2  0  0  0  0  0  0
  190.8090  174.6530  135.7040 C   0  0  0  0  0  2  0  0  0  0  0  0
  192.9510  175.7400  136.2930 C   0  0  0  0  0  1  0  0  0  0  0  0
  191.6060  175.9500  135.6310 C   0  0  0  0  0  2  0  0  0  0  0  0
  193.4510  170.1400  135.0430 O   0  0  0  0  0  0  0  0  0  0  0  0
  192.9230  170.3100  136.3060 C   0  0  0  0  0  3  0  0  0  0  0  0
  194.2570  170.0410  136.1080 O   0  0  0  0  0  0  0  0  0  0  0  0
  1  9  1  1  0  0  0
  1  7  1  0  0  0  0
  2  8  1  0  0  0  0
  3  6  1  0  0  0  0
  3 25  1  1  0  0  0
  5 22  1  6  0  0  0
  5  7  1  0  0  0  0
  8 17  1  0  0  0  0
  9 12  2  0  0  0  0
 12  2  2  0  0  0  0
 13 11  1  0  0  0  0
 13 19  2  0  0  0  0
 14 11  1  0  0  0  0
 15  6  1  0  0  0  0
 16 38  1  6  0  0  0
 16 22  1  0  0  0  0
 16  1  1  0  0  0  0
 17 19  1  0  0  0  0
 17 15  2  0  0  0  0
 18 10  1  1  0  0  0
 18 14  1  0  0  0  0
 18 21  1  0  0  0  0
 19  3  1  0  0  0  0
 20 10  1  1  0  0  0
 20  5  1  0  0  0  0
 20  4  1  0  0  0  0
 21  4  1  0  0  0  0
 23 26  2  0  0  0  0
 25 23  2  0  0  0  0
 26 24  1  0  0  0  0
 28 26  1  0  0  0  0
 28 27  2  0  0  0  0
 29 28  1  0  0  0  0
 30 29  1  6  0  0  0
 30 33  1  0  0  0  0
 32 33  1  0  0  0  0
 33 31  1  0  0  0  0
 34 36  1  0  0  0  0
 35 34  1  0  0  0  0
 35 36  1  0  0  0  0
 36 30  1  0  0  0  0
 37 39  2  0  0  0  0
 37 38  1  0  0  0  0
 40 37  1  1  0  0  0
 41 42  1  0  0  0  0
 41 44  1  0  0  0  0
 42 40  1  0  0  0  0
 43 41  2  0  0  0  0
 45 46  1  0  0  0  0
 45 42  1  0  0  0  0
 48 46  1  0  0  0  0
 48 47  1  0  0  0  0
 49 51  1  0  0  0  0
 49 50  1  0  0  0  0
 50 40  1  0  0  0  0
 51 50  1  0  0  0  0
M  END
>  <MODEL>
8

>  <REMARK>
 VINA RESULT:      -5.9      2.167      4.336
  Name = 
  13 active torsions:
  status: ('A' for Active; 'I' for Inactive)
    1  A    between atoms: O_2  and  C_40
    2  A    between atoms: O_2  and  C_48
    3  A    between atoms: C_3  and  N_16
    4  A    between atoms: C_3  and  C_38
    5  A    between atoms: C_7  and  C_33
    6  A    between atoms: C_11  and  C_37
    7  A    between atoms: N_16  and  C_37
    8  A    between atoms: N_22  and  C_34
    9  A    between atoms: C_31  and  C_37
   10  A    between atoms: C_35  and  C_40
   11  A    between atoms: C_38  and  C_47
   12  A    between atoms: C_40  and  C_41
   13  A    between atoms: C_44  and  C_48
                            x       y       z     vdW  Elec       q    Type
                         _______ _______ _______ _____ _____    ______ ____

>  <TORSDO>
F 13

$$$$
=
 OpenBabel11042415243D

 51 56  0  0  1  0  0  0  0  0999 V2000
  194.2240  173.3410  141.0730 C   0  0  1  0  0  3  0  0  0  0  0  0
  196.6900  175.3790  142.7500 C   0  0  0  0  0  3  0  0  0  0  0  0
  193.2820  174.9820  145.8860 C   0  0  2  0  0  3  0  0  0  0  0  0
  190.3070  173.3870  143.4420 C   0  0  0  0  0  2  0  0  0  0  0  0
  192.2230  172.7150  142.0720 N   0  0  1  0  0  0  0  0  0  0  0  0
  194.5800  174.5640  146.3030 O   0  0  0  0  0  0  0  0  0  0  0  0
  193.2430  173.6950  142.0990 N   0  0  0  0  0  2  0  0  0  0  0  0
  195.8620  176.3970  143.4710 C   0  0  0  0  0  2  0  0  0  0  0  0
  195.5950  173.2760  141.6530 C   0  0  0  0  0  3  0  0  0  0  0  0
  190.8280  174.7590  141.5190 C   0  0  0  0  0  2  0  0  0  0  0  0
  191.4030  176.3060  144.0650 O   0  0  0  0  0  0  0  0  0  0  0  0
  196.1430  174.3270  142.1950 C   0  0  0  0  0  0  0  0  0  0  0  0
  192.7720  176.3800  143.8480 C   0  0  0  0  0  3  0  0  0  0  0  0
  190.4730  176.7140  143.0700 C   0  0  0  0  0  2  0  0  0  0  0  0
  195.5820  175.0510  145.5010 N   0  0  0  0  0  0  0  0  0  0  0  0
  193.8300  171.9930  140.5440 C   0  0  1  0  0  3  0  0  0  0  0  0
  195.0660  175.7720  144.5700 C   0  0  0  0  0  0  0  0  0  0  0  0
  189.8300  175.5070  142.3890 C   0  0  2  0  0  3  0  0  0  0  0  0
  193.6210  175.8090  144.6950 C   0  0  0  0  0  0  0  0  0  0  0  0
  190.8930  173.3410  142.0660 C   0  0  2  0  0  3  0  0  0  0  0  0
  189.3030  174.5190  143.4030 C   0  0  0  0  0  2  0  0  0  0  0  0
  192.3690  171.9650  140.8390 C   0  0  0  0  0  2  0  0  0  0  0  0
  191.3810  175.9070  147.0370 C   0  0  0  0  0  0  0  0  0  0  0  0
  189.2710  174.7650  147.2680 C   0  0  0  0  0  1  0  0  0  0  0  0
  192.6710  175.8120  146.9530 C   0  0  0  0  0  3  0  0  0  0  0  0
  190.0780  176.0030  147.0950 C   0  0  0  0  0  0  0  0  0  0  0  0
  189.6150  178.2890  147.5230 O   0  0  0  0  0  0  0  0  0  0  0  0
  189.4150  177.2780  146.7900 C   0  0  0  0  0  0  0  0  0  0  0  0
  188.5490  177.3720  145.6880 O   0  0  0  0  0  0  0  0  0  0  0  0
  187.1320  177.3320  145.8300 C   0  0  1  0  0  3  0  0  0  0  0  0
  185.9650  176.7000  147.9460 C   0  0  0  0  0  1  0  0  0  0  0  0
  185.9390  179.0710  147.2100 C   0  0  0  0  0  1  0  0  0  0  0  0
  186.7350  177.7860  147.2310 C   0  0  0  0  0  3  0  0  0  0  0  0
  185.6990  177.2280  143.8070 C   0  0  0  0  0  2  0  0  0  0  0  0
  187.0420  177.7790  143.3880 C   0  0  0  0  0  2  0  0  0  0  0  0
  186.4720  178.1580  144.7320 C   0  0  0  0  0  3  0  0  0  0  0  0
  195.1280  171.1600  138.5690 C   0  0  0  0  0  0  0  0  0  0  0  0
  194.0610  171.9290  139.1140 N   0  0  0  0  0  2  0  0  0  0  0  0
  195.8380  170.4330  139.3220 O   0  0  0  0  0  0  0  0  0  0  0  0
  195.4960  171.3110  137.1210 C   0  0  2  0  0  3  0  0  0  0  0  0
  195.6620  169.2010  135.8040 C   0  0  0  0  0  0  0  0  0  0  0  0
  194.8530  170.2630  136.3280 N   0  0  0  0  0  0  0  0  0  0  0  0
  195.4130  168.7190  134.6600 O   0  0  0  0  0  0  0  0  0  0  0  0
  197.0190  168.5090  136.7850 S   0  0  0  0  0  1  0  0  0  0  0  0
  193.5040  170.4710  135.8230 C   0  0  0  0  0  2  0  0  0  0  0  0
  192.5060  169.6300  136.6010 C   0  0  0  0  0  2  0  0  0  0  0  0
  190.1470  170.1510  137.1300 C   0  0  0  0  0  1  0  0  0  0  0  0
  191.1090  169.8000  136.0160 C   0  0  0  0  0  2  0  0  0  0  0  0
  197.3800  172.4040  136.1570 O   0  0  0  0  0  0  0  0  0  0  0  0
  197.0140  171.3190  136.9250 C   0  0  0  0  0  3  0  0  0  0  0  0
  197.5420  172.4580  137.4850 O   0  0  0  0  0  0  0  0  0  0  0  0
  1  9  1  1  0  0  0
  1  7  1  0  0  0  0
  2  8  1  0  0  0  0
  3  6  1  0  0  0  0
  3 25  1  1  0  0  0
  5 22  1  6  0  0  0
  5  7  1  0  0  0  0
  8 17  1  0  0  0  0
  9 12  2  0  0  0  0
 12  2  2  0  0  0  0
 13 11  1  0  0  0  0
 13 19  2  0  0  0  0
 14 11  1  0  0  0  0
 15  6  1  0  0  0  0
 16 38  1  6  0  0  0
 16 22  1  0  0  0  0
 16  1  1  0  0  0  0
 17 19  1  0  0  0  0
 17 15  2  0  0  0  0
 18 10  1  1  0  0  0
 18 14  1  0  0  0  0
 18 21  1  0  0  0  0
 19  3  1  0  0  0  0
 20 10  1  1  0  0  0
 20  5  1  0  0  0  0
 20  4  1  0  0  0  0
 21  4  1  0  0  0  0
 23 26  2  0  0  0  0
 25 23  2  0  0  0  0
 26 24  1  0  0  0  0
 28 26  1  0  0  0  0
 28 27  2  0  0  0  0
 29 28  1  0  0  0  0
 30 29  1  1  0  0  0
 30 33  1  0  0  0  0
 32 33  1  0  0  0  0
 33 31  1  0  0  0  0
 34 36  1  0  0  0  0
 35 34  1  0  0  0  0
 35 36  1  0  0  0  0
 36 30  1  0  0  0  0
 37 38  1  0  0  0  0
 37 39  2  0  0  0  0
 40 37  1  1  0  0  0
 41 42  1  0  0  0  0
 41 44  1  0  0  0  0
 42 40  1  0  0  0  0
 43 41  2  0  0  0  0
 45 42  1  0  0  0  0
 45 46  1  0  0  0  0
 48 46  1  0  0  0  0
 48 47  1  0  0  0  0
 49 50  1  0  0  0  0
 49 51  1  0  0  0  0
 50 40  1  0  0  0  0
 50 51  1  0  0  0  0
M  END
>  <MODEL>
9

>  <REMARK>
 VINA RESULT:      -5.9      2.123      4.061
  Name = 
  13 active torsions:
  status: ('A' for Active; 'I' for Inactive)
    1  A    between atoms: O_2  and  C_40
    2  A    between atoms: O_2  and  C_48
    3  A    between atoms: C_3  and  N_16
    4  A    between atoms: C_3  and  C_38
    5  A    between atoms: C_7  and  C_33
    6  A    between atoms: C_11  and  C_37
    7  A    between atoms: N_16  and  C_37
    8  A    between atoms: N_22  and  C_34
    9  A    between atoms: C_31  and  C_37
   10  A    between atoms: C_35  and  C_40
   11  A    between atoms: C_38  and  C_47
   12  A    between atoms: C_40  and  C_41
   13  A    between atoms: C_44  and  C_48
                            x       y       z     vdW  Elec       q    Type
                         _______ _______ _______ _____ _____    ______ ____

>  <TORSDO>
F 13

$$$$
