=
 OpenBabel11042417263D

 29 32  0  0  1  0  0  0  0  0999 V2000
  189.0080  177.1310  145.8790 C   0  0  0  0  0  2  0  0  0  0  0  0
  191.0380  173.3520  142.4360 N   0  0  2  0  0  0  0  0  0  0  0  0
  191.6230  174.5210  141.7490 C   0  0  2  0  0  3  0  0  0  0  0  0
  185.9120  179.4150  143.0410 N   0  0  0  0  0  2  0  0  0  0  0  0
  189.7760  176.6000  147.0770 C   0  0  0  0  0  2  0  0  0  0  0  0
  186.7920  177.3510  144.0440 C   0  0  0  0  0  0  0  0  0  0  0  0
  189.7370  172.9170  141.8890 C   0  0  1  0  0  3  0  0  0  0  0  0
  187.7020  177.6250  146.2850 N   0  0  0  0  0  0  0  0  0  0  0  0
  186.4530  178.0880  142.9880 C   0  0  0  0  0  0  0  0  0  0  0  0
  193.1260  174.3510  141.6300 C   0  0  0  0  0  1  0  0  0  0  0  0
  191.3350  174.6820  144.5000 N   0  0  2  0  0  0  0  0  0  0  0  0
  190.7520  174.6580  145.8390 C   0  0  0  0  0  2  0  0  0  0  0  0
  184.6440  179.2680  145.1050 C   0  0  0  0  0  2  0  0  0  0  0  0
  186.7350  177.2830  141.4160 S   0  0  0  0  0  0  0  0  0  0  0  0
  187.0690  175.7220  142.3030 C   0  0  2  0  0  3  0  0  0  0  0  0
  184.5320  177.2200  146.5130 C   0  0  0  0  0  1  0  0  0  0  0  0
  187.2470  176.0490  143.7110 N   0  0  0  0  0  2  0  0  0  0  0  0
  188.3110  175.0480  141.7400 C   0  0  0  0  0  2  0  0  0  0  0  0
  188.4940  173.6800  142.3790 C   0  0  0  0  0  2  0  0  0  0  0  0
  185.5660  180.1300  144.2630 C   0  0  0  0  0  2  0  0  0  0  0  0
  191.3040  175.8720  142.3880 C   0  0  0  0  0  2  0  0  0  0  0  0
  191.9130  175.5890  147.8240 C   0  0  0  0  0  1  0  0  0  0  0  0
  186.7070  177.7920  145.4640 C   0  0  0  0  0  0  0  0  0  0  0  0
  190.6400  175.7080  143.7360 C   0  0  0  0  0  2  0  0  0  0  0  0
  191.0670  175.9340  146.6180 C   0  0  2  0  0  3  0  0  0  0  0  0
  191.0110  173.3770  143.9140 C   0  0  0  0  0  2  0  0  0  0  0  0
  185.4280  178.3460  146.0350 C   0  0  1  0  0  3  0  0  0  0  0  0
  188.4910  172.3090  139.9190 F   0  0  0  0  0  0  0  0  0  0  0  0
  189.7610  172.5820  140.3970 C   0  0  0  0  0  2  0  0  0  0  0  0
  1  8  1  0  0  0  0
  1  5  1  0  0  0  0
  2 26  1  1  0  0  0
  3 10  1  1  0  0  0
  3 21  1  0  0  0  0
  3  2  1  0  0  0  0
  4 20  1  0  0  0  0
  6 23  1  0  0  0  0
  7 29  1  6  0  0  0
  7 19  1  0  0  0  0
  7  2  1  0  0  0  0
  9  4  1  0  0  0  0
  9  6  2  0  0  0  0
 11 24  1  6  0  0  0
 11 12  1  0  0  0  0
 12 25  1  0  0  0  0
 13 27  1  0  0  0  0
 14 15  1  0  0  0  0
 14  9  1  0  0  0  0
 15 18  1  6  0  0  0
 15 17  1  0  0  0  0
 17  6  1  0  0  0  0
 18 19  1  0  0  0  0
 20 13  1  0  0  0  0
 21 24  1  0  0  0  0
 23 27  1  0  0  0  0
 23  8  2  0  0  0  0
 25  5  1  0  0  0  0
 25 22  1  1  0  0  0
 26 11  1  0  0  0  0
 27 16  1  6  0  0  0
 28 29  1  0  0  0  0
M  END
>  <MODEL>
1

>  <REMARK>
 VINA RESULT:      -8.1      0.000      0.000
  Name = 
  1 active torsions:
  status: ('A' for Active; 'I' for Inactive)
    1  A    between atoms: C_7  and  C_24
                            x       y       z     vdW  Elec       q    Type
                         _______ _______ _______ _____ _____    ______ ____

>  <TORSDO>
F 1

$$$$
=
 OpenBabel11042417263D

 29 32  0  0  1  0  0  0  0  0999 V2000
  188.1920  174.7550  142.7630 C   0  0  0  0  0  2  0  0  0  0  0  0
  193.5950  174.8580  143.7930 N   0  0  2  0  0  0  0  0  0  0  0  0
  193.2410  173.9450  144.8990 C   0  0  2  0  0  3  0  0  0  0  0  0
  186.4640  177.0110  146.6080 N   0  0  0  0  0  2  0  0  0  0  0  0
  188.3620  174.1190  141.3940 C   0  0  0  0  0  2  0  0  0  0  0  0
  187.9710  176.9110  144.6690 C   0  0  0  0  0  0  0  0  0  0  0  0
  193.6580  176.2810  144.1780 C   0  0  1  0  0  3  0  0  0  0  0  0
  187.0800  175.6930  142.7590 N   0  0  0  0  0  0  0  0  0  0  0  0
  187.7500  177.0570  145.9740 C   0  0  0  0  0  0  0  0  0  0  0  0
  194.0460  172.6640  144.7890 C   0  0  0  0  0  1  0  0  0  0  0  0
  191.7090  173.7960  142.5960 N   0  0  2  0  0  0  0  0  0  0  0  0
  190.8610  174.1660  141.4650 C   0  0  0  0  0  2  0  0  0  0  0  0
  185.0940  177.9610  144.8450 C   0  0  0  0  0  2  0  0  0  0  0  0
  189.2320  177.3210  146.9400 S   0  0  0  0  0  0  0  0  0  0  0  0
  190.1760  177.5300  145.3900 C   0  0  2  0  0  3  0  0  0  0  0  0
  185.9920  178.7040  142.6470 C   0  0  0  0  0  1  0  0  0  0  0  0
  189.3330  177.0610  144.2990 N   0  0  0  0  0  2  0  0  0  0  0  0
  191.4750  176.7430  145.4520 C   0  0  0  0  0  2  0  0  0  0  0  0
  192.3230  177.0430  144.2240 C   0  0  0  0  0  2  0  0  0  0  0  0
  185.1910  176.8850  145.9110 C   0  0  0  0  0  2  0  0  0  0  0  0
  191.7540  173.6140  145.0130 C   0  0  0  0  0  2  0  0  0  0  0  0
  189.6790  172.4890  140.0700 C   0  0  0  0  0  1  0  0  0  0  0  0
  186.9260  176.6330  143.6450 C   0  0  0  0  0  0  0  0  0  0  0  0
  190.9780  174.1130  143.8150 C   0  0  0  0  0  2  0  0  0  0  0  0
  189.6270  173.2710  141.3640 C   0  0  2  0  0  3  0  0  0  0  0  0
  192.8720  174.6860  142.5140 C   0  0  0  0  0  2  0  0  0  0  0  0
  185.7010  177.5010  143.5230 C   0  0  1  0  0  3  0  0  0  0  0  0
  194.9310  177.9310  145.3880 F   0  0  0  0  0  0  0  0  0  0  0  0
  194.6290  176.5820  145.3210 C   0  0  0  0  0  2  0  0  0  0  0  0
  2 26  1  6  0  0  0
  2  7  1  0  0  0  0
  2  3  1  0  0  0  0
  3 10  1  6  0  0  0
  3 21  1  0  0  0  0
  5  1  1  0  0  0  0
  6  9  2  0  0  0  0
  7 19  1  0  0  0  0
  7 29  1  1  0  0  0
  8  1  1  0  0  0  0
  8 23  2  0  0  0  0
  9  4  1  0  0  0  0
  9 14  1  0  0  0  0
 11 12  1  6  0  0  0
 11 24  1  0  0  0  0
 13 20  1  0  0  0  0
 15 18  1  1  0  0  0
 15 14  1  0  0  0  0
 17  6  1  0  0  0  0
 17 15  1  0  0  0  0
 19 18  1  0  0  0  0
 20  4  1  0  0  0  0
 23  6  1  0  0  0  0
 24 21  1  0  0  0  0
 25 22  1  6  0  0  0
 25  5  1  0  0  0  0
 25 12  1  0  0  0  0
 26 11  1  0  0  0  0
 27 16  1  6  0  0  0
 27 23  1  0  0  0  0
 27 13  1  0  0  0  0
 29 28  1  0  0  0  0
M  END
>  <MODEL>
2

>  <REMARK>
 VINA RESULT:      -8.0      2.751      4.794
  Name = 
  1 active torsions:
  status: ('A' for Active; 'I' for Inactive)
    1  A    between atoms: C_7  and  C_24
                            x       y       z     vdW  Elec       q    Type
                         _______ _______ _______ _____ _____    ______ ____

>  <TORSDO>
F 1

$$$$
=
 OpenBabel11042417263D

 29 32  0  0  1  0  0  0  0  0999 V2000
  189.0410  178.0400  146.8890 C   0  0  0  0  0  2  0  0  0  0  0  0
  192.8370  174.4620  145.1420 N   0  0  2  0  0  0  0  0  0  0  0  0
  193.2810  175.5890  144.2960 C   0  0  2  0  0  3  0  0  0  0  0  0
  186.4050  178.6100  142.9400 N   0  0  0  0  0  0  0  0  0  0  0  0
  189.5460  178.0330  148.3210 C   0  0  0  0  0  2  0  0  0  0  0  0
  187.4520  177.1760  144.6390 C   0  0  2  0  0  3  0  0  0  0  0  0
  191.8950  173.5410  144.4760 C   0  0  1  0  0  3  0  0  0  0  0  0
  187.5930  178.1740  146.8550 N   0  0  0  0  0  0  0  0  0  0  0  0
  187.2530  177.5370  143.3730 C   0  0  0  0  0  0  0  0  0  0  0  0
  194.7490  175.8760  144.5500 C   0  0  0  0  0  1  0  0  0  0  0  0
  192.1970  176.2120  146.7680 N   0  0  2  0  0  0  0  0  0  0  0  0
  191.2840  176.2830  147.9070 C   0  0  0  0  0  2  0  0  0  0  0  0
  184.6850  178.5010  144.6480 C   0  0  0  0  0  2  0  0  0  0  0  0
  188.1590  176.5560  142.1840 S   0  0  0  0  0  0  0  0  0  0  0  0
  188.6070  175.3940  143.5200 C   0  0  2  0  0  3  0  0  0  0  0  0
  184.6930  176.8540  146.5120 C   0  0  0  0  0  1  0  0  0  0  0  0
  188.2920  176.0410  144.7860 N   0  0  0  0  0  2  0  0  0  0  0  0
  190.0850  175.0420  143.4420 C   0  0  0  0  0  2  0  0  0  0  0  0
  190.4150  173.9610  144.4600 C   0  0  0  0  0  2  0  0  0  0  0  0
  185.5620  179.4160  143.8130 C   0  0  0  0  0  2  0  0  0  0  0  0
  192.4680  176.8740  144.4520 C   0  0  0  0  0  2  0  0  0  0  0  0
  191.5660  177.9160  149.7530 C   0  0  0  0  0  1  0  0  0  0  0  0
  186.8620  177.8500  145.8290 C   0  0  0  0  0  0  0  0  0  0  0  0
  191.5130  176.7910  145.6200 C   0  0  0  0  0  2  0  0  0  0  0  0
  191.0380  177.7240  148.3480 C   0  0  2  0  0  3  0  0  0  0  0  0
  192.3870  174.7800  146.5150 C   0  0  0  0  0  2  0  0  0  0  0  0
  185.3780  178.0810  145.9400 C   0  0  1  0  0  3  0  0  0  0  0  0
  193.7050  172.4370  143.3320 F   0  0  0  0  0  0  0  0  0  0  0  0
  192.4220  172.9310  143.1760 C   0  0  0  0  0  2  0  0  0  0  0  0
  1  5  1  0  0  0  0
  2 26  1  1  0  0  0
  3 21  1  0  0  0  0
  3 10  1  1  0  0  0
  3  2  1  0  0  0  0
  4  9  2  0  0  0  0
  4 20  1  0  0  0  0
  5 25  1  0  0  0  0
  6  9  1  6  0  0  0
  6 17  1  0  0  0  0
  6 23  1  0  0  0  0
  7 29  1  6  0  0  0
  7  2  1  0  0  0  0
  8  1  1  0  0  0  0
 11 24  1  6  0  0  0
 11 12  1  0  0  0  0
 12 25  1  0  0  0  0
 13 27  1  0  0  0  0
 14  9  1  0  0  0  0
 14 15  1  0  0  0  0
 15 18  1  1  0  0  0
 15 17  1  0  0  0  0
 18 19  1  0  0  0  0
 19  7  1  0  0  0  0
 20 13  1  0  0  0  0
 21 24  1  0  0  0  0
 23 27  1  0  0  0  0
 23  8  2  0  0  0  0
 25 22  1  1  0  0  0
 26 11  1  0  0  0  0
 27 16  1  6  0  0  0
 29 28  1  0  0  0  0
M  END
>  <MODEL>
3

>  <REMARK>
 VINA RESULT:      -7.3      2.055      2.554
  Name = 
  1 active torsions:
  status: ('A' for Active; 'I' for Inactive)
    1  A    between atoms: C_7  and  C_24
                            x       y       z     vdW  Elec       q    Type
                         _______ _______ _______ _____ _____    ______ ____

>  <TORSDO>
F 1

$$$$
=
 OpenBabel11042417263D

 29 32  0  0  1  0  0  0  0  0999 V2000
  192.7150  173.9960  144.2480 C   0  0  0  0  0  2  0  0  0  0  0  0
  188.7540  177.7960  144.6140 N   0  0  2  0  0  0  0  0  0  0  0  0
  188.1250  176.8250  145.5310 C   0  0  2  0  0  3  0  0  0  0  0  0
  190.4160  170.4630  141.9910 N   0  0  0  0  0  0  0  0  0  0  0  0
  193.7780  174.8990  144.8490 C   0  0  0  0  0  2  0  0  0  0  0  0
  191.1320  172.8090  142.1470 C   0  0  2  0  0  3  0  0  0  0  0  0
  188.2990  177.6890  143.2130 C   0  0  1  0  0  3  0  0  0  0  0  0
  193.2890  173.1370  143.2250 N   0  0  0  0  0  0  0  0  0  0  0  0
  190.1870  171.8790  142.0270 C   0  0  0  0  0  0  0  0  0  0  0  0
  187.8460  177.4840  146.8680 C   0  0  0  0  0  1  0  0  0  0  0  0
  190.8940  176.9080  145.4800 N   0  0  2  0  0  0  0  0  0  0  0  0
  192.2760  176.8920  145.0060 C   0  0  0  0  0  2  0  0  0  0  0  0
  192.5700  170.4150  140.8760 C   0  0  0  0  0  2  0  0  0  0  0  0
  188.5270  172.5350  141.9160 S   0  0  0  0  0  0  0  0  0  0  0  0
  189.2290  174.2110  141.7310 C   0  0  2  0  0  3  0  0  0  0  0  0
  193.7860  172.4550  140.1340 C   0  0  0  0  0  1  0  0  0  0  0  0
  190.6370  174.1380  142.0940 N   0  0  0  0  0  2  0  0  0  0  0  0
  188.4870  175.1960  142.6210 C   0  0  0  0  0  2  0  0  0  0  0  0
  188.9760  176.6120  142.3490 C   0  0  0  0  0  2  0  0  0  0  0  0
  191.7260  169.8260  141.9920 C   0  0  0  0  0  2  0  0  0  0  0  0
  188.9150  175.5340  145.7460 C   0  0  0  0  0  2  0  0  0  0  0  0
  194.2160  176.6640  146.5340 C   0  0  0  0  0  1  0  0  0  0  0  0
  192.5880  172.5400  142.3060 C   0  0  0  0  0  0  0  0  0  0  0  0
  190.3000  175.6210  145.1470 C   0  0  0  0  0  2  0  0  0  0  0  0
  193.1350  175.9060  145.7940 C   0  0  2  0  0  3  0  0  0  0  0  0
  190.2250  177.9420  144.6840 C   0  0  0  0  0  2  0  0  0  0  0  0
  193.3300  171.6550  141.3390 C   0  0  1  0  0  3  0  0  0  0  0  0
  186.3090  178.9840  143.6230 F   0  0  0  0  0  0  0  0  0  0  0  0
  186.7870  177.8290  143.0300 C   0  0  0  0  0  2  0  0  0  0  0  0
  1  5  1  0  0  0  0
  2 26  1  6  0  0  0
  2  3  1  0  0  0  0
  3 21  1  0  0  0  0
  3 10  1  1  0  0  0
  4 20  1  0  0  0  0
  4  9  2  0  0  0  0
  5 25  1  0  0  0  0
  6  9  1  6  0  0  0
  6 23  1  0  0  0  0
  7 29  1  1  0  0  0
  7  2  1  0  0  0  0
  8  1  1  0  0  0  0
 11 26  1  6  0  0  0
 12 11  1  0  0  0  0
 12 25  1  0  0  0  0
 13 27  1  0  0  0  0
 13 20  1  0  0  0  0
 14  9  1  0  0  0  0
 15 14  1  0  0  0  0
 15 17  1  0  0  0  0
 15 18  1  1  0  0  0
 17  6  1  0  0  0  0
 19 18  1  0  0  0  0
 19  7  1  0  0  0  0
 23  8  2  0  0  0  0
 24 11  1  0  0  0  0
 24 21  1  0  0  0  0
 25 22  1  6  0  0  0
 27 16  1  6  0  0  0
 27 23  1  0  0  0  0
 29 28  1  0  0  0  0
M  END
>  <MODEL>
4

>  <REMARK>
 VINA RESULT:      -7.2      2.713      6.839
  Name = 
  1 active torsions:
  status: ('A' for Active; 'I' for Inactive)
    1  A    between atoms: C_7  and  C_24
                            x       y       z     vdW  Elec       q    Type
                         _______ _______ _______ _____ _____    ______ ____

>  <TORSDO>
F 1

$$$$
=
 OpenBabel11042417263D

 29 32  0  0  1  0  0  0  0  0999 V2000
  192.8590  173.3240  142.4960 C   0  0  0  0  0  2  0  0  0  0  0  0
  188.4090  176.3370  143.6720 N   0  0  2  0  0  0  0  0  0  0  0  0
  189.2460  177.4640  143.2120 C   0  0  2  0  0  3  0  0  0  0  0  0
  195.9420  174.8770  145.8040 N   0  0  0  0  0  2  0  0  0  0  0  0
  192.1550  172.5220  141.4140 C   0  0  0  0  0  2  0  0  0  0  0  0
  193.7600  173.9410  145.1670 C   0  0  0  0  0  0  0  0  0  0  0  0
  188.4440  176.1130  145.1300 C   0  0  1  0  0  3  0  0  0  0  0  0
  193.8150  172.4930  143.2110 N   0  0  0  0  0  0  0  0  0  0  0  0
  194.5070  174.8640  145.7690 C   0  0  0  0  0  0  0  0  0  0  0  0
  188.5360  178.2130  142.0990 C   0  0  0  0  0  1  0  0  0  0  0  0
  189.6580  175.0060  142.0030 N   0  0  2  0  0  0  0  0  0  0  0  0
  189.9240  173.5830  141.8030 C   0  0  0  0  0  2  0  0  0  0  0  0
  196.3820  172.4910  145.8280 C   0  0  0  0  0  2  0  0  0  0  0  0
  193.5660  176.1580  146.5680 S   0  0  0  0  0  0  0  0  0  0  0  0
  192.0440  175.1880  146.2900 C   0  0  2  0  0  3  0  0  0  0  0  0
  194.5980  170.7570  145.7880 C   0  0  0  0  0  1  0  0  0  0  0  0
  192.3640  174.1340  145.3380 N   0  0  0  0  0  2  0  0  0  0  0  0
  190.9350  176.0830  145.7590 C   0  0  0  0  0  2  0  0  0  0  0  0
  189.6320  175.3010  145.6750 C   0  0  0  0  0  2  0  0  0  0  0  0
  196.8020  173.8350  145.2610 C   0  0  0  0  0  2  0  0  0  0  0  0
  190.6550  177.0810  142.7620 C   0  0  0  0  0  2  0  0  0  0  0  0
  190.4840  172.6220  139.5860 C   0  0  0  0  0  1  0  0  0  0  0  0
  194.2830  172.7840  144.3890 C   0  0  0  0  0  0  0  0  0  0  0  0
  190.8210  175.5820  142.6630 C   0  0  0  0  0  2  0  0  0  0  0  0
  191.0420  173.3520  140.7880 C   0  0  2  0  0  3  0  0  0  0  0  0
  188.5280  175.0600  142.9360 C   0  0  0  0  0  2  0  0  0  0  0  0
  195.2940  171.8370  144.9810 C   0  0  1  0  0  3  0  0  0  0  0  0
  186.9430  177.9760  145.4190 F   0  0  0  0  0  0  0  0  0  0  0  0
  188.0380  177.3280  145.9650 C   0  0  0  0  0  2  0  0  0  0  0  0
  1  8  1  0  0  0  0
  2 26  1  6  0  0  0
  2  7  1  0  0  0  0
  3 10  1  6  0  0  0
  3  2  1  0  0  0  0
  5  1  1  0  0  0  0
  6 17  1  0  0  0  0
  6  9  2  0  0  0  0
  7 19  1  0  0  0  0
  7 29  1  1  0  0  0
  8 23  2  0  0  0  0
  9  4  1  0  0  0  0
  9 14  1  0  0  0  0
 11 12  1  1  0  0  0
 11 24  1  0  0  0  0
 11 26  1  0  0  0  0
 15 18  1  6  0  0  0
 15 14  1  0  0  0  0
 17 15  1  0  0  0  0
 19 18  1  0  0  0  0
 20  4  1  0  0  0  0
 20 13  1  0  0  0  0
 21  3  1  0  0  0  0
 23 27  1  0  0  0  0
 23  6  1  0  0  0  0
 24 21  1  0  0  0  0
 25 22  1  6  0  0  0
 25  5  1  0  0  0  0
 25 12  1  0  0  0  0
 27 16  1  1  0  0  0
 27 13  1  0  0  0  0
 28 29  1  0  0  0  0
M  END
>  <MODEL>
5

>  <REMARK>
 VINA RESULT:      -7.1      3.460      7.704
  Name = 
  1 active torsions:
  status: ('A' for Active; 'I' for Inactive)
    1  A    between atoms: C_7  and  C_24
                            x       y       z     vdW  Elec       q    Type
                         _______ _______ _______ _____ _____    ______ ____

>  <TORSDO>
F 1

$$$$
=
 OpenBabel11042417263D

 29 32  0  0  1  0  0  0  0  0999 V2000
  190.7090  176.7320  144.7080 C   0  0  0  0  0  2  0  0  0  0  0  0
  192.8470  171.8820  143.2370 N   0  0  2  0  0  0  0  0  0  0  0  0
  193.2980  172.6220  142.0400 C   0  0  2  0  0  3  0  0  0  0  0  0
  187.2880  177.2840  141.4130 N   0  0  0  0  0  0  0  0  0  0  0  0
  191.5810  176.8570  145.9450 C   0  0  0  0  0  2  0  0  0  0  0  0
  188.3850  175.9680  143.1760 C   0  0  2  0  0  3  0  0  0  0  0  0
  191.5580  171.1830  143.0660 C   0  0  1  0  0  3  0  0  0  0  0  0
  189.3910  177.2970  144.9500 N   0  0  0  0  0  0  0  0  0  0  0  0
  187.9310  176.1110  141.9320 C   0  0  0  0  0  0  0  0  0  0  0  0
  194.8010  172.4860  141.8860 C   0  0  0  0  0  1  0  0  0  0  0  0
  193.1470  174.0330  144.4200 N   0  0  2  0  0  0  0  0  0  0  0  0
  192.6420  174.6090  145.6640 C   0  0  0  0  0  2  0  0  0  0  0  0
  186.1500  178.0570  143.4130 C   0  0  0  0  0  2  0  0  0  0  0  0
  188.1920  174.6810  140.8910 S   0  0  0  0  0  0  0  0  0  0  0  0
  188.6990  173.7300  142.3660 C   0  0  2  0  0  3  0  0  0  0  0  0
  186.2810  176.8980  145.6100 C   0  0  0  0  0  1  0  0  0  0  0  0
  188.9250  174.6830  143.4430 N   0  0  0  0  0  2  0  0  0  0  0  0
  189.9580  172.9300  142.0730 C   0  0  0  0  0  2  0  0  0  0  0  0
  190.2860  172.0270  143.2530 C   0  0  0  0  0  2  0  0  0  0  0  0
  186.9530  178.4690  142.1920 C   0  0  0  0  0  2  0  0  0  0  0  0
  192.9060  174.0990  142.0090 C   0  0  0  0  0  2  0  0  0  0  0  0
  193.8300  176.4100  146.8880 C   0  0  0  0  0  1  0  0  0  0  0  0
  188.3420  177.0160  144.2330 C   0  0  0  0  0  0  0  0  0  0  0  0
  192.3310  174.5520  143.3310 C   0  0  0  0  0  2  0  0  0  0  0  0
  192.8950  176.1140  145.7360 C   0  0  2  0  0  3  0  0  0  0  0  0
  192.8980  172.5920  144.5330 C   0  0  0  0  0  2  0  0  0  0  0  0
  187.0560  177.7120  144.5920 C   0  0  1  0  0  3  0  0  0  0  0  0
  190.4410  169.3390  141.9900 F   0  0  0  0  0  0  0  0  0  0  0  0
  191.5270  170.1920  141.9020 C   0  0  0  0  0  2  0  0  0  0  0  0
  1  8  1  0  0  0  0
  1  5  1  0  0  0  0
  2 26  1  1  0  0  0
  3 10  1  1  0  0  0
  3  2  1  0  0  0  0
  4  9  2  0  0  0  0
  4 20  1  0  0  0  0
  6  9  1  1  0  0  0
  6 17  1  0  0  0  0
  6 23  1  0  0  0  0
  7 29  1  6  0  0  0
  7  2  1  0  0  0  0
  7 19  1  0  0  0  0
 11 24  1  6  0  0  0
 11 26  1  0  0  0  0
 11 12  1  0  0  0  0
 12 25  1  0  0  0  0
 13 27  1  0  0  0  0
 14  9  1  0  0  0  0
 14 15  1  0  0  0  0
 15 18  1  6  0  0  0
 15 17  1  0  0  0  0
 18 19  1  0  0  0  0
 20 13  1  0  0  0  0
 21  3  1  0  0  0  0
 21 24  1  0  0  0  0
 23 27  1  0  0  0  0
 23  8  2  0  0  0  0
 25  5  1  0  0  0  0
 25 22  1  1  0  0  0
 27 16  1  1  0  0  0
 29 28  1  0  0  0  0
M  END
>  <MODEL>
6

>  <REMARK>
 VINA RESULT:      -7.1      1.986      2.528
  Name = 
  1 active torsions:
  status: ('A' for Active; 'I' for Inactive)
    1  A    between atoms: C_7  and  C_24
                            x       y       z     vdW  Elec       q    Type
                         _______ _______ _______ _____ _____    ______ ____

>  <TORSDO>
F 1

$$$$
=
 OpenBabel11042417263D

 29 32  0  0  1  0  0  0  0  0999 V2000
  191.1280  173.8700  141.7580 C   0  0  0  0  0  2  0  0  0  0  0  0
  186.9260  176.8320  143.7180 N   0  0  2  0  0  0  0  0  0  0  0  0
  187.6360  177.9640  143.0870 C   0  0  2  0  0  3  0  0  0  0  0  0
  194.7560  175.5410  144.3850 N   0  0  0  0  0  2  0  0  0  0  0  0
  190.2460  173.0350  140.8450 C   0  0  0  0  0  2  0  0  0  0  0  0
  192.5120  174.5560  144.1960 C   0  0  0  0  0  0  0  0  0  0  0  0
  187.2450  176.6380  145.1460 C   0  0  1  0  0  3  0  0  0  0  0  0
  192.2200  173.0710  142.2900 N   0  0  0  0  0  0  0  0  0  0  0  0
  193.3420  175.5040  144.6270 C   0  0  0  0  0  0  0  0  0  0  0  0
  186.7110  178.6770  142.1190 C   0  0  0  0  0  1  0  0  0  0  0  0
  187.8580  175.4880  141.8620 N   0  0  2  0  0  0  0  0  0  0  0  0
  188.1100  174.0670  141.6380 C   0  0  0  0  0  2  0  0  0  0  0  0
  195.2410  173.1640  144.3630 C   0  0  0  0  0  2  0  0  0  0  0  0
  192.5460  176.7980  145.5700 S   0  0  0  0  0  0  0  0  0  0  0  0
  191.0180  175.7970  145.6070 C   0  0  2  0  0  3  0  0  0  0  0  0
  193.5190  171.4000  144.6960 C   0  0  0  0  0  1  0  0  0  0  0  0
  191.1720  174.7290  144.6280 N   0  0  0  0  0  2  0  0  0  0  0  0
  189.8100  176.6620  145.2840 C   0  0  0  0  0  2  0  0  0  0  0  0
  188.5320  175.8570  145.4650 C   0  0  0  0  0  2  0  0  0  0  0  0
  195.5170  174.5030  143.7040 C   0  0  0  0  0  2  0  0  0  0  0  0
  188.9400  177.5950  142.3800 C   0  0  0  0  0  2  0  0  0  0  0  0
  188.2530  173.0700  139.3710 C   0  0  0  0  0  1  0  0  0  0  0  0
  192.9000  173.3920  143.3510 C   0  0  0  0  0  0  0  0  0  0  0  0
  189.1140  176.0970  142.2770 C   0  0  0  0  0  2  0  0  0  0  0  0
  189.0170  173.8340  140.4310 C   0  0  2  0  0  3  0  0  0  0  0  0
  186.9270  175.5420  142.9940 C   0  0  0  0  0  2  0  0  0  0  0  0
  194.0240  172.4750  143.7530 C   0  0  1  0  0  3  0  0  0  0  0  0
  185.7680  178.4540  145.7170 F   0  0  0  0  0  0  0  0  0  0  0  0
  186.9820  177.8630  146.0230 C   0  0  0  0  0  2  0  0  0  0  0  0
  1  8  1  0  0  0  0
  2 26  1  6  0  0  0
  2  7  1  0  0  0  0
  3 10  1  6  0  0  0
  3  2  1  0  0  0  0
  4  9  1  0  0  0  0
  5  1  1  0  0  0  0
  6  9  2  0  0  0  0
  6 17  1  0  0  0  0
  7 19  1  0  0  0  0
  7 29  1  1  0  0  0
  8 23  2  0  0  0  0
  9 14  1  0  0  0  0
 11 12  1  1  0  0  0
 11 24  1  0  0  0  0
 11 26  1  0  0  0  0
 14 15  1  0  0  0  0
 15 18  1  6  0  0  0
 17 15  1  0  0  0  0
 18 19  1  0  0  0  0
 20 13  1  0  0  0  0
 20  4  1  0  0  0  0
 21  3  1  0  0  0  0
 23 27  1  0  0  0  0
 23  6  1  0  0  0  0
 24 21  1  0  0  0  0
 25 22  1  6  0  0  0
 25  5  1  0  0  0  0
 25 12  1  0  0  0  0
 27 13  1  0  0  0  0
 27 16  1  1  0  0  0
 28 29  1  0  0  0  0
M  END
>  <MODEL>
7

>  <REMARK>
 VINA RESULT:      -7.0      2.840      7.313
  Name = 
  1 active torsions:
  status: ('A' for Active; 'I' for Inactive)
    1  A    between atoms: C_7  and  C_24
                            x       y       z     vdW  Elec       q    Type
                         _______ _______ _______ _____ _____    ______ ____

>  <TORSDO>
F 1

$$$$
=
 OpenBabel11042417263D

 29 32  0  0  1  0  0  0  0  0999 V2000
  189.5780  173.7660  143.0500 C   0  0  0  0  0  2  0  0  0  0  0  0
  195.0430  173.2700  143.4390 N   0  0  2  0  0  0  0  0  0  0  0  0
  194.7270  172.4750  144.6420 C   0  0  2  0  0  3  0  0  0  0  0  0
  188.6060  176.4390  146.8940 N   0  0  0  0  0  2  0  0  0  0  0  0
  189.5040  173.0350  141.7210 C   0  0  0  0  0  2  0  0  0  0  0  0
  189.8410  176.0410  144.8060 C   0  0  0  0  0  0  0  0  0  0  0  0
  195.3150  174.6960  143.7090 C   0  0  1  0  0  3  0  0  0  0  0  0
  188.5890  174.8300  143.1060 N   0  0  0  0  0  0  0  0  0  0  0  0
  189.8010  176.2900  146.1140 C   0  0  0  0  0  0  0  0  0  0  0  0
  195.3610  171.1010  144.5340 C   0  0  0  0  0  1  0  0  0  0  0  0
  192.9150  172.3770  142.5480 N   0  0  2  0  0  0  0  0  0  0  0  0
  191.9820  172.7800  141.4990 C   0  0  0  0  0  2  0  0  0  0  0  0
  187.1450  177.4420  145.2360 C   0  0  0  0  0  2  0  0  0  0  0  0
  191.4110  176.4280  146.8800 S   0  0  0  0  0  0  0  0  0  0  0  0
  192.1740  176.4290  145.2210 C   0  0  2  0  0  3  0  0  0  0  0  0
  187.8450  177.9400  142.9010 C   0  0  0  0  0  1  0  0  0  0  0  0
  191.1550  176.0020  144.2710 N   0  0  0  0  0  2  0  0  0  0  0  0
  193.3730  175.4940  145.1890 C   0  0  0  0  0  2  0  0  0  0  0  0
  194.0910  175.6160  143.8530 C   0  0  0  0  0  2  0  0  0  0  0  0
  187.2510  176.4270  146.3600 C   0  0  0  0  0  2  0  0  0  0  0  0
  193.2370  172.3340  144.9510 C   0  0  0  0  0  2  0  0  0  0  0  0
  190.4540  171.1810  140.3760 C   0  0  0  0  0  1  0  0  0  0  0  0
  188.6530  175.8330  143.9330 C   0  0  0  0  0  0  0  0  0  0  0  0
  192.3820  172.8520  143.8170 C   0  0  0  0  0  2  0  0  0  0  0  0
  190.6520  172.0390  141.6070 C   0  0  2  0  0  3  0  0  0  0  0  0
  194.1530  173.1130  142.2680 C   0  0  0  0  0  2  0  0  0  0  0  0
  187.5290  176.8340  143.8900 C   0  0  1  0  0  3  0  0  0  0  0  0
  197.5820  174.2230  144.3760 F   0  0  0  0  0  0  0  0  0  0  0  0
  196.4480  174.9430  144.7070 C   0  0  0  0  0  2  0  0  0  0  0  0
  1  8  1  0  0  0  0
  2 26  1  6  0  0  0
  2  7  1  0  0  0  0
  2  3  1  0  0  0  0
  3 10  1  6  0  0  0
  3 21  1  0  0  0  0
  5  1  1  0  0  0  0
  6  9  2  0  0  0  0
  7 19  1  0  0  0  0
  7 29  1  1  0  0  0
  8 23  2  0  0  0  0
  9 14  1  0  0  0  0
  9  4  1  0  0  0  0
 11 12  1  6  0  0  0
 11 24  1  0  0  0  0
 12 25  1  0  0  0  0
 13 20  1  0  0  0  0
 15 18  1  1  0  0  0
 15 14  1  0  0  0  0
 17  6  1  0  0  0  0
 17 15  1  0  0  0  0
 19 18  1  0  0  0  0
 20  4  1  0  0  0  0
 23  6  1  0  0  0  0
 24 21  1  0  0  0  0
 25 22  1  6  0  0  0
 25  5  1  0  0  0  0
 26 11  1  0  0  0  0
 27 16  1  6  0  0  0
 27 23  1  0  0  0  0
 27 13  1  0  0  0  0
 28 29  1  0  0  0  0
M  END
>  <MODEL>
8

>  <REMARK>
 VINA RESULT:      -6.6      3.270      5.498
  Name = 
  1 active torsions:
  status: ('A' for Active; 'I' for Inactive)
    1  A    between atoms: C_7  and  C_24
                            x       y       z     vdW  Elec       q    Type
                         _______ _______ _______ _____ _____    ______ ____

>  <TORSDO>
F 1

$$$$
=
 OpenBabel11042417263D

 29 32  0  0  1  0  0  0  0  0999 V2000
  192.7910  173.4120  142.9140 C   0  0  0  0  0  2  0  0  0  0  0  0
  189.7420  176.0890  146.6290 N   0  0  2  0  0  0  0  0  0  0  0  0
  189.7340  177.1640  145.6160 C   0  0  2  0  0  3  0  0  0  0  0  0
  196.7810  176.0470  142.9060 N   0  0  0  0  0  0  0  0  0  0  0  0
  191.7710  172.3020  142.7270 C   0  0  0  0  0  2  0  0  0  0  0  0
  195.0660  174.7430  144.0900 C   0  0  2  0  0  3  0  0  0  0  0  0
  190.8050  176.2220  147.6450 C   0  0  1  0  0  3  0  0  0  0  0  0
  194.1440  172.8900  142.8100 N   0  0  0  0  0  0  0  0  0  0  0  0
  195.7630  175.8620  143.9000 C   0  0  0  0  0  0  0  0  0  0  0  0
  188.3050  177.5410  145.2750 C   0  0  0  0  0  1  0  0  0  0  0  0
  189.8150  174.5520  144.6930 N   0  0  2  0  0  0  0  0  0  0  0  0
  190.2180  173.1630  144.4880 C   0  0  0  0  0  2  0  0  0  0  0  0
  197.6950  173.8010  142.8190 C   0  0  0  0  0  2  0  0  0  0  0  0
  195.3260  177.1920  145.0130 S   0  0  0  0  0  0  0  0  0  0  0  0
  194.3200  176.0160  145.9830 C   0  0  2  0  0  3  0  0  0  0  0  0
  196.8570  171.9150  144.2080 C   0  0  0  0  0  1  0  0  0  0  0  0
  194.1620  174.8100  145.1820 N   0  0  0  0  0  2  0  0  0  0  0  0
  192.9690  176.6270  146.3200 C   0  0  0  0  0  2  0  0  0  0  0  0
  192.2000  175.7040  147.2540 C   0  0  0  0  0  2  0  0  0  0  0  0
  197.2710  175.0110  142.0070 C   0  0  0  0  0  2  0  0  0  0  0  0
  190.5060  176.8490  144.3350 C   0  0  0  0  0  2  0  0  0  0  0  0
  189.3510  171.7750  142.6250 C   0  0  0  0  0  1  0  0  0  0  0  0
  195.1930  173.5020  143.2760 C   0  0  0  0  0  0  0  0  0  0  0  0
  190.9270  175.3980  144.2800 C   0  0  0  0  0  2  0  0  0  0  0  0
  190.3690  172.8280  143.0060 C   0  0  2  0  0  3  0  0  0  0  0  0
  189.6450  174.6960  146.1420 C   0  0  0  0  0  2  0  0  0  0  0  0
  196.5290  172.8450  143.0560 C   0  0  1  0  0  3  0  0  0  0  0  0
  191.5660  177.4850  149.5500 F   0  0  0  0  0  0  0  0  0  0  0  0
  190.7840  177.5460  148.4100 C   0  0  0  0  0  2  0  0  0  0  0  0
  2 26  1  6  0  0  0
  2  7  1  0  0  0  0
  3 10  1  6  0  0  0
  3  2  1  0  0  0  0
  4  9  2  0  0  0  0
  5  1  1  0  0  0  0
  5 25  1  0  0  0  0
  6 23  1  1  0  0  0
  6 17  1  0  0  0  0
  7 29  1  6  0  0  0
  8  1  1  0  0  0  0
  8 23  2  0  0  0  0
  9  6  1  0  0  0  0
  9 14  1  0  0  0  0
 11 24  1  1  0  0  0
 11 26  1  0  0  0  0
 12 11  1  0  0  0  0
 13 27  1  0  0  0  0
 14 15  1  0  0  0  0
 15 18  1  6  0  0  0
 17 15  1  0  0  0  0
 18 19  1  0  0  0  0
 19  7  1  0  0  0  0
 20 13  1  0  0  0  0
 20  4  1  0  0  0  0
 21  3  1  0  0  0  0
 24 21  1  0  0  0  0
 25 22  1  1  0  0  0
 25 12  1  0  0  0  0
 27 23  1  0  0  0  0
 27 16  1  1  0  0  0
 29 28  1  0  0  0  0
M  END
>  <MODEL>
9

>  <REMARK>
 VINA RESULT:      -6.6      3.834      8.336
  Name = 
  1 active torsions:
  status: ('A' for Active; 'I' for Inactive)
    1  A    between atoms: C_7  and  C_24
                            x       y       z     vdW  Elec       q    Type
                         _______ _______ _______ _____ _____    ______ ____

>  <TORSDO>
F 1

$$$$
