=
 OpenBabel11042414013D

 31 33  0  0  1  0  0  0  0  0999 V2000
  186.7170  178.3700  145.1460 N   0  0  0  0  0  0  0  0  0  0  0  0
  187.4360  177.0180  140.6490 N   0  0  0  0  0  0  0  0  0  0  0  0
  185.5280  178.5590  143.0800 C   0  0  0  0  0  0  0  0  0  0  0  0
  184.5270  179.3930  145.0690 C   0  0  0  0  0  3  0  0  0  0  0  0
  186.6390  178.1680  143.8080 C   0  0  0  0  0  0  0  0  0  0  0  0
  186.6190  176.7940  138.3600 N   0  0  0  0  0  1  0  0  0  0  0  0
  185.6740  178.9840  145.7900 C   0  0  0  0  0  0  0  0  0  0  0  0
  187.5640  177.5460  143.0340 N   0  0  0  0  0  0  0  0  0  0  0  0
  185.7890  178.1540  141.7980 C   0  0  0  0  0  0  0  0  0  0  0  0
  186.4810  177.2410  139.7030 C   0  0  0  0  0  0  0  0  0  0  0  0
  185.0950  178.0770  140.2790 S   0  0  0  0  0  0  0  0  0  0  0  0
  186.9990  177.5600  141.8070 C   0  0  0  0  0  0  0  0  0  0  0  0
  184.4400  179.1760  143.6820 C   0  0  0  0  0  3  0  0  0  0  0  0
  188.8200  176.9350  143.4680 C   0  0  2  0  0  3  0  0  0  0  0  0
  189.9140  177.1820  142.4320 C   0  0  0  0  0  2  0  0  0  0  0  0
  191.2590  177.4060  143.1030 C   0  0  0  0  0  2  0  0  0  0  0  0
  191.4440  179.4570  143.7180 F   0  0  0  0  0  0  0  0  0  0  0  0
  191.1110  178.2680  144.1910 O   0  0  0  0  0  0  0  0  0  0  0  0
  188.6370  175.4350  143.7350 C   0  0  1  0  0  3  0  0  0  0  0  0
  188.1570  173.7250  142.0020 C   0  0  0  0  0  2  0  0  0  0  0  0
  189.0030  174.6040  142.5380 C   0  0  0  0  0  3  0  0  0  0  0  0
  189.4290  175.0150  144.8860 N   0  0  0  0  0  2  0  0  0  0  0  0
  189.1820  175.9600  145.9640 C   0  0  0  0  0  2  0  0  0  0  0  0
  190.0550  175.6270  147.1580 C   0  0  0  0  0  2  0  0  0  0  0  0
  192.6020  174.5930  146.4410 O   0  0  0  0  0  0  0  0  0  0  0  0
  193.7460  176.6650  146.6570 C   0  0  0  0  0  1  0  0  0  0  0  0
  191.2790  176.4050  147.0930 N   0  0  0  0  0  2  0  0  0  0  0  0
  192.5260  175.8200  146.7180 C   0  0  0  0  0  0  0  0  0  0  0  0
  185.7290  179.2110  147.2000 N   0  0  0  0  0  2  0  0  0  0  0  0
  186.5730  178.4310  148.0930 C   0  0  0  0  0  2  0  0  0  0  0  0
  186.1770  176.9680  148.0410 C   0  0  0  0  0  1  0  0  0  0  0  0
  1  7  2  0  0  0  0
  2 12  1  0  0  0  0
  3 13  1  0  0  0  0
  3  5  2  0  0  0  0
  4  7  1  0  0  0  0
  5  1  1  0  0  0  0
  6 10  1  0  0  0  0
  7 29  1  0  0  0  0
  8 14  1  0  0  0  0
  8  5  1  0  0  0  0
  9 12  2  0  0  0  0
  9  3  1  0  0  0  0
 10 11  1  0  0  0  0
 10  2  2  0  0  0  0
 11  9  1  0  0  0  0
 12  8  1  0  0  0  0
 13  4  2  0  0  0  0
 14 15  1  6  0  0  0
 14 19  1  0  0  0  0
 15 16  1  0  0  0  0
 16 18  1  0  0  0  0
 17 18  1  0  0  0  0
 19 21  1  6  0  0  0
 19 22  1  0  0  0  0
 20 21  2  0  0  0  0
 22 23  1  0  0  0  0
 23 24  1  0  0  0  0
 25 28  2  0  0  0  0
 26 28  1  0  0  0  0
 27 24  1  0  0  0  0
 28 27  1  0  0  0  0
 29 30  1  0  0  0  0
 31 30  1  0  0  0  0
M  END
>  <MODEL>
1

>  <REMARK>
 VINA RESULT:      -6.2      0.000      0.000
  Name = 
  12 active torsions:
  status: ('A' for Active; 'I' for Inactive)
    1  A    between atoms: C_4  and  O_14
    2  A    between atoms: C_4  and  C_19
    3  A    between atoms: N_5  and  C_26
    4  A    between atoms: N_5  and  C_28
    5  A    between atoms: C_6  and  C_19
    6  A    between atoms: C_6  and  N_20
    7  A    between atoms: C_6  and  C_28
    8  A    between atoms: C_8  and  N_18
    9  A    between atoms: C_16  and  N_18
   10  A    between atoms: N_17  and  C_22
   11  A    between atoms: C_22  and  C_26
   12  A    between atoms: C_24  and  C_28
                            x       y       z     vdW  Elec       q    Type
                         _______ _______ _______ _____ _____    ______ ____

>  <TORSDO>
F 12

$$$$
=
 OpenBabel11042414013D

 31 33  0  0  1  0  0  0  0  0999 V2000
  186.5480  177.1160  144.7450 N   0  0  0  0  0  0  0  0  0  0  0  0
  190.9220  175.2760  144.9620 N   0  0  0  0  0  0  0  0  0  0  0  0
  187.9780  176.2760  146.4670 C   0  0  0  0  0  0  0  0  0  0  0  0
  185.8640  177.1840  147.0640 C   0  0  0  0  0  3  0  0  0  0  0  0
  187.7100  176.5370  145.1340 C   0  0  0  0  0  0  0  0  0  0  0  0
  192.8030  174.4640  146.2890 N   0  0  0  0  0  1  0  0  0  0  0  0
  185.6140  177.4410  145.6950 C   0  0  0  0  0  0  0  0  0  0  0  0
  188.7450  176.1910  144.3270 N   0  0  0  0  0  0  0  0  0  0  0  0
  189.2410  175.7430  146.4720 C   0  0  0  0  0  0  0  0  0  0  0  0
  191.4720  174.9520  146.1670 C   0  0  0  0  0  0  0  0  0  0  0  0
  190.4360  175.2120  147.5120 S   0  0  0  0  0  0  0  0  0  0  0  0
  189.6630  175.7080  145.1920 C   0  0  0  0  0  0  0  0  0  0  0  0
  187.0740  176.5930  147.4700 C   0  0  0  0  0  3  0  0  0  0  0  0
  188.8490  176.3900  142.8810 C   0  0  2  0  0  3  0  0  0  0  0  0
  189.2890  177.8200  142.5750 C   0  0  0  0  0  2  0  0  0  0  0  0
  190.7980  177.9610  142.6880 C   0  0  0  0  0  2  0  0  0  0  0  0
  192.1960  178.0490  144.3190 F   0  0  0  0  0  0  0  0  0  0  0  0
  191.1250  178.6650  143.8480 O   0  0  0  0  0  0  0  0  0  0  0  0
  187.5230  176.0550  142.1840 C   0  0  1  0  0  3  0  0  0  0  0  0
  186.2810  177.5290  140.6210 C   0  0  0  0  0  2  0  0  0  0  0  0
  187.3670  176.8050  140.8900 C   0  0  0  0  0  3  0  0  0  0  0  0
  187.4180  174.6220  141.9370 N   0  0  0  0  0  2  0  0  0  0  0  0
  188.4680  174.2550  140.9980 C   0  0  0  0  0  2  0  0  0  0  0  0
  188.8550  172.8020  141.1930 C   0  0  0  0  0  2  0  0  0  0  0  0
  190.9850  172.4700  143.0440 O   0  0  0  0  0  0  0  0  0  0  0  0
  189.5860  171.9390  144.8900 C   0  0  0  0  0  1  0  0  0  0  0  0
  188.6930  172.4420  142.5900 N   0  0  0  0  0  2  0  0  0  0  0  0
  189.8100  172.2980  143.4660 C   0  0  0  0  0  0  0  0  0  0  0  0
  184.3790  178.0520  145.3140 N   0  0  0  0  0  2  0  0  0  0  0  0
  184.2270  178.8330  144.0950 C   0  0  0  0  0  2  0  0  0  0  0  0
  185.1960  180.0000  144.0990 C   0  0  0  0  0  1  0  0  0  0  0  0
  1  5  1  0  0  0  0
  1  7  2  0  0  0  0
  2 12  1  0  0  0  0
  2 10  2  0  0  0  0
  3  9  1  0  0  0  0
  3 13  1  0  0  0  0
  4 13  2  0  0  0  0
  5  3  2  0  0  0  0
  7  4  1  0  0  0  0
  8  5  1  0  0  0  0
  8 12  1  0  0  0  0
  9 11  1  0  0  0  0
 10  6  1  0  0  0  0
 10 11  1  0  0  0  0
 12  9  2  0  0  0  0
 14 15  1  1  0  0  0
 14  8  1  0  0  0  0
 15 16  1  0  0  0  0
 16 18  1  0  0  0  0
 18 17  1  0  0  0  0
 19 21  1  6  0  0  0
 19 14  1  0  0  0  0
 20 21  2  0  0  0  0
 22 19  1  0  0  0  0
 23 24  1  0  0  0  0
 23 22  1  0  0  0  0
 24 27  1  0  0  0  0
 25 28  2  0  0  0  0
 27 28  1  0  0  0  0
 28 26  1  0  0  0  0
 29  7  1  0  0  0  0
 30 31  1  0  0  0  0
 30 29  1  0  0  0  0
M  END
>  <MODEL>
2

>  <REMARK>
 VINA RESULT:      -6.0      2.527      4.928
  Name = 
  12 active torsions:
  status: ('A' for Active; 'I' for Inactive)
    1  A    between atoms: C_4  and  O_14
    2  A    between atoms: C_4  and  C_19
    3  A    between atoms: N_5  and  C_26
    4  A    between atoms: N_5  and  C_28
    5  A    between atoms: C_6  and  C_19
    6  A    between atoms: C_6  and  N_20
    7  A    between atoms: C_6  and  C_28
    8  A    between atoms: C_8  and  N_18
    9  A    between atoms: C_16  and  N_18
   10  A    between atoms: N_17  and  C_22
   11  A    between atoms: C_22  and  C_26
   12  A    between atoms: C_24  and  C_28
                            x       y       z     vdW  Elec       q    Type
                         _______ _______ _______ _____ _____    ______ ____

>  <TORSDO>
F 12

$$$$
=
 OpenBabel11042414013D

 31 33  0  0  1  0  0  0  0  0999 V2000
  187.1060  177.2840  141.2010 N   0  0  0  0  0  0  0  0  0  0  0  0
  186.6260  177.8360  145.8950 N   0  0  0  0  0  0  0  0  0  0  0  0
  185.3770  178.0180  142.6810 C   0  0  0  0  0  0  0  0  0  0  0  0
  184.9940  178.0820  140.3350 C   0  0  0  0  0  3  0  0  0  0  0  0
  186.6440  177.5090  142.4560 C   0  0  0  0  0  0  0  0  0  0  0  0
  185.3140  178.6110  147.8020 N   0  0  0  0  0  1  0  0  0  0  0  0
  186.2940  177.5600  140.1320 C   0  0  0  0  0  0  0  0  0  0  0  0
  187.3330  177.3230  143.6100 N   0  0  0  0  0  0  0  0  0  0  0  0
  185.2890  178.1510  144.0410 C   0  0  0  0  0  0  0  0  0  0  0  0
  185.4790  178.3610  146.4110 C   0  0  0  0  0  0  0  0  0  0  0  0
  184.2740  178.7190  145.2410 S   0  0  0  0  0  0  0  0  0  0  0  0
  186.4610  177.7310  144.5590 C   0  0  0  0  0  0  0  0  0  0  0  0
  184.5170  178.3240  141.6350 C   0  0  0  0  0  3  0  0  0  0  0  0
  188.7180  176.8760  143.7570 C   0  0  2  0  0  3  0  0  0  0  0  0
  189.6290  177.6580  142.8130 C   0  0  0  0  0  2  0  0  0  0  0  0
  190.7630  178.3220  143.5760 C   0  0  0  0  0  2  0  0  0  0  0  0
  192.1460  177.0020  142.5960 F   0  0  0  0  0  0  0  0  0  0  0  0
  191.7870  177.4020  143.8040 O   0  0  0  0  0  0  0  0  0  0  0  0
  188.8350  175.3650  143.5170 C   0  0  1  0  0  3  0  0  0  0  0  0
  188.9390  174.2790  141.2880 C   0  0  0  0  0  2  0  0  0  0  0  0
  189.5080  175.0560  142.2090 C   0  0  0  0  0  3  0  0  0  0  0  0
  189.5620  174.7240  144.6070 N   0  0  0  0  0  2  0  0  0  0  0  0
  189.4170  175.5600  145.7890 C   0  0  0  0  0  2  0  0  0  0  0  0
  190.2820  175.0250  146.9130 C   0  0  0  0  0  2  0  0  0  0  0  0
  192.8020  174.1740  145.9140 O   0  0  0  0  0  0  0  0  0  0  0  0
  193.9650  176.1460  146.5500 C   0  0  0  0  0  1  0  0  0  0  0  0
  191.5100  175.7980  146.9880 N   0  0  0  0  0  2  0  0  0  0  0  0
  192.7410  175.3090  146.4580 C   0  0  0  0  0  0  0  0  0  0  0  0
  186.7530  177.3330  138.7980 N   0  0  0  0  0  2  0  0  0  0  0  0
  186.7190  176.0230  138.1630 C   0  0  0  0  0  2  0  0  0  0  0  0
  186.8210  176.1700  136.6570 C   0  0  0  0  0  1  0  0  0  0  0  0
  1  5  1  0  0  0  0
  2 10  2  0  0  0  0
  3  9  1  0  0  0  0
  4 13  2  0  0  0  0
  5  3  2  0  0  0  0
  5  8  1  0  0  0  0
  7  4  1  0  0  0  0
  7  1  2  0  0  0  0
  8 14  1  0  0  0  0
  8 12  1  0  0  0  0
  9 12  2  0  0  0  0
  9 11  1  0  0  0  0
 10  6  1  0  0  0  0
 11 10  1  0  0  0  0
 12  2  1  0  0  0  0
 13  3  1  0  0  0  0
 14 15  1  6  0  0  0
 15 16  1  0  0  0  0
 16 18  1  0  0  0  0
 17 18  1  0  0  0  0
 19 21  1  6  0  0  0
 19 14  1  0  0  0  0
 19 22  1  0  0  0  0
 20 21  2  0  0  0  0
 22 23  1  0  0  0  0
 23 24  1  0  0  0  0
 24 27  1  0  0  0  0
 25 28  2  0  0  0  0
 28 26  1  0  0  0  0
 28 27  1  0  0  0  0
 29  7  1  0  0  0  0
 30 29  1  0  0  0  0
 31 30  1  0  0  0  0
M  END
>  <MODEL>
3

>  <REMARK>
 VINA RESULT:      -5.9      1.476      4.468
  Name = 
  12 active torsions:
  status: ('A' for Active; 'I' for Inactive)
    1  A    between atoms: C_4  and  O_14
    2  A    between atoms: C_4  and  C_19
    3  A    between atoms: N_5  and  C_26
    4  A    between atoms: N_5  and  C_28
    5  A    between atoms: C_6  and  C_19
    6  A    between atoms: C_6  and  N_20
    7  A    between atoms: C_6  and  C_28
    8  A    between atoms: C_8  and  N_18
    9  A    between atoms: C_16  and  N_18
   10  A    between atoms: N_17  and  C_22
   11  A    between atoms: C_22  and  C_26
   12  A    between atoms: C_24  and  C_28
                            x       y       z     vdW  Elec       q    Type
                         _______ _______ _______ _____ _____    ______ ____

>  <TORSDO>
F 12

$$$$
=
 OpenBabel11042414013D

 31 33  0  0  1  0  0  0  0  0999 V2000
  187.6730  177.5330  143.9730 N   0  0  0  0  0  0  0  0  0  0  0  0
  189.9670  174.1870  141.5030 N   0  0  0  0  0  0  0  0  0  0  0  0
  187.4280  176.5040  141.8290 C   0  0  0  0  0  0  0  0  0  0  0  0
  185.8150  178.1030  142.5330 C   0  0  0  0  0  3  0  0  0  0  0  0
  188.1100  176.6730  143.0210 C   0  0  0  0  0  0  0  0  0  0  0  0
  190.1060  172.7370  139.5440 N   0  0  0  0  0  1  0  0  0  0  0  0
  186.5320  178.2580  143.7440 C   0  0  0  0  0  0  0  0  0  0  0  0
  189.1940  175.8610  143.1090 N   0  0  0  0  0  0  0  0  0  0  0  0
  188.1310  175.5390  141.1560 C   0  0  0  0  0  0  0  0  0  0  0  0
  189.4950  173.7820  140.2900 C   0  0  0  0  0  0  0  0  0  0  0  0
  188.0920  174.6210  139.7600 S   0  0  0  0  0  0  0  0  0  0  0  0
  189.1680  175.1830  141.9410 C   0  0  0  0  0  0  0  0  0  0  0  0
  186.2630  177.2040  141.5480 C   0  0  0  0  0  3  0  0  0  0  0  0
  190.1030  175.7110  144.2460 C   0  0  2  0  0  3  0  0  0  0  0  0
  191.5270  175.4600  143.7550 C   0  0  0  0  0  2  0  0  0  0  0  0
  192.1440  176.7340  143.2020 C   0  0  0  0  0  2  0  0  0  0  0  0
  191.1850  178.6360  143.4910 F   0  0  0  0  0  0  0  0  0  0  0  0
  191.9760  177.7790  144.1130 O   0  0  0  0  0  0  0  0  0  0  0  0
  189.6310  174.5880  145.1800 C   0  0  1  0  0  3  0  0  0  0  0  0
  189.8100  172.1940  144.5520 C   0  0  0  0  0  2  0  0  0  0  0  0
  190.4010  173.3160  144.9600 C   0  0  0  0  0  3  0  0  0  0  0  0
  189.7450  174.9960  146.5760 N   0  0  0  0  0  2  0  0  0  0  0  0
  190.3290  176.3280  146.6020 C   0  0  0  0  0  2  0  0  0  0  0  0
  191.5350  176.3490  147.5210 C   0  0  0  0  0  2  0  0  0  0  0  0
  194.1280  177.3330  146.9040 O   0  0  0  0  0  0  0  0  0  0  0  0
  194.9500  175.2660  146.0660 C   0  0  0  0  0  1  0  0  0  0  0  0
  192.6040  175.5610  146.9340 N   0  0  0  0  0  2  0  0  0  0  0  0
  193.8870  176.1200  146.6560 C   0  0  0  0  0  0  0  0  0  0  0  0
  186.0470  179.1730  144.7290 N   0  0  0  0  0  2  0  0  0  0  0  0
  184.7240  179.0610  145.3260 C   0  0  0  0  0  2  0  0  0  0  0  0
  184.6600  177.8460  146.2310 C   0  0  0  0  0  1  0  0  0  0  0  0
  2 12  1  0  0  0  0
  3  5  2  0  0  0  0
  4  7  1  0  0  0  0
  5  8  1  0  0  0  0
  5  1  1  0  0  0  0
  6 10  1  0  0  0  0
  7  1  2  0  0  0  0
  7 29  1  0  0  0  0
  8 14  1  0  0  0  0
  9  3  1  0  0  0  0
  9 12  2  0  0  0  0
 10  2  2  0  0  0  0
 11 10  1  0  0  0  0
 11  9  1  0  0  0  0
 12  8  1  0  0  0  0
 13  3  1  0  0  0  0
 13  4  2  0  0  0  0
 14 15  1  6  0  0  0
 14 19  1  0  0  0  0
 16 15  1  0  0  0  0
 16 18  1  0  0  0  0
 17 18  1  0  0  0  0
 19 21  1  1  0  0  0
 19 22  1  0  0  0  0
 20 21  2  0  0  0  0
 22 23  1  0  0  0  0
 23 24  1  0  0  0  0
 26 28  1  0  0  0  0
 27 24  1  0  0  0  0
 28 25  2  0  0  0  0
 28 27  1  0  0  0  0
 29 30  1  0  0  0  0
 30 31  1  0  0  0  0
M  END
>  <MODEL>
4

>  <REMARK>
 VINA RESULT:      -5.9      2.094      2.838
  Name = 
  12 active torsions:
  status: ('A' for Active; 'I' for Inactive)
    1  A    between atoms: C_4  and  O_14
    2  A    between atoms: C_4  and  C_19
    3  A    between atoms: N_5  and  C_26
    4  A    between atoms: N_5  and  C_28
    5  A    between atoms: C_6  and  C_19
    6  A    between atoms: C_6  and  N_20
    7  A    between atoms: C_6  and  C_28
    8  A    between atoms: C_8  and  N_18
    9  A    between atoms: C_16  and  N_18
   10  A    between atoms: N_17  and  C_22
   11  A    between atoms: C_22  and  C_26
   12  A    between atoms: C_24  and  C_28
                            x       y       z     vdW  Elec       q    Type
                         _______ _______ _______ _____ _____    ______ ____

>  <TORSDO>
F 12

$$$$
=
 OpenBabel11042414013D

 31 33  0  0  1  0  0  0  0  0999 V2000
  188.9500  175.5350  145.2280 N   0  0  0  0  0  0  0  0  0  0  0  0
  186.7440  177.1060  141.3260 N   0  0  0  0  0  0  0  0  0  0  0  0
  187.0270  176.8760  144.7600 C   0  0  0  0  0  0  0  0  0  0  0  0
  187.5490  176.3560  147.0200 C   0  0  0  0  0  3  0  0  0  0  0  0
  188.1340  176.1570  144.3430 C   0  0  0  0  0  0  0  0  0  0  0  0
  184.8530  178.2530  140.2910 N   0  0  0  0  0  1  0  0  0  0  0  0
  188.6750  175.6280  146.5680 C   0  0  0  0  0  0  0  0  0  0  0  0
  188.2470  176.1320  142.9900 N   0  0  0  0  0  0  0  0  0  0  0  0
  186.4340  177.3090  143.6020 C   0  0  0  0  0  0  0  0  0  0  0  0
  185.5880  177.8210  141.4300 C   0  0  0  0  0  0  0  0  0  0  0  0
  185.0860  178.1250  143.0450 S   0  0  0  0  0  0  0  0  0  0  0  0
  187.1810  176.8520  142.5770 C   0  0  0  0  0  0  0  0  0  0  0  0
  186.6960  176.9950  146.1020 C   0  0  0  0  0  3  0  0  0  0  0  0
  189.2420  175.4110  142.1950 C   0  0  2  0  0  3  0  0  0  0  0  0
  188.6560  174.0980  141.6810 C   0  0  0  0  0  2  0  0  0  0  0  0
  188.5860  174.0910  140.1630 C   0  0  0  0  0  2  0  0  0  0  0  0
  189.3010  172.0660  140.2470 F   0  0  0  0  0  0  0  0  0  0  0  0
  188.3420  172.7950  139.7030 O   0  0  0  0  0  0  0  0  0  0  0  0
  190.5220  175.1690  143.0060 C   0  0  1  0  0  3  0  0  0  0  0  0
  191.4350  173.1540  144.1300 C   0  0  0  0  0  2  0  0  0  0  0  0
  190.8890  173.7130  143.0500 C   0  0  0  0  0  3  0  0  0  0  0  0
  191.6330  175.9400  142.4590 N   0  0  0  0  0  2  0  0  0  0  0  0
  191.7470  177.1660  143.2350 C   0  0  0  0  0  2  0  0  0  0  0  0
  192.3970  176.8750  144.5730 C   0  0  0  0  0  2  0  0  0  0  0  0
  194.3200  176.2920  146.5820 O   0  0  0  0  0  0  0  0  0  0  0  0
  195.7460  175.0330  145.1570 C   0  0  0  0  0  1  0  0  0  0  0  0
  193.6080  176.1010  144.3640 N   0  0  0  0  0  2  0  0  0  0  0  0
  194.5280  175.8410  145.4230 C   0  0  0  0  0  0  0  0  0  0  0  0
  189.5180  174.9820  147.5250 N   0  0  0  0  0  2  0  0  0  0  0  0
  190.9390  175.2720  147.6480 C   0  0  0  0  0  2  0  0  0  0  0  0
  191.1440  176.7230  148.0380 C   0  0  0  0  0  1  0  0  0  0  0  0
  1  7  2  0  0  0  0
  2 10  2  0  0  0  0
  2 12  1  0  0  0  0
  3 13  1  0  0  0  0
  5  3  2  0  0  0  0
  5  1  1  0  0  0  0
  6 10  1  0  0  0  0
  7  4  1  0  0  0  0
  7 29  1  0  0  0  0
  8  5  1  0  0  0  0
  9  3  1  0  0  0  0
 10 11  1  0  0  0  0
 11  9  1  0  0  0  0
 12  8  1  0  0  0  0
 12  9  2  0  0  0  0
 13  4  2  0  0  0  0
 14 15  1  1  0  0  0
 14  8  1  0  0  0  0
 14 19  1  0  0  0  0
 16 15  1  0  0  0  0
 18 16  1  0  0  0  0
 18 17  1  0  0  0  0
 19 21  1  6  0  0  0
 21 20  2  0  0  0  0
 22 19  1  0  0  0  0
 22 23  1  0  0  0  0
 23 24  1  0  0  0  0
 26 28  1  0  0  0  0
 27 24  1  0  0  0  0
 27 28  1  0  0  0  0
 28 25  2  0  0  0  0
 29 30  1  0  0  0  0
 30 31  1  0  0  0  0
M  END
>  <MODEL>
5

>  <REMARK>
 VINA RESULT:      -5.8      2.794      3.904
  Name = 
  12 active torsions:
  status: ('A' for Active; 'I' for Inactive)
    1  A    between atoms: C_4  and  O_14
    2  A    between atoms: C_4  and  C_19
    3  A    between atoms: N_5  and  C_26
    4  A    between atoms: N_5  and  C_28
    5  A    between atoms: C_6  and  C_19
    6  A    between atoms: C_6  and  N_20
    7  A    between atoms: C_6  and  C_28
    8  A    between atoms: C_8  and  N_18
    9  A    between atoms: C_16  and  N_18
   10  A    between atoms: N_17  and  C_22
   11  A    between atoms: C_22  and  C_26
   12  A    between atoms: C_24  and  C_28
                            x       y       z     vdW  Elec       q    Type
                         _______ _______ _______ _____ _____    ______ ____

>  <TORSDO>
F 12

$$$$
=
 OpenBabel11042414013D

 31 33  0  0  1  0  0  0  0  0999 V2000
  187.1520  177.9220  143.6720 N   0  0  0  0  0  0  0  0  0  0  0  0
  189.7170  174.0260  142.7740 N   0  0  0  0  0  0  0  0  0  0  0  0
  187.4930  176.4800  141.7950 C   0  0  0  0  0  0  0  0  0  0  0  0
  185.9360  178.2660  141.6100 C   0  0  0  0  0  3  0  0  0  0  0  0
  187.7700  176.8620  143.0970 C   0  0  0  0  0  0  0  0  0  0  0  0
  190.3100  172.1930  141.2760 N   0  0  0  0  0  1  0  0  0  0  0  0
  186.2380  178.6370  142.9420 C   0  0  0  0  0  0  0  0  0  0  0  0
  188.6670  176.0350  143.6920 N   0  0  0  0  0  0  0  0  0  0  0  0
  188.2590  175.3630  141.5880 C   0  0  0  0  0  0  0  0  0  0  0  0
  189.6170  173.4000  141.5680 C   0  0  0  0  0  0  0  0  0  0  0  0
  188.5660  174.1750  140.4520 S   0  0  0  0  0  0  0  0  0  0  0  0
  188.9400  175.1290  142.7280 C   0  0  0  0  0  0  0  0  0  0  0  0
  186.5700  177.1610  141.0150 C   0  0  0  0  0  3  0  0  0  0  0  0
  189.1370  176.0830  145.0770 C   0  0  2  0  0  3  0  0  0  0  0  0
  188.2610  177.0250  145.9000 C   0  0  0  0  0  2  0  0  0  0  0  0
  187.4280  176.2510  146.9070 C   0  0  0  0  0  2  0  0  0  0  0  0
  186.0390  177.4380  148.0390 F   0  0  0  0  0  0  0  0  0  0  0  0
  186.1200  176.7400  146.9200 O   0  0  0  0  0  0  0  0  0  0  0  0
  190.6140  176.4990  145.1410 C   0  0  1  0  0  3  0  0  0  0  0  0
  191.5640  178.0620  143.4650 C   0  0  0  0  0  2  0  0  0  0  0  0
  190.8340  177.8680  144.5630 C   0  0  0  0  0  3  0  0  0  0  0  0
  191.1010  176.4600  146.5150 N   0  0  0  0  0  2  0  0  0  0  0  0
  192.2640  175.5860  146.5490 C   0  0  0  0  0  2  0  0  0  0  0  0
  193.5350  176.4120  146.5330 C   0  0  0  0  0  2  0  0  0  0  0  0
  194.8850  176.4150  144.0330 O   0  0  0  0  0  0  0  0  0  0  0  0
  196.4540  174.7330  144.6320 C   0  0  0  0  0  1  0  0  0  0  0  0
  194.6620  175.5600  146.1960 N   0  0  0  0  0  2  0  0  0  0  0  0
  195.2970  175.6200  144.9200 C   0  0  0  0  0  0  0  0  0  0  0  0
  185.5700  179.7600  143.5220 N   0  0  0  0  0  2  0  0  0  0  0  0
  185.2120  179.8250  144.9310 C   0  0  0  0  0  2  0  0  0  0  0  0
  184.0670  178.8740  145.2230 C   0  0  0  0  0  1  0  0  0  0  0  0
  3  5  2  0  0  0  0
  4  7  1  0  0  0  0
  5  1  1  0  0  0  0
  5  8  1  0  0  0  0
  6 10  1  0  0  0  0
  7 29  1  0  0  0  0
  7  1  2  0  0  0  0
  8 14  1  0  0  0  0
  9  3  1  0  0  0  0
  9 12  2  0  0  0  0
 10  2  2  0  0  0  0
 11 10  1  0  0  0  0
 11  9  1  0  0  0  0
 12  2  1  0  0  0  0
 12  8  1  0  0  0  0
 13  4  2  0  0  0  0
 13  3  1  0  0  0  0
 14 19  1  0  0  0  0
 14 15  1  1  0  0  0
 15 16  1  0  0  0  0
 16 18  1  0  0  0  0
 18 17  1  0  0  0  0
 19 21  1  1  0  0  0
 19 22  1  0  0  0  0
 20 21  2  0  0  0  0
 22 23  1  0  0  0  0
 24 23  1  0  0  0  0
 25 28  2  0  0  0  0
 26 28  1  0  0  0  0
 27 24  1  0  0  0  0
 28 27  1  0  0  0  0
 29 30  1  0  0  0  0
 30 31  1  0  0  0  0
M  END
>  <MODEL>
6

>  <REMARK>
 VINA RESULT:      -5.7      2.682      4.103
  Name = 
  12 active torsions:
  status: ('A' for Active; 'I' for Inactive)
    1  A    between atoms: C_4  and  O_14
    2  A    between atoms: C_4  and  C_19
    3  A    between atoms: N_5  and  C_26
    4  A    between atoms: N_5  and  C_28
    5  A    between atoms: C_6  and  C_19
    6  A    between atoms: C_6  and  N_20
    7  A    between atoms: C_6  and  C_28
    8  A    between atoms: C_8  and  N_18
    9  A    between atoms: C_16  and  N_18
   10  A    between atoms: N_17  and  C_22
   11  A    between atoms: C_22  and  C_26
   12  A    between atoms: C_24  and  C_28
                            x       y       z     vdW  Elec       q    Type
                         _______ _______ _______ _____ _____    ______ ____

>  <TORSDO>
F 12

$$$$
=
 OpenBabel11042414013D

 31 33  0  0  1  0  0  0  0  0999 V2000
  187.7280  177.7170  142.8270 N   0  0  0  0  0  0  0  0  0  0  0  0
  190.2980  173.8830  141.7060 N   0  0  0  0  0  0  0  0  0  0  0  0
  187.7840  176.1490  141.0220 C   0  0  0  0  0  0  0  0  0  0  0  0
  186.1160  177.8440  141.0270 C   0  0  0  0  0  3  0  0  0  0  0  0
  188.2850  176.6440  142.2140 C   0  0  0  0  0  0  0  0  0  0  0  0
  190.6990  171.9670  140.2470 N   0  0  0  0  0  1  0  0  0  0  0  0
  186.6480  178.3300  142.2460 C   0  0  0  0  0  0  0  0  0  0  0  0
  189.3280  175.9080  142.6750 N   0  0  0  0  0  0  0  0  0  0  0  0
  188.5610  175.0550  140.7430 C   0  0  0  0  0  0  0  0  0  0  0  0
  190.0040  173.1610  140.5880 C   0  0  0  0  0  0  0  0  0  0  0  0
  188.7120  173.7980  139.6520 S   0  0  0  0  0  0  0  0  0  0  0  0
  189.4620  174.9420  141.7390 C   0  0  0  0  0  0  0  0  0  0  0  0
  186.6880  176.7250  140.3960 C   0  0  0  0  0  3  0  0  0  0  0  0
  190.0540  176.0850  143.9330 C   0  0  2  0  0  3  0  0  0  0  0  0
  191.5300  175.7410  143.7440 C   0  0  0  0  0  2  0  0  0  0  0  0
  192.4170  176.7210  144.4940 C   0  0  0  0  0  2  0  0  0  0  0  0
  192.5330  176.6140  146.6370 F   0  0  0  0  0  0  0  0  0  0  0  0
  193.0570  176.0720  145.5510 O   0  0  0  0  0  0  0  0  0  0  0  0
  189.4260  175.2430  145.0520 C   0  0  1  0  0  3  0  0  0  0  0  0
  189.7000  172.7760  145.0280 C   0  0  0  0  0  2  0  0  0  0  0  0
  190.2010  173.9800  145.3040 C   0  0  0  0  0  3  0  0  0  0  0  0
  189.3280  176.0140  146.2860 N   0  0  0  0  0  2  0  0  0  0  0  0
  188.0690  175.6680  146.9270 C   0  0  0  0  0  2  0  0  0  0  0  0
  186.9790  176.6220  146.4790 C   0  0  0  0  0  2  0  0  0  0  0  0
  184.9570  178.2410  147.6470 O   0  0  0  0  0  0  0  0  0  0  0  0
  186.4220  180.0070  148.2650 C   0  0  0  0  0  1  0  0  0  0  0  0
  187.2010  177.9260  147.0790 N   0  0  0  0  0  2  0  0  0  0  0  0
  186.1370  178.6830  147.6540 C   0  0  0  0  0  0  0  0  0  0  0  0
  186.0390  179.4640  142.8680 N   0  0  0  0  0  2  0  0  0  0  0  0
  185.5620  179.4480  144.2430 C   0  0  0  0  0  2  0  0  0  0  0  0
  184.1750  178.8370  144.3070 C   0  0  0  0  0  1  0  0  0  0  0  0
  2 12  1  0  0  0  0
  3  5  2  0  0  0  0
  4  7  1  0  0  0  0
  5  8  1  0  0  0  0
  5  1  1  0  0  0  0
  6 10  1  0  0  0  0
  7  1  2  0  0  0  0
  7 29  1  0  0  0  0
  8 14  1  0  0  0  0
  9  3  1  0  0  0  0
  9 12  2  0  0  0  0
 10  2  2  0  0  0  0
 11 10  1  0  0  0  0
 11  9  1  0  0  0  0
 12  8  1  0  0  0  0
 13  3  1  0  0  0  0
 13  4  2  0  0  0  0
 14 15  1  6  0  0  0
 14 19  1  0  0  0  0
 15 16  1  0  0  0  0
 16 18  1  0  0  0  0
 18 17  1  0  0  0  0
 19 21  1  1  0  0  0
 19 22  1  0  0  0  0
 20 21  2  0  0  0  0
 22 23  1  0  0  0  0
 24 23  1  0  0  0  0
 24 27  1  0  0  0  0
 25 28  2  0  0  0  0
 27 28  1  0  0  0  0
 28 26  1  0  0  0  0
 29 30  1  0  0  0  0
 30 31  1  0  0  0  0
M  END
>  <MODEL>
7

>  <REMARK>
 VINA RESULT:      -5.7      2.667      4.385
  Name = 
  12 active torsions:
  status: ('A' for Active; 'I' for Inactive)
    1  A    between atoms: C_4  and  O_14
    2  A    between atoms: C_4  and  C_19
    3  A    between atoms: N_5  and  C_26
    4  A    between atoms: N_5  and  C_28
    5  A    between atoms: C_6  and  C_19
    6  A    between atoms: C_6  and  N_20
    7  A    between atoms: C_6  and  C_28
    8  A    between atoms: C_8  and  N_18
    9  A    between atoms: C_16  and  N_18
   10  A    between atoms: N_17  and  C_22
   11  A    between atoms: C_22  and  C_26
   12  A    between atoms: C_24  and  C_28
                            x       y       z     vdW  Elec       q    Type
                         _______ _______ _______ _____ _____    ______ ____

>  <TORSDO>
F 12

$$$$
=
 OpenBabel11042414013D

 31 33  0  0  1  0  0  0  0  0999 V2000
  188.0890  175.9100  145.2580 N   0  0  0  0  0  0  0  0  0  0  0  0
  192.2220  175.0820  143.0690 N   0  0  0  0  0  0  0  0  0  0  0  0
  190.3540  176.6270  145.5280 C   0  0  0  0  0  0  0  0  0  0  0  0
  188.6790  177.5340  146.9510 C   0  0  0  0  0  3  0  0  0  0  0  0
  189.3930  175.8590  144.8940 C   0  0  0  0  0  0  0  0  0  0  0  0
  194.5970  175.5760  142.7930 N   0  0  0  0  0  1  0  0  0  0  0  0
  187.7160  176.7370  146.2860 C   0  0  0  0  0  0  0  0  0  0  0  0
  189.9150  175.1240  143.8790 N   0  0  0  0  0  0  0  0  0  0  0  0
  191.5200  176.3470  144.8660 C   0  0  0  0  0  0  0  0  0  0  0  0
  193.3510  175.7380  143.4610 C   0  0  0  0  0  0  0  0  0  0  0  0
  193.1310  176.7880  144.8020 S   0  0  0  0  0  0  0  0  0  0  0  0
  191.2250  175.4560  143.8990 C   0  0  0  0  0  0  0  0  0  0  0  0
  190.0310  177.4880  146.5670 C   0  0  0  0  0  3  0  0  0  0  0  0
  189.1930  174.2590  142.9450 C   0  0  2  0  0  3  0  0  0  0  0  0
  189.8360  172.8740  142.9010 C   0  0  0  0  0  2  0  0  0  0  0  0
  189.8670  172.2460  144.2840 C   0  0  0  0  0  2  0  0  0  0  0  0
  191.5910  171.1100  143.6860 F   0  0  0  0  0  0  0  0  0  0  0  0
  191.1810  171.9330  144.6360 O   0  0  0  0  0  0  0  0  0  0  0  0
  189.1360  174.8890  141.5470 C   0  0  1  0  0  3  0  0  0  0  0  0
  188.5710  173.5890  139.5100 C   0  0  0  0  0  2  0  0  0  0  0  0
  189.4470  173.8890  140.4690 C   0  0  0  0  0  3  0  0  0  0  0  0
  187.8260  175.4830  141.3020 N   0  0  0  0  0  2  0  0  0  0  0  0
  187.9930  176.9280  141.2700 C   0  0  0  0  0  2  0  0  0  0  0  0
  186.6400  177.6100  141.3290 C   0  0  0  0  0  2  0  0  0  0  0  0
  184.3150  178.4050  142.7550 O   0  0  0  0  0  0  0  0  0  0  0  0
  185.4580  179.8750  144.2310 C   0  0  0  0  0  1  0  0  0  0  0  0
  186.6240  178.5590  142.4280 N   0  0  0  0  0  2  0  0  0  0  0  0
  185.4170  178.9070  143.1050 C   0  0  0  0  0  0  0  0  0  0  0  0
  186.3480  176.8130  146.6940 N   0  0  0  0  0  2  0  0  0  0  0  0
  185.8750  177.7510  147.7010 C   0  0  0  0  0  2  0  0  0  0  0  0
  184.5740  178.3870  147.2520 C   0  0  0  0  0  1  0  0  0  0  0  0
  1  7  2  0  0  0  0
  2 10  2  0  0  0  0
  2 12  1  0  0  0  0
  3 13  1  0  0  0  0
  5  1  1  0  0  0  0
  5  3  2  0  0  0  0
  6 10  1  0  0  0  0
  7 29  1  0  0  0  0
  7  4  1  0  0  0  0
  8 12  1  0  0  0  0
  8  5  1  0  0  0  0
  9  3  1  0  0  0  0
 10 11  1  0  0  0  0
 11  9  1  0  0  0  0
 12  9  2  0  0  0  0
 13  4  2  0  0  0  0
 14 15  1  6  0  0  0
 14  8  1  0  0  0  0
 15 16  1  0  0  0  0
 16 18  1  0  0  0  0
 17 18  1  0  0  0  0
 19 21  1  6  0  0  0
 19 14  1  0  0  0  0
 20 21  2  0  0  0  0
 22 19  1  0  0  0  0
 23 22  1  0  0  0  0
 23 24  1  0  0  0  0
 24 27  1  0  0  0  0
 25 28  2  0  0  0  0
 27 28  1  0  0  0  0
 28 26  1  0  0  0  0
 29 30  1  0  0  0  0
 31 30  1  0  0  0  0
M  END
>  <MODEL>
8

>  <REMARK>
 VINA RESULT:      -5.7      3.288      5.878
  Name = 
  12 active torsions:
  status: ('A' for Active; 'I' for Inactive)
    1  A    between atoms: C_4  and  O_14
    2  A    between atoms: C_4  and  C_19
    3  A    between atoms: N_5  and  C_26
    4  A    between atoms: N_5  and  C_28
    5  A    between atoms: C_6  and  C_19
    6  A    between atoms: C_6  and  N_20
    7  A    between atoms: C_6  and  C_28
    8  A    between atoms: C_8  and  N_18
    9  A    between atoms: C_16  and  N_18
   10  A    between atoms: N_17  and  C_22
   11  A    between atoms: C_22  and  C_26
   12  A    between atoms: C_24  and  C_28
                            x       y       z     vdW  Elec       q    Type
                         _______ _______ _______ _____ _____    ______ ____

>  <TORSDO>
F 12

$$$$
=
 OpenBabel11042414013D

 31 33  0  0  1  0  0  0  0  0999 V2000
  189.9970  175.2880  144.8400 N   0  0  0  0  0  0  0  0  0  0  0  0
  186.1120  177.9310  144.1410 N   0  0  0  0  0  0  0  0  0  0  0  0
  188.1520  176.0230  146.1720 C   0  0  0  0  0  0  0  0  0  0  0  0
  189.7700  174.5760  147.1410 C   0  0  0  0  0  3  0  0  0  0  0  0
  188.8540  176.0040  144.9790 C   0  0  0  0  0  0  0  0  0  0  0  0
  183.9930  178.8200  144.9620 N   0  0  0  0  0  1  0  0  0  0  0  0
  190.4700  174.5730  145.9100 C   0  0  0  0  0  0  0  0  0  0  0  0
  188.2390  176.7310  144.0120 N   0  0  0  0  0  0  0  0  0  0  0  0
  187.0520  176.7990  145.9180 C   0  0  0  0  0  0  0  0  0  0  0  0
  185.2040  178.0970  145.1440 C   0  0  0  0  0  0  0  0  0  0  0  0
  185.6350  177.3370  146.6230 S   0  0  0  0  0  0  0  0  0  0  0  0
  187.1350  177.2010  144.6340 C   0  0  0  0  0  0  0  0  0  0  0  0
  188.5800  175.3110  147.2830 C   0  0  0  0  0  3  0  0  0  0  0  0
  188.6470  176.8760  142.6140 C   0  0  2  0  0  3  0  0  0  0  0  0
  189.2110  178.2740  142.3710 C   0  0  0  0  0  2  0  0  0  0  0  0
  190.4580  178.5100  143.2050 C   0  0  0  0  0  2  0  0  0  0  0  0
  192.1960  177.4320  143.8650 F   0  0  0  0  0  0  0  0  0  0  0  0
  191.4850  177.6680  142.7760 O   0  0  0  0  0  0  0  0  0  0  0  0
  187.4770  176.5760  141.6680 C   0  0  1  0  0  3  0  0  0  0  0  0
  185.8030  177.9900  140.5020 C   0  0  0  0  0  2  0  0  0  0  0  0
  187.0650  177.7910  140.8850 C   0  0  0  0  0  3  0  0  0  0  0  0
  187.8190  175.4940  140.7510 N   0  0  0  0  0  2  0  0  0  0  0  0
  188.8070  174.6520  141.4080 C   0  0  0  0  0  2  0  0  0  0  0  0
  188.1910  173.3160  141.7720 C   0  0  0  0  0  2  0  0  0  0  0  0
  189.7740  171.8880  143.6510 O   0  0  0  0  0  0  0  0  0  0  0  0
  190.8030  170.4760  142.0390 C   0  0  0  0  0  1  0  0  0  0  0  0
  189.1180  172.2490  141.4370 N   0  0  0  0  0  2  0  0  0  0  0  0
  189.8780  171.5690  142.4360 C   0  0  0  0  0  0  0  0  0  0  0  0
  191.6720  173.8090  145.7930 N   0  0  0  0  0  2  0  0  0  0  0  0
  192.9640  174.4100  145.4930 C   0  0  0  0  0  2  0  0  0  0  0  0
  193.2630  175.5250  146.4760 C   0  0  0  0  0  1  0  0  0  0  0  0
  1  5  1  0  0  0  0
  1  7  2  0  0  0  0
  2 12  1  0  0  0  0
  2 10  2  0  0  0  0
  3 13  1  0  0  0  0
  4 13  2  0  0  0  0
  5  3  2  0  0  0  0
  6 10  1  0  0  0  0
  7  4  1  0  0  0  0
  8 12  1  0  0  0  0
  8  5  1  0  0  0  0
  9  3  1  0  0  0  0
  9 11  1  0  0  0  0
 10 11  1  0  0  0  0
 12  9  2  0  0  0  0
 14 15  1  1  0  0  0
 14  8  1  0  0  0  0
 15 16  1  0  0  0  0
 18 16  1  0  0  0  0
 18 17  1  0  0  0  0
 19 21  1  6  0  0  0
 19 14  1  0  0  0  0
 20 21  2  0  0  0  0
 22 23  1  0  0  0  0
 22 19  1  0  0  0  0
 23 24  1  0  0  0  0
 26 28  1  0  0  0  0
 27 24  1  0  0  0  0
 27 28  1  0  0  0  0
 28 25  2  0  0  0  0
 29  7  1  0  0  0  0
 30 29  1  0  0  0  0
 30 31  1  0  0  0  0
M  END
>  <MODEL>
9

>  <REMARK>
 VINA RESULT:      -5.7      2.334      5.343
  Name = 
  12 active torsions:
  status: ('A' for Active; 'I' for Inactive)
    1  A    between atoms: C_4  and  O_14
    2  A    between atoms: C_4  and  C_19
    3  A    between atoms: N_5  and  C_26
    4  A    between atoms: N_5  and  C_28
    5  A    between atoms: C_6  and  C_19
    6  A    between atoms: C_6  and  N_20
    7  A    between atoms: C_6  and  C_28
    8  A    between atoms: C_8  and  N_18
    9  A    between atoms: C_16  and  N_18
   10  A    between atoms: N_17  and  C_22
   11  A    between atoms: C_22  and  C_26
   12  A    between atoms: C_24  and  C_28
                            x       y       z     vdW  Elec       q    Type
                         _______ _______ _______ _____ _____    ______ ____

>  <TORSDO>
F 12

$$$$
