=
 OpenBabel11042417153D

 31 34  0  0  1  0  0  0  0  0999 V2000
  189.2420  177.2380  145.6380 C   0  0  0  0  0  0  0  0  0  0  0  0
  187.5310  176.0730  143.3220 O   0  0  0  0  0  0  0  0  0  0  0  0
  186.5220  177.1900  145.1800 C   0  0  1  0  0  0  0  0  0  0  0  0
  191.1530  176.0600  144.4850 C   0  0  0  0  0  0  0  0  0  0  0  0
  194.2220  176.7530  146.4930 C   0  0  0  0  0  1  0  0  0  0  0  0
  193.8390  175.3820  144.4010 C   0  0  0  0  0  0  0  0  0  0  0  0
  186.7600  177.2150  143.6950 C   0  0  2  0  0  3  0  0  0  0  0  0
  189.4780  175.0310  142.5020 C   0  0  0  0  0  3  0  0  0  0  0  0
  187.8540  177.4500  145.7540 N   0  0  0  0  0  0  0  0  0  0  0  0
  186.6530  178.3190  145.9760 C   0  0  2  0  0  3  0  0  0  0  0  0
  191.6650  175.2270  143.4690 C   0  0  0  0  0  0  0  0  0  0  0  0
  192.9860  174.9130  143.4550 N   0  0  0  0  0  0  0  0  0  0  0  0
  193.3410  176.2080  145.4200 C   0  0  0  0  0  0  0  0  0  0  0  0
  185.9840  176.0160  145.7210 O   0  0  0  0  0  1  0  0  0  0  0  0
  190.8280  174.7150  142.4910 C   0  0  0  0  0  3  0  0  0  0  0  0
  190.0090  177.8200  146.4510 O   0  0  0  0  0  0  0  0  0  0  0  0
  189.7660  176.3950  144.5190 C   0  0  0  0  0  0  0  0  0  0  0  0
  188.9200  175.8670  143.4740 C   0  0  0  0  0  0  0  0  0  0  0  0
  192.0170  176.5190  145.4320 N   0  0  0  0  0  0  0  0  0  0  0  0
  185.4830  177.1940  142.9990 N   0  0  0  0  0  2  0  0  0  0  0  0
  184.6840  178.3680  142.8330 C   0  0  0  0  0  0  0  0  0  0  0  0
  185.0570  179.4710  143.3120 O   0  0  0  0  0  0  0  0  0  0  0  0
  183.3820  178.2760  142.1170 C   0  0  0  0  0  2  0  0  0  0  0  0
  183.6090  178.1790  140.6470 C   0  0  0  0  0  0  0  0  0  0  0  0
  182.6500  177.5900  139.8340 O   0  0  0  0  0  0  0  0  0  0  0  0
  184.6540  178.6610  140.1370 O   0  0  0  0  0  1  0  0  0  0  0  0
  184.6330  178.4490  147.6230 C   0  0  0  0  0  1  0  0  0  0  0  0
  186.1290  178.2260  147.4270 C   0  0  2  0  0  3  0  0  0  0  0  0
  186.8890  179.0970  148.3080 N   0  0  0  0  0  1  0  0  0  0  0  0
  196.3490  174.7230  144.2810 N   0  0  0  0  0  0  0  0  0  0  0  0
  195.2310  175.0170  144.3350 C   0  0  0  0  0  0  0  0  0  0  0  0
  1  9  1  0  0  0  0
  1 16  2  0  0  0  0
  2 18  1  0  0  0  0
  2  7  1  0  0  0  0
  3 14  1  1  0  0  0
  3  9  1  0  0  0  0
  3 10  1  0  0  0  0
  4 17  1  0  0  0  0
  4 19  1  0  0  0  0
  6 13  1  0  0  0  0
  7 20  1  6  0  0  0
  7  3  1  0  0  0  0
  8 18  1  0  0  0  0
  9 10  1  0  0  0  0
 10 28  1  1  0  0  0
 11  4  2  0  0  0  0
 12 11  1  0  0  0  0
 12  6  2  0  0  0  0
 13 19  2  0  0  0  0
 13  5  1  0  0  0  0
 15  8  2  0  0  0  0
 15 11  1  0  0  0  0
 17  1  1  0  0  0  0
 18 17  2  0  0  0  0
 21 20  1  0  0  0  0
 21 22  2  0  0  0  0
 23 21  1  0  0  0  0
 24 23  1  0  0  0  0
 25 24  2  0  0  0  0
 26 24  1  0  0  0  0
 28 27  1  6  0  0  0
 28 29  1  0  0  0  0
 30 31  3  0  0  0  0
 31  6  1  0  0  0  0
M  END
>  <MODEL>
1

>  <REMARK>
 VINA RESULT:      -7.3      0.000      0.000
  Name = 
  5 active torsions:
  status: ('A' for Active; 'I' for Inactive)
    1  A    between atoms: N_3  and  C_9
    2  A    between atoms: C_8  and  C_26
    3  A    between atoms: C_10  and  C_15
    4  A    between atoms: C_13  and  C_28
    5  A    between atoms: C_15  and  C_17
                            x       y       z     vdW  Elec       q    Type
                         _______ _______ _______ _____ _____    ______ ____

>  <TORSDO>
F 5

$$$$
=
 OpenBabel11042417153D

 31 34  0  0  1  0  0  0  0  0999 V2000
  190.2100  175.0490  143.0790 C   0  0  0  0  0  0  0  0  0  0  0  0
  191.9720  174.1510  145.4750 O   0  0  0  0  0  0  0  0  0  0  0  0
  192.5070  173.5270  143.2290 C   0  0  1  0  0  0  0  0  0  0  0  0
  188.6490  175.9000  144.8690 C   0  0  0  0  0  0  0  0  0  0  0  0
  185.7340  177.4420  143.1190 C   0  0  0  0  0  1  0  0  0  0  0  0
  186.2680  177.1320  145.5730 C   0  0  0  0  0  0  0  0  0  0  0  0
  192.9490  174.2940  144.4450 C   0  0  2  0  0  3  0  0  0  0  0  0
  190.3070  174.9820  146.9190 C   0  0  0  0  0  3  0  0  0  0  0  0
  191.3460  174.2890  142.7360 N   0  0  0  0  0  0  0  0  0  0  0  0
  192.5970  174.0450  141.9450 C   0  0  2  0  0  3  0  0  0  0  0  0
  188.2840  176.0670  146.2210 C   0  0  0  0  0  0  0  0  0  0  0  0
  187.1110  176.6750  146.5340 N   0  0  0  0  0  0  0  0  0  0  0  0
  186.6170  176.9670  144.2250 C   0  0  0  0  0  0  0  0  0  0  0  0
  192.1580  172.1840  143.4150 O   0  0  0  0  0  1  0  0  0  0  0  0
  189.1080  175.6040  147.2340 C   0  0  0  0  0  3  0  0  0  0  0  0
  189.5420  175.5820  142.1540 O   0  0  0  0  0  0  0  0  0  0  0  0
  189.8750  175.2590  144.5220 C   0  0  0  0  0  0  0  0  0  0  0  0
  190.7260  174.8070  145.5970 C   0  0  0  0  0  0  0  0  0  0  0  0
  187.7910  176.3570  143.9140 N   0  0  0  0  0  0  0  0  0  0  0  0
  194.2290  173.7770  144.9050 N   0  0  0  0  0  2  0  0  0  0  0  0
  195.1280  174.5580  145.6950 C   0  0  0  0  0  0  0  0  0  0  0  0
  194.8470  175.7460  146.0030 O   0  0  0  0  0  0  0  0  0  0  0  0
  196.4270  173.9700  146.1270 C   0  0  0  0  0  2  0  0  0  0  0  0
  197.3510  173.8530  144.9640 C   0  0  0  0  0  0  0  0  0  0  0  0
  197.8950  172.6200  144.6310 O   0  0  0  0  0  1  0  0  0  0  0  0
  197.6120  174.8640  144.2620 O   0  0  0  0  0  0  0  0  0  0  0  0
  193.5660  172.2580  140.3100 C   0  0  0  0  0  1  0  0  0  0  0  0
  192.3590  173.0690  140.7700 C   0  0  2  0  0  3  0  0  0  0  0  0
  191.7520  173.7560  139.6430 N   0  0  0  0  0  1  0  0  0  0  0  0
  184.0480  178.2830  146.2800 N   0  0  0  0  0  0  0  0  0  0  0  0
  185.0370  177.7710  145.9650 C   0  0  0  0  0  0  0  0  0  0  0  0
  1 17  1  0  0  0  0
  2 18  1  0  0  0  0
  3 14  1  1  0  0  0
  3  7  1  0  0  0  0
  4 11  1  0  0  0  0
  5 13  1  0  0  0  0
  6 31  1  0  0  0  0
  6 12  1  0  0  0  0
  7 20  1  1  0  0  0
  7  2  1  0  0  0  0
  8 15  2  0  0  0  0
  9  1  1  0  0  0  0
  9  3  1  0  0  0  0
 10 28  1  6  0  0  0
 10  9  1  0  0  0  0
 10  3  1  0  0  0  0
 11 12  2  0  0  0  0
 11 15  1  0  0  0  0
 13  6  2  0  0  0  0
 16  1  2  0  0  0  0
 17  4  1  0  0  0  0
 17 18  2  0  0  0  0
 18  8  1  0  0  0  0
 19 13  1  0  0  0  0
 19  4  2  0  0  0  0
 20 21  1  0  0  0  0
 21 22  2  0  0  0  0
 21 23  1  0  0  0  0
 24 23  1  0  0  0  0
 25 24  1  0  0  0  0
 26 24  2  0  0  0  0
 28 27  1  6  0  0  0
 29 28  1  0  0  0  0
 31 30  3  0  0  0  0
M  END
>  <MODEL>
2

>  <REMARK>
 VINA RESULT:      -6.7      3.476      9.173
  Name = 
  5 active torsions:
  status: ('A' for Active; 'I' for Inactive)
    1  A    between atoms: N_3  and  C_9
    2  A    between atoms: C_8  and  C_26
    3  A    between atoms: C_10  and  C_15
    4  A    between atoms: C_13  and  C_28
    5  A    between atoms: C_15  and  C_17
                            x       y       z     vdW  Elec       q    Type
                         _______ _______ _______ _____ _____    ______ ____

>  <TORSDO>
F 5

$$$$
=
 OpenBabel11042417153D

 31 34  0  0  1  0  0  0  0  0999 V2000
  189.3090  175.1200  142.3770 C   0  0  0  0  0  0  0  0  0  0  0  0
  191.2140  174.3000  144.6900 O   0  0  0  0  0  0  0  0  0  0  0  0
  191.5390  173.4970  142.4610 C   0  0  1  0  0  0  0  0  0  0  0  0
  187.9360  176.1710  144.2140 C   0  0  0  0  0  0  0  0  0  0  0  0
  184.9640  177.7360  142.5840 C   0  0  0  0  0  1  0  0  0  0  0  0
  185.6770  177.5680  145.0060 C   0  0  0  0  0  0  0  0  0  0  0  0
  192.1110  174.3220  143.5810 C   0  0  2  0  0  3  0  0  0  0  0  0
  189.7080  175.3120  146.1930 C   0  0  0  0  0  3  0  0  0  0  0  0
  190.3790  174.2820  142.0040 N   0  0  0  0  0  0  0  0  0  0  0  0
  191.5500  173.9210  141.1400 C   0  0  2  0  0  3  0  0  0  0  0  0
  187.6880  176.4490  145.5740 C   0  0  0  0  0  0  0  0  0  0  0  0
  186.5720  177.1360  145.9310 N   0  0  0  0  0  0  0  0  0  0  0  0
  185.9100  177.2940  143.6500 C   0  0  0  0  0  0  0  0  0  0  0  0
  191.1450  172.1890  142.7690 O   0  0  0  0  0  1  0  0  0  0  0  0
  188.5680  176.0150  146.5520 C   0  0  0  0  0  3  0  0  0  0  0  0
  188.5950  175.6230  141.4690 O   0  0  0  0  0  0  0  0  0  0  0  0
  189.1000  175.4450  143.8220 C   0  0  0  0  0  0  0  0  0  0  0  0
  190.0120  175.0250  144.8590 C   0  0  0  0  0  0  0  0  0  0  0  0
  187.0270  176.6050  143.2960 N   0  0  0  0  0  0  0  0  0  0  0  0
  193.3980  173.7730  143.9790 N   0  0  0  0  0  2  0  0  0  0  0  0
  194.6230  174.4860  143.7950 C   0  0  0  0  0  0  0  0  0  0  0  0
  194.6290  175.6220  143.2510 O   0  0  0  0  0  0  0  0  0  0  0  0
  195.9080  173.8630  144.2170 C   0  0  0  0  0  2  0  0  0  0  0  0
  196.1800  174.1650  145.6500 C   0  0  0  0  0  0  0  0  0  0  0  0
  197.1970  173.4990  146.3200 O   0  0  0  0  0  1  0  0  0  0  0  0
  195.5100  175.0490  146.2460 O   0  0  0  0  0  0  0  0  0  0  0  0
  192.3000  171.9660  139.5830 C   0  0  0  0  0  1  0  0  0  0  0  0
  191.1760  172.8800  140.0600 C   0  0  2  0  0  3  0  0  0  0  0  0
  190.5300  173.5210  138.9270 N   0  0  0  0  0  1  0  0  0  0  0  0
  183.5750  178.8770  145.7950 N   0  0  0  0  0  0  0  0  0  0  0  0
  184.5110  178.2940  145.4430 C   0  0  0  0  0  0  0  0  0  0  0  0
  1 17  1  0  0  0  0
  2 18  1  0  0  0  0
  3 14  1  1  0  0  0
  3  7  1  0  0  0  0
  4 11  1  0  0  0  0
  5 13  1  0  0  0  0
  6 31  1  0  0  0  0
  6 12  1  0  0  0  0
  7 20  1  1  0  0  0
  7  2  1  0  0  0  0
  8 15  2  0  0  0  0
  9  1  1  0  0  0  0
  9  3  1  0  0  0  0
 10 28  1  6  0  0  0
 10  9  1  0  0  0  0
 10  3  1  0  0  0  0
 11 12  2  0  0  0  0
 11 15  1  0  0  0  0
 13  6  2  0  0  0  0
 16  1  2  0  0  0  0
 17  4  1  0  0  0  0
 17 18  2  0  0  0  0
 18  8  1  0  0  0  0
 19 13  1  0  0  0  0
 19  4  2  0  0  0  0
 21 20  1  0  0  0  0
 21 23  1  0  0  0  0
 22 21  2  0  0  0  0
 23 24  1  0  0  0  0
 24 26  2  0  0  0  0
 24 25  1  0  0  0  0
 28 27  1  6  0  0  0
 29 28  1  0  0  0  0
 31 30  3  0  0  0  0
M  END
>  <MODEL>
3

>  <REMARK>
 VINA RESULT:      -6.6      3.177      9.010
  Name = 
  5 active torsions:
  status: ('A' for Active; 'I' for Inactive)
    1  A    between atoms: N_3  and  C_9
    2  A    between atoms: C_8  and  C_26
    3  A    between atoms: C_10  and  C_15
    4  A    between atoms: C_13  and  C_28
    5  A    between atoms: C_15  and  C_17
                            x       y       z     vdW  Elec       q    Type
                         _______ _______ _______ _____ _____    ______ ____

>  <TORSDO>
F 5

$$$$
=
 OpenBabel11042417153D

 31 34  0  0  1  0  0  0  0  0999 V2000
  191.1740  174.9270  143.7310 C   0  0  0  0  0  0  0  0  0  0  0  0
  188.1500  175.6240  143.8920 O   0  0  0  0  0  0  0  0  0  0  0  0
  189.6710  176.2520  145.6270 C   0  0  1  0  0  0  0  0  0  0  0  0
  190.5010  173.5830  141.7040 C   0  0  0  0  0  0  0  0  0  0  0  0
  193.6140  172.0300  140.3520 C   0  0  0  0  0  1  0  0  0  0  0  0
  191.1960  171.8930  139.6200 C   0  0  0  0  0  0  0  0  0  0  0  0
  188.7330  176.7430  144.5580 C   0  0  2  0  0  3  0  0  0  0  0  0
  187.8060  174.2450  142.0130 C   0  0  0  0  0  3  0  0  0  0  0  0
  190.7880  175.6600  144.8700 N   0  0  0  0  0  0  0  0  0  0  0  0
  190.9280  176.8040  145.8290 C   0  0  2  0  0  3  0  0  0  0  0  0
  189.5270  173.0750  140.8190 C   0  0  0  0  0  0  0  0  0  0  0  0
  189.9000  172.2490  139.8070 N   0  0  0  0  0  0  0  0  0  0  0  0
  192.1730  172.3870  140.4980 C   0  0  0  0  0  0  0  0  0  0  0  0
  189.1630  175.3240  146.5440 O   0  0  0  0  0  1  0  0  0  0  0  0
  188.1910  173.4030  140.9800 C   0  0  0  0  0  3  0  0  0  0  0  0
  192.4030  174.7510  143.5180 O   0  0  0  0  0  0  0  0  0  0  0  0
  190.1270  174.4470  142.7760 C   0  0  0  0  0  0  0  0  0  0  0  0
  188.7310  174.7910  142.9080 C   0  0  0  0  0  0  0  0  0  0  0  0
  191.7970  173.2120  141.5100 N   0  0  0  0  0  0  0  0  0  0  0  0
  187.6880  177.5530  145.1640 N   0  0  0  0  0  2  0  0  0  0  0  0
  186.7480  178.2960  144.3840 C   0  0  0  0  0  0  0  0  0  0  0  0
  186.8110  178.2910  143.1260 O   0  0  0  0  0  0  0  0  0  0  0  0
  185.7070  179.1120  145.0680 C   0  0  0  0  0  2  0  0  0  0  0  0
  185.3410  178.4910  146.3720 C   0  0  0  0  0  0  0  0  0  0  0  0
  185.8580  179.0020  147.5550 O   0  0  0  0  0  1  0  0  0  0  0  0
  184.5370  177.5240  146.4050 O   0  0  0  0  0  0  0  0  0  0  0  0
  191.3250  177.1650  148.3820 C   0  0  0  0  0  1  0  0  0  0  0  0
  191.6810  176.3950  147.1150 C   0  0  2  0  0  3  0  0  0  0  0  0
  193.1190  176.4140  146.9000 N   0  0  0  0  0  1  0  0  0  0  0  0
  191.8030  170.3090  137.6520 N   0  0  0  0  0  0  0  0  0  0  0  0
  191.5320  171.0150  138.5280 C   0  0  0  0  0  0  0  0  0  0  0  0
  1  9  1  0  0  0  0
  2  7  1  0  0  0  0
  3 10  1  0  0  0  0
  3 14  1  1  0  0  0
  4 17  1  0  0  0  0
  5 13  1  0  0  0  0
  6 12  2  0  0  0  0
  6 13  1  0  0  0  0
  7 20  1  1  0  0  0
  7  3  1  0  0  0  0
  8 18  1  0  0  0  0
  9  3  1  0  0  0  0
  9 10  1  0  0  0  0
 10 28  1  1  0  0  0
 11 15  1  0  0  0  0
 11  4  2  0  0  0  0
 12 11  1  0  0  0  0
 13 19  2  0  0  0  0
 15  8  2  0  0  0  0
 16  1  2  0  0  0  0
 17 18  2  0  0  0  0
 17  1  1  0  0  0  0
 18  2  1  0  0  0  0
 19  4  1  0  0  0  0
 21 23  1  0  0  0  0
 21 20  1  0  0  0  0
 22 21  2  0  0  0  0
 23 24  1  0  0  0  0
 24 26  2  0  0  0  0
 24 25  1  0  0  0  0
 28 27  1  1  0  0  0
 29 28  1  0  0  0  0
 30 31  3  0  0  0  0
 31  6  1  0  0  0  0
M  END
>  <MODEL>
4

>  <REMARK>
 VINA RESULT:      -6.6      3.004      5.115
  Name = 
  5 active torsions:
  status: ('A' for Active; 'I' for Inactive)
    1  A    between atoms: N_3  and  C_9
    2  A    between atoms: C_8  and  C_26
    3  A    between atoms: C_10  and  C_15
    4  A    between atoms: C_13  and  C_28
    5  A    between atoms: C_15  and  C_17
                            x       y       z     vdW  Elec       q    Type
                         _______ _______ _______ _____ _____    ______ ____

>  <TORSDO>
F 5

$$$$
=
 OpenBabel11042417153D

 31 34  0  0  1  0  0  0  0  0999 V2000
  188.3540  175.9090  142.2480 C   0  0  0  0  0  0  0  0  0  0  0  0
  189.3190  175.7270  145.1950 O   0  0  0  0  0  0  0  0  0  0  0  0
  190.4880  174.6170  143.4280 C   0  0  1  0  0  0  0  0  0  0  0  0
  186.3430  177.0640  143.2400 C   0  0  0  0  0  0  0  0  0  0  0  0
  184.0920  177.9510  140.3970 C   0  0  0  0  0  1  0  0  0  0  0  0
  183.8730  178.2740  142.8970 C   0  0  0  0  0  0  0  0  0  0  0  0
  190.5590  175.6810  144.4890 C   0  0  2  0  0  3  0  0  0  0  0  0
  187.3100  176.7720  145.8420 C   0  0  0  0  0  3  0  0  0  0  0  0
  189.5330  175.1630  142.4470 N   0  0  0  0  0  0  0  0  0  0  0  0
  190.9590  174.8170  142.1380 C   0  0  2  0  0  3  0  0  0  0  0  0
  185.5960  177.5270  144.3430 C   0  0  0  0  0  0  0  0  0  0  0  0
  184.3890  178.1170  144.1420 N   0  0  0  0  0  0  0  0  0  0  0  0
  184.6030  177.8130  141.7920 C   0  0  0  0  0  0  0  0  0  0  0  0
  190.0860  173.3390  143.8320 O   0  0  0  0  0  1  0  0  0  0  0  0
  186.0790  177.3750  145.6320 C   0  0  0  0  0  3  0  0  0  0  0  0
  187.9950  176.1610  141.0670 O   0  0  0  0  0  0  0  0  0  0  0  0
  187.6090  176.4370  143.4330 C   0  0  0  0  0  0  0  0  0  0  0  0
  188.1000  176.3120  144.7850 C   0  0  0  0  0  0  0  0  0  0  0  0
  185.8110  177.2230  141.9960 N   0  0  0  0  0  0  0  0  0  0  0  0
  191.6390  175.3720  145.4130 N   0  0  0  0  0  2  0  0  0  0  0  0
  192.9370  175.9580  145.2950 C   0  0  0  0  0  0  0  0  0  0  0  0
  193.1980  176.7570  144.3560 O   0  0  0  0  0  0  0  0  0  0  0  0
  194.0020  175.5920  146.2700 C   0  0  0  0  0  2  0  0  0  0  0  0
  194.9950  174.6850  145.6300 C   0  0  0  0  0  0  0  0  0  0  0  0
  196.1320  175.2110  145.0310 O   0  0  0  0  0  0  0  0  0  0  0  0
  194.8220  173.4390  145.6610 O   0  0  0  0  0  1  0  0  0  0  0  0
  192.4120  172.8500  141.2280 C   0  0  0  0  0  1  0  0  0  0  0  0
  191.0690  173.5740  141.2260 C   0  0  2  0  0  3  0  0  0  0  0  0
  190.6710  173.8950  139.8650 N   0  0  0  0  0  1  0  0  0  0  0  0
  181.5560  179.4170  142.6220 N   0  0  0  0  0  0  0  0  0  0  0  0
  182.5880  178.9090  142.7450 C   0  0  0  0  0  0  0  0  0  0  0  0
  1  9  1  0  0  0  0
  1 17  1  0  0  0  0
  3 14  1  1  0  0  0
  3  7  1  0  0  0  0
  4 17  1  0  0  0  0
  4 11  1  0  0  0  0
  5 13  1  0  0  0  0
  6 12  1  0  0  0  0
  7  2  1  0  0  0  0
  7 20  1  1  0  0  0
  9  3  1  0  0  0  0
 10 28  1  6  0  0  0
 10  9  1  0  0  0  0
 10  3  1  0  0  0  0
 11 15  1  0  0  0  0
 12 11  2  0  0  0  0
 13 19  1  0  0  0  0
 13  6  2  0  0  0  0
 15  8  2  0  0  0  0
 16  1  2  0  0  0  0
 17 18  2  0  0  0  0
 18  2  1  0  0  0  0
 18  8  1  0  0  0  0
 19  4  2  0  0  0  0
 21 20  1  0  0  0  0
 21 23  1  0  0  0  0
 22 21  2  0  0  0  0
 24 26  1  0  0  0  0
 24 23  1  0  0  0  0
 25 24  2  0  0  0  0
 28 27  1  6  0  0  0
 29 28  1  0  0  0  0
 30 31  3  0  0  0  0
 31  6  1  0  0  0  0
M  END
>  <MODEL>
5

>  <REMARK>
 VINA RESULT:      -6.5      2.657      8.868
  Name = 
  5 active torsions:
  status: ('A' for Active; 'I' for Inactive)
    1  A    between atoms: N_3  and  C_9
    2  A    between atoms: C_8  and  C_26
    3  A    between atoms: C_10  and  C_15
    4  A    between atoms: C_13  and  C_28
    5  A    between atoms: C_15  and  C_17
                            x       y       z     vdW  Elec       q    Type
                         _______ _______ _______ _____ _____    ______ ____

>  <TORSDO>
F 5

$$$$
=
 OpenBabel11042417153D

 31 34  0  0  1  0  0  0  0  0999 V2000
  191.8260  174.9270  142.2740 C   0  0  0  0  0  0  0  0  0  0  0  0
  189.2890  174.9090  144.0690 O   0  0  0  0  0  0  0  0  0  0  0  0
  191.3940  175.6950  144.8890 C   0  0  1  0  0  0  0  0  0  0  0  0
  190.3750  173.6650  140.6410 C   0  0  0  0  0  0  0  0  0  0  0  0
  192.4720  172.9850  137.6290 C   0  0  0  0  0  1  0  0  0  0  0  0
  190.0840  172.3790  138.2030 C   0  0  0  0  0  0  0  0  0  0  0  0
  189.9730  176.0620  144.5590 C   0  0  2  0  0  3  0  0  0  0  0  0
  188.1960  173.6730  142.3880 C   0  0  0  0  0  3  0  0  0  0  0  0
  192.0070  175.4430  143.5730 N   0  0  0  0  0  0  0  0  0  0  0  0
  192.4720  176.4930  144.5360 C   0  0  2  0  0  3  0  0  0  0  0  0
  189.1620  173.0380  140.2850 C   0  0  0  0  0  0  0  0  0  0  0  0
  189.0500  172.4170  139.0830 N   0  0  0  0  0  0  0  0  0  0  0  0
  191.2970  172.9940  138.5480 C   0  0  0  0  0  0  0  0  0  0  0  0
  191.5890  174.5930  145.7310 O   0  0  0  0  0  1  0  0  0  0  0  0
  188.0870  173.0410  141.1580 C   0  0  0  0  0  3  0  0  0  0  0  0
  192.7630  175.0520  141.4420 O   0  0  0  0  0  0  0  0  0  0  0  0
  190.5110  174.3170  141.9030 C   0  0  0  0  0  0  0  0  0  0  0  0
  189.3670  174.3250  142.7840 C   0  0  0  0  0  0  0  0  0  0  0  0
  191.4060  173.6140  139.7520 N   0  0  0  0  0  0  0  0  0  0  0  0
  189.3090  176.5550  145.7550 N   0  0  0  0  0  2  0  0  0  0  0  0
  188.1850  177.4370  145.6970 C   0  0  0  0  0  0  0  0  0  0  0  0
  187.7420  177.8400  144.5890 O   0  0  0  0  0  0  0  0  0  0  0  0
  187.5560  177.9120  146.9600 C   0  0  0  0  0  2  0  0  0  0  0  0
  186.0720  177.8650  146.8450 C   0  0  0  0  0  0  0  0  0  0  0  0
  185.3350  179.0410  146.8750 O   0  0  0  0  0  1  0  0  0  0  0  0
  185.4860  176.7620  146.6880 O   0  0  0  0  0  0  0  0  0  0  0  0
  194.1530  176.7720  146.5130 C   0  0  0  0  0  1  0  0  0  0  0  0
  193.8440  176.1430  145.1580 C   0  0  2  0  0  3  0  0  0  0  0  0
  194.9200  176.4120  144.2190 N   0  0  0  0  0  1  0  0  0  0  0  0
  189.7650  171.1660  135.9280 N   0  0  0  0  0  0  0  0  0  0  0  0
  189.9070  171.7060  136.9410 C   0  0  0  0  0  0  0  0  0  0  0  0
  1  9  1  0  0  0  0
  2  7  1  0  0  0  0
  3 14  1  1  0  0  0
  4 17  1  0  0  0  0
  5 13  1  0  0  0  0
  6 13  2  0  0  0  0
  6 12  1  0  0  0  0
  7  3  1  0  0  0  0
  7 20  1  1  0  0  0
  8 18  1  0  0  0  0
  9 10  1  0  0  0  0
  9  3  1  0  0  0  0
 10  3  1  0  0  0  0
 10 28  1  1  0  0  0
 11  4  1  0  0  0  0
 11 15  1  0  0  0  0
 12 11  2  0  0  0  0
 13 19  1  0  0  0  0
 15  8  2  0  0  0  0
 16  1  2  0  0  0  0
 17  1  1  0  0  0  0
 17 18  2  0  0  0  0
 18  2  1  0  0  0  0
 19  4  2  0  0  0  0
 21 20  1  0  0  0  0
 21 23  1  0  0  0  0
 22 21  2  0  0  0  0
 24 25  1  0  0  0  0
 24 23  1  0  0  0  0
 26 24  2  0  0  0  0
 28 27  1  1  0  0  0
 29 28  1  0  0  0  0
 30 31  3  0  0  0  0
 31  6  1  0  0  0  0
M  END
>  <MODEL>
6

>  <REMARK>
 VINA RESULT:      -6.4      3.422      6.472
  Name = 
  5 active torsions:
  status: ('A' for Active; 'I' for Inactive)
    1  A    between atoms: N_3  and  C_9
    2  A    between atoms: C_8  and  C_26
    3  A    between atoms: C_10  and  C_15
    4  A    between atoms: C_13  and  C_28
    5  A    between atoms: C_15  and  C_17
                            x       y       z     vdW  Elec       q    Type
                         _______ _______ _______ _____ _____    ______ ____

>  <TORSDO>
F 5

$$$$
=
 OpenBabel11042417153D

 31 34  0  0  1  0  0  0  0  0999 V2000
  188.7730  176.7100  145.0250 C   0  0  0  0  0  0  0  0  0  0  0  0
  190.1290  175.5240  142.4940 O   0  0  0  0  0  0  0  0  0  0  0  0
  191.3400  175.8220  144.5350 C   0  0  1  0  0  0  0  0  0  0  0  0
  186.8290  177.1420  143.4760 C   0  0  0  0  0  0  0  0  0  0  0  0
  184.1470  178.7390  145.5240 C   0  0  0  0  0  1  0  0  0  0  0  0
  184.2780  178.1440  143.0680 C   0  0  0  0  0  0  0  0  0  0  0  0
  190.8170  174.8290  143.5330 C   0  0  2  0  0  3  0  0  0  0  0  0
  188.1980  176.1020  141.2760 C   0  0  0  0  0  3  0  0  0  0  0  0
  190.1230  176.3370  145.1870 N   0  0  0  0  0  0  0  0  0  0  0  0
  191.2320  175.6280  145.9050 C   0  0  2  0  0  3  0  0  0  0  0  0
  186.2320  177.1230  142.1990 C   0  0  0  0  0  0  0  0  0  0  0  0
  184.9800  177.6210  142.0310 N   0  0  0  0  0  0  0  0  0  0  0  0
  184.8630  178.1740  144.3430 C   0  0  0  0  0  0  0  0  0  0  0  0
  192.1070  176.8830  144.0400 O   0  0  0  0  0  1  0  0  0  0  0  0
  186.9180  176.6110  141.1100 C   0  0  0  0  0  3  0  0  0  0  0  0
  188.1160  177.0440  146.0460 O   0  0  0  0  0  0  0  0  0  0  0  0
  188.1460  176.6280  143.6690 C   0  0  0  0  0  0  0  0  0  0  0  0
  188.8300  176.0790  142.5230 C   0  0  0  0  0  0  0  0  0  0  0  0
  186.1160  177.6750  144.5070 N   0  0  0  0  0  0  0  0  0  0  0  0
  191.9280  174.0770  142.9710 N   0  0  0  0  0  2  0  0  0  0  0  0
  192.3580  172.8280  143.5150 C   0  0  0  0  0  0  0  0  0  0  0  0
  191.7940  172.3410  144.5310 O   0  0  0  0  0  0  0  0  0  0  0  0
  193.5090  172.1130  142.8960 C   0  0  0  0  0  2  0  0  0  0  0  0
  194.7460  172.9350  143.0080 C   0  0  0  0  0  0  0  0  0  0  0  0
  195.1200  173.4640  144.2360 O   0  0  0  0  0  1  0  0  0  0  0  0
  195.4710  173.1240  141.9970 O   0  0  0  0  0  0  0  0  0  0  0  0
  193.5360  176.3300  146.9080 C   0  0  0  0  0  1  0  0  0  0  0  0
  192.0350  176.5830  146.8180 C   0  0  2  0  0  3  0  0  0  0  0  0
  191.4510  176.6360  148.1480 N   0  0  0  0  0  1  0  0  0  0  0  0
  181.8870  179.0680  142.6400 N   0  0  0  0  0  0  0  0  0  0  0  0
  182.9520  178.6570  142.8300 C   0  0  0  0  0  0  0  0  0  0  0  0
  1  9  1  0  0  0  0
  1 16  2  0  0  0  0
  2 18  1  0  0  0  0
  2  7  1  0  0  0  0
  3 14  1  6  0  0  0
  3  9  1  0  0  0  0
  3 10  1  0  0  0  0
  4 17  1  0  0  0  0
  4 19  1  0  0  0  0
  6 13  1  0  0  0  0
  7 20  1  6  0  0  0
  7  3  1  0  0  0  0
  8 18  1  0  0  0  0
  9 10  1  0  0  0  0
 10 28  1  1  0  0  0
 11  4  2  0  0  0  0
 12 11  1  0  0  0  0
 12  6  2  0  0  0  0
 13 19  2  0  0  0  0
 13  5  1  0  0  0  0
 15  8  2  0  0  0  0
 15 11  1  0  0  0  0
 17  1  1  0  0  0  0
 18 17  2  0  0  0  0
 20 21  1  0  0  0  0
 21 22  2  0  0  0  0
 23 24  1  0  0  0  0
 23 21  1  0  0  0  0
 24 25  1  0  0  0  0
 26 24  2  0  0  0  0
 28 27  1  1  0  0  0
 28 29  1  0  0  0  0
 30 31  3  0  0  0  0
 31  6  1  0  0  0  0
M  END
>  <MODEL>
7

>  <REMARK>
 VINA RESULT:      -6.3      2.959      8.117
  Name = 
  5 active torsions:
  status: ('A' for Active; 'I' for Inactive)
    1  A    between atoms: N_3  and  C_9
    2  A    between atoms: C_8  and  C_26
    3  A    between atoms: C_10  and  C_15
    4  A    between atoms: C_13  and  C_28
    5  A    between atoms: C_15  and  C_17
                            x       y       z     vdW  Elec       q    Type
                         _______ _______ _______ _____ _____    ______ ____

>  <TORSDO>
F 5

$$$$
=
 OpenBabel11042417153D

 31 34  0  0  1  0  0  0  0  0999 V2000
  190.5950  176.0840  145.0480 C   0  0  0  0  0  0  0  0  0  0  0  0
  190.5570  174.8320  142.2040 O   0  0  0  0  0  0  0  0  0  0  0  0
  192.5970  175.0950  143.4260 C   0  0  1  0  0  0  0  0  0  0  0  0
  188.1650  176.5820  144.5900 C   0  0  0  0  0  0  0  0  0  0  0  0
  186.8190  178.2930  147.6220 C   0  0  0  0  0  1  0  0  0  0  0  0
  185.7560  177.6790  145.4100 C   0  0  0  0  0  0  0  0  0  0  0  0
  191.6320  174.1170  142.8130 C   0  0  2  0  0  3  0  0  0  0  0  0
  188.2980  175.4770  142.0290 C   0  0  0  0  0  3  0  0  0  0  0  0
  191.8490  175.6600  144.5630 N   0  0  0  0  0  0  0  0  0  0  0  0
  193.1430  174.9130  144.6880 C   0  0  2  0  0  3  0  0  0  0  0  0
  187.0350  176.5780  143.7460 C   0  0  0  0  0  0  0  0  0  0  0  0
  185.8680  177.1240  144.1770 N   0  0  0  0  0  0  0  0  0  0  0  0
  186.8740  177.6940  146.2570 C   0  0  0  0  0  0  0  0  0  0  0  0
  193.0720  176.1230  142.6030 O   0  0  0  0  0  1  0  0  0  0  0  0
  187.1090  176.0340  142.4740 C   0  0  0  0  0  3  0  0  0  0  0  0
  190.5090  176.4490  146.2500 O   0  0  0  0  0  0  0  0  0  0  0  0
  189.4000  176.0190  144.1510 C   0  0  0  0  0  0  0  0  0  0  0  0
  189.4430  175.4370  142.8300 C   0  0  0  0  0  0  0  0  0  0  0  0
  188.0400  177.1480  145.8220 N   0  0  0  0  0  0  0  0  0  0  0  0
  192.3210  173.3200  141.8100 N   0  0  0  0  0  2  0  0  0  0  0  0
  191.8220  172.0570  141.3630 C   0  0  0  0  0  0  0  0  0  0  0  0
  190.7640  171.5760  141.8470 O   0  0  0  0  0  0  0  0  0  0  0  0
  192.5820  171.2870  140.3390 C   0  0  0  0  0  2  0  0  0  0  0  0
  191.8490  171.2950  139.0420 C   0  0  0  0  0  0  0  0  0  0  0  0
  191.2110  172.4510  138.6100 O   0  0  0  0  0  1  0  0  0  0  0  0
  191.8350  170.2640  138.3200 O   0  0  0  0  0  0  0  0  0  0  0  0
  195.7110  175.3730  144.7100 C   0  0  0  0  0  1  0  0  0  0  0  0
  194.3110  175.8410  145.0930 C   0  0  2  0  0  3  0  0  0  0  0  0
  194.2540  176.1550  146.5110 N   0  0  0  0  0  1  0  0  0  0  0  0
  183.4770  178.6940  146.1390 N   0  0  0  0  0  0  0  0  0  0  0  0
  184.4920  178.2420  145.8140 C   0  0  0  0  0  0  0  0  0  0  0  0
  1 16  2  0  0  0  0
  2  7  1  0  0  0  0
  2 18  1  0  0  0  0
  3 14  1  6  0  0  0
  3  9  1  0  0  0  0
  3 10  1  0  0  0  0
  4 19  1  0  0  0  0
  6 31  1  0  0  0  0
  6 13  1  0  0  0  0
  7 20  1  6  0  0  0
  7  3  1  0  0  0  0
  8 15  2  0  0  0  0
  8 18  1  0  0  0  0
  9 10  1  0  0  0  0
  9  1  1  0  0  0  0
 10 28  1  6  0  0  0
 11 12  1  0  0  0  0
 11  4  2  0  0  0  0
 12  6  2  0  0  0  0
 13  5  1  0  0  0  0
 15 11  1  0  0  0  0
 17  4  1  0  0  0  0
 17  1  1  0  0  0  0
 18 17  2  0  0  0  0
 19 13  2  0  0  0  0
 21 20  1  0  0  0  0
 21 22  2  0  0  0  0
 23 21  1  0  0  0  0
 24 23  1  0  0  0  0
 25 24  1  0  0  0  0
 26 24  2  0  0  0  0
 28 27  1  1  0  0  0
 28 29  1  0  0  0  0
 31 30  3  0  0  0  0
M  END
>  <MODEL>
8

>  <REMARK>
 VINA RESULT:      -6.2      3.128      7.751
  Name = 
  5 active torsions:
  status: ('A' for Active; 'I' for Inactive)
    1  A    between atoms: N_3  and  C_9
    2  A    between atoms: C_8  and  C_26
    3  A    between atoms: C_10  and  C_15
    4  A    between atoms: C_13  and  C_28
    5  A    between atoms: C_15  and  C_17
                            x       y       z     vdW  Elec       q    Type
                         _______ _______ _______ _____ _____    ______ ____

>  <TORSDO>
F 5

$$$$
=
 OpenBabel11042417153D

 31 34  0  0  1  0  0  0  0  0999 V2000
  188.6840  174.9570  140.9420 C   0  0  0  0  0  0  0  0  0  0  0  0
  189.4960  176.1480  143.6950 O   0  0  0  0  0  0  0  0  0  0  0  0
  187.7470  177.1170  142.3820 C   0  0  1  0  0  0  0  0  0  0  0  0
  190.7090  173.4870  141.2620 C   0  0  0  0  0  0  0  0  0  0  0  0
  190.9120  171.2580  138.2740 C   0  0  0  0  0  1  0  0  0  0  0  0
  192.3880  171.4950  140.3160 C   0  0  0  0  0  0  0  0  0  0  0  0
  188.0960  176.4230  143.6710 C   0  0  2  0  0  3  0  0  0  0  0  0
  191.3500  174.6960  143.6960 C   0  0  0  0  0  3  0  0  0  0  0  0
  187.9280  176.0700  141.3600 N   0  0  0  0  0  0  0  0  0  0  0  0
  186.6330  176.7760  141.6290 C   0  0  2  0  0  3  0  0  0  0  0  0
  191.8510  173.0860  141.9880 C   0  0  0  0  0  0  0  0  0  0  0  0
  192.6540  172.1070  141.4980 N   0  0  0  0  0  0  0  0  0  0  0  0
  191.2590  171.8870  139.5820 C   0  0  0  0  0  0  0  0  0  0  0  0
  188.4930  178.2530  142.0470 O   0  0  0  0  0  1  0  0  0  0  0  0
  192.1670  173.6940  143.1920 C   0  0  0  0  0  3  0  0  0  0  0  0
  188.3090  174.3250  139.9200 O   0  0  0  0  0  0  0  0  0  0  0  0
  189.8580  174.5180  141.7590 C   0  0  0  0  0  0  0  0  0  0  0  0
  190.1970  175.1180  143.0280 C   0  0  0  0  0  0  0  0  0  0  0  0
  190.4570  172.8680  140.0750 N   0  0  0  0  0  0  0  0  0  0  0  0
  187.7440  177.2800  144.7930 N   0  0  0  0  0  2  0  0  0  0  0  0
  187.7650  176.8150  146.1440 C   0  0  0  0  0  0  0  0  0  0  0  0
  188.0720  175.6220  146.4090 O   0  0  0  0  0  0  0  0  0  0  0  0
  187.3850  177.7420  147.2460 C   0  0  0  0  0  2  0  0  0  0  0  0
  185.9710  178.1820  147.0840 C   0  0  0  0  0  0  0  0  0  0  0  0
  184.9890  177.2580  146.7520 O   0  0  0  0  0  0  0  0  0  0  0  0
  185.6590  179.3850  147.2800 O   0  0  0  0  0  1  0  0  0  0  0  0
  184.8450  178.3390  140.5480 C   0  0  0  0  0  1  0  0  0  0  0  0
  186.2410  177.7280  140.4760 C   0  0  2  0  0  3  0  0  0  0  0  0
  186.4470  177.0910  139.1870 N   0  0  0  0  0  1  0  0  0  0  0  0
  193.9870  169.6290  139.4700 N   0  0  0  0  0  0  0  0  0  0  0  0
  193.2750  170.4600  139.8470 C   0  0  0  0  0  0  0  0  0  0  0  0
  1  9  1  0  0  0  0
  1 17  1  0  0  0  0
  3 14  1  6  0  0  0
  3  7  1  0  0  0  0
  4 17  1  0  0  0  0
  4 11  1  0  0  0  0
  5 13  1  0  0  0  0
  6 12  1  0  0  0  0
  7  2  1  0  0  0  0
  7 20  1  1  0  0  0
  9 10  1  0  0  0  0
  9  3  1  0  0  0  0
 10 28  1  6  0  0  0
 10  3  1  0  0  0  0
 11 15  1  0  0  0  0
 12 11  2  0  0  0  0
 13 19  1  0  0  0  0
 13  6  2  0  0  0  0
 15  8  2  0  0  0  0
 16  1  2  0  0  0  0
 17 18  2  0  0  0  0
 18  2  1  0  0  0  0
 18  8  1  0  0  0  0
 19  4  2  0  0  0  0
 20 21  1  0  0  0  0
 21 22  2  0  0  0  0
 21 23  1  0  0  0  0
 24 23  1  0  0  0  0
 24 26  1  0  0  0  0
 25 24  2  0  0  0  0
 28 27  1  1  0  0  0
 29 28  1  0  0  0  0
 30 31  3  0  0  0  0
 31  6  1  0  0  0  0
M  END
>  <MODEL>
9

>  <REMARK>
 VINA RESULT:      -6.2      3.034      5.725
  Name = 
  5 active torsions:
  status: ('A' for Active; 'I' for Inactive)
    1  A    between atoms: N_3  and  C_9
    2  A    between atoms: C_8  and  C_26
    3  A    between atoms: C_10  and  C_15
    4  A    between atoms: C_13  and  C_28
    5  A    between atoms: C_15  and  C_17
                            x       y       z     vdW  Elec       q    Type
                         _______ _______ _______ _____ _____    ______ ____

>  <TORSDO>
F 5

$$$$
