=
 OpenBabel11042415193D

 45 48  0  0  1  0  0  0  0  0999 V2000
  195.4510  173.7550  144.8660 C   0  0  1  0  0  3  0  0  0  0  0  0
  194.4400  174.5440  145.6930 C   0  0  0  0  0  2  0  0  0  0  0  0
  192.1940  177.1430  144.6540 C   0  0  0  0  0  3  0  0  0  0  0  0
  193.3280  176.5800  144.9810 C   0  0  0  0  0  0  0  0  0  0  0  0
  194.4430  175.9860  145.3090 C   0  0  0  0  0  3  0  0  0  0  0  0
  189.9420  174.5490  146.0830 C   0  0  0  0  0  3  0  0  0  0  0  0
  188.2000  176.1980  146.6540 C   0  0  0  0  0  0  0  0  0  0  0  0
  186.8970  176.0550  147.0010 F   0  0  0  0  0  0  0  0  0  0  0  0
  188.5500  177.2570  145.9230 C   0  0  0  0  0  3  0  0  0  0  0  0
  190.7070  175.2010  145.2070 C   0  0  0  0  0  3  0  0  0  0  0  0
  188.6060  174.2920  147.9930 F   0  0  0  0  0  0  0  0  0  0  0  0
  189.2150  175.2360  147.1890 C   0  0  1  0  0  3  0  0  0  0  0  0
  189.9130  177.5510  145.4330 C   0  0  0  0  0  3  0  0  0  0  0  0
  190.8910  176.6660  145.1540 C   0  0  0  0  0  0  0  0  0  0  0  0
  194.8420  173.2290  143.6450 N   0  0  0  0  0  2  0  0  0  0  0  0
  192.5650  173.4850  142.7980 C   0  0  0  0  0  3  0  0  0  0  0  0
  193.0940  171.5330  144.1080 C   0  0  0  0  0  3  0  0  0  0  0  0
  191.2530  173.0160  142.6540 C   0  0  0  0  0  0  0  0  0  0  0  0
  193.4990  172.7410  143.5240 C   0  0  0  0  0  0  0  0  0  0  0  0
  190.8970  171.8050  143.2480 C   0  0  0  0  0  3  0  0  0  0  0  0
  191.8150  171.0960  143.9600 N   0  0  0  0  0  0  0  0  0  0  0  0
  190.2740  173.7550  141.9170 N   0  0  0  0  0  2  0  0  0  0  0  0
  188.8520  173.7580  142.2420 C   0  0  2  0  0  3  0  0  0  0  0  0
  188.0750  172.9440  141.2200 C   0  0  0  0  0  1  0  0  0  0  0  0
  186.5440  176.6960  142.7110 C   0  0  0  0  0  0  0  0  0  0  0  0
  187.3510  177.7470  142.4080 C   0  0  0  0  0  0  0  0  0  0  0  0
  185.2890  177.1630  143.0450 O   0  0  0  0  0  0  0  0  0  0  0  0
  188.3360  175.1600  142.2980 C   0  0  0  0  0  0  0  0  0  0  0  0
  189.1740  176.2580  141.9790 C   0  0  0  0  0  3  0  0  0  0  0  0
  188.6820  177.5750  142.0350 C   0  0  0  0  0  3  0  0  0  0  0  0
  186.9950  175.3800  142.6680 C   0  0  0  0  0  3  0  0  0  0  0  0
  186.6390  178.9240  142.5340 O   0  0  0  0  0  0  0  0  0  0  0  0
  185.3050  178.5950  142.9470 C   0  0  0  0  0  2  0  0  0  0  0  0
  196.6820  174.5900  144.5420 C   0  0  0  0  0  2  0  0  0  0  0  0
  196.8840  174.7090  143.0340 C   0  0  0  0  0  2  0  0  0  0  0  0
  197.0970  176.1590  142.6170 C   0  0  0  0  0  2  0  0  0  0  0  0
  196.0400  176.6010  141.6220 C   0  0  0  0  0  2  0  0  0  0  0  0
  195.3610  175.3890  141.0080 C   0  0  0  0  0  2  0  0  0  0  0  0
  195.7300  175.2700  139.5360 C   0  0  0  0  0  2  0  0  0  0  0  0
  192.4230  174.1970  138.2490 N   0  0  0  0  0  2  0  0  0  0  0  0
  194.5390  175.1150  138.7150 N   0  0  0  0  0  0  0  0  0  0  0  0
  193.5810  174.3240  139.0710 C   0  0  0  0  0  3  0  0  0  0  0  0
  191.3600  173.3600  138.6130 N   0  0  0  0  0  0  0  0  0  0  0  0
  191.5960  172.1330  139.1930 O   0  0  0  0  0  0  0  0  0  0  0  0
  190.1860  173.7390  138.4260 O   0  0  0  0  0  0  0  0  0  0  0  0
  1 34  1  6  0  0  0
  1  2  1  0  0  0  0
  3  4  2  0  0  0  0
  3 14  1  0  0  0  0
  4  5  2  0  0  0  0
  5  2  1  0  0  0  0
  6 12  1  0  0  0  0
  7  8  1  0  0  0  0
  7 12  1  0  0  0  0
  9  7  2  0  0  0  0
 10  6  2  0  0  0  0
 12 11  1  6  0  0  0
 13  9  1  0  0  0  0
 14 10  1  0  0  0  0
 14 13  2  0  0  0  0
 15  1  1  0  0  0  0
 16 19  1  0  0  0  0
 18 16  2  0  0  0  0
 18 20  1  0  0  0  0
 19 15  1  0  0  0  0
 19 17  2  0  0  0  0
 20 21  2  0  0  0  0
 21 17  1  0  0  0  0
 22 23  1  0  0  0  0
 22 18  1  0  0  0  0
 23 24  1  6  0  0  0
 23 28  1  0  0  0  0
 25 27  1  0  0  0  0
 26 32  1  0  0  0  0
 26 25  2  0  0  0  0
 28 31  2  0  0  0  0
 29 30  2  0  0  0  0
 29 28  1  0  0  0  0
 30 26  1  0  0  0  0
 31 25  1  0  0  0  0
 32 33  1  0  0  0  0
 33 27  1  0  0  0  0
 35 34  1  0  0  0  0
 36 35  1  0  0  0  0
 37 36  1  0  0  0  0
 38 37  1  0  0  0  0
 39 38  1  0  0  0  0
 40 43  1  0  0  0  0
 40 42  1  0  0  0  0
 41 42  2  0  0  0  0
 41 39  1  0  0  0  0
 43 44  2  0  0  0  0
 45 43  2  0  0  0  0
M  END
>  <MODEL>
1

>  <REMARK>
 VINA RESULT:      -6.7      0.000      0.000
  Name = 
  16 active torsions:
  status: ('A' for Active; 'I' for Inactive)
    1  A    between atoms: C_1  and  C_44
    2  A    between atoms: C_2  and  C_31
    3  A    between atoms: C_2  and  C_39
    4  A    between atoms: C_4  and  N_8
    5  A    between atoms: C_4  and  C_21
    6  A    between atoms: C_5  and  N_25
    7  A    between atoms: C_5  and  C_34
    8  A    between atoms: N_6  and  N_11
    9  A    between atoms: C_7  and  C_27
   10  A    between atoms: C_7  and  C_34
   11  A    between atoms: N_8  and  C_26
   12  A    between atoms: C_27  and  C_39
   13  A    between atoms: C_30  and  C_42
   14  A    between atoms: C_31  and  N_37
   15  A    between atoms: C_31  and  C_42
   16  A    between atoms: C_36  and  N_37
                            x       y       z     vdW  Elec       q    Type
                         _______ _______ _______ _____ _____    ______ ____

>  <TORSDO>
F 16

$$$$
=
 OpenBabel11042415193D

 45 48  0  0  1  0  0  0  0  0999 V2000
  192.5840  173.4990  143.1160 C   0  0  1  0  0  3  0  0  0  0  0  0
  193.5900  173.9110  142.0450 C   0  0  0  0  0  2  0  0  0  0  0  0
  191.8590  176.8600  143.1330 C   0  0  0  0  0  3  0  0  0  0  0  0
  192.6610  176.1230  142.4100 C   0  0  0  0  0  0  0  0  0  0  0  0
  193.4490  175.3570  141.7050 C   0  0  0  0  0  3  0  0  0  0  0  0
  189.4890  176.0620  145.8880 C   0  0  0  0  0  3  0  0  0  0  0  0
  191.2970  175.3580  147.4080 C   0  0  0  0  0  0  0  0  0  0  0  0
  191.3220  175.1400  148.7460 F   0  0  0  0  0  0  0  0  0  0  0  0
  192.3830  175.8720  146.8280 C   0  0  0  0  0  3  0  0  0  0  0  0
  190.1300  176.7560  144.9460 C   0  0  0  0  0  3  0  0  0  0  0  0
  189.1680  174.3310  147.4360 F   0  0  0  0  0  0  0  0  0  0  0  0
  190.1090  174.9160  146.6120 C   0  0  1  0  0  3  0  0  0  0  0  0
  192.5170  176.2000  145.3930 C   0  0  0  0  0  3  0  0  0  0  0  0
  191.5350  176.5480  144.5380 C   0  0  0  0  0  0  0  0  0  0  0  0
  191.4850  172.7250  142.5420 N   0  0  0  0  0  2  0  0  0  0  0  0
  189.4040  173.9910  142.3620 C   0  0  0  0  0  3  0  0  0  0  0  0
  190.3590  173.0560  140.3580 C   0  0  0  0  0  3  0  0  0  0  0  0
  188.3610  174.5300  141.5980 C   0  0  0  0  0  0  0  0  0  0  0  0
  190.4170  173.2530  141.7440 C   0  0  0  0  0  0  0  0  0  0  0  0
  188.3490  174.3130  140.2200 C   0  0  0  0  0  3  0  0  0  0  0  0
  189.3370  173.5840  139.6330 N   0  0  0  0  0  0  0  0  0  0  0  0
  187.3090  175.2900  142.2020 N   0  0  0  0  0  2  0  0  0  0  0  0
  187.0070  176.6720  141.8490 C   0  0  2  0  0  3  0  0  0  0  0  0
  188.2920  177.4750  141.7160 C   0  0  0  0  0  1  0  0  0  0  0  0
  185.4460  177.5440  145.1630 C   0  0  0  0  0  0  0  0  0  0  0  0
  184.4610  178.4070  144.7990 C   0  0  0  0  0  0  0  0  0  0  0  0
  185.4320  177.3840  146.5340 O   0  0  0  0  0  0  0  0  0  0  0  0
  186.1100  177.2860  142.8750 C   0  0  0  0  0  0  0  0  0  0  0  0
  185.0800  178.1840  142.4980 C   0  0  0  0  0  3  0  0  0  0  0  0
  184.2400  178.7590  143.4690 C   0  0  0  0  0  3  0  0  0  0  0  0
  186.2970  176.9550  144.2310 C   0  0  0  0  0  3  0  0  0  0  0  0
  183.7790  178.8280  145.9240 O   0  0  0  0  0  0  0  0  0  0  0  0
  184.3750  178.1970  147.0670 C   0  0  0  0  0  2  0  0  0  0  0  0
  193.2550  172.7320  144.2480 C   0  0  0  0  0  2  0  0  0  0  0  0
  194.7700  172.9200  144.2160 C   0  0  0  0  0  2  0  0  0  0  0  0
  195.2950  173.4010  145.5640 C   0  0  0  0  0  2  0  0  0  0  0  0
  196.4060  174.4180  145.3840 C   0  0  0  0  0  2  0  0  0  0  0  0
  196.0280  175.4200  144.3080 C   0  0  0  0  0  2  0  0  0  0  0  0
  197.2460  175.7720  143.4660 C   0  0  0  0  0  2  0  0  0  0  0  0
  196.9680  174.6450  139.9450 N   0  0  0  0  0  2  0  0  0  0  0  0
  197.2890  174.9680  142.2540 N   0  0  0  0  0  0  0  0  0  0  0  0
  196.9090  175.4540  141.1170 C   0  0  0  0  0  3  0  0  0  0  0  0
  196.5790  175.1450  138.6950 N   0  0  0  0  0  0  0  0  0  0  0  0
  197.5200  175.5240  137.7640 O   0  0  0  0  0  0  0  0  0  0  0  0
  195.3660  175.2320  138.4170 O   0  0  0  0  0  0  0  0  0  0  0  0
  1  2  1  6  0  0  0
  1 34  1  0  0  0  0
  3 14  1  0  0  0  0
  4  3  2  0  0  0  0
  5  2  1  0  0  0  0
  5  4  2  0  0  0  0
  6 12  1  0  0  0  0
  7  8  1  0  0  0  0
  9  7  2  0  0  0  0
 10  6  2  0  0  0  0
 12  7  1  0  0  0  0
 12 11  1  1  0  0  0
 13  9  1  0  0  0  0
 14 10  1  0  0  0  0
 14 13  2  0  0  0  0
 15  1  1  0  0  0  0
 17 19  2  0  0  0  0
 18 22  1  0  0  0  0
 18 16  2  0  0  0  0
 19 16  1  0  0  0  0
 19 15  1  0  0  0  0
 20 18  1  0  0  0  0
 21 20  2  0  0  0  0
 21 17  1  0  0  0  0
 23 24  1  1  0  0  0
 23 22  1  0  0  0  0
 23 28  1  0  0  0  0
 25 27  1  0  0  0  0
 26 25  1  0  0  0  0
 26 32  1  0  0  0  0
 27 33  1  0  0  0  0
 28 31  1  0  0  0  0
 29 28  2  0  0  0  0
 29 30  1  0  0  0  0
 30 26  2  0  0  0  0
 31 25  2  0  0  0  0
 32 33  1  0  0  0  0
 35 34  1  0  0  0  0
 35 36  1  0  0  0  0
 37 36  1  0  0  0  0
 38 37  1  0  0  0  0
 39 38  1  0  0  0  0
 40 42  1  0  0  0  0
 41 39  1  0  0  0  0
 42 41  2  0  0  0  0
 43 40  1  0  0  0  0
 44 43  2  0  0  0  0
 45 43  2  0  0  0  0
M  END
>  <MODEL>
2

>  <REMARK>
 VINA RESULT:      -6.6      2.276      3.886
  Name = 
  16 active torsions:
  status: ('A' for Active; 'I' for Inactive)
    1  A    between atoms: C_1  and  C_44
    2  A    between atoms: C_2  and  C_31
    3  A    between atoms: C_2  and  C_39
    4  A    between atoms: C_4  and  N_8
    5  A    between atoms: C_4  and  C_21
    6  A    between atoms: C_5  and  N_25
    7  A    between atoms: C_5  and  C_34
    8  A    between atoms: N_6  and  N_11
    9  A    between atoms: C_7  and  C_27
   10  A    between atoms: C_7  and  C_34
   11  A    between atoms: N_8  and  C_26
   12  A    between atoms: C_27  and  C_39
   13  A    between atoms: C_30  and  C_42
   14  A    between atoms: C_31  and  N_37
   15  A    between atoms: C_31  and  C_42
   16  A    between atoms: C_36  and  N_37
                            x       y       z     vdW  Elec       q    Type
                         _______ _______ _______ _____ _____    ______ ____

>  <TORSDO>
F 16

$$$$
=
 OpenBabel11042415193D

 45 48  0  0  1  0  0  0  0  0999 V2000
  192.3230  175.2820  146.2820 C   0  0  1  0  0  3  0  0  0  0  0  0
  193.0690  176.6100  146.3830 C   0  0  0  0  0  2  0  0  0  0  0  0
  192.3130  176.4270  142.8790 C   0  0  0  0  0  3  0  0  0  0  0  0
  192.9830  176.7300  143.9610 C   0  0  0  0  0  0  0  0  0  0  0  0
  193.6290  177.0120  145.0590 C   0  0  0  0  0  3  0  0  0  0  0  0
  188.8370  177.5320  142.1450 C   0  0  0  0  0  3  0  0  0  0  0  0
  187.9120  175.2730  142.4890 C   0  0  0  0  0  0  0  0  0  0  0  0
  186.6420  174.8300  142.6590 F   0  0  0  0  0  0  0  0  0  0  0  0
  188.8950  174.6530  143.1440 C   0  0  0  0  0  3  0  0  0  0  0  0
  190.0360  177.4660  142.7250 C   0  0  0  0  0  3  0  0  0  0  0  0
  187.0140  176.7620  140.8870 F   0  0  0  0  0  0  0  0  0  0  0  0
  188.1870  176.3590  141.4950 C   0  0  1  0  0  3  0  0  0  0  0  0
  190.3250  175.0200  143.0980 C   0  0  0  0  0  3  0  0  0  0  0  0
  190.8490  176.2410  142.8720 C   0  0  0  0  0  0  0  0  0  0  0  0
  193.2300  174.1490  146.4600 N   0  0  0  0  0  2  0  0  0  0  0  0
  193.6120  173.0160  144.3300 C   0  0  0  0  0  3  0  0  0  0  0  0
  195.5220  173.7410  145.6070 C   0  0  0  0  0  3  0  0  0  0  0  0
  194.4750  172.5230  143.3430 C   0  0  0  0  0  0  0  0  0  0  0  0
  194.1310  173.6360  145.4690 C   0  0  0  0  0  0  0  0  0  0  0  0
  195.8520  172.6560  143.5200 C   0  0  0  0  0  3  0  0  0  0  0  0
  196.3440  173.2530  144.6400 N   0  0  0  0  0  0  0  0  0  0  0  0
  193.9740  171.8830  142.1650 N   0  0  0  0  0  2  0  0  0  0  0  0
  193.6660  172.5940  140.9300 C   0  0  2  0  0  3  0  0  0  0  0  0
  194.1840  174.0220  141.0000 C   0  0  0  0  0  1  0  0  0  0  0  0
  190.2960  173.3440  139.4270 C   0  0  0  0  0  0  0  0  0  0  0  0
  189.4660  172.5830  140.1880 C   0  0  0  0  0  0  0  0  0  0  0  0
  189.5560  174.0210  138.4790 O   0  0  0  0  0  0  0  0  0  0  0  0
  192.1930  172.5830  140.6780 C   0  0  0  0  0  0  0  0  0  0  0  0
  191.3240  171.7930  141.4720 C   0  0  0  0  0  3  0  0  0  0  0  0
  189.9380  171.7860  141.2290 C   0  0  0  0  0  3  0  0  0  0  0  0
  191.6720  173.3760  139.6380 C   0  0  0  0  0  3  0  0  0  0  0  0
  188.1640  172.7500  139.7560 O   0  0  0  0  0  0  0  0  0  0  0  0
  188.1760  173.6660  138.6520 C   0  0  0  0  0  2  0  0  0  0  0  0
  191.1680  175.2130  147.2720 C   0  0  0  0  0  2  0  0  0  0  0  0
  189.8350  175.4940  146.5810 C   0  0  0  0  0  2  0  0  0  0  0  0
  189.6460  176.9850  146.3310 C   0  0  0  0  0  2  0  0  0  0  0  0
  188.2140  177.4060  146.6040 C   0  0  0  0  0  2  0  0  0  0  0  0
  187.2530  176.3410  146.1070 C   0  0  0  0  0  2  0  0  0  0  0  0
  185.9160  176.9700  145.7410 C   0  0  0  0  0  2  0  0  0  0  0  0
  185.0990  178.3540  142.4000 N   0  0  0  0  0  2  0  0  0  0  0  0
  185.9980  177.6530  144.4590 N   0  0  0  0  0  0  0  0  0  0  0  0
  184.9920  177.6720  143.6470 C   0  0  0  0  0  3  0  0  0  0  0  0
  184.0230  178.4070  141.5040 N   0  0  0  0  0  0  0  0  0  0  0  0
  182.7390  178.1520  141.9310 O   0  0  0  0  0  0  0  0  0  0  0  0
  184.2290  178.7050  140.3100 O   0  0  0  0  0  0  0  0  0  0  0  0
  1  2  1  1  0  0  0
  1 15  1  0  0  0  0
  1 34  1  0  0  0  0
  3  4  2  0  0  0  0
  4  5  2  0  0  0  0
  5  2  1  0  0  0  0
  6 10  2  0  0  0  0
  7  8  1  0  0  0  0
  7  9  2  0  0  0  0
 10 14  1  0  0  0  0
 12 11  1  1  0  0  0
 12  6  1  0  0  0  0
 12  7  1  0  0  0  0
 13  9  1  0  0  0  0
 14  3  1  0  0  0  0
 14 13  2  0  0  0  0
 16 19  1  0  0  0  0
 18 20  1  0  0  0  0
 18 16  2  0  0  0  0
 19 17  2  0  0  0  0
 19 15  1  0  0  0  0
 20 21  2  0  0  0  0
 21 17  1  0  0  0  0
 22 18  1  0  0  0  0
 23 24  1  1  0  0  0
 23 22  1  0  0  0  0
 25 31  2  0  0  0  0
 25 26  1  0  0  0  0
 26 30  2  0  0  0  0
 27 33  1  0  0  0  0
 27 25  1  0  0  0  0
 28 23  1  0  0  0  0
 28 29  2  0  0  0  0
 30 29  1  0  0  0  0
 31 28  1  0  0  0  0
 32 26  1  0  0  0  0
 33 32  1  0  0  0  0
 35 34  1  0  0  0  0
 36 35  1  0  0  0  0
 36 37  1  0  0  0  0
 38 37  1  0  0  0  0
 39 38  1  0  0  0  0
 40 42  1  0  0  0  0
 41 39  1  0  0  0  0
 42 41  2  0  0  0  0
 43 44  2  0  0  0  0
 43 40  1  0  0  0  0
 45 43  2  0  0  0  0
M  END
>  <MODEL>
3

>  <REMARK>
 VINA RESULT:      -6.4      2.764      6.350
  Name = 
  16 active torsions:
  status: ('A' for Active; 'I' for Inactive)
    1  A    between atoms: C_1  and  C_44
    2  A    between atoms: C_2  and  C_31
    3  A    between atoms: C_2  and  C_39
    4  A    between atoms: C_4  and  N_8
    5  A    between atoms: C_4  and  C_21
    6  A    between atoms: C_5  and  N_25
    7  A    between atoms: C_5  and  C_34
    8  A    between atoms: N_6  and  N_11
    9  A    between atoms: C_7  and  C_27
   10  A    between atoms: C_7  and  C_34
   11  A    between atoms: N_8  and  C_26
   12  A    between atoms: C_27  and  C_39
   13  A    between atoms: C_30  and  C_42
   14  A    between atoms: C_31  and  N_37
   15  A    between atoms: C_31  and  C_42
   16  A    between atoms: C_36  and  N_37
                            x       y       z     vdW  Elec       q    Type
                         _______ _______ _______ _____ _____    ______ ____

>  <TORSDO>
F 16

$$$$
=
 OpenBabel11042415193D

 45 48  0  0  1  0  0  0  0  0999 V2000
  190.4540  176.8650  146.4880 C   0  0  1  0  0  3  0  0  0  0  0  0
  189.2470  175.9480  146.6610 C   0  0  0  0  0  2  0  0  0  0  0  0
  189.6390  172.8810  144.8380 C   0  0  0  0  0  3  0  0  0  0  0  0
  189.6650  173.6950  145.8620 C   0  0  0  0  0  0  0  0  0  0  0  0
  189.6750  174.5320  146.8630 C   0  0  0  0  0  3  0  0  0  0  0  0
  191.5540  174.2970  141.9800 C   0  0  0  0  0  3  0  0  0  0  0  0
  189.8140  173.6810  140.3460 C   0  0  0  0  0  0  0  0  0  0  0  0
  189.6010  174.0620  139.0620 F   0  0  0  0  0  0  0  0  0  0  0  0
  188.7560  173.4450  141.1230 C   0  0  0  0  0  3  0  0  0  0  0  0
  190.9180  174.2230  143.1500 C   0  0  0  0  0  3  0  0  0  0  0  0
  192.1130  173.6560  139.7950 F   0  0  0  0  0  0  0  0  0  0  0  0
  191.2130  173.4290  140.8180 C   0  0  1  0  0  3  0  0  0  0  0  0
  188.8040  173.0520  142.5470 C   0  0  0  0  0  3  0  0  0  0  0  0
  189.7660  173.3460  143.4440 C   0  0  0  0  0  0  0  0  0  0  0  0
  191.6640  176.2600  147.0410 N   0  0  0  0  0  2  0  0  0  0  0  0
  193.1610  174.7210  145.8760 C   0  0  0  0  0  3  0  0  0  0  0  0
  193.7980  177.0390  146.0480 C   0  0  0  0  0  3  0  0  0  0  0  0
  194.3360  174.4650  145.1560 C   0  0  0  0  0  0  0  0  0  0  0  0
  192.8810  176.0150  146.3220 C   0  0  0  0  0  0  0  0  0  0  0  0
  195.2170  175.5170  144.9020 C   0  0  0  0  0  3  0  0  0  0  0  0
  194.9350  176.7700  145.3510 N   0  0  0  0  0  0  0  0  0  0  0  0
  194.6510  173.1510  144.6860 N   0  0  0  0  0  2  0  0  0  0  0  0
  193.7880  171.9930  144.8890 C   0  0  2  0  0  3  0  0  0  0  0  0
  194.4780  170.9700  145.7770 C   0  0  0  0  0  1  0  0  0  0  0  0
  191.9130  170.0890  142.2350 C   0  0  0  0  0  0  0  0  0  0  0  0
  192.7170  170.2400  141.1500 C   0  0  0  0  0  0  0  0  0  0  0  0
  190.8100  169.3360  141.8870 O   0  0  0  0  0  0  0  0  0  0  0  0
  193.4220  171.3830  143.5740 C   0  0  0  0  0  0  0  0  0  0  0  0
  194.2600  171.5360  142.4410 C   0  0  0  0  0  3  0  0  0  0  0  0
  193.9090  170.9600  141.2060 C   0  0  0  0  0  3  0  0  0  0  0  0
  192.2270  170.6440  143.4730 C   0  0  0  0  0  3  0  0  0  0  0  0
  192.1590  169.5850  140.0700 O   0  0  0  0  0  0  0  0  0  0  0  0
  190.9250  168.9910  140.4980 C   0  0  0  0  0  2  0  0  0  0  0  0
  190.6580  177.2500  145.0290 C   0  0  0  0  0  2  0  0  0  0  0  0
  189.3200  177.4220  144.3140 C   0  0  0  0  0  2  0  0  0  0  0  0
  189.5160  177.6420  142.8190 C   0  0  0  0  0  2  0  0  0  0  0  0
  188.5010  176.8510  142.0140 C   0  0  0  0  0  2  0  0  0  0  0  0
  187.5540  177.7960  141.2960 C   0  0  0  0  0  2  0  0  0  0  0  0
  186.1160  177.5100  141.7060 C   0  0  0  0  0  2  0  0  0  0  0  0
  185.2150  178.4670  145.1730 N   0  0  0  0  0  2  0  0  0  0  0  0
  185.7540  178.2740  142.8900 N   0  0  0  0  0  0  0  0  0  0  0  0
  185.5630  177.6920  144.0280 C   0  0  0  0  0  3  0  0  0  0  0  0
  185.0170  177.8690  146.4250 N   0  0  0  0  0  0  0  0  0  0  0  0
  185.0040  178.6280  147.5730 O   0  0  0  0  0  0  0  0  0  0  0  0
  184.8330  176.6370  146.4970 O   0  0  0  0  0  0  0  0  0  0  0  0
  1 34  1  6  0  0  0
  1  2  1  0  0  0  0
  1 15  1  0  0  0  0
  2  5  1  0  0  0  0
  3  4  2  0  0  0  0
  4  5  2  0  0  0  0
  6 10  2  0  0  0  0
  7 12  1  0  0  0  0
  7  9  2  0  0  0  0
  8  7  1  0  0  0  0
  9 13  1  0  0  0  0
 10 14  1  0  0  0  0
 12 11  1  6  0  0  0
 12  6  1  0  0  0  0
 13 14  2  0  0  0  0
 14  3  1  0  0  0  0
 16 19  1  0  0  0  0
 17 19  2  0  0  0  0
 18 16  2  0  0  0  0
 19 15  1  0  0  0  0
 20 18  1  0  0  0  0
 20 21  2  0  0  0  0
 21 17  1  0  0  0  0
 22 23  1  0  0  0  0
 22 18  1  0  0  0  0
 23 24  1  1  0  0  0
 25 31  1  0  0  0  0
 26 30  1  0  0  0  0
 26 25  2  0  0  0  0
 27 25  1  0  0  0  0
 28 23  1  0  0  0  0
 29 28  1  0  0  0  0
 30 29  2  0  0  0  0
 31 28  2  0  0  0  0
 32 33  1  0  0  0  0
 32 26  1  0  0  0  0
 33 27  1  0  0  0  0
 35 34  1  0  0  0  0
 36 35  1  0  0  0  0
 37 36  1  0  0  0  0
 38 39  1  0  0  0  0
 38 37  1  0  0  0  0
 39 41  1  0  0  0  0
 40 43  1  0  0  0  0
 41 42  2  0  0  0  0
 42 40  1  0  0  0  0
 43 45  2  0  0  0  0
 43 44  2  0  0  0  0
M  END
>  <MODEL>
4

>  <REMARK>
 VINA RESULT:      -6.3      3.405      7.654
  Name = 
  16 active torsions:
  status: ('A' for Active; 'I' for Inactive)
    1  A    between atoms: C_1  and  C_44
    2  A    between atoms: C_2  and  C_31
    3  A    between atoms: C_2  and  C_39
    4  A    between atoms: C_4  and  N_8
    5  A    between atoms: C_4  and  C_21
    6  A    between atoms: C_5  and  N_25
    7  A    between atoms: C_5  and  C_34
    8  A    between atoms: N_6  and  N_11
    9  A    between atoms: C_7  and  C_27
   10  A    between atoms: C_7  and  C_34
   11  A    between atoms: N_8  and  C_26
   12  A    between atoms: C_27  and  C_39
   13  A    between atoms: C_30  and  C_42
   14  A    between atoms: C_31  and  N_37
   15  A    between atoms: C_31  and  C_42
   16  A    between atoms: C_36  and  N_37
                            x       y       z     vdW  Elec       q    Type
                         _______ _______ _______ _____ _____    ______ ____

>  <TORSDO>
F 16

$$$$
=
 OpenBabel11042415193D

 45 48  0  0  1  0  0  0  0  0999 V2000
  189.5120  176.9990  143.0480 C   0  0  1  0  0  3  0  0  0  0  0  0
  189.0120  177.9580  141.9730 C   0  0  0  0  0  2  0  0  0  0  0  0
  185.7110  176.9610  142.9690 C   0  0  0  0  0  3  0  0  0  0  0  0
  186.7080  177.2190  142.1620 C   0  0  0  0  0  0  0  0  0  0  0  0
  187.7240  177.4810  141.3870 C   0  0  0  0  0  3  0  0  0  0  0  0
  185.0180  176.9130  146.6240 C   0  0  0  0  0  3  0  0  0  0  0  0
  185.8900  179.1970  146.9450 C   0  0  0  0  0  0  0  0  0  0  0  0
  185.7810  180.0710  147.9760 F   0  0  0  0  0  0  0  0  0  0  0  0
  185.9100  179.6790  145.7020 C   0  0  0  0  0  3  0  0  0  0  0  0
  184.8140  176.8440  145.3070 C   0  0  0  0  0  3  0  0  0  0  0  0
  186.1310  177.5200  148.5960 F   0  0  0  0  0  0  0  0  0  0  0  0
  186.0970  177.7420  147.2330 C   0  0  1  0  0  3  0  0  0  0  0  0
  185.9930  178.8710  144.4670 C   0  0  0  0  0  3  0  0  0  0  0  0
  185.5590  177.6080  144.2850 C   0  0  0  0  0  0  0  0  0  0  0  0
  190.4710  176.0410  142.5000 N   0  0  0  0  0  2  0  0  0  0  0  0
  191.3290  173.7860  142.1220 C   0  0  0  0  0  3  0  0  0  0  0  0
  188.9480  174.0920  142.3290 C   0  0  0  0  0  3  0  0  0  0  0  0
  191.1240  172.4100  141.9570 C   0  0  0  0  0  0  0  0  0  0  0  0
  190.2390  174.6380  142.3160 C   0  0  0  0  0  0  0  0  0  0  0  0
  189.8220  171.9110  141.9830 C   0  0  0  0  0  3  0  0  0  0  0  0
  188.7690  172.7540  142.1640 N   0  0  0  0  0  0  0  0  0  0  0  0
  192.2200  171.5110  141.7560 N   0  0  0  0  0  2  0  0  0  0  0  0
  193.6050  171.8470  142.0620 C   0  0  2  0  0  3  0  0  0  0  0  0
  194.5270  171.3380  140.9650 C   0  0  0  0  0  1  0  0  0  0  0  0
  193.9520  169.4670  144.9590 C   0  0  0  0  0  0  0  0  0  0  0  0
  194.7110  170.1820  145.8300 C   0  0  0  0  0  0  0  0  0  0  0  0
  193.6640  168.2330  145.5080 O   0  0  0  0  0  0  0  0  0  0  0  0
  193.9980  171.2730  143.3850 C   0  0  0  0  0  0  0  0  0  0  0  0
  194.7880  172.0180  144.2970 C   0  0  0  0  0  3  0  0  0  0  0  0
  195.1550  171.4700  145.5400 C   0  0  0  0  0  3  0  0  0  0  0  0
  193.5690  169.9740  143.7200 C   0  0  0  0  0  3  0  0  0  0  0  0
  194.9320  169.4330  146.9690 O   0  0  0  0  0  0  0  0  0  0  0  0
  194.2790  168.1660  146.8030 C   0  0  0  0  0  2  0  0  0  0  0  0
  190.1100  177.7490  144.2320 C   0  0  0  0  0  2  0  0  0  0  0  0
  189.3000  177.5060  145.5020 C   0  0  0  0  0  2  0  0  0  0  0  0
  188.6510  176.1270  145.4890 C   0  0  0  0  0  2  0  0  0  0  0  0
  188.8370  175.4240  146.8210 C   0  0  0  0  0  2  0  0  0  0  0  0
  190.2750  174.9640  146.9730 C   0  0  0  0  0  2  0  0  0  0  0  0
  190.6780  174.1010  145.7850 C   0  0  0  0  0  2  0  0  0  0  0  0
  194.1230  175.3900  145.3210 N   0  0  0  0  0  2  0  0  0  0  0  0
  192.1100  174.1920  145.5410 N   0  0  0  0  0  0  0  0  0  0  0  0
  192.7190  175.3320  145.5580 C   0  0  0  0  0  3  0  0  0  0  0  0
  194.8160  176.6080  145.3470 N   0  0  0  0  0  0  0  0  0  0  0  0
  195.7410  176.9120  144.3730 O   0  0  0  0  0  0  0  0  0  0  0  0
  194.5800  177.4320  146.2530 O   0  0  0  0  0  0  0  0  0  0  0  0
  1  2  1  6  0  0  0
  1 34  1  0  0  0  0
  3 14  1  0  0  0  0
  4  3  2  0  0  0  0
  5  2  1  0  0  0  0
  5  4  2  0  0  0  0
  6 12  1  0  0  0  0
  7 12  1  0  0  0  0
  7  8  1  0  0  0  0
  9  7  2  0  0  0  0
 10  6  2  0  0  0  0
 12 11  1  1  0  0  0
 13  9  1  0  0  0  0
 14 13  2  0  0  0  0
 14 10  1  0  0  0  0
 15  1  1  0  0  0  0
 16 19  1  0  0  0  0
 18 20  1  0  0  0  0
 18 16  2  0  0  0  0
 19 17  2  0  0  0  0
 19 15  1  0  0  0  0
 20 21  2  0  0  0  0
 21 17  1  0  0  0  0
 22 18  1  0  0  0  0
 22 23  1  0  0  0  0
 23 24  1  6  0  0  0
 23 28  1  0  0  0  0
 25 27  1  0  0  0  0
 25 26  1  0  0  0  0
 26 32  1  0  0  0  0
 27 33  1  0  0  0  0
 28 31  1  0  0  0  0
 28 29  2  0  0  0  0
 29 30  1  0  0  0  0
 30 26  2  0  0  0  0
 31 25  2  0  0  0  0
 33 32  1  0  0  0  0
 34 35  1  0  0  0  0
 36 35  1  0  0  0  0
 36 37  1  0  0  0  0
 37 38  1  0  0  0  0
 39 38  1  0  0  0  0
 40 43  1  0  0  0  0
 40 42  1  0  0  0  0
 41 42  2  0  0  0  0
 41 39  1  0  0  0  0
 43 45  2  0  0  0  0
 44 43  2  0  0  0  0
M  END
>  <MODEL>
5

>  <REMARK>
 VINA RESULT:      -6.3      3.609      7.400
  Name = 
  16 active torsions:
  status: ('A' for Active; 'I' for Inactive)
    1  A    between atoms: C_1  and  C_44
    2  A    between atoms: C_2  and  C_31
    3  A    between atoms: C_2  and  C_39
    4  A    between atoms: C_4  and  N_8
    5  A    between atoms: C_4  and  C_21
    6  A    between atoms: C_5  and  N_25
    7  A    between atoms: C_5  and  C_34
    8  A    between atoms: N_6  and  N_11
    9  A    between atoms: C_7  and  C_27
   10  A    between atoms: C_7  and  C_34
   11  A    between atoms: N_8  and  C_26
   12  A    between atoms: C_27  and  C_39
   13  A    between atoms: C_30  and  C_42
   14  A    between atoms: C_31  and  N_37
   15  A    between atoms: C_31  and  C_42
   16  A    between atoms: C_36  and  N_37
                            x       y       z     vdW  Elec       q    Type
                         _______ _______ _______ _____ _____    ______ ____

>  <TORSDO>
F 16

$$$$
=
 OpenBabel11042415193D

 45 48  0  0  1  0  0  0  0  0999 V2000
  189.1970  175.3390  147.1170 C   0  0  1  0  0  3  0  0  0  0  0  0
  190.6130  175.2900  147.6840 C   0  0  0  0  0  2  0  0  0  0  0  0
  193.8580  176.2720  146.5080 C   0  0  0  0  0  3  0  0  0  0  0  0
  192.6190  176.4100  146.9040 C   0  0  0  0  0  0  0  0  0  0  0  0
  191.3830  176.5120  147.3080 C   0  0  0  0  0  3  0  0  0  0  0  0
  196.5780  174.0880  145.2140 C   0  0  0  0  0  3  0  0  0  0  0  0
  195.1030  172.1160  145.0850 C   0  0  0  0  0  0  0  0  0  0  0  0
  195.2430  170.9190  144.4640 F   0  0  0  0  0  0  0  0  0  0  0  0
  193.8860  172.6570  145.1540 C   0  0  0  0  0  3  0  0  0  0  0  0
  195.7220  175.1070  145.3010 C   0  0  0  0  0  3  0  0  0  0  0  0
  197.3970  171.9300  145.6270 F   0  0  0  0  0  0  0  0  0  0  0  0
  196.2830  172.7350  145.7670 C   0  0  1  0  0  3  0  0  0  0  0  0
  193.5580  173.9630  145.7640 C   0  0  0  0  0  3  0  0  0  0  0  0
  194.3640  175.0370  145.8800 C   0  0  0  0  0  0  0  0  0  0  0  0
  188.6870  176.7080  147.0820 N   0  0  0  0  0  2  0  0  0  0  0  0
  187.4450  177.8740  145.3310 C   0  0  0  0  0  3  0  0  0  0  0  0
  186.2080  176.7880  147.0910 C   0  0  0  0  0  3  0  0  0  0  0  0
  186.2360  178.2730  144.7450 C   0  0  0  0  0  0  0  0  0  0  0  0
  187.4390  177.1210  146.5080 C   0  0  0  0  0  0  0  0  0  0  0  0
  185.0360  177.9120  145.3580 C   0  0  0  0  0  3  0  0  0  0  0  0
  185.0450  177.1870  146.5090 N   0  0  0  0  0  0  0  0  0  0  0  0
  186.2100  179.0440  143.5400 N   0  0  0  0  0  2  0  0  0  0  0  0
  186.4860  178.4890  142.2210 C   0  0  2  0  0  3  0  0  0  0  0  0
  185.2700  177.7420  141.6980 C   0  0  0  0  0  1  0  0  0  0  0  0
  190.0290  177.2650  142.5770 C   0  0  0  0  0  0  0  0  0  0  0  0
  189.8920  175.9260  142.3880 C   0  0  0  0  0  0  0  0  0  0  0  0
  191.3580  177.5600  142.8080 O   0  0  0  0  0  0  0  0  0  0  0  0
  187.6730  177.5820  142.2780 C   0  0  0  0  0  0  0  0  0  0  0  0
  187.5330  176.1860  142.0780 C   0  0  0  0  0  3  0  0  0  0  0  0
  188.6540  175.3380  142.1340 C   0  0  0  0  0  3  0  0  0  0  0  0
  188.9440  178.1350  142.5290 C   0  0  0  0  0  3  0  0  0  0  0  0
  191.1280  175.3180  142.4880 O   0  0  0  0  0  0  0  0  0  0  0  0
  192.1020  176.3340  142.7640 C   0  0  0  0  0  2  0  0  0  0  0  0
  189.1250  174.6970  145.7370 C   0  0  0  0  0  2  0  0  0  0  0  0
  190.1910  173.6160  145.5790 C   0  0  0  0  0  2  0  0  0  0  0  0
  189.6770  172.4520  144.7400 C   0  0  0  0  0  2  0  0  0  0  0  0
  190.5560  172.2270  143.5240 C   0  0  0  0  0  2  0  0  0  0  0  0
  189.7050  171.8180  142.3340 C   0  0  0  0  0  2  0  0  0  0  0  0
  190.5520  171.0640  141.3180 C   0  0  0  0  0  2  0  0  0  0  0  0
  190.2390  173.3040  138.3800 N   0  0  0  0  0  2  0  0  0  0  0  0
  190.8540  171.9050  140.1700 N   0  0  0  0  0  0  0  0  0  0  0  0
  189.9130  172.4800  139.4970 C   0  0  0  0  0  3  0  0  0  0  0  0
  189.2440  173.9540  137.6390 N   0  0  0  0  0  0  0  0  0  0  0  0
  189.5390  174.5420  136.4290 O   0  0  0  0  0  0  0  0  0  0  0  0
  188.0740  173.9850  138.0710 O   0  0  0  0  0  0  0  0  0  0  0  0
  1 34  1  6  0  0  0
  1  2  1  0  0  0  0
  3  4  2  0  0  0  0
  4  5  2  0  0  0  0
  5  2  1  0  0  0  0
  6 10  2  0  0  0  0
  6 12  1  0  0  0  0
  7  9  2  0  0  0  0
  7 12  1  0  0  0  0
  8  7  1  0  0  0  0
  9 13  1  0  0  0  0
 10 14  1  0  0  0  0
 12 11  1  6  0  0  0
 13 14  2  0  0  0  0
 14  3  1  0  0  0  0
 15  1  1  0  0  0  0
 16 19  1  0  0  0  0
 18 16  2  0  0  0  0
 18 20  1  0  0  0  0
 19 15  1  0  0  0  0
 19 17  2  0  0  0  0
 20 21  2  0  0  0  0
 21 17  1  0  0  0  0
 22 18  1  0  0  0  0
 23 24  1  1  0  0  0
 23 28  1  0  0  0  0
 23 22  1  0  0  0  0
 25 27  1  0  0  0  0
 26 32  1  0  0  0  0
 26 25  2  0  0  0  0
 28 31  2  0  0  0  0
 29 30  2  0  0  0  0
 29 28  1  0  0  0  0
 30 26  1  0  0  0  0
 31 25  1  0  0  0  0
 32 33  1  0  0  0  0
 33 27  1  0  0  0  0
 35 34  1  0  0  0  0
 36 35  1  0  0  0  0
 37 36  1  0  0  0  0
 38 37  1  0  0  0  0
 39 38  1  0  0  0  0
 40 42  1  0  0  0  0
 41 39  1  0  0  0  0
 42 41  2  0  0  0  0
 43 45  2  0  0  0  0
 43 40  1  0  0  0  0
 44 43  2  0  0  0  0
M  END
>  <MODEL>
6

>  <REMARK>
 VINA RESULT:      -6.3      3.264      6.213
  Name = 
  16 active torsions:
  status: ('A' for Active; 'I' for Inactive)
    1  A    between atoms: C_1  and  C_44
    2  A    between atoms: C_2  and  C_31
    3  A    between atoms: C_2  and  C_39
    4  A    between atoms: C_4  and  N_8
    5  A    between atoms: C_4  and  C_21
    6  A    between atoms: C_5  and  N_25
    7  A    between atoms: C_5  and  C_34
    8  A    between atoms: N_6  and  N_11
    9  A    between atoms: C_7  and  C_27
   10  A    between atoms: C_7  and  C_34
   11  A    between atoms: N_8  and  C_26
   12  A    between atoms: C_27  and  C_39
   13  A    between atoms: C_30  and  C_42
   14  A    between atoms: C_31  and  N_37
   15  A    between atoms: C_31  and  C_42
   16  A    between atoms: C_36  and  N_37
                            x       y       z     vdW  Elec       q    Type
                         _______ _______ _______ _____ _____    ______ ____

>  <TORSDO>
F 16

$$$$
=
 OpenBabel11042415193D

 45 48  0  0  1  0  0  0  0  0999 V2000
  189.0950  175.6570  146.8500 C   0  0  1  0  0  3  0  0  0  0  0  0
  190.3580  175.3080  147.6320 C   0  0  0  0  0  2  0  0  0  0  0  0
  193.6030  176.6440  146.8780 C   0  0  0  0  0  3  0  0  0  0  0  0
  192.3970  176.6010  147.3810 C   0  0  0  0  0  0  0  0  0  0  0  0
  191.1900  176.5240  147.8740 C   0  0  0  0  0  3  0  0  0  0  0  0
  193.6390  176.0570  143.2040 C   0  0  0  0  0  3  0  0  0  0  0  0
  195.4670  174.4100  143.3590 C   0  0  0  0  0  0  0  0  0  0  0  0
  195.9430  173.4980  142.4750 F   0  0  0  0  0  0  0  0  0  0  0  0
  195.4690  174.0980  144.6560 C   0  0  0  0  0  3  0  0  0  0  0  0
  193.1890  176.1380  144.4570 C   0  0  0  0  0  3  0  0  0  0  0  0
  195.2450  175.8630  141.5070 F   0  0  0  0  0  0  0  0  0  0  0  0
  195.0640  175.7680  142.8730 C   0  0  1  0  0  3  0  0  0  0  0  0
  194.9630  174.9560  145.7480 C   0  0  0  0  0  3  0  0  0  0  0  0
  193.9930  175.8890  145.6720 C   0  0  0  0  0  0  0  0  0  0  0  0
  188.7510  177.0690  147.0000 N   0  0  0  0  0  2  0  0  0  0  0  0
  186.7390  177.5090  145.6870 C   0  0  0  0  0  3  0  0  0  0  0  0
  186.8160  178.2800  147.9680 C   0  0  0  0  0  3  0  0  0  0  0  0
  185.4440  178.0300  145.5680 C   0  0  0  0  0  0  0  0  0  0  0  0
  187.4330  177.6250  146.8940 C   0  0  0  0  0  0  0  0  0  0  0  0
  184.8670  178.6680  146.6670 C   0  0  0  0  0  3  0  0  0  0  0  0
  185.5590  178.7820  147.8330 N   0  0  0  0  0  0  0  0  0  0  0  0
  184.7070  177.9270  144.3450 N   0  0  0  0  0  2  0  0  0  0  0  0
  185.2070  178.4010  143.0600 C   0  0  2  0  0  3  0  0  0  0  0  0
  184.1260  178.2820  141.9980 C   0  0  0  0  0  1  0  0  0  0  0  0
  187.4810  175.5380  142.1600 C   0  0  0  0  0  0  0  0  0  0  0  0
  188.6590  176.1710  141.9180 C   0  0  0  0  0  0  0  0  0  0  0  0
  187.6430  174.1800  141.9700 O   0  0  0  0  0  0  0  0  0  0  0  0
  186.4220  177.6290  142.6590 C   0  0  0  0  0  0  0  0  0  0  0  0
  187.6530  178.2860  142.4090 C   0  0  0  0  0  3  0  0  0  0  0  0
  188.7930  177.5530  142.0310 C   0  0  0  0  0  3  0  0  0  0  0  0
  186.3320  176.2290  142.5360 C   0  0  0  0  0  3  0  0  0  0  0  0
  189.6180  175.2400  141.5690 O   0  0  0  0  0  0  0  0  0  0  0  0
  189.0050  173.9430  141.5850 C   0  0  0  0  0  2  0  0  0  0  0  0
  189.2270  175.2830  145.3800 C   0  0  0  0  0  2  0  0  0  0  0  0
  190.3060  174.2220  145.1780 C   0  0  0  0  0  2  0  0  0  0  0  0
  189.6920  172.8420  144.9770 C   0  0  0  0  0  2  0  0  0  0  0  0
  190.6570  171.9160  144.2590 C   0  0  0  0  0  2  0  0  0  0  0  0
  192.0450  172.5300  144.2280 C   0  0  0  0  0  2  0  0  0  0  0  0
  192.9690  171.6950  143.3530 C   0  0  0  0  0  2  0  0  0  0  0  0
  194.3750  169.2010  145.7080 N   0  0  0  0  0  2  0  0  0  0  0  0
  193.3200  170.4470  144.0130 N   0  0  0  0  0  0  0  0  0  0  0  0
  194.0510  170.4380  145.0790 C   0  0  0  0  0  3  0  0  0  0  0  0
  195.1520  169.1570  146.8730 N   0  0  0  0  0  0  0  0  0  0  0  0
  194.6890  168.5240  148.0050 O   0  0  0  0  0  0  0  0  0  0  0  0
  196.2830  169.6840  146.8800 O   0  0  0  0  0  0  0  0  0  0  0  0
  1 34  1  6  0  0  0
  1 15  1  0  0  0  0
  1  2  1  0  0  0  0
  2  5  1  0  0  0  0
  3  4  2  0  0  0  0
  4  5  2  0  0  0  0
  6 10  2  0  0  0  0
  7  9  2  0  0  0  0
  8  7  1  0  0  0  0
  9 13  1  0  0  0  0
 10 14  1  0  0  0  0
 12 11  1  6  0  0  0
 12  6  1  0  0  0  0
 12  7  1  0  0  0  0
 14 13  2  0  0  0  0
 14  3  1  0  0  0  0
 16 19  1  0  0  0  0
 18 16  2  0  0  0  0
 18 20  1  0  0  0  0
 19 15  1  0  0  0  0
 19 17  2  0  0  0  0
 20 21  2  0  0  0  0
 21 17  1  0  0  0  0
 22 18  1  0  0  0  0
 23 24  1  6  0  0  0
 23 22  1  0  0  0  0
 25 31  1  0  0  0  0
 26 30  1  0  0  0  0
 26 25  2  0  0  0  0
 27 25  1  0  0  0  0
 28 23  1  0  0  0  0
 29 28  1  0  0  0  0
 30 29  2  0  0  0  0
 31 28  2  0  0  0  0
 32 33  1  0  0  0  0
 32 26  1  0  0  0  0
 33 27  1  0  0  0  0
 35 34  1  0  0  0  0
 36 35  1  0  0  0  0
 37 36  1  0  0  0  0
 38 37  1  0  0  0  0
 39 41  1  0  0  0  0
 39 38  1  0  0  0  0
 40 43  1  0  0  0  0
 41 42  2  0  0  0  0
 42 40  1  0  0  0  0
 43 45  2  0  0  0  0
 43 44  2  0  0  0  0
M  END
>  <MODEL>
7

>  <REMARK>
 VINA RESULT:      -6.3      3.906      6.941
  Name = 
  16 active torsions:
  status: ('A' for Active; 'I' for Inactive)
    1  A    between atoms: C_1  and  C_44
    2  A    between atoms: C_2  and  C_31
    3  A    between atoms: C_2  and  C_39
    4  A    between atoms: C_4  and  N_8
    5  A    between atoms: C_4  and  C_21
    6  A    between atoms: C_5  and  N_25
    7  A    between atoms: C_5  and  C_34
    8  A    between atoms: N_6  and  N_11
    9  A    between atoms: C_7  and  C_27
   10  A    between atoms: C_7  and  C_34
   11  A    between atoms: N_8  and  C_26
   12  A    between atoms: C_27  and  C_39
   13  A    between atoms: C_30  and  C_42
   14  A    between atoms: C_31  and  N_37
   15  A    between atoms: C_31  and  C_42
   16  A    between atoms: C_36  and  N_37
                            x       y       z     vdW  Elec       q    Type
                         _______ _______ _______ _____ _____    ______ ____

>  <TORSDO>
F 16

$$$$
=
 OpenBabel11042415193D

 45 48  0  0  1  0  0  0  0  0999 V2000
  189.7000  176.3000  143.2390 C   0  0  1  0  0  3  0  0  0  0  0  0
  189.9380  177.7870  142.9940 C   0  0  0  0  0  2  0  0  0  0  0  0
  186.4360  178.0960  142.2710 C   0  0  0  0  0  3  0  0  0  0  0  0
  187.7260  178.2140  142.0910 C   0  0  0  0  0  0  0  0  0  0  0  0
  189.0190  178.3100  141.9400 C   0  0  0  0  0  3  0  0  0  0  0  0
  185.8800  176.4700  145.5710 C   0  0  0  0  0  3  0  0  0  0  0  0
  184.8090  178.4780  146.5200 C   0  0  0  0  0  0  0  0  0  0  0  0
  184.0660  178.6650  147.6390 F   0  0  0  0  0  0  0  0  0  0  0  0
  184.5120  179.1910  145.4330 C   0  0  0  0  0  3  0  0  0  0  0  0
  185.8320  176.6880  144.2560 C   0  0  0  0  0  3  0  0  0  0  0  0
  186.1410  177.0300  147.8320 F   0  0  0  0  0  0  0  0  0  0  0  0
  186.0000  177.5710  146.5690 C   0  0  1  0  0  3  0  0  0  0  0  0
  185.1950  179.0930  144.1260 C   0  0  0  0  0  3  0  0  0  0  0  0
  185.8190  178.0160  143.6080 C   0  0  0  0  0  0  0  0  0  0  0  0
  190.8390  175.5000  142.7920 N   0  0  0  0  0  2  0  0  0  0  0  0
  190.7970  173.6660  141.1790 C   0  0  0  0  0  3  0  0  0  0  0  0
  190.8080  173.1320  143.5290 C   0  0  0  0  0  3  0  0  0  0  0  0
  190.7890  172.2970  140.8820 C   0  0  0  0  0  0  0  0  0  0  0  0
  190.8130  174.0940  142.5090 C   0  0  0  0  0  0  0  0  0  0  0  0
  190.7910  171.3760  141.9300 C   0  0  0  0  0  3  0  0  0  0  0  0
  190.7970  171.8080  143.2200 N   0  0  0  0  0  0  0  0  0  0  0  0
  190.7730  171.8280  139.5300 N   0  0  0  0  0  2  0  0  0  0  0  0
  189.5490  171.5660  138.7820 C   0  0  2  0  0  3  0  0  0  0  0  0
  189.6920  170.2920  137.9650 C   0  0  0  0  0  1  0  0  0  0  0  0
  187.9180  174.6740  137.4170 C   0  0  0  0  0  0  0  0  0  0  0  0
  188.6080  174.8790  136.2640 C   0  0  0  0  0  0  0  0  0  0  0  0
  186.9680  175.6640  137.5640 O   0  0  0  0  0  0  0  0  0  0  0  0
  189.2270  172.7240  137.8930 C   0  0  0  0  0  0  0  0  0  0  0  0
  189.9430  172.9380  136.6870 C   0  0  0  0  0  3  0  0  0  0  0  0
  189.6360  174.0310  135.8560 C   0  0  0  0  0  3  0  0  0  0  0  0
  188.1940  173.6050  138.2650 C   0  0  0  0  0  3  0  0  0  0  0  0
  188.1210  176.0050  135.6300 O   0  0  0  0  0  0  0  0  0  0  0  0
  187.0640  176.5470  136.4360 C   0  0  0  0  0  2  0  0  0  0  0  0
  189.3790  176.0190  144.7010 C   0  0  0  0  0  2  0  0  0  0  0  0
  189.4050  177.3040  145.5260 C   0  0  0  0  0  2  0  0  0  0  0  0
  190.1600  177.1050  146.8340 C   0  0  0  0  0  2  0  0  0  0  0  0
  190.3120  175.6300  147.1570 C   0  0  0  0  0  2  0  0  0  0  0  0
  191.7680  175.2170  147.0360 C   0  0  0  0  0  2  0  0  0  0  0  0
  192.6760  176.4180  147.2650 C   0  0  0  0  0  2  0  0  0  0  0  0
  194.5210  176.0700  144.0680 N   0  0  0  0  0  2  0  0  0  0  0  0
  193.6920  176.5040  146.2270 N   0  0  0  0  0  0  0  0  0  0  0  0
  193.5100  175.9630  145.0670 C   0  0  0  0  0  3  0  0  0  0  0  0
  194.3490  175.5080  142.7960 N   0  0  0  0  0  0  0  0  0  0  0  0
  194.1910  176.3110  141.6880 O   0  0  0  0  0  0  0  0  0  0  0  0
  194.3570  174.2680  142.6630 O   0  0  0  0  0  0  0  0  0  0  0  0
  1  2  1  1  0  0  0
  1 34  1  0  0  0  0
  3 14  1  0  0  0  0
  4  3  2  0  0  0  0
  5  4  2  0  0  0  0
  5  2  1  0  0  0  0
  6 12  1  0  0  0  0
  7 12  1  0  0  0  0
  7  8  1  0  0  0  0
  9  7  2  0  0  0  0
 10  6  2  0  0  0  0
 12 11  1  1  0  0  0
 13  9  1  0  0  0  0
 14 13  2  0  0  0  0
 14 10  1  0  0  0  0
 15  1  1  0  0  0  0
 16 19  1  0  0  0  0
 18 16  2  0  0  0  0
 18 20  1  0  0  0  0
 19 15  1  0  0  0  0
 19 17  2  0  0  0  0
 20 21  2  0  0  0  0
 21 17  1  0  0  0  0
 22 18  1  0  0  0  0
 23 24  1  6  0  0  0
 23 22  1  0  0  0  0
 25 27  1  0  0  0  0
 25 31  1  0  0  0  0
 26 25  2  0  0  0  0
 28 31  2  0  0  0  0
 28 23  1  0  0  0  0
 29 28  1  0  0  0  0
 30 26  1  0  0  0  0
 30 29  2  0  0  0  0
 32 26  1  0  0  0  0
 32 33  1  0  0  0  0
 33 27  1  0  0  0  0
 34 35  1  0  0  0  0
 35 36  1  0  0  0  0
 36 37  1  0  0  0  0
 38 37  1  0  0  0  0
 38 39  1  0  0  0  0
 40 42  1  0  0  0  0
 41 39  1  0  0  0  0
 42 41  2  0  0  0  0
 43 40  1  0  0  0  0
 44 43  2  0  0  0  0
 45 43  2  0  0  0  0
M  END
>  <MODEL>
8

>  <REMARK>
 VINA RESULT:      -6.2      2.984      5.721
  Name = 
  16 active torsions:
  status: ('A' for Active; 'I' for Inactive)
    1  A    between atoms: C_1  and  C_44
    2  A    between atoms: C_2  and  C_31
    3  A    between atoms: C_2  and  C_39
    4  A    between atoms: C_4  and  N_8
    5  A    between atoms: C_4  and  C_21
    6  A    between atoms: C_5  and  N_25
    7  A    between atoms: C_5  and  C_34
    8  A    between atoms: N_6  and  N_11
    9  A    between atoms: C_7  and  C_27
   10  A    between atoms: C_7  and  C_34
   11  A    between atoms: N_8  and  C_26
   12  A    between atoms: C_27  and  C_39
   13  A    between atoms: C_30  and  C_42
   14  A    between atoms: C_31  and  N_37
   15  A    between atoms: C_31  and  C_42
   16  A    between atoms: C_36  and  N_37
                            x       y       z     vdW  Elec       q    Type
                         _______ _______ _______ _____ _____    ______ ____

>  <TORSDO>
F 16

$$$$
=
 OpenBabel11042415193D

 45 48  0  0  1  0  0  0  0  0999 V2000
  194.0540  174.3980  145.4310 C   0  0  1  0  0  3  0  0  0  0  0  0
  195.0200  175.5780  145.4850 C   0  0  0  0  0  2  0  0  0  0  0  0
  193.4480  176.0890  142.3000 C   0  0  0  0  0  3  0  0  0  0  0  0
  194.4000  176.0950  143.1970 C   0  0  0  0  0  0  0  0  0  0  0  0
  195.3280  176.0820  144.1150 C   0  0  0  0  0  3  0  0  0  0  0  0
  190.3800  177.9280  143.3220 C   0  0  0  0  0  3  0  0  0  0  0  0
  188.9060  176.0320  142.7630 C   0  0  0  0  0  0  0  0  0  0  0  0
  187.6130  175.7680  143.0720 F   0  0  0  0  0  0  0  0  0  0  0  0
  189.7620  175.0110  142.6840 C   0  0  0  0  0  3  0  0  0  0  0  0
  191.5890  177.3680  143.3910 C   0  0  0  0  0  3  0  0  0  0  0  0
  188.2200  178.2770  142.4790 F   0  0  0  0  0  0  0  0  0  0  0  0
  189.3100  177.4300  142.4110 C   0  0  1  0  0  3  0  0  0  0  0  0
  191.2060  175.1200  142.3890 C   0  0  0  0  0  3  0  0  0  0  0  0
  192.0180  176.1630  142.6510 C   0  0  0  0  0  0  0  0  0  0  0  0
  194.7330  173.1410  145.7380 N   0  0  0  0  0  2  0  0  0  0  0  0
  193.7980  171.8390  143.8960 C   0  0  0  0  0  3  0  0  0  0  0  0
  194.8600  170.6650  145.7120 C   0  0  0  0  0  3  0  0  0  0  0  0
  193.5430  170.6120  143.2690 C   0  0  0  0  0  0  0  0  0  0  0  0
  194.4660  171.8740  145.1220 C   0  0  0  0  0  0  0  0  0  0  0  0
  193.9590  169.4340  143.8910 C   0  0  0  0  0  3  0  0  0  0  0  0
  194.6000  169.4830  145.0900 N   0  0  0  0  0  0  0  0  0  0  0  0
  192.8600  170.5430  142.0130 N   0  0  0  0  0  2  0  0  0  0  0  0
  191.4140  170.6570  141.8740 C   0  0  2  0  0  3  0  0  0  0  0  0
  190.8000  169.2900  141.6150 C   0  0  0  0  0  1  0  0  0  0  0  0
  189.4310  172.7180  139.4240 C   0  0  0  0  0  0  0  0  0  0  0  0
  190.4080  173.3500  138.7220 C   0  0  0  0  0  0  0  0  0  0  0  0
  188.1970  173.1060  138.9420 O   0  0  0  0  0  0  0  0  0  0  0  0
  191.0720  171.6020  140.7680 C   0  0  0  0  0  0  0  0  0  0  0  0
  192.0890  172.2600  140.0310 C   0  0  0  0  0  3  0  0  0  0  0  0
  191.7600  173.1500  138.9920 C   0  0  0  0  0  3  0  0  0  0  0  0
  189.7170  171.8310  140.4590 C   0  0  0  0  0  3  0  0  0  0  0  0
  189.8340  174.1610  137.7630 O   0  0  0  0  0  0  0  0  0  0  0  0
  188.4090  174.0390  137.8720 C   0  0  0  0  0  2  0  0  0  0  0  0
  192.8610  174.6100  146.3540 C   0  0  0  0  0  2  0  0  0  0  0  0
  192.5850  176.0970  146.5610 C   0  0  0  0  0  2  0  0  0  0  0  0
  191.1150  176.3480  146.8750 C   0  0  0  0  0  2  0  0  0  0  0  0
  190.2790  175.1140  146.5910 C   0  0  0  0  0  2  0  0  0  0  0  0
  188.8550  175.5150  146.2520 C   0  0  0  0  0  2  0  0  0  0  0  0
  188.5180  176.8530  146.8950 C   0  0  0  0  0  2  0  0  0  0  0  0
  186.1140  178.5890  144.6690 N   0  0  0  0  0  2  0  0  0  0  0  0
  187.9240  177.7590  145.9240 N   0  0  0  0  0  0  0  0  0  0  0  0
  186.6700  177.6840  145.6190 C   0  0  0  0  0  3  0  0  0  0  0  0
  184.7550  178.5440  144.3290 N   0  0  0  0  0  0  0  0  0  0  0  0
  184.3630  178.3310  143.0260 O   0  0  0  0  0  0  0  0  0  0  0  0
  183.8920  178.6810  145.2190 O   0  0  0  0  0  0  0  0  0  0  0  0
  1  2  1  1  0  0  0
  1 15  1  0  0  0  0
  1 34  1  0  0  0  0
  3 14  1  0  0  0  0
  3  4  2  0  0  0  0
  4  5  2  0  0  0  0
  5  2  1  0  0  0  0
  6 10  2  0  0  0  0
  7  8  1  0  0  0  0
  9  7  2  0  0  0  0
 12 11  1  1  0  0  0
 12  7  1  0  0  0  0
 12  6  1  0  0  0  0
 13 14  2  0  0  0  0
 13  9  1  0  0  0  0
 14 10  1  0  0  0  0
 16 19  1  0  0  0  0
 18 20  1  0  0  0  0
 18 16  2  0  0  0  0
 19 17  2  0  0  0  0
 19 15  1  0  0  0  0
 20 21  2  0  0  0  0
 21 17  1  0  0  0  0
 22 18  1  0  0  0  0
 23 24  1  6  0  0  0
 23 22  1  0  0  0  0
 25 31  1  0  0  0  0
 26 30  1  0  0  0  0
 26 25  2  0  0  0  0
 27 25  1  0  0  0  0
 28 23  1  0  0  0  0
 29 28  1  0  0  0  0
 30 29  2  0  0  0  0
 31 28  2  0  0  0  0
 32 33  1  0  0  0  0
 32 26  1  0  0  0  0
 33 27  1  0  0  0  0
 34 35  1  0  0  0  0
 35 36  1  0  0  0  0
 37 36  1  0  0  0  0
 38 37  1  0  0  0  0
 38 39  1  0  0  0  0
 40 42  1  0  0  0  0
 41 39  1  0  0  0  0
 42 41  2  0  0  0  0
 43 40  1  0  0  0  0
 43 45  2  0  0  0  0
 44 43  2  0  0  0  0
M  END
>  <MODEL>
9

>  <REMARK>
 VINA RESULT:      -6.2      2.809      5.999
  Name = 
  16 active torsions:
  status: ('A' for Active; 'I' for Inactive)
    1  A    between atoms: C_1  and  C_44
    2  A    between atoms: C_2  and  C_31
    3  A    between atoms: C_2  and  C_39
    4  A    between atoms: C_4  and  N_8
    5  A    between atoms: C_4  and  C_21
    6  A    between atoms: C_5  and  N_25
    7  A    between atoms: C_5  and  C_34
    8  A    between atoms: N_6  and  N_11
    9  A    between atoms: C_7  and  C_27
   10  A    between atoms: C_7  and  C_34
   11  A    between atoms: N_8  and  C_26
   12  A    between atoms: C_27  and  C_39
   13  A    between atoms: C_30  and  C_42
   14  A    between atoms: C_31  and  N_37
   15  A    between atoms: C_31  and  C_42
   16  A    between atoms: C_36  and  N_37
                            x       y       z     vdW  Elec       q    Type
                         _______ _______ _______ _____ _____    ______ ____

>  <TORSDO>
F 16

$$$$
