=
 OpenBabel11042414433D

 36 42  0  0  1  0  0  0  0  0999 V2000
  188.5150  173.6750  141.4450 C   0  0  0  0  0  3  0  0  0  0  0  0
  188.0220  174.9610  141.2440 C   0  0  0  0  0  3  0  0  0  0  0  0
  189.5120  175.8230  142.9620 C   0  0  0  0  0  0  0  0  0  0  0  0
  190.0440  174.5170  143.1290 C   0  0  0  0  0  0  0  0  0  0  0  0
  189.5230  173.4570  142.3790 C   0  0  0  0  0  3  0  0  0  0  0  0
  188.5110  176.0460  141.9840 C   0  0  0  0  0  0  0  0  0  0  0  0
  194.4040  175.1890  145.1490 C   0  0  2  0  0  3  0  0  0  0  0  0
  194.0750  175.7380  146.3190 C   0  0  0  0  0  3  0  0  0  0  0  0
  192.5470  174.4890  143.5850 C   0  0  1  0  0  3  0  0  0  0  0  0
  193.3760  174.1730  144.8240 C   0  0  1  0  0  0  0  0  0  0  0  0
  192.7710  175.1970  146.7490 C   0  0  0  0  0  3  0  0  0  0  0  0
  193.3390  173.1950  143.6640 C   0  0  0  0  0  2  0  0  0  0  0  0
  192.3940  174.2390  145.9080 C   0  0  1  0  0  3  0  0  0  0  0  0
  191.1570  174.2650  143.9960 N   0  0  0  0  0  0  0  0  0  0  0  0
  191.0050  174.1080  145.4360 C   0  0  0  0  0  2  0  0  0  0  0  0
  196.7280  176.4410  142.4870 C   0  0  0  0  0  2  0  0  0  0  0  0
  197.6520  174.5930  143.3820 C   0  0  0  0  0  2  0  0  0  0  0  0
  195.6260  175.4530  144.4370 N   0  0  0  0  0  0  0  0  0  0  0  0
  195.7680  176.6830  143.6520 C   0  0  0  0  0  2  0  0  0  0  0  0
  196.8100  174.6250  144.6570 C   0  0  0  0  0  2  0  0  0  0  0  0
  197.9370  175.9050  142.9650 O   0  0  0  0  0  0  0  0  0  0  0  0
  185.4050  178.5890  142.1720 C   0  0  2  0  0  3  0  0  0  0  0  0
  188.6260  178.3100  141.2200 O   0  0  0  0  0  0  0  0  0  0  0  0
  185.2310  177.2890  142.5960 C   0  0  0  0  0  2  0  0  0  0  0  0
  187.9310  177.3900  141.7280 C   0  0  0  0  0  0  0  0  0  0  0  0
  186.5730  177.6660  142.0630 N   0  0  0  0  0  0  0  0  0  0  0  0
  185.5900  179.4290  143.2690 O   0  0  0  0  0  0  0  0  0  0  0  0
  184.5260  179.1370  144.1220 C   0  0  0  0  0  2  0  0  0  0  0  0
  184.8550  177.8150  146.1540 C   0  0  0  0  0  2  0  0  0  0  0  0
  183.9310  178.8460  146.4090 O   0  0  0  0  0  0  0  0  0  0  0  0
  185.0080  179.1570  145.5590 C   0  0  2  0  0  3  0  0  0  0  0  0
  189.9460  176.8990  143.7520 O   0  0  0  0  0  0  0  0  0  0  0  0
  189.2180  177.4010  144.8680 C   0  0  1  0  0  3  0  0  0  0  0  0
  188.2230  176.3500  145.3250 C   0  0  0  0  0  1  0  0  0  0  0  0
  190.1780  177.7350  146.0000 C   0  0  0  0  0  2  0  0  0  0  0  0
  189.6030  177.2840  147.3300 C   0  0  0  0  0  1  0  0  0  0  0  0
  1  5  1  0  0  0  0
  2  1  2  0  0  0  0
  2  6  1  0  0  0  0
  3  4  1  0  0  0  0
  3 32  1  0  0  0  0
  4 14  1  0  0  0  0
  5  4  2  0  0  0  0
  6  3  2  0  0  0  0
  7 18  1  1  0  0  0
  7  8  1  0  0  0  0
  8 11  2  0  0  0  0
  9 12  1  6  0  0  0
  9 14  1  0  0  0  0
  9 10  1  0  0  0  0
 10 12  1  6  0  0  0
 10  7  1  0  0  0  0
 10 13  1  0  0  0  0
 13 15  1  6  0  0  0
 13 11  1  0  0  0  0
 14 15  1  0  0  0  0
 16 21  1  0  0  0  0
 16 19  1  0  0  0  0
 17 20  1  0  0  0  0
 18 20  1  0  0  0  0
 19 18  1  0  0  0  0
 21 17  1  0  0  0  0
 22 24  1  0  0  0  0
 22 27  1  1  0  0  0
 23 25  2  0  0  0  0
 25  6  1  0  0  0  0
 25 26  1  0  0  0  0
 26 22  1  0  0  0  0
 26 24  1  0  0  0  0
 27 28  1  0  0  0  0
 29 30  1  0  0  0  0
 31 28  1  6  0  0  0
 31 29  1  0  0  0  0
 31 30  1  0  0  0  0
 32 33  1  0  0  0  0
 33 34  1  1  0  0  0
 33 35  1  0  0  0  0
 35 36  1  0  0  0  0
M  END
>  <MODEL>
1

>  <REMARK>
 VINA RESULT:      -7.1      0.000      0.000
  Name = 
  9 active torsions:
  status: ('A' for Active; 'I' for Inactive)
    1  A    between atoms: C_1  and  O_17
    2  A    between atoms: C_1  and  C_19
    3  A    between atoms: C_3  and  O_22
    4  A    between atoms: C_5  and  N_29
    5  A    between atoms: C_14  and  O_17
    6  A    between atoms: C_16  and  N_34
    7  A    between atoms: C_21  and  C_25
    8  A    between atoms: O_22  and  C_25
    9  A    between atoms: C_23  and  C_33
                            x       y       z     vdW  Elec       q    Type
                         _______ _______ _______ _____ _____    ______ ____

>  <TORSDO>
F 9

$$$$
=
 OpenBabel11042414433D

 36 42  0  0  1  0  0  0  0  0999 V2000
  189.0850  173.7990  140.3410 C   0  0  0  0  0  3  0  0  0  0  0  0
  188.2160  174.8860  140.3780 C   0  0  0  0  0  3  0  0  0  0  0  0
  188.9900  175.4550  142.6110 C   0  0  0  0  0  0  0  0  0  0  0  0
  189.9080  174.3740  142.5490 C   0  0  0  0  0  0  0  0  0  0  0  0
  189.9280  173.5490  141.4190 C   0  0  0  0  0  3  0  0  0  0  0  0
  188.1590  175.7280  141.4960 C   0  0  0  0  0  0  0  0  0  0  0  0
  193.9090  175.0930  145.1980 C   0  0  2  0  0  3  0  0  0  0  0  0
  193.4080  175.6810  146.2850 C   0  0  0  0  0  3  0  0  0  0  0  0
  192.3090  174.3500  143.3880 C   0  0  1  0  0  3  0  0  0  0  0  0
  192.9340  174.0700  144.7500 C   0  0  1  0  0  0  0  0  0  0  0  0
  192.0480  175.1600  146.5250 C   0  0  0  0  0  3  0  0  0  0  0  0
  193.0670  173.0560  143.6300 C   0  0  0  0  0  2  0  0  0  0  0  0
  191.7960  174.1760  145.6670 C   0  0  1  0  0  3  0  0  0  0  0  0
  190.8710  174.1450  143.5860 N   0  0  0  0  0  0  0  0  0  0  0  0
  190.4960  174.0360  144.9900 C   0  0  0  0  0  2  0  0  0  0  0  0
  196.6320  176.3290  142.9390 C   0  0  0  0  0  2  0  0  0  0  0  0
  197.3520  174.4180  143.8870 C   0  0  0  0  0  2  0  0  0  0  0  0
  195.2280  175.3280  144.6760 N   0  0  0  0  0  0  0  0  0  0  0  0
  195.5250  176.5750  143.9650 C   0  0  0  0  0  2  0  0  0  0  0  0
  196.3380  174.4450  145.0310 C   0  0  0  0  0  2  0  0  0  0  0  0
  197.7400  175.7300  143.5630 O   0  0  0  0  0  0  0  0  0  0  0  0
  185.1020  177.7310  143.1660 C   0  0  2  0  0  3  0  0  0  0  0  0
  187.2340  177.7230  140.5560 O   0  0  0  0  0  0  0  0  0  0  0  0
  185.5390  176.5650  143.7570 C   0  0  0  0  0  2  0  0  0  0  0  0
  187.1990  176.8620  141.4740 C   0  0  0  0  0  0  0  0  0  0  0  0
  186.2220  177.0000  142.5030 N   0  0  0  0  0  0  0  0  0  0  0  0
  185.6170  178.8340  143.8450 O   0  0  0  0  0  0  0  0  0  0  0  0
  185.0120  178.7910  145.1010 C   0  0  0  0  0  2  0  0  0  0  0  0
  185.5770  178.0350  147.3580 C   0  0  0  0  0  2  0  0  0  0  0  0
  185.5990  179.4420  147.3140 O   0  0  0  0  0  0  0  0  0  0  0  0
  186.0780  178.7660  146.1780 C   0  0  2  0  0  3  0  0  0  0  0  0
  188.8760  176.2570  143.7580 O   0  0  0  0  0  0  0  0  0  0  0  0
  189.4380  177.5600  143.8680 C   0  0  1  0  0  3  0  0  0  0  0  0
  189.8700  177.7970  145.3030 C   0  0  0  0  0  1  0  0  0  0  0  0
  190.6350  177.6850  142.9380 C   0  0  0  0  0  2  0  0  0  0  0  0
  191.9060  177.9040  143.7380 C   0  0  0  0  0  1  0  0  0  0  0  0
  1  2  2  0  0  0  0
  1  5  1  0  0  0  0
  2  6  1  0  0  0  0
  3 32  1  0  0  0  0
  4  3  1  0  0  0  0
  4 14  1  0  0  0  0
  5  4  2  0  0  0  0
  6  3  2  0  0  0  0
  7 18  1  1  0  0  0
  7  8  1  0  0  0  0
  8 11  2  0  0  0  0
  9 14  1  0  0  0  0
  9 12  1  6  0  0  0
  9 10  1  0  0  0  0
 10 12  1  1  0  0  0
 10  7  1  0  0  0  0
 10 13  1  0  0  0  0
 13 15  1  6  0  0  0
 13 11  1  0  0  0  0
 14 15  1  0  0  0  0
 16 21  1  0  0  0  0
 16 19  1  0  0  0  0
 17 20  1  0  0  0  0
 18 20  1  0  0  0  0
 19 18  1  0  0  0  0
 21 17  1  0  0  0  0
 22 24  1  0  0  0  0
 22 27  1  1  0  0  0
 23 25  2  0  0  0  0
 25  6  1  0  0  0  0
 25 26  1  0  0  0  0
 26 22  1  0  0  0  0
 26 24  1  0  0  0  0
 27 28  1  0  0  0  0
 30 29  1  0  0  0  0
 31 28  1  6  0  0  0
 31 30  1  0  0  0  0
 31 29  1  0  0  0  0
 32 33  1  0  0  0  0
 33 34  1  1  0  0  0
 35 36  1  0  0  0  0
 35 33  1  0  0  0  0
M  END
>  <MODEL>
2

>  <REMARK>
 VINA RESULT:      -6.9      1.069      1.322
  Name = 
  9 active torsions:
  status: ('A' for Active; 'I' for Inactive)
    1  A    between atoms: C_1  and  O_17
    2  A    between atoms: C_1  and  C_19
    3  A    between atoms: C_3  and  O_22
    4  A    between atoms: C_5  and  N_29
    5  A    between atoms: C_14  and  O_17
    6  A    between atoms: C_16  and  N_34
    7  A    between atoms: C_21  and  C_25
    8  A    between atoms: O_22  and  C_25
    9  A    between atoms: C_23  and  C_33
                            x       y       z     vdW  Elec       q    Type
                         _______ _______ _______ _____ _____    ______ ____

>  <TORSDO>
F 9

$$$$
=
 OpenBabel11042414433D

 36 42  0  0  1  0  0  0  0  0999 V2000
  188.3660  174.1050  141.9700 C   0  0  0  0  0  3  0  0  0  0  0  0
  187.3400  174.9530  142.3760 C   0  0  0  0  0  3  0  0  0  0  0  0
  188.8510  176.0850  143.9070 C   0  0  0  0  0  0  0  0  0  0  0  0
  189.9060  175.2500  143.4550 C   0  0  0  0  0  0  0  0  0  0  0  0
  189.6420  174.2580  142.5040 C   0  0  0  0  0  3  0  0  0  0  0  0
  187.5620  175.9500  143.3340 C   0  0  0  0  0  0  0  0  0  0  0  0
  194.5390  174.1200  144.3490 C   0  0  2  0  0  3  0  0  0  0  0  0
  195.1610  174.7180  143.3310 C   0  0  0  0  0  3  0  0  0  0  0  0
  192.0340  174.3850  144.5480 C   0  0  1  0  0  3  0  0  0  0  0  0
  193.4160  174.9930  144.7630 C   0  0  1  0  0  0  0  0  0  0  0  0
  194.4110  175.9330  142.9610 C   0  0  0  0  0  3  0  0  0  0  0  0
  192.4660  174.8290  145.9360 C   0  0  0  0  0  2  0  0  0  0  0  0
  193.4290  176.1270  143.8360 C   0  0  1  0  0  3  0  0  0  0  0  0
  191.2580  175.4420  143.8920 N   0  0  0  0  0  0  0  0  0  0  0  0
  192.0800  176.5500  143.4240 C   0  0  0  0  0  2  0  0  0  0  0  0
  196.8820  171.5790  145.7970 C   0  0  0  0  0  2  0  0  0  0  0  0
  195.0480  170.4840  145.0850 C   0  0  0  0  0  2  0  0  0  0  0  0
  194.9990  172.9220  144.9990 N   0  0  0  0  0  0  0  0  0  0  0  0
  196.2130  172.9530  145.8210 C   0  0  0  0  0  2  0  0  0  0  0  0
  194.1600  171.7260  145.0360 C   0  0  0  0  0  2  0  0  0  0  0  0
  195.9530  170.5860  146.1560 O   0  0  0  0  0  0  0  0  0  0  0  0
  184.6680  178.5620  142.3580 C   0  0  2  0  0  3  0  0  0  0  0  0
  186.0160  176.8450  144.9260 O   0  0  0  0  0  0  0  0  0  0  0  0
  185.5410  178.1350  141.3800 C   0  0  0  0  0  2  0  0  0  0  0  0
  186.4180  176.8110  143.7320 C   0  0  0  0  0  0  0  0  0  0  0  0
  185.7460  177.6120  142.7630 N   0  0  0  0  0  0  0  0  0  0  0  0
  183.4640  177.8670  142.2610 O   0  0  0  0  0  0  0  0  0  0  0  0
  182.8690  178.3500  141.0950 C   0  0  0  0  0  2  0  0  0  0  0  0
  180.7170  179.4440  140.7050 C   0  0  0  0  0  2  0  0  0  0  0  0
  180.8730  179.1930  142.0810 O   0  0  0  0  0  0  0  0  0  0  0  0
  181.3640  178.2130  141.1980 C   0  0  2  0  0  3  0  0  0  0  0  0
  189.0510  177.0360  144.9200 O   0  0  0  0  0  0  0  0  0  0  0  0
  189.3840  176.7000  146.2630 C   0  0  1  0  0  3  0  0  0  0  0  0
  189.3610  177.9580  147.1110 C   0  0  0  0  0  1  0  0  0  0  0  0
  188.3840  175.6900  146.8040 C   0  0  0  0  0  2  0  0  0  0  0  0
  189.1040  174.4630  147.3330 C   0  0  0  0  0  1  0  0  0  0  0  0
  1  2  2  0  0  0  0
  1  5  1  0  0  0  0
  2  6  1  0  0  0  0
  3 32  1  0  0  0  0
  4 14  1  0  0  0  0
  4  3  1  0  0  0  0
  5  4  2  0  0  0  0
  6 25  1  0  0  0  0
  6  3  2  0  0  0  0
  7  8  1  1  0  0  0
  7 10  1  0  0  0  0
  7 18  1  0  0  0  0
  9 10  1  0  0  0  0
  9 12  1  1  0  0  0
 10 12  1  1  0  0  0
 11  8  2  0  0  0  0
 13 11  1  6  0  0  0
 13 10  1  0  0  0  0
 14  9  1  0  0  0  0
 15 13  1  0  0  0  0
 15 14  1  0  0  0  0
 16 19  1  0  0  0  0
 16 21  1  0  0  0  0
 17 21  1  0  0  0  0
 18 20  1  0  0  0  0
 18 19  1  0  0  0  0
 20 17  1  0  0  0  0
 22 27  1  6  0  0  0
 22 26  1  0  0  0  0
 24 22  1  0  0  0  0
 24 26  1  0  0  0  0
 25 23  2  0  0  0  0
 26 25  1  0  0  0  0
 28 27  1  0  0  0  0
 29 31  1  0  0  0  0
 29 30  1  0  0  0  0
 31 28  1  6  0  0  0
 31 30  1  0  0  0  0
 32 33  1  0  0  0  0
 33 35  1  0  0  0  0
 33 34  1  1  0  0  0
 35 36  1  0  0  0  0
M  END
>  <MODEL>
3

>  <REMARK>
 VINA RESULT:      -6.8      2.475      3.367
  Name = 
  9 active torsions:
  status: ('A' for Active; 'I' for Inactive)
    1  A    between atoms: C_1  and  O_17
    2  A    between atoms: C_1  and  C_19
    3  A    between atoms: C_3  and  O_22
    4  A    between atoms: C_5  and  N_29
    5  A    between atoms: C_14  and  O_17
    6  A    between atoms: C_16  and  N_34
    7  A    between atoms: C_21  and  C_25
    8  A    between atoms: O_22  and  C_25
    9  A    between atoms: C_23  and  C_33
                            x       y       z     vdW  Elec       q    Type
                         _______ _______ _______ _____ _____    ______ ____

>  <TORSDO>
F 9

$$$$
=
 OpenBabel11042414433D

 36 42  0  0  1  0  0  0  0  0999 V2000
  185.2080  177.2780  147.1120 C   0  0  0  0  0  3  0  0  0  0  0  0
  184.8690  178.0530  146.0060 C   0  0  0  0  0  3  0  0  0  0  0  0
  187.1460  177.8980  145.1710 C   0  0  0  0  0  0  0  0  0  0  0  0
  187.4760  177.0690  146.2750 C   0  0  0  0  0  0  0  0  0  0  0  0
  186.5030  176.7860  147.2410 C   0  0  0  0  0  3  0  0  0  0  0  0
  185.8170  178.3670  145.0240 C   0  0  0  0  0  0  0  0  0  0  0  0
  191.3800  174.5350  144.9040 C   0  0  2  0  0  3  0  0  0  0  0  0
  192.2650  175.5080  144.6800 C   0  0  0  0  0  3  0  0  0  0  0  0
  189.0850  175.1700  145.7520 C   0  0  1  0  0  3  0  0  0  0  0  0
  190.5580  174.9350  146.0700 C   0  0  1  0  0  0  0  0  0  0  0  0
  191.9870  176.6260  145.6020 C   0  0  0  0  0  3  0  0  0  0  0  0
  189.4870  174.1410  146.7960 C   0  0  0  0  0  2  0  0  0  0  0  0
  191.0320  176.2660  146.4540 C   0  0  1  0  0  3  0  0  0  0  0  0
  188.7630  176.4490  146.3920 N   0  0  0  0  0  0  0  0  0  0  0  0
  189.9420  177.1760  146.8440 C   0  0  0  0  0  2  0  0  0  0  0  0
  192.6130  171.3860  143.2880 C   0  0  0  0  0  2  0  0  0  0  0  0
  190.7060  171.9810  142.2490 C   0  0  0  0  0  2  0  0  0  0  0  0
  191.3590  173.2730  144.2140 N   0  0  0  0  0  0  0  0  0  0  0  0
  192.3630  172.2510  144.5240 C   0  0  0  0  0  2  0  0  0  0  0  0
  190.2260  172.9050  143.3670 C   0  0  0  0  0  2  0  0  0  0  0  0
  191.3940  170.8850  142.7980 O   0  0  0  0  0  0  0  0  0  0  0  0
  184.2000  178.6950  141.3600 C   0  0  2  0  0  3  0  0  0  0  0  0
  185.5090  180.4630  143.9140 O   0  0  0  0  0  0  0  0  0  0  0  0
  184.3780  177.4400  141.9020 C   0  0  0  0  0  2  0  0  0  0  0  0
  185.3900  179.2090  143.8770 C   0  0  0  0  0  0  0  0  0  0  0  0
  184.8280  178.6100  142.7120 N   0  0  0  0  0  0  0  0  0  0  0  0
  182.8710  179.0910  141.5000 O   0  0  0  0  0  0  0  0  0  0  0  0
  182.1460  178.1740  140.7390 C   0  0  0  0  0  2  0  0  0  0  0  0
  179.7850  178.1880  140.0990 C   0  0  0  0  0  2  0  0  0  0  0  0
  180.0620  179.3130  140.8980 O   0  0  0  0  0  0  0  0  0  0  0  0
  180.7170  178.1170  141.2410 C   0  0  2  0  0  3  0  0  0  0  0  0
  188.1110  178.2760  144.2240 O   0  0  0  0  0  0  0  0  0  0  0  0
  188.2750  177.6310  142.9650 C   0  0  1  0  0  3  0  0  0  0  0  0
  189.7570  177.4840  142.6710 C   0  0  0  0  0  1  0  0  0  0  0  0
  187.6130  176.2630  142.9970 C   0  0  0  0  0  2  0  0  0  0  0  0
  187.8990  175.5060  141.7130 C   0  0  0  0  0  1  0  0  0  0  0  0
  1  5  1  0  0  0  0
  2  1  2  0  0  0  0
  3  4  1  0  0  0  0
  4 14  1  0  0  0  0
  4  5  2  0  0  0  0
  6  3  2  0  0  0  0
  6  2  1  0  0  0  0
  7 18  1  1  0  0  0
  7 10  1  0  0  0  0
  8  7  1  0  0  0  0
  8 11  2  0  0  0  0
  9 10  1  0  0  0  0
  9 14  1  0  0  0  0
  9 12  1  1  0  0  0
 10 13  1  0  0  0  0
 10 12  1  1  0  0  0
 13 11  1  6  0  0  0
 13 15  1  0  0  0  0
 14 15  1  0  0  0  0
 16 19  1  0  0  0  0
 17 21  1  0  0  0  0
 17 20  1  0  0  0  0
 18 19  1  0  0  0  0
 20 18  1  0  0  0  0
 21 16  1  0  0  0  0
 22 27  1  1  0  0  0
 22 24  1  0  0  0  0
 22 26  1  0  0  0  0
 24 26  1  0  0  0  0
 25 23  2  0  0  0  0
 25  6  1  0  0  0  0
 26 25  1  0  0  0  0
 28 27  1  0  0  0  0
 29 30  1  0  0  0  0
 29 31  1  0  0  0  0
 30 31  1  0  0  0  0
 31 28  1  6  0  0  0
 32  3  1  0  0  0  0
 33 34  1  1  0  0  0
 33 35  1  0  0  0  0
 33 32  1  0  0  0  0
 36 35  1  0  0  0  0
M  END
>  <MODEL>
4

>  <REMARK>
 VINA RESULT:      -6.7      2.740      4.928
  Name = 
  9 active torsions:
  status: ('A' for Active; 'I' for Inactive)
    1  A    between atoms: C_1  and  O_17
    2  A    between atoms: C_1  and  C_19
    3  A    between atoms: C_3  and  O_22
    4  A    between atoms: C_5  and  N_29
    5  A    between atoms: C_14  and  O_17
    6  A    between atoms: C_16  and  N_34
    7  A    between atoms: C_21  and  C_25
    8  A    between atoms: O_22  and  C_25
    9  A    between atoms: C_23  and  C_33
                            x       y       z     vdW  Elec       q    Type
                         _______ _______ _______ _____ _____    ______ ____

>  <TORSDO>
F 9

$$$$
=
 OpenBabel11042414433D

 36 42  0  0  1  0  0  0  0  0999 V2000
  188.9400  174.6310  147.5540 C   0  0  0  0  0  3  0  0  0  0  0  0
  190.2800  174.6920  147.1820 C   0  0  0  0  0  3  0  0  0  0  0  0
  189.8250  176.6250  145.7790 C   0  0  0  0  0  0  0  0  0  0  0  0
  188.4690  176.5880  146.1990 C   0  0  0  0  0  0  0  0  0  0  0  0
  188.0430  175.5770  147.0680 C   0  0  0  0  0  3  0  0  0  0  0  0
  190.7430  175.6820  146.3050 C   0  0  0  0  0  0  0  0  0  0  0  0
  184.5480  178.5150  144.0890 C   0  0  2  0  0  3  0  0  0  0  0  0
  183.7260  178.6560  145.1300 C   0  0  0  0  0  3  0  0  0  0  0  0
  186.8720  177.6140  144.5060 C   0  0  1  0  0  3  0  0  0  0  0  0
  185.9230  178.8060  144.5590 C   0  0  1  0  0  0  0  0  0  0  0  0
  184.5290  178.9250  146.3390 C   0  0  0  0  0  3  0  0  0  0  0  0
  187.2060  178.8910  143.7530 C   0  0  0  0  0  2  0  0  0  0  0  0
  185.8050  179.0740  145.9940 C   0  0  1  0  0  3  0  0  0  0  0  0
  187.5350  177.6050  145.8140 N   0  0  0  0  0  0  0  0  0  0  0  0
  186.9060  178.4930  146.7810 C   0  0  0  0  0  2  0  0  0  0  0  0
  184.6540  178.3120  140.3480 C   0  0  0  0  0  2  0  0  0  0  0  0
  182.5200  178.7100  140.9460 C   0  0  0  0  0  2  0  0  0  0  0  0
  184.1210  178.2750  142.7360 N   0  0  0  0  0  0  0  0  0  0  0  0
  185.0880  177.8250  141.7300 C   0  0  0  0  0  2  0  0  0  0  0  0
  182.7000  178.2590  142.3950 C   0  0  0  0  0  2  0  0  0  0  0  0
  183.3240  177.9270  140.1000 O   0  0  0  0  0  0  0  0  0  0  0  0
  193.8230  174.0530  144.3040 C   0  0  2  0  0  3  0  0  0  0  0  0
  192.9620  176.5710  146.3720 O   0  0  0  0  0  0  0  0  0  0  0  0
  192.5880  173.4440  144.2400 C   0  0  0  0  0  2  0  0  0  0  0  0
  192.1830  175.6810  145.9390 C   0  0  0  0  0  0  0  0  0  0  0  0
  192.7090  174.6710  145.0810 N   0  0  0  0  0  0  0  0  0  0  0  0
  194.0450  174.8040  143.1520 O   0  0  0  0  0  0  0  0  0  0  0  0
  195.4280  174.7690  142.9670 C   0  0  0  0  0  2  0  0  0  0  0  0
  196.7620  176.7760  142.5510 C   0  0  0  0  0  2  0  0  0  0  0  0
  197.4510  175.9300  143.4390 O   0  0  0  0  0  0  0  0  0  0  0  0
  196.0550  176.0010  143.5880 C   0  0  2  0  0  3  0  0  0  0  0  0
  190.2780  177.5690  144.8440 O   0  0  0  0  0  0  0  0  0  0  0  0
  190.3090  177.3360  143.4400 C   0  0  1  0  0  3  0  0  0  0  0  0
  191.6990  177.6440  142.9150 C   0  0  0  0  0  1  0  0  0  0  0  0
  189.9540  175.8850  143.1510 C   0  0  0  0  0  2  0  0  0  0  0  0
  188.8650  175.8080  142.0970 C   0  0  0  0  0  1  0  0  0  0  0  0
  2  1  1  0  0  0  0
  3  4  2  0  0  0  0
  3  6  1  0  0  0  0
  4  5  1  0  0  0  0
  5  1  2  0  0  0  0
  6  2  2  0  0  0  0
  7 18  1  6  0  0  0
  7 10  1  0  0  0  0
  7  8  1  0  0  0  0
  8 11  2  0  0  0  0
  9 12  1  6  0  0  0
  9 10  1  0  0  0  0
  9 14  1  0  0  0  0
 10 12  1  6  0  0  0
 10 13  1  0  0  0  0
 13 11  1  1  0  0  0
 13 15  1  0  0  0  0
 14  4  1  0  0  0  0
 14 15  1  0  0  0  0
 16 19  1  0  0  0  0
 17 20  1  0  0  0  0
 19 18  1  0  0  0  0
 20 18  1  0  0  0  0
 21 16  1  0  0  0  0
 21 17  1  0  0  0  0
 22 27  1  6  0  0  0
 22 26  1  0  0  0  0
 24 22  1  0  0  0  0
 24 26  1  0  0  0  0
 25  6  1  0  0  0  0
 25 23  2  0  0  0  0
 26 25  1  0  0  0  0
 28 27  1  0  0  0  0
 29 30  1  0  0  0  0
 29 31  1  0  0  0  0
 30 31  1  0  0  0  0
 31 28  1  6  0  0  0
 32  3  1  0  0  0  0
 33 34  1  1  0  0  0
 33 32  1  0  0  0  0
 35 33  1  0  0  0  0
 36 35  1  0  0  0  0
M  END
>  <MODEL>
5

>  <REMARK>
 VINA RESULT:      -6.7      2.111      9.127
  Name = 
  9 active torsions:
  status: ('A' for Active; 'I' for Inactive)
    1  A    between atoms: C_1  and  O_17
    2  A    between atoms: C_1  and  C_19
    3  A    between atoms: C_3  and  O_22
    4  A    between atoms: C_5  and  N_29
    5  A    between atoms: C_14  and  O_17
    6  A    between atoms: C_16  and  N_34
    7  A    between atoms: C_21  and  C_25
    8  A    between atoms: O_22  and  C_25
    9  A    between atoms: C_23  and  C_33
                            x       y       z     vdW  Elec       q    Type
                         _______ _______ _______ _____ _____    ______ ____

>  <TORSDO>
F 9

$$$$
=
 OpenBabel11042414433D

 36 42  0  0  1  0  0  0  0  0999 V2000
  189.1390  177.9110  147.1790 C   0  0  0  0  0  3  0  0  0  0  0  0
  187.7820  177.9160  146.8690 C   0  0  0  0  0  3  0  0  0  0  0  0
  188.1690  176.3490  145.0510 C   0  0  0  0  0  0  0  0  0  0  0  0
  189.5450  176.3110  145.4010 C   0  0  0  0  0  0  0  0  0  0  0  0
  190.0130  177.1100  146.4500 C   0  0  0  0  0  3  0  0  0  0  0  0
  187.2770  177.1390  145.8180 C   0  0  0  0  0  0  0  0  0  0  0  0
  193.8110  174.6290  143.8140 C   0  0  2  0  0  3  0  0  0  0  0  0
  194.0720  173.6750  144.7100 C   0  0  0  0  0  3  0  0  0  0  0  0
  191.6300  175.8920  144.0050 C   0  0  1  0  0  3  0  0  0  0  0  0
  192.3500  174.6230  143.5640 C   0  0  1  0  0  0  0  0  0  0  0  0
  192.7970  173.0900  145.1680 C   0  0  0  0  0  3  0  0  0  0  0  0
  191.5540  175.4340  142.5580 C   0  0  0  0  0  2  0  0  0  0  0  0
  191.7970  173.5990  144.4540 C   0  0  1  0  0  3  0  0  0  0  0  0
  190.4610  175.4190  144.7530 N   0  0  0  0  0  0  0  0  0  0  0  0
  190.5170  173.9970  145.0640 C   0  0  0  0  0  2  0  0  0  0  0  0
  196.3550  175.5900  141.2350 C   0  0  0  0  0  2  0  0  0  0  0  0
  196.9630  176.5490  143.1800 C   0  0  0  0  0  2  0  0  0  0  0  0
  194.8110  175.3990  143.1240 N   0  0  0  0  0  0  0  0  0  0  0  0
  194.9100  175.3330  141.6630 C   0  0  0  0  0  2  0  0  0  0  0  0
  195.5880  176.4150  143.8320 C   0  0  0  0  0  2  0  0  0  0  0  0
  196.8160  176.7910  141.8020 O   0  0  0  0  0  0  0  0  0  0  0  0
  184.1870  178.7610  143.8260 C   0  0  2  0  0  3  0  0  0  0  0  0
  185.0150  176.4160  146.1010 O   0  0  0  0  0  0  0  0  0  0  0  0
  185.4520  179.2740  143.6310 C   0  0  0  0  0  2  0  0  0  0  0  0
  185.8200  177.2010  145.5340 C   0  0  0  0  0  0  0  0  0  0  0  0
  185.3070  178.1510  144.6030 N   0  0  0  0  0  0  0  0  0  0  0  0
  183.8480  177.9120  142.7750 O   0  0  0  0  0  0  0  0  0  0  0  0
  183.2070  178.7350  141.8480 C   0  0  0  0  0  2  0  0  0  0  0  0
  181.0270  179.2870  140.8880 C   0  0  0  0  0  2  0  0  0  0  0  0
  180.9240  179.2400  142.2900 O   0  0  0  0  0  0  0  0  0  0  0  0
  181.7670  178.2910  141.6860 C   0  0  2  0  0  3  0  0  0  0  0  0
  187.6710  175.6300  143.9520 O   0  0  0  0  0  0  0  0  0  0  0  0
  188.1020  175.8410  142.6120 C   0  0  1  0  0  3  0  0  0  0  0  0
  188.2100  174.5010  141.9080 C   0  0  0  0  0  1  0  0  0  0  0  0
  187.1060  176.7310  141.8850 C   0  0  0  0  0  2  0  0  0  0  0  0
  187.8150  177.9180  141.2590 C   0  0  0  0  0  1  0  0  0  0  0  0
  2  1  1  0  0  0  0
  3  4  2  0  0  0  0
  3  6  1  0  0  0  0
  4  5  1  0  0  0  0
  5  1  2  0  0  0  0
  6  2  2  0  0  0  0
  7 18  1  6  0  0  0
  7  8  1  0  0  0  0
  8 11  2  0  0  0  0
  9 12  1  6  0  0  0
  9 14  1  0  0  0  0
 10 12  1  6  0  0  0
 10  7  1  0  0  0  0
 10  9  1  0  0  0  0
 10 13  1  0  0  0  0
 13 15  1  1  0  0  0
 13 11  1  0  0  0  0
 14 15  1  0  0  0  0
 14  4  1  0  0  0  0
 16 19  1  0  0  0  0
 16 21  1  0  0  0  0
 17 20  1  0  0  0  0
 18 20  1  0  0  0  0
 19 18  1  0  0  0  0
 21 17  1  0  0  0  0
 22 27  1  6  0  0  0
 22 26  1  0  0  0  0
 24 22  1  0  0  0  0
 24 26  1  0  0  0  0
 25  6  1  0  0  0  0
 25 23  2  0  0  0  0
 26 25  1  0  0  0  0
 28 27  1  0  0  0  0
 29 31  1  0  0  0  0
 29 30  1  0  0  0  0
 31 28  1  1  0  0  0
 31 30  1  0  0  0  0
 32  3  1  0  0  0  0
 33 34  1  6  0  0  0
 33 32  1  0  0  0  0
 35 33  1  0  0  0  0
 36 35  1  0  0  0  0
M  END
>  <MODEL>
6

>  <REMARK>
 VINA RESULT:      -6.6      1.927      3.731
  Name = 
  9 active torsions:
  status: ('A' for Active; 'I' for Inactive)
    1  A    between atoms: C_1  and  O_17
    2  A    between atoms: C_1  and  C_19
    3  A    between atoms: C_3  and  O_22
    4  A    between atoms: C_5  and  N_29
    5  A    between atoms: C_14  and  O_17
    6  A    between atoms: C_16  and  N_34
    7  A    between atoms: C_21  and  C_25
    8  A    between atoms: O_22  and  C_25
    9  A    between atoms: C_23  and  C_33
                            x       y       z     vdW  Elec       q    Type
                         _______ _______ _______ _____ _____    ______ ____

>  <TORSDO>
F 9

$$$$
=
 OpenBabel11042414433D

 36 42  0  0  1  0  0  0  0  0999 V2000
  190.3520  171.8680  143.3500 C   0  0  0  0  0  3  0  0  0  0  0  0
  191.6710  171.5440  143.6550 C   0  0  0  0  0  3  0  0  0  0  0  0
  191.9010  173.5960  144.9390 C   0  0  0  0  0  0  0  0  0  0  0  0
  190.5410  173.8980  144.6640 C   0  0  0  0  0  0  0  0  0  0  0  0
  189.7910  173.0370  143.8560 C   0  0  0  0  0  3  0  0  0  0  0  0
  192.4570  172.3870  144.4510 C   0  0  0  0  0  0  0  0  0  0  0  0
  186.9880  177.0890  145.5230 C   0  0  2  0  0  3  0  0  0  0  0  0
  186.5210  176.6600  146.6960 C   0  0  0  0  0  3  0  0  0  0  0  0
  188.9660  175.8900  144.5050 C   0  0  1  0  0  3  0  0  0  0  0  0
  188.4580  176.9000  145.5290 C   0  0  1  0  0  0  0  0  0  0  0  0
  187.6330  176.0670  147.4650 C   0  0  0  0  0  3  0  0  0  0  0  0
  189.4750  177.3220  144.4840 C   0  0  0  0  0  2  0  0  0  0  0  0
  188.7730  176.2640  146.8100 C   0  0  1  0  0  3  0  0  0  0  0  0
  189.8890  175.0310  145.2540 N   0  0  0  0  0  0  0  0  0  0  0  0
  189.8050  175.2190  146.6960 C   0  0  0  0  0  2  0  0  0  0  0  0
  184.5540  179.4810  143.9740 C   0  0  0  0  0  2  0  0  0  0  0  0
  184.5450  177.6030  142.7320 C   0  0  0  0  0  2  0  0  0  0  0  0
  186.1980  177.7530  144.5210 N   0  0  0  0  0  0  0  0  0  0  0  0
  185.8880  179.1790  144.6560 C   0  0  0  0  0  2  0  0  0  0  0  0
  185.8830  177.0860  143.2590 C   0  0  0  0  0  2  0  0  0  0  0  0
  184.5740  179.0060  142.6500 O   0  0  0  0  0  0  0  0  0  0  0  0
  196.2970  172.1410  143.2920 C   0  0  2  0  0  3  0  0  0  0  0  0
  194.1820  171.4660  145.8280 O   0  0  0  0  0  0  0  0  0  0  0  0
  195.3640  172.6470  142.4120 C   0  0  0  0  0  2  0  0  0  0  0  0
  193.8610  171.9860  144.7270 C   0  0  0  0  0  0  0  0  0  0  0  0
  194.8760  172.1920  143.7480 N   0  0  0  0  0  0  0  0  0  0  0  0
  197.0040  173.1820  143.8900 O   0  0  0  0  0  0  0  0  0  0  0  0
  197.0450  174.1850  142.9210 C   0  0  0  0  0  2  0  0  0  0  0  0
  196.5470  176.5740  142.7600 C   0  0  0  0  0  2  0  0  0  0  0  0
  197.9410  176.3850  142.7710 O   0  0  0  0  0  0  0  0  0  0  0  0
  197.1810  175.5360  143.5950 C   0  0  2  0  0  3  0  0  0  0  0  0
  192.7140  174.4730  145.6740 O   0  0  0  0  0  0  0  0  0  0  0  0
  193.7630  175.2450  145.0980 C   0  0  1  0  0  3  0  0  0  0  0  0
  193.1620  176.4250  144.3570 C   0  0  0  0  0  1  0  0  0  0  0  0
  194.6980  175.7390  146.1910 C   0  0  0  0  0  2  0  0  0  0  0  0
  194.5770  177.2440  146.3490 C   0  0  0  0  0  1  0  0  0  0  0  0
  1  2  2  0  0  0  0
  1  5  1  0  0  0  0
  2  6  1  0  0  0  0
  3 32  1  0  0  0  0
  4  3  1  0  0  0  0
  4 14  1  0  0  0  0
  5  4  2  0  0  0  0
  6 25  1  0  0  0  0
  6  3  2  0  0  0  0
  7 18  1  1  0  0  0
  7 10  1  0  0  0  0
  7  8  1  0  0  0  0
  8 11  2  0  0  0  0
  9 12  1  6  0  0  0
  9 14  1  0  0  0  0
  9 10  1  0  0  0  0
 10 12  1  6  0  0  0
 10 13  1  0  0  0  0
 13 15  1  6  0  0  0
 13 11  1  0  0  0  0
 14 15  1  0  0  0  0
 16 19  1  0  0  0  0
 17 20  1  0  0  0  0
 18 19  1  0  0  0  0
 20 18  1  0  0  0  0
 21 17  1  0  0  0  0
 21 16  1  0  0  0  0
 22 26  1  0  0  0  0
 22 27  1  1  0  0  0
 24 22  1  0  0  0  0
 24 26  1  0  0  0  0
 25 23  2  0  0  0  0
 26 25  1  0  0  0  0
 28 27  1  0  0  0  0
 29 30  1  0  0  0  0
 29 31  1  0  0  0  0
 30 31  1  0  0  0  0
 31 28  1  6  0  0  0
 33 34  1  1  0  0  0
 33 32  1  0  0  0  0
 33 35  1  0  0  0  0
 35 36  1  0  0  0  0
M  END
>  <MODEL>
7

>  <REMARK>
 VINA RESULT:      -6.5      2.089      8.761
  Name = 
  9 active torsions:
  status: ('A' for Active; 'I' for Inactive)
    1  A    between atoms: C_1  and  O_17
    2  A    between atoms: C_1  and  C_19
    3  A    between atoms: C_3  and  O_22
    4  A    between atoms: C_5  and  N_29
    5  A    between atoms: C_14  and  O_17
    6  A    between atoms: C_16  and  N_34
    7  A    between atoms: C_21  and  C_25
    8  A    between atoms: O_22  and  C_25
    9  A    between atoms: C_23  and  C_33
                            x       y       z     vdW  Elec       q    Type
                         _______ _______ _______ _____ _____    ______ ____

>  <TORSDO>
F 9

$$$$
=
 OpenBabel11042414433D

 36 42  0  0  1  0  0  0  0  0999 V2000
  190.1640  171.8620  143.1030 C   0  0  0  0  0  3  0  0  0  0  0  0
  191.5260  171.5920  143.1970 C   0  0  0  0  0  3  0  0  0  0  0  0
  191.8740  173.6610  144.4250 C   0  0  0  0  0  0  0  0  0  0  0  0
  190.4770  173.9070  144.3690 C   0  0  0  0  0  0  0  0  0  0  0  0
  189.6440  173.0110  143.6900 C   0  0  0  0  0  3  0  0  0  0  0  0
  192.3940  172.4710  143.8580 C   0  0  0  0  0  0  0  0  0  0  0  0
  187.0500  177.1240  145.5740 C   0  0  2  0  0  3  0  0  0  0  0  0
  186.6230  176.6360  146.7400 C   0  0  0  0  0  3  0  0  0  0  0  0
  188.9490  175.9410  144.3990 C   0  0  1  0  0  3  0  0  0  0  0  0
  188.5130  176.9000  145.5010 C   0  0  1  0  0  0  0  0  0  0  0  0
  187.7530  175.9740  147.4210 C   0  0  0  0  0  3  0  0  0  0  0  0
  189.4930  177.3590  144.4370 C   0  0  0  0  0  2  0  0  0  0  0  0
  188.8680  176.1820  146.7270 C   0  0  1  0  0  3  0  0  0  0  0  0
  189.8810  175.0180  145.0530 N   0  0  0  0  0  0  0  0  0  0  0  0
  189.8660  175.1220  146.5060 C   0  0  0  0  0  2  0  0  0  0  0  0
  184.5770  179.6290  144.2860 C   0  0  0  0  0  2  0  0  0  0  0  0
  184.5310  177.8550  142.9000 C   0  0  0  0  0  2  0  0  0  0  0  0
  186.2330  177.8640  144.6490 N   0  0  0  0  0  0  0  0  0  0  0  0
  185.9290  179.2750  144.9050 C   0  0  0  0  0  2  0  0  0  0  0  0
  185.8820  177.2990  143.3480 C   0  0  0  0  0  2  0  0  0  0  0  0
  184.5600  179.2600  142.9290 O   0  0  0  0  0  0  0  0  0  0  0  0
  196.0590  172.5930  142.2140 C   0  0  2  0  0  3  0  0  0  0  0  0
  194.3240  171.5070  144.8910 O   0  0  0  0  0  0  0  0  0  0  0  0
  194.9980  173.1370  141.5220 C   0  0  0  0  0  2  0  0  0  0  0  0
  193.8390  172.1280  143.9080 C   0  0  0  0  0  0  0  0  0  0  0  0
  194.7080  172.5060  142.8430 N   0  0  0  0  0  0  0  0  0  0  0  0
  196.7890  173.6010  142.8410 O   0  0  0  0  0  0  0  0  0  0  0  0
  197.5560  172.9390  143.8000 C   0  0  0  0  0  2  0  0  0  0  0  0
  196.9430  173.3350  146.1340 C   0  0  0  0  0  2  0  0  0  0  0  0
  196.5130  174.4190  145.3450 O   0  0  0  0  0  0  0  0  0  0  0  0
  197.7480  173.8380  145.0040 C   0  0  2  0  0  3  0  0  0  0  0  0
  192.7570  174.5750  145.0220 O   0  0  0  0  0  0  0  0  0  0  0  0
  193.3860  175.6390  144.3150 C   0  0  1  0  0  3  0  0  0  0  0  0
  192.7040  175.8140  142.9710 C   0  0  0  0  0  1  0  0  0  0  0  0
  193.2840  176.9240  145.1210 C   0  0  0  0  0  2  0  0  0  0  0  0
  194.1710  176.8490  146.3500 C   0  0  0  0  0  1  0  0  0  0  0  0
  1  2  2  0  0  0  0
  1  5  1  0  0  0  0
  2  6  1  0  0  0  0
  3 32  1  0  0  0  0
  4  3  1  0  0  0  0
  4 14  1  0  0  0  0
  5  4  2  0  0  0  0
  6 25  1  0  0  0  0
  6  3  2  0  0  0  0
  7 18  1  1  0  0  0
  7  8  1  0  0  0  0
  8 11  2  0  0  0  0
  9 12  1  6  0  0  0
  9 14  1  0  0  0  0
  9 10  1  0  0  0  0
 10 12  1  6  0  0  0
 10  7  1  0  0  0  0
 10 13  1  0  0  0  0
 13 15  1  6  0  0  0
 13 11  1  0  0  0  0
 14 15  1  0  0  0  0
 16 19  1  0  0  0  0
 17 21  1  0  0  0  0
 17 20  1  0  0  0  0
 18 19  1  0  0  0  0
 20 18  1  0  0  0  0
 21 16  1  0  0  0  0
 22 27  1  1  0  0  0
 22 26  1  0  0  0  0
 24 22  1  0  0  0  0
 24 26  1  0  0  0  0
 25 23  2  0  0  0  0
 26 25  1  0  0  0  0
 27 28  1  0  0  0  0
 30 29  1  0  0  0  0
 31 28  1  6  0  0  0
 31 30  1  0  0  0  0
 31 29  1  0  0  0  0
 33 34  1  6  0  0  0
 33 32  1  0  0  0  0
 33 35  1  0  0  0  0
 35 36  1  0  0  0  0
M  END
>  <MODEL>
8

>  <REMARK>
 VINA RESULT:      -6.4      2.203      8.668
  Name = 
  9 active torsions:
  status: ('A' for Active; 'I' for Inactive)
    1  A    between atoms: C_1  and  O_17
    2  A    between atoms: C_1  and  C_19
    3  A    between atoms: C_3  and  O_22
    4  A    between atoms: C_5  and  N_29
    5  A    between atoms: C_14  and  O_17
    6  A    between atoms: C_16  and  N_34
    7  A    between atoms: C_21  and  C_25
    8  A    between atoms: O_22  and  C_25
    9  A    between atoms: C_23  and  C_33
                            x       y       z     vdW  Elec       q    Type
                         _______ _______ _______ _____ _____    ______ ____

>  <TORSDO>
F 9

$$$$
=
 OpenBabel11042414433D

 36 42  0  0  1  0  0  0  0  0999 V2000
  195.1360  175.2890  146.0350 C   0  0  0  0  0  3  0  0  0  0  0  0
  195.1780  174.1550  145.2300 C   0  0  0  0  0  3  0  0  0  0  0  0
  192.8110  174.3980  144.7280 C   0  0  0  0  0  0  0  0  0  0  0  0
  192.7850  175.5810  145.5120 C   0  0  0  0  0  0  0  0  0  0  0  0
  193.9470  175.9990  146.1710 C   0  0  0  0  0  3  0  0  0  0  0  0
  194.0330  173.6980  144.5630 C   0  0  0  0  0  0  0  0  0  0  0  0
  188.3470  177.1930  144.3960 C   0  0  2  0  0  3  0  0  0  0  0  0
  187.6190  176.6840  145.3910 C   0  0  0  0  0  3  0  0  0  0  0  0
  190.8420  176.7950  144.4060 C   0  0  1  0  0  3  0  0  0  0  0  0
  189.6610  177.5870  144.9560 C   0  0  1  0  0  0  0  0  0  0  0  0
  188.4560  176.6140  146.6050 C   0  0  0  0  0  3  0  0  0  0  0  0
  190.8080  178.3080  144.2720 C   0  0  0  0  0  2  0  0  0  0  0  0
  189.6260  177.1980  146.3670 C   0  0  1  0  0  3  0  0  0  0  0  0
  191.6150  176.4050  145.5900 N   0  0  0  0  0  0  0  0  0  0  0  0
  190.9000  176.6290  146.8400 C   0  0  0  0  0  2  0  0  0  0  0  0
  186.0470  178.2580  141.6350 C   0  0  0  0  0  2  0  0  0  0  0  0
  187.3220  176.5770  140.8470 C   0  0  0  0  0  2  0  0  0  0  0  0
  187.8550  177.4400  143.0670 N   0  0  0  0  0  0  0  0  0  0  0  0
  186.9680  178.5790  142.8120 C   0  0  0  0  0  2  0  0  0  0  0  0
  188.3970  176.7080  141.9240 C   0  0  0  0  0  2  0  0  0  0  0  0
  186.8100  177.8470  140.5270 O   0  0  0  0  0  0  0  0  0  0  0  0
  194.2440  169.6960  144.2720 C   0  0  2  0  0  3  0  0  0  0  0  0
  194.1930  172.5460  142.4740 O   0  0  0  0  0  0  0  0  0  0  0  0
  194.1990  170.2740  145.5230 C   0  0  0  0  0  2  0  0  0  0  0  0
  194.1450  172.4730  143.7300 C   0  0  0  0  0  0  0  0  0  0  0  0
  194.1930  171.1860  144.3420 N   0  0  0  0  0  0  0  0  0  0  0  0
  192.9840  169.2140  143.9230 O   0  0  0  0  0  0  0  0  0  0  0  0
  193.1740  168.5860  142.6910 C   0  0  0  0  0  2  0  0  0  0  0  0
  192.4580  168.8110  140.3630 C   0  0  0  0  0  2  0  0  0  0  0  0
  192.3530  170.0570  141.0100 O   0  0  0  0  0  0  0  0  0  0  0  0
  192.0190  168.9200  141.7680 C   0  0  2  0  0  3  0  0  0  0  0  0
  191.6510  173.8950  144.1180 O   0  0  0  0  0  0  0  0  0  0  0  0
  190.8960  172.8050  144.6380 C   0  0  1  0  0  3  0  0  0  0  0  0
  189.6930  173.3450  145.3880 C   0  0  0  0  0  1  0  0  0  0  0  0
  190.4390  171.9060  143.5000 C   0  0  0  0  0  2  0  0  0  0  0  0
  189.0410  172.2910  143.0510 C   0  0  0  0  0  1  0  0  0  0  0  0
  1  5  1  0  0  0  0
  2  1  2  0  0  0  0
  3  4  1  0  0  0  0
  4 14  1  0  0  0  0
  4  5  2  0  0  0  0
  6  3  2  0  0  0  0
  6  2  1  0  0  0  0
  7 18  1  1  0  0  0
  7 10  1  0  0  0  0
  7  8  1  0  0  0  0
  8 11  2  0  0  0  0
  9 12  1  6  0  0  0
  9 10  1  0  0  0  0
  9 14  1  0  0  0  0
 10 12  1  6  0  0  0
 10 13  1  0  0  0  0
 13 11  1  6  0  0  0
 13 15  1  0  0  0  0
 14 15  1  0  0  0  0
 16 19  1  0  0  0  0
 17 20  1  0  0  0  0
 19 18  1  0  0  0  0
 20 18  1  0  0  0  0
 21 17  1  0  0  0  0
 21 16  1  0  0  0  0
 22 27  1  6  0  0  0
 22 26  1  0  0  0  0
 22 24  1  0  0  0  0
 23 25  2  0  0  0  0
 25 26  1  0  0  0  0
 25  6  1  0  0  0  0
 26 24  1  0  0  0  0
 28 27  1  0  0  0  0
 29 30  1  0  0  0  0
 29 31  1  0  0  0  0
 30 31  1  0  0  0  0
 31 28  1  1  0  0  0
 32 33  1  0  0  0  0
 32  3  1  0  0  0  0
 33 34  1  6  0  0  0
 35 33  1  0  0  0  0
 36 35  1  0  0  0  0
M  END
>  <MODEL>
9

>  <REMARK>
 VINA RESULT:      -6.4      3.071      8.478
  Name = 
  9 active torsions:
  status: ('A' for Active; 'I' for Inactive)
    1  A    between atoms: C_1  and  O_17
    2  A    between atoms: C_1  and  C_19
    3  A    between atoms: C_3  and  O_22
    4  A    between atoms: C_5  and  N_29
    5  A    between atoms: C_14  and  O_17
    6  A    between atoms: C_16  and  N_34
    7  A    between atoms: C_21  and  C_25
    8  A    between atoms: O_22  and  C_25
    9  A    between atoms: C_23  and  C_33
                            x       y       z     vdW  Elec       q    Type
                         _______ _______ _______ _____ _____    ______ ____

>  <TORSDO>
F 9

$$$$
