=
 OpenBabel11042419413D

 61 65  0  0  1  0  0  0  0  0999 V2000
  189.8280  176.9260  144.1560 C   0  0  1  0  0  3  0  0  0  0  0  0
  188.1830  177.2950  142.4770 N   0  0  0  0  0  0  0  0  0  0  0  0
  188.7320  177.6970  143.5640 N   0  0  0  0  0  0  0  0  0  0  0  0
  187.1660  178.0510  141.8000 C   0  0  0  0  0  0  0  0  0  0  0  0
  186.8890  177.8100  140.5900 O   0  0  0  0  0  0  0  0  0  0  0  0
  186.4810  179.0730  142.4590 O   0  0  0  0  0  0  0  0  0  0  0  0
  185.2780  178.9020  143.2180 C   0  0  2  0  0  3  0  0  0  0  0  0
  185.5840  178.6860  144.7020 C   0  0  2  0  0  3  0  0  0  0  0  0
  184.7410  177.6660  145.1900 O   0  0  0  0  0  0  0  0  0  0  0  0
  184.4070  178.9840  145.5500 C   0  0  0  0  0  2  0  0  0  0  0  0
  183.1720  178.4130  141.9200 C   0  0  0  0  0  1  0  0  0  0  0  0
  184.3490  177.8050  142.6790 C   0  0  0  0  0  2  0  0  0  0  0  0
  189.2340  175.6260  144.7190 C   0  0  0  0  0  2  0  0  0  0  0  0
  189.4810  175.4790  146.1770 C   0  0  0  0  0  0  0  0  0  0  0  0
  189.1060  174.4430  146.7810 O   0  0  0  0  0  0  0  0  0  0  0  0
  190.1600  176.5210  146.8910 N   0  0  0  0  0  2  0  0  0  0  0  0
  191.3860  176.2830  147.6490 C   0  0  0  0  0  2  0  0  0  0  0  0
  194.7560  176.5500  146.0690 C   0  0  0  0  0  3  0  0  0  0  0  0
  192.4940  175.7660  146.7840 C   0  0  0  0  0  0  0  0  0  0  0  0
  192.6080  174.4880  146.6620 N   0  0  0  0  0  0  0  0  0  0  0  0
  193.2790  176.7330  145.9140 C   0  0  0  0  0  2  0  0  0  0  0  0
  193.4830  173.7540  145.7710 C   0  0  0  0  0  3  0  0  0  0  0  0
  194.6960  174.1520  145.3320 C   0  0  0  0  0  0  0  0  0  0  0  0
  195.3660  175.3910  145.7780 C   0  0  0  0  0  3  0  0  0  0  0  0
  195.9180  170.8910  143.6050 C   0  0  0  0  0  0  0  0  0  0  0  0
  195.4420  173.2160  144.4560 C   0  0  0  0  0  0  0  0  0  0  0  0
  195.6130  169.6770  143.5180 O   0  0  0  0  0  0  0  0  0  0  0  0
  196.9200  172.8090  142.5320 C   0  0  0  0  0  3  0  0  0  0  0  0
  196.7990  171.4880  142.6010 C   0  0  0  0  0  3  0  0  0  0  0  0
  196.1840  173.6890  143.4430 C   0  0  0  0  0  3  0  0  0  0  0  0
  195.3800  171.7240  144.7370 C   0  0  0  0  0  2  0  0  0  0  0  0
  190.8960  176.6510  143.0770 C   0  0  0  0  0  2  0  0  0  0  0  0
  190.2950  174.6070  141.8500 C   0  0  0  0  0  2  0  0  0  0  0  0
  193.0600  173.6410  142.0190 C   0  0  0  0  0  2  0  0  0  0  0  0
  191.2510  175.1830  142.8660 C   0  0  1  0  0  3  0  0  0  0  0  0
  191.9430  172.7360  141.6500 N   0  0  0  0  0  0  0  0  0  0  0  0
  190.5140  173.1060  141.7340 C   0  0  0  0  0  2  0  0  0  0  0  0
  191.4110  170.4710  141.8720 O   0  0  0  0  0  0  0  0  0  0  0  0
  192.2250  171.3470  141.4510 C   0  0  0  0  0  0  0  0  0  0  0  0
  192.6430  175.0840  142.2790 C   0  0  0  0  0  2  0  0  0  0  0  0
  193.5110  170.8920  140.8390 C   0  0  0  0  0  2  0  0  0  0  0  0
  193.5390  171.1180  139.3350 C   0  0  0  0  0  2  0  0  0  0  0  0
  194.9850  170.9040  138.8850 C   0  0  0  0  0  2  0  0  0  0  0  0
  196.8990  171.7860  137.8030 O   0  0  0  0  0  1  0  0  0  0  0  0
  195.8880  172.1100  138.7190 C   0  0  1  0  0  3  0  0  0  0  0  0
  195.3090  173.5060  138.3870 C   0  0  1  0  0  3  0  0  0  0  0  0
  196.0050  174.5510  139.0010 O   0  0  0  0  0  1  0  0  0  0  0  0
  195.1140  173.7480  136.8820 C   0  0  1  0  0  3  0  0  0  0  0  0
  192.8000  173.9320  136.3150 C   0  0  2  0  0  3  0  0  0  0  0  0
  193.9660  173.0900  136.3450 O   0  0  0  0  0  0  0  0  0  0  0  0
  195.1110  175.2120  136.5760 C   0  0  0  0  0  0  0  0  0  0  0  0
  193.7930  175.9000  136.6860 C   0  0  0  0  0  2  0  0  0  0  0  0
  196.0850  175.7430  136.0820 O   0  0  0  0  0  0  0  0  0  0  0  0
  192.8490  175.0030  137.2220 O   0  0  0  0  0  0  0  0  0  0  0  0
  191.3510  172.8640  136.5670 P   0  0  2  0  0  0  0  0  0  0  0  0
  191.7720  171.2860  136.1390 O   0  0  0  0  0  1  0  0  0  0  0  0
  190.1980  173.3050  135.6820 O   0  0  0  0  0  0  0  0  0  0  0  0
  190.9530  172.8050  138.2270 O   0  0  0  0  0  0  0  0  0  0  0  0
  188.2110  172.7640  138.5260 O   0  0  0  0  0  0  0  0  0  0  0  0
  189.4800  171.9750  138.2840 P   0  0  0  0  0  0  0  0  0  0  0  0
  189.3970  170.4580  138.2460 O   0  0  0  0  0  0  0  0  0  0  0  0
  1 32  1  6  0  0  0
  1 13  1  0  0  0  0
  2  3  2  0  0  0  0
  3  1  1  0  0  0  0
  4  6  1  0  0  0  0
  4  2  1  0  0  0  0
  5  4  2  0  0  0  0
  6  7  1  0  0  0  0
  7 12  1  6  0  0  0
  8  7  1  6  0  0  0
  8  9  1  0  0  0  0
  8 10  1  0  0  0  0
  9 10  1  0  0  0  0
 11 12  1  0  0  0  0
 13 14  1  0  0  0  0
 14 15  2  0  0  0  0
 14 16  1  0  0  0  0
 16 17  1  0  0  0  0
 19 17  1  0  0  0  0
 20 19  2  0  0  0  0
 21 18  1  0  0  0  0
 21 19  1  0  0  0  0
 22 20  1  0  0  0  0
 23 22  2  0  0  0  0
 23 24  1  0  0  0  0
 24 18  2  0  0  0  0
 25 31  1  0  0  0  0
 26 31  1  0  0  0  0
 26 23  1  0  0  0  0
 27 25  2  0  0  0  0
 28 29  2  0  0  0  0
 28 30  1  0  0  0  0
 29 25  1  0  0  0  0
 30 26  2  0  0  0  0
 33 35  1  0  0  0  0
 34 40  1  0  0  0  0
 35 32  1  6  0  0  0
 36 37  1  0  0  0  0
 36 34  1  0  0  0  0
 37 33  1  0  0  0  0
 39 36  1  0  0  0  0
 39 38  2  0  0  0  0
 40 35  1  0  0  0  0
 41 39  1  0  0  0  0
 42 41  1  0  0  0  0
 43 42  1  0  0  0  0
 45 44  1  6  0  0  0
 45 43  1  0  0  0  0
 46 45  1  0  0  0  0
 46 47  1  6  0  0  0
 48 46  1  1  0  0  0
 49 50  1  0  0  0  0
 49 55  1  1  0  0  0
 49 54  1  0  0  0  0
 50 48  1  0  0  0  0
 51 52  1  0  0  0  0
 51 48  1  0  0  0  0
 52 54  1  0  0  0  0
 53 51  2  0  0  0  0
 55 57  2  6  0  0  0
 55 58  1  0  0  0  0
 56 55  1  0  0  0  0
 58 60  1  0  0  0  0
 60 59  2  0  0  0  0
 61 60  2  0  0  0  0
M  END
>  <MODEL>
1

>  <REMARK>
 VINA RESULT:      -5.8      0.000      0.000
  Name = 
  22 active torsions:
  status: ('A' for Active; 'I' for Inactive)
    1  A    between atoms: C_1  and  C_6
    2  A    between atoms: C_1  and  N_32
    3  A    between atoms: C_3  and  C_12
    4  A    between atoms: P_5  and  C_11
    5  A    between atoms: P_5  and  O_36
    6  A    between atoms: C_8  and  C_23
    7  A    between atoms: C_8  and  C_42
    8  A    between atoms: C_10  and  C_47
    9  A    between atoms: C_12  and  C_42
   10  A    between atoms: C_14  and  C_19
   11  A    between atoms: C_16  and  C_45
   12  A    between atoms: C_17  and  C_18
   13  A    between atoms: C_17  and  C_53
   14  A    between atoms: C_18  and  C_55
   15  A    between atoms: C_19  and  C_38
   16  A    between atoms: C_19  and  O_52
   17  A    between atoms: N_22  and  C_33
   18  A    between atoms: C_33  and  O_52
   19  A    between atoms: O_36  and  P_40
   20  A    between atoms: N_37  and  C_42
   21  A    between atoms: C_47  and  C_61
   22  A    between atoms: C_53  and  C_61
                            x       y       z     vdW  Elec       q    Type
                         _______ _______ _______ _____ _____    ______ ____

>  <TORSDO>
F 22

$$$$
=
 OpenBabel11042419413D

 61 65  0  0  1  0  0  0  0  0999 V2000
  189.5570  176.8550  144.6080 C   0  0  1  0  0  3  0  0  0  0  0  0
  187.3110  177.6420  144.6430 N   0  0  0  0  0  0  0  0  0  0  0  0
  188.5520  177.9120  144.4660 N   0  0  0  0  0  0  0  0  0  0  0  0
  186.2720  178.6110  144.4310 C   0  0  0  0  0  0  0  0  0  0  0  0
  185.4220  178.8460  145.3380 O   0  0  0  0  0  0  0  0  0  0  0  0
  186.1720  179.2950  143.2180 O   0  0  0  0  0  0  0  0  0  0  0  0
  186.0800  178.6750  141.9290 C   0  0  2  0  0  3  0  0  0  0  0  0
  184.9100  177.6900  141.8690 C   0  0  2  0  0  3  0  0  0  0  0  0
  183.9980  178.1370  140.8900 O   0  0  0  0  0  0  0  0  0  0  0  0
  183.6310  178.3410  142.2310 C   0  0  0  0  0  2  0  0  0  0  0  0
  187.0940  176.7630  140.6350 C   0  0  0  0  0  1  0  0  0  0  0  0
  187.3840  178.0170  141.4570 C   0  0  0  0  0  2  0  0  0  0  0  0
  188.8900  175.6700  145.3230 C   0  0  0  0  0  2  0  0  0  0  0  0
  189.3030  175.5660  146.7460 C   0  0  0  0  0  0  0  0  0  0  0  0
  188.9260  174.5930  147.4450 O   0  0  0  0  0  0  0  0  0  0  0  0
  190.1450  176.5780  147.3170 N   0  0  0  0  0  2  0  0  0  0  0  0
  191.4320  176.2700  147.9350 C   0  0  0  0  0  2  0  0  0  0  0  0
  194.5700  176.6440  145.9510 C   0  0  0  0  0  3  0  0  0  0  0  0
  192.4390  175.7900  146.9350 C   0  0  0  0  0  0  0  0  0  0  0  0
  192.5730  174.5170  146.7890 N   0  0  0  0  0  0  0  0  0  0  0  0
  193.0810  176.7840  145.9820 C   0  0  0  0  0  2  0  0  0  0  0  0
  193.3510  173.8130  145.7900 C   0  0  0  0  0  3  0  0  0  0  0  0
  194.4880  174.2490  145.2080 C   0  0  0  0  0  0  0  0  0  0  0  0
  195.1720  175.5050  145.5770 C   0  0  0  0  0  3  0  0  0  0  0  0
  195.9250  171.0460  143.5380 C   0  0  0  0  0  0  0  0  0  0  0  0
  195.1470  173.3400  144.2380 C   0  0  0  0  0  0  0  0  0  0  0  0
  195.9350  169.8020  143.6960 O   0  0  0  0  0  0  0  0  0  0  0  0
  196.0170  172.8900  141.9810 C   0  0  0  0  0  3  0  0  0  0  0  0
  196.2700  171.6110  142.2340 C   0  0  0  0  0  3  0  0  0  0  0  0
  195.3930  173.7550  142.9860 C   0  0  0  0  0  3  0  0  0  0  0  0
  195.5630  171.9490  144.6870 C   0  0  0  0  0  2  0  0  0  0  0  0
  190.0810  176.4630  143.2110 C   0  0  0  0  0  2  0  0  0  0  0  0
  189.4240  174.4240  142.0060 C   0  0  0  0  0  2  0  0  0  0  0  0
  192.1570  173.3760  142.1990 C   0  0  0  0  0  2  0  0  0  0  0  0
  190.3930  174.9830  143.0200 C   0  0  1  0  0  3  0  0  0  0  0  0
  191.0140  172.5010  141.8360 N   0  0  0  0  0  0  0  0  0  0  0  0
  189.5970  172.9160  141.9090 C   0  0  0  0  0  2  0  0  0  0  0  0
  190.4120  170.2560  142.0820 O   0  0  0  0  0  0  0  0  0  0  0  0
  191.2550  171.1020  141.6550 C   0  0  0  0  0  0  0  0  0  0  0  0
  191.7840  174.8340  142.4400 C   0  0  0  0  0  2  0  0  0  0  0  0
  192.5280  170.6010  141.0550 C   0  0  0  0  0  2  0  0  0  0  0  0
  192.3280  170.0810  139.6390 C   0  0  0  0  0  2  0  0  0  0  0  0
  191.9390  171.2850  138.7790 C   0  0  0  0  0  2  0  0  0  0  0  0
  189.5820  171.0540  138.7100 O   0  0  0  0  0  1  0  0  0  0  0  0
  190.7130  171.1880  137.8920 C   0  0  1  0  0  3  0  0  0  0  0  0
  190.4390  172.2370  136.7870 C   0  0  1  0  0  3  0  0  0  0  0  0
  189.3770  171.8870  135.9480 O   0  0  0  0  0  1  0  0  0  0  0  0
  190.3040  173.6720  137.3220 C   0  0  1  0  0  3  0  0  0  0  0  0
  191.5710  175.2180  136.0130 C   0  0  2  0  0  3  0  0  0  0  0  0
  191.5070  174.4320  137.2160 O   0  0  0  0  0  0  0  0  0  0  0  0
  189.1460  174.3690  136.6820 C   0  0  0  0  0  0  0  0  0  0  0  0
  189.4300  175.0560  135.3900 C   0  0  0  0  0  2  0  0  0  0  0  0
  188.1040  174.5210  137.2870 O   0  0  0  0  0  0  0  0  0  0  0  0
  190.7420  174.7460  134.9830 O   0  0  0  0  0  0  0  0  0  0  0  0
  193.3170  175.3190  135.5200 P   0  0  2  0  0  0  0  0  0  0  0  0
  194.2400  175.6510  136.8950 O   0  0  0  0  0  1  0  0  0  0  0  0
  193.5290  176.4430  134.5210 O   0  0  0  0  0  0  0  0  0  0  0  0
  193.8530  173.7960  134.9590 O   0  0  0  0  0  0  0  0  0  0  0  0
  195.8400  172.7800  136.5790 O   0  0  0  0  0  0  0  0  0  0  0  0
  195.4710  173.7090  135.4420 P   0  0  0  0  0  0  0  0  0  0  0  0
  196.5410  174.6300  134.8780 O   0  0  0  0  0  0  0  0  0  0  0  0
  1 32  1  6  0  0  0
  1 13  1  0  0  0  0
  3  1  1  0  0  0  0
  3  2  2  0  0  0  0
  4  2  1  0  0  0  0
  4  5  2  0  0  0  0
  6  4  1  0  0  0  0
  7 12  1  1  0  0  0
  7  6  1  0  0  0  0
  8  7  1  6  0  0  0
  8 10  1  0  0  0  0
  9  8  1  0  0  0  0
  9 10  1  0  0  0  0
 11 12  1  0  0  0  0
 13 14  1  0  0  0  0
 14 16  1  0  0  0  0
 14 15  2  0  0  0  0
 16 17  1  0  0  0  0
 18 21  1  0  0  0  0
 19 17  1  0  0  0  0
 20 19  2  0  0  0  0
 21 19  1  0  0  0  0
 22 20  1  0  0  0  0
 23 24  1  0  0  0  0
 23 22  2  0  0  0  0
 24 18  2  0  0  0  0
 25 27  2  0  0  0  0
 25 31  1  0  0  0  0
 26 31  1  0  0  0  0
 26 23  1  0  0  0  0
 28 29  2  0  0  0  0
 28 30  1  0  0  0  0
 29 25  1  0  0  0  0
 30 26  2  0  0  0  0
 33 35  1  0  0  0  0
 34 40  1  0  0  0  0
 35 32  1  6  0  0  0
 36 37  1  0  0  0  0
 36 34  1  0  0  0  0
 37 33  1  0  0  0  0
 39 36  1  0  0  0  0
 39 38  2  0  0  0  0
 40 35  1  0  0  0  0
 41 39  1  0  0  0  0
 42 41  1  0  0  0  0
 43 42  1  0  0  0  0
 45 44  1  1  0  0  0
 45 43  1  0  0  0  0
 46 47  1  1  0  0  0
 46 45  1  0  0  0  0
 48 46  1  6  0  0  0
 49 55  1  6  0  0  0
 49 50  1  0  0  0  0
 50 48  1  0  0  0  0
 51 53  2  0  0  0  0
 51 48  1  0  0  0  0
 52 51  1  0  0  0  0
 54 52  1  0  0  0  0
 54 49  1  0  0  0  0
 55 57  2  6  0  0  0
 55 56  1  0  0  0  0
 58 60  1  0  0  0  0
 58 55  1  0  0  0  0
 60 59  2  0  0  0  0
 61 60  2  0  0  0  0
M  END
>  <MODEL>
2

>  <REMARK>
 VINA RESULT:      -5.8      1.790      3.505
  Name = 
  22 active torsions:
  status: ('A' for Active; 'I' for Inactive)
    1  A    between atoms: C_1  and  C_6
    2  A    between atoms: C_1  and  N_32
    3  A    between atoms: C_3  and  C_12
    4  A    between atoms: P_5  and  C_11
    5  A    between atoms: P_5  and  O_36
    6  A    between atoms: C_8  and  C_23
    7  A    between atoms: C_8  and  C_42
    8  A    between atoms: C_10  and  C_47
    9  A    between atoms: C_12  and  C_42
   10  A    between atoms: C_14  and  C_19
   11  A    between atoms: C_16  and  C_45
   12  A    between atoms: C_17  and  C_18
   13  A    between atoms: C_17  and  C_53
   14  A    between atoms: C_18  and  C_55
   15  A    between atoms: C_19  and  C_38
   16  A    between atoms: C_19  and  O_52
   17  A    between atoms: N_22  and  C_33
   18  A    between atoms: C_33  and  O_52
   19  A    between atoms: O_36  and  P_40
   20  A    between atoms: N_37  and  C_42
   21  A    between atoms: C_47  and  C_61
   22  A    between atoms: C_53  and  C_61
                            x       y       z     vdW  Elec       q    Type
                         _______ _______ _______ _____ _____    ______ ____

>  <TORSDO>
F 22

$$$$
=
 OpenBabel11042419413D

 61 65  0  0  1  0  0  0  0  0999 V2000
  190.6710  172.7320  138.9270 C   0  0  1  0  0  3  0  0  0  0  0  0
  191.8380  173.1090  136.8880 N   0  0  0  0  0  0  0  0  0  0  0  0
  190.7240  172.8500  137.4680 N   0  0  0  0  0  0  0  0  0  0  0  0
  191.9400  173.3250  135.4710 C   0  0  0  0  0  0  0  0  0  0  0  0
  190.8990  173.3750  134.7550 O   0  0  0  0  0  0  0  0  0  0  0  0
  193.1880  173.4640  134.8600 O   0  0  0  0  0  0  0  0  0  0  0  0
  194.3760  173.9330  135.5120 C   0  0  2  0  0  3  0  0  0  0  0  0
  194.8690  175.2420  134.8910 C   0  0  2  0  0  3  0  0  0  0  0  0
  195.3600  176.0700  135.9220 O   0  0  0  0  0  0  0  0  0  0  0  0
  194.1010  176.4050  135.3910 C   0  0  0  0  0  2  0  0  0  0  0  0
  196.6370  173.2550  134.6230 C   0  0  0  0  0  1  0  0  0  0  0  0
  195.5030  172.8930  135.5810 C   0  0  0  0  0  2  0  0  0  0  0  0
  189.8100  171.5060  139.2660 C   0  0  0  0  0  2  0  0  0  0  0  0
  190.5180  170.2280  138.9970 C   0  0  0  0  0  0  0  0  0  0  0  0
  190.8730  169.9360  137.8280 O   0  0  0  0  0  0  0  0  0  0  0  0
  190.8050  169.3340  140.0810 N   0  0  0  0  0  2  0  0  0  0  0  0
  192.1610  168.8890  140.3940 C   0  0  0  0  0  2  0  0  0  0  0  0
  192.4090  170.1720  143.8890 C   0  0  0  0  0  3  0  0  0  0  0  0
  192.7970  169.7260  141.4610 C   0  0  0  0  0  0  0  0  0  0  0  0
  194.0510  169.9920  141.3410 N   0  0  0  0  0  0  0  0  0  0  0  0
  191.9210  170.4140  142.4950 C   0  0  0  0  0  2  0  0  0  0  0  0
  194.8500  170.8970  142.1430 C   0  0  0  0  0  3  0  0  0  0  0  0
  194.6580  171.1940  143.4460 C   0  0  0  0  0  0  0  0  0  0  0  0
  193.6300  170.5550  144.2930 C   0  0  0  0  0  3  0  0  0  0  0  0
  197.0450  174.2040  144.0420 C   0  0  0  0  0  0  0  0  0  0  0  0
  195.6290  172.1180  144.0820 C   0  0  0  0  0  0  0  0  0  0  0  0
  197.3600  175.2990  143.5190 O   0  0  0  0  0  0  0  0  0  0  0  0
  196.8200  172.9240  146.0780 C   0  0  0  0  0  3  0  0  0  0  0  0
  197.3670  173.9560  145.4480 C   0  0  0  0  0  3  0  0  0  0  0  0
  195.8900  172.0200  145.3940 C   0  0  0  0  0  3  0  0  0  0  0  0
  196.3410  173.1520  143.2270 C   0  0  0  0  0  2  0  0  0  0  0  0
  192.1070  172.5970  139.4780 C   0  0  0  0  0  2  0  0  0  0  0  0
  193.3750  174.5080  140.3610 C   0  0  0  0  0  2  0  0  0  0  0  0
  191.3640  174.9330  142.4530 C   0  0  0  0  0  2  0  0  0  0  0  0
  192.4070  173.4110  140.7310 C   0  0  1  0  0  3  0  0  0  0  0  0
  192.7060  175.5640  142.5270 N   0  0  0  0  0  0  0  0  0  0  0  0
  193.8240  175.2410  141.6160 C   0  0  0  0  0  2  0  0  0  0  0  0
  194.2010  176.2510  144.1860 O   0  0  0  0  0  0  0  0  0  0  0  0
  193.0370  176.3310  143.6890 C   0  0  0  0  0  0  0  0  0  0  0  0
  191.1350  174.0790  141.2110 C   0  0  0  0  0  2  0  0  0  0  0  0
  192.0130  177.1590  144.3950 C   0  0  0  0  0  2  0  0  0  0  0  0
  191.4940  176.4760  145.6520 C   0  0  0  0  0  2  0  0  0  0  0  0
  190.0570  176.9600  145.8530 C   0  0  0  0  0  2  0  0  0  0  0  0
  189.4600  175.1490  147.2600 O   0  0  0  0  0  1  0  0  0  0  0  0
  188.9850  175.9480  146.2100 C   0  0  1  0  0  3  0  0  0  0  0  0
  187.5320  176.3910  146.5060 C   0  0  1  0  0  3  0  0  0  0  0  0
  187.0540  175.9280  147.7350 O   0  0  0  0  0  1  0  0  0  0  0  0
  187.3010  177.9010  146.3290 C   0  0  1  0  0  3  0  0  0  0  0  0
  185.5830  178.3430  144.7290 C   0  0  2  0  0  3  0  0  0  0  0  0
  186.9970  178.2740  144.9850 O   0  0  0  0  0  0  0  0  0  0  0  0
  186.2710  178.3960  147.2920 C   0  0  0  0  0  0  0  0  0  0  0  0
  184.8530  178.2970  146.8420 C   0  0  0  0  0  2  0  0  0  0  0  0
  186.5990  179.0140  148.2850 O   0  0  0  0  0  0  0  0  0  0  0  0
  184.8060  177.5900  145.6250 O   0  0  0  0  0  0  0  0  0  0  0  0
  185.3190  177.8640  142.9960 P   0  0  2  0  0  0  0  0  0  0  0  0
  186.1690  178.9410  142.0110 O   0  0  0  0  0  0  0  0  0  0  0  0
  183.8460  177.9490  142.6330 O   0  0  0  0  0  1  0  0  0  0  0  0
  186.0070  176.3280  142.7050 O   0  0  0  0  0  0  0  0  0  0  0  0
  187.3430  176.3760  140.2920 O   0  0  0  0  0  0  0  0  0  0  0  0
  187.3870  176.6460  141.7810 P   0  0  0  0  0  0  0  0  0  0  0  0
  188.7110  177.0540  142.4070 O   0  0  0  0  0  0  0  0  0  0  0  0
  1 13  1  6  0  0  0
  1 32  1  0  0  0  0
  2  3  2  0  0  0  0
  3  1  1  0  0  0  0
  4  2  1  0  0  0  0
  5  4  2  0  0  0  0
  6  4  1  0  0  0  0
  6  7  1  0  0  0  0
  7 12  1  6  0  0  0
  8 10  1  0  0  0  0
  8  7  1  1  0  0  0
  8  9  1  0  0  0  0
 10  9  1  0  0  0  0
 11 12  1  0  0  0  0
 14 13  1  0  0  0  0
 14 16  1  0  0  0  0
 15 14  2  0  0  0  0
 16 17  1  0  0  0  0
 17 19  1  0  0  0  0
 18 24  2  0  0  0  0
 19 21  1  0  0  0  0
 20 19  2  0  0  0  0
 20 22  1  0  0  0  0
 21 18  1  0  0  0  0
 22 23  2  0  0  0  0
 23 26  1  0  0  0  0
 23 24  1  0  0  0  0
 25 29  1  0  0  0  0
 26 30  2  0  0  0  0
 27 25  2  0  0  0  0
 29 28  2  0  0  0  0
 30 28  1  0  0  0  0
 31 25  1  0  0  0  0
 31 26  1  0  0  0  0
 33 35  1  0  0  0  0
 33 37  1  0  0  0  0
 34 36  1  0  0  0  0
 35 32  1  6  0  0  0
 35 40  1  0  0  0  0
 36 39  1  0  0  0  0
 37 36  1  0  0  0  0
 39 38  2  0  0  0  0
 39 41  1  0  0  0  0
 40 34  1  0  0  0  0
 41 42  1  0  0  0  0
 42 43  1  0  0  0  0
 43 45  1  0  0  0  0
 45 46  1  0  0  0  0
 45 44  1  1  0  0  0
 46 47  1  1  0  0  0
 48 46  1  6  0  0  0
 48 51  1  0  0  0  0
 49 55  1  6  0  0  0
 49 50  1  0  0  0  0
 49 54  1  0  0  0  0
 50 48  1  0  0  0  0
 51 53  2  0  0  0  0
 52 51  1  0  0  0  0
 54 52  1  0  0  0  0
 55 56  2  6  0  0  0
 57 55  1  0  0  0  0
 58 55  1  0  0  0  0
 59 60  2  0  0  0  0
 60 61  2  0  0  0  0
 60 58  1  0  0  0  0
M  END
>  <MODEL>
3

>  <REMARK>
 VINA RESULT:      -5.6      2.803      9.249
  Name = 
  22 active torsions:
  status: ('A' for Active; 'I' for Inactive)
    1  A    between atoms: C_1  and  C_6
    2  A    between atoms: C_1  and  N_32
    3  A    between atoms: C_3  and  C_12
    4  A    between atoms: P_5  and  C_11
    5  A    between atoms: P_5  and  O_36
    6  A    between atoms: C_8  and  C_23
    7  A    between atoms: C_8  and  C_42
    8  A    between atoms: C_10  and  C_47
    9  A    between atoms: C_12  and  C_42
   10  A    between atoms: C_14  and  C_19
   11  A    between atoms: C_16  and  C_45
   12  A    between atoms: C_17  and  C_18
   13  A    between atoms: C_17  and  C_53
   14  A    between atoms: C_18  and  C_55
   15  A    between atoms: C_19  and  C_38
   16  A    between atoms: C_19  and  O_52
   17  A    between atoms: N_22  and  C_33
   18  A    between atoms: C_33  and  O_52
   19  A    between atoms: O_36  and  P_40
   20  A    between atoms: N_37  and  C_42
   21  A    between atoms: C_47  and  C_61
   22  A    between atoms: C_53  and  C_61
                            x       y       z     vdW  Elec       q    Type
                         _______ _______ _______ _____ _____    ______ ____

>  <TORSDO>
F 22

$$$$
=
 OpenBabel11042419413D

 61 65  0  0  1  0  0  0  0  0999 V2000
  188.5610  177.0450  143.5920 C   0  0  1  0  0  3  0  0  0  0  0  0
  186.4420  178.1180  143.7320 N   0  0  0  0  0  0  0  0  0  0  0  0
  187.6580  178.0630  144.1340 N   0  0  0  0  0  0  0  0  0  0  0  0
  185.5320  179.1460  144.1580 C   0  0  0  0  0  0  0  0  0  0  0  0
  184.6290  179.5640  143.3780 O   0  0  0  0  0  0  0  0  0  0  0  0
  185.6420  179.7110  145.4300 O   0  0  0  0  0  0  0  0  0  0  0  0
  185.3260  179.0420  146.6580 C   0  0  2  0  0  3  0  0  0  0  0  0
  186.5930  178.5460  147.3610 C   0  0  2  0  0  3  0  0  0  0  0  0
  186.2530  178.1570  148.6730 O   0  0  0  0  0  0  0  0  0  0  0  0
  186.9260  179.3840  148.5350 C   0  0  0  0  0  2  0  0  0  0  0  0
  184.9910  176.5580  146.3750 C   0  0  0  0  0  1  0  0  0  0  0  0
  184.2970  177.9120  146.5080 C   0  0  0  0  0  2  0  0  0  0  0  0
  189.7000  176.8440  144.6020 C   0  0  0  0  0  2  0  0  0  0  0  0
  190.9770  177.4430  144.1380 C   0  0  0  0  0  0  0  0  0  0  0  0
  191.0480  178.6740  143.8960 O   0  0  0  0  0  0  0  0  0  0  0  0
  192.1350  176.6110  143.9780 N   0  0  0  0  0  2  0  0  0  0  0  0
  193.3930  176.8750  144.6720 C   0  0  0  0  0  2  0  0  0  0  0  0
  196.7970  175.5020  144.0000 C   0  0  0  0  0  3  0  0  0  0  0  0
  194.3660  175.7460  144.5250 C   0  0  0  0  0  0  0  0  0  0  0  0
  194.1290  174.6650  145.1840 N   0  0  0  0  0  0  0  0  0  0  0  0
  195.4410  175.8180  143.4530 C   0  0  0  0  0  2  0  0  0  0  0  0
  194.8210  173.3950  145.0900 C   0  0  0  0  0  3  0  0  0  0  0  0
  196.1220  173.2130  144.7780 C   0  0  0  0  0  0  0  0  0  0  0  0
  197.0790  174.3180  144.5650 C   0  0  0  0  0  3  0  0  0  0  0  0
  197.0190  169.6130  145.9390 C   0  0  0  0  0  0  0  0  0  0  0  0
  196.6340  171.8210  144.7830 C   0  0  0  0  0  0  0  0  0  0  0  0
  196.8100  168.8330  146.8980 O   0  0  0  0  0  0  0  0  0  0  0  0
  197.4600  169.8430  143.5750 C   0  0  0  0  0  3  0  0  0  0  0  0
  197.4830  169.0770  144.6590 C   0  0  0  0  0  3  0  0  0  0  0  0
  196.9740  171.2250  143.6300 C   0  0  0  0  0  3  0  0  0  0  0  0
  196.7940  171.0920  146.1060 C   0  0  0  0  0  2  0  0  0  0  0  0
  187.7700  175.7430  143.3490 C   0  0  0  0  0  2  0  0  0  0  0  0
  187.7780  176.5790  141.0380 C   0  0  0  0  0  2  0  0  0  0  0  0
  188.5860  173.9420  140.0410 C   0  0  0  0  0  2  0  0  0  0  0  0
  187.5940  175.3450  141.8880 C   0  0  1  0  0  3  0  0  0  0  0  0
  188.0530  174.9860  139.1300 N   0  0  0  0  0  0  0  0  0  0  0  0
  187.4510  176.2550  139.5880 C   0  0  0  0  0  2  0  0  0  0  0  0
  186.8360  175.0800  137.1370 O   0  0  0  0  0  0  0  0  0  0  0  0
  187.8620  174.6570  137.7500 C   0  0  0  0  0  0  0  0  0  0  0  0
  188.6840  174.3680  141.5010 C   0  0  0  0  0  2  0  0  0  0  0  0
  188.7980  173.7420  137.0300 C   0  0  0  0  0  2  0  0  0  0  0  0
  190.0660  174.4550  136.5850 C   0  0  0  0  0  2  0  0  0  0  0  0
  191.1810  173.4080  136.5770 C   0  0  0  0  0  2  0  0  0  0  0  0
  191.3470  171.4160  137.8480 O   0  0  0  0  0  1  0  0  0  0  0  0
  191.6170  172.7910  137.8910 C   0  0  1  0  0  3  0  0  0  0  0  0
  193.0380  173.0270  138.4560 C   0  0  1  0  0  3  0  0  0  0  0  0
  193.9360  173.5140  137.5020 O   0  0  0  0  0  1  0  0  0  0  0  0
  193.0560  173.8650  139.7450 C   0  0  1  0  0  3  0  0  0  0  0  0
  193.0620  172.4790  141.6920 C   0  0  2  0  0  3  0  0  0  0  0  0
  192.2820  173.2960  140.8010 O   0  0  0  0  0  0  0  0  0  0  0  0
  194.4590  174.1500  140.1730 C   0  0  0  0  0  0  0  0  0  0  0  0
  195.1020  173.1170  141.0350 C   0  0  0  0  0  2  0  0  0  0  0  0
  194.9540  175.2430  139.9850 O   0  0  0  0  0  0  0  0  0  0  0  0
  194.2530  171.9980  141.1230 O   0  0  0  0  0  0  0  0  0  0  0  0
  191.9840  171.1470  142.2960 P   0  0  2  0  0  0  0  0  0  0  0  0
  192.6990  169.6670  141.9090 O   0  0  0  0  0  1  0  0  0  0  0  0
  190.6240  171.2100  141.6220 O   0  0  0  0  0  0  0  0  0  0  0  0
  191.9030  171.1920  144.0020 O   0  0  0  0  0  0  0  0  0  0  0  0
  190.8300  173.7310  143.8880 O   0  0  0  0  0  0  0  0  0  0  0  0
  190.6680  172.2960  144.3410 P   0  0  0  0  0  0  0  0  0  0  0  0
  189.4700  171.9380  145.2080 O   0  0  0  0  0  0  0  0  0  0  0  0
  1 32  1  1  0  0  0
  1  3  1  0  0  0  0
  1 13  1  0  0  0  0
  2  3  2  0  0  0  0
  2  4  1  0  0  0  0
  4  6  1  0  0  0  0
  5  4  2  0  0  0  0
  6  7  1  0  0  0  0
  7 12  1  6  0  0  0
  8  7  1  6  0  0  0
  8 10  1  0  0  0  0
  8  9  1  0  0  0  0
 10  9  1  0  0  0  0
 11 12  1  0  0  0  0
 14 13  1  0  0  0  0
 15 14  2  0  0  0  0
 16 14  1  0  0  0  0
 16 17  1  0  0  0  0
 18 24  2  0  0  0  0
 19 17  1  0  0  0  0
 19 20  2  0  0  0  0
 21 18  1  0  0  0  0
 21 19  1  0  0  0  0
 22 20  1  0  0  0  0
 23 26  1  0  0  0  0
 23 22  2  0  0  0  0
 24 23  1  0  0  0  0
 25 31  1  0  0  0  0
 25 27  2  0  0  0  0
 26 31  1  0  0  0  0
 28 30  1  0  0  0  0
 28 29  2  0  0  0  0
 29 25  1  0  0  0  0
 30 26  2  0  0  0  0
 33 35  1  0  0  0  0
 34 40  1  0  0  0  0
 35 32  1  1  0  0  0
 36 37  1  0  0  0  0
 36 34  1  0  0  0  0
 37 33  1  0  0  0  0
 38 39  2  0  0  0  0
 39 36  1  0  0  0  0
 40 35  1  0  0  0  0
 41 39  1  0  0  0  0
 42 41  1  0  0  0  0
 43 42  1  0  0  0  0
 43 45  1  0  0  0  0
 45 44  1  6  0  0  0
 45 46  1  0  0  0  0
 46 47  1  6  0  0  0
 48 46  1  6  0  0  0
 48 51  1  0  0  0  0
 48 50  1  0  0  0  0
 49 55  1  6  0  0  0
 50 49  1  0  0  0  0
 51 52  1  0  0  0  0
 52 54  1  0  0  0  0
 53 51  2  0  0  0  0
 54 49  1  0  0  0  0
 55 57  2  6  0  0  0
 55 58  1  0  0  0  0
 56 55  1  0  0  0  0
 58 60  1  0  0  0  0
 59 60  2  0  0  0  0
 60 61  2  0  0  0  0
M  END
>  <MODEL>
4

>  <REMARK>
 VINA RESULT:      -5.4      2.614      4.310
  Name = 
  22 active torsions:
  status: ('A' for Active; 'I' for Inactive)
    1  A    between atoms: C_1  and  C_6
    2  A    between atoms: C_1  and  N_32
    3  A    between atoms: C_3  and  C_12
    4  A    between atoms: P_5  and  C_11
    5  A    between atoms: P_5  and  O_36
    6  A    between atoms: C_8  and  C_23
    7  A    between atoms: C_8  and  C_42
    8  A    between atoms: C_10  and  C_47
    9  A    between atoms: C_12  and  C_42
   10  A    between atoms: C_14  and  C_19
   11  A    between atoms: C_16  and  C_45
   12  A    between atoms: C_17  and  C_18
   13  A    between atoms: C_17  and  C_53
   14  A    between atoms: C_18  and  C_55
   15  A    between atoms: C_19  and  C_38
   16  A    between atoms: C_19  and  O_52
   17  A    between atoms: N_22  and  C_33
   18  A    between atoms: C_33  and  O_52
   19  A    between atoms: O_36  and  P_40
   20  A    between atoms: N_37  and  C_42
   21  A    between atoms: C_47  and  C_61
   22  A    between atoms: C_53  and  C_61
                            x       y       z     vdW  Elec       q    Type
                         _______ _______ _______ _____ _____    ______ ____

>  <TORSDO>
F 22

$$$$
=
 OpenBabel11042419413D

 61 65  0  0  1  0  0  0  0  0999 V2000
  187.9940  176.8910  143.8340 C   0  0  1  0  0  3  0  0  0  0  0  0
  186.0720  178.2890  143.9400 N   0  0  0  0  0  0  0  0  0  0  0  0
  186.5900  177.1390  144.1720 N   0  0  0  0  0  0  0  0  0  0  0  0
  184.7290  178.6230  144.3280 C   0  0  0  0  0  0  0  0  0  0  0  0
  184.5180  179.3250  145.3590 O   0  0  0  0  0  0  0  0  0  0  0  0
  183.6390  178.1660  143.5860 O   0  0  0  0  0  0  0  0  0  0  0  0
  183.2670  178.6450  142.2880 C   0  0  2  0  0  3  0  0  0  0  0  0
  181.7460  178.6730  142.1200 C   0  0  2  0  0  3  0  0  0  0  0  0
  181.4090  177.9410  140.9630 O   0  0  0  0  0  0  0  0  0  0  0  0
  181.3490  179.3420  140.8610 C   0  0  0  0  0  2  0  0  0  0  0  0
  185.1560  178.6620  140.6160 C   0  0  0  0  0  1  0  0  0  0  0  0
  183.9380  177.8950  141.1280 C   0  0  0  0  0  2  0  0  0  0  0  0
  188.8600  177.7070  144.8050 C   0  0  0  0  0  2  0  0  0  0  0  0
  190.2770  177.2630  144.8060 C   0  0  0  0  0  0  0  0  0  0  0  0
  190.6910  176.4650  145.6840 O   0  0  0  0  0  0  0  0  0  0  0  0
  191.1710  177.7420  143.7910 N   0  0  0  0  0  2  0  0  0  0  0  0
  191.9080  176.8430  142.9070 C   0  0  0  0  0  2  0  0  0  0  0  0
  194.2400  176.0920  145.7210 C   0  0  0  0  0  3  0  0  0  0  0  0
  192.8320  175.9380  143.6630 C   0  0  0  0  0  0  0  0  0  0  0  0
  192.6230  174.6700  143.5810 N   0  0  0  0  0  0  0  0  0  0  0  0
  194.0910  176.5100  144.2920 C   0  0  0  0  0  2  0  0  0  0  0  0
  193.4570  173.5960  144.0810 C   0  0  0  0  0  3  0  0  0  0  0  0
  194.2580  173.6440  145.1670 C   0  0  0  0  0  0  0  0  0  0  0  0
  194.3370  174.8030  146.0810 C   0  0  0  0  0  3  0  0  0  0  0  0
  195.1850  169.8930  145.5960 C   0  0  0  0  0  0  0  0  0  0  0  0
  194.9940  172.4060  145.5240 C   0  0  0  0  0  0  0  0  0  0  0  0
  194.7830  168.7580  145.2460 O   0  0  0  0  0  0  0  0  0  0  0  0
  197.0690  171.2750  146.2050 C   0  0  0  0  0  3  0  0  0  0  0  0
  196.5560  170.0570  146.0790 C   0  0  0  0  0  3  0  0  0  0  0  0
  196.2890  172.4690  145.8690 C   0  0  0  0  0  3  0  0  0  0  0  0
  194.2580  171.0770  145.5230 C   0  0  0  0  0  2  0  0  0  0  0  0
  188.2810  175.3780  143.9400 C   0  0  0  0  0  2  0  0  0  0  0  0
  188.7930  173.2370  142.8470 C   0  0  0  0  0  2  0  0  0  0  0  0
  188.5590  174.4810  140.2010 C   0  0  0  0  0  2  0  0  0  0  0  0
  188.8750  174.7360  142.6910 C   0  0  1  0  0  3  0  0  0  0  0  0
  189.1990  173.1540  140.3800 N   0  0  0  0  0  0  0  0  0  0  0  0
  189.5220  172.5610  141.6960 C   0  0  0  0  0  2  0  0  0  0  0  0
  190.8800  171.8950  139.3550 O   0  0  0  0  0  0  0  0  0  0  0  0
  189.7800  172.5150  139.2390 C   0  0  0  0  0  0  0  0  0  0  0  0
  188.0360  175.1090  141.4880 C   0  0  0  0  0  2  0  0  0  0  0  0
  189.1680  172.6380  137.8810 C   0  0  0  0  0  2  0  0  0  0  0  0
  189.4690  171.4300  137.0060 C   0  0  0  0  0  2  0  0  0  0  0  0
  190.3540  171.9250  135.8610 C   0  0  0  0  0  2  0  0  0  0  0  0
  192.1780  170.6770  135.0070 O   0  0  0  0  0  1  0  0  0  0  0  0
  191.8480  171.6790  135.9300 C   0  0  1  0  0  3  0  0  0  0  0  0
  192.8580  172.8470  135.8180 C   0  0  1  0  0  3  0  0  0  0  0  0
  192.9680  173.3580  134.5220 O   0  0  0  0  0  1  0  0  0  0  0  0
  192.6330  173.9560  136.8590 C   0  0  1  0  0  3  0  0  0  0  0  0
  194.5310  174.2170  138.2880 C   0  0  2  0  0  3  0  0  0  0  0  0
  193.2110  173.6660  138.1310 O   0  0  0  0  0  0  0  0  0  0  0  0
  193.0860  175.2790  136.3300 C   0  0  0  0  0  0  0  0  0  0  0  0
  194.5250  175.6080  136.5370 C   0  0  0  0  0  2  0  0  0  0  0  0
  192.2790  176.0980  135.9370 O   0  0  0  0  0  0  0  0  0  0  0  0
  195.1820  174.4830  137.0720 O   0  0  0  0  0  0  0  0  0  0  0  0
  195.4710  173.0860  139.3550 P   0  0  2  0  0  0  0  0  0  0  0  0
  196.9950  172.8490  138.6670 O   0  0  0  0  0  0  0  0  0  0  0  0
  194.7780  171.7380  139.4520 O   0  0  0  0  0  1  0  0  0  0  0  0
  195.7550  173.8180  140.8720 O   0  0  0  0  0  0  0  0  0  0  0  0
  197.2800  175.8880  139.8710 O   0  0  0  0  0  0  0  0  0  0  0  0
  195.9810  175.4570  140.5190 P   0  0  0  0  0  0  0  0  0  0  0  0
  194.9960  176.5290  140.9570 O   0  0  0  0  0  0  0  0  0  0  0  0
  1 32  1  1  0  0  0
  1  3  1  0  0  0  0
  1 13  1  0  0  0  0
  2  3  2  0  0  0  0
  2  4  1  0  0  0  0
  4  5  2  0  0  0  0
  6  4  1  0  0  0  0
  7 12  1  6  0  0  0
  7  6  1  0  0  0  0
  8  7  1  6  0  0  0
  9  8  1  0  0  0  0
 10  9  1  0  0  0  0
 10  8  1  0  0  0  0
 11 12  1  0  0  0  0
 13 14  1  0  0  0  0
 14 15  2  0  0  0  0
 16 14  1  0  0  0  0
 17 19  1  0  0  0  0
 17 16  1  0  0  0  0
 18 24  2  0  0  0  0
 19 21  1  0  0  0  0
 20 19  2  0  0  0  0
 20 22  1  0  0  0  0
 21 18  1  0  0  0  0
 22 23  2  0  0  0  0
 23 26  1  0  0  0  0
 23 24  1  0  0  0  0
 25 29  1  0  0  0  0
 26 30  2  0  0  0  0
 27 25  2  0  0  0  0
 29 28  2  0  0  0  0
 30 28  1  0  0  0  0
 31 26  1  0  0  0  0
 31 25  1  0  0  0  0
 34 36  1  0  0  0  0
 34 40  1  0  0  0  0
 35 33  1  0  0  0  0
 35 32  1  1  0  0  0
 36 37  1  0  0  0  0
 37 33  1  0  0  0  0
 39 38  2  0  0  0  0
 39 36  1  0  0  0  0
 40 35  1  0  0  0  0
 41 39  1  0  0  0  0
 42 41  1  0  0  0  0
 43 45  1  0  0  0  0
 43 42  1  0  0  0  0
 45 44  1  6  0  0  0
 46 47  1  6  0  0  0
 46 45  1  0  0  0  0
 48 46  1  6  0  0  0
 48 50  1  0  0  0  0
 49 55  1  1  0  0  0
 50 49  1  0  0  0  0
 51 52  1  0  0  0  0
 51 48  1  0  0  0  0
 52 54  1  0  0  0  0
 53 51  2  0  0  0  0
 54 49  1  0  0  0  0
 55 56  2  6  0  0  0
 55 57  1  0  0  0  0
 55 58  1  0  0  0  0
 59 60  2  0  0  0  0
 60 58  1  0  0  0  0
 60 61  2  0  0  0  0
M  END
>  <MODEL>
5

>  <REMARK>
 VINA RESULT:      -5.0      2.414      4.009
  Name = 
  22 active torsions:
  status: ('A' for Active; 'I' for Inactive)
    1  A    between atoms: C_1  and  C_6
    2  A    between atoms: C_1  and  N_32
    3  A    between atoms: C_3  and  C_12
    4  A    between atoms: P_5  and  C_11
    5  A    between atoms: P_5  and  O_36
    6  A    between atoms: C_8  and  C_23
    7  A    between atoms: C_8  and  C_42
    8  A    between atoms: C_10  and  C_47
    9  A    between atoms: C_12  and  C_42
   10  A    between atoms: C_14  and  C_19
   11  A    between atoms: C_16  and  C_45
   12  A    between atoms: C_17  and  C_18
   13  A    between atoms: C_17  and  C_53
   14  A    between atoms: C_18  and  C_55
   15  A    between atoms: C_19  and  C_38
   16  A    between atoms: C_19  and  O_52
   17  A    between atoms: N_22  and  C_33
   18  A    between atoms: C_33  and  O_52
   19  A    between atoms: O_36  and  P_40
   20  A    between atoms: N_37  and  C_42
   21  A    between atoms: C_47  and  C_61
   22  A    between atoms: C_53  and  C_61
                            x       y       z     vdW  Elec       q    Type
                         _______ _______ _______ _____ _____    ______ ____

>  <TORSDO>
F 22

$$$$
=
 OpenBabel11042419413D

 61 65  0  0  1  0  0  0  0  0999 V2000
  191.1110  176.8520  145.0440 C   0  0  1  0  0  3  0  0  0  0  0  0
  189.3900  177.3490  143.4790 N   0  0  0  0  0  0  0  0  0  0  0  0
  189.8710  177.5270  144.6540 N   0  0  0  0  0  0  0  0  0  0  0  0
  188.2280  178.0500  143.0050 C   0  0  0  0  0  0  0  0  0  0  0  0
  188.0740  178.2730  141.7700 O   0  0  0  0  0  0  0  0  0  0  0  0
  187.2600  178.5110  143.9010 O   0  0  0  0  0  0  0  0  0  0  0  0
  185.9970  177.8790  144.1450 C   0  0  2  0  0  3  0  0  0  0  0  0
  186.0420  177.0170  145.4090 C   0  0  2  0  0  3  0  0  0  0  0  0
  184.8680  177.2530  146.1540 O   0  0  0  0  0  0  0  0  0  0  0  0
  186.0470  177.8490  146.6340 C   0  0  0  0  0  2  0  0  0  0  0  0
  184.5840  177.9630  142.0580 C   0  0  0  0  0  1  0  0  0  0  0  0
  185.4550  177.0820  142.9500 C   0  0  0  0  0  2  0  0  0  0  0  0
  190.8250  176.0500  146.3210 C   0  0  0  0  0  2  0  0  0  0  0  0
  189.6500  175.1530  146.1720 C   0  0  0  0  0  0  0  0  0  0  0  0
  188.6200  175.3380  146.8690 O   0  0  0  0  0  0  0  0  0  0  0  0
  189.6910  174.0820  145.2200 N   0  0  0  0  0  2  0  0  0  0  0  0
  188.7040  173.9430  144.1510 C   0  0  0  0  0  2  0  0  0  0  0  0
  190.3320  171.3350  142.0360 C   0  0  0  0  0  3  0  0  0  0  0  0
  189.3200  173.4600  142.8740 C   0  0  0  0  0  0  0  0  0  0  0  0
  188.9330  174.0180  141.7790 N   0  0  0  0  0  0  0  0  0  0  0  0
  190.5160  172.5250  142.9250 C   0  0  0  0  0  2  0  0  0  0  0  0
  189.4820  173.8430  140.4490 C   0  0  0  0  0  3  0  0  0  0  0  0
  190.0670  172.7280  139.9650 C   0  0  0  0  0  0  0  0  0  0  0  0
  190.1580  171.4560  140.7110 C   0  0  0  0  0  3  0  0  0  0  0  0
  190.2580  172.0930  136.1340 C   0  0  0  0  0  0  0  0  0  0  0  0
  190.5210  172.7570  138.5520 C   0  0  0  0  0  0  0  0  0  0  0  0
  189.5770  171.5930  135.2080 O   0  0  0  0  0  0  0  0  0  0  0  0
  191.9080  173.7370  136.7730 C   0  0  0  0  0  3  0  0  0  0  0  0
  191.3540  173.0080  135.8120 C   0  0  0  0  0  3  0  0  0  0  0  0
  191.4440  173.6470  138.1600 C   0  0  0  0  0  3  0  0  0  0  0  0
  189.9500  171.7510  137.5670 C   0  0  0  0  0  2  0  0  0  0  0  0
  191.5800  175.9450  143.8870 C   0  0  0  0  0  2  0  0  0  0  0  0
  193.8870  176.5330  144.5020 C   0  0  0  0  0  2  0  0  0  0  0  0
  194.4430  173.7510  145.2470 C   0  0  0  0  0  2  0  0  0  0  0  0
  193.0040  175.4120  144.0080 C   0  0  1  0  0  3  0  0  0  0  0  0
  195.5370  174.7330  145.0410 N   0  0  0  0  0  0  0  0  0  0  0  0
  195.3400  176.0870  144.4810 C   0  0  0  0  0  2  0  0  0  0  0  0
  197.7610  174.7150  144.3230 O   0  0  0  0  0  0  0  0  0  0  0  0
  196.8910  174.2780  145.1350 C   0  0  0  0  0  0  0  0  0  0  0  0
  193.0420  174.3180  145.0530 C   0  0  0  0  0  2  0  0  0  0  0  0
  197.2930  173.2230  146.1140 C   0  0  0  0  0  2  0  0  0  0  0  0
  196.6080  171.8930  145.8340 C   0  0  0  0  0  2  0  0  0  0  0  0
  197.4990  171.1390  144.8460 C   0  0  0  0  0  2  0  0  0  0  0  0
  197.9370  170.1930  142.7180 O   0  0  0  0  0  1  0  0  0  0  0  0
  196.8990  170.6510  143.5410 C   0  0  1  0  0  3  0  0  0  0  0  0
  195.7320  169.6350  143.5260 C   0  0  1  0  0  3  0  0  0  0  0  0
  195.7830  168.7220  144.5820 O   0  0  0  0  0  1  0  0  0  0  0  0
  194.3480  170.2910  143.3970 C   0  0  1  0  0  3  0  0  0  0  0  0
  194.0880  171.3860  141.2890 C   0  0  2  0  0  3  0  0  0  0  0  0
  194.3720  171.5320  142.6920 O   0  0  0  0  0  0  0  0  0  0  0  0
  193.3600  169.3350  142.8100 C   0  0  0  0  0  0  0  0  0  0  0  0
  193.2940  169.2970  141.3200 C   0  0  0  0  0  2  0  0  0  0  0  0
  192.5400  168.7820  143.5140 O   0  0  0  0  0  0  0  0  0  0  0  0
  194.3280  170.0940  140.7940 O   0  0  0  0  0  0  0  0  0  0  0  0
  195.0330  172.6640  140.4070 P   0  0  2  0  0  0  0  0  0  0  0  0
  195.2710  172.1450  138.8180 O   0  0  0  0  0  0  0  0  0  0  0  0
  196.3930  172.8670  141.0510 O   0  0  0  0  0  1  0  0  0  0  0  0
  194.1090  174.0970  140.2930 O   0  0  0  0  0  0  0  0  0  0  0  0
  195.7870  175.3520  138.4990 O   0  0  0  0  0  0  0  0  0  0  0  0
  195.2340  175.2990  139.9080 P   0  0  0  0  0  0  0  0  0  0  0  0
  195.8180  176.2350  140.9540 O   0  0  0  0  0  0  0  0  0  0  0  0
  1 32  1  6  0  0  0
  1 13  1  0  0  0  0
  2  3  2  0  0  0  0
  3  1  1  0  0  0  0
  4  2  1  0  0  0  0
  4  6  1  0  0  0  0
  5  4  2  0  0  0  0
  6  7  1  0  0  0  0
  7 12  1  6  0  0  0
  8  7  1  6  0  0  0
  8  9  1  0  0  0  0
  8 10  1  0  0  0  0
  9 10  1  0  0  0  0
 11 12  1  0  0  0  0
 14 13  1  0  0  0  0
 14 15  2  0  0  0  0
 16 14  1  0  0  0  0
 17 16  1  0  0  0  0
 18 21  1  0  0  0  0
 19 21  1  0  0  0  0
 19 17  1  0  0  0  0
 20 19  2  0  0  0  0
 22 20  1  0  0  0  0
 23 22  2  0  0  0  0
 23 24  1  0  0  0  0
 24 18  2  0  0  0  0
 25 31  1  0  0  0  0
 26 23  1  0  0  0  0
 27 25  2  0  0  0  0
 28 30  1  0  0  0  0
 29 25  1  0  0  0  0
 29 28  2  0  0  0  0
 30 26  2  0  0  0  0
 31 26  1  0  0  0  0
 35 32  1  1  0  0  0
 35 33  1  0  0  0  0
 35 40  1  0  0  0  0
 36 39  1  0  0  0  0
 36 34  1  0  0  0  0
 37 33  1  0  0  0  0
 37 36  1  0  0  0  0
 38 39  2  0  0  0  0
 39 41  1  0  0  0  0
 40 34  1  0  0  0  0
 42 41  1  0  0  0  0
 43 42  1  0  0  0  0
 45 44  1  6  0  0  0
 45 43  1  0  0  0  0
 46 45  1  0  0  0  0
 46 47  1  1  0  0  0
 48 46  1  6  0  0  0
 49 55  1  6  0  0  0
 49 50  1  0  0  0  0
 50 48  1  0  0  0  0
 51 48  1  0  0  0  0
 51 53  2  0  0  0  0
 52 51  1  0  0  0  0
 54 49  1  0  0  0  0
 54 52  1  0  0  0  0
 55 56  2  6  0  0  0
 55 57  1  0  0  0  0
 58 55  1  0  0  0  0
 59 60  2  0  0  0  0
 60 58  1  0  0  0  0
 60 61  2  0  0  0  0
M  END
>  <MODEL>
6

>  <REMARK>
 VINA RESULT:      -5.0      2.320      6.021
  Name = 
  22 active torsions:
  status: ('A' for Active; 'I' for Inactive)
    1  A    between atoms: C_1  and  C_6
    2  A    between atoms: C_1  and  N_32
    3  A    between atoms: C_3  and  C_12
    4  A    between atoms: P_5  and  C_11
    5  A    between atoms: P_5  and  O_36
    6  A    between atoms: C_8  and  C_23
    7  A    between atoms: C_8  and  C_42
    8  A    between atoms: C_10  and  C_47
    9  A    between atoms: C_12  and  C_42
   10  A    between atoms: C_14  and  C_19
   11  A    between atoms: C_16  and  C_45
   12  A    between atoms: C_17  and  C_18
   13  A    between atoms: C_17  and  C_53
   14  A    between atoms: C_18  and  C_55
   15  A    between atoms: C_19  and  C_38
   16  A    between atoms: C_19  and  O_52
   17  A    between atoms: N_22  and  C_33
   18  A    between atoms: C_33  and  O_52
   19  A    between atoms: O_36  and  P_40
   20  A    between atoms: N_37  and  C_42
   21  A    between atoms: C_47  and  C_61
   22  A    between atoms: C_53  and  C_61
                            x       y       z     vdW  Elec       q    Type
                         _______ _______ _______ _____ _____    ______ ____

>  <TORSDO>
F 22

$$$$
=
 OpenBabel11042419413D

 61 65  0  0  1  0  0  0  0  0999 V2000
  190.6510  170.2820  140.0340 C   0  0  1  0  0  3  0  0  0  0  0  0
  191.6250  170.1550  137.8670 N   0  0  0  0  0  0  0  0  0  0  0  0
  191.1760  169.5290  138.8920 N   0  0  0  0  0  0  0  0  0  0  0  0
  192.0710  169.4760  136.6810 C   0  0  0  0  0  0  0  0  0  0  0  0
  191.2350  169.0840  135.8170 O   0  0  0  0  0  0  0  0  0  0  0  0
  193.4280  169.2250  136.4730 O   0  0  0  0  0  0  0  0  0  0  0  0
  194.4010  170.2110  136.1020 C   0  0  2  0  0  3  0  0  0  0  0  0
  194.9770  170.9120  137.3340 C   0  0  2  0  0  3  0  0  0  0  0  0
  196.3710  170.7010  137.3600 O   0  0  0  0  0  0  0  0  0  0  0  0
  195.6040  169.9480  138.2660 C   0  0  0  0  0  2  0  0  0  0  0  0
  193.4690  172.5270  135.7490 C   0  0  0  0  0  1  0  0  0  0  0  0
  193.8970  171.2290  135.0690 C   0  0  0  0  0  2  0  0  0  0  0  0
  190.8480  169.4220  141.2910 C   0  0  0  0  0  2  0  0  0  0  0  0
  192.1120  168.6420  141.2480 C   0  0  0  0  0  0  0  0  0  0  0  0
  192.6110  168.3050  140.1450 O   0  0  0  0  0  0  0  0  0  0  0  0
  192.7680  168.2860  142.4730 N   0  0  0  0  0  2  0  0  0  0  0  0
  194.1510  168.6600  142.7610 C   0  0  0  0  0  2  0  0  0  0  0  0
  195.1020  171.9930  141.3790 C   0  0  0  0  0  3  0  0  0  0  0  0
  194.3230  170.1440  142.8680 C   0  0  0  0  0  0  0  0  0  0  0  0
  193.5620  170.7740  143.6950 N   0  0  0  0  0  0  0  0  0  0  0  0
  195.5130  170.8100  142.1980 C   0  0  0  0  0  2  0  0  0  0  0  0
  193.6390  172.1650  144.0920 C   0  0  0  0  0  3  0  0  0  0  0  0
  194.0840  173.1900  143.3350 C   0  0  0  0  0  0  0  0  0  0  0  0
  194.4860  173.0550  141.9200 C   0  0  0  0  0  3  0  0  0  0  0  0
  192.9090  176.7840  144.2430 C   0  0  0  0  0  0  0  0  0  0  0  0
  194.0330  174.5480  143.9320 C   0  0  0  0  0  0  0  0  0  0  0  0
  191.9130  177.5330  144.1040 O   0  0  0  0  0  0  0  0  0  0  0  0
  194.8160  176.1810  145.5970 C   0  0  0  0  0  3  0  0  0  0  0  0
  193.9070  177.0900  145.2680 C   0  0  0  0  0  3  0  0  0  0  0  0
  194.8430  174.8650  144.9530 C   0  0  0  0  0  3  0  0  0  0  0  0
  193.0760  175.5780  143.3570 C   0  0  0  0  0  2  0  0  0  0  0  0
  191.3930  171.6310  140.1370 C   0  0  0  0  0  2  0  0  0  0  0  0
  189.2800  172.5190  139.2490 C   0  0  0  0  0  2  0  0  0  0  0  0
  189.1430  174.4850  141.4210 C   0  0  0  0  0  2  0  0  0  0  0  0
  190.5120  172.8720  140.0470 C   0  0  1  0  0  3  0  0  0  0  0  0
  188.2980  174.6100  140.2070 N   0  0  0  0  0  0  0  0  0  0  0  0
  188.4550  173.7710  139.0000 C   0  0  0  0  0  2  0  0  0  0  0  0
  187.3370  176.3240  138.9420 O   0  0  0  0  0  0  0  0  0  0  0  0
  187.4610  175.7630  140.0720 C   0  0  0  0  0  0  0  0  0  0  0  0
  190.0510  173.2610  141.4360 C   0  0  0  0  0  2  0  0  0  0  0  0
  186.7960  176.3860  141.2570 C   0  0  0  0  0  2  0  0  0  0  0  0
  186.4830  177.8580  141.0280 C   0  0  0  0  0  2  0  0  0  0  0  0
  187.2830  178.6440  142.0680 C   0  0  0  0  0  2  0  0  0  0  0  0
  188.6120  178.2500  143.9890 O   0  0  0  0  0  1  0  0  0  0  0  0
  187.3010  178.1540  143.5030 C   0  0  1  0  0  3  0  0  0  0  0  0
  186.3110  178.7140  144.5530 C   0  0  1  0  0  3  0  0  0  0  0  0
  185.3640  179.5850  144.0090 O   0  0  0  0  0  1  0  0  0  0  0  0
  185.6620  177.6270  145.4260 C   0  0  1  0  0  3  0  0  0  0  0  0
  187.2440  176.6370  146.9180 C   0  0  2  0  0  3  0  0  0  0  0  0
  186.5200  176.5160  145.6800 O   0  0  0  0  0  0  0  0  0  0  0  0
  185.1210  178.2150  146.6890 C   0  0  0  0  0  0  0  0  0  0  0  0
  186.0800  178.3160  147.8260 C   0  0  0  0  0  2  0  0  0  0  0  0
  183.9290  178.4060  146.8220 O   0  0  0  0  0  0  0  0  0  0  0  0
  187.3650  177.9600  147.3760 O   0  0  0  0  0  0  0  0  0  0  0  0
  188.8520  175.8220  146.6920 P   0  0  2  0  0  0  0  0  0  0  0  0
  188.9520  174.5340  147.7800 O   0  0  0  0  0  1  0  0  0  0  0  0
  189.9890  176.7840  146.9870 O   0  0  0  0  0  0  0  0  0  0  0  0
  188.9360  175.1220  145.1360 O   0  0  0  0  0  0  0  0  0  0  0  0
  189.6990  172.4820  144.8950 O   0  0  0  0  0  0  0  0  0  0  0  0
  190.0880  173.8930  145.2830 P   0  0  0  0  0  0  0  0  0  0  0  0
  191.4480  174.1210  145.9240 O   0  0  0  0  0  0  0  0  0  0  0  0
  1 32  1  1  0  0  0
  1 13  1  0  0  0  0
  2  3  2  0  0  0  0
  3  1  1  0  0  0  0
  4  2  1  0  0  0  0
  5  4  2  0  0  0  0
  6  4  1  0  0  0  0
  7 12  1  6  0  0  0
  7  6  1  0  0  0  0
  8  7  1  6  0  0  0
  8  9  1  0  0  0  0
  8 10  1  0  0  0  0
  9 10  1  0  0  0  0
 12 11  1  0  0  0  0
 14 13  1  0  0  0  0
 14 16  1  0  0  0  0
 15 14  2  0  0  0  0
 16 17  1  0  0  0  0
 17 19  1  0  0  0  0
 18 24  2  0  0  0  0
 18 21  1  0  0  0  0
 19 20  2  0  0  0  0
 20 22  1  0  0  0  0
 21 19  1  0  0  0  0
 23 26  1  0  0  0  0
 23 22  2  0  0  0  0
 24 23  1  0  0  0  0
 25 29  1  0  0  0  0
 26 30  2  0  0  0  0
 27 25  2  0  0  0  0
 29 28  2  0  0  0  0
 30 28  1  0  0  0  0
 31 26  1  0  0  0  0
 31 25  1  0  0  0  0
 33 35  1  0  0  0  0
 34 40  1  0  0  0  0
 35 32  1  1  0  0  0
 35 40  1  0  0  0  0
 36 34  1  0  0  0  0
 37 33  1  0  0  0  0
 37 36  1  0  0  0  0
 38 39  2  0  0  0  0
 39 36  1  0  0  0  0
 39 41  1  0  0  0  0
 42 41  1  0  0  0  0
 42 43  1  0  0  0  0
 43 45  1  0  0  0  0
 45 44  1  1  0  0  0
 45 46  1  0  0  0  0
 46 47  1  6  0  0  0
 48 46  1  1  0  0  0
 48 50  1  0  0  0  0
 48 51  1  0  0  0  0
 49 55  1  6  0  0  0
 49 54  1  0  0  0  0
 50 49  1  0  0  0  0
 51 53  2  0  0  0  0
 51 52  1  0  0  0  0
 54 52  1  0  0  0  0
 55 57  2  1  0  0  0
 55 56  1  0  0  0  0
 58 60  1  0  0  0  0
 58 55  1  0  0  0  0
 59 60  2  0  0  0  0
 60 61  2  0  0  0  0
M  END
>  <MODEL>
7

>  <REMARK>
 VINA RESULT:      -4.9      3.199      9.783
  Name = 
  22 active torsions:
  status: ('A' for Active; 'I' for Inactive)
    1  A    between atoms: C_1  and  C_6
    2  A    between atoms: C_1  and  N_32
    3  A    between atoms: C_3  and  C_12
    4  A    between atoms: P_5  and  C_11
    5  A    between atoms: P_5  and  O_36
    6  A    between atoms: C_8  and  C_23
    7  A    between atoms: C_8  and  C_42
    8  A    between atoms: C_10  and  C_47
    9  A    between atoms: C_12  and  C_42
   10  A    between atoms: C_14  and  C_19
   11  A    between atoms: C_16  and  C_45
   12  A    between atoms: C_17  and  C_18
   13  A    between atoms: C_17  and  C_53
   14  A    between atoms: C_18  and  C_55
   15  A    between atoms: C_19  and  C_38
   16  A    between atoms: C_19  and  O_52
   17  A    between atoms: N_22  and  C_33
   18  A    between atoms: C_33  and  O_52
   19  A    between atoms: O_36  and  P_40
   20  A    between atoms: N_37  and  C_42
   21  A    between atoms: C_47  and  C_61
   22  A    between atoms: C_53  and  C_61
                            x       y       z     vdW  Elec       q    Type
                         _______ _______ _______ _____ _____    ______ ____

>  <TORSDO>
F 22

$$$$
=
 OpenBabel11042419413D

 61 65  0  0  1  0  0  0  0  0999 V2000
  187.6620  176.2660  141.2700 C   0  0  1  0  0  3  0  0  0  0  0  0
  187.2730  175.6360  139.0090 N   0  0  0  0  0  0  0  0  0  0  0  0
  188.1110  175.7570  139.9720 N   0  0  0  0  0  0  0  0  0  0  0  0
  187.6290  175.0610  137.7410 C   0  0  0  0  0  0  0  0  0  0  0  0
  187.2830  175.6240  136.6630 O   0  0  0  0  0  0  0  0  0  0  0  0
  188.3460  173.8640  137.6790 O   0  0  0  0  0  0  0  0  0  0  0  0
  189.4430  173.6070  136.7930 C   0  0  2  0  0  3  0  0  0  0  0  0
  189.5430  172.1180  136.4510 C   0  0  2  0  0  3  0  0  0  0  0  0
  190.6000  171.9390  135.5340 O   0  0  0  0  0  0  0  0  0  0  0  0
  189.2960  171.8730  135.0120 C   0  0  0  0  0  2  0  0  0  0  0  0
  191.1720  173.5230  138.6280 C   0  0  0  0  0  1  0  0  0  0  0  0
  190.7900  174.1530  137.2900 C   0  0  0  0  0  2  0  0  0  0  0  0
  186.3210  176.9820  141.0530 C   0  0  0  0  0  2  0  0  0  0  0  0
  186.0020  177.9270  142.1540 C   0  0  0  0  0  0  0  0  0  0  0  0
  184.8360  178.3770  142.2840 O   0  0  0  0  0  0  0  0  0  0  0  0
  187.0290  178.3140  143.0770 N   0  0  0  0  0  2  0  0  0  0  0  0
  186.9040  178.1190  144.5190 C   0  0  0  0  0  2  0  0  0  0  0  0
  188.6210  175.8120  146.8960 C   0  0  0  0  0  3  0  0  0  0  0  0
  188.1270  177.4900  145.1130 C   0  0  0  0  0  0  0  0  0  0  0  0
  189.1700  177.3930  144.3630 N   0  0  0  0  0  0  0  0  0  0  0  0
  188.1760  177.2100  146.6050 C   0  0  0  0  0  2  0  0  0  0  0  0
  190.5040  176.9760  144.7440 C   0  0  0  0  0  3  0  0  0  0  0  0
  190.8200  176.1000  145.7220 C   0  0  0  0  0  0  0  0  0  0  0  0
  189.8210  175.3500  146.5100 C   0  0  0  0  0  3  0  0  0  0  0  0
  194.1870  174.1600  145.8650 C   0  0  0  0  0  0  0  0  0  0  0  0
  192.2570  175.7830  145.9120 C   0  0  0  0  0  0  0  0  0  0  0  0
  194.6690  173.0480  145.5460 O   0  0  0  0  0  0  0  0  0  0  0  0
  194.5860  176.5170  146.2070 C   0  0  0  0  0  3  0  0  0  0  0  0
  195.0810  175.2880  146.1240 C   0  0  0  0  0  3  0  0  0  0  0  0
  193.1530  176.7730  146.0440 C   0  0  0  0  0  3  0  0  0  0  0  0
  192.6950  174.3300  145.9840 C   0  0  0  0  0  2  0  0  0  0  0  0
  187.5320  175.0890  142.2590 C   0  0  0  0  0  2  0  0  0  0  0  0
  188.7860  173.5810  143.7420 C   0  0  0  0  0  2  0  0  0  0  0  0
  189.7690  172.0590  141.4360 C   0  0  0  0  0  2  0  0  0  0  0  0
  188.7500  174.1760  142.3550 C   0  0  1  0  0  3  0  0  0  0  0  0
  190.3890  171.9220  142.7780 N   0  0  0  0  0  0  0  0  0  0  0  0
  190.0730  172.7940  143.9290 C   0  0  0  0  0  2  0  0  0  0  0  0
  192.4980  171.4460  143.6640 O   0  0  0  0  0  0  0  0  0  0  0  0
  191.5410  171.0830  142.9160 C   0  0  0  0  0  0  0  0  0  0  0  0
  188.5950  173.0300  141.3790 C   0  0  0  0  0  2  0  0  0  0  0  0
  191.6890  169.8250  142.1230 C   0  0  0  0  0  2  0  0  0  0  0  0
  193.0810  169.6880  141.5240 C   0  0  0  0  0  2  0  0  0  0  0  0
  192.9690  170.0980  140.0550 C   0  0  0  0  0  2  0  0  0  0  0  0
  193.7270  168.8060  138.2190 O   0  0  0  0  0  1  0  0  0  0  0  0
  194.1270  169.8020  139.1210 C   0  0  1  0  0  3  0  0  0  0  0  0
  194.8520  170.9370  138.3580 C   0  0  1  0  0  3  0  0  0  0  0  0
  194.2420  172.1850  138.5160 O   0  0  0  0  0  1  0  0  0  0  0  0
  196.3630  170.9950  138.6330 C   0  0  1  0  0  3  0  0  0  0  0  0
  196.8820  172.5640  140.3590 C   0  0  2  0  0  3  0  0  0  0  0  0
  196.8330  172.3060  138.9450 O   0  0  0  0  0  0  0  0  0  0  0  0
  196.7490  170.0010  139.6810 C   0  0  0  0  0  0  0  0  0  0  0  0
  196.6450  170.4650  141.0930 C   0  0  0  0  0  2  0  0  0  0  0  0
  197.2950  168.9600  139.3750 O   0  0  0  0  0  0  0  0  0  0  0  0
  196.0370  171.7350  141.1160 O   0  0  0  0  0  0  0  0  0  0  0  0
  196.5350  174.3310  140.6030 P   0  0  2  0  0  0  0  0  0  0  0  0
  194.8860  174.5110  140.9180 O   0  0  0  0  0  1  0  0  0  0  0  0
  196.8690  175.1220  139.3510 O   0  0  0  0  0  0  0  0  0  0  0  0
  197.3380  174.8940  142.0020 O   0  0  0  0  0  0  0  0  0  0  0  0
  196.0030  177.1560  141.1570 O   0  0  0  0  0  0  0  0  0  0  0  0
  196.6570  176.4120  142.3030 P   0  0  0  0  0  0  0  0  0  0  0  0
  196.8030  177.1210  143.6400 O   0  0  0  0  0  0  0  0  0  0  0  0
  1 13  1  6  0  0  0
  1 32  1  0  0  0  0
  2  3  2  0  0  0  0
  3  1  1  0  0  0  0
  4  2  1  0  0  0  0
  5  4  2  0  0  0  0
  6  4  1  0  0  0  0
  7 12  1  1  0  0  0
  7  6  1  0  0  0  0
  8  7  1  6  0  0  0
  9  8  1  0  0  0  0
 10  9  1  0  0  0  0
 10  8  1  0  0  0  0
 12 11  1  0  0  0  0
 13 14  1  0  0  0  0
 14 15  2  0  0  0  0
 14 16  1  0  0  0  0
 16 17  1  0  0  0  0
 17 19  1  0  0  0  0
 19 21  1  0  0  0  0
 20 22  1  0  0  0  0
 20 19  2  0  0  0  0
 21 18  1  0  0  0  0
 22 23  2  0  0  0  0
 23 26  1  0  0  0  0
 23 24  1  0  0  0  0
 24 18  2  0  0  0  0
 25 31  1  0  0  0  0
 25 29  1  0  0  0  0
 26 31  1  0  0  0  0
 26 30  2  0  0  0  0
 27 25  2  0  0  0  0
 29 28  2  0  0  0  0
 30 28  1  0  0  0  0
 33 37  1  0  0  0  0
 34 36  1  0  0  0  0
 35 32  1  1  0  0  0
 35 33  1  0  0  0  0
 36 39  1  0  0  0  0
 36 37  1  0  0  0  0
 39 38  2  0  0  0  0
 40 34  1  0  0  0  0
 40 35  1  0  0  0  0
 41 39  1  0  0  0  0
 42 41  1  0  0  0  0
 43 42  1  0  0  0  0
 45 44  1  6  0  0  0
 45 43  1  0  0  0  0
 46 47  1  1  0  0  0
 46 45  1  0  0  0  0
 48 46  1  1  0  0  0
 48 50  1  0  0  0  0
 48 51  1  0  0  0  0
 49 55  1  6  0  0  0
 49 54  1  0  0  0  0
 50 49  1  0  0  0  0
 51 52  1  0  0  0  0
 52 54  1  0  0  0  0
 53 51  2  0  0  0  0
 55 57  2  6  0  0  0
 55 56  1  0  0  0  0
 55 58  1  0  0  0  0
 58 60  1  0  0  0  0
 59 60  2  0  0  0  0
 60 61  2  0  0  0  0
M  END
>  <MODEL>
8

>  <REMARK>
 VINA RESULT:      -4.9      2.720      6.159
  Name = 
  22 active torsions:
  status: ('A' for Active; 'I' for Inactive)
    1  A    between atoms: C_1  and  C_6
    2  A    between atoms: C_1  and  N_32
    3  A    between atoms: C_3  and  C_12
    4  A    between atoms: P_5  and  C_11
    5  A    between atoms: P_5  and  O_36
    6  A    between atoms: C_8  and  C_23
    7  A    between atoms: C_8  and  C_42
    8  A    between atoms: C_10  and  C_47
    9  A    between atoms: C_12  and  C_42
   10  A    between atoms: C_14  and  C_19
   11  A    between atoms: C_16  and  C_45
   12  A    between atoms: C_17  and  C_18
   13  A    between atoms: C_17  and  C_53
   14  A    between atoms: C_18  and  C_55
   15  A    between atoms: C_19  and  C_38
   16  A    between atoms: C_19  and  O_52
   17  A    between atoms: N_22  and  C_33
   18  A    between atoms: C_33  and  O_52
   19  A    between atoms: O_36  and  P_40
   20  A    between atoms: N_37  and  C_42
   21  A    between atoms: C_47  and  C_61
   22  A    between atoms: C_53  and  C_61
                            x       y       z     vdW  Elec       q    Type
                         _______ _______ _______ _____ _____    ______ ____

>  <TORSDO>
F 22

$$$$
=
 OpenBabel11042419413D

 61 65  0  0  1  0  0  0  0  0999 V2000
  185.4760  177.7080  142.5490 C   0  0  1  0  0  3  0  0  0  0  0  0
  183.5230  178.1870  141.2770 N   0  0  0  0  0  0  0  0  0  0  0  0
  184.0470  177.5570  142.2630 N   0  0  0  0  0  0  0  0  0  0  0  0
  182.1140  178.1520  140.9980 C   0  0  0  0  0  0  0  0  0  0  0  0
  181.6970  177.8450  139.8450 O   0  0  0  0  0  0  0  0  0  0  0  0
  181.1840  178.4740  141.9890 O   0  0  0  0  0  0  0  0  0  0  0  0
  180.2090  179.5200  141.8950 C   0  0  2  0  0  3  0  0  0  0  0  0
  178.8050  179.0010  142.2130 C   0  0  2  0  0  3  0  0  0  0  0  0
  178.8090  178.4670  143.5180 O   0  0  0  0  0  0  0  0  0  0  0  0
  178.8080  177.5410  142.4610 C   0  0  0  0  0  2  0  0  0  0  0  0
  178.9850  179.9620  139.7350 C   0  0  0  0  0  1  0  0  0  0  0  0
  180.2310  180.2770  140.5600 C   0  0  0  0  0  2  0  0  0  0  0  0
  186.1370  178.3320  141.3110 C   0  0  0  0  0  2  0  0  0  0  0  0
  186.7420  177.3110  140.4190 C   0  0  0  0  0  0  0  0  0  0  0  0
  187.3530  176.3270  140.9060 O   0  0  0  0  0  0  0  0  0  0  0  0
  186.6150  177.4460  138.9960 N   0  0  0  0  0  2  0  0  0  0  0  0
  186.0160  176.4090  138.1600 C   0  0  0  0  0  2  0  0  0  0  0  0
  188.4530  176.2220  135.3410 C   0  0  0  0  0  3  0  0  0  0  0  0
  187.0370  175.6930  137.3300 C   0  0  0  0  0  0  0  0  0  0  0  0
  187.7190  174.7590  137.8980 N   0  0  0  0  0  0  0  0  0  0  0  0
  187.0710  175.9170  135.8270 C   0  0  0  0  0  2  0  0  0  0  0  0
  188.6390  173.8270  137.2800 C   0  0  0  0  0  3  0  0  0  0  0  0
  189.3980  174.0560  136.1870 C   0  0  0  0  0  0  0  0  0  0  0  0
  189.4690  175.3590  135.4940 C   0  0  0  0  0  3  0  0  0  0  0  0
  192.5720  171.8590  135.7240 C   0  0  0  0  0  0  0  0  0  0  0  0
  190.3070  172.9680  135.7510 C   0  0  0  0  0  0  0  0  0  0  0  0
  193.7380  171.7500  136.1700 O   0  0  0  0  0  0  0  0  0  0  0  0
  190.6560  170.7400  134.7700 C   0  0  0  0  0  3  0  0  0  0  0  0
  191.9610  170.7340  135.0160 C   0  0  0  0  0  3  0  0  0  0  0  0
  189.8060  171.8550  135.1940 C   0  0  0  0  0  3  0  0  0  0  0  0
  191.8070  173.1430  135.9140 C   0  0  0  0  0  2  0  0  0  0  0  0
  185.6530  178.5900  143.8030 C   0  0  0  0  0  2  0  0  0  0  0  0
  186.4400  178.0620  146.0710 C   0  0  0  0  0  2  0  0  0  0  0  0
  188.7510  176.6220  144.9810 C   0  0  0  0  0  2  0  0  0  0  0  0
  186.8860  178.2880  144.6470 C   0  0  1  0  0  3  0  0  0  0  0  0
  188.6930  177.0300  146.4070 N   0  0  0  0  0  0  0  0  0  0  0  0
  187.6560  177.9190  146.9720 C   0  0  0  0  0  2  0  0  0  0  0  0
  190.1940  177.6420  148.0900 O   0  0  0  0  0  0  0  0  0  0  0  0
  189.8310  176.7760  147.2380 C   0  0  0  0  0  0  0  0  0  0  0  0
  187.5200  177.0000  144.1650 C   0  0  0  0  0  2  0  0  0  0  0  0
  190.6670  175.5500  147.0630 C   0  0  0  0  0  2  0  0  0  0  0  0
  192.1550  175.8570  147.1390 C   0  0  0  0  0  2  0  0  0  0  0  0
  192.5680  176.3800  145.7630 C   0  0  0  0  0  2  0  0  0  0  0  0
  194.7110  175.4690  146.1980 O   0  0  0  0  0  1  0  0  0  0  0  0
  193.8760  175.9060  145.1600 C   0  0  1  0  0  3  0  0  0  0  0  0
  193.9010  174.8810  144.0010 C   0  0  1  0  0  3  0  0  0  0  0  0
  193.0880  173.7680  144.2330 O   0  0  0  0  0  1  0  0  0  0  0  0
  193.6420  175.5070  142.6210 C   0  0  1  0  0  3  0  0  0  0  0  0
  195.2940  174.8370  141.0300 C   0  0  2  0  0  3  0  0  0  0  0  0
  194.8370  175.8640  141.9280 O   0  0  0  0  0  0  0  0  0  0  0  0
  192.7610  174.6260  141.7960 C   0  0  0  0  0  0  0  0  0  0  0  0
  193.4520  173.5700  141.0010 C   0  0  0  0  0  2  0  0  0  0  0  0
  191.5860  174.8930  141.6440 O   0  0  0  0  0  0  0  0  0  0  0  0
  194.8160  173.5540  141.3470 O   0  0  0  0  0  0  0  0  0  0  0  0
  197.1090  174.9200  140.9850 P   0  0  2  0  0  0  0  0  0  0  0  0
  197.5600  176.0480  139.8120 O   0  0  0  0  0  0  0  0  0  0  0  0
  197.6980  173.5730  140.6020 O   0  0  0  0  0  1  0  0  0  0  0  0
  197.7010  175.5280  142.4670 O   0  0  0  0  0  0  0  0  0  0  0  0
  197.7750  174.4800  145.0170 O   0  0  0  0  0  0  0  0  0  0  0  0
  197.5990  174.2220  143.5360 P   0  0  0  0  0  0  0  0  0  0  0  0
  197.4840  172.7830  143.0570 O   0  0  0  0  0  0  0  0  0  0  0  0
  1 13  1  6  0  0  0
  1 32  1  0  0  0  0
  2  3  2  0  0  0  0
  3  1  1  0  0  0  0
  4  2  1  0  0  0  0
  4  6  1  0  0  0  0
  5  4  2  0  0  0  0
  7 12  1  6  0  0  0
  7  6  1  0  0  0  0
  8  7  1  6  0  0  0
  8 10  1  0  0  0  0
  8  9  1  0  0  0  0
 10  9  1  0  0  0  0
 11 12  1  0  0  0  0
 14 15  2  0  0  0  0
 14 13  1  0  0  0  0
 16 14  1  0  0  0  0
 17 16  1  0  0  0  0
 18 24  2  0  0  0  0
 18 21  1  0  0  0  0
 19 20  2  0  0  0  0
 19 17  1  0  0  0  0
 21 19  1  0  0  0  0
 22 20  1  0  0  0  0
 23 22  2  0  0  0  0
 24 23  1  0  0  0  0
 25 31  1  0  0  0  0
 25 27  2  0  0  0  0
 26 31  1  0  0  0  0
 26 23  1  0  0  0  0
 28 29  2  0  0  0  0
 28 30  1  0  0  0  0
 29 25  1  0  0  0  0
 30 26  2  0  0  0  0
 33 37  1  0  0  0  0
 34 36  1  0  0  0  0
 35 32  1  6  0  0  0
 35 33  1  0  0  0  0
 36 37  1  0  0  0  0
 36 39  1  0  0  0  0
 39 38  2  0  0  0  0
 40 35  1  0  0  0  0
 40 34  1  0  0  0  0
 41 42  1  0  0  0  0
 41 39  1  0  0  0  0
 43 42  1  0  0  0  0
 45 43  1  0  0  0  0
 45 44  1  1  0  0  0
 46 47  1  1  0  0  0
 46 45  1  0  0  0  0
 48 46  1  1  0  0  0
 49 55  1  1  0  0  0
 49 54  1  0  0  0  0
 49 50  1  0  0  0  0
 50 48  1  0  0  0  0
 51 48  1  0  0  0  0
 52 54  1  0  0  0  0
 52 51  1  0  0  0  0
 53 51  2  0  0  0  0
 55 56  2  6  0  0  0
 55 58  1  0  0  0  0
 57 55  1  0  0  0  0
 58 60  1  0  0  0  0
 60 59  2  0  0  0  0
 61 60  2  0  0  0  0
M  END
>  <MODEL>
9

>  <REMARK>
 VINA RESULT:      -4.9      3.717      8.015
  Name = 
  22 active torsions:
  status: ('A' for Active; 'I' for Inactive)
    1  A    between atoms: C_1  and  C_6
    2  A    between atoms: C_1  and  N_32
    3  A    between atoms: C_3  and  C_12
    4  A    between atoms: P_5  and  C_11
    5  A    between atoms: P_5  and  O_36
    6  A    between atoms: C_8  and  C_23
    7  A    between atoms: C_8  and  C_42
    8  A    between atoms: C_10  and  C_47
    9  A    between atoms: C_12  and  C_42
   10  A    between atoms: C_14  and  C_19
   11  A    between atoms: C_16  and  C_45
   12  A    between atoms: C_17  and  C_18
   13  A    between atoms: C_17  and  C_53
   14  A    between atoms: C_18  and  C_55
   15  A    between atoms: C_19  and  C_38
   16  A    between atoms: C_19  and  O_52
   17  A    between atoms: N_22  and  C_33
   18  A    between atoms: C_33  and  O_52
   19  A    between atoms: O_36  and  P_40
   20  A    between atoms: N_37  and  C_42
   21  A    between atoms: C_47  and  C_61
   22  A    between atoms: C_53  and  C_61
                            x       y       z     vdW  Elec       q    Type
                         _______ _______ _______ _____ _____    ______ ____

>  <TORSDO>
F 22

$$$$
