=
 OpenBabel11042416073D

 34 37  0  0  1  0  0  0  0  0999 V2000
  183.9470  178.3210  142.9040 C   0  0  0  0  0  0  0  0  0  0  0  0
  187.9770  177.8260  146.1570 C   0  0  0  0  0  2  0  0  0  0  0  0
  188.4950  174.8950  140.7170 C   0  0  0  0  0  2  0  0  0  0  0  0
  189.4200  174.8860  145.7310 N   0  0  0  0  0  0  0  0  0  0  0  0
  190.2980  173.8580  142.8610 C   0  0  0  0  0  2  0  0  0  0  0  0
  184.1920  178.6470  144.2420 C   0  0  0  0  0  3  0  0  0  0  0  0
  191.6830  174.6650  144.7520 C   0  0  1  0  0  3  0  0  0  0  0  0
  190.7790  172.0210  141.4190 O   0  0  0  0  0  1  0  0  0  0  0  0
  192.4090  175.9080  146.4930 C   0  0  0  0  0  3  0  0  0  0  0  0
  187.8700  176.4470  146.7920 C   0  0  0  0  0  2  0  0  0  0  0  0
  192.6830  175.4450  145.1360 C   0  0  0  0  0  3  0  0  0  0  0  0
  185.4580  178.4460  144.7930 C   0  0  0  0  0  3  0  0  0  0  0  0
  187.2410  175.1460  142.0040 S   0  0  0  0  0  0  0  0  0  0  0  0
  184.9760  177.7820  142.1300 C   0  0  0  0  0  3  0  0  0  0  0  0
  187.8350  177.7430  144.6690 C   0  0  0  0  0  0  0  0  0  0  0  0
  186.5070  177.9180  144.0230 C   0  0  0  0  0  0  0  0  0  0  0  0
  188.9810  173.4530  140.7570 C   0  0  2  0  0  3  0  0  0  0  0  0
  187.2760  176.9480  141.7860 C   0  0  0  0  0  2  0  0  0  0  0  0
  191.3180  175.2900  146.9200 C   0  0  2  0  0  3  0  0  0  0  0  0
  191.6940  173.9300  143.4530 C   0  0  0  0  0  2  0  0  0  0  0  0
  190.7730  174.3740  145.8970 C   0  0  1  0  0  3  0  0  0  0  0  0
  189.1680  175.7210  146.6920 C   0  0  0  0  0  0  0  0  0  0  0  0
  190.3510  173.3510  141.4270 C   0  0  1  0  0  3  0  0  0  0  0  0
  186.2520  177.5830  142.6690 C   0  0  0  0  0  0  0  0  0  0  0  0
  188.8680  177.5230  143.9820 O   0  0  0  0  0  0  0  0  0  0  0  0
  190.2760  176.0250  147.5370 N   0  0  0  0  0  2  0  0  0  0  0  0
  189.0600  172.9400  139.3970 N   0  0  0  0  0  2  0  0  0  0  0  0
  189.0370  173.8240  137.1420 C   0  0  0  0  0  1  0  0  0  0  0  0
  188.4440  173.9310  138.5310 C   0  0  0  0  0  2  0  0  0  0  0  0
  182.6550  178.5060  142.3170 N   0  0  0  0  0  2  0  0  0  0  0  0
  182.3820  178.3180  140.8980 C   0  0  0  0  0  2  0  0  0  0  0  0
  180.9180  178.5940  140.6010 C   0  0  2  0  0  3  0  0  0  0  0  0
  180.6840  179.9680  140.5650 O   0  0  0  0  0  1  0  0  0  0  0  0
  180.0610  177.9700  141.6820 C   0  0  0  0  0  1  0  0  0  0  0  0
  1  6  1  0  0  0  0
  2 10  1  0  0  0  0
  3 17  1  0  0  0  0
  3 13  1  0  0  0  0
  4 22  2  0  0  0  0
  5 20  1  0  0  0  0
  6 12  2  0  0  0  0
  7 20  1  1  0  0  0
  7 11  1  0  0  0  0
  7 21  1  0  0  0  0
 11  9  2  0  0  0  0
 14 24  1  0  0  0  0
 14  1  2  0  0  0  0
 15  2  1  0  0  0  0
 16 15  1  0  0  0  0
 16 12  1  0  0  0  0
 17 27  1  6  0  0  0
 17 23  1  0  0  0  0
 18 13  1  0  0  0  0
 18 24  1  0  0  0  0
 19  9  1  6  0  0  0
 19 26  1  0  0  0  0
 21  4  1  6  0  0  0
 21 19  1  0  0  0  0
 22 10  1  0  0  0  0
 22 26  1  0  0  0  0
 23  8  1  1  0  0  0
 23  5  1  0  0  0  0
 24 16  2  0  0  0  0
 25 15  2  0  0  0  0
 28 29  1  0  0  0  0
 29 27  1  0  0  0  0
 30  1  1  0  0  0  0
 31 30  1  0  0  0  0
 32 31  1  0  0  0  0
 32 34  1  1  0  0  0
 33 32  1  0  0  0  0
M  END
>  <MODEL>
1

>  <REMARK>
 VINA RESULT:      -8.1      0.000      0.000
  Name = 
  5 active torsions:
  status: ('A' for Active; 'I' for Inactive)
    1  A    between atoms: C_1  and  N_33
    2  A    between atoms: C_9  and  C_31
    3  A    between atoms: N_10  and  C_22
    4  A    between atoms: N_10  and  C_30
    5  A    between atoms: C_31  and  N_33
                            x       y       z     vdW  Elec       q    Type
                         _______ _______ _______ _____ _____    ______ ____

>  <TORSDO>
F 5

$$$$
=
 OpenBabel11042416073D

 34 37  0  0  1  0  0  0  0  0999 V2000
  186.6550  177.0470  145.6020 C   0  0  0  0  0  0  0  0  0  0  0  0
  191.7840  176.7960  146.4390 C   0  0  0  0  0  2  0  0  0  0  0  0
  189.7380  174.0880  141.2500 C   0  0  0  0  0  2  0  0  0  0  0  0
  193.0020  174.0040  145.1650 N   0  0  0  0  0  0  0  0  0  0  0  0
  192.4190  173.1420  142.1680 C   0  0  0  0  0  2  0  0  0  0  0  0
  187.5050  177.3520  146.6700 C   0  0  0  0  0  3  0  0  0  0  0  0
  194.5020  174.0060  143.1960 C   0  0  1  0  0  3  0  0  0  0  0  0
  192.2370  171.3990  140.5520 O   0  0  0  0  0  1  0  0  0  0  0  0
  195.9150  175.2520  144.4430 C   0  0  0  0  0  3  0  0  0  0  0  0
  192.0830  175.3940  146.9500 C   0  0  0  0  0  2  0  0  0  0  0  0
  195.5150  174.8560  143.0970 C   0  0  0  0  0  3  0  0  0  0  0  0
  188.8880  177.2430  146.5200 C   0  0  0  0  0  3  0  0  0  0  0  0
  189.2650  174.1920  142.9980 S   0  0  0  0  0  0  0  0  0  0  0  0
  187.2020  176.6220  144.3910 C   0  0  0  0  0  3  0  0  0  0  0  0
  190.9350  176.7480  145.2070 C   0  0  0  0  0  0  0  0  0  0  0  0
  189.4540  176.8290  145.3030 C   0  0  0  0  0  0  0  0  0  0  0  0
  190.2650  172.6920  140.9490 C   0  0  2  0  0  3  0  0  0  0  0  0
  189.0810  175.9970  142.9140 C   0  0  0  0  0  2  0  0  0  0  0  0
  195.2120  174.5300  145.3040 C   0  0  2  0  0  3  0  0  0  0  0  0
  193.9180  173.3140  142.0100 C   0  0  0  0  0  2  0  0  0  0  0  0
  194.2900  173.6040  144.6160 C   0  0  1  0  0  3  0  0  0  0  0  0
  193.2060  174.7850  146.1810 C   0  0  0  0  0  0  0  0  0  0  0  0
  191.7900  172.6870  140.8590 C   0  0  1  0  0  3  0  0  0  0  0  0
  188.5870  176.5150  144.2240 C   0  0  0  0  0  0  0  0  0  0  0  0
  191.5090  176.6370  144.0910 O   0  0  0  0  0  0  0  0  0  0  0  0
  194.5660  175.1560  146.3990 N   0  0  0  0  0  2  0  0  0  0  0  0
  189.6970  172.2300  139.6920 N   0  0  0  0  0  2  0  0  0  0  0  0
  188.4160  173.3250  137.9520 C   0  0  0  0  0  1  0  0  0  0  0  0
  188.5170  173.0370  139.4340 C   0  0  0  0  0  2  0  0  0  0  0  0
  185.2330  177.1400  145.7320 N   0  0  0  0  0  2  0  0  0  0  0  0
  184.5220  178.3990  145.9090 C   0  0  0  0  0  2  0  0  0  0  0  0
  184.2520  179.0490  144.5620 C   0  0  2  0  0  3  0  0  0  0  0  0
  184.1300  178.0740  143.5720 O   0  0  0  0  0  1  0  0  0  0  0  0
  185.3990  179.9730  144.2140 C   0  0  0  0  0  1  0  0  0  0  0  0
  1 30  1  0  0  0  0
  1  6  1  0  0  0  0
  2 10  1  0  0  0  0
  3 13  1  0  0  0  0
  4 22  2  0  0  0  0
  7 20  1  6  0  0  0
  7 21  1  0  0  0  0
 11  7  1  0  0  0  0
 11  9  2  0  0  0  0
 12  6  2  0  0  0  0
 14  1  2  0  0  0  0
 15 16  1  0  0  0  0
 15  2  1  0  0  0  0
 16 12  1  0  0  0  0
 17 27  1  6  0  0  0
 17  3  1  0  0  0  0
 18 13  1  0  0  0  0
 18 24  1  0  0  0  0
 19  9  1  6  0  0  0
 19 26  1  0  0  0  0
 20  5  1  0  0  0  0
 21  4  1  1  0  0  0
 21 19  1  0  0  0  0
 22 26  1  0  0  0  0
 22 10  1  0  0  0  0
 23  8  1  1  0  0  0
 23 17  1  0  0  0  0
 23  5  1  0  0  0  0
 24 14  1  0  0  0  0
 24 16  2  0  0  0  0
 25 15  2  0  0  0  0
 28 29  1  0  0  0  0
 29 27  1  0  0  0  0
 30 31  1  0  0  0  0
 32 34  1  6  0  0  0
 32 31  1  0  0  0  0
 33 32  1  0  0  0  0
M  END
>  <MODEL>
2

>  <REMARK>
 VINA RESULT:      -7.9      2.547      3.600
  Name = 
  5 active torsions:
  status: ('A' for Active; 'I' for Inactive)
    1  A    between atoms: C_1  and  N_33
    2  A    between atoms: C_9  and  C_31
    3  A    between atoms: N_10  and  C_22
    4  A    between atoms: N_10  and  C_30
    5  A    between atoms: C_31  and  N_33
                            x       y       z     vdW  Elec       q    Type
                         _______ _______ _______ _____ _____    ______ ____

>  <TORSDO>
F 5

$$$$
=
 OpenBabel11042416073D

 34 37  0  0  1  0  0  0  0  0999 V2000
  187.7630  176.7880  146.1660 C   0  0  0  0  0  0  0  0  0  0  0  0
  192.8360  177.1180  145.0600 C   0  0  0  0  0  2  0  0  0  0  0  0
  189.2800  174.4320  140.7480 C   0  0  0  0  0  2  0  0  0  0  0  0
  193.7540  174.5560  143.1890 N   0  0  0  0  0  0  0  0  0  0  0  0
  192.1870  173.7730  140.5440 C   0  0  0  0  0  2  0  0  0  0  0  0
  188.9150  177.1420  146.8750 C   0  0  0  0  0  3  0  0  0  0  0  0
  194.4110  174.8330  140.8180 C   0  0  0  0  0  0  0  0  0  0  0  0
  191.5860  172.0990  138.9570 O   0  0  0  0  0  1  0  0  0  0  0  0
  196.0600  176.1790  141.5730 C   0  0  0  0  0  2  0  0  0  0  0  0
  193.4350  175.7400  145.3010 C   0  0  0  0  0  2  0  0  0  0  0  0
  195.2290  175.8020  140.4340 C   0  0  0  0  0  3  0  0  0  0  0  0
  190.1480  177.2080  146.2240 C   0  0  0  0  0  3  0  0  0  0  0  0
  189.4800  174.3950  142.5510 S   0  0  0  0  0  0  0  0  0  0  0  0
  187.8600  176.4900  144.8060 C   0  0  0  0  0  3  0  0  0  0  0  0
  191.6000  177.0260  144.2200 C   0  0  0  0  0  0  0  0  0  0  0  0
  190.2590  176.9230  144.8540 C   0  0  0  0  0  0  0  0  0  0  0  0
  189.7870  173.1250  140.1550 C   0  0  2  0  0  3  0  0  0  0  0  0
  189.1090  176.1660  142.6990 C   0  0  0  0  0  2  0  0  0  0  0  0
  195.7980  175.3380  142.5630 C   0  0  2  0  0  3  0  0  0  0  0  0
  193.4970  174.1320  139.8680 C   0  0  0  0  0  2  0  0  0  0  0  0
  194.7790  174.3410  142.1770 C   0  0  1  0  0  3  0  0  0  0  0  0
  194.2450  175.3070  144.1260 C   0  0  0  0  0  0  0  0  0  0  0  0
  191.1640  173.3080  139.5170 C   0  0  1  0  0  3  0  0  0  0  0  0
  189.0890  176.5580  144.1400 C   0  0  0  0  0  0  0  0  0  0  0  0
  191.7270  177.0380  142.9670 O   0  0  0  0  0  0  0  0  0  0  0  0
  195.5470  175.8280  143.8680 N   0  0  0  0  0  2  0  0  0  0  0  0
  188.8410  172.6580  139.1540 N   0  0  0  0  0  2  0  0  0  0  0  0
  188.7020  173.9350  137.1010 C   0  0  0  0  0  1  0  0  0  0  0  0
  188.2510  173.8360  138.5420 C   0  0  0  0  0  2  0  0  0  0  0  0
  186.4890  176.7030  146.8100 N   0  0  0  0  0  2  0  0  0  0  0  0
  185.2240  176.9530  146.1310 C   0  0  0  0  0  2  0  0  0  0  0  0
  184.5180  178.1470  146.7500 C   0  0  2  0  0  3  0  0  0  0  0  0
  183.7910  178.8340  145.7780 O   0  0  0  0  0  1  0  0  0  0  0  0
  185.5470  179.0790  147.3550 C   0  0  0  0  0  1  0  0  0  0  0  0
  1 30  1  0  0  0  0
  1  6  1  0  0  0  0
  2 10  1  0  0  0  0
  3 13  1  0  0  0  0
  4 22  2  0  0  0  0
 11  7  2  0  0  0  0
 11  9  1  0  0  0  0
 12  6  2  0  0  0  0
 13 18  1  0  0  0  0
 14  1  2  0  0  0  0
 15 16  1  0  0  0  0
 15  2  1  0  0  0  0
 16 12  1  0  0  0  0
 17 27  1  6  0  0  0
 17  3  1  0  0  0  0
 18 24  1  0  0  0  0
 19  9  1  6  0  0  0
 19 26  1  0  0  0  0
 20  5  1  0  0  0  0
 20  7  1  0  0  0  0
 21  7  1  6  0  0  0
 21 19  1  0  0  0  0
 21  4  1  0  0  0  0
 22 10  1  0  0  0  0
 23  8  1  1  0  0  0
 23 17  1  0  0  0  0
 23  5  1  0  0  0  0
 24 14  1  0  0  0  0
 24 16  2  0  0  0  0
 25 15  2  0  0  0  0
 26 22  1  0  0  0  0
 28 29  1  0  0  0  0
 29 27  1  0  0  0  0
 31 32  1  0  0  0  0
 31 30  1  0  0  0  0
 32 34  1  6  0  0  0
 33 32  1  0  0  0  0
M  END
>  <MODEL>
3

>  <REMARK>
 VINA RESULT:      -7.5      3.276      4.686
  Name = 
  5 active torsions:
  status: ('A' for Active; 'I' for Inactive)
    1  A    between atoms: C_1  and  N_33
    2  A    between atoms: C_9  and  C_31
    3  A    between atoms: N_10  and  C_22
    4  A    between atoms: N_10  and  C_30
    5  A    between atoms: C_31  and  N_33
                            x       y       z     vdW  Elec       q    Type
                         _______ _______ _______ _____ _____    ______ ____

>  <TORSDO>
F 5

$$$$
=
 OpenBabel11042416073D

 34 37  0  0  1  0  0  0  0  0999 V2000
  187.0950  176.8480  144.4370 C   0  0  0  0  0  0  0  0  0  0  0  0
  192.1530  176.9290  145.6550 C   0  0  0  0  0  2  0  0  0  0  0  0
  190.4360  172.7200  141.4370 C   0  0  0  0  0  2  0  0  0  0  0  0
  193.4260  173.8930  145.3970 N   0  0  0  0  0  0  0  0  0  0  0  0
  193.0390  172.1370  142.7830 C   0  0  0  0  0  2  0  0  0  0  0  0
  187.8730  177.4790  145.4120 C   0  0  0  0  0  3  0  0  0  0  0  0
  195.0560  173.3010  143.6300 C   0  0  1  0  0  3  0  0  0  0  0  0
  192.9500  169.9760  141.7800 O   0  0  0  0  0  1  0  0  0  0  0  0
  196.3930  174.8890  144.5210 C   0  0  0  0  0  3  0  0  0  0  0  0
  192.4020  175.7580  146.5950 C   0  0  0  0  0  2  0  0  0  0  0  0
  196.0820  174.0900  143.3400 C   0  0  0  0  0  3  0  0  0  0  0  0
  189.2620  177.3450  145.3970 C   0  0  0  0  0  3  0  0  0  0  0  0
  189.8460  173.3560  143.0310 S   0  0  0  0  0  0  0  0  0  0  0  0
  187.7180  176.0740  143.4570 C   0  0  0  0  0  3  0  0  0  0  0  0
  191.3890  176.4900  144.4440 C   0  0  0  0  0  0  0  0  0  0  0  0
  189.9050  176.5800  144.4100 C   0  0  0  0  0  0  0  0  0  0  0  0
  190.9680  171.3050  141.6220 C   0  0  2  0  0  3  0  0  0  0  0  0
  189.6870  175.0430  142.3790 C   0  0  0  0  0  2  0  0  0  0  0  0
  195.6260  174.4620  145.5140 C   0  0  2  0  0  3  0  0  0  0  0  0
  194.5470  172.2690  142.6810 C   0  0  0  0  0  2  0  0  0  0  0  0
  194.7440  173.3580  145.0870 C   0  0  1  0  0  3  0  0  0  0  0  0
  193.5680  174.9530  146.1310 C   0  0  0  0  0  0  0  0  0  0  0  0
  192.4960  171.2900  141.6410 C   0  0  1  0  0  3  0  0  0  0  0  0
  189.1100  175.9370  143.4270 C   0  0  0  0  0  0  0  0  0  0  0  0
  192.0350  176.0450  143.4590 O   0  0  0  0  0  0  0  0  0  0  0  0
  194.9140  175.3890  146.3140 N   0  0  0  0  0  2  0  0  0  0  0  0
  190.4820  170.4700  140.5350 N   0  0  0  0  0  2  0  0  0  0  0  0
  189.7370  170.5240  138.2310 C   0  0  0  0  0  1  0  0  0  0  0  0
  190.2770  171.3370  139.3880 C   0  0  0  0  0  2  0  0  0  0  0  0
  185.6690  176.9600  144.4350 N   0  0  0  0  0  2  0  0  0  0  0  0
  184.9300  177.8280  143.5270 C   0  0  0  0  0  2  0  0  0  0  0  0
  184.4910  179.0940  144.2430 C   0  0  2  0  0  3  0  0  0  0  0  0
  185.5110  180.0440  144.2100 O   0  0  0  0  0  1  0  0  0  0  0  0
  184.1610  178.7650  145.6840 C   0  0  0  0  0  1  0  0  0  0  0  0
  1  6  1  0  0  0  0
  2 10  1  0  0  0  0
  3 17  1  0  0  0  0
  3 13  1  0  0  0  0
  4 22  2  0  0  0  0
  7 20  1  1  0  0  0
  7 21  1  0  0  0  0
 11  7  1  0  0  0  0
 11  9  2  0  0  0  0
 12  6  2  0  0  0  0
 14  1  2  0  0  0  0
 15  2  1  0  0  0  0
 16 15  1  0  0  0  0
 16 12  1  0  0  0  0
 17 27  1  6  0  0  0
 17 23  1  0  0  0  0
 18 13  1  0  0  0  0
 18 24  1  0  0  0  0
 19  9  1  6  0  0  0
 19 26  1  0  0  0  0
 20  5  1  0  0  0  0
 21  4  1  6  0  0  0
 21 19  1  0  0  0  0
 22 26  1  0  0  0  0
 22 10  1  0  0  0  0
 23  8  1  1  0  0  0
 23  5  1  0  0  0  0
 24 14  1  0  0  0  0
 24 16  2  0  0  0  0
 25 15  2  0  0  0  0
 28 29  1  0  0  0  0
 29 27  1  0  0  0  0
 30  1  1  0  0  0  0
 31 32  1  0  0  0  0
 31 30  1  0  0  0  0
 32 34  1  1  0  0  0
 33 32  1  0  0  0  0
M  END
>  <MODEL>
4

>  <REMARK>
 VINA RESULT:      -7.4      2.816      3.983
  Name = 
  5 active torsions:
  status: ('A' for Active; 'I' for Inactive)
    1  A    between atoms: C_1  and  N_33
    2  A    between atoms: C_9  and  C_31
    3  A    between atoms: N_10  and  C_22
    4  A    between atoms: N_10  and  C_30
    5  A    between atoms: C_31  and  N_33
                            x       y       z     vdW  Elec       q    Type
                         _______ _______ _______ _____ _____    ______ ____

>  <TORSDO>
F 5

$$$$
=
 OpenBabel11042416073D

 34 37  0  0  1  0  0  0  0  0999 V2000
  189.5570  173.5430  138.3540 C   0  0  0  0  0  0  0  0  0  0  0  0
  192.1850  173.9160  142.8290 C   0  0  0  0  0  2  0  0  0  0  0  0
  186.3860  176.1140  142.8860 C   0  0  0  0  0  2  0  0  0  0  0  0
  191.2000  176.5900  144.4990 N   0  0  0  0  0  0  0  0  0  0  0  0
  188.1320  177.1650  145.0710 C   0  0  0  0  0  2  0  0  0  0  0  0
  190.8840  173.3460  138.7480 C   0  0  0  0  0  3  0  0  0  0  0  0
  189.9230  176.4190  146.6130 C   0  0  1  0  0  3  0  0  0  0  0  0
  186.4130  178.7500  145.5350 O   0  0  0  0  0  1  0  0  0  0  0  0
  191.7070  175.3070  147.4410 C   0  0  0  0  0  3  0  0  0  0  0  0
  192.6420  175.3620  142.9570 C   0  0  0  0  0  2  0  0  0  0  0  0
  190.2780  175.5720  147.5700 C   0  0  0  0  0  3  0  0  0  0  0  0
  191.2410  173.4530  140.0930 C   0  0  0  0  0  3  0  0  0  0  0  0
  187.8430  176.1680  141.8050 S   0  0  0  0  0  0  0  0  0  0  0  0
  188.5960  173.8590  139.3150 C   0  0  0  0  0  3  0  0  0  0  0  0
  190.7280  173.8430  142.4900 C   0  0  0  0  0  0  0  0  0  0  0  0
  190.2830  173.7580  141.0730 C   0  0  0  0  0  0  0  0  0  0  0  0
  186.1760  177.4810  143.5210 C   0  0  2  0  0  3  0  0  0  0  0  0
  187.8600  174.3620  141.6190 C   0  0  0  0  0  2  0  0  0  0  0  0
  192.1830  176.0980  146.4910 C   0  0  2  0  0  3  0  0  0  0  0  0
  188.5490  176.9920  146.5200 C   0  0  0  0  0  2  0  0  0  0  0  0
  191.1260  176.9490  145.9080 C   0  0  1  0  0  3  0  0  0  0  0  0
  192.2850  175.9080  144.2980 C   0  0  0  0  0  0  0  0  0  0  0  0
  186.6490  177.4920  144.9750 C   0  0  1  0  0  3  0  0  0  0  0  0
  188.9390  173.9630  140.6680 C   0  0  0  0  0  0  0  0  0  0  0  0
  189.8940  173.8550  143.4330 O   0  0  0  0  0  0  0  0  0  0  0  0
  193.0170  175.5710  145.4750 N   0  0  0  0  0  2  0  0  0  0  0  0
  184.7620  177.8200  143.4630 N   0  0  0  0  0  2  0  0  0  0  0  0
  182.9770  178.2100  141.8730 C   0  0  0  0  0  1  0  0  0  0  0  0
  184.4740  178.2180  142.0960 C   0  0  0  0  0  2  0  0  0  0  0  0
  189.1660  173.4500  136.9810 N   0  0  0  0  0  2  0  0  0  0  0  0
  190.1130  173.3210  135.8810 C   0  0  0  0  0  2  0  0  0  0  0  0
  190.2980  174.6560  135.1810 C   0  0  2  0  0  3  0  0  0  0  0  0
  191.2920  175.4000  135.8170 O   0  0  0  0  0  1  0  0  0  0  0  0
  188.9950  175.4270  135.2220 C   0  0  0  0  0  1  0  0  0  0  0  0
  1  6  2  0  0  0  0
  1 14  1  0  0  0  0
  2 10  1  0  0  0  0
  3 17  1  0  0  0  0
  5 20  1  0  0  0  0
  6 12  1  0  0  0  0
  7 20  1  1  0  0  0
  7 11  1  0  0  0  0
  9 11  2  0  0  0  0
 10 22  1  0  0  0  0
 12 16  2  0  0  0  0
 13  3  1  0  0  0  0
 14 24  2  0  0  0  0
 15  2  1  0  0  0  0
 15 25  2  0  0  0  0
 16 15  1  0  0  0  0
 17 27  1  1  0  0  0
 17 23  1  0  0  0  0
 18 13  1  0  0  0  0
 19  9  1  6  0  0  0
 21  4  1  6  0  0  0
 21 19  1  0  0  0  0
 21  7  1  0  0  0  0
 22  4  2  0  0  0  0
 22 26  1  0  0  0  0
 23  5  1  0  0  0  0
 23  8  1  6  0  0  0
 24 16  1  0  0  0  0
 24 18  1  0  0  0  0
 26 19  1  0  0  0  0
 28 29  1  0  0  0  0
 29 27  1  0  0  0  0
 30  1  1  0  0  0  0
 31 30  1  0  0  0  0
 32 34  1  1  0  0  0
 32 33  1  0  0  0  0
 32 31  1  0  0  0  0
M  END
>  <MODEL>
5

>  <REMARK>
 VINA RESULT:      -7.4      2.128      6.825
  Name = 
  5 active torsions:
  status: ('A' for Active; 'I' for Inactive)
    1  A    between atoms: C_1  and  N_33
    2  A    between atoms: C_9  and  C_31
    3  A    between atoms: N_10  and  C_22
    4  A    between atoms: N_10  and  C_30
    5  A    between atoms: C_31  and  N_33
                            x       y       z     vdW  Elec       q    Type
                         _______ _______ _______ _____ _____    ______ ____

>  <TORSDO>
F 5

$$$$
=
 OpenBabel11042416073D

 34 37  0  0  1  0  0  0  0  0999 V2000
  188.3440  177.1930  146.3020 C   0  0  0  0  0  0  0  0  0  0  0  0
  193.2790  175.7020  145.6010 C   0  0  0  0  0  2  0  0  0  0  0  0
  189.3440  174.3350  141.0070 C   0  0  0  0  0  2  0  0  0  0  0  0
  193.3800  172.9400  143.7940 N   0  0  0  0  0  0  0  0  0  0  0  0
  191.8430  172.6970  141.0290 C   0  0  0  0  0  2  0  0  0  0  0  0
  189.4900  177.1370  147.1020 C   0  0  0  0  0  3  0  0  0  0  0  0
  194.2690  172.9170  141.4830 C   0  0  0  0  0  0  0  0  0  0  0  0
  190.8150  171.3040  139.3900 O   0  0  0  0  0  1  0  0  0  0  0  0
  196.2240  173.6170  142.3740 C   0  0  0  0  0  2  0  0  0  0  0  0
  193.3360  174.2070  145.8810 C   0  0  0  0  0  2  0  0  0  0  0  0
  195.4020  173.5290  141.1710 C   0  0  0  0  0  3  0  0  0  0  0  0
  190.7130  176.7530  146.5510 C   0  0  0  0  0  3  0  0  0  0  0  0
  189.3820  174.2710  142.8200 S   0  0  0  0  0  0  0  0  0  0  0  0
  188.4330  176.8500  144.9530 C   0  0  0  0  0  3  0  0  0  0  0  0
  192.1570  176.0300  144.6660 C   0  0  0  0  0  0  0  0  0  0  0  0
  190.8210  176.4170  145.1920 C   0  0  0  0  0  0  0  0  0  0  0  0
  189.4050  172.9200  140.4490 C   0  0  2  0  0  3  0  0  0  0  0  0
  189.6450  176.0630  142.9490 C   0  0  0  0  0  2  0  0  0  0  0  0
  195.6090  172.9430  143.3350 C   0  0  2  0  0  3  0  0  0  0  0  0
  193.2430  172.5590  140.4610 C   0  0  0  0  0  2  0  0  0  0  0  0
  194.3380  172.3580  142.8640 C   0  0  1  0  0  3  0  0  0  0  0  0
  194.0300  173.4920  144.7710 C   0  0  0  0  0  0  0  0  0  0  0  0
  190.8030  172.5960  139.9220 C   0  0  1  0  0  3  0  0  0  0  0  0
  189.6550  176.4690  144.3860 C   0  0  0  0  0  0  0  0  0  0  0  0
  192.3750  175.9690  143.4270 O   0  0  0  0  0  0  0  0  0  0  0  0
  195.4480  173.5190  144.6190 N   0  0  0  0  0  2  0  0  0  0  0  0
  188.4340  172.7920  139.3730 N   0  0  0  0  0  2  0  0  0  0  0  0
  188.5370  174.0550  137.3090 C   0  0  0  0  0  1  0  0  0  0  0  0
  188.2590  174.1140  138.7950 C   0  0  0  0  0  2  0  0  0  0  0  0
  187.0760  177.5730  146.8440 N   0  0  0  0  0  2  0  0  0  0  0  0
  185.8230  177.4740  146.1070 C   0  0  0  0  0  2  0  0  0  0  0  0
  185.2090  178.8500  145.9190 C   0  0  2  0  0  3  0  0  0  0  0  0
  183.8210  178.7790  146.0360 O   0  0  0  0  0  1  0  0  0  0  0  0
  185.5670  179.3750  144.5440 C   0  0  0  0  0  1  0  0  0  0  0  0
  1 30  1  0  0  0  0
  1  6  1  0  0  0  0
  2 10  1  0  0  0  0
  3 13  1  0  0  0  0
  4 22  2  0  0  0  0
 11  7  2  0  0  0  0
 11  9  1  0  0  0  0
 12  6  2  0  0  0  0
 13 18  1  0  0  0  0
 14  1  2  0  0  0  0
 15 16  1  0  0  0  0
 15  2  1  0  0  0  0
 16 12  1  0  0  0  0
 17 27  1  6  0  0  0
 17  3  1  0  0  0  0
 18 24  1  0  0  0  0
 19  9  1  6  0  0  0
 19 26  1  0  0  0  0
 20  5  1  0  0  0  0
 20  7  1  0  0  0  0
 21  7  1  6  0  0  0
 21 19  1  0  0  0  0
 21  4  1  0  0  0  0
 22 10  1  0  0  0  0
 23  8  1  1  0  0  0
 23 17  1  0  0  0  0
 23  5  1  0  0  0  0
 24 14  1  0  0  0  0
 24 16  2  0  0  0  0
 25 15  2  0  0  0  0
 26 22  1  0  0  0  0
 28 29  1  0  0  0  0
 29 27  1  0  0  0  0
 31 30  1  0  0  0  0
 32 34  1  6  0  0  0
 32 33  1  0  0  0  0
 32 31  1  0  0  0  0
M  END
>  <MODEL>
6

>  <REMARK>
 VINA RESULT:      -7.1      3.002      4.745
  Name = 
  5 active torsions:
  status: ('A' for Active; 'I' for Inactive)
    1  A    between atoms: C_1  and  N_33
    2  A    between atoms: C_9  and  C_31
    3  A    between atoms: N_10  and  C_22
    4  A    between atoms: N_10  and  C_30
    5  A    between atoms: C_31  and  N_33
                            x       y       z     vdW  Elec       q    Type
                         _______ _______ _______ _____ _____    ______ ____

>  <TORSDO>
F 5

$$$$
=
 OpenBabel11042416073D

 34 37  0  0  1  0  0  0  0  0999 V2000
  186.9060  177.7210  143.9600 C   0  0  0  0  0  0  0  0  0  0  0  0
  187.9690  173.4540  141.1790 C   0  0  0  0  0  2  0  0  0  0  0  0
  192.7080  175.8830  144.3570 C   0  0  0  0  0  2  0  0  0  0  0  0
  191.0970  173.5440  140.1230 N   0  0  0  0  0  0  0  0  0  0  0  0
  193.5130  174.0930  142.1040 C   0  0  0  0  0  2  0  0  0  0  0  0
  186.2270  176.9640  143.0000 C   0  0  0  0  0  3  0  0  0  0  0  0
  192.8190  171.9910  140.9910 C   0  0  1  0  0  3  0  0  0  0  0  0
  195.7430  174.8740  142.4240 O   0  0  0  0  0  1  0  0  0  0  0  0
  191.5250  170.3230  140.1860 C   0  0  0  0  0  3  0  0  0  0  0  0
  188.6910  173.9120  139.9200 C   0  0  0  0  0  2  0  0  0  0  0  0
  192.5780  170.6940  141.1260 C   0  0  0  0  0  3  0  0  0  0  0  0
  186.7910  175.7880  142.5060 C   0  0  0  0  0  3  0  0  0  0  0  0
  191.3470  176.4610  143.3060 S   0  0  0  0  0  0  0  0  0  0  0  0
  188.1560  177.2950  144.4110 C   0  0  0  0  0  3  0  0  0  0  0  0
  188.5790  174.0690  142.4000 C   0  0  0  0  0  0  0  0  0  0  0  0
  188.0420  175.3390  142.9580 C   0  0  0  0  0  0  0  0  0  0  0  0
  194.0260  176.0410  143.6120 C   0  0  2  0  0  3  0  0  0  0  0  0
  190.0950  175.7640  144.4220 C   0  0  0  0  0  2  0  0  0  0  0  0
  191.2600  171.3810  139.4340 C   0  0  2  0  0  3  0  0  0  0  0  0
  193.9200  172.6820  141.7230 C   0  0  0  0  0  2  0  0  0  0  0  0
  192.1000  172.5380  139.8040 C   0  0  1  0  0  3  0  0  0  0  0  0
  189.9390  173.1230  139.7150 C   0  0  0  0  0  0  0  0  0  0  0  0
  194.5190  174.6980  143.0740 C   0  0  1  0  0  3  0  0  0  0  0  0
  188.7300  176.1130  143.9280 C   0  0  0  0  0  0  0  0  0  0  0  0
  189.5550  173.4840  142.9400 O   0  0  0  0  0  0  0  0  0  0  0  0
  189.9200  171.7860  139.2190 N   0  0  0  0  0  2  0  0  0  0  0  0
  195.0190  176.6010  144.5160 N   0  0  0  0  0  2  0  0  0  0  0  0
  194.4560  177.2810  146.7720 C   0  0  0  0  0  1  0  0  0  0  0  0
  194.7100  176.1100  145.8480 C   0  0  0  0  0  2  0  0  0  0  0  0
  186.3550  178.9370  144.4760 N   0  0  0  0  0  2  0  0  0  0  0  0
  184.9490  179.1020  144.8170 C   0  0  0  0  0  2  0  0  0  0  0  0
  184.7240  178.8160  146.2920 C   0  0  2  0  0  3  0  0  0  0  0  0
  185.7660  179.3500  147.0510 O   0  0  0  0  0  1  0  0  0  0  0  0
  184.6660  177.3190  146.5080 C   0  0  0  0  0  1  0  0  0  0  0  0
  1 14  1  0  0  0  0
  1 30  1  0  0  0  0
  2 15  1  0  0  0  0
  5 23  1  0  0  0  0
  6  1  2  0  0  0  0
  7 11  1  6  0  0  0
  7 20  1  0  0  0  0
  9 11  2  0  0  0  0
 10  2  1  0  0  0  0
 12 16  2  0  0  0  0
 12  6  1  0  0  0  0
 13  3  1  0  0  0  0
 13 18  1  0  0  0  0
 15 25  2  0  0  0  0
 15 16  1  0  0  0  0
 16 24  1  0  0  0  0
 17  3  1  0  0  0  0
 17 27  1  1  0  0  0
 19 21  1  0  0  0  0
 19  9  1  1  0  0  0
 20  5  1  0  0  0  0
 21  4  1  1  0  0  0
 21  7  1  0  0  0  0
 22 10  1  0  0  0  0
 22  4  2  0  0  0  0
 23  8  1  6  0  0  0
 23 17  1  0  0  0  0
 24 14  2  0  0  0  0
 24 18  1  0  0  0  0
 26 19  1  0  0  0  0
 26 22  1  0  0  0  0
 27 29  1  0  0  0  0
 29 28  1  0  0  0  0
 30 31  1  0  0  0  0
 31 32  1  0  0  0  0
 32 34  1  6  0  0  0
 32 33  1  0  0  0  0
M  END
>  <MODEL>
7

>  <REMARK>
 VINA RESULT:      -7.1      3.238      6.237
  Name = 
  5 active torsions:
  status: ('A' for Active; 'I' for Inactive)
    1  A    between atoms: C_1  and  N_33
    2  A    between atoms: C_9  and  C_31
    3  A    between atoms: N_10  and  C_22
    4  A    between atoms: N_10  and  C_30
    5  A    between atoms: C_31  and  N_33
                            x       y       z     vdW  Elec       q    Type
                         _______ _______ _______ _____ _____    ______ ____

>  <TORSDO>
F 5

$$$$
=
 OpenBabel11042416073D

 34 37  0  0  1  0  0  0  0  0999 V2000
  187.1510  177.4780  143.6090 C   0  0  0  0  0  0  0  0  0  0  0  0
  188.3510  173.1600  140.9680 C   0  0  0  0  0  2  0  0  0  0  0  0
  192.3930  174.8870  145.3420 C   0  0  0  0  0  2  0  0  0  0  0  0
  191.6310  172.8560  140.7280 N   0  0  0  0  0  0  0  0  0  0  0  0
  193.5160  173.0480  143.2730 C   0  0  0  0  0  2  0  0  0  0  0  0
  186.6500  176.8350  142.4730 C   0  0  0  0  0  3  0  0  0  0  0  0
  192.8740  171.0750  141.9170 C   0  0  1  0  0  3  0  0  0  0  0  0
  195.6710  173.5220  144.1750 O   0  0  0  0  0  1  0  0  0  0  0  0
  191.6310  169.6070  140.7330 C   0  0  0  0  0  3  0  0  0  0  0  0
  189.4190  173.5420  139.9530 C   0  0  0  0  0  2  0  0  0  0  0  0
  192.4490  169.8200  141.9230 C   0  0  0  0  0  3  0  0  0  0  0  0
  187.1710  175.6030  142.0760 C   0  0  0  0  0  3  0  0  0  0  0  0
  191.4240  175.6570  144.0160 S   0  0  0  0  0  0  0  0  0  0  0  0
  188.1840  176.8840  144.3340 C   0  0  0  0  0  3  0  0  0  0  0  0
  188.7030  173.6670  142.3320 C   0  0  0  0  0  0  0  0  0  0  0  0
  188.2030  174.9860  142.8020 C   0  0  0  0  0  0  0  0  0  0  0  0
  193.8660  174.8830  144.9570 C   0  0  2  0  0  3  0  0  0  0  0  0
  189.8550  175.1110  144.7490 C   0  0  0  0  0  2  0  0  0  0  0  0
  191.6960  170.7040  139.9930 C   0  0  2  0  0  3  0  0  0  0  0  0
  193.8300  171.6020  142.9340 C   0  0  0  0  0  2  0  0  0  0  0  0
  192.5510  171.7330  140.6180 C   0  0  1  0  0  3  0  0  0  0  0  0
  190.5720  172.5990  140.0240 C   0  0  0  0  0  0  0  0  0  0  0  0
  194.3100  173.4970  144.4910 C   0  0  1  0  0  3  0  0  0  0  0  0
  188.7120  175.6450  143.9500 C   0  0  0  0  0  0  0  0  0  0  0  0
  189.4310  172.9490  143.0670 O   0  0  0  0  0  0  0  0  0  0  0  0
  190.5140  171.2850  139.4720 N   0  0  0  0  0  2  0  0  0  0  0  0
  194.6590  175.2920  146.1060 N   0  0  0  0  0  2  0  0  0  0  0  0
  194.8240  177.6900  145.8030 C   0  0  0  0  0  1  0  0  0  0  0  0
  194.1350  176.5710  146.5540 C   0  0  0  0  0  2  0  0  0  0  0  0
  186.6410  178.7460  144.0330 N   0  0  0  0  0  2  0  0  0  0  0  0
  185.9760  178.9610  145.3110 C   0  0  0  0  0  2  0  0  0  0  0  0
  184.7540  178.0660  145.4290 C   0  0  2  0  0  3  0  0  0  0  0  0
  183.6460  178.8130  145.8290 O   0  0  0  0  0  1  0  0  0  0  0  0
  185.0230  176.9840  146.4530 C   0  0  0  0  0  1  0  0  0  0  0  0
  1 30  1  0  0  0  0
  1 14  1  0  0  0  0
  2 15  1  0  0  0  0
  5 23  1  0  0  0  0
  6  1  2  0  0  0  0
  7 11  1  6  0  0  0
  7 20  1  0  0  0  0
  9 11  2  0  0  0  0
 10 22  1  0  0  0  0
 10  2  1  0  0  0  0
 12  6  1  0  0  0  0
 12 16  2  0  0  0  0
 13 18  1  0  0  0  0
 13  3  1  0  0  0  0
 15 16  1  0  0  0  0
 15 25  2  0  0  0  0
 16 24  1  0  0  0  0
 17  3  1  0  0  0  0
 17 27  1  1  0  0  0
 19 21  1  0  0  0  0
 19  9  1  1  0  0  0
 20  5  1  0  0  0  0
 21  4  1  1  0  0  0
 21  7  1  0  0  0  0
 22  4  2  0  0  0  0
 23  8  1  6  0  0  0
 23 17  1  0  0  0  0
 24 14  2  0  0  0  0
 24 18  1  0  0  0  0
 26 19  1  0  0  0  0
 26 22  1  0  0  0  0
 27 29  1  0  0  0  0
 28 29  1  0  0  0  0
 30 31  1  0  0  0  0
 31 32  1  0  0  0  0
 32 33  1  0  0  0  0
 32 34  1  1  0  0  0
M  END
>  <MODEL>
8

>  <REMARK>
 VINA RESULT:      -7.1      3.080      6.285
  Name = 
  5 active torsions:
  status: ('A' for Active; 'I' for Inactive)
    1  A    between atoms: C_1  and  N_33
    2  A    between atoms: C_9  and  C_31
    3  A    between atoms: N_10  and  C_22
    4  A    between atoms: N_10  and  C_30
    5  A    between atoms: C_31  and  N_33
                            x       y       z     vdW  Elec       q    Type
                         _______ _______ _______ _____ _____    ______ ____

>  <TORSDO>
F 5

$$$$
=
 OpenBabel11042416073D

 34 37  0  0  1  0  0  0  0  0999 V2000
  188.0760  176.9760  144.9970 C   0  0  0  0  0  0  0  0  0  0  0  0
  193.2370  176.6070  145.5360 C   0  0  0  0  0  2  0  0  0  0  0  0
  190.7040  173.0750  141.1140 C   0  0  0  0  0  2  0  0  0  0  0  0
  194.2410  173.5600  144.7540 N   0  0  0  0  0  0  0  0  0  0  0  0
  193.4030  172.1750  142.0250 C   0  0  0  0  0  2  0  0  0  0  0  0
  189.0140  177.4320  145.9280 C   0  0  0  0  0  3  0  0  0  0  0  0
  195.5910  173.1040  142.7290 C   0  0  1  0  0  3  0  0  0  0  0  0
  193.0310  170.1680  140.7940 O   0  0  0  0  0  1  0  0  0  0  0  0
  197.1420  174.4850  143.6180 C   0  0  0  0  0  3  0  0  0  0  0  0
  193.5150  175.3140  146.2900 C   0  0  0  0  0  2  0  0  0  0  0  0
  196.6280  173.8620  142.4020 C   0  0  0  0  0  3  0  0  0  0  0  0
  190.3760  177.2200  145.7140 C   0  0  0  0  0  3  0  0  0  0  0  0
  190.3660  173.5370  142.8360 S   0  0  0  0  0  0  0  0  0  0  0  0
  188.5130  176.2980  143.8580 C   0  0  0  0  0  3  0  0  0  0  0  0
  192.2990  176.3710  144.3940 C   0  0  0  0  0  0  0  0  0  0  0  0
  190.8330  176.5510  144.5670 C   0  0  0  0  0  0  0  0  0  0  0  0
  191.1490  171.6200  141.0580 C   0  0  2  0  0  3  0  0  0  0  0  0
  190.2520  175.3000  142.4140 C   0  0  0  0  0  2  0  0  0  0  0  0
  196.4750  173.9810  144.6460 C   0  0  2  0  0  3  0  0  0  0  0  0
  194.8930  172.2310  141.7400 C   0  0  0  0  0  2  0  0  0  0  0  0
  195.4670  172.9920  144.2120 C   0  0  1  0  0  3  0  0  0  0  0  0
  194.5510  174.5080  145.5830 C   0  0  0  0  0  0  0  0  0  0  0  0
  192.6620  171.5130  140.8720 C   0  0  1  0  0  3  0  0  0  0  0  0
  189.8770  176.0850  143.6280 C   0  0  0  0  0  0  0  0  0  0  0  0
  192.7840  176.0180  143.2860 O   0  0  0  0  0  0  0  0  0  0  0  0
  195.9380  174.8380  145.6370 N   0  0  0  0  0  2  0  0  0  0  0  0
  190.4710  170.9590  139.9530 N   0  0  0  0  0  2  0  0  0  0  0  0
  189.6640  171.7340  137.8050 C   0  0  0  0  0  1  0  0  0  0  0  0
  189.6400  171.9570  139.3020 C   0  0  0  0  0  2  0  0  0  0  0  0
  186.6720  177.1700  145.1970 N   0  0  0  0  0  2  0  0  0  0  0  0
  185.6800  177.0170  144.1420 C   0  0  0  0  0  2  0  0  0  0  0  0
  184.9310  178.3200  143.9250 C   0  0  2  0  0  3  0  0  0  0  0  0
  185.4310  178.9830  142.8040 O   0  0  0  0  0  1  0  0  0  0  0  0
  185.1000  179.2030  145.1440 C   0  0  0  0  0  1  0  0  0  0  0  0
  1 30  1  0  0  0  0
  1  6  1  0  0  0  0
  2 10  1  0  0  0  0
  3 13  1  0  0  0  0
  4 22  2  0  0  0  0
  7 20  1  6  0  0  0
  7 21  1  0  0  0  0
 11  7  1  0  0  0  0
 11  9  2  0  0  0  0
 12  6  2  0  0  0  0
 14  1  2  0  0  0  0
 15 16  1  0  0  0  0
 15  2  1  0  0  0  0
 16 12  1  0  0  0  0
 17 27  1  6  0  0  0
 17  3  1  0  0  0  0
 18 13  1  0  0  0  0
 18 24  1  0  0  0  0
 19  9  1  6  0  0  0
 19 26  1  0  0  0  0
 20  5  1  0  0  0  0
 21 19  1  0  0  0  0
 21  4  1  6  0  0  0
 22 26  1  0  0  0  0
 22 10  1  0  0  0  0
 23  8  1  1  0  0  0
 23 17  1  0  0  0  0
 23  5  1  0  0  0  0
 24 14  1  0  0  0  0
 24 16  2  0  0  0  0
 25 15  2  0  0  0  0
 28 29  1  0  0  0  0
 29 27  1  0  0  0  0
 31 30  1  0  0  0  0
 32 31  1  0  0  0  0
 32 34  1  1  0  0  0
 33 32  1  0  0  0  0
M  END
>  <MODEL>
9

>  <REMARK>
 VINA RESULT:      -6.7      3.049      4.602
  Name = 
  5 active torsions:
  status: ('A' for Active; 'I' for Inactive)
    1  A    between atoms: C_1  and  N_33
    2  A    between atoms: C_9  and  C_31
    3  A    between atoms: N_10  and  C_22
    4  A    between atoms: N_10  and  C_30
    5  A    between atoms: C_31  and  N_33
                            x       y       z     vdW  Elec       q    Type
                         _______ _______ _______ _____ _____    ______ ____

>  <TORSDO>
F 5

$$$$
