=
 OpenBabel11042417373D

 33 36  0  0  1  0  0  0  0  0999 V2000
  187.9270  173.0460  141.8190 C   0  0  0  0  0  1  0  0  0  0  0  0
  188.9200  173.5730  142.8010 C   0  0  0  0  0  0  0  0  0  0  0  0
  187.7760  176.0220  140.9090 S   0  0  0  0  0  0  0  0  0  0  0  0
  188.2630  176.0100  142.4760 C   0  0  0  0  0  0  0  0  0  0  0  0
  189.8460  175.5020  144.1090 C   0  0  0  0  0  0  0  0  0  0  0  0
  189.6250  176.8600  144.1660 C   0  0  0  0  0  0  0  0  0  0  0  0
  191.4730  175.6300  145.8130 C   0  0  0  0  0  0  0  0  0  0  0  0
  192.4490  174.9590  146.7090 C   0  0  0  0  0  1  0  0  0  0  0  0
  189.0110  174.8880  143.0860 C   0  0  0  0  0  0  0  0  0  0  0  0
  190.7500  174.8930  144.9210 N   0  0  0  0  0  0  0  0  0  0  0  0
  190.3630  177.6500  145.0500 C   0  0  0  0  0  3  0  0  0  0  0  0
  188.5760  177.3080  143.1910 C   0  0  2  0  0  3  0  0  0  0  0  0
  191.2970  177.0230  145.8870 C   0  0  0  0  0  3  0  0  0  0  0  0
  186.5400  176.7470  144.5470 C   0  0  0  0  0  3  0  0  0  0  0  0
  185.4830  176.9730  145.3240 C   0  0  0  0  0  3  0  0  0  0  0  0
  187.3330  177.8510  143.9230 C   0  0  2  0  0  3  0  0  0  0  0  0
  186.4580  178.6230  142.9870 C   0  0  0  0  0  3  0  0  0  0  0  0
  184.2110  178.4950  146.8960 C   0  0  0  0  0  1  0  0  0  0  0  0
  184.8540  179.3030  144.7070 C   0  0  0  0  0  3  0  0  0  0  0  0
  184.9120  178.3050  145.5990 C   0  0  0  0  0  0  0  0  0  0  0  0
  185.4010  179.2700  143.3780 N   0  0  0  0  0  0  0  0  0  0  0  0
  189.8000  172.5710  143.4730 C   0  0  0  0  0  2  0  0  0  0  0  0
  190.8580  172.0810  142.5000 C   0  0  0  0  0  2  0  0  0  0  0  0
  193.1110  172.7310  143.6730 C   0  0  0  0  0  0  0  0  0  0  0  0
  194.2090  173.7070  143.4380 C   0  0  0  0  0  2  0  0  0  0  0  0
  193.7360  174.3890  142.2380 N   0  0  0  0  0  0  0  0  0  0  0  0
  193.0450  171.8840  144.6500 N   0  0  0  0  0  0  0  0  0  0  0  0
  192.4830  173.8520  141.8160 C   0  0  0  0  0  3  0  0  0  0  0  0
  192.1020  172.8910  142.6400 C   0  0  0  0  0  0  0  0  0  0  0  0
  194.7310  170.5840  145.7950 C   0  0  0  0  0  1  0  0  0  0  0  0
  194.0450  171.8060  145.5920 O   0  0  0  0  0  0  0  0  0  0  0  0
  194.4250  175.4630  141.5360 C   0  0  0  0  0  2  0  0  0  0  0  0
  195.2370  176.1840  142.4140 O   0  0  0  0  0  1  0  0  0  0  0  0
  1  2  1  0  0  0  0
  2  9  2  0  0  0  0
  2 22  1  0  0  0  0
  3  4  2  0  0  0  0
  4  9  1  0  0  0  0
  5  6  2  0  0  0  0
  5 10  1  0  0  0  0
  6 11  1  0  0  0  0
  7 13  1  0  0  0  0
  7  8  1  0  0  0  0
  9  5  1  0  0  0  0
 10  7  2  0  0  0  0
 11 13  2  0  0  0  0
 12  4  1  1  0  0  0
 12 16  1  0  0  0  0
 12  6  1  0  0  0  0
 14 15  2  0  0  0  0
 15 20  1  0  0  0  0
 16 17  1  6  0  0  0
 16 14  1  0  0  0  0
 17 21  2  0  0  0  0
 19 20  2  0  0  0  0
 20 18  1  0  0  0  0
 21 19  1  0  0  0  0
 23 29  1  0  0  0  0
 23 22  1  0  0  0  0
 24 27  2  0  0  0  0
 25 24  1  0  0  0  0
 26 25  1  0  0  0  0
 27 31  1  0  0  0  0
 28 26  1  0  0  0  0
 28 29  2  0  0  0  0
 29 24  1  0  0  0  0
 31 30  1  0  0  0  0
 32 26  1  0  0  0  0
 32 33  1  0  0  0  0
M  END
>  <MODEL>
1

>  <REMARK>
 VINA RESULT:      -7.3      0.000      0.000
  Name = 
  6 active torsions:
  status: ('A' for Active; 'I' for Inactive)
    1  A    between atoms: C_2  and  C_22
    2  A    between atoms: C_10  and  N_18
    3  A    between atoms: C_11  and  C_32
    4  A    between atoms: N_19  and  O_25
    5  A    between atoms: C_22  and  C_28
    6  A    between atoms: C_28  and  C_30
                            x       y       z     vdW  Elec       q    Type
                         _______ _______ _______ _____ _____    ______ ____

>  <TORSDO>
F 6

$$$$
=
 OpenBabel11042417373D

 33 36  0  0  1  0  0  0  0  0999 V2000
  187.8950  172.8570  142.0100 C   0  0  0  0  0  1  0  0  0  0  0  0
  188.9280  173.4090  142.9350 C   0  0  0  0  0  0  0  0  0  0  0  0
  187.8170  175.7760  140.9220 S   0  0  0  0  0  0  0  0  0  0  0  0
  188.3410  175.8420  142.4750 C   0  0  0  0  0  0  0  0  0  0  0  0
  189.9470  175.3830  144.1000 C   0  0  0  0  0  0  0  0  0  0  0  0
  189.7710  176.7480  144.0790 C   0  0  0  0  0  0  0  0  0  0  0  0
  191.6180  175.5600  145.7560 C   0  0  0  0  0  0  0  0  0  0  0  0
  192.5940  174.9130  146.6700 C   0  0  0  0  0  1  0  0  0  0  0  0
  189.0680  174.7360  143.1370 C   0  0  0  0  0  0  0  0  0  0  0  0
  190.8510  174.7940  144.9290 N   0  0  0  0  0  0  0  0  0  0  0  0
  190.5550  177.5650  144.8960 C   0  0  0  0  0  3  0  0  0  0  0  0
  188.7130  177.1710  143.1010 C   0  0  2  0  0  3  0  0  0  0  0  0
  191.4890  176.9600  145.7480 C   0  0  0  0  0  3  0  0  0  0  0  0
  186.6350  176.7520  144.4450 C   0  0  0  0  0  3  0  0  0  0  0  0
  185.5910  177.0510  145.2160 C   0  0  0  0  0  3  0  0  0  0  0  0
  187.5070  177.7980  143.8250 C   0  0  2  0  0  3  0  0  0  0  0  0
  186.6930  178.6300  142.8840 C   0  0  0  0  0  3  0  0  0  0  0  0
  184.4190  178.6580  146.7800 C   0  0  0  0  0  1  0  0  0  0  0  0
  185.1290  179.4190  144.5950 C   0  0  0  0  0  3  0  0  0  0  0  0
  185.1130  178.4190  145.4880 C   0  0  0  0  0  0  0  0  0  0  0  0
  185.6810  179.3480  143.2690 N   0  0  0  0  0  0  0  0  0  0  0  0
  189.7910  172.4210  143.6480 C   0  0  0  0  0  2  0  0  0  0  0  0
  190.8610  171.8990  142.7050 C   0  0  0  0  0  2  0  0  0  0  0  0
  193.2380  172.8470  143.2760 C   0  0  0  0  0  0  0  0  0  0  0  0
  194.3750  172.4560  144.1520 C   0  0  0  0  0  2  0  0  0  0  0  0
  193.8730  171.2180  144.7400 N   0  0  0  0  0  0  0  0  0  0  0  0
  193.1950  173.8880  142.5080 N   0  0  0  0  0  0  0  0  0  0  0  0
  192.5660  170.9250  144.2510 C   0  0  0  0  0  3  0  0  0  0  0  0
  192.1820  171.8570  143.3960 C   0  0  0  0  0  0  0  0  0  0  0  0
  194.1450  176.0380  143.0710 C   0  0  0  0  0  1  0  0  0  0  0  0
  194.2490  174.7710  142.4480 O   0  0  0  0  0  0  0  0  0  0  0  0
  194.5760  170.3810  145.7020 C   0  0  0  0  0  2  0  0  0  0  0  0
  194.1920  169.0460  145.5660 O   0  0  0  0  0  1  0  0  0  0  0  0
  1  2  1  0  0  0  0
  2  9  2  0  0  0  0
  2 22  1  0  0  0  0
  3  4  2  0  0  0  0
  4  9  1  0  0  0  0
  5 10  1  0  0  0  0
  6  5  2  0  0  0  0
  6 11  1  0  0  0  0
  7  8  1  0  0  0  0
  9  5  1  0  0  0  0
 10  7  2  0  0  0  0
 11 13  2  0  0  0  0
 12  4  1  1  0  0  0
 12 16  1  0  0  0  0
 12  6  1  0  0  0  0
 13  7  1  0  0  0  0
 14 15  2  0  0  0  0
 15 20  1  0  0  0  0
 16 17  1  6  0  0  0
 16 14  1  0  0  0  0
 17 21  2  0  0  0  0
 19 20  2  0  0  0  0
 20 18  1  0  0  0  0
 21 19  1  0  0  0  0
 23 29  1  0  0  0  0
 23 22  1  0  0  0  0
 24 29  1  0  0  0  0
 24 25  1  0  0  0  0
 25 26  1  0  0  0  0
 26 32  1  0  0  0  0
 27 24  2  0  0  0  0
 28 26  1  0  0  0  0
 29 28  2  0  0  0  0
 31 27  1  0  0  0  0
 31 30  1  0  0  0  0
 33 32  1  0  0  0  0
M  END
>  <MODEL>
2

>  <REMARK>
 VINA RESULT:      -7.2      0.853      2.499
  Name = 
  6 active torsions:
  status: ('A' for Active; 'I' for Inactive)
    1  A    between atoms: C_2  and  C_22
    2  A    between atoms: C_10  and  N_18
    3  A    between atoms: C_11  and  C_32
    4  A    between atoms: N_19  and  O_25
    5  A    between atoms: C_22  and  C_28
    6  A    between atoms: C_28  and  C_30
                            x       y       z     vdW  Elec       q    Type
                         _______ _______ _______ _____ _____    ______ ____

>  <TORSDO>
F 6

$$$$
=
 OpenBabel11042417373D

 33 36  0  0  1  0  0  0  0  0999 V2000
  191.1910  175.7660  148.1200 C   0  0  0  0  0  1  0  0  0  0  0  0
  190.7380  175.2150  146.8090 C   0  0  0  0  0  0  0  0  0  0  0  0
  193.7470  176.5360  146.5130 S   0  0  0  0  0  0  0  0  0  0  0  0
  193.0530  175.2590  145.7530 C   0  0  0  0  0  0  0  0  0  0  0  0
  191.3000  174.3270  144.5310 C   0  0  0  0  0  0  0  0  0  0  0  0
  192.4410  174.1830  143.7760 C   0  0  0  0  0  0  0  0  0  0  0  0
  189.9810  173.3400  142.8430 C   0  0  0  0  0  0  0  0  0  0  0  0
  188.6580  172.8710  142.3550 C   0  0  0  0  0  1  0  0  0  0  0  0
  191.6010  174.9740  145.8000 C   0  0  0  0  0  0  0  0  0  0  0  0
  190.0880  173.9080  144.0780 N   0  0  0  0  0  0  0  0  0  0  0  0
  192.3660  173.6270  142.4970 C   0  0  0  0  0  3  0  0  0  0  0  0
  193.6610  174.7000  144.4830 C   0  0  2  0  0  3  0  0  0  0  0  0
  191.1180  173.1970  142.0270 C   0  0  0  0  0  3  0  0  0  0  0  0
  193.9650  172.4200  145.4860 C   0  0  0  0  0  3  0  0  0  0  0  0
  194.5840  171.2740  145.7630 C   0  0  0  0  0  3  0  0  0  0  0  0
  194.6470  173.5590  144.7970 C   0  0  2  0  0  3  0  0  0  0  0  0
  195.7770  174.0490  145.6460 C   0  0  0  0  0  3  0  0  0  0  0  0
  196.4130  169.6000  145.2570 C   0  0  0  0  0  1  0  0  0  0  0  0
  196.9870  171.9200  145.6410 C   0  0  0  0  0  3  0  0  0  0  0  0
  196.0120  171.0080  145.5110 C   0  0  0  0  0  0  0  0  0  0  0  0
  196.7960  173.3070  145.9640 N   0  0  0  0  0  0  0  0  0  0  0  0
  189.2800  174.9210  146.6690 C   0  0  0  0  0  2  0  0  0  0  0  0
  188.4760  176.1910  146.8880 C   0  0  0  0  0  2  0  0  0  0  0  0
  188.8360  177.4790  144.6330 C   0  0  0  0  0  0  0  0  0  0  0  0
  188.0130  177.8200  143.4410 C   0  0  0  0  0  2  0  0  0  0  0  0
  186.7280  177.2310  143.8000 N   0  0  0  0  0  0  0  0  0  0  0  0
  190.0760  177.8020  144.8170 N   0  0  0  0  0  0  0  0  0  0  0  0
  186.8030  176.6040  145.0790 C   0  0  0  0  0  3  0  0  0  0  0  0
  188.0180  176.7420  145.5810 C   0  0  0  0  0  0  0  0  0  0  0  0
  191.8130  177.8850  143.1380 C   0  0  0  0  0  1  0  0  0  0  0  0
  190.7740  178.5120  143.8670 O   0  0  0  0  0  0  0  0  0  0  0  0
  185.5200  177.2510  142.9860 C   0  0  0  0  0  2  0  0  0  0  0  0
  184.4880  177.9160  143.6520 O   0  0  0  0  0  1  0  0  0  0  0  0
  2  1  1  0  0  0  0
  4  9  1  0  0  0  0
  4  3  2  0  0  0  0
  5  9  1  0  0  0  0
  6  5  2  0  0  0  0
  7 10  2  0  0  0  0
  8  7  1  0  0  0  0
  9  2  2  0  0  0  0
 10  5  1  0  0  0  0
 11  6  1  0  0  0  0
 12  6  1  6  0  0  0
 12 16  1  0  0  0  0
 12  4  1  0  0  0  0
 13 11  2  0  0  0  0
 13  7  1  0  0  0  0
 14 15  2  0  0  0  0
 16 14  1  1  0  0  0
 16 17  1  0  0  0  0
 17 21  2  0  0  0  0
 18 20  1  0  0  0  0
 19 21  1  0  0  0  0
 20 19  2  0  0  0  0
 20 15  1  0  0  0  0
 22  2  1  0  0  0  0
 22 23  1  0  0  0  0
 24 27  2  0  0  0  0
 24 29  1  0  0  0  0
 25 26  1  0  0  0  0
 25 24  1  0  0  0  0
 26 28  1  0  0  0  0
 28 29  2  0  0  0  0
 29 23  1  0  0  0  0
 30 31  1  0  0  0  0
 31 27  1  0  0  0  0
 32 33  1  0  0  0  0
 32 26  1  0  0  0  0
M  END
>  <MODEL>
3

>  <REMARK>
 VINA RESULT:      -7.2      3.142      8.169
  Name = 
  6 active torsions:
  status: ('A' for Active; 'I' for Inactive)
    1  A    between atoms: C_2  and  C_22
    2  A    between atoms: C_10  and  N_18
    3  A    between atoms: C_11  and  C_32
    4  A    between atoms: N_19  and  O_25
    5  A    between atoms: C_22  and  C_28
    6  A    between atoms: C_28  and  C_30
                            x       y       z     vdW  Elec       q    Type
                         _______ _______ _______ _____ _____    ______ ____

>  <TORSDO>
F 6

$$$$
=
 OpenBabel11042417373D

 33 36  0  0  1  0  0  0  0  0999 V2000
  187.8210  172.9300  141.8530 C   0  0  0  0  0  1  0  0  0  0  0  0
  188.8860  173.4430  142.7640 C   0  0  0  0  0  0  0  0  0  0  0  0
  187.6920  175.8970  140.9100 S   0  0  0  0  0  0  0  0  0  0  0  0
  188.2730  175.8920  142.4440 C   0  0  0  0  0  0  0  0  0  0  0  0
  189.9410  175.3640  143.9850 C   0  0  0  0  0  0  0  0  0  0  0  0
  189.7590  176.7280  144.0350 C   0  0  0  0  0  0  0  0  0  0  0  0
  191.6710  175.4710  145.5840 C   0  0  0  0  0  0  0  0  0  0  0  0
  192.6830  174.7860  146.4290 C   0  0  0  0  0  1  0  0  0  0  0  0
  189.0290  174.7590  143.0240 C   0  0  0  0  0  0  0  0  0  0  0  0
  190.8770  174.7410  144.7490 N   0  0  0  0  0  0  0  0  0  0  0  0
  190.5700  177.5090  144.8600 C   0  0  0  0  0  3  0  0  0  0  0  0
  188.6630  177.1910  143.1190 C   0  0  2  0  0  3  0  0  0  0  0  0
  191.5370  176.8690  145.6480 C   0  0  0  0  0  3  0  0  0  0  0  0
  186.6570  176.6980  144.5430 C   0  0  0  0  0  3  0  0  0  0  0  0
  185.6460  176.9560  145.3700 C   0  0  0  0  0  3  0  0  0  0  0  0
  187.4830  177.7760  143.9170 C   0  0  2  0  0  3  0  0  0  0  0  0
  186.6130  178.6220  143.0400 C   0  0  0  0  0  3  0  0  0  0  0  0
  184.5230  178.4960  147.0360 C   0  0  0  0  0  1  0  0  0  0  0  0
  185.1190  179.3340  144.8440 C   0  0  0  0  0  3  0  0  0  0  0  0
  185.1590  178.3080  145.7060 C   0  0  0  0  0  0  0  0  0  0  0  0
  185.6090  179.3110  143.4930 N   0  0  0  0  0  0  0  0  0  0  0  0
  189.7790  172.4270  143.3970 C   0  0  0  0  0  2  0  0  0  0  0  0
  190.5810  171.7090  142.3250 C   0  0  0  0  0  2  0  0  0  0  0  0
  191.6090  173.2280  140.4510 C   0  0  0  0  0  0  0  0  0  0  0  0
  192.8120  174.0900  140.2980 C   0  0  0  0  0  2  0  0  0  0  0  0
  193.4640  173.9060  141.5910 N   0  0  0  0  0  0  0  0  0  0  0  0
  190.6980  173.0310  139.5530 N   0  0  0  0  0  0  0  0  0  0  0  0
  192.7040  173.0240  142.4150 C   0  0  0  0  0  3  0  0  0  0  0  0
  191.6260  172.6160  141.7690 C   0  0  0  0  0  0  0  0  0  0  0  0
  189.5790  173.9170  137.6020 C   0  0  0  0  0  1  0  0  0  0  0  0
  190.7660  173.6460  138.3240 O   0  0  0  0  0  0  0  0  0  0  0  0
  194.7090  174.5290  142.0180 C   0  0  0  0  0  2  0  0  0  0  0  0
  194.4890  175.3720  143.1090 O   0  0  0  0  0  1  0  0  0  0  0  0
  1  2  1  0  0  0  0
  2  9  2  0  0  0  0
  2 22  1  0  0  0  0
  3  4  2  0  0  0  0
  4  9  1  0  0  0  0
  5  6  2  0  0  0  0
  5 10  1  0  0  0  0
  6 11  1  0  0  0  0
  7 13  1  0  0  0  0
  7  8  1  0  0  0  0
  9  5  1  0  0  0  0
 10  7  2  0  0  0  0
 11 13  2  0  0  0  0
 12  4  1  1  0  0  0
 12 16  1  0  0  0  0
 12  6  1  0  0  0  0
 14 15  2  0  0  0  0
 15 20  1  0  0  0  0
 16 17  1  6  0  0  0
 16 14  1  0  0  0  0
 17 21  2  0  0  0  0
 19 20  2  0  0  0  0
 20 18  1  0  0  0  0
 21 19  1  0  0  0  0
 23 22  1  0  0  0  0
 24 29  1  0  0  0  0
 25 24  1  0  0  0  0
 25 26  1  0  0  0  0
 26 32  1  0  0  0  0
 26 28  1  0  0  0  0
 27 24  2  0  0  0  0
 29 23  1  0  0  0  0
 29 28  2  0  0  0  0
 30 31  1  0  0  0  0
 31 27  1  0  0  0  0
 32 33  1  0  0  0  0
M  END
>  <MODEL>
4

>  <REMARK>
 VINA RESULT:      -7.2      1.695      2.678
  Name = 
  6 active torsions:
  status: ('A' for Active; 'I' for Inactive)
    1  A    between atoms: C_2  and  C_22
    2  A    between atoms: C_10  and  N_18
    3  A    between atoms: C_11  and  C_32
    4  A    between atoms: N_19  and  O_25
    5  A    between atoms: C_22  and  C_28
    6  A    between atoms: C_28  and  C_30
                            x       y       z     vdW  Elec       q    Type
                         _______ _______ _______ _____ _____    ______ ____

>  <TORSDO>
F 6

$$$$
=
 OpenBabel11042417373D

 33 36  0  0  1  0  0  0  0  0999 V2000
  191.3660  176.5090  147.5640 C   0  0  0  0  0  1  0  0  0  0  0  0
  191.1020  176.0970  146.1550 C   0  0  0  0  0  0  0  0  0  0  0  0
  194.2820  176.8890  146.5360 S   0  0  0  0  0  0  0  0  0  0  0  0
  193.5580  175.7820  145.5660 C   0  0  0  0  0  0  0  0  0  0  0  0
  191.9590  175.2160  143.9680 C   0  0  0  0  0  0  0  0  0  0  0  0
  193.1900  174.9070  143.4360 C   0  0  0  0  0  0  0  0  0  0  0  0
  190.8640  174.5400  141.9900 C   0  0  0  0  0  0  0  0  0  0  0  0
  189.6090  174.3260  141.2260 C   0  0  0  0  0  1  0  0  0  0  0  0
  192.1000  175.7510  145.3140 C   0  0  0  0  0  0  0  0  0  0  0  0
  190.8120  175.0310  143.2620 N   0  0  0  0  0  0  0  0  0  0  0  0
  193.2850  174.4240  142.1300 C   0  0  0  0  0  3  0  0  0  0  0  0
  194.3110  175.1770  144.3990 C   0  0  2  0  0  3  0  0  0  0  0  0
  192.1030  174.2350  141.3990 C   0  0  0  0  0  3  0  0  0  0  0  0
  194.0620  172.9130  145.4510 C   0  0  0  0  0  3  0  0  0  0  0  0
  194.4110  171.6740  145.7940 C   0  0  0  0  0  3  0  0  0  0  0  0
  195.0160  173.8710  144.8110 C   0  0  2  0  0  3  0  0  0  0  0  0
  196.1460  174.1500  145.7510 C   0  0  0  0  0  3  0  0  0  0  0  0
  195.9010  169.6540  145.4710 C   0  0  0  0  0  1  0  0  0  0  0  0
  196.8970  171.8220  145.8780 C   0  0  0  0  0  3  0  0  0  0  0  0
  195.7730  171.1210  145.6730 C   0  0  0  0  0  0  0  0  0  0  0  0
  196.9640  173.2290  146.1670 N   0  0  0  0  0  0  0  0  0  0  0  0
  189.6740  176.0650  145.7180 C   0  0  0  0  0  2  0  0  0  0  0  0
  189.2240  177.4630  145.3310 C   0  0  0  0  0  2  0  0  0  0  0  0
  186.6920  177.3200  144.6640 C   0  0  0  0  0  0  0  0  0  0  0  0
  185.9080  177.3000  143.4000 C   0  0  0  0  0  2  0  0  0  0  0  0
  186.9690  177.3630  142.4010 N   0  0  0  0  0  0  0  0  0  0  0  0
  186.2030  177.2620  145.8610 N   0  0  0  0  0  0  0  0  0  0  0  0
  188.2480  177.4200  143.0310 C   0  0  0  0  0  3  0  0  0  0  0  0
  188.1080  177.3910  144.3450 C   0  0  0  0  0  0  0  0  0  0  0  0
  184.1090  178.3610  146.3610 C   0  0  0  0  0  1  0  0  0  0  0  0
  184.8460  177.1870  146.0730 O   0  0  0  0  0  0  0  0  0  0  0  0
  186.7850  177.3790  140.9570 C   0  0  0  0  0  2  0  0  0  0  0  0
  185.6590  178.1310  140.6120 O   0  0  0  0  0  1  0  0  0  0  0  0
  2  1  1  0  0  0  0
  4  3  2  0  0  0  0
  5  9  1  0  0  0  0
  6  5  1  0  0  0  0
  7 10  1  0  0  0  0
  8  7  1  0  0  0  0
  9  4  1  0  0  0  0
  9  2  2  0  0  0  0
 10  5  2  0  0  0  0
 11  6  2  0  0  0  0
 12  6  1  6  0  0  0
 12 16  1  0  0  0  0
 12  4  1  0  0  0  0
 13  7  2  0  0  0  0
 13 11  1  0  0  0  0
 14 15  2  0  0  0  0
 16 14  1  1  0  0  0
 16 17  1  0  0  0  0
 17 21  2  0  0  0  0
 18 20  1  0  0  0  0
 19 21  1  0  0  0  0
 20 15  1  0  0  0  0
 20 19  2  0  0  0  0
 22  2  1  0  0  0  0
 23 22  1  0  0  0  0
 24 27  2  0  0  0  0
 25 24  1  0  0  0  0
 26 28  1  0  0  0  0
 26 25  1  0  0  0  0
 27 31  1  0  0  0  0
 28 29  2  0  0  0  0
 29 24  1  0  0  0  0
 29 23  1  0  0  0  0
 31 30  1  0  0  0  0
 32 26  1  0  0  0  0
 33 32  1  0  0  0  0
M  END
>  <MODEL>
5

>  <REMARK>
 VINA RESULT:      -7.2      3.454      8.490
  Name = 
  6 active torsions:
  status: ('A' for Active; 'I' for Inactive)
    1  A    between atoms: C_2  and  C_22
    2  A    between atoms: C_10  and  N_18
    3  A    between atoms: C_11  and  C_32
    4  A    between atoms: N_19  and  O_25
    5  A    between atoms: C_22  and  C_28
    6  A    between atoms: C_28  and  C_30
                            x       y       z     vdW  Elec       q    Type
                         _______ _______ _______ _____ _____    ______ ____

>  <TORSDO>
F 6

$$$$
=
 OpenBabel11042417373D

 33 36  0  0  1  0  0  0  0  0999 V2000
  191.3420  176.4720  147.5750 C   0  0  0  0  0  1  0  0  0  0  0  0
  191.0550  176.0650  146.1680 C   0  0  0  0  0  0  0  0  0  0  0  0
  194.2520  176.8020  146.5130 S   0  0  0  0  0  0  0  0  0  0  0  0
  193.4980  175.7090  145.5510 C   0  0  0  0  0  0  0  0  0  0  0  0
  191.8710  175.1710  143.9710 C   0  0  0  0  0  0  0  0  0  0  0  0
  193.0910  174.8410  143.4250 C   0  0  0  0  0  0  0  0  0  0  0  0
  190.7420  174.5150  142.0060 C   0  0  0  0  0  0  0  0  0  0  0  0
  189.4740  174.3230  141.2570 C   0  0  0  0  0  1  0  0  0  0  0  0
  192.0370  175.7030  145.3160 C   0  0  0  0  0  0  0  0  0  0  0  0
  190.7130  175.0070  143.2780 N   0  0  0  0  0  0  0  0  0  0  0  0
  193.1620  174.3570  142.1170 C   0  0  0  0  0  3  0  0  0  0  0  0
  194.2270  175.0920  144.3740 C   0  0  2  0  0  3  0  0  0  0  0  0
  191.9690  174.1900  141.4000 C   0  0  0  0  0  3  0  0  0  0  0  0
  193.9510  172.8300  145.4250 C   0  0  0  0  0  3  0  0  0  0  0  0
  194.2830  171.5850  145.7630 C   0  0  0  0  0  3  0  0  0  0  0  0
  194.9140  173.7740  144.7780 C   0  0  2  0  0  3  0  0  0  0  0  0
  196.0580  174.0320  145.7080 C   0  0  0  0  0  3  0  0  0  0  0  0
  195.7360  169.5410  145.4220 C   0  0  0  0  0  1  0  0  0  0  0  0
  196.7710  171.6920  145.8230 C   0  0  0  0  0  3  0  0  0  0  0  0
  195.6340  171.0100  145.6280 C   0  0  0  0  0  0  0  0  0  0  0  0
  196.8640  173.0970  146.1140 N   0  0  0  0  0  0  0  0  0  0  0  0
  189.6220  176.0580  145.7470 C   0  0  0  0  0  2  0  0  0  0  0  0
  189.2240  177.4380  145.2520 C   0  0  0  0  0  2  0  0  0  0  0  0
  186.9840  177.2340  143.9060 C   0  0  0  0  0  0  0  0  0  0  0  0
  185.5340  177.4090  144.1890 C   0  0  0  0  0  2  0  0  0  0  0  0
  185.5600  177.8070  145.5930 N   0  0  0  0  0  0  0  0  0  0  0  0
  187.4990  176.8970  142.7680 N   0  0  0  0  0  0  0  0  0  0  0  0
  186.9020  177.8520  146.0760 C   0  0  0  0  0  3  0  0  0  0  0  0
  187.7430  177.5270  145.1100 C   0  0  0  0  0  0  0  0  0  0  0  0
  186.7080  177.5410  140.5760 C   0  0  0  0  0  1  0  0  0  0  0  0
  186.7040  176.6460  141.6730 O   0  0  0  0  0  0  0  0  0  0  0  0
  184.4000  178.1110  146.4180 C   0  0  0  0  0  2  0  0  0  0  0  0
  184.7950  178.6660  147.6380 O   0  0  0  0  0  1  0  0  0  0  0  0
  2  1  1  0  0  0  0
  4  3  2  0  0  0  0
  5  9  1  0  0  0  0
  6  5  1  0  0  0  0
  7 10  1  0  0  0  0
  8  7  1  0  0  0  0
  9  4  1  0  0  0  0
  9  2  2  0  0  0  0
 10  5  2  0  0  0  0
 11  6  2  0  0  0  0
 12  6  1  6  0  0  0
 12 16  1  0  0  0  0
 12  4  1  0  0  0  0
 13  7  2  0  0  0  0
 13 11  1  0  0  0  0
 14 15  2  0  0  0  0
 16 14  1  1  0  0  0
 16 17  1  0  0  0  0
 17 21  2  0  0  0  0
 18 20  1  0  0  0  0
 19 21  1  0  0  0  0
 20 15  1  0  0  0  0
 20 19  2  0  0  0  0
 22  2  1  0  0  0  0
 23 22  1  0  0  0  0
 24 25  1  0  0  0  0
 24 29  1  0  0  0  0
 25 26  1  0  0  0  0
 26 28  1  0  0  0  0
 26 32  1  0  0  0  0
 27 24  2  0  0  0  0
 29 23  1  0  0  0  0
 29 28  2  0  0  0  0
 30 31  1  0  0  0  0
 31 27  1  0  0  0  0
 32 33  1  0  0  0  0
M  END
>  <MODEL>
6

>  <REMARK>
 VINA RESULT:      -7.2      3.441      8.675
  Name = 
  6 active torsions:
  status: ('A' for Active; 'I' for Inactive)
    1  A    between atoms: C_2  and  C_22
    2  A    between atoms: C_10  and  N_18
    3  A    between atoms: C_11  and  C_32
    4  A    between atoms: N_19  and  O_25
    5  A    between atoms: C_22  and  C_28
    6  A    between atoms: C_28  and  C_30
                            x       y       z     vdW  Elec       q    Type
                         _______ _______ _______ _____ _____    ______ ____

>  <TORSDO>
F 6

$$$$
=
 OpenBabel11042417373D

 33 36  0  0  1  0  0  0  0  0999 V2000
  189.4180  175.1150  141.7450 C   0  0  0  0  0  1  0  0  0  0  0  0
  189.4450  175.6720  143.1290 C   0  0  0  0  0  0  0  0  0  0  0  0
  191.1760  172.8670  142.9950 S   0  0  0  0  0  0  0  0  0  0  0  0
  191.3840  174.2170  143.9030 C   0  0  0  0  0  0  0  0  0  0  0  0
  190.5570  175.8260  145.3730 C   0  0  0  0  0  0  0  0  0  0  0  0
  191.6230  175.2170  145.9950 C   0  0  0  0  0  0  0  0  0  0  0  0
  190.1480  177.1830  147.2580 C   0  0  0  0  0  0  0  0  0  0  0  0
  189.3630  178.2550  147.9230 C   0  0  0  0  0  1  0  0  0  0  0  0
  190.3540  175.2700  144.0420 C   0  0  0  0  0  0  0  0  0  0  0  0
  189.8330  176.7980  145.9880 N   0  0  0  0  0  0  0  0  0  0  0  0
  191.9600  175.5690  147.3040 C   0  0  0  0  0  3  0  0  0  0  0  0
  192.2820  174.1880  145.1230 C   0  0  2  0  0  3  0  0  0  0  0  0
  191.2130  176.5690  147.9410 C   0  0  0  0  0  3  0  0  0  0  0  0
  193.8130  175.0780  143.3440 C   0  0  0  0  0  3  0  0  0  0  0  0
  194.9290  175.5930  142.8310 C   0  0  0  0  0  3  0  0  0  0  0  0
  193.7200  174.6060  144.7610 C   0  0  2  0  0  3  0  0  0  0  0  0
  194.6730  173.4720  144.9700 C   0  0  0  0  0  3  0  0  0  0  0  0
  197.1360  176.7880  143.1560 C   0  0  0  0  0  1  0  0  0  0  0  0
  196.6730  174.7680  144.4070 C   0  0  0  0  0  3  0  0  0  0  0  0
  196.2170  175.6860  143.5440 C   0  0  0  0  0  0  0  0  0  0  0  0
  195.9600  173.5960  144.8360 N   0  0  0  0  0  0  0  0  0  0  0  0
  188.4280  176.7160  143.4560 C   0  0  0  0  0  2  0  0  0  0  0  0
  187.0520  176.0790  143.5570 C   0  0  0  0  0  2  0  0  0  0  0  0
  184.9980  177.7070  143.6420 C   0  0  0  0  0  0  0  0  0  0  0  0
  184.2820  178.4890  144.6850 C   0  0  0  0  0  2  0  0  0  0  0  0
  185.0620  178.1630  145.8750 N   0  0  0  0  0  0  0  0  0  0  0  0
  184.7020  177.6730  142.3820 N   0  0  0  0  0  0  0  0  0  0  0  0
  186.1260  177.2710  145.5480 C   0  0  0  0  0  3  0  0  0  0  0  0
  186.1090  176.9980  144.2550 C   0  0  0  0  0  0  0  0  0  0  0  0
  183.2970  178.2830  140.5120 C   0  0  0  0  0  1  0  0  0  0  0  0
  183.6360  178.3850  141.8830 O   0  0  0  0  0  0  0  0  0  0  0  0
  184.8100  178.6520  147.2230 C   0  0  0  0  0  2  0  0  0  0  0  0
  185.9390  179.2970  147.7320 O   0  0  0  0  0  1  0  0  0  0  0  0
  1  2  1  0  0  0  0
  2 22  1  0  0  0  0
  2  9  2  0  0  0  0
  3  4  2  0  0  0  0
  4  9  1  0  0  0  0
  5 10  2  0  0  0  0
  5  6  1  0  0  0  0
  6 11  2  0  0  0  0
  7  8  1  0  0  0  0
  7 13  2  0  0  0  0
  9  5  1  0  0  0  0
 10  7  1  0  0  0  0
 11 13  1  0  0  0  0
 12  4  1  6  0  0  0
 12  6  1  0  0  0  0
 15 14  2  0  0  0  0
 15 20  1  0  0  0  0
 16 14  1  6  0  0  0
 16 17  1  0  0  0  0
 16 12  1  0  0  0  0
 18 20  1  0  0  0  0
 19 21  1  0  0  0  0
 20 19  2  0  0  0  0
 21 17  2  0  0  0  0
 22 23  1  0  0  0  0
 23 29  1  0  0  0  0
 24 29  1  0  0  0  0
 24 25  1  0  0  0  0
 25 26  1  0  0  0  0
 26 32  1  0  0  0  0
 27 24  2  0  0  0  0
 28 26  1  0  0  0  0
 29 28  2  0  0  0  0
 30 31  1  0  0  0  0
 31 27  1  0  0  0  0
 32 33  1  0  0  0  0
M  END
>  <MODEL>
7

>  <REMARK>
 VINA RESULT:      -7.2      3.520      8.380
  Name = 
  6 active torsions:
  status: ('A' for Active; 'I' for Inactive)
    1  A    between atoms: C_2  and  C_22
    2  A    between atoms: C_10  and  N_18
    3  A    between atoms: C_11  and  C_32
    4  A    between atoms: N_19  and  O_25
    5  A    between atoms: C_22  and  C_28
    6  A    between atoms: C_28  and  C_30
                            x       y       z     vdW  Elec       q    Type
                         _______ _______ _______ _____ _____    ______ ____

>  <TORSDO>
F 6

$$$$
=
 OpenBabel11042417373D

 33 36  0  0  1  0  0  0  0  0999 V2000
  188.6290  172.5330  142.5030 C   0  0  0  0  0  1  0  0  0  0  0  0
  189.3490  173.2350  143.6060 C   0  0  0  0  0  0  0  0  0  0  0  0
  188.4730  175.3880  141.2640 S   0  0  0  0  0  0  0  0  0  0  0  0
  188.6120  175.5620  142.8890 C   0  0  0  0  0  0  0  0  0  0  0  0
  189.8390  175.3510  144.8600 C   0  0  0  0  0  0  0  0  0  0  0  0
  189.5180  176.6830  144.7220 C   0  0  0  0  0  0  0  0  0  0  0  0
  191.0490  175.7800  146.8390 C   0  0  0  0  0  0  0  0  0  0  0  0
  191.8540  175.2850  147.9850 C   0  0  0  0  0  1  0  0  0  0  0  0
  189.2870  174.5740  143.7600 C   0  0  0  0  0  0  0  0  0  0  0  0
  190.5870  174.9030  145.9030 N   0  0  0  0  0  0  0  0  0  0  0  0
  189.9930  177.6140  145.6490 C   0  0  0  0  0  3  0  0  0  0  0  0
  188.6740  176.9440  143.5080 C   0  0  2  0  0  3  0  0  0  0  0  0
  190.7670  177.1530  146.7230 C   0  0  0  0  0  3  0  0  0  0  0  0
  186.7180  176.6550  145.0540 C   0  0  0  0  0  3  0  0  0  0  0  0
  185.5660  176.9640  145.6460 C   0  0  0  0  0  3  0  0  0  0  0  0
  187.2700  177.4370  143.9040 C   0  0  2  0  0  3  0  0  0  0  0  0
  186.3270  177.3480  142.7460 C   0  0  0  0  0  3  0  0  0  0  0  0
  183.8060  178.6820  146.2410 C   0  0  0  0  0  1  0  0  0  0  0  0
  184.4410  178.3710  143.9250 C   0  0  0  0  0  3  0  0  0  0  0  0
  184.6570  178.0390  145.2060 C   0  0  0  0  0  0  0  0  0  0  0  0
  185.1090  177.7980  142.7890 N   0  0  0  0  0  0  0  0  0  0  0  0
  190.1310  172.3810  144.5500 C   0  0  0  0  0  2  0  0  0  0  0  0
  191.3690  171.8440  143.8530 C   0  0  0  0  0  2  0  0  0  0  0  0
  192.8890  173.7690  142.9280 C   0  0  0  0  0  0  0  0  0  0  0  0
  194.0190  174.5920  143.4380 C   0  0  0  0  0  2  0  0  0  0  0  0
  194.1950  174.0420  144.7780 N   0  0  0  0  0  0  0  0  0  0  0  0
  192.3560  173.8570  141.7520 N   0  0  0  0  0  0  0  0  0  0  0  0
  193.2500  173.0010  145.0200 C   0  0  0  0  0  3  0  0  0  0  0  0
  192.4860  172.8250  143.9560 C   0  0  0  0  0  0  0  0  0  0  0  0
  193.5430  174.3450  139.7030 C   0  0  0  0  0  1  0  0  0  0  0  0
  192.8080  174.7770  140.8330 O   0  0  0  0  0  0  0  0  0  0  0  0
  195.1780  174.4780  145.7590 C   0  0  0  0  0  2  0  0  0  0  0  0
  196.4520  174.5360  145.1880 O   0  0  0  0  0  1  0  0  0  0  0  0
  1  2  1  0  0  0  0
  2  9  2  0  0  0  0
  2 22  1  0  0  0  0
  3  4  2  0  0  0  0
  4  9  1  0  0  0  0
  5 10  1  0  0  0  0
  6  5  2  0  0  0  0
  6 11  1  0  0  0  0
  7  8  1  0  0  0  0
  9  5  1  0  0  0  0
 10  7  2  0  0  0  0
 11 13  2  0  0  0  0
 12  4  1  1  0  0  0
 12 16  1  0  0  0  0
 12  6  1  0  0  0  0
 13  7  1  0  0  0  0
 14 15  2  0  0  0  0
 16 17  1  6  0  0  0
 16 14  1  0  0  0  0
 17 21  2  0  0  0  0
 19 20  2  0  0  0  0
 20 15  1  0  0  0  0
 20 18  1  0  0  0  0
 21 19  1  0  0  0  0
 23 29  1  0  0  0  0
 23 22  1  0  0  0  0
 24 25  1  0  0  0  0
 24 29  1  0  0  0  0
 25 26  1  0  0  0  0
 26 28  1  0  0  0  0
 26 32  1  0  0  0  0
 27 24  2  0  0  0  0
 29 28  2  0  0  0  0
 30 31  1  0  0  0  0
 31 27  1  0  0  0  0
 33 32  1  0  0  0  0
M  END
>  <MODEL>
8

>  <REMARK>
 VINA RESULT:      -6.9      1.468      2.301
  Name = 
  6 active torsions:
  status: ('A' for Active; 'I' for Inactive)
    1  A    between atoms: C_2  and  C_22
    2  A    between atoms: C_10  and  N_18
    3  A    between atoms: C_11  and  C_32
    4  A    between atoms: N_19  and  O_25
    5  A    between atoms: C_22  and  C_28
    6  A    between atoms: C_28  and  C_30
                            x       y       z     vdW  Elec       q    Type
                         _______ _______ _______ _____ _____    ______ ____

>  <TORSDO>
F 6

$$$$
=
 OpenBabel11042417373D

 33 36  0  0  1  0  0  0  0  0999 V2000
  191.8380  176.6660  147.7200 C   0  0  0  0  0  1  0  0  0  0  0  0
  192.1500  176.2520  146.3210 C   0  0  0  0  0  0  0  0  0  0  0  0
  189.2120  175.0610  147.2340 S   0  0  0  0  0  0  0  0  0  0  0  0
  189.7650  175.5560  145.7710 C   0  0  0  0  0  0  0  0  0  0  0  0
  191.3550  175.4860  144.0680 C   0  0  0  0  0  0  0  0  0  0  0  0
  190.1500  175.1220  143.5130 C   0  0  0  0  0  0  0  0  0  0  0  0
  192.4720  175.1620  142.0160 C   0  0  0  0  0  0  0  0  0  0  0  0
  193.7210  175.2060  141.2120 C   0  0  0  0  0  1  0  0  0  0  0  0
  191.1960  175.7980  145.4810 C   0  0  0  0  0  0  0  0  0  0  0  0
  192.4990  175.5130  143.3340 N   0  0  0  0  0  0  0  0  0  0  0  0
  190.0880  174.7330  142.1730 C   0  0  0  0  0  3  0  0  0  0  0  0
  189.0240  175.1800  144.5040 C   0  0  2  0  0  3  0  0  0  0  0  0
  191.2670  174.7580  141.4150 C   0  0  0  0  0  3  0  0  0  0  0  0
  187.2120  176.7210  145.3060 C   0  0  0  0  0  3  0  0  0  0  0  0
  186.3420  177.7270  145.2470 C   0  0  0  0  0  3  0  0  0  0  0  0
  188.0000  176.2640  144.1190 C   0  0  2  0  0  3  0  0  0  0  0  0
  187.0640  175.7640  143.0650 C   0  0  0  0  0  3  0  0  0  0  0  0
  185.5490  179.8700  144.1580 C   0  0  0  0  0  1  0  0  0  0  0  0
  185.8770  177.8900  142.8050 C   0  0  0  0  0  3  0  0  0  0  0  0
  185.9820  178.4550  144.0160 C   0  0  0  0  0  0  0  0  0  0  0  0
  186.1720  176.5170  142.4940 N   0  0  0  0  0  0  0  0  0  0  0  0
  193.5720  176.3810  145.8810 C   0  0  0  0  0  2  0  0  0  0  0  0
  194.3440  175.1310  146.2630 C   0  0  0  0  0  2  0  0  0  0  0  0
  196.3520  173.7620  145.2770 C   0  0  0  0  0  0  0  0  0  0  0  0
  197.3660  173.9530  144.2050 C   0  0  0  0  0  2  0  0  0  0  0  0
  197.0150  175.2790  143.7090 N   0  0  0  0  0  0  0  0  0  0  0  0
  196.2470  172.7270  146.0470 N   0  0  0  0  0  0  0  0  0  0  0  0
  195.8980  175.8030  144.4250 C   0  0  0  0  0  3  0  0  0  0  0  0
  195.5020  174.9390  145.3430 C   0  0  0  0  0  0  0  0  0  0  0  0
  196.6360  170.3450  146.1720 C   0  0  0  0  0  1  0  0  0  0  0  0
  197.1030  171.6570  145.9220 O   0  0  0  0  0  0  0  0  0  0  0  0
  197.6820  175.9930  142.6290 C   0  0  0  0  0  2  0  0  0  0  0  0
  196.7840  176.8310  141.9650 O   0  0  0  0  0  1  0  0  0  0  0  0
  2  1  1  0  0  0  0
  4  3  2  0  0  0  0
  5  9  1  0  0  0  0
  6  5  1  0  0  0  0
  7 10  1  0  0  0  0
  8  7  1  0  0  0  0
  9  4  1  0  0  0  0
  9  2  2  0  0  0  0
 10  5  2  0  0  0  0
 11  6  2  0  0  0  0
 12  6  1  6  0  0  0
 12  4  1  0  0  0  0
 13  7  2  0  0  0  0
 13 11  1  0  0  0  0
 15 14  2  0  0  0  0
 16 17  1  6  0  0  0
 16 12  1  0  0  0  0
 16 14  1  0  0  0  0
 19 20  2  0  0  0  0
 20 18  1  0  0  0  0
 20 15  1  0  0  0  0
 21 19  1  0  0  0  0
 21 17  2  0  0  0  0
 22 23  1  0  0  0  0
 22  2  1  0  0  0  0
 24 29  1  0  0  0  0
 24 27  2  0  0  0  0
 25 24  1  0  0  0  0
 26 25  1  0  0  0  0
 26 28  1  0  0  0  0
 28 29  2  0  0  0  0
 29 23  1  0  0  0  0
 31 27  1  0  0  0  0
 31 30  1  0  0  0  0
 32 26  1  0  0  0  0
 33 32  1  0  0  0  0
M  END
>  <MODEL>
9

>  <REMARK>
 VINA RESULT:      -6.9      2.341      3.925
  Name = 
  6 active torsions:
  status: ('A' for Active; 'I' for Inactive)
    1  A    between atoms: C_2  and  C_22
    2  A    between atoms: C_10  and  N_18
    3  A    between atoms: C_11  and  C_32
    4  A    between atoms: N_19  and  O_25
    5  A    between atoms: C_22  and  C_28
    6  A    between atoms: C_28  and  C_30
                            x       y       z     vdW  Elec       q    Type
                         _______ _______ _______ _____ _____    ______ ____

>  <TORSDO>
F 6

$$$$
