=
 OpenBabel11042417413D

 54 62  0  0  1  0  0  0  0  0999 V2000
  192.3230  177.6000  143.5550 C   0  0  0  0  0  3  0  0  0  0  0  0
  192.2680  176.4620  142.7520 C   0  0  0  0  0  0  0  0  0  0  0  0
  191.2480  174.6590  141.6810 C   0  0  0  0  0  0  0  0  0  0  0  0
  192.5630  174.4880  141.2630 C   0  0  0  0  0  0  0  0  0  0  0  0
  190.9220  172.9060  139.1680 C   0  0  0  0  0  0  0  0  0  0  0  0
  193.5290  175.6990  141.9530 S   0  0  0  0  0  0  0  0  0  0  0  0
  189.8880  176.2380  143.0690 C   0  0  0  0  0  3  0  0  0  0  0  0
  191.1250  178.0650  144.1190 C   0  0  0  0  0  3  0  0  0  0  0  0
  190.2110  173.7250  141.3640 N   0  0  0  0  0  0  0  0  0  0  0  0
  188.5500  173.5540  139.4880 C   0  0  0  0  0  1  0  0  0  0  0  0
  193.0740  173.3590  140.4760 C   0  0  0  0  0  0  0  0  0  0  0  0
  191.0830  175.7780  142.5140 C   0  0  0  0  0  0  0  0  0  0  0  0
  192.3350  172.6990  139.5760 C   0  0  0  0  0  3  0  0  0  0  0  0
  189.9060  177.3980  143.8670 C   0  0  0  0  0  0  0  0  0  0  0  0
  189.9520  173.3770  139.9910 C   0  0  0  0  0  0  0  0  0  0  0  0
  188.6380  177.9030  144.4810 C   0  0  1  0  0  3  0  0  0  0  0  0
  187.6090  176.8310  144.5120 C   0  0  1  0  0  3  0  0  0  0  0  0
  188.3530  177.1730  145.6560 O   0  0  0  0  0  0  0  0  0  0  0  0
  185.3300  178.1550  142.4940 C   0  0  2  0  0  3  0  0  0  0  0  0
  185.5080  176.9800  145.8070 O   0  0  0  0  0  0  0  0  0  0  0  0
  186.1840  178.9140  144.6220 C   0  0  1  0  0  3  0  0  0  0  0  0
  185.3710  176.9460  143.4010 C   0  0  0  0  0  2  0  0  0  0  0  0
  184.5020  177.9820  147.6340 O   0  0  0  0  0  0  0  0  0  0  0  0
  185.3960  179.3590  143.4070 C   0  0  0  0  0  2  0  0  0  0  0  0
  184.0420  178.1670  141.6970 C   0  0  0  0  0  1  0  0  0  0  0  0
  185.4610  179.3580  145.8950 C   0  0  0  0  0  2  0  0  0  0  0  0
  185.1030  178.0760  146.5320 C   0  0  0  0  0  0  0  0  0  0  0  0
  186.1750  177.3750  144.6150 C   0  0  1  0  0  0  0  0  0  0  0  0
  190.1150  171.2800  137.6290 O   0  0  0  0  0  0  0  0  0  0  0  0
  190.5980  172.4340  137.7990 C   0  0  0  0  0  0  0  0  0  0  0  0
  190.8700  172.7370  135.3440 O   0  0  0  0  0  0  0  0  0  0  0  0
  191.0460  174.5180  136.7650 O   0  0  0  0  0  1  0  0  0  0  0  0
  190.8380  173.2860  136.6200 C   0  0  0  0  0  0  0  0  0  0  0  0
  195.3080  172.9520  139.5980 O   0  0  0  0  0  1  0  0  0  0  0  0
  194.4470  172.9930  140.6430 N   0  0  0  0  0  2  0  0  0  0  0  0
  189.3610  173.2260  142.4470 C   0  0  1  0  0  3  0  0  0  0  0  0
  188.8200  171.9830  142.1150 O   0  0  0  0  0  1  0  0  0  0  0  0
  189.6320  171.9550  144.5660 C   0  0  0  0  0  2  0  0  0  0  0  0
  190.1330  173.1320  143.7540 C   0  0  1  0  0  3  0  0  0  0  0  0
  190.9120  171.8330  143.7640 C   0  0  1  0  0  3  0  0  0  0  0  0
  192.1220  172.0030  144.6640 C   0  0  0  0  0  2  0  0  0  0  0  0
  195.3420  172.9810  144.6390 C   0  0  1  0  0  3  0  0  0  0  0  0
  197.3840  174.1020  145.1110 C   0  0  0  0  0  1  0  0  0  0  0  0
  193.2010  169.7810  144.3770 C   0  0  0  0  0  2  0  0  0  0  0  0
  196.4590  173.0920  145.6020 N   0  0  0  0  0  0  0  0  0  0  0  0
  196.3820  170.7070  146.1940 C   0  0  0  0  0  2  0  0  0  0  0  0
  193.3290  171.2860  144.0770 C   0  0  2  0  0  3  0  0  0  0  0  0
  197.2310  171.8470  145.6380 C   0  0  0  0  0  2  0  0  0  0  0  0
  194.5840  168.1780  145.8430 C   0  0  0  0  0  1  0  0  0  0  0  0
  194.5790  171.6840  144.8110 C   0  0  0  0  0  0  0  0  0  0  0  0
  194.3060  169.4860  145.2710 N   0  0  0  0  0  0  0  0  0  0  0  0
  195.0980  170.6440  145.4330 C   0  0  0  0  0  0  0  0  0  0  0  0
  194.3850  174.1600  144.8020 C   0  0  0  0  0  2  0  0  0  0  0  0
  194.1720  174.4250  146.1560 O   0  0  0  0  0  1  0  0  0  0  0  0
  1  8  1  0  0  0  0
  2  1  2  0  0  0  0
  3 12  1  0  0  0  0
  4  3  2  0  0  0  0
  4  6  1  0  0  0  0
  5 13  1  0  0  0  0
  5 15  2  0  0  0  0
  6  2  1  0  0  0  0
  7 14  1  0  0  0  0
  9  3  1  0  0  0  0
  9 36  1  0  0  0  0
 10 15  1  0  0  0  0
 11 35  1  0  0  0  0
 11  4  1  0  0  0  0
 12  2  1  0  0  0  0
 12  7  2  0  0  0  0
 13 11  2  0  0  0  0
 14  8  2  0  0  0  0
 15  9  1  0  0  0  0
 16 14  1  6  0  0  0
 16 17  1  0  0  0  0
 16 18  1  0  0  0  0
 17 28  1  0  0  0  0
 17 18  1  1  0  0  0
 19 25  1  1  0  0  0
 19 22  1  0  0  0  0
 19 24  1  0  0  0  0
 20 27  1  0  0  0  0
 21 24  1  6  0  0  0
 21 26  1  0  0  0  0
 26 27  1  0  0  0  0
 27 23  2  0  0  0  0
 28 22  1  6  0  0  0
 28 21  1  0  0  0  0
 28 20  1  0  0  0  0
 29 30  2  0  0  0  0
 30  5  1  0  0  0  0
 31 33  2  0  0  0  0
 33 32  1  0  0  0  0
 33 30  1  0  0  0  0
 34 35  1  0  0  0  0
 36 37  1  6  0  0  0
 39 36  1  6  0  0  0
 39 40  1  0  0  0  0
 39 38  1  0  0  0  0
 40 38  1  0  0  0  0
 40 41  1  1  0  0  0
 42 53  1  1  0  0  0
 42 50  1  0  0  0  0
 42 45  1  0  0  0  0
 43 45  1  0  0  0  0
 44 51  1  0  0  0  0
 45 48  1  0  0  0  0
 47 44  1  0  0  0  0
 47 41  1  1  0  0  0
 47 50  1  0  0  0  0
 48 46  1  0  0  0  0
 50 52  2  0  0  0  0
 51 52  1  0  0  0  0
 51 49  1  0  0  0  0
 52 46  1  0  0  0  0
 53 54  1  0  0  0  0
M  END
>  <MODEL>
1

>  <REMARK>
 VINA RESULT:      -8.3      0.000      0.000
  Name = 
  10 active torsions:
  status: ('A' for Active; 'I' for Inactive)
    1  A    between atoms: C_3  and  C_9
    2  A    between atoms: C_5  and  C_14
    3  A    between atoms: C_5  and  C_52
    4  A    between atoms: C_16  and  C_39
    5  A    between atoms: C_27  and  C_44
    6  A    between atoms: N_29  and  C_39
    7  A    between atoms: C_34  and  C_47
    8  A    between atoms: C_35  and  N_40
    9  A    between atoms: C_37  and  C_44
   10  A    between atoms: C_46  and  C_54
                            x       y       z     vdW  Elec       q    Type
                         _______ _______ _______ _____ _____    ______ ____

>  <TORSDO>
F 10

$$$$
=
 OpenBabel11042417413D

 54 62  0  0  1  0  0  0  0  0999 V2000
  191.5550  176.4830  147.1510 C   0  0  0  0  0  3  0  0  0  0  0  0
  192.5000  175.9340  146.2870 C   0  0  0  0  0  0  0  0  0  0  0  0
  193.2510  174.8540  144.3610 C   0  0  0  0  0  0  0  0  0  0  0  0
  194.4590  175.0720  145.0120 C   0  0  0  0  0  0  0  0  0  0  0  0
  195.2910  174.6450  142.0610 C   0  0  0  0  0  0  0  0  0  0  0  0
  194.1610  175.8440  146.4930 S   0  0  0  0  0  0  0  0  0  0  0  0
  190.8100  175.3160  144.6810 C   0  0  0  0  0  3  0  0  0  0  0  0
  190.2080  176.4500  146.7590 C   0  0  0  0  0  3  0  0  0  0  0  0
  193.1560  174.1150  143.1390 N   0  0  0  0  0  0  0  0  0  0  0  0
  193.2130  174.7650  140.7140 C   0  0  0  0  0  1  0  0  0  0  0  0
  195.7720  174.5840  144.5740 C   0  0  0  0  0  0  0  0  0  0  0  0
  192.1480  175.3480  145.0780 C   0  0  0  0  0  0  0  0  0  0  0  0
  196.0980  174.4130  143.2870 C   0  0  0  0  0  3  0  0  0  0  0  0
  189.8330  175.8820  145.5220 C   0  0  0  0  0  0  0  0  0  0  0  0
  193.9420  174.5070  141.9990 C   0  0  0  0  0  0  0  0  0  0  0  0
  188.3920  175.8500  145.1210 C   0  0  1  0  0  3  0  0  0  0  0  0
  188.0810  176.9710  144.1970 C   0  0  1  0  0  3  0  0  0  0  0  0
  188.2890  175.6620  143.7250 O   0  0  0  0  0  0  0  0  0  0  0  0
  185.9070  178.2660  142.0470 C   0  0  2  0  0  3  0  0  0  0  0  0
  185.8370  176.7090  145.2020 O   0  0  0  0  0  0  0  0  0  0  0  0
  186.3910  178.8440  144.3420 C   0  0  1  0  0  3  0  0  0  0  0  0
  185.9980  176.9650  142.8110 C   0  0  0  0  0  2  0  0  0  0  0  0
  184.4950  177.3470  146.9760 O   0  0  0  0  0  0  0  0  0  0  0  0
  185.7030  179.3440  143.0880 C   0  0  0  0  0  2  0  0  0  0  0  0
  184.7350  178.2290  141.0890 C   0  0  0  0  0  1  0  0  0  0  0  0
  185.4670  179.0350  145.5460 C   0  0  0  0  0  2  0  0  0  0  0  0
  185.2060  177.6500  145.9830 C   0  0  0  0  0  0  0  0  0  0  0  0
  186.5860  177.3270  144.1640 C   0  0  1  0  0  0  0  0  0  0  0  0
  196.4150  176.1100  140.5610 O   0  0  0  0  0  0  0  0  0  0  0  0
  196.0870  174.9240  140.8400 C   0  0  0  0  0  0  0  0  0  0  0  0
  196.1380  172.5210  140.1900 O   0  0  0  0  0  1  0  0  0  0  0  0
  197.2060  174.0960  138.9230 O   0  0  0  0  0  0  0  0  0  0  0  0
  196.4980  173.8380  139.9310 C   0  0  0  0  0  0  0  0  0  0  0  0
  196.8010  173.1800  146.2750 O   0  0  0  0  0  1  0  0  0  0  0  0
  196.7630  174.3390  145.5750 N   0  0  0  0  0  2  0  0  0  0  0  0
  192.1720  173.0330  143.0470 C   0  0  1  0  0  3  0  0  0  0  0  0
  190.9610  173.5120  142.5460 O   0  0  0  0  0  1  0  0  0  0  0  0
  192.0370  170.5910  142.6020 C   0  0  0  0  0  2  0  0  0  0  0  0
  192.6860  171.8940  142.1820 C   0  0  1  0  0  3  0  0  0  0  0  0
  191.5290  171.3320  141.3820 C   0  0  1  0  0  3  0  0  0  0  0  0
  192.0780  170.7060  140.1130 C   0  0  0  0  0  2  0  0  0  0  0  0
  192.5150  170.1200  136.8280 C   0  0  1  0  0  3  0  0  0  0  0  0
  192.7390  169.0520  134.7170 C   0  0  0  0  0  1  0  0  0  0  0  0
  190.8020  172.6360  139.2010 C   0  0  0  0  0  2  0  0  0  0  0  0
  191.7770  169.4650  135.7260 N   0  0  0  0  0  0  0  0  0  0  0  0
  189.7990  170.9010  135.9970 C   0  0  0  0  0  2  0  0  0  0  0  0
  191.9880  171.6860  138.9530 C   0  0  2  0  0  3  0  0  0  0  0  0
  190.9010  170.4270  135.0520 C   0  0  0  0  0  2  0  0  0  0  0  0
  188.5630  172.9770  137.9760 C   0  0  0  0  0  1  0  0  0  0  0  0
  191.6000  170.9650  137.6910 C   0  0  0  0  0  0  0  0  0  0  0  0
  189.8570  172.3340  138.1400 N   0  0  0  0  0  0  0  0  0  0  0  0
  190.4240  171.3810  137.2660 C   0  0  0  0  0  0  0  0  0  0  0  0
  193.2090  169.0710  137.6960 C   0  0  0  0  0  2  0  0  0  0  0  0
  194.5510  169.4070  137.8770 O   0  0  0  0  0  1  0  0  0  0  0  0
  2  6  1  0  0  0  0
  2  1  2  0  0  0  0
  3  4  2  0  0  0  0
  3 12  1  0  0  0  0
  4  6  1  0  0  0  0
  5 13  1  0  0  0  0
  7 12  2  0  0  0  0
  7 14  1  0  0  0  0
  8  1  1  0  0  0  0
  9  3  1  0  0  0  0
 10 15  1  0  0  0  0
 11  4  1  0  0  0  0
 11 35  1  0  0  0  0
 12  2  1  0  0  0  0
 13 11  2  0  0  0  0
 14  8  2  0  0  0  0
 15  5  2  0  0  0  0
 15  9  1  0  0  0  0
 16 14  1  6  0  0  0
 17 18  1  6  0  0  0
 17 16  1  0  0  0  0
 18 16  1  0  0  0  0
 19 25  1  6  0  0  0
 19 22  1  0  0  0  0
 19 24  1  0  0  0  0
 20 27  1  0  0  0  0
 21 24  1  6  0  0  0
 21 26  1  0  0  0  0
 26 27  1  0  0  0  0
 27 23  2  0  0  0  0
 28 22  1  6  0  0  0
 28 17  1  0  0  0  0
 28 21  1  0  0  0  0
 28 20  1  0  0  0  0
 29 30  2  0  0  0  0
 30  5  1  0  0  0  0
 32 33  2  0  0  0  0
 33 31  1  0  0  0  0
 33 30  1  0  0  0  0
 35 34  1  0  0  0  0
 36 37  1  6  0  0  0
 36  9  1  0  0  0  0
 39 38  1  0  0  0  0
 39 36  1  1  0  0  0
 40 41  1  6  0  0  0
 40 39  1  0  0  0  0
 40 38  1  0  0  0  0
 42 50  1  0  0  0  0
 42 53  1  1  0  0  0
 43 45  1  0  0  0  0
 45 42  1  0  0  0  0
 46 52  1  0  0  0  0
 47 44  1  0  0  0  0
 47 41  1  1  0  0  0
 48 45  1  0  0  0  0
 48 46  1  0  0  0  0
 49 51  1  0  0  0  0
 50 47  1  0  0  0  0
 51 44  1  0  0  0  0
 52 50  2  0  0  0  0
 52 51  1  0  0  0  0
 53 54  1  0  0  0  0
M  END
>  <MODEL>
2

>  <REMARK>
 VINA RESULT:      -8.0      2.609      5.965
  Name = 
  10 active torsions:
  status: ('A' for Active; 'I' for Inactive)
    1  A    between atoms: C_3  and  C_9
    2  A    between atoms: C_5  and  C_14
    3  A    between atoms: C_5  and  C_52
    4  A    between atoms: C_16  and  C_39
    5  A    between atoms: C_27  and  C_44
    6  A    between atoms: N_29  and  C_39
    7  A    between atoms: C_34  and  C_47
    8  A    between atoms: C_35  and  N_40
    9  A    between atoms: C_37  and  C_44
   10  A    between atoms: C_46  and  C_54
                            x       y       z     vdW  Elec       q    Type
                         _______ _______ _______ _____ _____    ______ ____

>  <TORSDO>
F 10

$$$$
=
 OpenBabel11042417413D

 54 62  0  0  1  0  0  0  0  0999 V2000
  193.2960  175.8860  146.8320 C   0  0  0  0  0  3  0  0  0  0  0  0
  193.7840  175.1160  145.7790 C   0  0  0  0  0  0  0  0  0  0  0  0
  193.8230  174.2480  143.6130 C   0  0  0  0  0  0  0  0  0  0  0  0
  194.9480  173.6340  144.1500 C   0  0  0  0  0  0  0  0  0  0  0  0
  195.4180  173.4750  141.0940 C   0  0  0  0  0  0  0  0  0  0  0  0
  195.1200  174.1020  145.7700 S   0  0  0  0  0  0  0  0  0  0  0  0
  192.0410  175.8710  144.2940 C   0  0  0  0  0  3  0  0  0  0  0  0
  192.1560  176.6700  146.6000 C   0  0  0  0  0  3  0  0  0  0  0  0
  193.3410  173.9620  142.2970 N   0  0  0  0  0  0  0  0  0  0  0  0
  193.7570  174.9850  140.0410 C   0  0  0  0  0  1  0  0  0  0  0  0
  195.7760  172.6230  143.4800 C   0  0  0  0  0  0  0  0  0  0  0  0
  193.1720  175.0900  144.5320 C   0  0  0  0  0  0  0  0  0  0  0  0
  195.9590  172.5870  142.1540 C   0  0  0  0  0  3  0  0  0  0  0  0
  191.5350  176.6770  145.3320 C   0  0  0  0  0  0  0  0  0  0  0  0
  194.2180  174.1040  141.1640 C   0  0  0  0  0  0  0  0  0  0  0  0
  190.3160  177.5150  145.1020 C   0  0  1  0  0  3  0  0  0  0  0  0
  189.0910  176.6740  145.1310 C   0  0  1  0  0  3  0  0  0  0  0  0
  189.4760  177.4550  146.2360 O   0  0  0  0  0  0  0  0  0  0  0  0
  185.9540  177.5220  145.8100 C   0  0  2  0  0  3  0  0  0  0  0  0
  188.2740  177.9920  143.2050 O   0  0  0  0  0  0  0  0  0  0  0  0
  186.8820  176.2420  143.9830 C   0  0  1  0  0  3  0  0  0  0  0  0
  187.1770  178.2710  145.3330 C   0  0  0  0  0  2  0  0  0  0  0  0
  187.7810  177.8970  140.9470 O   0  0  0  0  0  0  0  0  0  0  0  0
  185.5830  176.5790  144.6870 C   0  0  0  0  0  2  0  0  0  0  0  0
  184.8210  178.4890  146.0830 C   0  0  0  0  0  1  0  0  0  0  0  0
  186.6950  176.3690  142.4700 C   0  0  0  0  0  2  0  0  0  0  0  0
  187.6080  177.4730  142.1190 C   0  0  0  0  0  0  0  0  0  0  0  0
  187.9020  177.3170  144.4000 C   0  0  1  0  0  0  0  0  0  0  0  0
  196.2000  172.5880  139.0280 O   0  0  0  0  0  0  0  0  0  0  0  0
  196.2410  173.5370  139.8600 C   0  0  0  0  0  0  0  0  0  0  0  0
  197.0780  175.3350  138.3560 O   0  0  0  0  0  0  0  0  0  0  0  0
  197.9410  175.0750  140.4560 O   0  0  0  0  0  1  0  0  0  0  0  0
  197.1210  174.6880  139.5850 C   0  0  0  0  0  0  0  0  0  0  0  0
  197.7520  171.8550  144.6760 O   0  0  0  0  0  1  0  0  0  0  0  0
  196.4640  171.6720  144.2970 N   0  0  0  0  0  2  0  0  0  0  0  0
  191.9240  173.6320  142.1240 C   0  0  1  0  0  3  0  0  0  0  0  0
  191.2420  174.6920  141.5240 O   0  0  0  0  0  1  0  0  0  0  0  0
  190.7910  171.4230  142.0030 C   0  0  0  0  0  2  0  0  0  0  0  0
  191.7500  172.3640  141.3040 C   0  0  1  0  0  3  0  0  0  0  0  0
  190.3090  172.2750  140.8460 C   0  0  1  0  0  3  0  0  0  0  0  0
  190.2570  171.4580  139.5690 C   0  0  0  0  0  2  0  0  0  0  0  0
  191.6680  170.0820  136.8410 C   0  0  1  0  0  3  0  0  0  0  0  0
  192.2360  168.5920  135.0800 C   0  0  0  0  0  1  0  0  0  0  0  0
  190.3930  173.4870  138.1370 C   0  0  0  0  0  2  0  0  0  0  0  0
  191.2270  169.5310  135.5410 N   0  0  0  0  0  0  0  0  0  0  0  0
  190.1130  171.6160  134.8650 C   0  0  0  0  0  2  0  0  0  0  0  0
  191.0570  172.1380  138.4680 C   0  0  2  0  0  3  0  0  0  0  0  0
  191.1850  170.5850  134.5240 C   0  0  0  0  0  2  0  0  0  0  0  0
  189.1970  174.3650  136.0320 C   0  0  0  0  0  1  0  0  0  0  0  0
  190.9370  171.3640  137.1840 C   0  0  0  0  0  0  0  0  0  0  0  0
  189.9150  173.3400  136.7730 N   0  0  0  0  0  0  0  0  0  0  0  0
  190.3220  172.0860  136.2680 C   0  0  0  0  0  0  0  0  0  0  0  0
  191.4470  169.0570  137.9520 C   0  0  0  0  0  2  0  0  0  0  0  0
  190.1390  168.5710  137.9060 O   0  0  0  0  0  1  0  0  0  0  0  0
  2  1  2  0  0  0  0
  3  4  2  0  0  0  0
  3 12  1  0  0  0  0
  4  6  1  0  0  0  0
  5 15  2  0  0  0  0
  5 13  1  0  0  0  0
  6  2  1  0  0  0  0
  7 12  2  0  0  0  0
  7 14  1  0  0  0  0
  8  1  1  0  0  0  0
  9  3  1  0  0  0  0
 10 15  1  0  0  0  0
 11  4  1  0  0  0  0
 11 35  1  0  0  0  0
 12  2  1  0  0  0  0
 13 11  2  0  0  0  0
 14  8  2  0  0  0  0
 15  9  1  0  0  0  0
 16 17  1  0  0  0  0
 16 14  1  1  0  0  0
 16 18  1  0  0  0  0
 17 18  1  1  0  0  0
 19 25  1  6  0  0  0
 20 28  1  0  0  0  0
 21 26  1  6  0  0  0
 21 28  1  0  0  0  0
 21 24  1  0  0  0  0
 22 19  1  0  0  0  0
 23 27  2  0  0  0  0
 24 19  1  0  0  0  0
 27 26  1  0  0  0  0
 27 20  1  0  0  0  0
 28 17  1  0  0  0  0
 28 22  1  1  0  0  0
 29 30  2  0  0  0  0
 30  5  1  0  0  0  0
 31 33  2  0  0  0  0
 33 30  1  0  0  0  0
 33 32  1  0  0  0  0
 35 34  1  0  0  0  0
 36 37  1  6  0  0  0
 36  9  1  0  0  0  0
 39 38  1  0  0  0  0
 39 36  1  1  0  0  0
 40 41  1  6  0  0  0
 40 39  1  0  0  0  0
 40 38  1  0  0  0  0
 42 50  1  0  0  0  0
 42 53  1  1  0  0  0
 43 45  1  0  0  0  0
 44 47  1  0  0  0  0
 45 42  1  0  0  0  0
 46 52  1  0  0  0  0
 47 41  1  1  0  0  0
 48 46  1  0  0  0  0
 48 45  1  0  0  0  0
 49 51  1  0  0  0  0
 50 47  1  0  0  0  0
 51 44  1  0  0  0  0
 52 51  1  0  0  0  0
 52 50  2  0  0  0  0
 54 53  1  0  0  0  0
M  END
>  <MODEL>
3

>  <REMARK>
 VINA RESULT:      -7.7      2.654      6.447
  Name = 
  10 active torsions:
  status: ('A' for Active; 'I' for Inactive)
    1  A    between atoms: C_3  and  C_9
    2  A    between atoms: C_5  and  C_14
    3  A    between atoms: C_5  and  C_52
    4  A    between atoms: C_16  and  C_39
    5  A    between atoms: C_27  and  C_44
    6  A    between atoms: N_29  and  C_39
    7  A    between atoms: C_34  and  C_47
    8  A    between atoms: C_35  and  N_40
    9  A    between atoms: C_37  and  C_44
   10  A    between atoms: C_46  and  C_54
                            x       y       z     vdW  Elec       q    Type
                         _______ _______ _______ _____ _____    ______ ____

>  <TORSDO>
F 10

$$$$
=
 OpenBabel11042417413D

 54 62  0  0  1  0  0  0  0  0999 V2000
  191.0640  168.8340  140.6860 C   0  0  0  0  0  3  0  0  0  0  0  0
  191.0780  170.0540  140.0130 C   0  0  0  0  0  0  0  0  0  0  0  0
  191.7600  172.2440  139.5860 C   0  0  0  0  0  0  0  0  0  0  0  0
  190.8320  172.0670  138.5670 C   0  0  0  0  0  0  0  0  0  0  0  0
  192.5730  174.4220  137.5650 C   0  0  0  0  0  0  0  0  0  0  0  0
  190.1610  170.5140  138.6870 S   0  0  0  0  0  0  0  0  0  0  0  0
  192.7740  170.9490  141.4750 C   0  0  0  0  0  3  0  0  0  0  0  0
  191.9350  168.6750  141.7750 C   0  0  0  0  0  3  0  0  0  0  0  0
  192.4130  173.4940  139.8250 N   0  0  0  0  0  0  0  0  0  0  0  0
  194.5730  174.4990  139.0290 C   0  0  0  0  0  1  0  0  0  0  0  0
  190.3830  173.1000  137.6250 C   0  0  0  0  0  0  0  0  0  0  0  0
  191.9030  171.1040  140.3960 C   0  0  0  0  0  0  0  0  0  0  0  0
  191.1670  174.1040  137.2110 C   0  0  0  0  0  3  0  0  0  0  0  0
  192.8000  169.7210  142.1630 C   0  0  0  0  0  0  0  0  0  0  0  0
  193.1410  174.1400  138.7640 C   0  0  0  0  0  0  0  0  0  0  0  0
  193.7190  169.5370  143.3300 C   0  0  1  0  0  3  0  0  0  0  0  0
  193.4120  170.5250  144.3970 C   0  0  1  0  0  3  0  0  0  0  0  0
  192.9700  169.1930  144.4770 O   0  0  0  0  0  0  0  0  0  0  0  0
  195.7290  172.8460  144.9190 C   0  0  2  0  0  3  0  0  0  0  0  0
  194.5540  169.9340  146.5090 O   0  0  0  0  0  0  0  0  0  0  0  0
  195.9250  170.4520  144.6510 C   0  0  1  0  0  3  0  0  0  0  0  0
  194.6400  172.2240  145.7630 C   0  0  0  0  0  2  0  0  0  0  0  0
  195.8860  168.3440  147.5350 O   0  0  0  0  0  0  0  0  0  0  0  0
  196.7260  171.7390  144.6500 C   0  0  0  0  0  2  0  0  0  0  0  0
  196.3920  173.9800  145.6720 C   0  0  0  0  0  1  0  0  0  0  0  0
  196.6430  169.4020  145.4990 C   0  0  0  0  0  2  0  0  0  0  0  0
  195.6930  169.1680  146.6040 C   0  0  0  0  0  0  0  0  0  0  0  0
  194.5920  170.7620  145.3540 C   0  0  1  0  0  0  0  0  0  0  0  0
  193.1050  176.4440  136.4280 O   0  0  0  0  0  0  0  0  0  0  0  0
  193.3080  175.2030  136.5390 C   0  0  0  0  0  0  0  0  0  0  0  0
  193.9080  173.4340  134.8930 O   0  0  0  0  0  0  0  0  0  0  0  0
  195.4440  175.0000  135.5350 O   0  0  0  0  0  1  0  0  0  0  0  0
  194.2710  174.5560  135.6290 C   0  0  0  0  0  0  0  0  0  0  0  0
  188.0160  173.6680  137.6020 O   0  0  0  0  0  1  0  0  0  0  0  0
  189.0650  172.9850  137.0830 N   0  0  0  0  0  2  0  0  0  0  0  0
  192.4150  174.0360  141.1870 C   0  0  1  0  0  3  0  0  0  0  0  0
  193.0760  175.2650  141.2250 O   0  0  0  0  0  1  0  0  0  0  0  0
  191.0040  174.0510  143.2330 C   0  0  0  0  0  2  0  0  0  0  0  0
  191.0010  174.1810  141.7230 C   0  0  1  0  0  3  0  0  0  0  0  0
  190.9350  175.4220  142.5910 C   0  0  1  0  0  3  0  0  0  0  0  0
  189.5080  175.9380  142.5890 C   0  0  0  0  0  2  0  0  0  0  0  0
  186.8080  177.8760  143.1160 C   0  0  1  0  0  3  0  0  0  0  0  0
  184.5740  178.6560  143.3300 C   0  0  0  0  0  1  0  0  0  0  0  0
  190.3400  177.2410  144.5370 C   0  0  0  0  0  2  0  0  0  0  0  0
  185.6090  177.8700  143.9820 N   0  0  0  0  0  0  0  0  0  0  0  0
  186.9260  177.8000  146.0580 C   0  0  0  0  0  2  0  0  0  0  0  0
  189.4270  177.2820  143.2980 C   0  0  2  0  0  3  0  0  0  0  0  0
  185.8840  178.5630  145.2440 C   0  0  0  0  0  2  0  0  0  0  0  0
  189.8460  177.3350  147.0630 C   0  0  0  0  0  1  0  0  0  0  0  0
  188.0550  177.4810  143.8800 C   0  0  0  0  0  0  0  0  0  0  0  0
  189.4340  177.3490  145.6680 N   0  0  0  0  0  0  0  0  0  0  0  0
  188.1180  177.5400  145.1960 C   0  0  0  0  0  0  0  0  0  0  0  0
  186.6120  176.9260  141.9350 C   0  0  0  0  0  2  0  0  0  0  0  0
  187.0020  177.5470  140.7470 O   0  0  0  0  0  1  0  0  0  0  0  0
  1  8  1  0  0  0  0
  2 12  1  0  0  0  0
  2  1  2  0  0  0  0
  3  9  1  0  0  0  0
  3 12  1  0  0  0  0
  4  6  1  0  0  0  0
  4  3  2  0  0  0  0
  5 15  2  0  0  0  0
  6  2  1  0  0  0  0
  7 14  1  0  0  0  0
  8 14  2  0  0  0  0
  9 36  1  0  0  0  0
 11  4  1  0  0  0  0
 12  7  2  0  0  0  0
 13  5  1  0  0  0  0
 13 11  2  0  0  0  0
 15 10  1  0  0  0  0
 15  9  1  0  0  0  0
 16 14  1  6  0  0  0
 16 17  1  0  0  0  0
 16 18  1  0  0  0  0
 17 18  1  1  0  0  0
 17 28  1  0  0  0  0
 19 25  1  1  0  0  0
 19 22  1  0  0  0  0
 20 27  1  0  0  0  0
 21 24  1  1  0  0  0
 21 28  1  0  0  0  0
 21 26  1  0  0  0  0
 24 19  1  0  0  0  0
 26 27  1  0  0  0  0
 27 23  2  0  0  0  0
 28 22  1  1  0  0  0
 28 20  1  0  0  0  0
 29 30  2  0  0  0  0
 30  5  1  0  0  0  0
 31 33  2  0  0  0  0
 32 33  1  0  0  0  0
 33 30  1  0  0  0  0
 35 34  1  0  0  0  0
 35 11  1  0  0  0  0
 36 37  1  6  0  0  0
 39 36  1  1  0  0  0
 39 40  1  0  0  0  0
 39 38  1  0  0  0  0
 40 41  1  6  0  0  0
 40 38  1  0  0  0  0
 42 53  1  6  0  0  0
 42 50  1  0  0  0  0
 42 45  1  0  0  0  0
 43 45  1  0  0  0  0
 44 51  1  0  0  0  0
 45 48  1  0  0  0  0
 47 41  1  1  0  0  0
 47 50  1  0  0  0  0
 47 44  1  0  0  0  0
 48 46  1  0  0  0  0
 50 52  2  0  0  0  0
 51 49  1  0  0  0  0
 52 51  1  0  0  0  0
 52 46  1  0  0  0  0
 54 53  1  0  0  0  0
M  END
>  <MODEL>
4

>  <REMARK>
 VINA RESULT:      -7.6      2.928      8.775
  Name = 
  10 active torsions:
  status: ('A' for Active; 'I' for Inactive)
    1  A    between atoms: C_3  and  C_9
    2  A    between atoms: C_5  and  C_14
    3  A    between atoms: C_5  and  C_52
    4  A    between atoms: C_16  and  C_39
    5  A    between atoms: C_27  and  C_44
    6  A    between atoms: N_29  and  C_39
    7  A    between atoms: C_34  and  C_47
    8  A    between atoms: C_35  and  N_40
    9  A    between atoms: C_37  and  C_44
   10  A    between atoms: C_46  and  C_54
                            x       y       z     vdW  Elec       q    Type
                         _______ _______ _______ _____ _____    ______ ____

>  <TORSDO>
F 10

$$$$
=
 OpenBabel11042417413D

 54 62  0  0  1  0  0  0  0  0999 V2000
  189.8370  171.8400  142.3790 C   0  0  0  0  0  3  0  0  0  0  0  0
  189.6320  172.8980  143.2630 C   0  0  0  0  0  0  0  0  0  0  0  0
  189.1840  175.1030  143.8790 C   0  0  0  0  0  0  0  0  0  0  0  0
  189.3160  174.5140  145.1320 C   0  0  0  0  0  0  0  0  0  0  0  0
  187.7130  177.0990  145.7070 C   0  0  0  0  0  0  0  0  0  0  0  0
  189.6790  172.8690  144.9390 S   0  0  0  0  0  0  0  0  0  0  0  0
  189.2510  174.4540  141.4610 C   0  0  0  0  0  3  0  0  0  0  0  0
  189.7380  172.1040  141.0050 C   0  0  0  0  0  3  0  0  0  0  0  0
  188.9940  176.5100  143.7050 N   0  0  0  0  0  0  0  0  0  0  0  0
  186.9610  177.9710  143.5120 C   0  0  0  0  0  1  0  0  0  0  0  0
  189.2980  175.2210  146.4190 C   0  0  0  0  0  0  0  0  0  0  0  0
  189.3550  174.1870  142.8270 C   0  0  0  0  0  0  0  0  0  0  0  0
  188.5900  176.3360  146.6320 C   0  0  0  0  0  3  0  0  0  0  0  0
  189.4320  173.4030  140.5420 C   0  0  0  0  0  0  0  0  0  0  0  0
  187.9020  177.1750  144.3660 C   0  0  0  0  0  0  0  0  0  0  0  0
  189.3350  173.6690  139.0730 C   0  0  1  0  0  3  0  0  0  0  0  0
  189.4300  172.4010  138.3050 C   0  0  1  0  0  3  0  0  0  0  0  0
  188.1930  173.0270  138.5450 O   0  0  0  0  0  0  0  0  0  0  0  0
  191.0630  170.7120  135.9590 C   0  0  2  0  0  3  0  0  0  0  0  0
  189.1840  173.6780  136.2020 O   0  0  0  0  0  0  0  0  0  0  0  0
  191.3650  172.9630  136.7810 C   0  0  1  0  0  3  0  0  0  0  0  0
  189.6850  171.3250  136.0600 C   0  0  0  0  0  2  0  0  0  0  0  0
  189.7020  175.6750  135.1540 O   0  0  0  0  0  0  0  0  0  0  0  0
  192.0340  171.8730  135.9690 C   0  0  0  0  0  2  0  0  0  0  0  0
  191.1930  169.9270  134.6700 C   0  0  0  0  0  1  0  0  0  0  0  0
  191.4770  174.2970  136.0410 C   0  0  0  0  0  2  0  0  0  0  0  0
  190.0700  174.6280  135.7460 C   0  0  0  0  0  0  0  0  0  0  0  0
  189.8680  172.6110  136.8460 C   0  0  1  0  0  0  0  0  0  0  0  0
  186.9770  178.8810  147.1020 O   0  0  0  0  0  0  0  0  0  0  0  0
  186.6570  177.9000  146.3750 C   0  0  0  0  0  0  0  0  0  0  0  0
  184.3240  178.5210  145.7720 O   0  0  0  0  0  0  0  0  0  0  0  0
  184.8160  176.4160  146.5130 O   0  0  0  0  0  1  0  0  0  0  0  0
  185.2290  177.5660  146.2170 C   0  0  0  0  0  0  0  0  0  0  0  0
  191.0950  175.2710  148.0600 O   0  0  0  0  0  1  0  0  0  0  0  0
  190.0270  174.6470  147.5070 N   0  0  0  0  0  2  0  0  0  0  0  0
  189.8600  177.2240  142.7630 C   0  0  1  0  0  3  0  0  0  0  0  0
  189.1750  178.2890  142.1760 O   0  0  0  0  0  1  0  0  0  0  0  0
  191.2000  177.1750  144.8570 C   0  0  0  0  0  2  0  0  0  0  0  0
  191.1230  177.7240  143.4470 C   0  0  1  0  0  3  0  0  0  0  0  0
  192.0140  176.5360  143.7490 C   0  0  1  0  0  3  0  0  0  0  0  0
  193.4530  177.0140  143.8040 C   0  0  0  0  0  2  0  0  0  0  0  0
  194.3560  173.8990  144.7050 C   0  0  1  0  0  3  0  0  0  0  0  0
  194.4500  171.7740  145.7630 C   0  0  0  0  0  1  0  0  0  0  0  0
  194.0700  176.1250  141.5640 C   0  0  0  0  0  2  0  0  0  0  0  0
  193.7400  172.5560  144.7640 N   0  0  0  0  0  0  0  0  0  0  0  0
  193.1920  172.5380  142.3670 C   0  0  0  0  0  2  0  0  0  0  0  0
  194.3660  176.0400  143.0730 C   0  0  2  0  0  3  0  0  0  0  0  0
  193.9420  171.8420  143.5000 C   0  0  0  0  0  2  0  0  0  0  0  0
  193.0740  174.4390  139.8920 C   0  0  0  0  0  1  0  0  0  0  0  0
  194.0010  174.6240  143.4220 C   0  0  0  0  0  0  0  0  0  0  0  0
  193.5230  174.8240  141.2210 N   0  0  0  0  0  0  0  0  0  0  0  0
  193.5670  173.9840  142.3540 C   0  0  0  0  0  0  0  0  0  0  0  0
  193.9110  174.7380  145.9020 C   0  0  0  0  0  2  0  0  0  0  0  0
  195.0170  175.3340  146.5100 O   0  0  0  0  0  1  0  0  0  0  0  0
  1  2  1  0  0  0  0
  2  6  1  0  0  0  0
  3  4  2  0  0  0  0
  4 11  1  0  0  0  0
  5 30  1  0  0  0  0
  5 13  1  0  0  0  0
  6  4  1  0  0  0  0
  7 12  1  0  0  0  0
  8  1  2  0  0  0  0
  9  3  1  0  0  0  0
  9 15  1  0  0  0  0
 10 15  1  0  0  0  0
 11 13  2  0  0  0  0
 11 35  1  0  0  0  0
 12  2  2  0  0  0  0
 12  3  1  0  0  0  0
 14  8  1  0  0  0  0
 14  7  2  0  0  0  0
 15  5  2  0  0  0  0
 16 14  1  1  0  0  0
 17 18  1  6  0  0  0
 17 16  1  0  0  0  0
 18 16  1  0  0  0  0
 19 25  1  6  0  0  0
 19 24  1  0  0  0  0
 19 22  1  0  0  0  0
 20 28  1  0  0  0  0
 21 24  1  6  0  0  0
 21 28  1  0  0  0  0
 23 27  2  0  0  0  0
 26 21  1  0  0  0  0
 27 26  1  0  0  0  0
 27 20  1  0  0  0  0
 28 22  1  6  0  0  0
 28 17  1  0  0  0  0
 30 29  2  0  0  0  0
 31 33  2  0  0  0  0
 33 30  1  0  0  0  0
 33 32  1  0  0  0  0
 35 34  1  0  0  0  0
 36 37  1  1  0  0  0
 36  9  1  0  0  0  0
 39 36  1  6  0  0  0
 39 40  1  0  0  0  0
 39 38  1  0  0  0  0
 40 41  1  1  0  0  0
 40 38  1  0  0  0  0
 42 45  1  0  0  0  0
 42 53  1  1  0  0  0
 44 47  1  0  0  0  0
 45 43  1  0  0  0  0
 46 48  1  0  0  0  0
 47 50  1  0  0  0  0
 47 41  1  1  0  0  0
 48 45  1  0  0  0  0
 49 51  1  0  0  0  0
 50 42  1  0  0  0  0
 51 44  1  0  0  0  0
 51 52  1  0  0  0  0
 52 46  1  0  0  0  0
 52 50  2  0  0  0  0
 53 54  1  0  0  0  0
M  END
>  <MODEL>
5

>  <REMARK>
 VINA RESULT:      -7.5      2.271      7.985
  Name = 
  10 active torsions:
  status: ('A' for Active; 'I' for Inactive)
    1  A    between atoms: C_3  and  C_9
    2  A    between atoms: C_5  and  C_14
    3  A    between atoms: C_5  and  C_52
    4  A    between atoms: C_16  and  C_39
    5  A    between atoms: C_27  and  C_44
    6  A    between atoms: N_29  and  C_39
    7  A    between atoms: C_34  and  C_47
    8  A    between atoms: C_35  and  N_40
    9  A    between atoms: C_37  and  C_44
   10  A    between atoms: C_46  and  C_54
                            x       y       z     vdW  Elec       q    Type
                         _______ _______ _______ _____ _____    ______ ____

>  <TORSDO>
F 10

$$$$
=
 OpenBabel11042417413D

 54 62  0  0  1  0  0  0  0  0999 V2000
  188.9560  172.2570  142.0850 C   0  0  0  0  0  3  0  0  0  0  0  0
  190.2960  171.9100  142.2440 C   0  0  0  0  0  0  0  0  0  0  0  0
  192.5360  172.2600  142.7920 C   0  0  0  0  0  0  0  0  0  0  0  0
  192.5780  170.9260  142.4030 C   0  0  0  0  0  0  0  0  0  0  0  0
  195.1270  171.2620  144.1290 C   0  0  0  0  0  0  0  0  0  0  0  0
  191.0280  170.4360  141.9220 S   0  0  0  0  0  0  0  0  0  0  0  0
  190.8660  174.1070  143.0570 C   0  0  0  0  0  3  0  0  0  0  0  0
  188.5690  173.5610  142.4310 C   0  0  0  0  0  3  0  0  0  0  0  0
  193.7110  172.9990  143.1400 N   0  0  0  0  0  0  0  0  0  0  0  0
  194.9040  173.4320  145.3070 C   0  0  0  0  0  1  0  0  0  0  0  0
  193.7890  170.1060  142.2790 C   0  0  0  0  0  0  0  0  0  0  0  0
  191.2460  172.8100  142.7080 C   0  0  0  0  0  0  0  0  0  0  0  0
  194.8730  170.2780  143.0460 C   0  0  0  0  0  3  0  0  0  0  0  0
  189.5150  174.4830  142.9300 C   0  0  0  0  0  0  0  0  0  0  0  0
  194.5900  172.5080  144.1680 C   0  0  0  0  0  0  0  0  0  0  0  0
  189.0880  175.8720  143.2880 C   0  0  1  0  0  3  0  0  0  0  0  0
  188.3420  175.8730  144.5730 C   0  0  1  0  0  3  0  0  0  0  0  0
  189.6940  176.2580  144.5050 O   0  0  0  0  0  0  0  0  0  0  0  0
  186.6060  177.3370  146.9960 C   0  0  2  0  0  3  0  0  0  0  0  0
  187.5650  178.0460  143.6840 O   0  0  0  0  0  0  0  0  0  0  0  0
  185.9570  176.6840  144.7620 C   0  0  1  0  0  3  0  0  0  0  0  0
  187.7210  177.7770  146.0740 C   0  0  0  0  0  2  0  0  0  0  0  0
  186.2160  179.0410  142.0890 O   0  0  0  0  0  0  0  0  0  0  0  0
  185.4030  177.1070  146.1080 C   0  0  0  0  0  2  0  0  0  0  0  0
  186.3120  178.4200  148.0130 C   0  0  0  0  0  1  0  0  0  0  0  0
  185.2560  177.4670  143.6500 C   0  0  0  0  0  2  0  0  0  0  0  0
  186.3550  178.2590  143.0650 C   0  0  0  0  0  0  0  0  0  0  0  0
  187.4370  177.1050  144.7420 C   0  0  1  0  0  0  0  0  0  0  0  0
  197.3390  171.1710  145.0000 O   0  0  0  0  0  0  0  0  0  0  0  0
  196.1300  170.8310  145.1330 C   0  0  0  0  0  0  0  0  0  0  0  0
  196.6870  169.6450  147.2500 O   0  0  0  0  0  1  0  0  0  0  0  0
  194.5660  169.5800  146.3990 O   0  0  0  0  0  0  0  0  0  0  0  0
  195.7470  170.0000  146.2900 C   0  0  0  0  0  0  0  0  0  0  0  0
  194.9220  168.5270  140.8110 O   0  0  0  0  0  1  0  0  0  0  0  0
  193.7780  169.0340  141.3320 N   0  0  0  0  0  2  0  0  0  0  0  0
  193.9320  174.3030  142.5100 C   0  0  1  0  0  3  0  0  0  0  0  0
  195.2510  174.7210  142.6960 O   0  0  0  0  0  1  0  0  0  0  0  0
  194.3840  175.3260  140.2900 C   0  0  0  0  0  2  0  0  0  0  0  0
  193.5980  174.2620  141.0280 C   0  0  1  0  0  3  0  0  0  0  0  0
  194.8460  173.8820  140.2580 C   0  0  1  0  0  3  0  0  0  0  0  0
  194.4300  173.2190  138.9580 C   0  0  0  0  0  2  0  0  0  0  0  0
  191.8100  171.1680  138.4550 C   0  0  1  0  0  3  0  0  0  0  0  0
  189.7230  170.2720  137.7570 C   0  0  0  0  0  1  0  0  0  0  0  0
  195.6660  171.0920  138.5980 C   0  0  0  0  0  2  0  0  0  0  0  0
  191.0640  170.6080  137.3070 N   0  0  0  0  0  0  0  0  0  0  0  0
  193.0630  169.5630  136.3260 C   0  0  0  0  0  2  0  0  0  0  0  0
  194.3590  171.7090  139.1290 C   0  0  2  0  0  3  0  0  0  0  0  0
  191.6570  169.3380  136.8790 C   0  0  0  0  0  2  0  0  0  0  0  0
  196.1740  169.5480  136.6010 C   0  0  0  0  0  1  0  0  0  0  0  0
  193.3070  171.1320  138.2230 C   0  0  0  0  0  0  0  0  0  0  0  0
  195.2640  170.3060  137.4450 N   0  0  0  0  0  0  0  0  0  0  0  0
  193.8570  170.3390  137.3250 C   0  0  0  0  0  0  0  0  0  0  0  0
  191.3700  172.6060  138.7190 C   0  0  0  0  0  2  0  0  0  0  0  0
  191.2950  173.3160  137.5200 O   0  0  0  0  0  1  0  0  0  0  0  0
  1  2  2  0  0  0  0
  1  8  1  0  0  0  0
  2 12  1  0  0  0  0
  3  9  1  0  0  0  0
  4  3  2  0  0  0  0
  5 15  2  0  0  0  0
  5 30  1  0  0  0  0
  6  2  1  0  0  0  0
  6  4  1  0  0  0  0
  8 14  2  0  0  0  0
  9 15  1  0  0  0  0
 11  4  1  0  0  0  0
 11 13  2  0  0  0  0
 12  3  1  0  0  0  0
 12  7  2  0  0  0  0
 13  5  1  0  0  0  0
 14  7  1  0  0  0  0
 15 10  1  0  0  0  0
 16 14  1  1  0  0  0
 16 18  1  0  0  0  0
 16 17  1  0  0  0  0
 17 18  1  1  0  0  0
 17 28  1  0  0  0  0
 19 25  1  1  0  0  0
 20 28  1  0  0  0  0
 21 26  1  6  0  0  0
 21 24  1  0  0  0  0
 22 19  1  0  0  0  0
 23 27  2  0  0  0  0
 24 19  1  0  0  0  0
 27 26  1  0  0  0  0
 27 20  1  0  0  0  0
 28 21  1  0  0  0  0
 28 22  1  1  0  0  0
 29 30  2  0  0  0  0
 30 33  1  0  0  0  0
 33 32  2  0  0  0  0
 33 31  1  0  0  0  0
 34 35  1  0  0  0  0
 35 11  1  0  0  0  0
 36 37  1  6  0  0  0
 36  9  1  0  0  0  0
 38 39  1  0  0  0  0
 39 36  1  1  0  0  0
 40 41  1  6  0  0  0
 40 38  1  0  0  0  0
 40 39  1  0  0  0  0
 42 53  1  6  0  0  0
 44 47  1  0  0  0  0
 45 43  1  0  0  0  0
 45 42  1  0  0  0  0
 46 48  1  0  0  0  0
 46 52  1  0  0  0  0
 47 41  1  6  0  0  0
 48 45  1  0  0  0  0
 49 51  1  0  0  0  0
 50 42  1  0  0  0  0
 50 47  1  0  0  0  0
 51 44  1  0  0  0  0
 52 51  1  0  0  0  0
 52 50  2  0  0  0  0
 54 53  1  0  0  0  0
M  END
>  <MODEL>
6

>  <REMARK>
 VINA RESULT:      -7.5      2.774      6.712
  Name = 
  10 active torsions:
  status: ('A' for Active; 'I' for Inactive)
    1  A    between atoms: C_3  and  C_9
    2  A    between atoms: C_5  and  C_14
    3  A    between atoms: C_5  and  C_52
    4  A    between atoms: C_16  and  C_39
    5  A    between atoms: C_27  and  C_44
    6  A    between atoms: N_29  and  C_39
    7  A    between atoms: C_34  and  C_47
    8  A    between atoms: C_35  and  N_40
    9  A    between atoms: C_37  and  C_44
   10  A    between atoms: C_46  and  C_54
                            x       y       z     vdW  Elec       q    Type
                         _______ _______ _______ _____ _____    ______ ____

>  <TORSDO>
F 10

$$$$
=
 OpenBabel11042417413D

 54 62  0  0  1  0  0  0  0  0999 V2000
  187.3570  175.5760  139.4150 C   0  0  0  0  0  3  0  0  0  0  0  0
  188.2690  174.5240  139.3650 C   0  0  0  0  0  0  0  0  0  0  0  0
  189.9980  173.1660  140.1440 C   0  0  0  0  0  0  0  0  0  0  0  0
  189.7330  172.5580  138.9230 C   0  0  0  0  0  0  0  0  0  0  0  0
  191.1920  170.3520  140.5320 C   0  0  0  0  0  0  0  0  0  0  0  0
  188.4940  173.4070  138.1350 S   0  0  0  0  0  0  0  0  0  0  0  0
  189.1570  175.0670  141.5400 C   0  0  0  0  0  3  0  0  0  0  0  0
  187.3470  176.3840  140.5620 C   0  0  0  0  0  3  0  0  0  0  0  0
  191.0750  172.7540  140.9920 N   0  0  0  0  0  0  0  0  0  0  0  0
  191.2550  171.1180  142.8890 C   0  0  0  0  0  1  0  0  0  0  0  0
  190.4970  171.4540  138.3290 C   0  0  0  0  0  0  0  0  0  0  0  0
  189.1660  174.2700  140.3950 C   0  0  0  0  0  0  0  0  0  0  0  0
  191.1130  170.5150  139.0580 C   0  0  0  0  0  3  0  0  0  0  0  0
  188.2320  176.1250  141.6310 C   0  0  0  0  0  0  0  0  0  0  0  0
  191.1730  171.3820  141.4150 C   0  0  0  0  0  0  0  0  0  0  0  0
  188.2130  176.9990  142.8460 C   0  0  1  0  0  3  0  0  0  0  0  0
  189.1940  176.5170  143.8520 C   0  0  1  0  0  3  0  0  0  0  0  0
  189.4750  177.6110  143.0130 O   0  0  0  0  0  0  0  0  0  0  0  0
  190.4660  176.1760  146.9000 C   0  0  2  0  0  3  0  0  0  0  0  0
  187.9760  178.0950  145.3160 O   0  0  0  0  0  0  0  0  0  0  0  0
  188.2110  175.8690  146.0880 C   0  0  1  0  0  3  0  0  0  0  0  0
  190.1650  177.3540  146.0010 C   0  0  0  0  0  2  0  0  0  0  0  0
  185.9030  178.5940  146.2150 O   0  0  0  0  0  0  0  0  0  0  0  0
  189.1240  175.5790  147.2630 C   0  0  0  0  0  2  0  0  0  0  0  0
  191.1900  176.6420  148.1460 C   0  0  0  0  0  1  0  0  0  0  0  0
  186.8770  176.4160  146.5970 C   0  0  0  0  0  2  0  0  0  0  0  0
  186.8530  177.7860  146.0490 C   0  0  0  0  0  0  0  0  0  0  0  0
  188.8780  176.9960  145.2780 C   0  0  1  0  0  0  0  0  0  0  0  0
  190.4410  168.2120  141.2540 O   0  0  0  0  0  0  0  0  0  0  0  0
  191.4230  168.9590  140.9890 C   0  0  0  0  0  0  0  0  0  0  0  0
  193.5850  168.1660  140.0440 O   0  0  0  0  0  0  0  0  0  0  0  0
  193.2310  168.1720  142.3020 O   0  0  0  0  0  1  0  0  0  0  0  0
  192.7880  168.4250  141.1520 C   0  0  0  0  0  0  0  0  0  0  0  0
  191.0890  170.2900  136.2750 O   0  0  0  0  0  1  0  0  0  0  0  0
  190.5270  171.3510  136.9030 N   0  0  0  0  0  2  0  0  0  0  0  0
  191.9970  173.7730  141.5010 C   0  0  1  0  0  3  0  0  0  0  0  0
  191.9400  173.8350  142.8950 O   0  0  0  0  0  1  0  0  0  0  0  0
  193.9530  174.6980  140.2770 C   0  0  0  0  0  2  0  0  0  0  0  0
  193.4210  173.5040  141.0440 C   0  0  1  0  0  3  0  0  0  0  0  0
  194.3450  174.4920  141.7270 C   0  0  1  0  0  3  0  0  0  0  0  0
  195.7280  173.8740  141.8200 C   0  0  0  0  0  2  0  0  0  0  0  0
  195.6010  176.0440  144.3900 C   0  0  1  0  0  3  0  0  0  0  0  0
  195.1020  177.9170  145.7640 C   0  0  0  0  0  1  0  0  0  0  0  0
  195.6360  172.2470  143.6990 C   0  0  0  0  0  2  0  0  0  0  0  0
  194.5680  176.6690  145.2440 N   0  0  0  0  0  0  0  0  0  0  0  0
  193.6840  174.5070  146.0150 C   0  0  0  0  0  2  0  0  0  0  0  0
  196.1130  173.6480  143.2750 C   0  0  2  0  0  3  0  0  0  0  0  0
  194.3060  175.8400  146.4240 C   0  0  0  0  0  2  0  0  0  0  0  0
  193.8630  171.4530  145.3890 C   0  0  0  0  0  1  0  0  0  0  0  0
  195.3310  174.5690  144.1700 C   0  0  0  0  0  0  0  0  0  0  0  0
  194.6190  172.4910  144.7060 N   0  0  0  0  0  0  0  0  0  0  0  0
  194.5380  173.8770  144.9630 C   0  0  0  0  0  0  0  0  0  0  0  0
  195.6720  176.7560  143.0400 C   0  0  0  0  0  2  0  0  0  0  0  0
  197.0010  177.0230  142.7050 O   0  0  0  0  0  1  0  0  0  0  0  0
  1  8  1  0  0  0  0
  2  1  2  0  0  0  0
  2 12  1  0  0  0  0
  3 12  1  0  0  0  0
  3  9  1  0  0  0  0
  4  3  2  0  0  0  0
  5 30  1  0  0  0  0
  5 15  2  0  0  0  0
  6  4  1  0  0  0  0
  6  2  1  0  0  0  0
  7 14  1  0  0  0  0
  8 14  2  0  0  0  0
  9 15  1  0  0  0  0
  9 36  1  0  0  0  0
 11  4  1  0  0  0  0
 11 13  2  0  0  0  0
 12  7  2  0  0  0  0
 13  5  1  0  0  0  0
 15 10  1  0  0  0  0
 16 14  1  6  0  0  0
 16 18  1  0  0  0  0
 16 17  1  0  0  0  0
 17 18  1  6  0  0  0
 17 28  1  0  0  0  0
 19 24  1  0  0  0  0
 19 25  1  1  0  0  0
 20 27  1  0  0  0  0
 21 26  1  1  0  0  0
 21 24  1  0  0  0  0
 22 19  1  0  0  0  0
 27 23  2  0  0  0  0
 27 26  1  0  0  0  0
 28 20  1  0  0  0  0
 28 22  1  1  0  0  0
 28 21  1  0  0  0  0
 30 33  1  0  0  0  0
 30 29  2  0  0  0  0
 31 33  2  0  0  0  0
 33 32  1  0  0  0  0
 34 35  1  0  0  0  0
 35 11  1  0  0  0  0
 36 37  1  1  0  0  0
 38 39  1  0  0  0  0
 38 40  1  0  0  0  0
 39 36  1  1  0  0  0
 39 40  1  0  0  0  0
 40 41  1  6  0  0  0
 42 53  1  6  0  0  0
 42 45  1  0  0  0  0
 44 51  1  0  0  0  0
 45 43  1  0  0  0  0
 45 48  1  0  0  0  0
 46 48  1  0  0  0  0
 47 41  1  6  0  0  0
 47 44  1  0  0  0  0
 47 50  1  0  0  0  0
 50 42  1  0  0  0  0
 50 52  2  0  0  0  0
 51 52  1  0  0  0  0
 51 49  1  0  0  0  0
 52 46  1  0  0  0  0
 54 53  1  0  0  0  0
M  END
>  <MODEL>
7

>  <REMARK>
 VINA RESULT:      -7.5      2.821      4.645
  Name = 
  10 active torsions:
  status: ('A' for Active; 'I' for Inactive)
    1  A    between atoms: C_3  and  C_9
    2  A    between atoms: C_5  and  C_14
    3  A    between atoms: C_5  and  C_52
    4  A    between atoms: C_16  and  C_39
    5  A    between atoms: C_27  and  C_44
    6  A    between atoms: N_29  and  C_39
    7  A    between atoms: C_34  and  C_47
    8  A    between atoms: C_35  and  N_40
    9  A    between atoms: C_37  and  C_44
   10  A    between atoms: C_46  and  C_54
                            x       y       z     vdW  Elec       q    Type
                         _______ _______ _______ _____ _____    ______ ____

>  <TORSDO>
F 10

$$$$
=
 OpenBabel11042417413D

 54 62  0  0  1  0  0  0  0  0999 V2000
  189.9610  171.7930  142.7270 C   0  0  0  0  0  3  0  0  0  0  0  0
  189.7460  172.9090  143.5330 C   0  0  0  0  0  0  0  0  0  0  0  0
  189.1500  175.1160  144.0000 C   0  0  0  0  0  0  0  0  0  0  0  0
  189.4690  174.6660  145.2760 C   0  0  0  0  0  0  0  0  0  0  0  0
  187.6890  177.1440  145.8010 C   0  0  0  0  0  0  0  0  0  0  0  0
  189.9700  173.0490  145.1880 S   0  0  0  0  0  0  0  0  0  0  0  0
  189.0280  174.2430  141.6560 C   0  0  0  0  0  3  0  0  0  0  0  0
  189.6940  171.9120  141.3550 C   0  0  0  0  0  3  0  0  0  0  0  0
  188.8060  176.4770  143.7260 N   0  0  0  0  0  0  0  0  0  0  0  0
  186.6300  177.7280  143.6370 C   0  0  0  0  0  1  0  0  0  0  0  0
  189.5160  175.4900  146.4900 C   0  0  0  0  0  0  0  0  0  0  0  0
  189.2990  174.1210  143.0200 C   0  0  0  0  0  0  0  0  0  0  0  0
  188.7270  176.5550  146.6840 C   0  0  0  0  0  3  0  0  0  0  0  0
  189.2140  173.1270  140.8180 C   0  0  0  0  0  0  0  0  0  0  0  0
  187.7280  177.1050  144.4450 C   0  0  0  0  0  0  0  0  0  0  0  0
  188.9400  173.2390  139.3510 C   0  0  1  0  0  3  0  0  0  0  0  0
  189.6010  172.1340  138.6100 C   0  0  1  0  0  3  0  0  0  0  0  0
  188.2270  172.1020  138.9110 O   0  0  0  0  0  0  0  0  0  0  0  0
  191.1270  170.7640  135.9980 C   0  0  2  0  0  3  0  0  0  0  0  0
  188.9320  173.4440  136.6220 O   0  0  0  0  0  0  0  0  0  0  0  0
  191.2420  173.0040  136.8970 C   0  0  1  0  0  3  0  0  0  0  0  0
  189.7060  171.1850  136.2970 C   0  0  0  0  0  2  0  0  0  0  0  0
  189.0560  175.5290  135.6270 O   0  0  0  0  0  0  0  0  0  0  0  0
  191.9350  172.0420  135.9530 C   0  0  0  0  0  2  0  0  0  0  0  0
  191.1910  170.0510  134.6640 C   0  0  0  0  0  1  0  0  0  0  0  0
  191.0890  174.3670  136.2200 C   0  0  0  0  0  2  0  0  0  0  0  0
  189.6260  174.5190  136.1140 C   0  0  0  0  0  0  0  0  0  0  0  0
  189.8220  172.4540  137.1230 C   0  0  1  0  0  0  0  0  0  0  0  0
  186.9550  178.8590  147.2790 O   0  0  0  0  0  0  0  0  0  0  0  0
  186.6340  177.9090  146.5120 C   0  0  0  0  0  0  0  0  0  0  0  0
  184.2770  178.5670  146.0590 O   0  0  0  0  0  0  0  0  0  0  0  0
  184.8160  176.3900  146.5030 O   0  0  0  0  0  1  0  0  0  0  0  0
  185.2070  177.5760  146.3500 C   0  0  0  0  0  0  0  0  0  0  0  0
  191.4330  175.8810  147.9400 O   0  0  0  0  0  1  0  0  0  0  0  0
  190.4070  175.0920  147.5360 N   0  0  0  0  0  2  0  0  0  0  0  0
  189.4950  177.1690  142.6340 C   0  0  1  0  0  3  0  0  0  0  0  0
  188.8540  178.3730  142.3340 O   0  0  0  0  0  1  0  0  0  0  0  0
  191.0620  178.0760  144.3380 C   0  0  0  0  0  2  0  0  0  0  0  0
  190.9540  177.4210  142.9760 C   0  0  1  0  0  3  0  0  0  0  0  0
  191.3200  176.5900  144.1880 C   0  0  1  0  0  3  0  0  0  0  0  0
  192.8100  176.3100  144.1510 C   0  0  0  0  0  2  0  0  0  0  0  0
  193.3740  173.5740  142.2740 C   0  0  1  0  0  3  0  0  0  0  0  0
  193.8740  172.1220  140.4610 C   0  0  0  0  0  1  0  0  0  0  0  0
  194.0430  174.9400  145.8210 C   0  0  0  0  0  2  0  0  0  0  0  0
  194.4620  173.0300  141.4330 N   0  0  0  0  0  0  0  0  0  0  0  0
  196.0970  173.0560  143.2700 C   0  0  0  0  0  2  0  0  0  0  0  0
  193.0970  174.8870  144.6080 C   0  0  2  0  0  3  0  0  0  0  0  0
  195.3670  172.2020  142.2360 C   0  0  0  0  0  2  0  0  0  0  0  0
  196.4750  174.1660  146.1640 C   0  0  0  0  0  1  0  0  0  0  0  0
  193.9040  174.1600  143.5670 C   0  0  0  0  0  0  0  0  0  0  0  0
  195.2740  174.3240  145.3590 N   0  0  0  0  0  0  0  0  0  0  0  0
  195.0920  173.8450  144.0440 C   0  0  0  0  0  0  0  0  0  0  0  0
  192.6010  174.6470  141.5090 C   0  0  0  0  0  2  0  0  0  0  0  0
  193.4860  175.5250  140.8820 O   0  0  0  0  0  1  0  0  0  0  0  0
  1  2  1  0  0  0  0
  2  6  1  0  0  0  0
  3  4  2  0  0  0  0
  4 11  1  0  0  0  0
  5 30  1  0  0  0  0
  5 13  1  0  0  0  0
  6  4  1  0  0  0  0
  7 12  1  0  0  0  0
  8  1  2  0  0  0  0
  9  3  1  0  0  0  0
  9 15  1  0  0  0  0
 10 15  1  0  0  0  0
 11 13  2  0  0  0  0
 11 35  1  0  0  0  0
 12  2  2  0  0  0  0
 12  3  1  0  0  0  0
 14  8  1  0  0  0  0
 14  7  2  0  0  0  0
 15  5  2  0  0  0  0
 16 14  1  1  0  0  0
 17 18  1  6  0  0  0
 17 16  1  0  0  0  0
 18 16  1  0  0  0  0
 19 25  1  6  0  0  0
 19 22  1  0  0  0  0
 20 28  1  0  0  0  0
 21 24  1  6  0  0  0
 21 28  1  0  0  0  0
 23 27  2  0  0  0  0
 24 19  1  0  0  0  0
 26 21  1  0  0  0  0
 27 26  1  0  0  0  0
 27 20  1  0  0  0  0
 28 22  1  6  0  0  0
 28 17  1  0  0  0  0
 30 29  2  0  0  0  0
 31 33  2  0  0  0  0
 33 32  1  0  0  0  0
 33 30  1  0  0  0  0
 35 34  1  0  0  0  0
 36 37  1  1  0  0  0
 36  9  1  0  0  0  0
 39 36  1  1  0  0  0
 39 40  1  0  0  0  0
 39 38  1  0  0  0  0
 40 41  1  6  0  0  0
 40 38  1  0  0  0  0
 42 53  1  6  0  0  0
 42 50  1  0  0  0  0
 43 45  1  0  0  0  0
 45 48  1  0  0  0  0
 45 42  1  0  0  0  0
 46 52  1  0  0  0  0
 47 41  1  6  0  0  0
 47 44  1  0  0  0  0
 48 46  1  0  0  0  0
 50 52  2  0  0  0  0
 50 47  1  0  0  0  0
 51 44  1  0  0  0  0
 51 49  1  0  0  0  0
 52 51  1  0  0  0  0
 54 53  1  0  0  0  0
M  END
>  <MODEL>
8

>  <REMARK>
 VINA RESULT:      -7.4      2.343      7.902
  Name = 
  10 active torsions:
  status: ('A' for Active; 'I' for Inactive)
    1  A    between atoms: C_3  and  C_9
    2  A    between atoms: C_5  and  C_14
    3  A    between atoms: C_5  and  C_52
    4  A    between atoms: C_16  and  C_39
    5  A    between atoms: C_27  and  C_44
    6  A    between atoms: N_29  and  C_39
    7  A    between atoms: C_34  and  C_47
    8  A    between atoms: C_35  and  N_40
    9  A    between atoms: C_37  and  C_44
   10  A    between atoms: C_46  and  C_54
                            x       y       z     vdW  Elec       q    Type
                         _______ _______ _______ _____ _____    ______ ____

>  <TORSDO>
F 10

$$$$
=
 OpenBabel11042417413D

 54 62  0  0  1  0  0  0  0  0999 V2000
  194.7660  175.9920  143.5130 C   0  0  0  0  0  3  0  0  0  0  0  0
  193.3940  176.1940  143.6490 C   0  0  0  0  0  0  0  0  0  0  0  0
  191.2230  175.6810  144.3310 C   0  0  0  0  0  0  0  0  0  0  0  0
  191.0060  176.8990  143.6970 C   0  0  0  0  0  0  0  0  0  0  0  0
  188.5390  176.5890  145.5420 C   0  0  0  0  0  0  0  0  0  0  0  0
  192.4760  177.4750  143.0780 S   0  0  0  0  0  0  0  0  0  0  0  0
  193.1180  174.1420  144.8850 C   0  0  0  0  0  3  0  0  0  0  0  0
  195.3200  174.8370  144.0870 C   0  0  0  0  0  3  0  0  0  0  0  0
  190.1560  174.8840  144.8530 N   0  0  0  0  0  0  0  0  0  0  0  0
  189.0500  174.7320  147.1030 C   0  0  0  0  0  1  0  0  0  0  0  0
  189.6980  177.5230  143.4610 C   0  0  0  0  0  0  0  0  0  0  0  0
  192.5720  175.2890  144.3090 C   0  0  0  0  0  0  0  0  0  0  0  0
  188.6530  177.3690  144.2830 C   0  0  0  0  0  3  0  0  0  0  0  0
  194.5050  173.9190  144.7850 C   0  0  0  0  0  0  0  0  0  0  0  0
  189.2310  175.4500  145.7990 C   0  0  0  0  0  0  0  0  0  0  0  0
  195.1100  172.6900  145.3860 C   0  0  1  0  0  3  0  0  0  0  0  0
  196.1620  172.1350  144.4940 C   0  0  1  0  0  3  0  0  0  0  0  0
  196.4860  172.9040  145.6260 O   0  0  0  0  0  0  0  0  0  0  0  0
  196.3760  169.3310  142.7280 C   0  0  2  0  0  3  0  0  0  0  0  0
  197.0480  170.3980  146.0150 O   0  0  0  0  0  0  0  0  0  0  0  0
  195.1340  169.8400  144.7380 C   0  0  1  0  0  3  0  0  0  0  0  0
  197.3160  170.0860  143.6400 C   0  0  0  0  0  2  0  0  0  0  0  0
  196.5980  169.1820  147.9310 O   0  0  0  0  0  0  0  0  0  0  0  0
  195.2560  168.8310  143.6140 C   0  0  0  0  0  2  0  0  0  0  0  0
  197.0970  168.1670  142.0810 C   0  0  0  0  0  1  0  0  0  0  0  0
  195.0480  169.1080  146.0780 C   0  0  0  0  0  2  0  0  0  0  0  0
  196.2790  169.5400  146.7670 C   0  0  0  0  0  0  0  0  0  0  0  0
  196.4450  170.6460  144.7510 C   0  0  1  0  0  0  0  0  0  0  0  0
  187.8360  177.6920  147.5300 O   0  0  0  0  0  0  0  0  0  0  0  0
  187.4980  177.0780  146.4800 C   0  0  0  0  0  0  0  0  0  0  0  0
  185.6400  176.3370  144.9990 O   0  0  0  0  0  0  0  0  0  0  0  0
  185.2110  177.1530  147.0910 O   0  0  0  0  0  1  0  0  0  0  0  0
  186.0650  176.8520  146.2180 C   0  0  0  0  0  0  0  0  0  0  0  0
  188.5820  178.2080  141.4080 O   0  0  0  0  0  1  0  0  0  0  0  0
  189.5620  178.3850  142.3270 N   0  0  0  0  0  2  0  0  0  0  0  0
  190.0980  173.4650  144.4910 C   0  0  1  0  0  3  0  0  0  0  0  0
  189.5890  172.7080  145.5480 O   0  0  0  0  0  1  0  0  0  0  0  0
  189.6450  174.2630  142.1810 C   0  0  0  0  0  2  0  0  0  0  0  0
  189.2610  173.2500  143.2400 C   0  0  1  0  0  3  0  0  0  0  0  0
  190.1800  172.8470  142.1050 C   0  0  1  0  0  3  0  0  0  0  0  0
  189.3820  172.0310  141.1050 C   0  0  0  0  0  2  0  0  0  0  0  0
  189.5410  172.9830  137.8810 C   0  0  1  0  0  3  0  0  0  0  0  0
  189.3040  174.1990  135.8530 C   0  0  0  0  0  1  0  0  0  0  0  0
  191.6940  171.2720  140.5890 C   0  0  0  0  0  2  0  0  0  0  0  0
  190.0420  174.1380  137.1050 N   0  0  0  0  0  0  0  0  0  0  0  0
  192.3370  173.9040  137.9540 C   0  0  0  0  0  2  0  0  0  0  0  0
  190.2900  171.5050  140.0020 C   0  0  2  0  0  3  0  0  0  0  0  0
  191.4400  173.9300  136.7190 C   0  0  0  0  0  2  0  0  0  0  0  0
  193.9690  172.3970  140.1500 C   0  0  0  0  0  1  0  0  0  0  0  0
  190.5160  172.5690  138.9640 C   0  0  0  0  0  0  0  0  0  0  0  0
  192.5440  172.2320  139.9070 N   0  0  0  0  0  0  0  0  0  0  0  0
  191.7870  172.9160  138.9310 C   0  0  0  0  0  0  0  0  0  0  0  0
  188.1900  173.3160  138.5130 C   0  0  0  0  0  2  0  0  0  0  0  0
  188.2130  174.6060  139.0460 O   0  0  0  0  0  1  0  0  0  0  0  0
  1  2  2  0  0  0  0
  1  8  1  0  0  0  0
  2 12  1  0  0  0  0
  3  9  1  0  0  0  0
  4  3  2  0  0  0  0
  5 15  2  0  0  0  0
  5 30  1  0  0  0  0
  6  2  1  0  0  0  0
  6  4  1  0  0  0  0
  8 14  2  0  0  0  0
  9 15  1  0  0  0  0
 11  4  1  0  0  0  0
 11 13  2  0  0  0  0
 12  3  1  0  0  0  0
 12  7  2  0  0  0  0
 13  5  1  0  0  0  0
 14  7  1  0  0  0  0
 15 10  1  0  0  0  0
 16 14  1  6  0  0  0
 16 18  1  0  0  0  0
 17 28  1  0  0  0  0
 17 16  1  0  0  0  0
 17 18  1  1  0  0  0
 19 25  1  1  0  0  0
 19 24  1  0  0  0  0
 19 22  1  0  0  0  0
 20 27  1  0  0  0  0
 21 24  1  6  0  0  0
 21 28  1  0  0  0  0
 21 26  1  0  0  0  0
 26 27  1  0  0  0  0
 27 23  2  0  0  0  0
 28 22  1  6  0  0  0
 28 20  1  0  0  0  0
 30 29  2  0  0  0  0
 31 33  2  0  0  0  0
 33 30  1  0  0  0  0
 33 32  1  0  0  0  0
 34 35  1  0  0  0  0
 35 11  1  0  0  0  0
 36  9  1  0  0  0  0
 36 37  1  1  0  0  0
 38 39  1  0  0  0  0
 39 36  1  1  0  0  0
 40 41  1  6  0  0  0
 40 38  1  0  0  0  0
 40 39  1  0  0  0  0
 42 53  1  1  0  0  0
 42 50  1  0  0  0  0
 43 45  1  0  0  0  0
 45 42  1  0  0  0  0
 46 52  1  0  0  0  0
 47 44  1  0  0  0  0
 47 41  1  1  0  0  0
 48 45  1  0  0  0  0
 48 46  1  0  0  0  0
 50 47  1  0  0  0  0
 51 49  1  0  0  0  0
 51 44  1  0  0  0  0
 52 50  2  0  0  0  0
 52 51  1  0  0  0  0
 53 54  1  0  0  0  0
M  END
>  <MODEL>
9

>  <REMARK>
 VINA RESULT:      -7.4      2.633      9.057
  Name = 
  10 active torsions:
  status: ('A' for Active; 'I' for Inactive)
    1  A    between atoms: C_3  and  C_9
    2  A    between atoms: C_5  and  C_14
    3  A    between atoms: C_5  and  C_52
    4  A    between atoms: C_16  and  C_39
    5  A    between atoms: C_27  and  C_44
    6  A    between atoms: N_29  and  C_39
    7  A    between atoms: C_34  and  C_47
    8  A    between atoms: C_35  and  N_40
    9  A    between atoms: C_37  and  C_44
   10  A    between atoms: C_46  and  C_54
                            x       y       z     vdW  Elec       q    Type
                         _______ _______ _______ _____ _____    ______ ____

>  <TORSDO>
F 10

$$$$
