=
 OpenBabel11042419473D

 50 56  0  0  1  0  0  0  0  0999 V2000
  190.0580  175.8200  146.8170 C   0  0  1  0  0  3  0  0  0  0  0  0
  192.2510  174.8480  143.2650 C   0  0  0  0  0  2  0  0  0  0  0  0
  192.3170  176.3720  147.3460 C   0  0  0  0  0  2  0  0  0  0  0  0
  190.3760  175.5740  145.3330 C   0  0  2  0  0  3  0  0  0  0  0  0
  192.8370  176.1090  145.9320 C   0  0  2  0  0  3  0  0  0  0  0  0
  192.0360  176.2000  143.5760 O   0  0  0  0  0  0  0  0  0  0  0  0
  191.6730  176.3110  144.9390 C   0  0  1  0  0  3  0  0  0  0  0  0
  193.4570  174.7080  145.8720 C   0  0  0  0  0  2  0  0  0  0  0  0
  194.2530  174.4970  144.6190 C   0  0  0  0  0  3  0  0  0  0  0  0
  193.7060  174.5270  143.4010 C   0  0  0  0  0  0  0  0  0  0  0  0
  188.9140  175.0150  147.2200 N   0  0  0  0  0  1  0  0  0  0  0  0
  191.2040  175.4750  147.6590 N   0  0  0  0  0  2  0  0  0  0  0  0
  194.5340  174.3060  142.1910 C   0  0  0  0  0  0  0  0  0  0  0  0
  194.7530  171.8090  142.2530 N   0  0  0  0  0  1  0  0  0  0  0  0
  194.9860  173.0940  141.6840 C   0  0  0  0  0  0  0  0  0  0  0  0
  195.7320  173.2860  140.5820 N   0  0  0  0  0  0  0  0  0  0  0  0
  195.0550  175.2400  141.3050 C   0  0  0  0  0  0  0  0  0  0  0  0
  195.7630  174.5900  140.3580 N   0  0  0  0  0  0  0  0  0  0  0  0
  194.8590  176.7200  141.3420 C   0  0  0  0  0  1  0  0  0  0  0  0
  196.4900  175.1970  139.2540 C   0  0  0  0  0  2  0  0  0  0  0  0
  197.2270  173.9080  138.2070 S   0  0  0  0  0  0  0  0  0  0  0  0
  196.0780  176.7990  135.2180 S   0  0  0  0  0  0  0  0  0  0  0  0
  195.0480  175.0320  136.9870 C   0  0  0  0  0  2  0  0  0  0  0  0
  197.2180  175.7770  136.2080 C   0  0  0  0  0  2  0  0  0  0  0  0
  194.6320  175.8470  135.7840 C   0  0  1  0  0  3  0  0  0  0  0  0
  196.4560  174.5660  136.7000 C   0  0  1  0  0  3  0  0  0  0  0  0
  193.5430  176.7540  136.1450 N   0  0  0  0  0  2  0  0  0  0  0  0
  192.9760  177.3800  134.9470 C   0  0  2  0  0  3  0  0  0  0  0  0
  193.1720  178.7670  134.9670 O   0  0  0  0  0  1  0  0  0  0  0  0
  191.4960  177.0460  134.7890 C   0  0  0  0  0  1  0  0  0  0  0  0
  187.5840  175.5090  142.7400 C   0  0  0  0  0  3  0  0  0  0  0  0
  187.0850  176.8150  142.8450 C   0  0  0  0  0  0  0  0  0  0  0  0
  187.6660  177.7070  143.7530 C   0  0  0  0  0  3  0  0  0  0  0  0
  188.7370  177.2950  144.5540 C   0  0  0  0  0  3  0  0  0  0  0  0
  189.2360  175.9920  144.4500 C   0  0  0  0  0  0  0  0  0  0  0  0
  188.6560  175.0970  143.5370 C   0  0  0  0  0  3  0  0  0  0  0  0
  185.9960  177.2520  142.0300 N   0  0  0  0  0  2  0  0  0  0  0  0
  184.7330  177.5260  142.5780 N   0  0  0  0  0  0  0  0  0  0  0  0
  184.4840  178.4740  140.3590 O   0  0  0  0  0  1  0  0  0  0  0  0
  183.9360  178.2700  141.6310 C   0  0  2  0  0  0  0  0  0  0  0  0
  184.6090  178.9120  142.6140 O   0  0  0  0  0  0  0  0  0  0  0  0
  182.4300  178.2030  141.8270 C   0  0  2  0  0  3  0  0  0  0  0  0
  180.6990  179.4200  142.5320 C   0  0  0  0  0  2  0  0  0  0  0  0
  181.7160  178.5810  140.5520 C   0  0  0  0  0  2  0  0  0  0  0  0
  182.0300  179.0930  142.8360 O   0  0  0  0  0  0  0  0  0  0  0  0
  180.4810  179.2780  141.0390 C   0  0  1  0  0  3  0  0  0  0  0  0
  179.2300  177.3650  139.2980 O   0  0  0  0  0  0  0  0  0  0  0  0
  178.8050  177.1630  142.0170 O   0  0  0  0  0  1  0  0  0  0  0  0
  179.0180  178.2400  140.7300 P   0  0  0  0  0  0  0  0  0  0  0  0
  177.7920  179.1120  140.6010 O   0  0  0  0  0  1  0  0  0  0  0  0
  1 11  1  1  0  0  0
  1 12  1  0  0  0  0
  2 10  1  0  0  0  0
  2  6  1  0  0  0  0
  3 12  1  0  0  0  0
  4 35  1  6  0  0  0
  4  1  1  0  0  0  0
  5  8  1  1  0  0  0
  5  3  1  0  0  0  0
  7  6  1  6  0  0  0
  7  4  1  0  0  0  0
  7  5  1  0  0  0  0
  9  8  1  0  0  0  0
 10  9  2  0  0  0  0
 13 10  1  0  0  0  0
 15 13  1  0  0  0  0
 15 14  1  0  0  0  0
 16 15  2  0  0  0  0
 17 19  1  0  0  0  0
 17 13  2  0  0  0  0
 18 16  1  0  0  0  0
 18 17  1  0  0  0  0
 20 18  1  0  0  0  0
 21 20  1  0  0  0  0
 22 25  1  0  0  0  0
 22 24  1  0  0  0  0
 24 26  1  0  0  0  0
 25 27  1  1  0  0  0
 25 23  1  0  0  0  0
 26 23  1  0  0  0  0
 26 21  1  1  0  0  0
 28 30  1  1  0  0  0
 28 29  1  0  0  0  0
 28 27  1  0  0  0  0
 31 32  2  0  0  0  0
 31 36  1  0  0  0  0
 32 33  1  0  0  0  0
 33 34  2  0  0  0  0
 35 34  1  0  0  0  0
 36 35  2  0  0  0  0
 37 38  1  0  0  0  0
 37 32  1  0  0  0  0
 38 41  1  0  0  0  0
 40 39  1  6  0  0  0
 40 42  1  0  0  0  0
 40 38  1  0  0  0  0
 40 41  1  0  0  0  0
 42 44  1  6  0  0  0
 42 45  1  0  0  0  0
 43 45  1  0  0  0  0
 44 46  1  0  0  0  0
 46 49  1  1  0  0  0
 46 43  1  0  0  0  0
 47 49  2  0  0  0  0
 49 48  1  0  0  0  0
 50 49  1  0  0  0  0
M  END
>  <MODEL>
1

>  <REMARK>
 VINA RESULT:      -8.0      0.000      0.000
  Name = 
  11 active torsions:
  status: ('A' for Active; 'I' for Inactive)
    1  A    between atoms: C_1  and  C_44
    2  A    between atoms: C_4  and  C_31
    3  A    between atoms: N_5  and  C_12
    4  A    between atoms: N_5  and  C_41
    5  A    between atoms: N_6  and  C_7
    6  A    between atoms: N_6  and  N_15
    7  A    between atoms: S_9  and  C_47
    8  A    between atoms: S_9  and  C_50
    9  A    between atoms: C_26  and  C_32
   10  A    between atoms: C_27  and  P_28
   11  A    between atoms: N_39  and  C_50
                            x       y       z     vdW  Elec       q    Type
                         _______ _______ _______ _____ _____    ______ ____

>  <TORSDO>
F 11

$$$$
=
 OpenBabel11042419473D

 50 56  0  0  1  0  0  0  0  0999 V2000
  190.2290  175.8870  146.8370 C   0  0  1  0  0  3  0  0  0  0  0  0
  192.3170  174.9240  143.2190 C   0  0  0  0  0  2  0  0  0  0  0  0
  192.5060  176.4150  147.3080 C   0  0  0  0  0  2  0  0  0  0  0  0
  190.5050  175.6510  145.3420 C   0  0  2  0  0  3  0  0  0  0  0  0
  192.9860  176.1580  145.8790 C   0  0  2  0  0  3  0  0  0  0  0  0
  192.1230  176.2750  143.5460 O   0  0  0  0  0  0  0  0  0  0  0  0
  191.7980  176.3790  144.9200 C   0  0  1  0  0  3  0  0  0  0  0  0
  193.5910  174.7530  145.7910 C   0  0  0  0  0  2  0  0  0  0  0  0
  194.3510  174.5450  144.5160 C   0  0  0  0  0  3  0  0  0  0  0  0
  193.7720  174.5890  143.3130 C   0  0  0  0  0  0  0  0  0  0  0  0
  189.0890  175.0890  147.2630 N   0  0  0  0  0  1  0  0  0  0  0  0
  191.3950  175.5250  147.6440 N   0  0  0  0  0  2  0  0  0  0  0  0
  194.5650  174.3700  142.0800 C   0  0  0  0  0  0  0  0  0  0  0  0
  195.3290  176.7130  141.6220 N   0  0  0  0  0  1  0  0  0  0  0  0
  195.2600  175.3190  141.3410 C   0  0  0  0  0  0  0  0  0  0  0  0
  195.8430  174.7550  140.2680 N   0  0  0  0  0  0  0  0  0  0  0  0
  194.7830  173.1910  141.3780 C   0  0  0  0  0  0  0  0  0  0  0  0
  195.5530  173.4640  140.3030 N   0  0  0  0  0  0  0  0  0  0  0  0
  194.2930  171.8270  141.7370 C   0  0  0  0  0  1  0  0  0  0  0  0
  195.9950  172.5150  139.2940 C   0  0  0  0  0  2  0  0  0  0  0  0
  195.4950  173.0810  137.6420 S   0  0  0  0  0  0  0  0  0  0  0  0
  191.6530  171.5990  136.3530 S   0  0  0  0  0  0  0  0  0  0  0  0
  192.8240  173.1380  138.2450 C   0  0  0  0  0  2  0  0  0  0  0  0
  193.4680  171.7740  136.3480 C   0  0  0  0  0  2  0  0  0  0  0  0
  191.5140  172.4370  137.9650 C   0  0  1  0  0  3  0  0  0  0  0  0
  193.9010  172.2130  137.7290 C   0  0  1  0  0  3  0  0  0  0  0  0
  190.4220  173.4090  137.9340 N   0  0  0  0  0  2  0  0  0  0  0  0
  189.3520  173.0110  138.8530 C   0  0  2  0  0  3  0  0  0  0  0  0
  188.0950  173.1530  138.2500 O   0  0  0  0  0  1  0  0  0  0  0  0
  189.4150  173.7960  140.1590 C   0  0  0  0  0  1  0  0  0  0  0  0
  187.8160  177.7910  143.6960 C   0  0  0  0  0  3  0  0  0  0  0  0
  187.1940  176.8510  142.8620 C   0  0  0  0  0  0  0  0  0  0  0  0
  187.6500  175.5290  142.8480 C   0  0  0  0  0  3  0  0  0  0  0  0
  188.7240  175.1480  143.6600 C   0  0  0  0  0  3  0  0  0  0  0  0
  189.3450  176.0850  144.4930 C   0  0  0  0  0  0  0  0  0  0  0  0
  188.8870  177.4110  144.5100 C   0  0  0  0  0  3  0  0  0  0  0  0
  186.0930  177.2230  142.0320 N   0  0  0  0  0  2  0  0  0  0  0  0
  184.8250  177.4910  142.5710 N   0  0  0  0  0  0  0  0  0  0  0  0
  184.5980  178.4660  140.3610 O   0  0  0  0  0  1  0  0  0  0  0  0
  184.0370  178.2480  141.6240 C   0  0  2  0  0  0  0  0  0  0  0  0
  184.7010  178.8780  142.6220 O   0  0  0  0  0  0  0  0  0  0  0  0
  182.5300  178.1800  141.8050 C   0  0  2  0  0  3  0  0  0  0  0  0
  180.7910  179.3950  142.4970 C   0  0  0  0  0  2  0  0  0  0  0  0
  181.8290  178.5630  140.5240 C   0  0  0  0  0  2  0  0  0  0  0  0
  182.1190  179.0660  142.8130 O   0  0  0  0  0  0  0  0  0  0  0  0
  180.5880  179.2580  141.0010 C   0  0  1  0  0  3  0  0  0  0  0  0
  178.8970  177.1410  141.9550 O   0  0  0  0  0  1  0  0  0  0  0  0
  177.7590  179.2030  140.5160 O   0  0  0  0  0  1  0  0  0  0  0  0
  179.1280  178.2210  140.6740 P   0  0  0  0  0  0  0  0  0  0  0  0
  179.3330  177.4410  139.3980 O   0  0  0  0  0  0  0  0  0  0  0  0
  1 11  1  1  0  0  0
  1 12  1  0  0  0  0
  2 10  1  0  0  0  0
  2  6  1  0  0  0  0
  3 12  1  0  0  0  0
  4 35  1  6  0  0  0
  4  1  1  0  0  0  0
  5  8  1  1  0  0  0
  5  3  1  0  0  0  0
  7  6  1  6  0  0  0
  7  4  1  0  0  0  0
  7  5  1  0  0  0  0
  9  8  1  0  0  0  0
 10  9  2  0  0  0  0
 13 10  1  0  0  0  0
 15 14  1  0  0  0  0
 15 13  1  0  0  0  0
 16 18  1  0  0  0  0
 16 15  2  0  0  0  0
 17 19  1  0  0  0  0
 17 13  2  0  0  0  0
 18 17  1  0  0  0  0
 20 18  1  0  0  0  0
 21 20  1  0  0  0  0
 22 25  1  0  0  0  0
 24 22  1  0  0  0  0
 24 26  1  0  0  0  0
 25 27  1  6  0  0  0
 25 23  1  0  0  0  0
 26 21  1  6  0  0  0
 26 23  1  0  0  0  0
 27 28  1  0  0  0  0
 28 30  1  1  0  0  0
 29 28  1  0  0  0  0
 31 36  1  0  0  0  0
 32 31  2  0  0  0  0
 33 32  1  0  0  0  0
 33 34  2  0  0  0  0
 34 35  1  0  0  0  0
 35 36  2  0  0  0  0
 37 38  1  0  0  0  0
 37 32  1  0  0  0  0
 38 41  1  0  0  0  0
 40 39  1  6  0  0  0
 40 42  1  0  0  0  0
 40 38  1  0  0  0  0
 40 41  1  0  0  0  0
 42 44  1  6  0  0  0
 42 45  1  0  0  0  0
 43 45  1  0  0  0  0
 44 46  1  0  0  0  0
 46 49  1  1  0  0  0
 46 43  1  0  0  0  0
 48 49  1  0  0  0  0
 49 47  1  0  0  0  0
 50 49  2  0  0  0  0
M  END
>  <MODEL>
2

>  <REMARK>
 VINA RESULT:      -7.8      2.234      2.932
  Name = 
  11 active torsions:
  status: ('A' for Active; 'I' for Inactive)
    1  A    between atoms: C_1  and  C_44
    2  A    between atoms: C_4  and  C_31
    3  A    between atoms: N_5  and  C_12
    4  A    between atoms: N_5  and  C_41
    5  A    between atoms: N_6  and  C_7
    6  A    between atoms: N_6  and  N_15
    7  A    between atoms: S_9  and  C_47
    8  A    between atoms: S_9  and  C_50
    9  A    between atoms: C_26  and  C_32
   10  A    between atoms: C_27  and  P_28
   11  A    between atoms: N_39  and  C_50
                            x       y       z     vdW  Elec       q    Type
                         _______ _______ _______ _____ _____    ______ ____

>  <TORSDO>
F 11

$$$$
=
 OpenBabel11042419473D

 50 56  0  0  1  0  0  0  0  0999 V2000
  196.7540  174.9240  144.6880 C   0  0  1  0  0  3  0  0  0  0  0  0
  194.1880  173.7740  141.4520 C   0  0  0  0  0  2  0  0  0  0  0  0
  197.8670  175.7240  142.7370 C   0  0  0  0  0  2  0  0  0  0  0  0
  195.4800  174.5500  143.9120 C   0  0  2  0  0  3  0  0  0  0  0  0
  196.7230  175.3580  141.7900 C   0  0  2  0  0  3  0  0  0  0  0  0
  194.2440  175.1280  141.8210 O   0  0  0  0  0  0  0  0  0  0  0  0
  195.4070  175.3520  142.5960 C   0  0  1  0  0  3  0  0  0  0  0  0
  197.0330  174.0190  141.1130 C   0  0  0  0  0  2  0  0  0  0  0  0
  196.1190  173.7460  139.9570 C   0  0  0  0  0  3  0  0  0  0  0  0
  194.7990  173.5980  140.0980 C   0  0  0  0  0  0  0  0  0  0  0  0
  196.8910  174.0690  145.8580 N   0  0  0  0  0  1  0  0  0  0  0  0
  197.9410  174.7710  143.8450 N   0  0  0  0  0  2  0  0  0  0  0  0
  193.9350  173.3230  138.9250 C   0  0  0  0  0  0  0  0  0  0  0  0
  194.1710  175.4880  137.6820 N   0  0  0  0  0  1  0  0  0  0  0  0
  193.6700  174.1650  137.8520 C   0  0  0  0  0  0  0  0  0  0  0  0
  192.8200  173.5840  136.9870 N   0  0  0  0  0  0  0  0  0  0  0  0
  193.1910  172.1870  138.6330 C   0  0  0  0  0  0  0  0  0  0  0  0
  192.5410  172.3820  137.4670 N   0  0  0  0  0  0  0  0  0  0  0  0
  193.1220  170.9280  139.4350 C   0  0  0  0  0  1  0  0  0  0  0  0
  191.6360  171.4490  136.8150 C   0  0  0  0  0  2  0  0  0  0  0  0
  190.6540  172.3100  135.5530 S   0  0  0  0  0  0  0  0  0  0  0  0
  188.2460  174.2240  138.5780 S   0  0  0  0  0  0  0  0  0  0  0  0
  189.5310  171.9110  138.0180 C   0  0  0  0  0  2  0  0  0  0  0  0
  189.0870  174.0500  136.9700 C   0  0  0  0  0  2  0  0  0  0  0  0
  188.4930  172.4620  138.9700 C   0  0  1  0  0  3  0  0  0  0  0  0
  189.2610  172.5740  136.6880 C   0  0  1  0  0  3  0  0  0  0  0  0
  188.9510  172.3130  140.3510 N   0  0  0  0  0  2  0  0  0  0  0  0
  189.5140  173.5730  140.8440 C   0  0  2  0  0  3  0  0  0  0  0  0
  190.9060  173.4820  140.9760 O   0  0  0  0  0  1  0  0  0  0  0  0
  188.8740  173.9930  142.1640 C   0  0  0  0  0  1  0  0  0  0  0  0
  192.7700  176.2150  146.0110 C   0  0  0  0  0  3  0  0  0  0  0  0
  191.9130  175.1320  146.2550 C   0  0  0  0  0  0  0  0  0  0  0  0
  192.2270  173.8700  145.7400 C   0  0  0  0  0  3  0  0  0  0  0  0
  193.3900  173.6900  144.9830 C   0  0  0  0  0  3  0  0  0  0  0  0
  194.2470  174.7700  144.7400 C   0  0  0  0  0  0  0  0  0  0  0  0
  193.9340  176.0360  145.2580 C   0  0  0  0  0  3  0  0  0  0  0  0
  190.7250  175.2980  147.0310 N   0  0  0  0  0  2  0  0  0  0  0  0
  189.4510  175.1060  146.4720 N   0  0  0  0  0  0  0  0  0  0  0  0
  189.2430  177.3700  147.3170 O   0  0  0  0  0  1  0  0  0  0  0  0
  188.6270  176.2700  146.7110 C   0  0  2  0  0  0  0  0  0  0  0  0
  188.5410  175.1900  147.5230 O   0  0  0  0  0  0  0  0  0  0  0  0
  187.4480  176.4570  145.7710 C   0  0  2  0  0  3  0  0  0  0  0  0
  185.4920  177.5170  145.6030 C   0  0  0  0  0  2  0  0  0  0  0  0
  187.7290  177.5710  144.7920 C   0  0  0  0  0  2  0  0  0  0  0  0
  186.2940  176.7890  146.4970 O   0  0  0  0  0  0  0  0  0  0  0  0
  186.3800  178.1910  144.5760 C   0  0  1  0  0  3  0  0  0  0  0  0
  186.1990  176.2210  142.4930 O   0  0  0  0  0  1  0  0  0  0  0  0
  184.0950  177.9720  142.8520 O   0  0  0  0  0  1  0  0  0  0  0  0
  185.7790  177.8090  142.9020 P   0  0  0  0  0  0  0  0  0  0  0  0
  186.4020  178.7580  141.9060 O   0  0  0  0  0  0  0  0  0  0  0  0
  1 11  1  1  0  0  0
  2  6  1  0  0  0  0
  3 12  1  0  0  0  0
  4  1  1  0  0  0  0
  4 35  1  1  0  0  0
  5  8  1  1  0  0  0
  5  7  1  0  0  0  0
  5  3  1  0  0  0  0
  7  6  1  6  0  0  0
  7  4  1  0  0  0  0
  9 10  2  0  0  0  0
  9  8  1  0  0  0  0
 10  2  1  0  0  0  0
 12  1  1  0  0  0  0
 13 10  1  0  0  0  0
 14 15  1  0  0  0  0
 15 13  1  0  0  0  0
 16 18  1  0  0  0  0
 16 15  2  0  0  0  0
 17 13  2  0  0  0  0
 17 19  1  0  0  0  0
 18 17  1  0  0  0  0
 20 18  1  0  0  0  0
 21 20  1  0  0  0  0
 22 25  1  0  0  0  0
 23 25  1  0  0  0  0
 24 22  1  0  0  0  0
 25 27  1  1  0  0  0
 26 21  1  6  0  0  0
 26 24  1  0  0  0  0
 26 23  1  0  0  0  0
 27 28  1  0  0  0  0
 28 29  1  0  0  0  0
 28 30  1  1  0  0  0
 31 32  1  0  0  0  0
 32 37  1  0  0  0  0
 33 32  2  0  0  0  0
 34 33  1  0  0  0  0
 35 34  2  0  0  0  0
 35 36  1  0  0  0  0
 36 31  2  0  0  0  0
 38 40  1  0  0  0  0
 38 37  1  0  0  0  0
 38 41  1  0  0  0  0
 40 39  1  1  0  0  0
 40 41  1  0  0  0  0
 42 44  1  6  0  0  0
 42 45  1  0  0  0  0
 42 40  1  0  0  0  0
 43 45  1  0  0  0  0
 46 49  1  6  0  0  0
 46 44  1  0  0  0  0
 46 43  1  0  0  0  0
 47 49  1  0  0  0  0
 48 49  1  0  0  0  0
 50 49  2  0  0  0  0
M  END
>  <MODEL>
3

>  <REMARK>
 VINA RESULT:      -7.5      3.921      6.559
  Name = 
  11 active torsions:
  status: ('A' for Active; 'I' for Inactive)
    1  A    between atoms: C_1  and  C_44
    2  A    between atoms: C_4  and  C_31
    3  A    between atoms: N_5  and  C_12
    4  A    between atoms: N_5  and  C_41
    5  A    between atoms: N_6  and  C_7
    6  A    between atoms: N_6  and  N_15
    7  A    between atoms: S_9  and  C_47
    8  A    between atoms: S_9  and  C_50
    9  A    between atoms: C_26  and  C_32
   10  A    between atoms: C_27  and  P_28
   11  A    between atoms: N_39  and  C_50
                            x       y       z     vdW  Elec       q    Type
                         _______ _______ _______ _____ _____    ______ ____

>  <TORSDO>
F 11

$$$$
=
 OpenBabel11042419473D

 50 56  0  0  1  0  0  0  0  0999 V2000
  189.9740  175.6410  146.9750 C   0  0  1  0  0  3  0  0  0  0  0  0
  192.4560  175.6390  143.4790 C   0  0  0  0  0  2  0  0  0  0  0  0
  192.1070  176.3630  147.7610 C   0  0  0  0  0  2  0  0  0  0  0  0
  190.3970  175.7210  145.4980 C   0  0  2  0  0  3  0  0  0  0  0  0
  192.7290  176.4390  146.3670 C   0  0  2  0  0  3  0  0  0  0  0  0
  192.0420  176.8700  144.0120 O   0  0  0  0  0  0  0  0  0  0  0  0
  191.5990  176.6760  145.3420 C   0  0  1  0  0  3  0  0  0  0  0  0
  193.5370  175.1640  146.1010 C   0  0  0  0  0  2  0  0  0  0  0  0
  194.4160  175.2940  144.8940 C   0  0  0  0  0  3  0  0  0  0  0  0
  193.9320  175.4840  143.6640 C   0  0  0  0  0  0  0  0  0  0  0  0
  188.9340  174.6370  147.1390 N   0  0  0  0  0  1  0  0  0  0  0  0
  191.1140  175.2900  147.8240 N   0  0  0  0  0  2  0  0  0  0  0  0
  194.8420  175.6010  142.4990 C   0  0  0  0  0  0  0  0  0  0  0  0
  196.6290  177.0620  143.4770 N   0  0  0  0  0  1  0  0  0  0  0  0
  196.0420  176.2970  142.4290 C   0  0  0  0  0  0  0  0  0  0  0  0
  196.5810  176.1970  141.2010 N   0  0  0  0  0  0  0  0  0  0  0  0
  194.7050  175.0650  141.2250 C   0  0  0  0  0  0  0  0  0  0  0  0
  195.7650  175.4440  140.4800 N   0  0  0  0  0  0  0  0  0  0  0  0
  193.6010  174.1880  140.7330 C   0  0  0  0  0  1  0  0  0  0  0  0
  196.0000  175.1180  139.0830 C   0  0  0  0  0  2  0  0  0  0  0  0
  197.7780  174.8980  138.7820 S   0  0  0  0  0  0  0  0  0  0  0  0
  197.0390  172.1300  135.5550 S   0  0  0  0  0  0  0  0  0  0  0  0
  196.0670  172.9280  137.9500 C   0  0  0  0  0  2  0  0  0  0  0  0
  197.9410  173.4090  136.4910 C   0  0  0  0  0  2  0  0  0  0  0  0
  195.9330  171.7910  136.9630 C   0  0  1  0  0  3  0  0  0  0  0  0
  197.5300  173.3060  137.9430 C   0  0  1  0  0  3  0  0  0  0  0  0
  194.5490  171.6890  136.5020 N   0  0  0  0  0  2  0  0  0  0  0  0
  194.3540  170.4610  135.7250 C   0  0  2  0  0  3  0  0  0  0  0  0
  193.3810  170.6440  134.7350 O   0  0  0  0  0  1  0  0  0  0  0  0
  193.9960  169.2820  136.6230 C   0  0  0  0  0  1  0  0  0  0  0  0
  187.5480  177.7530  143.9900 C   0  0  0  0  0  3  0  0  0  0  0  0
  187.1500  176.9200  142.9340 C   0  0  0  0  0  0  0  0  0  0  0  0
  187.8080  175.7030  142.7270 C   0  0  0  0  0  3  0  0  0  0  0  0
  188.8600  175.3210  143.5670 C   0  0  0  0  0  3  0  0  0  0  0  0
  189.2560  176.1510  144.6220 C   0  0  0  0  0  0  0  0  0  0  0  0
  188.5960  177.3710  144.8330 C   0  0  0  0  0  3  0  0  0  0  0  0
  186.0750  177.2930  142.0710 N   0  0  0  0  0  2  0  0  0  0  0  0
  184.8000  177.5960  142.5750 N   0  0  0  0  0  0  0  0  0  0  0  0
  184.5590  178.3030  140.2670 O   0  0  0  0  0  1  0  0  0  0  0  0
  183.9990  178.2210  141.5470 C   0  0  2  0  0  0  0  0  0  0  0  0
  184.6470  178.9760  142.4650 O   0  0  0  0  0  0  0  0  0  0  0  0
  182.4930  178.1420  141.7340 C   0  0  2  0  0  3  0  0  0  0  0  0
  180.7440  179.3570  142.3980 C   0  0  0  0  0  2  0  0  0  0  0  0
  181.7850  178.4830  140.4450 C   0  0  0  0  0  2  0  0  0  0  0  0
  182.0760  179.0510  142.7190 O   0  0  0  0  0  0  0  0  0  0  0  0
  180.5390  179.1780  140.9070 C   0  0  1  0  0  3  0  0  0  0  0  0
  177.7430  179.0790  140.2550 O   0  0  0  0  0  1  0  0  0  0  0  0
  179.3980  177.0820  139.3100 O   0  0  0  0  0  0  0  0  0  0  0  0
  179.0890  178.1180  140.6120 P   0  0  0  0  0  0  0  0  0  0  0  0
  178.7990  177.2970  141.8460 O   0  0  0  0  0  1  0  0  0  0  0  0
  1 11  1  6  0  0  0
  1 12  1  0  0  0  0
  2 10  1  0  0  0  0
  2  6  1  0  0  0  0
  3 12  1  0  0  0  0
  4 35  1  6  0  0  0
  4  1  1  0  0  0  0
  5  8  1  6  0  0  0
  5  3  1  0  0  0  0
  7  6  1  6  0  0  0
  7  4  1  0  0  0  0
  7  5  1  0  0  0  0
  9  8  1  0  0  0  0
 10  9  2  0  0  0  0
 13 10  1  0  0  0  0
 15 13  1  0  0  0  0
 15 14  1  0  0  0  0
 16 15  2  0  0  0  0
 17 13  2  0  0  0  0
 18 16  1  0  0  0  0
 18 17  1  0  0  0  0
 19 17  1  0  0  0  0
 20 18  1  0  0  0  0
 21 20  1  0  0  0  0
 22 24  1  0  0  0  0
 22 25  1  0  0  0  0
 24 26  1  0  0  0  0
 25 27  1  6  0  0  0
 25 23  1  0  0  0  0
 26 23  1  0  0  0  0
 26 21  1  6  0  0  0
 28 27  1  0  0  0  0
 28 30  1  1  0  0  0
 29 28  1  0  0  0  0
 31 36  1  0  0  0  0
 32 31  2  0  0  0  0
 33 32  1  0  0  0  0
 33 34  2  0  0  0  0
 34 35  1  0  0  0  0
 35 36  2  0  0  0  0
 37 38  1  0  0  0  0
 37 32  1  0  0  0  0
 40 39  1  6  0  0  0
 40 42  1  0  0  0  0
 40 41  1  0  0  0  0
 40 38  1  0  0  0  0
 41 38  1  0  0  0  0
 42 44  1  6  0  0  0
 42 45  1  0  0  0  0
 43 45  1  0  0  0  0
 44 46  1  0  0  0  0
 46 49  1  1  0  0  0
 46 43  1  0  0  0  0
 47 49  1  0  0  0  0
 48 49  2  0  0  0  0
 49 50  1  0  0  0  0
M  END
>  <MODEL>
4

>  <REMARK>
 VINA RESULT:      -7.4      2.242      2.784
  Name = 
  11 active torsions:
  status: ('A' for Active; 'I' for Inactive)
    1  A    between atoms: C_1  and  C_44
    2  A    between atoms: C_4  and  C_31
    3  A    between atoms: N_5  and  C_12
    4  A    between atoms: N_5  and  C_41
    5  A    between atoms: N_6  and  C_7
    6  A    between atoms: N_6  and  N_15
    7  A    between atoms: S_9  and  C_47
    8  A    between atoms: S_9  and  C_50
    9  A    between atoms: C_26  and  C_32
   10  A    between atoms: C_27  and  P_28
   11  A    between atoms: N_39  and  C_50
                            x       y       z     vdW  Elec       q    Type
                         _______ _______ _______ _____ _____    ______ ____

>  <TORSDO>
F 11

$$$$
=
 OpenBabel11042419473D

 50 56  0  0  1  0  0  0  0  0999 V2000
  186.5110  178.2050  148.0290 C   0  0  1  0  0  3  0  0  0  0  0  0
  186.8130  177.8110  143.7700 C   0  0  0  0  0  2  0  0  0  0  0  0
  184.2540  177.9770  147.2930 C   0  0  0  0  0  2  0  0  0  0  0  0
  187.0860  177.8720  146.6420 C   0  0  2  0  0  3  0  0  0  0  0  0
  184.6310  177.6940  145.8380 C   0  0  2  0  0  3  0  0  0  0  0  0
  186.4910  176.6760  144.5320 O   0  0  0  0  0  0  0  0  0  0  0  0
  186.0490  177.0850  145.8130 C   0  0  1  0  0  3  0  0  0  0  0  0
  184.5040  178.9840  145.0210 C   0  0  0  0  0  2  0  0  0  0  0  0
  184.5590  178.7240  143.5450 C   0  0  0  0  0  3  0  0  0  0  0  0
  185.6330  178.2100  142.9410 C   0  0  0  0  0  0  0  0  0  0  0  0
  187.4350  179.0630  148.7550 N   0  0  0  0  0  1  0  0  0  0  0  0
  185.2220  178.8870  147.9070 N   0  0  0  0  0  2  0  0  0  0  0  0
  185.6430  177.9770  141.4770 C   0  0  0  0  0  0  0  0  0  0  0  0
  183.1810  178.0240  141.0040 N   0  0  0  0  0  1  0  0  0  0  0  0
  184.5490  177.9050  140.6240 C   0  0  0  0  0  0  0  0  0  0  0  0
  184.9430  177.6570  139.3620 N   0  0  0  0  0  0  0  0  0  0  0  0
  186.7250  177.7650  140.6320 C   0  0  0  0  0  0  0  0  0  0  0  0
  186.2640  177.5800  139.3770 N   0  0  0  0  0  0  0  0  0  0  0  0
  188.1710  177.7670  141.0060 C   0  0  0  0  0  1  0  0  0  0  0  0
  187.0640  177.3040  138.1950 C   0  0  0  0  0  2  0  0  0  0  0  0
  186.6800  175.6490  137.5510 S   0  0  0  0  0  0  0  0  0  0  0  0
  189.4970  172.5970  138.7180 S   0  0  0  0  0  0  0  0  0  0  0  0
  187.8590  174.4940  139.7350 C   0  0  0  0  0  2  0  0  0  0  0  0
  188.5570  173.6580  137.5710 C   0  0  0  0  0  2  0  0  0  0  0  0
  189.0140  173.6130  140.1520 C   0  0  1  0  0  3  0  0  0  0  0  0
  188.1540  174.9120  138.3140 C   0  0  1  0  0  3  0  0  0  0  0  0
  188.6130  172.7530  141.2650 N   0  0  0  0  0  2  0  0  0  0  0  0
  189.5010  172.9510  142.4140 C   0  0  2  0  0  3  0  0  0  0  0  0
  189.3350  171.9280  143.3570 O   0  0  0  0  0  1  0  0  0  0  0  0
  189.2870  174.3170  143.0570 C   0  0  0  0  0  1  0  0  0  0  0  0
  190.7980  177.0240  146.8030 C   0  0  0  0  0  3  0  0  0  0  0  0
  190.7510  175.6350  146.9880 C   0  0  0  0  0  0  0  0  0  0  0  0
  189.5130  174.9860  147.0530 C   0  0  0  0  0  3  0  0  0  0  0  0
  188.3290  175.7210  146.9360 C   0  0  0  0  0  3  0  0  0  0  0  0
  188.3740  177.1080  146.7490 C   0  0  0  0  0  0  0  0  0  0  0  0
  189.6150  177.7590  146.6820 C   0  0  0  0  0  3  0  0  0  0  0  0
  191.9520  174.8700  147.1040 N   0  0  0  0  0  2  0  0  0  0  0  0
  193.1510  175.2910  146.5080 N   0  0  0  0  0  0  0  0  0  0  0  0
  192.4390  173.5790  144.9440 O   0  0  0  0  0  1  0  0  0  0  0  0
  193.4220  174.4970  145.3310 C   0  0  2  0  0  0  0  0  0  0  0  0
  194.0050  174.1900  146.5140 O   0  0  0  0  0  0  0  0  0  0  0  0
  194.3520  175.1200  144.3040 C   0  0  2  0  0  3  0  0  0  0  0  0
  196.4760  175.0970  143.6210 C   0  0  0  0  0  2  0  0  0  0  0  0
  194.3030  174.3440  143.0100 C   0  0  0  0  0  2  0  0  0  0  0  0
  195.6750  175.1090  144.7740 O   0  0  0  0  0  0  0  0  0  0  0  0
  195.7040  174.4520  142.4870 C   0  0  1  0  0  3  0  0  0  0  0  0
  196.2910  177.0750  141.4720 O   0  0  0  0  0  1  0  0  0  0  0  0
  196.7830  174.8880  139.8620 O   0  0  0  0  0  0  0  0  0  0  0  0
  195.7420  175.5380  141.0270 P   0  0  0  0  0  0  0  0  0  0  0  0
  194.3530  175.6570  140.4440 O   0  0  0  0  0  1  0  0  0  0  0  0
  1 11  1  6  0  0  0
  2  6  1  0  0  0  0
  3 12  1  0  0  0  0
  4 35  1  1  0  0  0
  4  1  1  0  0  0  0
  5  8  1  6  0  0  0
  5  3  1  0  0  0  0
  7  6  1  6  0  0  0
  7  5  1  0  0  0  0
  7  4  1  0  0  0  0
  9  8  1  0  0  0  0
 10  9  2  0  0  0  0
 10  2  1  0  0  0  0
 12  1  1  0  0  0  0
 13 10  1  0  0  0  0
 15 14  1  0  0  0  0
 15 13  1  0  0  0  0
 16 18  1  0  0  0  0
 16 15  2  0  0  0  0
 17 19  1  0  0  0  0
 17 13  2  0  0  0  0
 18 17  1  0  0  0  0
 20 18  1  0  0  0  0
 21 20  1  0  0  0  0
 22 25  1  0  0  0  0
 23 25  1  0  0  0  0
 24 26  1  0  0  0  0
 24 22  1  0  0  0  0
 25 27  1  1  0  0  0
 26 21  1  6  0  0  0
 26 23  1  0  0  0  0
 27 28  1  0  0  0  0
 28 30  1  1  0  0  0
 28 29  1  0  0  0  0
 31 32  1  0  0  0  0
 32 33  2  0  0  0  0
 32 37  1  0  0  0  0
 34 33  1  0  0  0  0
 35 34  2  0  0  0  0
 36 35  1  0  0  0  0
 36 31  2  0  0  0  0
 38 41  1  0  0  0  0
 38 37  1  0  0  0  0
 40 39  1  6  0  0  0
 40 38  1  0  0  0  0
 40 41  1  0  0  0  0
 42 44  1  6  0  0  0
 42 45  1  0  0  0  0
 42 40  1  0  0  0  0
 43 45  1  0  0  0  0
 46 49  1  6  0  0  0
 46 44  1  0  0  0  0
 46 43  1  0  0  0  0
 48 49  2  0  0  0  0
 49 47  1  0  0  0  0
 50 49  1  0  0  0  0
M  END
>  <MODEL>
5

>  <REMARK>
 VINA RESULT:      -7.0      5.152     10.213
  Name = 
  11 active torsions:
  status: ('A' for Active; 'I' for Inactive)
    1  A    between atoms: C_1  and  C_44
    2  A    between atoms: C_4  and  C_31
    3  A    between atoms: N_5  and  C_12
    4  A    between atoms: N_5  and  C_41
    5  A    between atoms: N_6  and  C_7
    6  A    between atoms: N_6  and  N_15
    7  A    between atoms: S_9  and  C_47
    8  A    between atoms: S_9  and  C_50
    9  A    between atoms: C_26  and  C_32
   10  A    between atoms: C_27  and  P_28
   11  A    between atoms: N_39  and  C_50
                            x       y       z     vdW  Elec       q    Type
                         _______ _______ _______ _____ _____    ______ ____

>  <TORSDO>
F 11

$$$$
=
 OpenBabel11042419473D

 50 56  0  0  1  0  0  0  0  0999 V2000
  191.2080  176.8450  145.5720 C   0  0  1  0  0  3  0  0  0  0  0  0
  191.7910  173.8290  142.5810 C   0  0  0  0  0  2  0  0  0  0  0  0
  193.5730  176.7410  145.2880 C   0  0  0  0  0  2  0  0  0  0  0  0
  190.9380  175.9280  144.3670 C   0  0  2  0  0  3  0  0  0  0  0  0
  193.5090  175.7680  144.1100 C   0  0  2  0  0  3  0  0  0  0  0  0
  191.9880  175.1740  142.2300 O   0  0  0  0  0  0  0  0  0  0  0  0
  192.1470  175.9440  143.4080 C   0  0  1  0  0  3  0  0  0  0  0  0
  193.7590  174.3430  144.6150 C   0  0  0  0  0  2  0  0  0  0  0  0
  194.0130  173.3830  143.4920 C   0  0  0  0  0  3  0  0  0  0  0  0
  193.1020  173.1070  142.5550 C   0  0  0  0  0  0  0  0  0  0  0  0
  190.1290  176.7210  146.5400 N   0  0  0  0  0  1  0  0  0  0  0  0
  192.4720  176.4930  146.2200 N   0  0  0  0  0  2  0  0  0  0  0  0
  193.3970  172.1450  141.4660 C   0  0  0  0  0  0  0  0  0  0  0  0
  192.9930  169.9800  142.6640 N   0  0  0  0  0  1  0  0  0  0  0  0
  193.3380  170.7590  141.5220 C   0  0  0  0  0  0  0  0  0  0  0  0
  193.6990  170.2170  140.3450 N   0  0  0  0  0  0  0  0  0  0  0  0
  193.8110  172.3980  140.1640 C   0  0  0  0  0  0  0  0  0  0  0  0
  193.9780  171.2200  139.5280 N   0  0  0  0  0  0  0  0  0  0  0  0
  194.0150  173.7340  139.5300 C   0  0  0  0  0  1  0  0  0  0  0  0
  194.4250  171.0350  138.1560 C   0  0  0  0  0  2  0  0  0  0  0  0
  193.4450  169.7360  137.3490 S   0  0  0  0  0  0  0  0  0  0  0  0
  192.0270  173.5470  135.9050 S   0  0  0  0  0  0  0  0  0  0  0  0
  191.3790  171.5190  137.5740 C   0  0  0  0  0  2  0  0  0  0  0  0
  193.1320  172.0990  136.0050 C   0  0  0  0  0  2  0  0  0  0  0  0
  190.7470  172.7180  136.9030 C   0  0  1  0  0  3  0  0  0  0  0  0
  192.3360  170.9390  136.5590 C   0  0  1  0  0  3  0  0  0  0  0  0
  190.2220  173.6380  137.9120 N   0  0  0  0  0  2  0  0  0  0  0  0
  188.8350  173.3000  138.2420 C   0  0  2  0  0  3  0  0  0  0  0  0
  187.9700  174.3500  137.9070 O   0  0  0  0  0  1  0  0  0  0  0  0
  188.6850  172.9280  139.7140 C   0  0  0  0  0  1  0  0  0  0  0  0
  188.2360  177.9980  142.6520 C   0  0  0  0  0  3  0  0  0  0  0  0
  187.3290  176.9980  142.2720 C   0  0  0  0  0  0  0  0  0  0  0  0
  187.6010  175.6610  142.5830 C   0  0  0  0  0  3  0  0  0  0  0  0
  188.7750  175.3250  143.2670 C   0  0  0  0  0  3  0  0  0  0  0  0
  189.6800  176.3220  143.6470 C   0  0  0  0  0  0  0  0  0  0  0  0
  189.4070  177.6630  143.3380 C   0  0  0  0  0  3  0  0  0  0  0  0
  186.1240  177.3270  141.5790 N   0  0  0  0  0  2  0  0  0  0  0  0
  184.9100  177.5060  142.2610 N   0  0  0  0  0  0  0  0  0  0  0  0
  184.4560  178.6970  140.1970 O   0  0  0  0  0  1  0  0  0  0  0  0
  184.0230  178.3360  141.4780 C   0  0  2  0  0  0  0  0  0  0  0  0
  184.7710  178.8770  142.4690 O   0  0  0  0  0  0  0  0  0  0  0  0
  182.5420  178.2120  141.7930 C   0  0  2  0  0  3  0  0  0  0  0  0
  180.8600  179.3060  142.7690 C   0  0  0  0  0  2  0  0  0  0  0  0
  181.7140  178.7050  140.6310 C   0  0  0  0  0  2  0  0  0  0  0  0
  182.2170  178.9800  142.9220 O   0  0  0  0  0  0  0  0  0  0  0  0
  180.5150  179.3160  141.2930 C   0  0  1  0  0  3  0  0  0  0  0  0
  178.7820  177.2760  142.3340 O   0  0  0  0  0  1  0  0  0  0  0  0
  177.6930  179.2700  140.7680 O   0  0  0  0  0  1  0  0  0  0  0  0
  179.0470  178.2820  141.0000 P   0  0  0  0  0  0  0  0  0  0  0  0
  179.2600  177.4310  139.7710 O   0  0  0  0  0  0  0  0  0  0  0  0
  1 12  1  0  0  0  0
  1 11  1  1  0  0  0
  3 12  1  0  0  0  0
  4 35  1  6  0  0  0
  4  1  1  0  0  0  0
  5  8  1  1  0  0  0
  5  3  1  0  0  0  0
  6  2  1  0  0  0  0
  7  6  1  6  0  0  0
  7  5  1  0  0  0  0
  7  4  1  0  0  0  0
  9  8  1  0  0  0  0
 10  2  1  0  0  0  0
 10  9  2  0  0  0  0
 13 15  1  0  0  0  0
 13 10  1  0  0  0  0
 15 14  1  0  0  0  0
 16 15  2  0  0  0  0
 17 13  2  0  0  0  0
 18 17  1  0  0  0  0
 18 16  1  0  0  0  0
 19 17  1  0  0  0  0
 20 18  1  0  0  0  0
 21 20  1  0  0  0  0
 22 24  1  0  0  0  0
 22 25  1  0  0  0  0
 24 26  1  0  0  0  0
 25 23  1  0  0  0  0
 25 27  1  1  0  0  0
 26 21  1  1  0  0  0
 26 23  1  0  0  0  0
 27 28  1  0  0  0  0
 28 30  1  1  0  0  0
 29 28  1  0  0  0  0
 31 36  1  0  0  0  0
 32 33  1  0  0  0  0
 32 31  2  0  0  0  0
 33 34  2  0  0  0  0
 34 35  1  0  0  0  0
 36 35  2  0  0  0  0
 37 38  1  0  0  0  0
 37 32  1  0  0  0  0
 38 41  1  0  0  0  0
 40 39  1  6  0  0  0
 40 42  1  0  0  0  0
 40 38  1  0  0  0  0
 40 41  1  0  0  0  0
 42 44  1  6  0  0  0
 42 45  1  0  0  0  0
 43 45  1  0  0  0  0
 44 46  1  0  0  0  0
 46 49  1  1  0  0  0
 46 43  1  0  0  0  0
 48 49  1  0  0  0  0
 49 47  1  0  0  0  0
 50 49  2  0  0  0  0
M  END
>  <MODEL>
6

>  <REMARK>
 VINA RESULT:      -7.0      2.662      3.259
  Name = 
  11 active torsions:
  status: ('A' for Active; 'I' for Inactive)
    1  A    between atoms: C_1  and  C_44
    2  A    between atoms: C_4  and  C_31
    3  A    between atoms: N_5  and  C_12
    4  A    between atoms: N_5  and  C_41
    5  A    between atoms: N_6  and  C_7
    6  A    between atoms: N_6  and  N_15
    7  A    between atoms: S_9  and  C_47
    8  A    between atoms: S_9  and  C_50
    9  A    between atoms: C_26  and  C_32
   10  A    between atoms: C_27  and  P_28
   11  A    between atoms: N_39  and  C_50
                            x       y       z     vdW  Elec       q    Type
                         _______ _______ _______ _____ _____    ______ ____

>  <TORSDO>
F 11

$$$$
=
 OpenBabel11042419473D

 50 56  0  0  1  0  0  0  0  0999 V2000
  188.8870  177.4910  147.2450 C   0  0  1  0  0  3  0  0  0  0  0  0
  188.9550  176.4060  143.0980 C   0  0  0  0  0  2  0  0  0  0  0  0
  186.6550  176.7920  146.7780 C   0  0  0  0  0  2  0  0  0  0  0  0
  189.4120  177.0120  145.8820 C   0  0  2  0  0  3  0  0  0  0  0  0
  186.9730  176.3190  145.3600 C   0  0  2  0  0  3  0  0  0  0  0  0
  188.8830  175.3870  144.0610 O   0  0  0  0  0  0  0  0  0  0  0  0
  188.4680  175.9410  145.2960 C   0  0  1  0  0  3  0  0  0  0  0  0
  186.5740  177.4100  144.3600 C   0  0  0  0  0  2  0  0  0  0  0  0
  186.5700  176.9070  142.9480 C   0  0  0  0  0  3  0  0  0  0  0  0
  187.6710  176.4650  142.3340 C   0  0  0  0  0  0  0  0  0  0  0  0
  189.7000  178.5960  147.7300 N   0  0  0  0  0  1  0  0  0  0  0  0
  187.4950  177.9340  147.1400 N   0  0  0  0  0  2  0  0  0  0  0  0
  187.6180  175.9830  140.9330 C   0  0  0  0  0  0  0  0  0  0  0  0
  186.4260  177.9030  139.8460 N   0  0  0  0  0  1  0  0  0  0  0  0
  187.0710  176.6330  139.8330 C   0  0  0  0  0  0  0  0  0  0  0  0
  187.1860  175.8770  138.7270 N   0  0  0  0  0  0  0  0  0  0  0  0
  188.0810  174.7850  140.4020 C   0  0  0  0  0  0  0  0  0  0  0  0
  187.8040  174.7620  139.0810 N   0  0  0  0  0  0  0  0  0  0  0  0
  188.7970  173.6970  141.1310 C   0  0  0  0  0  1  0  0  0  0  0  0
  188.0990  173.6800  138.1560 C   0  0  0  0  0  2  0  0  0  0  0  0
  189.4060  174.1850  136.9990 S   0  0  0  0  0  0  0  0  0  0  0  0
  190.7610  170.7130  139.1740 S   0  0  0  0  0  0  0  0  0  0  0  0
  191.3210  173.3260  138.7580 C   0  0  0  0  0  2  0  0  0  0  0  0
  189.7390  171.6570  137.9950 C   0  0  0  0  0  2  0  0  0  0  0  0
  191.9570  172.0790  139.3280 C   0  0  1  0  0  3  0  0  0  0  0  0
  190.5290  172.8700  137.5550 C   0  0  1  0  0  3  0  0  0  0  0  0
  192.3020  172.2890  140.7330 N   0  0  0  0  0  2  0  0  0  0  0  0
  192.5350  171.0070  141.4030 C   0  0  2  0  0  3  0  0  0  0  0  0
  191.9230  170.9810  142.6630 O   0  0  0  0  0  1  0  0  0  0  0  0
  194.0250  170.7000  141.5210 C   0  0  0  0  0  1  0  0  0  0  0  0
  192.4400  174.9320  146.8960 C   0  0  0  0  0  3  0  0  0  0  0  0
  193.4470  175.5230  146.1200 C   0  0  0  0  0  0  0  0  0  0  0  0
  193.1340  176.5970  145.2800 C   0  0  0  0  0  3  0  0  0  0  0  0
  191.8210  177.0750  145.2120 C   0  0  0  0  0  3  0  0  0  0  0  0
  190.8150  176.4860  145.9860 C   0  0  0  0  0  0  0  0  0  0  0  0
  191.1280  175.4110  146.8320 C   0  0  0  0  0  3  0  0  0  0  0  0
  194.7940  175.0500  146.1830 N   0  0  0  0  0  2  0  0  0  0  0  0
  195.7340  175.3790  145.1930 N   0  0  0  0  0  0  0  0  0  0  0  0
  195.2430  173.0750  144.6110 O   0  0  0  0  0  1  0  0  0  0  0  0
  196.0070  174.2230  144.3700 C   0  0  2  0  0  0  0  0  0  0  0  0
  196.8310  174.5440  145.3960 O   0  0  0  0  0  0  0  0  0  0  0  0
  196.5710  174.5060  142.9870 C   0  0  2  0  0  3  0  0  0  0  0  0
  197.8940  173.6290  141.4200 C   0  0  0  0  0  2  0  0  0  0  0  0
  195.6060  174.0450  141.9220 C   0  0  0  0  0  2  0  0  0  0  0  0
  197.7850  173.8260  142.8060 O   0  0  0  0  0  0  0  0  0  0  0  0
  196.5060  173.5850  140.8130 C   0  0  1  0  0  3  0  0  0  0  0  0
  197.8190  175.6840  139.3560 O   0  0  0  0  0  1  0  0  0  0  0  0
  196.2590  173.8790  137.9680 O   0  0  0  0  0  0  0  0  0  0  0  0
  196.4130  174.7450  139.4140 P   0  0  0  0  0  0  0  0  0  0  0  0
  195.2170  175.6520  139.5820 O   0  0  0  0  0  1  0  0  0  0  0  0
  1 11  1  6  0  0  0
  2  6  1  0  0  0  0
  3 12  1  0  0  0  0
  4 35  1  1  0  0  0
  4  1  1  0  0  0  0
  5  8  1  6  0  0  0
  5  3  1  0  0  0  0
  7  6  1  6  0  0  0
  7  5  1  0  0  0  0
  7  4  1  0  0  0  0
  9  8  1  0  0  0  0
 10  9  2  0  0  0  0
 10  2  1  0  0  0  0
 12  1  1  0  0  0  0
 13 10  1  0  0  0  0
 15 14  1  0  0  0  0
 15 13  1  0  0  0  0
 16 18  1  0  0  0  0
 16 15  2  0  0  0  0
 17 13  2  0  0  0  0
 17 19  1  0  0  0  0
 18 17  1  0  0  0  0
 20 18  1  0  0  0  0
 21 20  1  0  0  0  0
 22 25  1  0  0  0  0
 23 25  1  0  0  0  0
 24 22  1  0  0  0  0
 25 27  1  1  0  0  0
 26 21  1  1  0  0  0
 26 24  1  0  0  0  0
 26 23  1  0  0  0  0
 27 28  1  0  0  0  0
 28 30  1  1  0  0  0
 28 29  1  0  0  0  0
 32 37  1  0  0  0  0
 32 31  2  0  0  0  0
 33 32  1  0  0  0  0
 34 33  2  0  0  0  0
 34 35  1  0  0  0  0
 35 36  2  0  0  0  0
 36 31  1  0  0  0  0
 38 41  1  0  0  0  0
 38 37  1  0  0  0  0
 40 39  1  1  0  0  0
 40 38  1  0  0  0  0
 40 41  1  0  0  0  0
 42 44  1  6  0  0  0
 42 40  1  0  0  0  0
 43 45  1  0  0  0  0
 45 42  1  0  0  0  0
 46 49  1  6  0  0  0
 46 43  1  0  0  0  0
 46 44  1  0  0  0  0
 47 49  1  0  0  0  0
 48 49  2  0  0  0  0
 49 50  1  0  0  0  0
M  END
>  <MODEL>
7

>  <REMARK>
 VINA RESULT:      -7.0      5.393     10.061
  Name = 
  11 active torsions:
  status: ('A' for Active; 'I' for Inactive)
    1  A    between atoms: C_1  and  C_44
    2  A    between atoms: C_4  and  C_31
    3  A    between atoms: N_5  and  C_12
    4  A    between atoms: N_5  and  C_41
    5  A    between atoms: N_6  and  C_7
    6  A    between atoms: N_6  and  N_15
    7  A    between atoms: S_9  and  C_47
    8  A    between atoms: S_9  and  C_50
    9  A    between atoms: C_26  and  C_32
   10  A    between atoms: C_27  and  P_28
   11  A    between atoms: N_39  and  C_50
                            x       y       z     vdW  Elec       q    Type
                         _______ _______ _______ _____ _____    ______ ____

>  <TORSDO>
F 11

$$$$
=
 OpenBabel11042419473D

 50 56  0  0  1  0  0  0  0  0999 V2000
  195.7980  171.3820  145.4620 C   0  0  1  0  0  3  0  0  0  0  0  0
  195.0410  173.2530  141.6790 C   0  0  0  0  0  2  0  0  0  0  0  0
  197.9410  171.5080  144.4230 C   0  0  0  0  0  2  0  0  0  0  0  0
  195.1310  172.2530  144.3840 C   0  0  2  0  0  3  0  0  0  0  0  0
  197.4470  172.3250  143.2290 C   0  0  2  0  0  3  0  0  0  0  0  0
  195.6830  173.9960  142.6830 O   0  0  0  0  0  0  0  0  0  0  0  0
  196.1920  173.1110  143.6640 C   0  0  1  0  0  3  0  0  0  0  0  0
  197.2030  171.3900  142.0400 C   0  0  0  0  0  2  0  0  0  0  0  0
  197.0140  172.1450  140.7590 C   0  0  0  0  0  3  0  0  0  0  0  0
  195.9990  172.9910  140.5600 C   0  0  0  0  0  0  0  0  0  0  0  0
  194.8200  170.4760  146.0430 N   0  0  0  0  0  1  0  0  0  0  0  0
  196.8950  170.5990  144.8920 N   0  0  0  0  0  2  0  0  0  0  0  0
  195.8500  173.7100  139.2720 C   0  0  0  0  0  0  0  0  0  0  0  0
  197.3650  175.6650  139.6780 N   0  0  0  0  0  1  0  0  0  0  0  0
  196.4680  174.8930  138.8870 C   0  0  0  0  0  0  0  0  0  0  0  0
  196.0730  175.2590  137.6550 N   0  0  0  0  0  0  0  0  0  0  0  0
  195.0620  173.3860  138.1750 C   0  0  0  0  0  0  0  0  0  0  0  0
  195.2240  174.3350  137.2300 N   0  0  0  0  0  0  0  0  0  0  0  0
  194.1920  172.1820  138.0180 C   0  0  0  0  0  1  0  0  0  0  0  0
  194.5630  174.3890  135.9360 C   0  0  0  0  0  2  0  0  0  0  0  0
  193.7570  176.0020  135.7130 S   0  0  0  0  0  0  0  0  0  0  0  0
  189.5320  175.2440  135.2760 S   0  0  0  0  0  0  0  0  0  0  0  0
  191.8690  174.0250  135.8800 C   0  0  0  0  0  2  0  0  0  0  0  0
  191.0740  176.2150  135.2150 C   0  0  0  0  0  2  0  0  0  0  0  0
  190.4480  173.6840  135.4940 C   0  0  1  0  0  3  0  0  0  0  0  0
  192.2310  175.2500  135.0750 C   0  0  1  0  0  3  0  0  0  0  0  0
  189.8230  172.8760  136.5400 N   0  0  0  0  0  2  0  0  0  0  0  0
  189.6550  173.6630  137.7660 C   0  0  2  0  0  3  0  0  0  0  0  0
  190.6380  173.3360  138.7090 O   0  0  0  0  0  1  0  0  0  0  0  0
  188.2600  173.4870  138.3560 C   0  0  0  0  0  1  0  0  0  0  0  0
  193.3320  175.0050  146.3110 C   0  0  0  0  0  3  0  0  0  0  0  0
  191.9930  174.7210  146.0030 C   0  0  0  0  0  0  0  0  0  0  0  0
  191.6880  173.6330  145.1770 C   0  0  0  0  0  3  0  0  0  0  0  0
  192.7150  172.8360  144.6590 C   0  0  0  0  0  3  0  0  0  0  0  0
  194.0510  173.1180  144.9670 C   0  0  0  0  0  0  0  0  0  0  0  0
  194.3580  174.2070  145.7970 C   0  0  0  0  0  3  0  0  0  0  0  0
  190.9340  175.5220  146.5290 N   0  0  0  0  0  2  0  0  0  0  0  0
  189.6010  175.3240  146.1390 N   0  0  0  0  0  0  0  0  0  0  0  0
  189.4480  177.5010  147.1960 O   0  0  0  0  0  1  0  0  0  0  0  0
  188.7850  176.4290  146.5890 C   0  0  2  0  0  0  0  0  0  0  0  0
  188.8470  175.2840  147.3090 O   0  0  0  0  0  0  0  0  0  0  0  0
  187.4790  176.6430  145.8420 C   0  0  2  0  0  3  0  0  0  0  0  0
  185.4420  177.5160  146.0900 C   0  0  0  0  0  2  0  0  0  0  0  0
  187.5370  177.9190  145.0380 C   0  0  0  0  0  2  0  0  0  0  0  0
  186.4100  176.7410  146.7460 O   0  0  0  0  0  0  0  0  0  0  0  0
  186.1280  178.4290  145.0930 C   0  0  1  0  0  3  0  0  0  0  0  0
  183.7790  178.9090  143.5100 O   0  0  0  0  0  1  0  0  0  0  0  0
  186.2530  179.0770  142.2990 O   0  0  0  0  0  0  0  0  0  0  0  0
  185.3390  178.2560  143.4620 P   0  0  0  0  0  0  0  0  0  0  0  0
  185.2530  176.7950  143.0890 O   0  0  0  0  0  1  0  0  0  0  0  0
  1 11  1  6  0  0  0
  2  6  1  0  0  0  0
  3 12  1  0  0  0  0
  4 35  1  1  0  0  0
  4  1  1  0  0  0  0
  5  8  1  6  0  0  0
  5  7  1  0  0  0  0
  5  3  1  0  0  0  0
  7  6  1  6  0  0  0
  7  4  1  0  0  0  0
  9  8  1  0  0  0  0
 10  9  2  0  0  0  0
 10  2  1  0  0  0  0
 12  1  1  0  0  0  0
 13 10  1  0  0  0  0
 15 13  1  0  0  0  0
 15 14  1  0  0  0  0
 16 15  2  0  0  0  0
 17 13  2  0  0  0  0
 18 16  1  0  0  0  0
 18 17  1  0  0  0  0
 19 17  1  0  0  0  0
 20 18  1  0  0  0  0
 21 20  1  0  0  0  0
 22 25  1  0  0  0  0
 24 22  1  0  0  0  0
 25 23  1  0  0  0  0
 25 27  1  1  0  0  0
 26 24  1  0  0  0  0
 26 21  1  1  0  0  0
 26 23  1  0  0  0  0
 27 28  1  0  0  0  0
 28 30  1  1  0  0  0
 28 29  1  0  0  0  0
 32 31  1  0  0  0  0
 32 37  1  0  0  0  0
 33 32  2  0  0  0  0
 34 35  2  0  0  0  0
 34 33  1  0  0  0  0
 35 36  1  0  0  0  0
 36 31  2  0  0  0  0
 38 37  1  0  0  0  0
 38 40  1  0  0  0  0
 38 41  1  0  0  0  0
 40 39  1  1  0  0  0
 40 41  1  0  0  0  0
 42 44  1  1  0  0  0
 42 40  1  0  0  0  0
 42 45  1  0  0  0  0
 43 45  1  0  0  0  0
 44 46  1  0  0  0  0
 46 49  1  6  0  0  0
 46 43  1  0  0  0  0
 48 49  2  0  0  0  0
 49 47  1  0  0  0  0
 50 49  1  0  0  0  0
M  END
>  <MODEL>
8

>  <REMARK>
 VINA RESULT:      -6.9      3.624      6.069
  Name = 
  11 active torsions:
  status: ('A' for Active; 'I' for Inactive)
    1  A    between atoms: C_1  and  C_44
    2  A    between atoms: C_4  and  C_31
    3  A    between atoms: N_5  and  C_12
    4  A    between atoms: N_5  and  C_41
    5  A    between atoms: N_6  and  C_7
    6  A    between atoms: N_6  and  N_15
    7  A    between atoms: S_9  and  C_47
    8  A    between atoms: S_9  and  C_50
    9  A    between atoms: C_26  and  C_32
   10  A    between atoms: C_27  and  P_28
   11  A    between atoms: N_39  and  C_50
                            x       y       z     vdW  Elec       q    Type
                         _______ _______ _______ _____ _____    ______ ____

>  <TORSDO>
F 11

$$$$
=
 OpenBabel11042419473D

 50 56  0  0  1  0  0  0  0  0999 V2000
  189.9050  175.9470  146.8930 C   0  0  1  0  0  3  0  0  0  0  0  0
  192.0820  174.7040  143.4160 C   0  0  0  0  0  2  0  0  0  0  0  0
  192.1770  176.4700  147.3970 C   0  0  0  0  0  2  0  0  0  0  0  0
  190.2210  175.6040  145.4280 C   0  0  2  0  0  3  0  0  0  0  0  0
  192.6940  176.1080  146.0050 C   0  0  2  0  0  3  0  0  0  0  0  0
  191.9020  176.0770  143.6440 O   0  0  0  0  0  0  0  0  0  0  0  0
  191.5390  176.2810  144.9960 C   0  0  1  0  0  3  0  0  0  0  0  0
  193.2760  174.6900  146.0320 C   0  0  0  0  0  2  0  0  0  0  0  0
  194.0690  174.3830  144.7980 C   0  0  0  0  0  3  0  0  0  0  0  0
  193.5270  174.3530  143.5780 C   0  0  0  0  0  0  0  0  0  0  0  0
  188.7390  175.1990  147.3380 N   0  0  0  0  0  1  0  0  0  0  0  0
  191.0400  175.6230  147.7600 N   0  0  0  0  0  2  0  0  0  0  0  0
  194.3520  174.0370  142.3870 C   0  0  0  0  0  0  0  0  0  0  0  0
  194.5720  171.5530  142.6450 N   0  0  0  0  0  1  0  0  0  0  0  0
  194.8040  172.7890  141.9760 C   0  0  0  0  0  0  0  0  0  0  0  0
  195.5470  172.8940  140.8610 N   0  0  0  0  0  0  0  0  0  0  0  0
  194.8710  174.8990  141.4290 C   0  0  0  0  0  0  0  0  0  0  0  0
  195.5770  174.1760  140.5340 N   0  0  0  0  0  0  0  0  0  0  0  0
  194.6750  176.3770  141.3490 C   0  0  0  0  0  1  0  0  0  0  0  0
  196.3020  174.6940  139.3850 C   0  0  0  0  0  2  0  0  0  0  0  0
  195.1350  175.3140  138.1370 S   0  0  0  0  0  0  0  0  0  0  0  0
  193.8100  171.8640  135.9100 S   0  0  0  0  0  0  0  0  0  0  0  0
  192.9470  173.7390  137.6590 C   0  0  0  0  0  2  0  0  0  0  0  0
  194.9990  173.0930  136.5430 C   0  0  0  0  0  2  0  0  0  0  0  0
  192.5300  172.4010  137.0910 C   0  0  1  0  0  3  0  0  0  0  0  0
  194.4460  173.6610  137.8310 C   0  0  1  0  0  3  0  0  0  0  0  0
  191.2400  172.5250  136.4120 N   0  0  0  0  0  2  0  0  0  0  0  0
  190.6730  171.2010  136.1390 C   0  0  2  0  0  3  0  0  0  0  0  0
  189.3370  171.3030  135.7310 O   0  0  0  0  0  1  0  0  0  0  0  0
  190.8000  170.2790  137.3470 C   0  0  0  0  0  1  0  0  0  0  0  0
  187.4900  175.4760  142.7720 C   0  0  0  0  0  3  0  0  0  0  0  0
  186.9690  176.7750  142.8570 C   0  0  0  0  0  0  0  0  0  0  0  0
  187.5140  177.6820  143.7720 C   0  0  0  0  0  3  0  0  0  0  0  0
  188.5730  177.2930  144.6000 C   0  0  0  0  0  3  0  0  0  0  0  0
  189.0950  175.9970  144.5160 C   0  0  0  0  0  0  0  0  0  0  0  0
  188.5500  175.0870  143.5970 C   0  0  0  0  0  3  0  0  0  0  0  0
  185.8920  177.1890  142.0140 N   0  0  0  0  0  2  0  0  0  0  0  0
  184.6400  177.5410  142.5430 N   0  0  0  0  0  0  0  0  0  0  0  0
  184.3820  178.2580  140.2400 O   0  0  0  0  0  1  0  0  0  0  0  0
  183.8440  178.1970  141.5300 C   0  0  2  0  0  0  0  0  0  0  0  0
  184.5400  178.9260  142.4360 O   0  0  0  0  0  0  0  0  0  0  0  0
  182.3410  178.1780  141.7470 C   0  0  2  0  0  3  0  0  0  0  0  0
  180.6710  179.4150  142.5580 C   0  0  0  0  0  2  0  0  0  0  0  0
  181.6250  178.6670  140.5110 C   0  0  0  0  0  2  0  0  0  0  0  0
  181.9910  179.0150  142.8180 O   0  0  0  0  0  0  0  0  0  0  0  0
  180.4260  179.3790  141.0630 C   0  0  1  0  0  3  0  0  0  0  0  0
  177.7010  179.4610  140.1590 O   0  0  0  0  0  1  0  0  0  0  0  0
  179.2440  177.2630  139.5250 O   0  0  0  0  0  0  0  0  0  0  0  0
  178.9180  178.4240  140.7120 P   0  0  0  0  0  0  0  0  0  0  0  0
  178.4470  177.7340  141.9700 O   0  0  0  0  0  1  0  0  0  0  0  0
  1 11  1  1  0  0  0
  1 12  1  0  0  0  0
  2 10  1  0  0  0  0
  2  6  1  0  0  0  0
  3 12  1  0  0  0  0
  4 35  1  6  0  0  0
  4  1  1  0  0  0  0
  5  8  1  1  0  0  0
  5  3  1  0  0  0  0
  7  6  1  6  0  0  0
  7  4  1  0  0  0  0
  7  5  1  0  0  0  0
  9  8  1  0  0  0  0
 10  9  2  0  0  0  0
 13 10  1  0  0  0  0
 15 13  1  0  0  0  0
 15 14  1  0  0  0  0
 16 15  2  0  0  0  0
 17 13  2  0  0  0  0
 18 16  1  0  0  0  0
 18 17  1  0  0  0  0
 19 17  1  0  0  0  0
 20 18  1  0  0  0  0
 21 20  1  0  0  0  0
 22 24  1  0  0  0  0
 22 25  1  0  0  0  0
 23 26  1  0  0  0  0
 24 26  1  0  0  0  0
 25 27  1  6  0  0  0
 25 23  1  0  0  0  0
 26 21  1  6  0  0  0
 28 27  1  0  0  0  0
 28 30  1  1  0  0  0
 29 28  1  0  0  0  0
 31 32  2  0  0  0  0
 31 36  1  0  0  0  0
 32 33  1  0  0  0  0
 33 34  2  0  0  0  0
 35 34  1  0  0  0  0
 36 35  2  0  0  0  0
 37 38  1  0  0  0  0
 37 32  1  0  0  0  0
 40 39  1  6  0  0  0
 40 42  1  0  0  0  0
 40 41  1  0  0  0  0
 40 38  1  0  0  0  0
 41 38  1  0  0  0  0
 42 44  1  6  0  0  0
 42 45  1  0  0  0  0
 43 45  1  0  0  0  0
 44 46  1  0  0  0  0
 46 49  1  1  0  0  0
 46 43  1  0  0  0  0
 47 49  1  0  0  0  0
 48 49  2  0  0  0  0
 49 50  1  0  0  0  0
M  END
>  <MODEL>
9

>  <REMARK>
 VINA RESULT:      -6.8      2.132      2.417
  Name = 
  11 active torsions:
  status: ('A' for Active; 'I' for Inactive)
    1  A    between atoms: C_1  and  C_44
    2  A    between atoms: C_4  and  C_31
    3  A    between atoms: N_5  and  C_12
    4  A    between atoms: N_5  and  C_41
    5  A    between atoms: N_6  and  C_7
    6  A    between atoms: N_6  and  N_15
    7  A    between atoms: S_9  and  C_47
    8  A    between atoms: S_9  and  C_50
    9  A    between atoms: C_26  and  C_32
   10  A    between atoms: C_27  and  P_28
   11  A    between atoms: N_39  and  C_50
                            x       y       z     vdW  Elec       q    Type
                         _______ _______ _______ _____ _____    ______ ____

>  <TORSDO>
F 11

$$$$
