=
 OpenBabel11042414053D

 31 33  0  0  1  0  0  0  0  0999 V2000
  185.0280  178.2680  145.7450 C   0  0  0  0  0  0  0  0  0  0  0  0
  185.8310  177.3490  145.0280 C   0  0  0  0  0  0  0  0  0  0  0  0
  186.8210  176.6510  145.7350 C   0  0  0  0  0  3  0  0  0  0  0  0
  186.1930  177.7430  147.7630 N   0  0  0  0  0  0  0  0  0  0  0  0
  184.0350  178.9910  145.0940 C   0  0  0  0  0  3  0  0  0  0  0  0
  183.8370  178.8300  143.7260 C   0  0  0  0  0  3  0  0  0  0  0  0
  185.2280  178.4430  147.1150 C   0  0  0  0  0  3  0  0  0  0  0  0
  185.6160  177.1750  143.6340 C   0  0  0  0  0  0  0  0  0  0  0  0
  186.9880  176.8590  147.1070 C   0  0  0  0  0  3  0  0  0  0  0  0
  184.6190  177.9340  142.9910 C   0  0  0  0  0  0  0  0  0  0  0  0
  184.4180  177.7800  141.6150 O   0  0  0  0  0  0  0  0  0  0  0  0
  183.6140  178.6700  140.8480 C   0  0  0  0  0  2  0  0  0  0  0  0
  182.4440  177.9670  140.3450 N   0  0  0  0  0  2  0  0  0  0  0  0
  180.4740  179.0520  141.3310 C   0  0  0  0  0  0  0  0  0  0  0  0
  180.5030  179.9490  140.4510 O   0  0  0  0  0  0  0  0  0  0  0  0
  181.4630  178.0260  141.3460 N   0  0  0  0  0  2  0  0  0  0  0  0
  179.4840  179.0710  142.3020 O   0  0  0  0  0  1  0  0  0  0  0  0
  186.3530  176.2320  142.8290 N   0  0  0  0  0  2  0  0  0  0  0  0
  187.4310  176.5330  141.8980 C   0  0  0  0  0  2  0  0  0  0  0  0
  187.6540  174.1650  142.2010 O   0  0  0  0  0  1  0  0  0  0  0  0
  188.3050  175.3030  141.6990 C   0  0  2  0  0  3  0  0  0  0  0  0
  189.7360  177.8700  144.8680 F   0  0  0  0  0  0  0  0  0  0  0  0
  189.6490  175.5020  142.4010 C   0  0  2  0  0  3  0  0  0  0  0  0
  189.8270  175.4980  144.7600 C   0  0  2  0  0  3  0  0  0  0  0  0
  189.7760  174.5630  143.5870 C   0  0  0  0  0  2  0  0  0  0  0  0
  189.7990  176.8470  142.8240 O   0  0  0  0  0  0  0  0  0  0  0  0
  190.2770  176.8160  144.1470 C   0  0  0  0  0  0  0  0  0  0  0  0
  191.6590  176.9440  144.1190 F   0  0  0  0  0  0  0  0  0  0  0  0
  191.8620  174.2850  145.6300 O   0  0  0  0  0  0  0  0  0  0  0  0
  190.6720  174.9620  145.8790 C   0  0  0  0  0  0  0  0  0  0  0  0
  190.2570  175.0590  147.0590 O   0  0  0  0  0  1  0  0  0  0  0  0
  1  7  2  0  0  0  0
  2  3  2  0  0  0  0
  2  1  1  0  0  0  0
  3  9  1  0  0  0  0
  5  1  1  0  0  0  0
  6  5  2  0  0  0  0
  7  4  1  0  0  0  0
  8  2  1  0  0  0  0
  9  4  2  0  0  0  0
 10  8  2  0  0  0  0
 10  6  1  0  0  0  0
 11 10  1  0  0  0  0
 12 11  1  0  0  0  0
 13 12  1  0  0  0  0
 13 16  1  0  0  0  0
 14 16  1  0  0  0  0
 14 17  1  0  0  0  0
 15 14  2  0  0  0  0
 18  8  1  0  0  0  0
 19 18  1  0  0  0  0
 21 19  1  0  0  0  0
 21 20  1  1  0  0  0
 23 21  1  1  0  0  0
 23 26  1  0  0  0  0
 23 25  1  0  0  0  0
 24 30  1  1  0  0  0
 25 24  1  0  0  0  0
 26 27  1  0  0  0  0
 27 24  1  0  0  0  0
 27 22  1  0  0  0  0
 28 27  1  0  0  0  0
 29 30  2  0  0  0  0
 30 31  1  0  0  0  0
M  END
>  <MODEL>
1

>  <REMARK>
 VINA RESULT:      -7.3      0.000      0.000
  Name = 
  9 active torsions:
  status: ('A' for Active; 'I' for Inactive)
    1  A    between atoms: C_4  and  N_10
    2  A    between atoms: C_4  and  C_29
    3  A    between atoms: O_8  and  C_12
    4  A    between atoms: O_8  and  C_28
    5  A    between atoms: N_10  and  C_18
    6  A    between atoms: C_11  and  C_29
    7  A    between atoms: C_12  and  N_27
    8  A    between atoms: C_15  and  C_20
    9  A    between atoms: N_23  and  N_27
                            x       y       z     vdW  Elec       q    Type
                         _______ _______ _______ _____ _____    ______ ____

>  <TORSDO>
F 9

$$$$
=
 OpenBabel11042414053D

 31 33  0  0  1  0  0  0  0  0999 V2000
  184.9610  178.5340  145.0520 C   0  0  0  0  0  0  0  0  0  0  0  0
  186.3070  178.2040  145.3370 C   0  0  0  0  0  0  0  0  0  0  0  0
  186.6720  178.0360  146.6820 C   0  0  0  0  0  3  0  0  0  0  0  0
  184.4350  178.4900  147.3820 N   0  0  0  0  0  0  0  0  0  0  0  0
  184.5450  178.7170  143.7380 C   0  0  0  0  0  3  0  0  0  0  0  0
  185.4580  178.5960  142.6940 C   0  0  0  0  0  3  0  0  0  0  0  0
  184.0430  178.6670  146.0940 C   0  0  0  0  0  3  0  0  0  0  0  0
  187.2330  178.0660  144.2680 C   0  0  0  0  0  0  0  0  0  0  0  0
  185.7190  178.1820  147.6950 C   0  0  0  0  0  3  0  0  0  0  0  0
  186.7950  178.2760  142.9470 C   0  0  0  0  0  0  0  0  0  0  0  0
  187.7080  178.1610  141.8930 O   0  0  0  0  0  0  0  0  0  0  0  0
  187.6010  177.1610  140.8850 C   0  0  0  0  0  2  0  0  0  0  0  0
  187.5230  175.8470  141.5030 N   0  0  0  0  0  2  0  0  0  0  0  0
  188.4570  173.6150  141.0780 C   0  0  0  0  0  0  0  0  0  0  0  0
  187.6890  173.1090  141.9350 O   0  0  0  0  0  1  0  0  0  0  0  0
  188.4380  175.0190  140.8350 N   0  0  0  0  0  2  0  0  0  0  0  0
  189.3370  172.8040  140.3770 O   0  0  0  0  0  0  0  0  0  0  0  0
  188.6130  177.6900  144.4560 N   0  0  0  0  0  2  0  0  0  0  0  0
  189.1450  176.3390  144.5590 C   0  0  0  0  0  2  0  0  0  0  0  0
  190.7140  174.9010  143.4570 O   0  0  0  0  0  1  0  0  0  0  0  0
  190.4610  176.2380  143.8030 C   0  0  2  0  0  3  0  0  0  0  0  0
  192.6010  174.8450  147.2890 F   0  0  0  0  0  0  0  0  0  0  0  0
  191.5970  176.7920  144.6620 C   0  0  2  0  0  3  0  0  0  0  0  0
  193.5010  175.4900  145.1860 C   0  0  2  0  0  3  0  0  0  0  0  0
  192.9430  176.3680  144.1040 C   0  0  0  0  0  2  0  0  0  0  0  0
  191.4670  176.3590  146.0060 O   0  0  0  0  0  0  0  0  0  0  0  0
  192.7360  175.9240  146.4280 C   0  0  0  0  0  0  0  0  0  0  0  0
  193.3590  176.9670  147.0980 F   0  0  0  0  0  0  0  0  0  0  0  0
  195.7260  176.4310  144.4530 O   0  0  0  0  0  0  0  0  0  0  0  0
  194.9980  175.5680  145.2670 C   0  0  0  0  0  0  0  0  0  0  0  0
  195.6110  174.7820  146.0310 O   0  0  0  0  0  1  0  0  0  0  0  0
  1  2  1  0  0  0  0
  1  7  2  0  0  0  0
  2  3  2  0  0  0  0
  3  9  1  0  0  0  0
  4  9  2  0  0  0  0
  5  1  1  0  0  0  0
  6 10  1  0  0  0  0
  6  5  2  0  0  0  0
  7  4  1  0  0  0  0
  8 18  1  0  0  0  0
  8  2  1  0  0  0  0
 10  8  2  0  0  0  0
 11 10  1  0  0  0  0
 12 13  1  0  0  0  0
 12 11  1  0  0  0  0
 14 15  1  0  0  0  0
 16 14  1  0  0  0  0
 16 13  1  0  0  0  0
 17 14  2  0  0  0  0
 18 19  1  0  0  0  0
 21 20  1  1  0  0  0
 21 19  1  0  0  0  0
 23 21  1  6  0  0  0
 23 26  1  0  0  0  0
 24 30  1  1  0  0  0
 24 27  1  0  0  0  0
 25 23  1  0  0  0  0
 25 24  1  0  0  0  0
 26 27  1  0  0  0  0
 27 28  1  0  0  0  0
 27 22  1  0  0  0  0
 29 30  2  0  0  0  0
 30 31  1  0  0  0  0
M  END
>  <MODEL>
2

>  <REMARK>
 VINA RESULT:      -7.1      3.228      4.723
  Name = 
  9 active torsions:
  status: ('A' for Active; 'I' for Inactive)
    1  A    between atoms: C_4  and  N_10
    2  A    between atoms: C_4  and  C_29
    3  A    between atoms: O_8  and  C_12
    4  A    between atoms: O_8  and  C_28
    5  A    between atoms: N_10  and  C_18
    6  A    between atoms: C_11  and  C_29
    7  A    between atoms: C_12  and  N_27
    8  A    between atoms: C_15  and  C_20
    9  A    between atoms: N_23  and  N_27
                            x       y       z     vdW  Elec       q    Type
                         _______ _______ _______ _____ _____    ______ ____

>  <TORSDO>
F 9

$$$$
=
 OpenBabel11042414053D

 31 33  0  0  1  0  0  0  0  0999 V2000
  193.0780  176.1580  144.3080 C   0  0  0  0  0  0  0  0  0  0  0  0
  192.2200  175.5620  145.2640 C   0  0  0  0  0  0  0  0  0  0  0  0
  192.5900  175.6350  146.6150 C   0  0  0  0  0  3  0  0  0  0  0  0
  194.5600  176.8590  146.0460 N   0  0  0  0  0  0  0  0  0  0  0  0
  192.7640  176.1120  142.9550 C   0  0  0  0  0  3  0  0  0  0  0  0
  191.6100  175.4590  142.5290 C   0  0  0  0  0  3  0  0  0  0  0  0
  194.2410  176.8050  144.7270 C   0  0  0  0  0  3  0  0  0  0  0  0
  191.0350  174.9100  144.8260 C   0  0  0  0  0  0  0  0  0  0  0  0
  193.7660  176.2910  146.9900 C   0  0  0  0  0  3  0  0  0  0  0  0
  190.7480  174.8570  143.4490 C   0  0  0  0  0  0  0  0  0  0  0  0
  189.5920  174.1990  143.0130 O   0  0  0  0  0  0  0  0  0  0  0  0
  188.3820  174.8840  142.7060 C   0  0  0  0  0  2  0  0  0  0  0  0
  188.4420  175.4030  141.3490 N   0  0  0  0  0  2  0  0  0  0  0  0
  187.3830  177.6170  141.2570 C   0  0  0  0  0  0  0  0  0  0  0  0
  188.4670  178.1710  141.5690 O   0  0  0  0  0  1  0  0  0  0  0  0
  187.3020  176.1980  141.1590 N   0  0  0  0  0  2  0  0  0  0  0  0
  186.2560  178.3910  141.0220 O   0  0  0  0  0  0  0  0  0  0  0  0
  190.0800  174.3130  145.7260 N   0  0  0  0  0  2  0  0  0  0  0  0
  189.2390  175.0040  146.6930 C   0  0  0  0  0  2  0  0  0  0  0  0
  189.4760  177.3710  146.9920 O   0  0  0  0  0  1  0  0  0  0  0  0
  188.8850  176.3910  146.1770 C   0  0  2  0  0  3  0  0  0  0  0  0
  186.1470  179.4840  147.4470 F   0  0  0  0  0  0  0  0  0  0  0  0
  187.3660  176.5630  146.1510 C   0  0  2  0  0  3  0  0  0  0  0  0
  186.3560  178.5190  145.2860 C   0  0  2  0  0  3  0  0  0  0  0  0
  186.9240  177.2010  144.8470 C   0  0  0  0  0  2  0  0  0  0  0  0
  186.9310  177.3460  147.2500 O   0  0  0  0  0  0  0  0  0  0  0  0
  186.0170  178.2920  146.7520 C   0  0  0  0  0  0  0  0  0  0  0  0
  184.7320  177.7980  146.9290 F   0  0  0  0  0  0  0  0  0  0  0  0
  184.3570  178.0650  143.8120 O   0  0  0  0  0  0  0  0  0  0  0  0
  185.2280  178.9740  144.4060 C   0  0  0  0  0  0  0  0  0  0  0  0
  185.1160  180.1950  144.1380 O   0  0  0  0  0  1  0  0  0  0  0  0
  1  7  2  0  0  0  0
  1  2  1  0  0  0  0
  2  3  2  0  0  0  0
  3  9  1  0  0  0  0
  4  9  2  0  0  0  0
  5  1  1  0  0  0  0
  6  5  2  0  0  0  0
  6 10  1  0  0  0  0
  7  4  1  0  0  0  0
  8  2  1  0  0  0  0
  8 18  1  0  0  0  0
 10  8  2  0  0  0  0
 11 10  1  0  0  0  0
 12 11  1  0  0  0  0
 13 12  1  0  0  0  0
 14 15  1  0  0  0  0
 16 14  1  0  0  0  0
 16 13  1  0  0  0  0
 17 14  2  0  0  0  0
 18 19  1  0  0  0  0
 21 19  1  0  0  0  0
 21 20  1  1  0  0  0
 23 21  1  6  0  0  0
 23 26  1  0  0  0  0
 24 30  1  6  0  0  0
 24 27  1  0  0  0  0
 25 24  1  0  0  0  0
 25 23  1  0  0  0  0
 27 28  1  0  0  0  0
 27 26  1  0  0  0  0
 27 22  1  0  0  0  0
 29 30  2  0  0  0  0
 31 30  1  0  0  0  0
M  END
>  <MODEL>
3

>  <REMARK>
 VINA RESULT:      -7.0      3.290      6.774
  Name = 
  9 active torsions:
  status: ('A' for Active; 'I' for Inactive)
    1  A    between atoms: C_4  and  N_10
    2  A    between atoms: C_4  and  C_29
    3  A    between atoms: O_8  and  C_12
    4  A    between atoms: O_8  and  C_28
    5  A    between atoms: N_10  and  C_18
    6  A    between atoms: C_11  and  C_29
    7  A    between atoms: C_12  and  N_27
    8  A    between atoms: C_15  and  C_20
    9  A    between atoms: N_23  and  N_27
                            x       y       z     vdW  Elec       q    Type
                         _______ _______ _______ _____ _____    ______ ____

>  <TORSDO>
F 9

$$$$
=
 OpenBabel11042414053D

 31 33  0  0  1  0  0  0  0  0999 V2000
  185.9240  178.2820  144.7960 C   0  0  0  0  0  0  0  0  0  0  0  0
  186.7640  177.9000  145.8690 C   0  0  0  0  0  0  0  0  0  0  0  0
  186.2240  177.9150  147.1640 C   0  0  0  0  0  3  0  0  0  0  0  0
  184.1130  178.6380  146.3130 N   0  0  0  0  0  0  0  0  0  0  0  0
  186.4080  178.2900  143.4930 C   0  0  0  0  0  3  0  0  0  0  0  0
  187.7310  177.9410  143.2380 C   0  0  0  0  0  3  0  0  0  0  0  0
  184.6000  178.6430  145.0460 C   0  0  0  0  0  3  0  0  0  0  0  0
  188.1100  177.5290  145.6040 C   0  0  0  0  0  0  0  0  0  0  0  0
  184.8920  178.2860  147.3680 C   0  0  0  0  0  3  0  0  0  0  0  0
  188.5850  177.5650  144.2780 C   0  0  0  0  0  0  0  0  0  0  0  0
  189.9160  177.2210  144.0150 O   0  0  0  0  0  0  0  0  0  0  0  0
  190.4180  177.0320  142.6960 C   0  0  0  0  0  2  0  0  0  0  0  0
  191.0190  175.7130  142.5840 N   0  0  0  0  0  2  0  0  0  0  0  0
  189.2900  173.9760  142.7450 C   0  0  0  0  0  0  0  0  0  0  0  0
  189.4730  173.8800  143.9840 O   0  0  0  0  0  1  0  0  0  0  0  0
  190.0750  174.8770  141.9690 N   0  0  0  0  0  2  0  0  0  0  0  0
  188.3300  173.1880  142.1270 O   0  0  0  0  0  0  0  0  0  0  0  0
  189.0280  177.0850  146.6240 N   0  0  0  0  0  2  0  0  0  0  0  0
  189.3420  175.7080  146.9780 C   0  0  0  0  0  2  0  0  0  0  0  0
  191.1430  176.6370  148.2590 O   0  0  0  0  0  1  0  0  0  0  0  0
  190.8050  175.5950  147.3790 C   0  0  2  0  0  3  0  0  0  0  0  0
  194.6550  177.3170  146.4370 F   0  0  0  0  0  0  0  0  0  0  0  0
  191.6900  175.6380  146.1340 C   0  0  2  0  0  3  0  0  0  0  0  0
  193.9800  175.0490  146.2200 C   0  0  2  0  0  3  0  0  0  0  0  0
  192.6160  174.4360  146.0940 C   0  0  0  0  0  2  0  0  0  0  0  0
  192.4460  176.8380  146.0970 O   0  0  0  0  0  0  0  0  0  0  0  0
  193.7680  176.4870  145.7690 C   0  0  0  0  0  0  0  0  0  0  0  0
  193.9390  176.6440  144.4000 F   0  0  0  0  0  0  0  0  0  0  0  0
  196.3830  174.4850  145.6950 O   0  0  0  0  0  1  0  0  0  0  0  0
  195.0260  174.2670  145.4800 C   0  0  0  0  0  0  0  0  0  0  0  0
  194.6680  173.4540  144.5940 O   0  0  0  0  0  0  0  0  0  0  0  0
  1  7  2  0  0  0  0
  1  2  1  0  0  0  0
  2  3  2  0  0  0  0
  3  9  1  0  0  0  0
  4  9  2  0  0  0  0
  5  1  1  0  0  0  0
  6  5  2  0  0  0  0
  6 10  1  0  0  0  0
  7  4  1  0  0  0  0
  8  2  1  0  0  0  0
  8 18  1  0  0  0  0
 10  8  2  0  0  0  0
 11 10  1  0  0  0  0
 12 11  1  0  0  0  0
 13 12  1  0  0  0  0
 14 15  1  0  0  0  0
 16 13  1  0  0  0  0
 16 14  1  0  0  0  0
 17 14  2  0  0  0  0
 18 19  1  0  0  0  0
 19 21  1  0  0  0  0
 21 20  1  1  0  0  0
 23 21  1  1  0  0  0
 24 30  1  6  0  0  0
 25 23  1  0  0  0  0
 25 24  1  0  0  0  0
 26 23  1  0  0  0  0
 27 26  1  0  0  0  0
 27 24  1  0  0  0  0
 27 22  1  0  0  0  0
 28 27  1  0  0  0  0
 30 29  1  0  0  0  0
 31 30  2  0  0  0  0
M  END
>  <MODEL>
4

>  <REMARK>
 VINA RESULT:      -6.9      3.902      5.722
  Name = 
  9 active torsions:
  status: ('A' for Active; 'I' for Inactive)
    1  A    between atoms: C_4  and  N_10
    2  A    between atoms: C_4  and  C_29
    3  A    between atoms: O_8  and  C_12
    4  A    between atoms: O_8  and  C_28
    5  A    between atoms: N_10  and  C_18
    6  A    between atoms: C_11  and  C_29
    7  A    between atoms: C_12  and  N_27
    8  A    between atoms: C_15  and  C_20
    9  A    between atoms: N_23  and  N_27
                            x       y       z     vdW  Elec       q    Type
                         _______ _______ _______ _____ _____    ______ ____

>  <TORSDO>
F 9

$$$$
=
 OpenBabel11042414053D

 31 33  0  0  1  0  0  0  0  0999 V2000
  185.7220  178.9090  145.8290 C   0  0  0  0  0  0  0  0  0  0  0  0
  186.2160  177.7230  145.2360 C   0  0  0  0  0  0  0  0  0  0  0  0
  186.6210  176.6830  146.0860 C   0  0  0  0  0  3  0  0  0  0  0  0
  186.0330  177.9740  148.0060 N   0  0  0  0  0  0  0  0  0  0  0  0
  185.3110  179.9740  145.0350 C   0  0  0  0  0  3  0  0  0  0  0  0
  185.4030  179.8870  143.6490 C   0  0  0  0  0  3  0  0  0  0  0  0
  185.6370  179.0070  147.2180 C   0  0  0  0  0  3  0  0  0  0  0  0
  186.2950  177.6320  143.8200 C   0  0  0  0  0  0  0  0  0  0  0  0
  186.5210  176.8250  147.4730 C   0  0  0  0  0  3  0  0  0  0  0  0
  185.8930  178.7300  143.0360 C   0  0  0  0  0  0  0  0  0  0  0  0
  185.9870  178.6520  141.6420 O   0  0  0  0  0  0  0  0  0  0  0  0
  184.9140  178.2040  140.8200 C   0  0  0  0  0  2  0  0  0  0  0  0
  183.6650  178.2690  141.5630 N   0  0  0  0  0  2  0  0  0  0  0  0
  181.2950  178.3960  140.9340 C   0  0  0  0  0  0  0  0  0  0  0  0
  181.0180  178.9750  142.0150 O   0  0  0  0  0  1  0  0  0  0  0  0
  182.6310  177.9830  140.6600 N   0  0  0  0  0  2  0  0  0  0  0  0
  180.2900  178.1440  140.0110 O   0  0  0  0  0  0  0  0  0  0  0  0
  186.7430  176.4510  143.1240 N   0  0  0  0  0  2  0  0  0  0  0  0
  188.0570  176.2260  142.5400 C   0  0  0  0  0  2  0  0  0  0  0  0
  189.7060  177.9580  142.3700 O   0  0  0  0  0  1  0  0  0  0  0  0
  189.1000  177.0630  143.2670 C   0  0  2  0  0  3  0  0  0  0  0  0
  189.2800  174.6650  146.8570 F   0  0  0  0  0  0  0  0  0  0  0  0
  190.1490  176.1490  143.9010 C   0  0  2  0  0  3  0  0  0  0  0  0
  189.6140  173.9580  144.6140 C   0  0  2  0  0  3  0  0  0  0  0  0
  190.0010  174.7290  143.3860 C   0  0  0  0  0  2  0  0  0  0  0  0
  190.0430  176.1700  145.3140 O   0  0  0  0  0  0  0  0  0  0  0  0
  190.1050  174.8350  145.7560 C   0  0  0  0  0  0  0  0  0  0  0  0
  191.4140  174.5520  146.1180 F   0  0  0  0  0  0  0  0  0  0  0  0
  191.3080  172.2190  143.9190 O   0  0  0  0  0  0  0  0  0  0  0  0
  190.1320  172.5490  144.5880 C   0  0  0  0  0  0  0  0  0  0  0  0
  189.4500  171.6370  145.1150 O   0  0  0  0  0  1  0  0  0  0  0  0
  1  7  2  0  0  0  0
  2  1  1  0  0  0  0
  2  3  2  0  0  0  0
  3  9  1  0  0  0  0
  5  1  1  0  0  0  0
  6  5  2  0  0  0  0
  7  4  1  0  0  0  0
  8  2  1  0  0  0  0
  9  4  2  0  0  0  0
 10  6  1  0  0  0  0
 10  8  2  0  0  0  0
 11 10  1  0  0  0  0
 12 13  1  0  0  0  0
 12 11  1  0  0  0  0
 14 15  1  0  0  0  0
 16 14  1  0  0  0  0
 16 13  1  0  0  0  0
 17 14  2  0  0  0  0
 18  8  1  0  0  0  0
 19 18  1  0  0  0  0
 19 21  1  0  0  0  0
 21 20  1  6  0  0  0
 23 21  1  6  0  0  0
 23 26  1  0  0  0  0
 24 30  1  6  0  0  0
 24 27  1  0  0  0  0
 25 23  1  0  0  0  0
 25 24  1  0  0  0  0
 26 27  1  0  0  0  0
 27 28  1  0  0  0  0
 27 22  1  0  0  0  0
 29 30  2  0  0  0  0
 30 31  1  0  0  0  0
M  END
>  <MODEL>
5

>  <REMARK>
 VINA RESULT:      -6.9      1.691      2.076
  Name = 
  9 active torsions:
  status: ('A' for Active; 'I' for Inactive)
    1  A    between atoms: C_4  and  N_10
    2  A    between atoms: C_4  and  C_29
    3  A    between atoms: O_8  and  C_12
    4  A    between atoms: O_8  and  C_28
    5  A    between atoms: N_10  and  C_18
    6  A    between atoms: C_11  and  C_29
    7  A    between atoms: C_12  and  N_27
    8  A    between atoms: C_15  and  C_20
    9  A    between atoms: N_23  and  N_27
                            x       y       z     vdW  Elec       q    Type
                         _______ _______ _______ _____ _____    ______ ____

>  <TORSDO>
F 9

$$$$
=
 OpenBabel11042414053D

 31 33  0  0  1  0  0  0  0  0999 V2000
  185.0150  178.5550  145.1310 C   0  0  0  0  0  0  0  0  0  0  0  0
  186.3330  178.0920  145.3630 C   0  0  0  0  0  0  0  0  0  0  0  0
  186.6910  177.7640  146.6790 C   0  0  0  0  0  3  0  0  0  0  0  0
  184.5030  178.3230  147.4530 N   0  0  0  0  0  0  0  0  0  0  0  0
  184.6070  178.9000  143.8470 C   0  0  0  0  0  3  0  0  0  0  0  0
  185.5010  178.8110  142.7840 C   0  0  0  0  0  3  0  0  0  0  0  0
  184.1180  178.6580  146.1940 C   0  0  0  0  0  3  0  0  0  0  0  0
  187.2380  177.9880  144.2720 C   0  0  0  0  0  0  0  0  0  0  0  0
  185.7600  177.8840  147.7150 C   0  0  0  0  0  3  0  0  0  0  0  0
  186.8090  178.3620  142.9840 C   0  0  0  0  0  0  0  0  0  0  0  0
  187.7030  178.2800  141.9110 O   0  0  0  0  0  0  0  0  0  0  0  0
  187.4390  177.5080  140.7440 C   0  0  0  0  0  2  0  0  0  0  0  0
  187.2370  176.1160  141.1100 N   0  0  0  0  0  2  0  0  0  0  0  0
  188.6420  174.1220  141.3990 C   0  0  0  0  0  0  0  0  0  0  0  0
  187.7170  173.5340  142.0120 O   0  0  0  0  0  1  0  0  0  0  0  0
  188.4650  175.4590  140.9390 N   0  0  0  0  0  2  0  0  0  0  0  0
  189.8480  173.4720  141.1830 O   0  0  0  0  0  0  0  0  0  0  0  0
  188.5840  177.4870  144.4030 N   0  0  0  0  0  2  0  0  0  0  0  0
  188.9920  176.0930  144.5050 C   0  0  0  0  0  2  0  0  0  0  0  0
  190.2730  177.1670  146.2230 O   0  0  0  0  0  1  0  0  0  0  0  0
  189.9540  175.9160  145.6690 C   0  0  2  0  0  3  0  0  0  0  0  0
  192.8610  176.6350  142.5530 F   0  0  0  0  0  0  0  0  0  0  0  0
  191.2210  175.2050  145.1920 C   0  0  2  0  0  3  0  0  0  0  0  0
  193.2540  176.3730  144.8820 C   0  0  2  0  0  3  0  0  0  0  0  0
  192.4350  175.7110  145.9500 C   0  0  0  0  0  2  0  0  0  0  0  0
  191.4040  175.3890  143.7980 O   0  0  0  0  0  0  0  0  0  0  0  0
  192.7540  175.7290  143.5970 C   0  0  0  0  0  0  0  0  0  0  0  0
  193.4550  174.5760  143.2730 F   0  0  0  0  0  0  0  0  0  0  0  0
  195.6660  176.7900  144.2610 O   0  0  0  0  0  0  0  0  0  0  0  0
  194.7280  176.2690  145.1480 C   0  0  0  0  0  0  0  0  0  0  0  0
  195.1240  175.6310  146.1540 O   0  0  0  0  0  1  0  0  0  0  0  0
  1  2  1  0  0  0  0
  1  7  2  0  0  0  0
  2  3  2  0  0  0  0
  3  9  1  0  0  0  0
  4  9  2  0  0  0  0
  5  1  1  0  0  0  0
  6 10  1  0  0  0  0
  6  5  2  0  0  0  0
  7  4  1  0  0  0  0
  8 18  1  0  0  0  0
  8  2  1  0  0  0  0
 10  8  2  0  0  0  0
 11 10  1  0  0  0  0
 12 13  1  0  0  0  0
 12 11  1  0  0  0  0
 14 15  1  0  0  0  0
 16 13  1  0  0  0  0
 16 14  1  0  0  0  0
 17 14  2  0  0  0  0
 18 19  1  0  0  0  0
 19 21  1  0  0  0  0
 21 20  1  6  0  0  0
 22 27  1  0  0  0  0
 23 21  1  1  0  0  0
 23 25  1  0  0  0  0
 24 30  1  1  0  0  0
 24 25  1  0  0  0  0
 26 23  1  0  0  0  0
 27 26  1  0  0  0  0
 27 24  1  0  0  0  0
 28 27  1  0  0  0  0
 29 30  2  0  0  0  0
 30 31  1  0  0  0  0
M  END
>  <MODEL>
6

>  <REMARK>
 VINA RESULT:      -6.8      3.125      4.664
  Name = 
  9 active torsions:
  status: ('A' for Active; 'I' for Inactive)
    1  A    between atoms: C_4  and  N_10
    2  A    between atoms: C_4  and  C_29
    3  A    between atoms: O_8  and  C_12
    4  A    between atoms: O_8  and  C_28
    5  A    between atoms: N_10  and  C_18
    6  A    between atoms: C_11  and  C_29
    7  A    between atoms: C_12  and  N_27
    8  A    between atoms: C_15  and  C_20
    9  A    between atoms: N_23  and  N_27
                            x       y       z     vdW  Elec       q    Type
                         _______ _______ _______ _____ _____    ______ ____

>  <TORSDO>
F 9

$$$$
=
 OpenBabel11042414053D

 31 33  0  0  1  0  0  0  0  0999 V2000
  185.0600  178.4090  144.9630 C   0  0  0  0  0  0  0  0  0  0  0  0
  186.3870  177.9740  145.1910 C   0  0  0  0  0  0  0  0  0  0  0  0
  186.8000  177.7890  146.5190 C   0  0  0  0  0  3  0  0  0  0  0  0
  184.6410  178.4280  147.3150 N   0  0  0  0  0  0  0  0  0  0  0  0
  184.5990  178.6140  143.6670 C   0  0  0  0  0  3  0  0  0  0  0  0
  185.4500  178.4100  142.5850 C   0  0  0  0  0  3  0  0  0  0  0  0
  184.2050  178.6250  146.0440 C   0  0  0  0  0  3  0  0  0  0  0  0
  187.2490  177.7530  144.0820 C   0  0  0  0  0  0  0  0  0  0  0  0
  185.9100  178.0200  147.5730 C   0  0  0  0  0  3  0  0  0  0  0  0
  186.7670  177.9860  142.7790 C   0  0  0  0  0  0  0  0  0  0  0  0
  187.6180  177.7890  141.6860 O   0  0  0  0  0  0  0  0  0  0  0  0
  187.4470  176.7220  140.7580 C   0  0  0  0  0  2  0  0  0  0  0  0
  188.1460  175.5390  141.2350 N   0  0  0  0  0  2  0  0  0  0  0  0
  188.3300  173.2610  140.3350 C   0  0  0  0  0  0  0  0  0  0  0  0
  188.2940  172.7780  141.4940 O   0  0  0  0  0  1  0  0  0  0  0  0
  188.2880  174.6730  140.1410 N   0  0  0  0  0  2  0  0  0  0  0  0
  188.4260  172.4160  139.2390 O   0  0  0  0  0  0  0  0  0  0  0  0
  188.6010  177.2680  144.2120 N   0  0  0  0  0  2  0  0  0  0  0  0
  189.7260  177.9680  144.8150 C   0  0  0  0  0  2  0  0  0  0  0  0
  190.6510  177.3500  142.6910 O   0  0  0  0  0  1  0  0  0  0  0  0
  190.9890  177.7220  144.0030 C   0  0  2  0  0  3  0  0  0  0  0  0
  190.2300  174.6810  146.9780 F   0  0  0  0  0  0  0  0  0  0  0  0
  191.8290  176.6310  144.6680 C   0  0  2  0  0  3  0  0  0  0  0  0
  191.0840  174.3890  144.7800 C   0  0  2  0  0  3  0  0  0  0  0  0
  191.7770  175.3490  143.8580 C   0  0  0  0  0  2  0  0  0  0  0  0
  191.3820  176.3920  145.9920 O   0  0  0  0  0  0  0  0  0  0  0  0
  191.3020  174.9960  146.1580 C   0  0  0  0  0  0  0  0  0  0  0  0
  192.4770  174.5560  146.7520 F   0  0  0  0  0  0  0  0  0  0  0  0
  192.8940  172.6880  144.3350 O   0  0  0  0  0  0  0  0  0  0  0  0
  191.5580  172.9770  144.5930 C   0  0  0  0  0  0  0  0  0  0  0  0
  190.7170  172.0450  144.5930 O   0  0  0  0  0  1  0  0  0  0  0  0
  1  2  1  0  0  0  0
  1  7  2  0  0  0  0
  2  3  2  0  0  0  0
  3  9  1  0  0  0  0
  4  9  2  0  0  0  0
  5  1  1  0  0  0  0
  6 10  1  0  0  0  0
  6  5  2  0  0  0  0
  7  4  1  0  0  0  0
  8 18  1  0  0  0  0
  8  2  1  0  0  0  0
 10  8  2  0  0  0  0
 11 10  1  0  0  0  0
 12 13  1  0  0  0  0
 12 11  1  0  0  0  0
 14 15  1  0  0  0  0
 16 14  1  0  0  0  0
 16 13  1  0  0  0  0
 17 14  2  0  0  0  0
 18 19  1  0  0  0  0
 21 20  1  6  0  0  0
 21 19  1  0  0  0  0
 23 21  1  6  0  0  0
 23 26  1  0  0  0  0
 24 30  1  1  0  0  0
 24 27  1  0  0  0  0
 25 23  1  0  0  0  0
 25 24  1  0  0  0  0
 26 27  1  0  0  0  0
 27 28  1  0  0  0  0
 27 22  1  0  0  0  0
 29 30  2  0  0  0  0
 30 31  1  0  0  0  0
M  END
>  <MODEL>
7

>  <REMARK>
 VINA RESULT:      -6.8      3.262      4.588
  Name = 
  9 active torsions:
  status: ('A' for Active; 'I' for Inactive)
    1  A    between atoms: C_4  and  N_10
    2  A    between atoms: C_4  and  C_29
    3  A    between atoms: O_8  and  C_12
    4  A    between atoms: O_8  and  C_28
    5  A    between atoms: N_10  and  C_18
    6  A    between atoms: C_11  and  C_29
    7  A    between atoms: C_12  and  N_27
    8  A    between atoms: C_15  and  C_20
    9  A    between atoms: N_23  and  N_27
                            x       y       z     vdW  Elec       q    Type
                         _______ _______ _______ _____ _____    ______ ____

>  <TORSDO>
F 9

$$$$
=
 OpenBabel11042414053D

 31 33  0  0  1  0  0  0  0  0999 V2000
  185.7310  177.6990  146.2740 C   0  0  0  0  0  0  0  0  0  0  0  0
  186.6240  178.0870  145.2460 C   0  0  0  0  0  0  0  0  0  0  0  0
  186.1440  178.9470  144.2480 C   0  0  0  0  0  3  0  0  0  0  0  0
  183.9990  179.0220  145.2950 N   0  0  0  0  0  0  0  0  0  0  0  0
  186.1520  176.8440  147.2860 C   0  0  0  0  0  3  0  0  0  0  0  0
  187.4520  176.3470  147.2840 C   0  0  0  0  0  3  0  0  0  0  0  0
  184.4230  178.1850  146.2760 C   0  0  0  0  0  3  0  0  0  0  0  0
  187.9560  177.5890  145.2560 C   0  0  0  0  0  0  0  0  0  0  0  0
  184.8240  179.4080  144.2890 C   0  0  0  0  0  3  0  0  0  0  0  0
  188.3540  176.7080  146.2790 C   0  0  0  0  0  0  0  0  0  0  0  0
  189.6580  176.2000  146.2800 O   0  0  0  0  0  0  0  0  0  0  0  0
  190.1280  175.2820  147.2610 C   0  0  0  0  0  2  0  0  0  0  0  0
  191.5820  175.2860  147.2820 N   0  0  0  0  0  2  0  0  0  0  0  0
  193.2340  176.4240  145.8660 C   0  0  0  0  0  0  0  0  0  0  0  0
  193.9110  176.7410  146.8760 O   0  0  0  0  0  1  0  0  0  0  0  0
  192.0140  175.7030  146.0150 N   0  0  0  0  0  2  0  0  0  0  0  0
  193.6700  176.7910  144.6010 O   0  0  0  0  0  0  0  0  0  0  0  0
  188.9480  177.9610  144.2780 N   0  0  0  0  0  2  0  0  0  0  0  0
  189.7610  177.0620  143.4720 C   0  0  0  0  0  2  0  0  0  0  0  0
  188.1170  177.7470  141.8680 O   0  0  0  0  0  1  0  0  0  0  0  0
  189.0440  176.7360  142.1700 C   0  0  2  0  0  3  0  0  0  0  0  0
  189.2120  173.0140  139.9810 F   0  0  0  0  0  0  0  0  0  0  0  0
  188.3420  175.3840  142.2890 C   0  0  2  0  0  3  0  0  0  0  0  0
  189.5570  173.3540  142.3070 C   0  0  2  0  0  3  0  0  0  0  0  0
  189.1110  174.4620  143.2160 C   0  0  0  0  0  2  0  0  0  0  0  0
  188.1950  174.7820  141.0130 O   0  0  0  0  0  0  0  0  0  0  0  0
  188.5820  173.4350  141.1410 C   0  0  0  0  0  0  0  0  0  0  0  0
  187.4440  172.6680  141.3470 F   0  0  0  0  0  0  0  0  0  0  0  0
  189.3340  171.9160  144.3690 O   0  0  0  0  0  1  0  0  0  0  0  0
  189.6370  172.0340  143.0160 C   0  0  0  0  0  0  0  0  0  0  0  0
  190.0600  171.0300  142.3920 O   0  0  0  0  0  0  0  0  0  0  0  0
  1  7  1  0  0  0  0
  1  5  1  0  0  0  0
  2  8  1  0  0  0  0
  2  1  2  0  0  0  0
  3  9  2  0  0  0  0
  3  2  1  0  0  0  0
  4  7  2  0  0  0  0
  6  5  2  0  0  0  0
  8 10  2  0  0  0  0
  9  4  1  0  0  0  0
 10 11  1  0  0  0  0
 10  6  1  0  0  0  0
 11 12  1  0  0  0  0
 12 13  1  0  0  0  0
 14 16  1  0  0  0  0
 14 15  1  0  0  0  0
 16 13  1  0  0  0  0
 17 14  2  0  0  0  0
 18  8  1  0  0  0  0
 19 18  1  0  0  0  0
 21 20  1  1  0  0  0
 21 19  1  0  0  0  0
 22 27  1  0  0  0  0
 23 21  1  6  0  0  0
 23 25  1  0  0  0  0
 24 30  1  1  0  0  0
 24 25  1  0  0  0  0
 26 27  1  0  0  0  0
 26 23  1  0  0  0  0
 27 28  1  0  0  0  0
 27 24  1  0  0  0  0
 30 29  1  0  0  0  0
 31 30  2  0  0  0  0
M  END
>  <MODEL>
8

>  <REMARK>
 VINA RESULT:      -6.8      3.602      6.779
  Name = 
  9 active torsions:
  status: ('A' for Active; 'I' for Inactive)
    1  A    between atoms: C_4  and  N_10
    2  A    between atoms: C_4  and  C_29
    3  A    between atoms: O_8  and  C_12
    4  A    between atoms: O_8  and  C_28
    5  A    between atoms: N_10  and  C_18
    6  A    between atoms: C_11  and  C_29
    7  A    between atoms: C_12  and  N_27
    8  A    between atoms: C_15  and  C_20
    9  A    between atoms: N_23  and  N_27
                            x       y       z     vdW  Elec       q    Type
                         _______ _______ _______ _____ _____    ______ ____

>  <TORSDO>
F 9

$$$$
=
 OpenBabel11042414053D

 31 33  0  0  1  0  0  0  0  0999 V2000
  185.7280  177.6760  145.9290 C   0  0  0  0  0  0  0  0  0  0  0  0
  186.7460  178.0710  145.0280 C   0  0  0  0  0  0  0  0  0  0  0  0
  186.4010  178.9540  143.9930 C   0  0  0  0  0  3  0  0  0  0  0  0
  184.1440  179.0350  144.7680 N   0  0  0  0  0  0  0  0  0  0  0  0
  186.0130  176.8000  146.9700 C   0  0  0  0  0  3  0  0  0  0  0  0
  187.2980  176.2880  147.1200 C   0  0  0  0  0  3  0  0  0  0  0  0
  184.4350  178.1770  145.7790 C   0  0  0  0  0  3  0  0  0  0  0  0
  188.0610  177.5580  145.1920 C   0  0  0  0  0  0  0  0  0  0  0  0
  185.0910  179.4290  143.8790 C   0  0  0  0  0  3  0  0  0  0  0  0
  188.3210  176.6550  146.2410 C   0  0  0  0  0  0  0  0  0  0  0  0
  189.6100  176.1330  146.3940 O   0  0  0  0  0  0  0  0  0  0  0  0
  189.9040  175.0460  147.2670 C   0  0  0  0  0  2  0  0  0  0  0  0
  191.1610  175.2950  147.9550 N   0  0  0  0  0  2  0  0  0  0  0  0
  192.9680  175.8760  146.3970 C   0  0  0  0  0  0  0  0  0  0  0  0
  193.3660  174.6840  146.3830 O   0  0  0  0  0  1  0  0  0  0  0  0
  191.8600  176.2550  147.2090 N   0  0  0  0  0  2  0  0  0  0  0  0
  193.6210  176.8300  145.6310 O   0  0  0  0  0  0  0  0  0  0  0  0
  189.1710  177.9350  144.3520 N   0  0  0  0  0  2  0  0  0  0  0  0
  189.6000  177.2790  143.1250 C   0  0  0  0  0  2  0  0  0  0  0  0
  191.9570  177.3400  142.6910 O   0  0  0  0  0  1  0  0  0  0  0  0
  190.9490  176.6070  143.3380 C   0  0  2  0  0  3  0  0  0  0  0  0
  189.3580  172.8640  144.7990 F   0  0  0  0  0  0  0  0  0  0  0  0
  190.9040  175.1750  142.8070 C   0  0  2  0  0  3  0  0  0  0  0  0
  188.8860  173.9420  142.7350 C   0  0  2  0  0  3  0  0  0  0  0  0
  189.6670  174.9600  141.9550 C   0  0  0  0  0  2  0  0  0  0  0  0
  190.9300  174.2430  143.8750 O   0  0  0  0  0  0  0  0  0  0  0  0
  189.9390  173.2790  143.6110 C   0  0  0  0  0  0  0  0  0  0  0  0
  190.5370  172.1910  142.9900 F   0  0  0  0  0  0  0  0  0  0  0  0
  188.2660  173.0290  140.4650 O   0  0  0  0  0  0  0  0  0  0  0  0
  188.0910  173.0310  141.8460 C   0  0  0  0  0  0  0  0  0  0  0  0
  187.1970  172.3110  142.3520 O   0  0  0  0  0  1  0  0  0  0  0  0
  1  5  1  0  0  0  0
  2  8  1  0  0  0  0
  2  1  2  0  0  0  0
  3  2  1  0  0  0  0
  4  7  2  0  0  0  0
  5  6  2  0  0  0  0
  7  1  1  0  0  0  0
  8 10  2  0  0  0  0
  9  3  2  0  0  0  0
  9  4  1  0  0  0  0
 10 11  1  0  0  0  0
 10  6  1  0  0  0  0
 11 12  1  0  0  0  0
 12 13  1  0  0  0  0
 14 16  1  0  0  0  0
 15 14  1  0  0  0  0
 16 13  1  0  0  0  0
 17 14  2  0  0  0  0
 18  8  1  0  0  0  0
 19 21  1  0  0  0  0
 19 18  1  0  0  0  0
 21 20  1  6  0  0  0
 23 21  1  1  0  0  0
 23 26  1  0  0  0  0
 24 30  1  6  0  0  0
 24 27  1  0  0  0  0
 25 24  1  0  0  0  0
 25 23  1  0  0  0  0
 27 26  1  0  0  0  0
 27 22  1  0  0  0  0
 28 27  1  0  0  0  0
 29 30  2  0  0  0  0
 30 31  1  0  0  0  0
M  END
>  <MODEL>
9

>  <REMARK>
 VINA RESULT:      -6.8      3.846      6.830
  Name = 
  9 active torsions:
  status: ('A' for Active; 'I' for Inactive)
    1  A    between atoms: C_4  and  N_10
    2  A    between atoms: C_4  and  C_29
    3  A    between atoms: O_8  and  C_12
    4  A    between atoms: O_8  and  C_28
    5  A    between atoms: N_10  and  C_18
    6  A    between atoms: C_11  and  C_29
    7  A    between atoms: C_12  and  N_27
    8  A    between atoms: C_15  and  C_20
    9  A    between atoms: N_23  and  N_27
                            x       y       z     vdW  Elec       q    Type
                         _______ _______ _______ _____ _____    ______ ____

>  <TORSDO>
F 9

$$$$
