=
 OpenBabel11042417103D

 38 40  0  0  1  0  0  0  0  0999 V2000
  189.8750  175.9040  146.7580 C   0  0  0  0  0  0  0  0  0  0  0  0
  192.4320  175.1000  145.4370 C   0  0  2  0  0  3  0  0  0  0  0  0
  190.0470  177.2650  144.9300 C   0  0  0  0  0  2  0  0  0  0  0  0
  190.6760  176.5390  144.0040 C   0  0  1  0  0  3  0  0  0  0  0  0
  187.8110  176.4260  145.7360 O   0  0  0  0  0  0  0  0  0  0  0  0
  189.1920  176.5820  145.8880 C   0  0  0  0  0  0  0  0  0  0  0  0
  192.4650  176.4940  144.2160 S   0  0  0  0  0  0  0  0  0  0  0  0
  188.5840  175.1680  143.3930 C   0  0  0  0  0  2  0  0  0  0  0  0
  192.2310  175.5500  146.9000 C   0  0  0  0  0  2  0  0  0  0  0  0
  190.0120  175.4820  143.2640 N   0  0  0  0  0  0  0  0  0  0  0  0
  190.8310  175.2960  147.3940 C   0  0  0  0  0  3  0  0  0  0  0  0
  187.7190  176.4180  143.2480 C   0  0  0  0  0  2  0  0  0  0  0  0
  187.0860  176.8620  144.5770 C   0  0  2  0  0  3  0  0  0  0  0  0
  193.6090  172.9070  145.6250 C   0  0  0  0  0  3  0  0  0  0  0  0
  195.9770  172.6850  145.1750 C   0  0  0  0  0  3  0  0  0  0  0  0
  193.6720  174.2710  145.3260 C   0  0  0  0  0  0  0  0  0  0  0  0
  197.3470  174.6610  144.4960 C   0  0  0  0  0  1  0  0  0  0  0  0
  196.0500  174.0520  144.8880 C   0  0  0  0  0  0  0  0  0  0  0  0
  194.6780  170.6610  145.8530 C   0  0  0  0  0  1  0  0  0  0  0  0
  194.9010  174.8440  144.9660 C   0  0  0  0  0  3  0  0  0  0  0  0
  194.7560  172.1130  145.5440 C   0  0  0  0  0  0  0  0  0  0  0  0
  185.6730  180.2370  144.2990 O   0  0  0  0  0  0  0  0  0  0  0  0
  185.7110  178.9790  144.2770 C   0  0  0  0  0  0  0  0  0  0  0  0
  186.9380  178.3110  144.5850 N   0  0  0  0  0  2  0  0  0  0  0  0
  184.4870  178.2190  143.8810 C   0  0  0  0  0  2  0  0  0  0  0  0
  185.2780  178.3870  141.6360 O   0  0  0  0  0  0  0  0  0  0  0  0
  184.2870  178.2860  142.4050 C   0  0  0  0  0  0  0  0  0  0  0  0
  182.9730  178.2240  141.8650 N   0  0  0  0  0  1  0  0  0  0  0  0
  190.7210  174.8090  142.1820 C   0  0  0  0  0  2  0  0  0  0  0  0
  189.7490  174.0820  141.2700 C   0  0  0  0  0  2  0  0  0  0  0  0
  190.4590  173.5240  140.1330 N   0  0  0  0  0  2  0  0  0  0  0  0
  190.2950  172.0830  140.2020 C   0  0  0  0  0  2  0  0  0  0  0  0
  191.6310  171.4250  140.5150 C   0  0  0  0  0  2  0  0  0  0  0  0
  191.6790  171.0180  141.9120 N   0  0  0  0  0  2  0  0  0  0  0  0
  193.0560  171.1640  142.3610 C   0  0  0  0  0  2  0  0  0  0  0  0
  193.6100  172.5000  141.9060 C   0  0  0  0  0  2  0  0  0  0  0  0
  195.0960  172.3840  141.6230 C   0  0  0  0  0  2  0  0  0  0  0  0
  195.6460  173.7450  141.2500 C   0  0  0  0  0  1  0  0  0  0  0  0
  1 11  2  0  0  0  0
  2 16  1  1  0  0  0
  2  9  1  0  0  0  0
  3  6  1  0  0  0  0
  4  7  1  0  0  0  0
  4  3  1  1  0  0  0
  5  6  1  0  0  0  0
  6  1  2  0  0  0  0
  7  2  1  0  0  0  0
  9 11  1  0  0  0  0
 10  8  1  0  0  0  0
 10  4  1  0  0  0  0
 12  8  1  0  0  0  0
 12 13  1  0  0  0  0
 13 24  1  6  0  0  0
 13  5  1  0  0  0  0
 15 21  2  0  0  0  0
 16 14  2  0  0  0  0
 17 18  1  0  0  0  0
 18 20  2  0  0  0  0
 18 15  1  0  0  0  0
 20 16  1  0  0  0  0
 21 14  1  0  0  0  0
 21 19  1  0  0  0  0
 23 22  2  0  0  0  0
 23 24  1  0  0  0  0
 25 23  1  0  0  0  0
 26 27  2  0  0  0  0
 27 25  1  0  0  0  0
 28 27  1  0  0  0  0
 29 10  1  0  0  0  0
 30 29  1  0  0  0  0
 31 32  1  0  0  0  0
 31 30  1  0  0  0  0
 32 33  1  0  0  0  0
 33 34  1  0  0  0  0
 34 35  1  0  0  0  0
 36 35  1  0  0  0  0
 37 36  1  0  0  0  0
 38 37  1  0  0  0  0
M  END
>  <MODEL>
1

>  <REMARK>
 VINA RESULT:      -6.2      0.000      0.000
  Name = 
  13 active torsions:
  status: ('A' for Active; 'I' for Inactive)
    1  A    between atoms: N_2  and  C_3
    2  A    between atoms: N_2  and  C_15
    3  A    between atoms: C_3  and  C_8
    4  A    between atoms: C_5  and  C_9
    5  A    between atoms: C_8  and  N_33
    6  A    between atoms: C_15  and  C_30
    7  A    between atoms: C_16  and  C_27
    8  A    between atoms: C_19  and  C_27
    9  A    between atoms: C_20  and  C_30
   10  A    between atoms: N_24  and  C_29
   11  A    between atoms: C_29  and  C_37
   12  A    between atoms: C_31  and  N_38
   13  A    between atoms: N_33  and  C_37
                            x       y       z     vdW  Elec       q    Type
                         _______ _______ _______ _____ _____    ______ ____

>  <TORSDO>
F 13

$$$$
=
 OpenBabel11042417103D

 38 40  0  0  1  0  0  0  0  0999 V2000
  189.2650  174.4930  141.4940 C   0  0  0  0  0  0  0  0  0  0  0  0
  187.7620  176.4880  143.1350 C   0  0  2  0  0  3  0  0  0  0  0  0
  190.8200  175.3740  142.9200 C   0  0  0  0  0  2  0  0  0  0  0  0
  190.1520  175.6640  144.0380 C   0  0  1  0  0  3  0  0  0  0  0  0
  190.9060  172.9550  142.2160 O   0  0  0  0  0  0  0  0  0  0  0  0
  190.3760  174.2450  142.1170 C   0  0  0  0  0  0  0  0  0  0  0  0
  189.2520  177.2220  143.9580 S   0  0  0  0  0  0  0  0  0  0  0  0
  190.0830  173.2190  144.8470 C   0  0  0  0  0  2  0  0  0  0  0  0
  187.8620  176.4210  141.5970 C   0  0  0  0  0  2  0  0  0  0  0  0
  189.7390  174.6410  144.9820 N   0  0  0  0  0  0  0  0  0  0  0  0
  188.1510  175.0300  141.0970 C   0  0  0  0  0  3  0  0  0  0  0  0
  191.5790  173.0240  144.6130 C   0  0  0  0  0  2  0  0  0  0  0  0
  191.9030  172.5790  143.1770 C   0  0  2  0  0  3  0  0  0  0  0  0
  186.3810  177.6570  144.8540 C   0  0  0  0  0  3  0  0  0  0  0  0
  184.1980  178.5660  144.3360 C   0  0  0  0  0  3  0  0  0  0  0  0
  186.5220  177.2230  143.5330 C   0  0  0  0  0  0  0  0  0  0  0  0
  183.2360  178.3700  142.0390 C   0  0  0  0  0  1  0  0  0  0  0  0
  184.3270  178.1220  143.0160 C   0  0  0  0  0  0  0  0  0  0  0  0
  185.0880  178.8000  146.6590 C   0  0  0  0  0  1  0  0  0  0  0  0
  185.4840  177.4500  142.6150 C   0  0  0  0  0  3  0  0  0  0  0  0
  185.2260  178.3330  145.2550 C   0  0  0  0  0  0  0  0  0  0  0  0
  195.4950  172.8610  142.4840 O   0  0  0  0  0  0  0  0  0  0  0  0
  194.4090  172.3280  142.8290 C   0  0  0  0  0  0  0  0  0  0  0  0
  193.2060  173.1010  142.7880 N   0  0  0  0  0  2  0  0  0  0  0  0
  194.4120  170.9160  143.3190 C   0  0  0  0  0  2  0  0  0  0  0  0
  196.3490  170.4590  144.6350 O   0  0  0  0  0  0  0  0  0  0  0  0
  195.1420  170.8170  144.6150 C   0  0  0  0  0  0  0  0  0  0  0  0
  194.4770  171.1400  145.8300 N   0  0  0  0  0  1  0  0  0  0  0  0
  189.1210  175.0340  146.2420 C   0  0  0  0  0  2  0  0  0  0  0  0
  190.1620  175.1530  147.3400 C   0  0  0  0  0  2  0  0  0  0  0  0
  190.5450  176.5430  147.5130 N   0  0  0  0  0  2  0  0  0  0  0  0
  191.9680  176.5540  147.8000 C   0  0  0  0  0  2  0  0  0  0  0  0
  192.7130  175.7410  146.7510 C   0  0  0  0  0  2  0  0  0  0  0  0
  193.1680  176.6040  145.6710 N   0  0  0  0  0  2  0  0  0  0  0  0
  194.1630  175.8620  144.9100 C   0  0  0  0  0  2  0  0  0  0  0  0
  194.8700  174.8690  145.8120 C   0  0  0  0  0  2  0  0  0  0  0  0
  196.2670  174.5880  145.2910 C   0  0  0  0  0  2  0  0  0  0  0  0
  196.9720  173.6330  146.2310 C   0  0  0  0  0  1  0  0  0  0  0  0
  1  6  2  0  0  0  0
  2 16  1  6  0  0  0
  2  7  1  0  0  0  0
  4  3  1  6  0  0  0
  4 10  1  0  0  0  0
  5 13  1  0  0  0  0
  6  5  1  0  0  0  0
  6  3  1  0  0  0  0
  7  4  1  0  0  0  0
  8 10  1  0  0  0  0
  9  2  1  0  0  0  0
 10 29  1  0  0  0  0
 11  1  2  0  0  0  0
 11  9  1  0  0  0  0
 12  8  1  0  0  0  0
 13 24  1  6  0  0  0
 13 12  1  0  0  0  0
 14 21  1  0  0  0  0
 15 21  2  0  0  0  0
 16 14  2  0  0  0  0
 17 18  1  0  0  0  0
 18 15  1  0  0  0  0
 20 18  2  0  0  0  0
 20 16  1  0  0  0  0
 21 19  1  0  0  0  0
 22 23  2  0  0  0  0
 23 25  1  0  0  0  0
 24 23  1  0  0  0  0
 25 27  1  0  0  0  0
 27 26  2  0  0  0  0
 27 28  1  0  0  0  0
 29 30  1  0  0  0  0
 30 31  1  0  0  0  0
 31 32  1  0  0  0  0
 33 32  1  0  0  0  0
 34 33  1  0  0  0  0
 35 34  1  0  0  0  0
 35 36  1  0  0  0  0
 37 36  1  0  0  0  0
 37 38  1  0  0  0  0
M  END
>  <MODEL>
2

>  <REMARK>
 VINA RESULT:      -6.2      3.128      8.685
  Name = 
  13 active torsions:
  status: ('A' for Active; 'I' for Inactive)
    1  A    between atoms: N_2  and  C_3
    2  A    between atoms: N_2  and  C_15
    3  A    between atoms: C_3  and  C_8
    4  A    between atoms: C_5  and  C_9
    5  A    between atoms: C_8  and  N_33
    6  A    between atoms: C_15  and  C_30
    7  A    between atoms: C_16  and  C_27
    8  A    between atoms: C_19  and  C_27
    9  A    between atoms: C_20  and  C_30
   10  A    between atoms: N_24  and  C_29
   11  A    between atoms: C_29  and  C_37
   12  A    between atoms: C_31  and  N_38
   13  A    between atoms: N_33  and  C_37
                            x       y       z     vdW  Elec       q    Type
                         _______ _______ _______ _____ _____    ______ ____

>  <TORSDO>
F 13

$$$$
=
 OpenBabel11042417103D

 38 40  0  0  1  0  0  0  0  0999 V2000
  191.1200  175.5660  147.2180 C   0  0  0  0  0  0  0  0  0  0  0  0
  193.0680  175.8570  144.9710 C   0  0  2  0  0  3  0  0  0  0  0  0
  190.4060  177.3990  146.0530 C   0  0  0  0  0  2  0  0  0  0  0  0
  190.7270  177.1580  144.7800 C   0  0  1  0  0  3  0  0  0  0  0  0
  188.7720  175.8240  147.1520 O   0  0  0  0  0  0  0  0  0  0  0  0
  190.0750  176.2720  146.9120 C   0  0  0  0  0  0  0  0  0  0  0  0
  192.4520  177.5070  144.3940 S   0  0  0  0  0  0  0  0  0  0  0  0
  188.7590  175.5410  144.3970 C   0  0  0  0  0  2  0  0  0  0  0  0
  193.3780  175.7940  146.4810 C   0  0  0  0  0  2  0  0  0  0  0  0
  189.9770  176.2300  143.9520 N   0  0  0  0  0  0  0  0  0  0  0  0
  192.3160  175.0620  147.2590 C   0  0  0  0  0  3  0  0  0  0  0  0
  187.7470  176.5190  144.9920 C   0  0  0  0  0  2  0  0  0  0  0  0
  187.6130  176.3810  146.5170 C   0  0  2  0  0  3  0  0  0  0  0  0
  195.4070  174.9910  144.8680 C   0  0  0  0  0  3  0  0  0  0  0  0
  196.5630  174.6840  142.7640 C   0  0  0  0  0  3  0  0  0  0  0  0
  194.2710  175.4380  144.1870 C   0  0  0  0  0  0  0  0  0  0  0  0
  195.4490  175.2240  140.5940 C   0  0  0  0  0  1  0  0  0  0  0  0
  195.4350  175.1430  142.0770 C   0  0  0  0  0  0  0  0  0  0  0  0
  197.7490  174.1240  144.8910 C   0  0  0  0  0  1  0  0  0  0  0  0
  194.2920  175.5220  142.7860 C   0  0  0  0  0  3  0  0  0  0  0  0
  196.5480  174.6080  144.1590 C   0  0  0  0  0  0  0  0  0  0  0  0
  185.7760  179.3530  147.6370 O   0  0  0  0  0  0  0  0  0  0  0  0
  185.9660  178.2200  147.1250 C   0  0  0  0  0  0  0  0  0  0  0  0
  187.2890  177.6770  147.0960 N   0  0  0  0  0  2  0  0  0  0  0  0
  184.8120  177.4920  146.5150 C   0  0  0  0  0  2  0  0  0  0  0  0
  183.3600  179.0680  145.4670 O   0  0  0  0  0  0  0  0  0  0  0  0
  184.2940  178.2360  145.3320 C   0  0  0  0  0  0  0  0  0  0  0  0
  184.8670  178.0140  144.0480 N   0  0  0  0  0  1  0  0  0  0  0  0
  190.3060  176.1040  142.5380 C   0  0  0  0  0  2  0  0  0  0  0  0
  189.3470  175.1530  141.8440 C   0  0  0  0  0  2  0  0  0  0  0  0
  190.0900  174.0980  141.1790 N   0  0  0  0  0  2  0  0  0  0  0  0
  189.9550  172.9070  142.0000 C   0  0  0  0  0  2  0  0  0  0  0  0
  191.2960  172.5580  142.6280 C   0  0  0  0  0  2  0  0  0  0  0  0
  191.2770  172.8450  144.0550 N   0  0  0  0  0  2  0  0  0  0  0  0
  192.4510  172.2150  144.6420 C   0  0  0  0  0  2  0  0  0  0  0  0
  193.4950  171.9670  143.5700 C   0  0  0  0  0  2  0  0  0  0  0  0
  194.7280  171.3230  144.1770 C   0  0  0  0  0  2  0  0  0  0  0  0
  194.7120  171.5200  145.6780 C   0  0  0  0  0  1  0  0  0  0  0  0
  1 11  2  0  0  0  0
  2 16  1  6  0  0  0
  2  9  1  0  0  0  0
  3  6  1  0  0  0  0
  4  3  1  1  0  0  0
  6  5  1  0  0  0  0
  6  1  2  0  0  0  0
  7  4  1  0  0  0  0
  7  2  1  0  0  0  0
  8 12  1  0  0  0  0
  9 11  1  0  0  0  0
 10  8  1  0  0  0  0
 10  4  1  0  0  0  0
 12 13  1  0  0  0  0
 13 24  1  1  0  0  0
 13  5  1  0  0  0  0
 15 21  1  0  0  0  0
 16 14  1  0  0  0  0
 17 18  1  0  0  0  0
 18 15  2  0  0  0  0
 18 20  1  0  0  0  0
 20 16  2  0  0  0  0
 21 14  2  0  0  0  0
 21 19  1  0  0  0  0
 23 22  2  0  0  0  0
 24 23  1  0  0  0  0
 25 23  1  0  0  0  0
 27 26  2  0  0  0  0
 27 25  1  0  0  0  0
 28 27  1  0  0  0  0
 29 10  1  0  0  0  0
 30 29  1  0  0  0  0
 31 30  1  0  0  0  0
 31 32  1  0  0  0  0
 32 33  1  0  0  0  0
 33 34  1  0  0  0  0
 34 35  1  0  0  0  0
 36 37  1  0  0  0  0
 36 35  1  0  0  0  0
 37 38  1  0  0  0  0
M  END
>  <MODEL>
3

>  <REMARK>
 VINA RESULT:      -6.1      1.776      2.572
  Name = 
  13 active torsions:
  status: ('A' for Active; 'I' for Inactive)
    1  A    between atoms: N_2  and  C_3
    2  A    between atoms: N_2  and  C_15
    3  A    between atoms: C_3  and  C_8
    4  A    between atoms: C_5  and  C_9
    5  A    between atoms: C_8  and  N_33
    6  A    between atoms: C_15  and  C_30
    7  A    between atoms: C_16  and  C_27
    8  A    between atoms: C_19  and  C_27
    9  A    between atoms: C_20  and  C_30
   10  A    between atoms: N_24  and  C_29
   11  A    between atoms: C_29  and  C_37
   12  A    between atoms: C_31  and  N_38
   13  A    between atoms: N_33  and  C_37
                            x       y       z     vdW  Elec       q    Type
                         _______ _______ _______ _____ _____    ______ ____

>  <TORSDO>
F 13

$$$$
=
 OpenBabel11042417103D

 38 40  0  0  1  0  0  0  0  0999 V2000
  190.5120  176.5700  146.0150 C   0  0  0  0  0  0  0  0  0  0  0  0
  192.8090  175.5740  144.3830 C   0  0  2  0  0  3  0  0  0  0  0  0
  190.1520  177.4070  143.9180 C   0  0  0  0  0  2  0  0  0  0  0  0
  190.6490  176.4940  143.0810 C   0  0  1  0  0  3  0  0  0  0  0  0
  188.2360  176.7010  145.3960 O   0  0  0  0  0  0  0  0  0  0  0  0
  189.5940  176.9590  145.1850 C   0  0  0  0  0  0  0  0  0  0  0  0
  192.4370  176.5950  142.8820 S   0  0  0  0  0  0  0  0  0  0  0  0
  188.6340  174.9080  143.3230 C   0  0  0  0  0  2  0  0  0  0  0  0
  192.8700  176.3830  145.6960 C   0  0  0  0  0  2  0  0  0  0  0  0
  189.9620  175.2470  142.7970 N   0  0  0  0  0  0  0  0  0  0  0  0
  191.6390  176.2000  146.5440 C   0  0  0  0  0  3  0  0  0  0  0  0
  187.6290  176.0310  143.0760 C   0  0  0  0  0  2  0  0  0  0  0  0
  187.2440  176.7790  144.3630 C   0  0  2  0  0  3  0  0  0  0  0  0
  194.9160  174.5980  145.3000 C   0  0  0  0  0  3  0  0  0  0  0  0
  196.4910  173.4140  143.8960 C   0  0  0  0  0  3  0  0  0  0  0  0
  194.0800  174.8070  144.1990 C   0  0  0  0  0  0  0  0  0  0  0  0
  196.0650  173.1170  141.4520 C   0  0  0  0  0  1  0  0  0  0  0  0
  195.6670  173.6310  142.7880 C   0  0  0  0  0  0  0  0  0  0  0  0
  196.9940  173.6720  146.3290 C   0  0  0  0  0  1  0  0  0  0  0  0
  194.4650  174.3280  142.9370 C   0  0  0  0  0  3  0  0  0  0  0  0
  196.1160  173.8980  145.1520 C   0  0  0  0  0  0  0  0  0  0  0  0
  185.7190  180.1160  144.3560 O   0  0  0  0  0  0  0  0  0  0  0  0
  185.9160  178.9210  144.6960 C   0  0  0  0  0  0  0  0  0  0  0  0
  186.9460  178.1690  144.0480 N   0  0  0  0  0  2  0  0  0  0  0  0
  185.0360  178.3030  145.7340 C   0  0  0  0  0  2  0  0  0  0  0  0
  185.8430  179.6080  147.5610 O   0  0  0  0  0  0  0  0  0  0  0  0
  185.6380  178.4600  147.0880 C   0  0  0  0  0  0  0  0  0  0  0  0
  185.9710  177.3070  147.8540 N   0  0  0  0  0  1  0  0  0  0  0  0
  190.4980  174.3480  141.7820 C   0  0  0  0  0  2  0  0  0  0  0  0
  189.6050  173.1310  141.6130 C   0  0  0  0  0  2  0  0  0  0  0  0
  189.8340  172.5250  140.3140 N   0  0  0  0  0  2  0  0  0  0  0  0
  190.9410  171.5980  140.4730 C   0  0  0  0  0  2  0  0  0  0  0  0
  190.6460  170.6300  141.6100 C   0  0  0  0  0  2  0  0  0  0  0  0
  191.8710  169.9830  142.0540 N   0  0  0  0  0  2  0  0  0  0  0  0
  192.7400  171.0170  142.5970 C   0  0  0  0  0  2  0  0  0  0  0  0
  192.4590  171.2050  144.0750 C   0  0  0  0  0  2  0  0  0  0  0  0
  193.7470  171.1140  144.8710 C   0  0  0  0  0  2  0  0  0  0  0  0
  194.7060  170.1730  144.1720 C   0  0  0  0  0  1  0  0  0  0  0  0
  1 11  2  0  0  0  0
  2 16  1  6  0  0  0
  2  9  1  0  0  0  0
  3  6  1  0  0  0  0
  4  3  1  1  0  0  0
  6  5  1  0  0  0  0
  6  1  2  0  0  0  0
  7  4  1  0  0  0  0
  7  2  1  0  0  0  0
  9 11  1  0  0  0  0
 10  4  1  0  0  0  0
 10  8  1  0  0  0  0
 12  8  1  0  0  0  0
 12 13  1  0  0  0  0
 13 24  1  6  0  0  0
 13  5  1  0  0  0  0
 15 21  2  0  0  0  0
 16 14  2  0  0  0  0
 17 18  1  0  0  0  0
 18 20  2  0  0  0  0
 18 15  1  0  0  0  0
 20 16  1  0  0  0  0
 21 14  1  0  0  0  0
 21 19  1  0  0  0  0
 22 23  2  0  0  0  0
 23 25  1  0  0  0  0
 24 23  1  0  0  0  0
 25 27  1  0  0  0  0
 27 26  2  0  0  0  0
 27 28  1  0  0  0  0
 29 10  1  0  0  0  0
 30 29  1  0  0  0  0
 31 32  1  0  0  0  0
 31 30  1  0  0  0  0
 32 33  1  0  0  0  0
 33 34  1  0  0  0  0
 34 35  1  0  0  0  0
 35 36  1  0  0  0  0
 36 37  1  0  0  0  0
 38 37  1  0  0  0  0
M  END
>  <MODEL>
4

>  <REMARK>
 VINA RESULT:      -6.0      1.442      2.442
  Name = 
  13 active torsions:
  status: ('A' for Active; 'I' for Inactive)
    1  A    between atoms: N_2  and  C_3
    2  A    between atoms: N_2  and  C_15
    3  A    between atoms: C_3  and  C_8
    4  A    between atoms: C_5  and  C_9
    5  A    between atoms: C_8  and  N_33
    6  A    between atoms: C_15  and  C_30
    7  A    between atoms: C_16  and  C_27
    8  A    between atoms: C_19  and  C_27
    9  A    between atoms: C_20  and  C_30
   10  A    between atoms: N_24  and  C_29
   11  A    between atoms: C_29  and  C_37
   12  A    between atoms: C_31  and  N_38
   13  A    between atoms: N_33  and  C_37
                            x       y       z     vdW  Elec       q    Type
                         _______ _______ _______ _____ _____    ______ ____

>  <TORSDO>
F 13

$$$$
=
 OpenBabel11042417103D

 38 40  0  0  1  0  0  0  0  0999 V2000
  190.4930  176.4730  146.5740 C   0  0  0  0  0  0  0  0  0  0  0  0
  192.8370  175.7050  144.8870 C   0  0  2  0  0  3  0  0  0  0  0  0
  190.1980  177.6020  144.6080 C   0  0  0  0  0  2  0  0  0  0  0  0
  190.7190  176.8140  143.6650 C   0  0  1  0  0  3  0  0  0  0  0  0
  188.2370  176.7040  145.9120 O   0  0  0  0  0  0  0  0  0  0  0  0
  189.6010  176.9810  145.7810 C   0  0  0  0  0  0  0  0  0  0  0  0
  192.5120  176.9320  143.5360 S   0  0  0  0  0  0  0  0  0  0  0  0
  188.6950  175.2220  143.6180 C   0  0  0  0  0  2  0  0  0  0  0  0
  192.8590  176.3190  146.3020 C   0  0  0  0  0  2  0  0  0  0  0  0
  190.0390  175.6240  143.1850 N   0  0  0  0  0  0  0  0  0  0  0  0
  191.6020  176.0250  147.0790 C   0  0  0  0  0  3  0  0  0  0  0  0
  187.7000  176.3750  143.5030 C   0  0  0  0  0  2  0  0  0  0  0  0
  187.2770  176.9340  144.8720 C   0  0  2  0  0  3  0  0  0  0  0  0
  194.4190  174.5630  143.3300 C   0  0  0  0  0  3  0  0  0  0  0  0
  196.4670  173.5390  144.1160 C   0  0  0  0  0  3  0  0  0  0  0  0
  194.1120  174.9650  144.6330 C   0  0  0  0  0  0  0  0  0  0  0  0
  197.0830  173.5890  146.5360 C   0  0  0  0  0  1  0  0  0  0  0  0
  196.1590  173.9260  145.4230 C   0  0  0  0  0  0  0  0  0  0  0  0
  195.9200  173.4410  141.6800 C   0  0  0  0  0  1  0  0  0  0  0  0
  194.9830  174.6350  145.6830 C   0  0  0  0  0  3  0  0  0  0  0  0
  195.5960  173.8570  143.0700 C   0  0  0  0  0  0  0  0  0  0  0  0
  185.5700  180.1170  144.2270 O   0  0  0  0  0  0  0  0  0  0  0  0
  185.7300  178.8720  144.3140 C   0  0  0  0  0  0  0  0  0  0  0  0
  186.9910  178.3560  144.7490 N   0  0  0  0  0  2  0  0  0  0  0  0
  184.6130  177.9640  143.9120 C   0  0  0  0  0  2  0  0  0  0  0  0
  185.2730  178.0550  141.6210 O   0  0  0  0  0  0  0  0  0  0  0  0
  184.3310  178.0980  142.4540 C   0  0  0  0  0  0  0  0  0  0  0  0
  182.9910  178.2630  142.0040 N   0  0  0  0  0  1  0  0  0  0  0  0
  190.6040  174.8760  142.0690 C   0  0  0  0  0  2  0  0  0  0  0  0
  190.9870  173.4710  142.5000 C   0  0  0  0  0  2  0  0  0  0  0  0
  190.8740  172.5600  141.3760 N   0  0  0  0  0  2  0  0  0  0  0  0
  190.6360  171.2380  141.9300 C   0  0  0  0  0  2  0  0  0  0  0  0
  191.5030  171.0300  143.1620 C   0  0  0  0  0  2  0  0  0  0  0  0
  192.5650  170.0760  142.8790 N   0  0  0  0  0  2  0  0  0  0  0  0
  193.8110  170.6540  143.3600 C   0  0  0  0  0  2  0  0  0  0  0  0
  193.6940  170.9810  144.8360 C   0  0  0  0  0  2  0  0  0  0  0  0
  194.9540  170.5610  145.5700 C   0  0  0  0  0  2  0  0  0  0  0  0
  194.6670  169.3260  146.3970 C   0  0  0  0  0  1  0  0  0  0  0  0
  1 11  2  0  0  0  0
  2 16  1  6  0  0  0
  2  9  1  0  0  0  0
  3  6  1  0  0  0  0
  4  3  1  1  0  0  0
  6  5  1  0  0  0  0
  6  1  2  0  0  0  0
  7  4  1  0  0  0  0
  7  2  1  0  0  0  0
  9 11  1  0  0  0  0
 10  8  1  0  0  0  0
 10  4  1  0  0  0  0
 12  8  1  0  0  0  0
 12 13  1  0  0  0  0
 13 24  1  6  0  0  0
 13  5  1  0  0  0  0
 14 16  1  0  0  0  0
 15 18  2  0  0  0  0
 16 20  2  0  0  0  0
 18 20  1  0  0  0  0
 18 17  1  0  0  0  0
 19 21  1  0  0  0  0
 21 14  2  0  0  0  0
 21 15  1  0  0  0  0
 22 23  2  0  0  0  0
 23 24  1  0  0  0  0
 25 23  1  0  0  0  0
 26 27  2  0  0  0  0
 27 25  1  0  0  0  0
 28 27  1  0  0  0  0
 29 30  1  0  0  0  0
 29 10  1  0  0  0  0
 31 32  1  0  0  0  0
 31 30  1  0  0  0  0
 32 33  1  0  0  0  0
 34 33  1  0  0  0  0
 34 35  1  0  0  0  0
 35 36  1  0  0  0  0
 36 37  1  0  0  0  0
 37 38  1  0  0  0  0
M  END
>  <MODEL>
5

>  <REMARK>
 VINA RESULT:      -6.0      1.054      2.049
  Name = 
  13 active torsions:
  status: ('A' for Active; 'I' for Inactive)
    1  A    between atoms: N_2  and  C_3
    2  A    between atoms: N_2  and  C_15
    3  A    between atoms: C_3  and  C_8
    4  A    between atoms: C_5  and  C_9
    5  A    between atoms: C_8  and  N_33
    6  A    between atoms: C_15  and  C_30
    7  A    between atoms: C_16  and  C_27
    8  A    between atoms: C_19  and  C_27
    9  A    between atoms: C_20  and  C_30
   10  A    between atoms: N_24  and  C_29
   11  A    between atoms: C_29  and  C_37
   12  A    between atoms: C_31  and  N_38
   13  A    between atoms: N_33  and  C_37
                            x       y       z     vdW  Elec       q    Type
                         _______ _______ _______ _____ _____    ______ ____

>  <TORSDO>
F 13

$$$$
=
 OpenBabel11042417103D

 38 40  0  0  1  0  0  0  0  0999 V2000
  190.6170  176.5720  146.1820 C   0  0  0  0  0  0  0  0  0  0  0  0
  192.9780  175.6630  144.5910 C   0  0  2  0  0  3  0  0  0  0  0  0
  190.2850  177.4330  144.0910 C   0  0  0  0  0  2  0  0  0  0  0  0
  190.8260  176.5480  143.2520 C   0  0  1  0  0  3  0  0  0  0  0  0
  188.3530  176.6530  145.5100 O   0  0  0  0  0  0  0  0  0  0  0  0
  189.7080  176.9500  145.3360 C   0  0  0  0  0  0  0  0  0  0  0  0
  192.6140  176.6990  143.0980 S   0  0  0  0  0  0  0  0  0  0  0  0
  188.8480  174.9060  143.4190 C   0  0  0  0  0  2  0  0  0  0  0  0
  192.9850  176.4520  145.9170 C   0  0  0  0  0  2  0  0  0  0  0  0
  190.1800  175.2880  142.9300 N   0  0  0  0  0  0  0  0  0  0  0  0
  191.7400  176.2230  146.7330 C   0  0  0  0  0  3  0  0  0  0  0  0
  187.8200  176.0060  143.1660 C   0  0  0  0  0  2  0  0  0  0  0  0
  187.3840  176.7220  144.4540 C   0  0  2  0  0  3  0  0  0  0  0  0
  194.6350  174.4660  143.1590 C   0  0  0  0  0  3  0  0  0  0  0  0
  196.6670  173.5230  144.0740 C   0  0  0  0  0  3  0  0  0  0  0  0
  194.2730  174.9330  144.4260 C   0  0  0  0  0  0  0  0  0  0  0  0
  197.1910  173.7150  146.5090 C   0  0  0  0  0  1  0  0  0  0  0  0
  196.3040  173.9750  145.3460 C   0  0  0  0  0  0  0  0  0  0  0  0
  196.2150  173.2830  141.6290 C   0  0  0  0  0  1  0  0  0  0  0  0
  195.1090  174.6760  145.5230 C   0  0  0  0  0  3  0  0  0  0  0  0
  195.8320  173.7680  142.9810 C   0  0  0  0  0  0  0  0  0  0  0  0
  185.7740  180.0190  144.4660 O   0  0  0  0  0  0  0  0  0  0  0  0
  185.9950  178.8240  144.7920 C   0  0  0  0  0  0  0  0  0  0  0  0
  187.0570  178.1090  144.1540 N   0  0  0  0  0  2  0  0  0  0  0  0
  185.1090  178.1670  145.8010 C   0  0  0  0  0  2  0  0  0  0  0  0
  185.8730  179.4880  147.6350 O   0  0  0  0  0  0  0  0  0  0  0  0
  185.6680  178.3360  147.1720 C   0  0  0  0  0  0  0  0  0  0  0  0
  185.9580  177.1900  147.9650 N   0  0  0  0  0  1  0  0  0  0  0  0
  190.7630  174.4210  141.9150 C   0  0  0  0  0  2  0  0  0  0  0  0
  190.4320  172.9650  142.1930 C   0  0  0  0  0  2  0  0  0  0  0  0
  191.6520  172.2160  142.4350 N   0  0  0  0  0  2  0  0  0  0  0  0
  191.5550  171.6800  143.7810 C   0  0  0  0  0  2  0  0  0  0  0  0
  192.7460  170.7770  144.0640 C   0  0  0  0  0  2  0  0  0  0  0  0
  193.6490  171.4120  145.0120 N   0  0  0  0  0  2  0  0  0  0  0  0
  194.8390  170.5790  145.1070 C   0  0  0  0  0  2  0  0  0  0  0  0
  194.9570  170.0030  146.5050 C   0  0  0  0  0  2  0  0  0  0  0  0
  196.3840  169.5620  146.7730 C   0  0  0  0  0  2  0  0  0  0  0  0
  197.2880  170.0880  145.6780 C   0  0  0  0  0  1  0  0  0  0  0  0
  1 11  2  0  0  0  0
  2 16  1  6  0  0  0
  2  9  1  0  0  0  0
  3  6  1  0  0  0  0
  4  3  1  1  0  0  0
  6  5  1  0  0  0  0
  6  1  2  0  0  0  0
  7  4  1  0  0  0  0
  7  2  1  0  0  0  0
  9 11  1  0  0  0  0
 10  4  1  0  0  0  0
 10  8  1  0  0  0  0
 12  8  1  0  0  0  0
 12 13  1  0  0  0  0
 13 24  1  6  0  0  0
 13  5  1  0  0  0  0
 14 16  1  0  0  0  0
 15 18  2  0  0  0  0
 16 20  2  0  0  0  0
 18 20  1  0  0  0  0
 18 17  1  0  0  0  0
 19 21  1  0  0  0  0
 21 14  2  0  0  0  0
 21 15  1  0  0  0  0
 22 23  2  0  0  0  0
 23 25  1  0  0  0  0
 24 23  1  0  0  0  0
 25 27  1  0  0  0  0
 27 26  2  0  0  0  0
 27 28  1  0  0  0  0
 29 30  1  0  0  0  0
 29 10  1  0  0  0  0
 30 31  1  0  0  0  0
 31 32  1  0  0  0  0
 32 33  1  0  0  0  0
 33 34  1  0  0  0  0
 34 35  1  0  0  0  0
 35 36  1  0  0  0  0
 36 37  1  0  0  0  0
 38 37  1  0  0  0  0
M  END
>  <MODEL>
6

>  <REMARK>
 VINA RESULT:      -5.9      1.668      3.027
  Name = 
  13 active torsions:
  status: ('A' for Active; 'I' for Inactive)
    1  A    between atoms: N_2  and  C_3
    2  A    between atoms: N_2  and  C_15
    3  A    between atoms: C_3  and  C_8
    4  A    between atoms: C_5  and  C_9
    5  A    between atoms: C_8  and  N_33
    6  A    between atoms: C_15  and  C_30
    7  A    between atoms: C_16  and  C_27
    8  A    between atoms: C_19  and  C_27
    9  A    between atoms: C_20  and  C_30
   10  A    between atoms: N_24  and  C_29
   11  A    between atoms: C_29  and  C_37
   12  A    between atoms: C_31  and  N_38
   13  A    between atoms: N_33  and  C_37
                            x       y       z     vdW  Elec       q    Type
                         _______ _______ _______ _____ _____    ______ ____

>  <TORSDO>
F 13

$$$$
=
 OpenBabel11042417103D

 38 40  0  0  1  0  0  0  0  0999 V2000
  192.4520  177.1970  144.1680 C   0  0  0  0  0  0  0  0  0  0  0  0
  189.5590  176.8010  144.8040 C   0  0  2  0  0  3  0  0  0  0  0  0
  192.4270  175.6880  145.8850 C   0  0  0  0  0  2  0  0  0  0  0  0
  191.3070  174.9810  145.7210 C   0  0  1  0  0  3  0  0  0  0  0  0
  194.1530  175.5620  144.0530 O   0  0  0  0  0  0  0  0  0  0  0  0
  193.1000  176.2100  144.7060 C   0  0  0  0  0  0  0  0  0  0  0  0
  189.8340  175.8090  146.3450 S   0  0  0  0  0  0  0  0  0  0  0  0
  192.2770  173.5380  143.8210 C   0  0  0  0  0  2  0  0  0  0  0  0
  190.3380  178.1320  144.7640 C   0  0  0  0  0  2  0  0  0  0  0  0
  191.1780  173.9560  144.7020 N   0  0  0  0  0  0  0  0  0  0  0  0
  191.5410  178.0690  143.8590 C   0  0  0  0  0  3  0  0  0  0  0  0
  193.5410  173.2150  144.6150 C   0  0  0  0  0  2  0  0  0  0  0  0
  194.6450  174.2690  144.4310 C   0  0  2  0  0  3  0  0  0  0  0  0
  187.6630  177.5340  143.3530 C   0  0  0  0  0  3  0  0  0  0  0  0
  185.3850  177.5980  144.1670 C   0  0  0  0  0  3  0  0  0  0  0  0
  188.1000  177.0590  144.5940 C   0  0  0  0  0  0  0  0  0  0  0  0
  184.8360  176.9250  146.5090 C   0  0  0  0  0  1  0  0  0  0  0  0
  185.8170  177.1370  145.4140 C   0  0  0  0  0  0  0  0  0  0  0  0
  185.8510  178.2920  141.8130 C   0  0  0  0  0  1  0  0  0  0  0  0
  187.1720  176.8700  145.6290 C   0  0  0  0  0  3  0  0  0  0  0  0
  186.3090  177.7970  143.1370 C   0  0  0  0  0  0  0  0  0  0  0  0
  197.2860  173.7910  146.9330 O   0  0  0  0  0  0  0  0  0  0  0  0
  196.6690  173.6610  145.8440 C   0  0  0  0  0  0  0  0  0  0  0  0
  195.4380  174.3620  145.6490 N   0  0  0  0  0  2  0  0  0  0  0  0
  197.2140  172.7380  144.8020 C   0  0  0  0  0  2  0  0  0  0  0  0
  196.1350  171.0560  146.1050 O   0  0  0  0  0  0  0  0  0  0  0  0
  196.9180  171.3210  145.1560 C   0  0  0  0  0  0  0  0  0  0  0  0
  197.5120  170.2650  144.4100 N   0  0  0  0  0  1  0  0  0  0  0  0
  189.9730  173.1380  144.6540 C   0  0  0  0  0  2  0  0  0  0  0  0
  190.2740  171.7660  144.0780 C   0  0  0  0  0  2  0  0  0  0  0  0
  189.5570  171.5840  142.8290 N   0  0  0  0  0  2  0  0  0  0  0  0
  190.4410  170.8490  141.9410 C   0  0  0  0  0  2  0  0  0  0  0  0
  191.0150  171.7880  140.8900 C   0  0  0  0  0  2  0  0  0  0  0  0
  190.1710  171.7980  139.7050 N   0  0  0  0  0  2  0  0  0  0  0  0
  189.9050  173.1890  139.3690 C   0  0  0  0  0  2  0  0  0  0  0  0
  188.5160  173.5780  139.8370 C   0  0  0  0  0  2  0  0  0  0  0  0
  188.6020  174.6590  140.8980 C   0  0  0  0  0  2  0  0  0  0  0  0
  187.6320  174.3450  142.0170 C   0  0  0  0  0  1  0  0  0  0  0  0
  1  6  2  0  0  0  0
  2 16  1  1  0  0  0
  2  7  1  0  0  0  0
  4  3  1  6  0  0  0
  4  7  1  0  0  0  0
  5 13  1  0  0  0  0
  5  6  1  0  0  0  0
  6  3  1  0  0  0  0
  8 12  1  0  0  0  0
  8 10  1  0  0  0  0
  9  2  1  0  0  0  0
 10  4  1  0  0  0  0
 11  1  2  0  0  0  0
 11  9  1  0  0  0  0
 13 12  1  0  0  0  0
 13 24  1  1  0  0  0
 14 16  1  0  0  0  0
 15 18  2  0  0  0  0
 16 20  2  0  0  0  0
 18 20  1  0  0  0  0
 18 17  1  0  0  0  0
 19 21  1  0  0  0  0
 21 14  2  0  0  0  0
 21 15  1  0  0  0  0
 23 22  2  0  0  0  0
 24 23  1  0  0  0  0
 25 27  1  0  0  0  0
 25 23  1  0  0  0  0
 27 26  2  0  0  0  0
 28 27  1  0  0  0  0
 29 10  1  0  0  0  0
 30 29  1  0  0  0  0
 31 30  1  0  0  0  0
 32 31  1  0  0  0  0
 33 32  1  0  0  0  0
 34 33  1  0  0  0  0
 35 34  1  0  0  0  0
 35 36  1  0  0  0  0
 36 37  1  0  0  0  0
 37 38  1  0  0  0  0
M  END
>  <MODEL>
7

>  <REMARK>
 VINA RESULT:      -5.8      3.524      8.345
  Name = 
  13 active torsions:
  status: ('A' for Active; 'I' for Inactive)
    1  A    between atoms: N_2  and  C_3
    2  A    between atoms: N_2  and  C_15
    3  A    between atoms: C_3  and  C_8
    4  A    between atoms: C_5  and  C_9
    5  A    between atoms: C_8  and  N_33
    6  A    between atoms: C_15  and  C_30
    7  A    between atoms: C_16  and  C_27
    8  A    between atoms: C_19  and  C_27
    9  A    between atoms: C_20  and  C_30
   10  A    between atoms: N_24  and  C_29
   11  A    between atoms: C_29  and  C_37
   12  A    between atoms: C_31  and  N_38
   13  A    between atoms: N_33  and  C_37
                            x       y       z     vdW  Elec       q    Type
                         _______ _______ _______ _____ _____    ______ ____

>  <TORSDO>
F 13

$$$$
=
 OpenBabel11042417103D

 38 40  0  0  1  0  0  0  0  0999 V2000
  192.3990  177.0790  143.9610 C   0  0  0  0  0  0  0  0  0  0  0  0
  189.5050  176.8600  144.6700 C   0  0  2  0  0  3  0  0  0  0  0  0
  192.3440  175.7200  145.7980 C   0  0  0  0  0  2  0  0  0  0  0  0
  191.1930  175.0510  145.7100 C   0  0  1  0  0  3  0  0  0  0  0  0
  194.0300  175.3700  143.9570 O   0  0  0  0  0  0  0  0  0  0  0  0
  193.0160  176.1130  144.5690 C   0  0  0  0  0  0  0  0  0  0  0  0
  189.7670  175.9890  146.2850 S   0  0  0  0  0  0  0  0  0  0  0  0
  192.0690  173.4150  143.9230 C   0  0  0  0  0  2  0  0  0  0  0  0
  190.3370  178.1490  144.5070 C   0  0  0  0  0  2  0  0  0  0  0  0
  191.0050  173.9500  144.7820 N   0  0  0  0  0  0  0  0  0  0  0  0
  191.5200  177.9610  143.5930 C   0  0  0  0  0  3  0  0  0  0  0  0
  193.3330  173.1060  144.7230 C   0  0  0  0  0  2  0  0  0  0  0  0
  194.4760  174.0930  144.4350 C   0  0  2  0  0  3  0  0  0  0  0  0
  187.1690  177.0300  145.5360 C   0  0  0  0  0  3  0  0  0  0  0  0
  185.3230  177.6720  144.1090 C   0  0  0  0  0  3  0  0  0  0  0  0
  188.0550  177.1610  144.4610 C   0  0  0  0  0  0  0  0  0  0  0  0
  185.6860  178.1960  141.6930 C   0  0  0  0  0  1  0  0  0  0  0  0
  186.2000  177.7910  143.0260 C   0  0  0  0  0  0  0  0  0  0  0  0
  184.8750  177.1600  146.5130 C   0  0  0  0  0  1  0  0  0  0  0  0
  187.5630  177.5340  143.2010 C   0  0  0  0  0  3  0  0  0  0  0  0
  185.8080  177.2910  145.3630 C   0  0  0  0  0  0  0  0  0  0  0  0
  197.1900  173.7880  146.8850 O   0  0  0  0  0  0  0  0  0  0  0  0
  196.5530  173.6010  145.8160 C   0  0  0  0  0  0  0  0  0  0  0  0
  195.2930  174.2530  145.6290 N   0  0  0  0  0  2  0  0  0  0  0  0
  197.1040  172.6620  144.7920 C   0  0  0  0  0  2  0  0  0  0  0  0
  197.1410  170.6920  146.1360 O   0  0  0  0  0  0  0  0  0  0  0  0
  196.7040  171.2600  145.1020 C   0  0  0  0  0  0  0  0  0  0  0  0
  195.8160  170.5670  144.2330 N   0  0  0  0  0  1  0  0  0  0  0  0
  189.7660  173.1830  144.8210 C   0  0  0  0  0  2  0  0  0  0  0  0
  189.3310  172.7890  143.4210 C   0  0  0  0  0  2  0  0  0  0  0  0
  188.5940  173.8790  142.8060 N   0  0  0  0  0  2  0  0  0  0  0  0
  188.8360  173.7940  141.3760 C   0  0  0  0  0  2  0  0  0  0  0  0
  189.6630  172.5560  141.0640 C   0  0  0  0  0  2  0  0  0  0  0  0
  189.5340  172.2020  139.6580 N   0  0  0  0  0  2  0  0  0  0  0  0
  188.3280  172.8440  139.1560 C   0  0  0  0  0  2  0  0  0  0  0  0
  188.5660  173.3650  137.7520 C   0  0  0  0  0  2  0  0  0  0  0  0
  189.8140  172.7360  137.1620 C   0  0  0  0  0  2  0  0  0  0  0  0
  189.4240  171.8130  136.0260 C   0  0  0  0  0  1  0  0  0  0  0  0
  1  6  2  0  0  0  0
  2 16  1  1  0  0  0
  2  7  1  0  0  0  0
  4  3  1  6  0  0  0
  4  7  1  0  0  0  0
  5 13  1  0  0  0  0
  5  6  1  0  0  0  0
  6  3  1  0  0  0  0
  8 12  1  0  0  0  0
  8 10  1  0  0  0  0
  9  2  1  0  0  0  0
 10 29  1  0  0  0  0
 10  4  1  0  0  0  0
 11  1  2  0  0  0  0
 11  9  1  0  0  0  0
 13 12  1  0  0  0  0
 13 24  1  1  0  0  0
 15 21  2  0  0  0  0
 16 14  2  0  0  0  0
 17 18  1  0  0  0  0
 18 20  2  0  0  0  0
 18 15  1  0  0  0  0
 20 16  1  0  0  0  0
 21 14  1  0  0  0  0
 21 19  1  0  0  0  0
 23 22  2  0  0  0  0
 24 23  1  0  0  0  0
 25 27  1  0  0  0  0
 25 23  1  0  0  0  0
 27 26  2  0  0  0  0
 28 27  1  0  0  0  0
 30 29  1  0  0  0  0
 31 30  1  0  0  0  0
 32 31  1  0  0  0  0
 33 32  1  0  0  0  0
 34 33  1  0  0  0  0
 35 34  1  0  0  0  0
 36 35  1  0  0  0  0
 37 36  1  0  0  0  0
 38 37  1  0  0  0  0
M  END
>  <MODEL>
8

>  <REMARK>
 VINA RESULT:      -5.6      3.432      8.294
  Name = 
  13 active torsions:
  status: ('A' for Active; 'I' for Inactive)
    1  A    between atoms: N_2  and  C_3
    2  A    between atoms: N_2  and  C_15
    3  A    between atoms: C_3  and  C_8
    4  A    between atoms: C_5  and  C_9
    5  A    between atoms: C_8  and  N_33
    6  A    between atoms: C_15  and  C_30
    7  A    between atoms: C_16  and  C_27
    8  A    between atoms: C_19  and  C_27
    9  A    between atoms: C_20  and  C_30
   10  A    between atoms: N_24  and  C_29
   11  A    between atoms: C_29  and  C_37
   12  A    between atoms: C_31  and  N_38
   13  A    between atoms: N_33  and  C_37
                            x       y       z     vdW  Elec       q    Type
                         _______ _______ _______ _____ _____    ______ ____

>  <TORSDO>
F 13

$$$$
=
 OpenBabel11042417103D

 38 40  0  0  1  0  0  0  0  0999 V2000
  189.7150  174.0250  143.5740 C   0  0  0  0  0  0  0  0  0  0  0  0
  192.3000  173.4160  144.9450 C   0  0  2  0  0  3  0  0  0  0  0  0
  189.8240  175.5070  145.3110 C   0  0  0  0  0  2  0  0  0  0  0  0
  191.1220  175.7700  145.4720 C   0  0  1  0  0  3  0  0  0  0  0  0
  188.7790  176.1430  143.1070 O   0  0  0  0  0  0  0  0  0  0  0  0
  189.3370  175.1990  143.9750 C   0  0  0  0  0  0  0  0  0  0  0  0
  192.0030  174.5100  146.4110 S   0  0  0  0  0  0  0  0  0  0  0  0
  191.2350  177.3730  143.4590 C   0  0  0  0  0  2  0  0  0  0  0  0
  191.1430  172.4400  144.6430 C   0  0  0  0  0  2  0  0  0  0  0  0
  191.8560  176.6390  144.5700 N   0  0  0  0  0  0  0  0  0  0  0  0
  190.3110  172.8760  143.4660 C   0  0  0  0  0  3  0  0  0  0  0  0
  190.0050  178.1520  143.9190 C   0  0  0  0  0  2  0  0  0  0  0  0
  188.6890  177.5430  143.4090 C   0  0  2  0  0  3  0  0  0  0  0  0
  194.7550  173.3540  145.3930 C   0  0  0  0  0  3  0  0  0  0  0  0
  196.0070  171.2830  145.3630 C   0  0  0  0  0  3  0  0  0  0  0  0
  193.5790  172.6560  145.1020 C   0  0  0  0  0  0  0  0  0  0  0  0
  194.8790  169.1060  144.8810 C   0  0  0  0  0  1  0  0  0  0  0  0
  194.8370  170.5800  145.0580 C   0  0  0  0  0  0  0  0  0  0  0  0
  197.2090  173.4180  145.8490 C   0  0  0  0  0  1  0  0  0  0  0  0
  193.6250  171.2650  144.9250 C   0  0  0  0  0  3  0  0  0  0  0  0
  195.9650  172.6700  145.5290 C   0  0  0  0  0  0  0  0  0  0  0  0
  185.5740  178.6830  144.9760 O   0  0  0  0  0  0  0  0  0  0  0  0
  186.4340  178.5090  144.0750 C   0  0  0  0  0  0  0  0  0  0  0  0
  187.6310  177.7860  144.3790 N   0  0  0  0  0  2  0  0  0  0  0  0
  186.2060  179.1050  142.7230 C   0  0  0  0  0  2  0  0  0  0  0  0
  184.2080  177.9350  142.1440 O   0  0  0  0  0  0  0  0  0  0  0  0
  185.4140  178.1730  141.8700 C   0  0  0  0  0  0  0  0  0  0  0  0
  186.0180  177.5620  140.7370 N   0  0  0  0  0  1  0  0  0  0  0  0
  193.2400  176.9820  144.8710 C   0  0  0  0  0  2  0  0  0  0  0  0
  194.1760  176.4230  143.8140 C   0  0  0  0  0  2  0  0  0  0  0  0
  195.5540  176.5590  144.2520 N   0  0  0  0  0  2  0  0  0  0  0  0
  196.3810  176.4860  143.0600 C   0  0  0  0  0  2  0  0  0  0  0  0
  196.2920  175.0930  142.4530 C   0  0  0  0  0  2  0  0  0  0  0  0
  195.9920  175.1790  141.0320 N   0  0  0  0  0  2  0  0  0  0  0  0
  195.5210  173.8690  140.6060 C   0  0  0  0  0  2  0  0  0  0  0  0
  194.7340  173.2130  141.7240 C   0  0  0  0  0  2  0  0  0  0  0  0
  193.3600  172.8020  141.2290 C   0  0  0  0  0  2  0  0  0  0  0  0
  193.1930  171.3060  141.3940 C   0  0  0  0  0  1  0  0  0  0  0  0
  1  6  2  0  0  0  0
  2 16  1  1  0  0  0
  2  7  1  0  0  0  0
  4  3  1  6  0  0  0
  4  7  1  0  0  0  0
  5 13  1  0  0  0  0
  5  6  1  0  0  0  0
  6  3  1  0  0  0  0
  8 12  1  0  0  0  0
  8 10  1  0  0  0  0
  9  2  1  0  0  0  0
 10 29  1  0  0  0  0
 10  4  1  0  0  0  0
 11  1  2  0  0  0  0
 11  9  1  0  0  0  0
 13 12  1  0  0  0  0
 13 24  1  1  0  0  0
 14 21  1  0  0  0  0
 15 21  2  0  0  0  0
 16 14  2  0  0  0  0
 17 18  1  0  0  0  0
 18 15  1  0  0  0  0
 20 18  2  0  0  0  0
 20 16  1  0  0  0  0
 21 19  1  0  0  0  0
 23 24  1  0  0  0  0
 23 22  2  0  0  0  0
 25 23  1  0  0  0  0
 27 26  2  0  0  0  0
 27 25  1  0  0  0  0
 28 27  1  0  0  0  0
 30 31  1  0  0  0  0
 30 29  1  0  0  0  0
 32 31  1  0  0  0  0
 33 32  1  0  0  0  0
 34 33  1  0  0  0  0
 35 34  1  0  0  0  0
 35 36  1  0  0  0  0
 37 38  1  0  0  0  0
 37 36  1  0  0  0  0
M  END
>  <MODEL>
9

>  <REMARK>
 VINA RESULT:      -5.6      2.148      3.631
  Name = 
  13 active torsions:
  status: ('A' for Active; 'I' for Inactive)
    1  A    between atoms: N_2  and  C_3
    2  A    between atoms: N_2  and  C_15
    3  A    between atoms: C_3  and  C_8
    4  A    between atoms: C_5  and  C_9
    5  A    between atoms: C_8  and  N_33
    6  A    between atoms: C_15  and  C_30
    7  A    between atoms: C_16  and  C_27
    8  A    between atoms: C_19  and  C_27
    9  A    between atoms: C_20  and  C_30
   10  A    between atoms: N_24  and  C_29
   11  A    between atoms: C_29  and  C_37
   12  A    between atoms: C_31  and  N_38
   13  A    between atoms: N_33  and  C_37
                            x       y       z     vdW  Elec       q    Type
                         _______ _______ _______ _____ _____    ______ ____

>  <TORSDO>
F 13

$$$$
