=
 OpenBabel11042415113D

 27 31  0  0  1  0  0  0  0  0999 V2000
  184.7140  178.0070  145.6690 C   0  0  1  0  0  3  0  0  0  0  0  0
  190.5380  178.1190  144.4760 O   0  0  0  0  0  1  0  0  0  0  0  0
  187.8610  176.7890  144.5670 C   0  0  0  0  0  0  0  0  0  0  0  0
  186.7360  176.6350  141.9970 C   0  0  0  0  0  3  0  0  0  0  0  0
  186.1910  177.5040  142.9350 C   0  0  0  0  0  0  0  0  0  0  0  0
  183.8430  179.0850  145.8420 O   0  0  0  0  0  1  0  0  0  0  0  0
  190.8360  176.8930  145.0780 C   0  0  2  0  0  3  0  0  0  0  0  0
  189.6910  173.7820  143.0110 C   0  0  0  0  0  2  0  0  0  0  0  0
  188.2600  174.8270  141.2810 C   0  0  0  0  0  2  0  0  0  0  0  0
  189.6400  174.2560  141.5690 C   0  0  0  0  0  2  0  0  0  0  0  0
  189.5590  174.9770  143.9590 C   0  0  1  0  0  3  0  0  0  0  0  0
  191.9310  174.9140  144.3480 O   0  0  0  0  0  1  0  0  0  0  0  0
  185.7530  179.0790  147.6130 O   0  0  0  0  0  1  0  0  0  0  0  0
  187.4920  176.1940  146.9110 C   0  0  0  0  0  3  0  0  0  0  0  0
  190.8740  175.7720  144.0380 C   0  0  2  0  0  3  0  0  0  0  0  0
  188.4100  176.9110  145.9770 C   0  0  1  0  0  3  0  0  0  0  0  0
  184.8480  178.5150  142.4170 Cl  0  0  0  0  0  0  0  0  0  0  0  0
  189.8900  176.5830  146.2460 C   0  0  2  0  0  3  0  0  0  0  0  0
  186.0870  178.5330  145.2310 C   0  0  2  0  0  3  0  0  0  0  0  0
  188.3800  175.8690  143.6150 C   0  0  0  0  0  0  0  0  0  0  0  0
  186.2910  176.7080  147.1870 C   0  0  0  0  0  3  0  0  0  0  0  0
  187.8170  175.8220  142.3180 C   0  0  0  0  0  0  0  0  0  0  0  0
  186.7120  177.5600  144.2430 C   0  0  0  0  0  0  0  0  0  0  0  0
  185.8500  178.0530  146.6690 C   0  0  2  0  0  0  0  0  0  0  0  0
  189.7290  178.4150  147.9460 O   0  0  0  0  0  0  0  0  0  0  0  0
  190.3650  177.2670  147.4860 C   0  0  0  0  0  0  0  0  0  0  0  0
  191.3540  176.8060  148.1140 O   0  0  0  0  0  1  0  0  0  0  0  0
  1  6  1  1  0  0  0
  1 24  1  0  0  0  0
  3 16  1  0  0  0  0
  4 22  2  0  0  0  0
  4  5  1  0  0  0  0
  5 23  2  0  0  0  0
  7  2  1  6  0  0  0
  7 18  1  0  0  0  0
  9 10  1  0  0  0  0
  9 22  1  0  0  0  0
 10  8  1  0  0  0  0
 11  8  1  6  0  0  0
 11 15  1  0  0  0  0
 14 21  2  0  0  0  0
 15 12  1  1  0  0  0
 15  7  1  0  0  0  0
 16 18  1  0  0  0  0
 16 14  1  1  0  0  0
 17  5  1  0  0  0  0
 18 26  1  1  0  0  0
 19 23  1  6  0  0  0
 19  1  1  0  0  0  0
 19 24  1  0  0  0  0
 20 11  1  0  0  0  0
 20  3  2  0  0  0  0
 22 20  1  0  0  0  0
 23  3  1  0  0  0  0
 24 21  1  0  0  0  0
 24 13  1  1  0  0  0
 26 25  2  0  0  0  0
 26 27  1  0  0  0  0
M  END
>  <MODEL>
1

>  <REMARK>
 VINA RESULT:      -9.1      0.000      0.000
  Name = 
  1 active torsions:
  status: ('A' for Active; 'I' for Inactive)
    1  A    between atoms: C_18  and  C_23
                            x       y       z     vdW  Elec       q    Type
                         _______ _______ _______ _____ _____    ______ ____

>  <TORSDO>
F 1

$$$$
=
 OpenBabel11042415113D

 27 31  0  0  1  0  0  0  0  0999 V2000
  190.2000  174.7310  143.7680 C   0  0  1  0  0  3  0  0  0  0  0  0
  186.8770  179.5980  142.9790 O   0  0  0  0  0  1  0  0  0  0  0  0
  187.5020  176.9800  144.2820 C   0  0  0  0  0  0  0  0  0  0  0  0
  188.5150  177.3720  146.8730 C   0  0  0  0  0  3  0  0  0  0  0  0
  189.3600  176.9240  145.8650 C   0  0  0  0  0  0  0  0  0  0  0  0
  191.5370  174.5270  143.4190 O   0  0  0  0  0  1  0  0  0  0  0  0
  185.6510  178.9300  142.9060 C   0  0  2  0  0  3  0  0  0  0  0  0
  184.3260  177.6490  146.3500 C   0  0  0  0  0  2  0  0  0  0  0  0
  186.3060  177.9720  147.8030 C   0  0  0  0  0  2  0  0  0  0  0  0
  184.9640  178.5560  147.3880 C   0  0  0  0  0  2  0  0  0  0  0  0
  185.1630  177.6500  145.0690 C   0  0  1  0  0  3  0  0  0  0  0  0
  183.5790  179.1440  144.0500 O   0  0  0  0  0  1  0  0  0  0  0  0
  190.0480  175.0250  141.3400 O   0  0  0  0  0  1  0  0  0  0  0  0
  186.8780  175.2610  142.6570 C   0  0  0  0  0  3  0  0  0  0  0  0
  184.9440  178.9410  144.2630 C   0  0  2  0  0  3  0  0  0  0  0  0
  187.0170  176.7330  142.8650 C   0  0  1  0  0  3  0  0  0  0  0  0
  191.0550  176.6910  146.2750 Cl  0  0  0  0  0  0  0  0  0  0  0  0
  185.8030  177.5150  142.3320 C   0  0  2  0  0  3  0  0  0  0  0  0
  189.8250  176.1940  143.5010 C   0  0  2  0  0  3  0  0  0  0  0  0
  186.6360  177.3920  145.3320 C   0  0  0  0  0  0  0  0  0  0  0  0
  187.9710  174.4980  142.5630 C   0  0  0  0  0  3  0  0  0  0  0  0
  187.1680  177.6080  146.6250 C   0  0  0  0  0  0  0  0  0  0  0  0
  188.8590  176.6770  144.5720 C   0  0  0  0  0  0  0  0  0  0  0  0
  189.3620  175.0770  142.5550 C   0  0  2  0  0  0  0  0  0  0  0  0
  186.9870  177.2710  140.1390 O   0  0  0  0  0  0  0  0  0  0  0  0
  185.8220  177.5670  140.8390 C   0  0  0  0  0  0  0  0  0  0  0  0
  184.7800  177.8890  140.2110 O   0  0  0  0  0  1  0  0  0  0  0  0
  1  6  1  6  0  0  0
  3 23  2  0  0  0  0
  3 20  1  0  0  0  0
  5 17  1  0  0  0  0
  5  4  2  0  0  0  0
  7  2  1  1  0  0  0
  7 15  1  0  0  0  0
  8 10  1  0  0  0  0
 10  9  1  0  0  0  0
 11 20  1  0  0  0  0
 11  8  1  1  0  0  0
 15 12  1  6  0  0  0
 15 11  1  0  0  0  0
 16 14  1  1  0  0  0
 16  3  1  0  0  0  0
 18 26  1  6  0  0  0
 18 16  1  0  0  0  0
 18  7  1  0  0  0  0
 19  1  1  0  0  0  0
 19 23  1  1  0  0  0
 20 22  2  0  0  0  0
 21 14  2  0  0  0  0
 22  4  1  0  0  0  0
 22  9  1  0  0  0  0
 23  5  1  0  0  0  0
 24 13  1  6  0  0  0
 24 21  1  0  0  0  0
 24 19  1  0  0  0  0
 24  1  1  0  0  0  0
 25 26  2  0  0  0  0
 27 26  1  0  0  0  0
M  END
>  <MODEL>
2

>  <REMARK>
 VINA RESULT:      -8.6      2.611      6.494
  Name = 
  1 active torsions:
  status: ('A' for Active; 'I' for Inactive)
    1  A    between atoms: C_18  and  C_23
                            x       y       z     vdW  Elec       q    Type
                         _______ _______ _______ _____ _____    ______ ____

>  <TORSDO>
F 1

$$$$
=
 OpenBabel11042415113D

 27 31  0  0  1  0  0  0  0  0999 V2000
  190.9780  175.4480  142.3530 C   0  0  1  0  0  3  0  0  0  0  0  0
  187.4270  176.0350  147.0850 O   0  0  0  0  0  1  0  0  0  0  0  0
  188.3790  176.8020  144.3550 C   0  0  0  0  0  0  0  0  0  0  0  0
  186.5910  175.8990  142.3860 C   0  0  0  0  0  3  0  0  0  0  0  0
  187.8380  175.2980  142.5090 C   0  0  0  0  0  0  0  0  0  0  0  0
  191.7450  174.3430  141.9750 O   0  0  0  0  0  1  0  0  0  0  0  0
  187.5530  177.4230  147.1940 C   0  0  2  0  0  3  0  0  0  0  0  0
  185.5640  179.4220  144.4910 C   0  0  0  0  0  2  0  0  0  0  0  0
  184.9050  177.6250  142.9190 C   0  0  0  0  0  2  0  0  0  0  0  0
  184.4310  178.5040  144.0670 C   0  0  0  0  0  2  0  0  0  0  0  0
  186.7110  178.5980  145.0810 C   0  0  1  0  0  3  0  0  0  0  0  0
  186.0050  179.2240  147.2930 O   0  0  0  0  0  1  0  0  0  0  0  0
  192.4590  175.2800  144.2980 O   0  0  0  0  0  1  0  0  0  0  0  0
  190.4550  178.0490  144.7000 C   0  0  0  0  0  3  0  0  0  0  0  0
  186.3830  178.1310  146.5090 C   0  0  2  0  0  3  0  0  0  0  0  0
  189.3980  177.2500  145.3880 C   0  0  1  0  0  3  0  0  0  0  0  0
  188.1920  173.9430  141.4450 Cl  0  0  0  0  0  0  0  0  0  0  0  0
  188.9170  177.9150  146.6900 C   0  0  2  0  0  3  0  0  0  0  0  0
  190.1140  175.0730  143.5630 C   0  0  2  0  0  3  0  0  0  0  0  0
  187.1200  177.4410  144.1880 C   0  0  0  0  0  0  0  0  0  0  0  0
  191.3320  177.4390  143.8980 C   0  0  0  0  0  3  0  0  0  0  0  0
  186.2220  176.9580  143.2070 C   0  0  0  0  0  0  0  0  0  0  0  0
  188.7650  175.7680  143.4600 C   0  0  0  0  0  0  0  0  0  0  0  0
  191.3680  175.9420  143.7300 C   0  0  2  0  0  0  0  0  0  0  0  0
  190.7720  176.6580  147.8070 O   0  0  0  0  0  0  0  0  0  0  0  0
  189.9430  177.7740  147.7660 C   0  0  0  0  0  0  0  0  0  0  0  0
  190.0520  178.6660  148.6470 O   0  0  0  0  0  1  0  0  0  0  0  0
  1  6  1  1  0  0  0
  1 19  1  0  0  0  0
  1 24  1  0  0  0  0
  3 16  1  0  0  0  0
  4  5  2  0  0  0  0
  4 22  1  0  0  0  0
  5 23  1  0  0  0  0
  7  2  1  6  0  0  0
  9 22  1  0  0  0  0
  9 10  1  0  0  0  0
 10  8  1  0  0  0  0
 11  8  1  6  0  0  0
 11 15  1  0  0  0  0
 15  7  1  0  0  0  0
 15 12  1  1  0  0  0
 16 14  1  6  0  0  0
 16 18  1  0  0  0  0
 17  5  1  0  0  0  0
 18  7  1  0  0  0  0
 18 26  1  1  0  0  0
 19 23  1  6  0  0  0
 19 24  1  0  0  0  0
 20  3  1  0  0  0  0
 20 11  1  0  0  0  0
 21 14  2  0  0  0  0
 22 20  2  0  0  0  0
 23  3  2  0  0  0  0
 24 21  1  0  0  0  0
 24 13  1  1  0  0  0
 26 25  2  0  0  0  0
 26 27  1  0  0  0  0
M  END
>  <MODEL>
3

>  <REMARK>
 VINA RESULT:      -8.4      1.683      5.114
  Name = 
  1 active torsions:
  status: ('A' for Active; 'I' for Inactive)
    1  A    between atoms: C_18  and  C_23
                            x       y       z     vdW  Elec       q    Type
                         _______ _______ _______ _____ _____    ______ ____

>  <TORSDO>
F 1

$$$$
=
 OpenBabel11042415113D

 27 31  0  0  1  0  0  0  0  0999 V2000
  184.9400  178.8610  145.3090 C   0  0  1  0  0  3  0  0  0  0  0  0
  188.2490  174.4770  143.0330 O   0  0  0  0  0  1  0  0  0  0  0  0
  187.8910  177.1400  144.3490 C   0  0  0  0  0  0  0  0  0  0  0  0
  188.5200  176.9940  147.0820 C   0  0  0  0  0  3  0  0  0  0  0  0
  187.1970  177.1560  146.6900 C   0  0  0  0  0  0  0  0  0  0  0  0
  183.6140  178.8110  145.7460 O   0  0  0  0  0  1  0  0  0  0  0  0
  189.0790  175.3010  142.2670 C   0  0  2  0  0  3  0  0  0  0  0  0
  191.7380  177.2650  144.3490 C   0  0  0  0  0  2  0  0  0  0  0  0
  190.9530  176.8740  146.6650 C   0  0  0  0  0  2  0  0  0  0  0  0
  191.9530  176.4390  145.6050 C   0  0  0  0  0  2  0  0  0  0  0  0
  190.3680  176.9480  143.7430 C   0  0  1  0  0  3  0  0  0  0  0  0
  191.4340  175.5700  142.0870 O   0  0  0  0  0  1  0  0  0  0  0  0
  183.8310  178.2330  143.2150 O   0  0  0  0  0  1  0  0  0  0  0  0
  187.1840  178.6690  142.5750 C   0  0  0  0  0  3  0  0  0  0  0  0
  190.3840  175.5970  143.0080 C   0  0  2  0  0  3  0  0  0  0  0  0
  187.4840  177.2400  142.8890 C   0  0  1  0  0  3  0  0  0  0  0  0
  185.9760  177.1950  147.9550 Cl  0  0  0  0  0  0  0  0  0  0  0  0
  188.3580  176.5750  141.8100 C   0  0  2  0  0  3  0  0  0  0  0  0
  185.4060  177.4460  144.9440 C   0  0  2  0  0  3  0  0  0  0  0  0
  189.2460  177.0220  144.7630 C   0  0  0  0  0  0  0  0  0  0  0  0
  186.0800  179.2390  143.0650 C   0  0  0  0  0  3  0  0  0  0  0  0
  189.5430  176.9260  146.1440 C   0  0  0  0  0  0  0  0  0  0  0  0
  186.8690  177.2780  145.3250 C   0  0  0  0  0  0  0  0  0  0  0  0
  185.0530  178.4660  143.8520 C   0  0  2  0  0  0  0  0  0  0  0  0
  186.4680  177.0990  140.2520 O   0  0  0  0  0  1  0  0  0  0  0  0
  187.5570  176.2990  140.5800 C   0  0  0  0  0  0  0  0  0  0  0  0
  187.8650  175.3290  139.8390 O   0  0  0  0  0  0  0  0  0  0  0  0
  1  6  1  1  0  0  0
  3 20  2  0  0  0  0
  3 23  1  0  0  0  0
  5  4  1  0  0  0  0
  5 17  1  0  0  0  0
  7 15  1  0  0  0  0
  7  2  1  1  0  0  0
  8 10  1  0  0  0  0
 10  9  1  0  0  0  0
 11  8  1  1  0  0  0
 11 20  1  0  0  0  0
 14 21  2  0  0  0  0
 15 12  1  6  0  0  0
 15 11  1  0  0  0  0
 16 14  1  6  0  0  0
 16  3  1  0  0  0  0
 18 26  1  6  0  0  0
 18  7  1  0  0  0  0
 18 16  1  0  0  0  0
 19  1  1  0  0  0  0
 19 23  1  6  0  0  0
 20 22  1  0  0  0  0
 21 24  1  0  0  0  0
 22  9  1  0  0  0  0
 22  4  2  0  0  0  0
 23  5  2  0  0  0  0
 24 13  1  6  0  0  0
 24 19  1  0  0  0  0
 24  1  1  0  0  0  0
 25 26  1  0  0  0  0
 27 26  2  0  0  0  0
M  END
>  <MODEL>
4

>  <REMARK>
 VINA RESULT:      -8.3      2.514      4.553
  Name = 
  1 active torsions:
  status: ('A' for Active; 'I' for Inactive)
    1  A    between atoms: C_18  and  C_23
                            x       y       z     vdW  Elec       q    Type
                         _______ _______ _______ _____ _____    ______ ____

>  <TORSDO>
F 1

$$$$
=
 OpenBabel11042415113D

 27 31  0  0  1  0  0  0  0  0999 V2000
  186.2540  178.4040  144.2010 C   0  0  1  0  0  3  0  0  0  0  0  0
  189.5080  173.4280  144.2380 O   0  0  0  0  0  1  0  0  0  0  0  0
  189.1500  176.3820  144.5470 C   0  0  0  0  0  0  0  0  0  0  0  0
  189.1530  177.1080  147.2610 C   0  0  0  0  0  3  0  0  0  0  0  0
  187.9710  177.1720  146.5340 C   0  0  0  0  0  0  0  0  0  0  0  0
  184.8670  178.5350  144.3030 O   0  0  0  0  0  1  0  0  0  0  0  0
  190.5650  173.9360  143.4770 C   0  0  2  0  0  3  0  0  0  0  0  0
  192.8980  176.3910  145.4250 C   0  0  0  0  0  2  0  0  0  0  0  0
  191.5930  176.7910  147.4920 C   0  0  0  0  0  2  0  0  0  0  0  0
  192.7490  176.0090  146.8870 C   0  0  0  0  0  2  0  0  0  0  0  0
  191.6660  175.9340  144.6380 C   0  0  1  0  0  3  0  0  0  0  0  0
  192.9170  174.0660  143.7890 O   0  0  0  0  0  1  0  0  0  0  0  0
  185.5660  177.1660  142.2010 O   0  0  0  0  0  1  0  0  0  0  0  0
  189.0050  177.2760  142.2750 C   0  0  0  0  0  3  0  0  0  0  0  0
  191.7020  174.4190  144.3790 C   0  0  2  0  0  3  0  0  0  0  0  0
  189.0810  176.0170  143.0740 C   0  0  1  0  0  3  0  0  0  0  0  0
  186.5150  177.6520  147.3970 Cl  0  0  0  0  0  0  0  0  0  0  0  0
  190.0940  175.0150  142.4920 C   0  0  2  0  0  3  0  0  0  0  0  0
  186.6400  176.9350  144.4100 C   0  0  2  0  0  3  0  0  0  0  0  0
  190.3630  176.3660  145.2880 C   0  0  0  0  0  0  0  0  0  0  0  0
  187.8850  178.0050  142.2890 C   0  0  0  0  0  3  0  0  0  0  0  0
  190.3430  176.7120  146.6600 C   0  0  0  0  0  0  0  0  0  0  0  0
  187.9600  176.8570  145.1610 C   0  0  0  0  0  0  0  0  0  0  0  0
  186.6390  177.5560  143.0060 C   0  0  2  0  0  0  0  0  0  0  0  0
  188.1900  174.4010  140.9860 O   0  0  0  0  0  1  0  0  0  0  0  0
  189.5550  174.3790  141.2530 C   0  0  0  0  0  0  0  0  0  0  0  0
  190.3400  173.8120  140.4500 O   0  0  0  0  0  0  0  0  0  0  0  0
  1  6  1  6  0  0  0
  1 19  1  0  0  0  0
  3 23  2  0  0  0  0
  3 20  1  0  0  0  0
  5  4  2  0  0  0  0
  5 17  1  0  0  0  0
  7  2  1  1  0  0  0
  7 15  1  0  0  0  0
  8 10  1  0  0  0  0
 10  9  1  0  0  0  0
 11 20  1  0  0  0  0
 11  8  1  1  0  0  0
 14 21  2  0  0  0  0
 15 12  1  6  0  0  0
 15 11  1  0  0  0  0
 16 14  1  6  0  0  0
 16  3  1  0  0  0  0
 18 26  1  6  0  0  0
 18 16  1  0  0  0  0
 18  7  1  0  0  0  0
 19 23  1  1  0  0  0
 20 22  2  0  0  0  0
 21 24  1  0  0  0  0
 22  4  1  0  0  0  0
 22  9  1  0  0  0  0
 23  5  1  0  0  0  0
 24 13  1  6  0  0  0
 24  1  1  0  0  0  0
 24 19  1  0  0  0  0
 25 26  1  0  0  0  0
 27 26  2  0  0  0  0
M  END
>  <MODEL>
5

>  <REMARK>
 VINA RESULT:      -7.9      2.469      4.717
  Name = 
  1 active torsions:
  status: ('A' for Active; 'I' for Inactive)
    1  A    between atoms: C_18  and  C_23
                            x       y       z     vdW  Elec       q    Type
                         _______ _______ _______ _____ _____    ______ ____

>  <TORSDO>
F 1

$$$$
=
 OpenBabel11042415113D

 27 31  0  0  1  0  0  0  0  0999 V2000
  192.1330  174.2910  141.8120 C   0  0  1  0  0  3  0  0  0  0  0  0
  188.9030  174.6250  146.7920 O   0  0  0  0  0  1  0  0  0  0  0  0
  189.6850  175.5440  144.0550 C   0  0  0  0  0  0  0  0  0  0  0  0
  187.7630  174.7720  142.1570 C   0  0  0  0  0  3  0  0  0  0  0  0
  189.0080  174.1560  142.1640 C   0  0  0  0  0  0  0  0  0  0  0  0
  192.8620  173.2050  141.3210 O   0  0  0  0  0  1  0  0  0  0  0  0
  189.0520  176.0030  146.9730 C   0  0  2  0  0  3  0  0  0  0  0  0
  186.9140  178.1730  144.5270 C   0  0  0  0  0  2  0  0  0  0  0  0
  186.1350  176.4770  142.8990 C   0  0  0  0  0  2  0  0  0  0  0  0
  185.7460  177.2900  144.1240 C   0  0  0  0  0  2  0  0  0  0  0  0
  188.0880  177.3070  144.9920 C   0  0  1  0  0  3  0  0  0  0  0  0
  187.5340  177.8070  147.2770 O   0  0  0  0  0  1  0  0  0  0  0  0
  193.7350  173.9970  143.6440 O   0  0  0  0  0  1  0  0  0  0  0  0
  191.7930  176.7520  144.3360 C   0  0  0  0  0  3  0  0  0  0  0  0
  187.8470  176.7590  146.4080 C   0  0  2  0  0  3  0  0  0  0  0  0
  190.7740  175.9220  145.0440 C   0  0  1  0  0  3  0  0  0  0  0  0
  189.2770  172.8630  141.0010 Cl  0  0  0  0  0  0  0  0  0  0  0  0
  190.3850  176.5140  146.4110 C   0  0  2  0  0  3  0  0  0  0  0  0
  191.3450  173.8510  143.0520 C   0  0  2  0  0  3  0  0  0  0  0  0
  188.4250  176.2010  144.0080 C   0  0  0  0  0  0  0  0  0  0  0  0
  192.6090  176.1840  143.4440 C   0  0  0  0  0  3  0  0  0  0  0  0
  187.4600  175.7840  143.0610 C   0  0  0  0  0  0  0  0  0  0  0  0
  190.0000  174.5620  143.0780 C   0  0  0  0  0  0  0  0  0  0  0  0
  192.6170  174.6990  143.1870 C   0  0  2  0  0  0  0  0  0  0  0  0
  191.6220  177.1630  148.4890 O   0  0  0  0  0  1  0  0  0  0  0  0
  191.4770  176.3010  147.4070 C   0  0  0  0  0  0  0  0  0  0  0  0
  192.2770  175.3400  147.2620 O   0  0  0  0  0  0  0  0  0  0  0  0
  1  6  1  1  0  0  0
  1 19  1  0  0  0  0
  1 24  1  0  0  0  0
  3 16  1  0  0  0  0
  4  5  2  0  0  0  0
  4 22  1  0  0  0  0
  5 23  1  0  0  0  0
  7  2  1  6  0  0  0
  9 22  1  0  0  0  0
  9 10  1  0  0  0  0
 10  8  1  0  0  0  0
 11  8  1  6  0  0  0
 11 15  1  0  0  0  0
 15  7  1  0  0  0  0
 15 12  1  1  0  0  0
 16 14  1  6  0  0  0
 16 18  1  0  0  0  0
 17  5  1  0  0  0  0
 18  7  1  0  0  0  0
 18 26  1  1  0  0  0
 19 23  1  6  0  0  0
 19 24  1  0  0  0  0
 20  3  1  0  0  0  0
 20 11  1  0  0  0  0
 21 14  2  0  0  0  0
 22 20  2  0  0  0  0
 23  3  2  0  0  0  0
 24 21  1  0  0  0  0
 24 13  1  1  0  0  0
 26 25  1  0  0  0  0
 27 26  2  0  0  0  0
M  END
>  <MODEL>
6

>  <REMARK>
 VINA RESULT:      -7.7      2.189      5.481
  Name = 
  1 active torsions:
  status: ('A' for Active; 'I' for Inactive)
    1  A    between atoms: C_18  and  C_23
                            x       y       z     vdW  Elec       q    Type
                         _______ _______ _______ _____ _____    ______ ____

>  <TORSDO>
F 1

$$$$
=
 OpenBabel11042415113D

 27 31  0  0  1  0  0  0  0  0999 V2000
  186.6120  176.8230  145.8900 C   0  0  1  0  0  3  0  0  0  0  0  0
  191.9480  176.0470  143.3840 O   0  0  0  0  0  1  0  0  0  0  0  0
  189.2480  175.0980  144.2560 C   0  0  0  0  0  0  0  0  0  0  0  0
  187.5220  174.8450  142.0540 C   0  0  0  0  0  3  0  0  0  0  0  0
  187.3160  175.8650  142.9750 C   0  0  0  0  0  0  0  0  0  0  0  0
  185.9280  178.0180  146.1220 O   0  0  0  0  0  1  0  0  0  0  0  0
  192.2530  174.8560  144.0510 C   0  0  2  0  0  3  0  0  0  0  0  0
  190.3170  171.7380  142.7120 C   0  0  0  0  0  2  0  0  0  0  0  0
  188.6260  172.7900  141.2400 C   0  0  0  0  0  2  0  0  0  0  0  0
  189.9660  172.0720  141.2730 C   0  0  0  0  0  2  0  0  0  0  0  0
  190.5470  173.0270  143.5060 C   0  0  1  0  0  3  0  0  0  0  0  0
  192.9220  172.6880  143.3440 O   0  0  0  0  0  1  0  0  0  0  0  0
  188.2000  177.9310  147.3920 O   0  0  0  0  0  1  0  0  0  0  0  0
  189.4020  174.7870  146.6770 C   0  0  0  0  0  3  0  0  0  0  0  0
  191.9170  173.6440  143.1800 C   0  0  2  0  0  3  0  0  0  0  0  0
  190.1350  175.2830  145.4750 C   0  0  1  0  0  3  0  0  0  0  0  0
  186.0020  176.9900  142.6570 Cl  0  0  0  0  0  0  0  0  0  0  0  0
  191.5930  174.7890  145.4350 C   0  0  2  0  0  3  0  0  0  0  0  0
  187.8840  177.1170  145.0850 C   0  0  2  0  0  3  0  0  0  0  0  0
  189.4200  174.0290  143.3340 C   0  0  0  0  0  0  0  0  0  0  0  0
  188.3650  175.4800  147.1550 C   0  0  0  0  0  3  0  0  0  0  0  0
  188.5560  173.9310  142.2170 C   0  0  0  0  0  0  0  0  0  0  0  0
  188.1440  175.9790  144.1100 C   0  0  0  0  0  0  0  0  0  0  0  0
  187.9560  176.8150  146.5880 C   0  0  2  0  0  0  0  0  0  0  0  0
  191.8950  176.5950  147.1430 O   0  0  0  0  0  1  0  0  0  0  0  0
  192.4250  175.5210  146.4360 C   0  0  0  0  0  0  0  0  0  0  0  0
  193.6170  175.1690  146.6340 O   0  0  0  0  0  0  0  0  0  0  0  0
  1  6  1  1  0  0  0
  1 24  1  0  0  0  0
  3 16  1  0  0  0  0
  4 22  2  0  0  0  0
  4  5  1  0  0  0  0
  5 23  2  0  0  0  0
  7  2  1  6  0  0  0
  7 18  1  0  0  0  0
  9 10  1  0  0  0  0
  9 22  1  0  0  0  0
 10  8  1  0  0  0  0
 11  8  1  6  0  0  0
 14 21  2  0  0  0  0
 15 12  1  1  0  0  0
 15 11  1  0  0  0  0
 15  7  1  0  0  0  0
 16 14  1  1  0  0  0
 17  5  1  0  0  0  0
 18 16  1  0  0  0  0
 18 26  1  1  0  0  0
 19 23  1  6  0  0  0
 19  1  1  0  0  0  0
 19 24  1  0  0  0  0
 20 11  1  0  0  0  0
 20  3  2  0  0  0  0
 22 20  1  0  0  0  0
 23  3  1  0  0  0  0
 24 21  1  0  0  0  0
 24 13  1  1  0  0  0
 26 27  2  0  0  0  0
 26 25  1  0  0  0  0
M  END
>  <MODEL>
7

>  <REMARK>
 VINA RESULT:      -7.4      1.664      2.410
  Name = 
  1 active torsions:
  status: ('A' for Active; 'I' for Inactive)
    1  A    between atoms: C_18  and  C_23
                            x       y       z     vdW  Elec       q    Type
                         _______ _______ _______ _____ _____    ______ ____

>  <TORSDO>
F 1

$$$$
=
 OpenBabel11042415113D

 27 31  0  0  1  0  0  0  0  0999 V2000
  187.0530  177.2320  145.7130 C   0  0  1  0  0  3  0  0  0  0  0  0
  192.1360  176.6280  142.6900 O   0  0  0  0  0  1  0  0  0  0  0  0
  189.3910  175.7530  143.4900 C   0  0  0  0  0  0  0  0  0  0  0  0
  187.5430  176.2650  141.4380 C   0  0  0  0  0  3  0  0  0  0  0  0
  187.5000  177.0190  142.6040 C   0  0  0  0  0  0  0  0  0  0  0  0
  186.5230  178.3850  146.2980 O   0  0  0  0  0  1  0  0  0  0  0  0
  192.3340  175.2790  143.0000 C   0  0  2  0  0  3  0  0  0  0  0  0
  189.9900  172.8350  141.0520 C   0  0  0  0  0  2  0  0  0  0  0  0
  188.3620  174.4020  140.0370 C   0  0  0  0  0  2  0  0  0  0  0  0
  189.6110  173.5730  139.7800 C   0  0  0  0  0  2  0  0  0  0  0  0
  190.4040  173.8380  142.1330 C   0  0  1  0  0  3  0  0  0  0  0  0
  192.7130  173.3220  141.7070 O   0  0  0  0  0  1  0  0  0  0  0  0
  188.8280  177.7400  147.3240 O   0  0  0  0  0  1  0  0  0  0  0  0
  189.6240  174.7960  145.7300 C   0  0  0  0  0  3  0  0  0  0  0  0
  191.8190  174.3810  141.8730 C   0  0  2  0  0  3  0  0  0  0  0  0
  190.3500  175.5180  144.6440 C   0  0  1  0  0  3  0  0  0  0  0  0
  186.3100  178.3120  142.6900 Cl  0  0  0  0  0  0  0  0  0  0  0  0
  191.7380  174.9130  144.3660 C   0  0  2  0  0  3  0  0  0  0  0  0
  188.3100  177.6030  144.9160 C   0  0  2  0  0  3  0  0  0  0  0  0
  189.3930  174.9560  142.3130 C   0  0  0  0  0  0  0  0  0  0  0  0
  188.6980  175.4360  146.4490 C   0  0  0  0  0  3  0  0  0  0  0  0
  188.4710  175.2430  141.2790 C   0  0  0  0  0  0  0  0  0  0  0  0
  188.3890  176.7450  143.6630 C   0  0  0  0  0  0  0  0  0  0  0  0
  188.4180  176.9070  146.2800 C   0  0  2  0  0  0  0  0  0  0  0  0
  193.3880  174.2710  146.1370 O   0  0  0  0  0  1  0  0  0  0  0  0
  192.6960  175.2660  145.4550 C   0  0  0  0  0  0  0  0  0  0  0  0
  192.8720  176.4740  145.7650 O   0  0  0  0  0  0  0  0  0  0  0  0
  1 24  1  0  0  0  0
  1  6  1  1  0  0  0
  3 23  1  0  0  0  0
  3 16  1  0  0  0  0
  4  5  1  0  0  0  0
  5 17  1  0  0  0  0
  5 23  2  0  0  0  0
  7  2  1  6  0  0  0
  7 18  1  0  0  0  0
  9 22  1  0  0  0  0
 10  9  1  0  0  0  0
 10  8  1  0  0  0  0
 11  8  1  6  0  0  0
 11 20  1  0  0  0  0
 14 21  2  0  0  0  0
 15 12  1  1  0  0  0
 15 11  1  0  0  0  0
 15  7  1  0  0  0  0
 16 14  1  1  0  0  0
 18 16  1  0  0  0  0
 18 26  1  1  0  0  0
 19 23  1  6  0  0  0
 19  1  1  0  0  0  0
 19 24  1  0  0  0  0
 20  3  2  0  0  0  0
 22  4  2  0  0  0  0
 22 20  1  0  0  0  0
 24 21  1  0  0  0  0
 24 13  1  1  0  0  0
 26 27  2  0  0  0  0
 26 25  1  0  0  0  0
M  END
>  <MODEL>
8

>  <REMARK>
 VINA RESULT:      -7.2      1.667      2.702
  Name = 
  1 active torsions:
  status: ('A' for Active; 'I' for Inactive)
    1  A    between atoms: C_18  and  C_23
                            x       y       z     vdW  Elec       q    Type
                         _______ _______ _______ _____ _____    ______ ____

>  <TORSDO>
F 1

$$$$
=
 OpenBabel11042415113D

 27 31  0  0  1  0  0  0  0  0999 V2000
  191.1090  172.7700  140.8310 C   0  0  1  0  0  3  0  0  0  0  0  0
  189.4370  177.8300  143.4670 O   0  0  0  0  0  1  0  0  0  0  0  0
  190.1170  174.9170  143.4770 C   0  0  0  0  0  0  0  0  0  0  0  0
  192.6630  174.4910  144.5820 C   0  0  0  0  0  3  0  0  0  0  0  0
  192.4670  174.3070  143.2190 C   0  0  0  0  0  0  0  0  0  0  0  0
  191.7580  172.6030  139.6050 O   0  0  0  0  0  1  0  0  0  0  0  0
  188.3700  177.2790  144.1820 C   0  0  2  0  0  3  0  0  0  0  0  0
  189.4520  175.1330  147.2620 C   0  0  0  0  0  2  0  0  0  0  0  0
  191.8920  174.9160  146.8910 C   0  0  0  0  0  2  0  0  0  0  0  0
  190.8170  175.6670  147.6620 C   0  0  0  0  0  2  0  0  0  0  0  0
  189.1750  175.4590  145.7920 C   0  0  1  0  0  3  0  0  0  0  0  0
  187.7450  177.2660  146.4750 O   0  0  0  0  0  1  0  0  0  0  0  0
  189.4400  173.7590  139.3340 O   0  0  0  0  0  1  0  0  0  0  0  0
  188.1700  173.7770  142.5320 C   0  0  0  0  0  3  0  0  0  0  0  0
  188.7920  176.9370  145.6120 C   0  0  2  0  0  3  0  0  0  0  0  0
  188.7630  175.1170  142.8170 C   0  0  1  0  0  3  0  0  0  0  0  0
  193.8700  173.8740  142.2500 Cl  0  0  0  0  0  0  0  0  0  0  0  0
  187.7460  176.0840  143.4500 C   0  0  2  0  0  3  0  0  0  0  0  0
  191.0220  174.2660  141.1570 C   0  0  2  0  0  3  0  0  0  0  0  0
  190.3180  175.0560  144.8770 C   0  0  0  0  0  0  0  0  0  0  0  0
  188.6840  173.0150  141.5620 C   0  0  0  0  0  3  0  0  0  0  0  0
  191.6130  174.8610  145.4140 C   0  0  0  0  0  0  0  0  0  0  0  0
  191.1860  174.4710  142.6550 C   0  0  0  0  0  0  0  0  0  0  0  0
  189.7920  173.4960  140.6600 C   0  0  2  0  0  0  0  0  0  0  0  0
  187.1660  176.7670  141.1110 O   0  0  0  0  0  0  0  0  0  0  0  0
  186.7680  176.5620  142.4280 C   0  0  0  0  0  0  0  0  0  0  0  0
  185.5760  176.7910  142.7630 O   0  0  0  0  0  1  0  0  0  0  0  0
  1  6  1  6  0  0  0
  1 19  1  0  0  0  0
  3 20  1  0  0  0  0
  4 22  1  0  0  0  0
  5  4  2  0  0  0  0
  7  2  1  6  0  0  0
  7 15  1  0  0  0  0
  8 10  1  0  0  0  0
  9 10  1  0  0  0  0
 11  8  1  1  0  0  0
 15 11  1  0  0  0  0
 15 12  1  1  0  0  0
 16 14  1  1  0  0  0
 16 18  1  0  0  0  0
 16  3  1  0  0  0  0
 17  5  1  0  0  0  0
 18 26  1  6  0  0  0
 18  7  1  0  0  0  0
 19 23  1  1  0  0  0
 20 22  2  0  0  0  0
 20 11  1  0  0  0  0
 21 14  2  0  0  0  0
 22  9  1  0  0  0  0
 23  5  1  0  0  0  0
 23  3  2  0  0  0  0
 24 13  1  6  0  0  0
 24  1  1  0  0  0  0
 24 19  1  0  0  0  0
 24 21  1  0  0  0  0
 25 26  2  0  0  0  0
 26 27  1  0  0  0  0
M  END
>  <MODEL>
9

>  <REMARK>
 VINA RESULT:      -7.2      3.137      6.562
  Name = 
  1 active torsions:
  status: ('A' for Active; 'I' for Inactive)
    1  A    between atoms: C_18  and  C_23
                            x       y       z     vdW  Elec       q    Type
                         _______ _______ _______ _____ _____    ______ ____

>  <TORSDO>
F 1

$$$$
