=
 OpenBabel11042415313D

 47 55  0  0  1  0  0  0  0  0999 V2000
  188.5470  176.9590  143.3650 C   0  0  2  0  0  3  0  0  0  0  0  0
  192.3810  175.8080  142.6240 C   0  0  2  0  0  3  0  0  0  0  0  0
  188.9230  177.6190  142.0450 C   0  0  0  0  0  2  0  0  0  0  0  0
  192.4390  175.9340  145.9350 C   0  0  0  0  0  0  0  0  0  0  0  0
  193.5630  175.5980  144.9450 C   0  0  2  0  0  3  0  0  0  0  0  0
  194.5230  176.7470  144.7850 C   0  0  0  0  0  3  0  0  0  0  0  0
  196.2790  175.1970  144.3030 C   0  0  0  0  0  2  0  0  0  0  0  0
  191.2250  176.2170  143.3920 N   0  0  0  0  0  0  0  0  0  0  0  0
  191.3950  176.8240  145.6470 C   0  0  0  0  0  0  0  0  0  0  0  0
  189.1680  177.3420  145.8740 C   0  0  0  0  0  0  0  0  0  0  0  0
  194.3970  174.3680  142.8060 C   0  0  0  0  0  3  0  0  0  0  0  0
  191.5580  175.0890  141.5660 C   0  0  0  0  0  2  0  0  0  0  0  0
  189.9050  174.1090  143.1330 C   0  0  0  0  0  2  0  0  0  0  0  0
  190.3380  176.3340  147.7680 N   0  0  0  0  0  0  0  0  0  0  0  0
  195.7520  176.5350  144.4670 N   0  0  0  0  0  0  0  0  0  0  0  0
  190.8500  177.0450  144.4250 C   0  0  0  0  0  0  0  0  0  0  0  0
  188.1180  175.1580  141.7860 N   0  0  0  0  0  2  0  0  0  0  0  0
  189.5070  177.3220  144.5120 C   0  0  0  0  0  0  0  0  0  0  0  0
  190.3100  176.9780  146.5770 C   0  0  0  0  0  0  0  0  0  0  0  0
  189.1410  176.1150  142.1660 C   0  0  2  0  0  0  0  0  0  0  0  0
  188.4740  173.9690  142.5800 C   0  0  1  0  0  3  0  0  0  0  0  0
  191.4170  175.5550  148.0740 C   0  0  0  0  0  3  0  0  0  0  0  0
  195.7010  174.5080  143.0940 C   0  0  0  0  0  3  0  0  0  0  0  0
  190.4350  175.3900  142.5100 C   0  0  1  0  0  0  0  0  0  0  0  0
  192.4360  175.3620  147.1740 N   0  0  0  0  0  2  0  0  0  0  0  0
  193.2090  174.9120  143.5700 C   0  0  2  0  0  3  0  0  0  0  0  0
  187.5580  175.7330  146.8580 C   0  0  0  0  0  1  0  0  0  0  0  0
  187.8520  177.0640  146.3560 N   0  0  0  0  0  0  0  0  0  0  0  0
  186.9750  178.1560  146.7500 C   0  0  0  0  0  2  0  0  0  0  0  0
  186.3020  178.7180  145.5820 N   0  0  0  0  0  0  0  0  0  0  0  0
  185.1960  177.8670  145.2620 C   0  0  1  0  0  3  0  0  0  0  0  0
  184.9680  179.0490  146.0110 N   0  0  0  0  0  2  0  0  0  0  0  0
  185.5720  179.2260  143.3830 C   0  0  0  0  0  1  0  0  0  0  0  0
  185.2150  177.0100  143.1590 O   0  0  0  0  0  1  0  0  0  0  0  0
  184.8130  178.0870  143.8750 N   0  0  0  0  0  0  0  0  0  0  0  0
  188.2810  172.6670  141.7990 C   0  0  0  0  0  2  0  0  0  0  0  0
  189.3840  172.4130  140.8620 N   0  0  0  0  0  0  0  0  0  0  0  0
  188.8850  172.3090  139.4710 C   0  0  2  0  0  3  0  0  0  0  0  0
  189.5300  171.1350  138.7360 C   0  0  0  0  0  1  0  0  0  0  0  0
  189.1190  173.5530  138.6500 C   0  0  0  0  0  0  0  0  0  0  0  0
  188.2790  174.4360  138.6180 O   0  0  0  0  0  0  0  0  0  0  0  0
  190.3020  174.1680  136.6220 N   0  0  0  0  0  1  0  0  0  0  0  0
  190.4580  173.7810  138.0150 C   0  0  0  0  0  2  0  0  0  0  0  0
  190.1070  171.1730  141.2310 C   0  0  0  0  0  2  0  0  0  0  0  0
  191.4550  171.3800  141.9470 C   0  0  0  0  0  2  0  0  0  0  0  0
  193.0060  172.0110  140.1110 C   0  0  0  0  0  1  0  0  0  0  0  0
  192.6380  170.9230  141.1030 C   0  0  0  0  0  2  0  0  0  0  0  0
  1  3  1  6  0  0  0
  1 18  1  0  0  0  0
  2 12  1  6  0  0  0
  2  8  1  0  0  0  0
  2 26  1  0  0  0  0
  4 25  1  0  0  0  0
  5  6  1  6  0  0  0
  5  4  1  0  0  0  0
  7 15  1  0  0  0  0
  8 16  1  0  0  0  0
  9  4  2  0  0  0  0
  9 19  1  0  0  0  0
 10 28  1  0  0  0  0
 10 19  2  0  0  0  0
 11 23  2  0  0  0  0
 14 22  2  0  0  0  0
 15  6  2  0  0  0  0
 16 18  2  0  0  0  0
 16  9  1  0  0  0  0
 17 20  1  0  0  0  0
 17 21  1  0  0  0  0
 18 10  1  0  0  0  0
 19 14  1  0  0  0  0
 20  3  1  6  0  0  0
 20 24  1  0  0  0  0
 20  1  1  0  0  0  0
 21 36  1  6  0  0  0
 21 13  1  0  0  0  0
 23  7  1  0  0  0  0
 24 12  1  6  0  0  0
 24 13  1  0  0  0  0
 24  8  1  0  0  0  0
 25 22  1  0  0  0  0
 26 11  1  6  0  0  0
 26  5  1  0  0  0  0
 28 29  1  0  0  0  0
 28 27  1  0  0  0  0
 30 32  1  0  0  0  0
 30 29  1  0  0  0  0
 31 35  1  6  0  0  0
 31 30  1  0  0  0  0
 31 32  1  0  0  0  0
 33 35  1  0  0  0  0
 34 35  1  0  0  0  0
 37 44  1  0  0  0  0
 37 36  1  0  0  0  0
 38 39  1  6  0  0  0
 38 37  1  0  0  0  0
 40 38  1  0  0  0  0
 41 40  2  0  0  0  0
 42 43  1  0  0  0  0
 43 40  1  0  0  0  0
 44 45  1  0  0  0  0
 46 47  1  0  0  0  0
 47 45  1  0  0  0  0
M  END
>  <MODEL>
1

>  <REMARK>
 VINA RESULT:      -6.8      0.000      0.000
  Name = 
  12 active torsions:
  status: ('A' for Active; 'I' for Inactive)
    1  A    between atoms: C_1  and  C_5
    2  A    between atoms: C_1  and  N_15
    3  A    between atoms: C_2  and  N_15
    4  A    between atoms: C_2  and  C_23
    5  A    between atoms: C_5  and  C_42
    6  A    between atoms: C_7  and  C_23
    7  A    between atoms: N_12  and  C_45
    8  A    between atoms: N_15  and  C_41
    9  A    between atoms: C_19  and  N_38
   10  A    between atoms: C_24  and  N_36
   11  A    between atoms: N_36  and  C_45
   12  A    between atoms: C_39  and  C_41
                            x       y       z     vdW  Elec       q    Type
                         _______ _______ _______ _____ _____    ______ ____

>  <TORSDO>
F 12

$$$$
=
 OpenBabel11042415313D

 47 55  0  0  1  0  0  0  0  0999 V2000
  190.3450  174.6810  145.1410 C   0  0  2  0  0  3  0  0  0  0  0  0
  190.8680  173.0060  141.4680 C   0  0  2  0  0  3  0  0  0  0  0  0
  190.8260  173.2610  145.4050 C   0  0  0  0  0  2  0  0  0  0  0  0
  188.3200  175.0270  140.8290 C   0  0  0  0  0  0  0  0  0  0  0  0
  189.0470  174.0380  139.9050 C   0  0  2  0  0  3  0  0  0  0  0  0
  188.2380  172.7870  139.6860 C   0  0  0  0  0  3  0  0  0  0  0  0
  189.2390  172.5320  137.5300 C   0  0  0  0  0  2  0  0  0  0  0  0
  190.2670  173.8240  142.4980 N   0  0  0  0  0  0  0  0  0  0  0  0
  188.1720  174.8280  142.2090 C   0  0  0  0  0  0  0  0  0  0  0  0
  188.1150  175.7610  144.3080 C   0  0  0  0  0  0  0  0  0  0  0  0
  191.2550  172.9840  139.0140 C   0  0  0  0  0  3  0  0  0  0  0  0
  192.2780  173.1550  142.0200 C   0  0  0  0  0  2  0  0  0  0  0  0
  192.0720  175.5480  142.6340 C   0  0  0  0  0  2  0  0  0  0  0  0
  187.1230  176.9960  142.4480 N   0  0  0  0  0  0  0  0  0  0  0  0
  188.3650  172.1050  138.6020 N   0  0  0  0  0  0  0  0  0  0  0  0
  189.0450  174.1820  143.0200 C   0  0  0  0  0  0  0  0  0  0  0  0
  192.7550  174.9420  144.9310 N   0  0  0  0  0  2  0  0  0  0  0  0
  189.0710  174.7320  144.2790 C   0  0  0  0  0  0  0  0  0  0  0  0
  187.6000  175.8660  143.0220 C   0  0  1  0  0  3  0  0  0  0  0  0
  191.6560  174.1190  144.4580 C   0  0  2  0  0  0  0  0  0  0  0  0
  192.8570  175.9780  143.8880 C   0  0  1  0  0  3  0  0  0  0  0  0
  187.1810  177.1230  141.0900 C   0  0  0  0  0  3  0  0  0  0  0  0
  190.6910  172.4460  137.9190 C   0  0  0  0  0  3  0  0  0  0  0  0
  191.6080  174.1330  142.9360 C   0  0  1  0  0  0  0  0  0  0  0  0
  187.7690  176.1600  140.3070 N   0  0  0  0  0  0  0  0  0  0  0  0
  190.5760  173.7350  140.1390 C   0  0  2  0  0  3  0  0  0  0  0  0
  189.1320  177.9480  144.8840 C   0  0  0  0  0  1  0  0  0  0  0  0
  188.1980  176.8790  145.1930 N   0  0  0  0  0  0  0  0  0  0  0  0
  187.1030  177.1660  146.1080 C   0  0  0  0  0  2  0  0  0  0  0  0
  186.3450  178.3270  145.6510 N   0  0  0  0  0  0  0  0  0  0  0  0
  185.0090  177.8960  145.3730 C   0  0  1  0  0  3  0  0  0  0  0  0
  185.2910  178.5200  146.6140 N   0  0  0  0  0  2  0  0  0  0  0  0
  185.3860  179.8280  144.0910 C   0  0  0  0  0  1  0  0  0  0  0  0
  184.0190  178.1940  143.3500 O   0  0  0  0  0  1  0  0  0  0  0  0
  184.3770  178.8540  144.4770 N   0  0  0  0  0  0  0  0  0  0  0  0
  194.3080  176.3400  143.5660 C   0  0  0  0  0  2  0  0  0  0  0  0
  195.0940  175.1690  143.1520 N   0  0  0  0  0  0  0  0  0  0  0  0
  196.1220  174.8340  144.1660 C   0  0  2  0  0  3  0  0  0  0  0  0
  197.5310  175.0700  143.6270 C   0  0  0  0  0  1  0  0  0  0  0  0
  196.0470  173.4090  144.6550 C   0  0  0  0  0  0  0  0  0  0  0  0
  195.3370  172.5980  144.0830 O   0  0  0  0  0  0  0  0  0  0  0  0
  196.7360  171.5480  146.0510 N   0  0  0  0  0  1  0  0  0  0  0  0
  196.9780  172.9460  145.7350 C   0  0  0  0  0  2  0  0  0  0  0  0
  195.7420  175.4120  141.8420 C   0  0  0  0  0  2  0  0  0  0  0  0
  195.2640  174.5070  140.6890 C   0  0  0  0  0  2  0  0  0  0  0  0
  194.5100  174.5380  138.3210 C   0  0  0  0  0  1  0  0  0  0  0  0
  194.4530  175.2700  139.6490 C   0  0  0  0  0  2  0  0  0  0  0  0
  1  3  1  1  0  0  0
  2 12  1  1  0  0  0
  2  8  1  0  0  0  0
  4  9  1  0  0  0  0
  5  6  1  1  0  0  0
  5 26  1  0  0  0  0
  5  4  1  0  0  0  0
  7 23  1  0  0  0  0
  7 15  1  0  0  0  0
  8 24  1  0  0  0  0
  8 16  1  0  0  0  0
  9 16  2  0  0  0  0
 10 28  1  0  0  0  0
 13 24  1  0  0  0  0
 13 21  1  0  0  0  0
 14 19  1  0  0  0  0
 15  6  2  0  0  0  0
 16 18  1  0  0  0  0
 18 10  2  0  0  0  0
 18  1  1  0  0  0  0
 19  9  1  6  0  0  0
 19 10  1  0  0  0  0
 20 17  1  0  0  0  0
 20  1  1  0  0  0  0
 20  3  1  1  0  0  0
 21 36  1  6  0  0  0
 21 17  1  0  0  0  0
 22 14  2  0  0  0  0
 23 11  2  0  0  0  0
 24 12  1  6  0  0  0
 24 20  1  0  0  0  0
 25  4  2  0  0  0  0
 25 22  1  0  0  0  0
 26 11  1  6  0  0  0
 26  2  1  0  0  0  0
 27 28  1  0  0  0  0
 28 29  1  0  0  0  0
 30 29  1  0  0  0  0
 30 32  1  0  0  0  0
 31 35  1  6  0  0  0
 31 30  1  0  0  0  0
 31 32  1  0  0  0  0
 33 35  1  0  0  0  0
 34 35  1  0  0  0  0
 37 36  1  0  0  0  0
 37 38  1  0  0  0  0
 38 39  1  6  0  0  0
 38 40  1  0  0  0  0
 40 43  1  0  0  0  0
 41 40  2  0  0  0  0
 43 42  1  0  0  0  0
 44 37  1  0  0  0  0
 45 44  1  0  0  0  0
 46 47  1  0  0  0  0
 47 45  1  0  0  0  0
M  END
>  <MODEL>
2

>  <REMARK>
 VINA RESULT:      -6.6      2.313      6.034
  Name = 
  12 active torsions:
  status: ('A' for Active; 'I' for Inactive)
    1  A    between atoms: C_1  and  C_5
    2  A    between atoms: C_1  and  N_15
    3  A    between atoms: C_2  and  N_15
    4  A    between atoms: C_2  and  C_23
    5  A    between atoms: C_5  and  C_42
    6  A    between atoms: C_7  and  C_23
    7  A    between atoms: N_12  and  C_45
    8  A    between atoms: N_15  and  C_41
    9  A    between atoms: C_19  and  N_38
   10  A    between atoms: C_24  and  N_36
   11  A    between atoms: N_36  and  C_45
   12  A    between atoms: C_39  and  C_41
                            x       y       z     vdW  Elec       q    Type
                         _______ _______ _______ _____ _____    ______ ____

>  <TORSDO>
F 12

$$$$
=
 OpenBabel11042415313D

 47 55  0  0  1  0  0  0  0  0999 V2000
  190.0900  175.3630  144.9050 C   0  0  2  0  0  3  0  0  0  0  0  0
  192.0690  171.9620  143.8630 C   0  0  2  0  0  3  0  0  0  0  0  0
  190.3230  174.6120  146.2080 C   0  0  0  0  0  2  0  0  0  0  0  0
  190.1800  172.3850  141.1740 C   0  0  0  0  0  0  0  0  0  0  0  0
  191.1780  171.2670  141.5070 C   0  0  2  0  0  3  0  0  0  0  0  0
  190.4760  170.0020  141.9240 C   0  0  0  0  0  3  0  0  0  0  0  0
  192.3030  168.7200  141.0680 C   0  0  0  0  0  2  0  0  0  0  0  0
  191.1270  173.0550  143.7570 N   0  0  1  0  0  0  0  0  0  0  0  0
  189.4310  173.0680  142.1430 C   0  0  0  0  0  0  0  0  0  0  0  0
  188.5160  175.0560  142.8420 C   0  0  0  0  0  0  0  0  0  0  0  0
  193.4880  170.5050  142.4370 C   0  0  0  0  0  3  0  0  0  0  0  0
  193.1010  172.7840  144.6220 C   0  0  0  0  0  2  0  0  0  0  0  0
  192.7870  174.8720  143.3230 C   0  0  0  0  0  2  0  0  0  0  0  0
  188.5110  174.5370  140.4540 N   0  0  0  0  0  0  0  0  0  0  0  0
  191.0250  168.8540  141.7330 N   0  0  0  0  0  0  0  0  0  0  0  0
  189.8220  173.3280  143.4140 C   0  0  2  0  0  3  0  0  0  0  0  0
  192.3590  176.0470  145.4550 N   0  0  0  0  0  2  0  0  0  0  0  0
  189.3270  174.5300  143.8610 C   0  0  0  0  0  0  0  0  0  0  0  0
  188.6220  174.1920  141.7590 C   0  0  0  0  0  0  0  0  0  0  0  0
  191.5330  174.8610  145.3150 C   0  0  2  0  0  0  0  0  0  0  0  0
  192.9670  176.1790  144.1190 C   0  0  1  0  0  3  0  0  0  0  0  0
  189.1650  173.7920  139.5150 C   0  0  0  0  0  3  0  0  0  0  0  0
  193.4310  169.2770  141.8950 C   0  0  0  0  0  3  0  0  0  0  0  0
  192.1560  173.9030  144.3090 C   0  0  1  0  0  0  0  0  0  0  0  0
  189.9790  172.7460  139.8730 N   0  0  0  0  0  0  0  0  0  0  0  0
  192.4310  171.5880  142.4100 C   0  0  2  0  0  3  0  0  0  0  0  0
  189.3720  177.3230  142.3160 C   0  0  0  0  0  1  0  0  0  0  0  0
  188.2680  176.4540  142.6840 N   0  0  0  0  0  0  0  0  0  0  0  0
  186.9120  176.9320  142.4570 C   0  0  0  0  0  2  0  0  0  0  0  0
  186.0190  176.4590  143.5120 N   0  0  0  0  0  0  0  0  0  0  0  0
  186.1410  177.3550  144.6220 C   0  0  1  0  0  3  0  0  0  0  0  0
  185.0570  177.5100  143.7210 N   0  0  0  0  0  2  0  0  0  0  0  0
  186.7940  176.6390  146.7620 C   0  0  0  0  0  1  0  0  0  0  0  0
  184.7250  177.4570  146.3950 O   0  0  0  0  0  1  0  0  0  0  0  0
  185.6800  176.6820  145.8280 N   0  0  0  0  0  0  0  0  0  0  0  0
  194.4320  176.6180  144.1860 C   0  0  0  0  0  2  0  0  0  0  0  0
  195.2870  175.8380  143.2800 N   0  0  0  0  0  0  0  0  0  0  0  0
  196.5600  175.4650  143.9410 C   0  0  2  0  0  3  0  0  0  0  0  0
  197.7650  175.9340  143.1280 C   0  0  0  0  0  1  0  0  0  0  0  0
  196.7080  173.9820  144.1760 C   0  0  0  0  0  0  0  0  0  0  0  0
  196.2920  173.1850  143.3520 O   0  0  0  0  0  0  0  0  0  0  0  0
  196.7660  172.5310  146.1200 N   0  0  0  0  0  1  0  0  0  0  0  0
  197.5230  173.4930  145.3350 C   0  0  0  0  0  2  0  0  0  0  0  0
  195.5690  176.6010  142.0420 C   0  0  0  0  0  2  0  0  0  0  0  0
  194.9150  176.0500  140.7600 C   0  0  0  0  0  2  0  0  0  0  0  0
  194.4590  173.7150  140.0400 C   0  0  0  0  0  1  0  0  0  0  0  0
  195.5460  174.7410  140.3020 C   0  0  0  0  0  2  0  0  0  0  0  0
  1 20  1  0  0  0  0
  1  3  1  1  0  0  0
  2 12  1  1  0  0  0
  4  5  1  0  0  0  0
  4  9  1  0  0  0  0
  5  6  1  1  0  0  0
  5 26  1  0  0  0  0
  7 15  1  0  0  0  0
  7 23  1  0  0  0  0
  8  2  1  0  0  0  0
  8 24  1  0  0  0  0
  9 16  1  0  0  0  0
 10 18  2  0  0  0  0
 13 21  1  0  0  0  0
 13 24  1  0  0  0  0
 14 19  1  0  0  0  0
 15  6  2  0  0  0  0
 16  8  1  0  0  0  0
 16 18  1  0  0  0  0
 18  1  1  0  0  0  0
 19  9  2  0  0  0  0
 19 10  1  0  0  0  0
 20 17  1  0  0  0  0
 20  3  1  0  0  0  0
 21 36  1  0  0  0  0
 21 17  1  0  0  0  0
 22 25  1  0  0  0  0
 22 14  2  0  0  0  0
 23 11  2  0  0  0  0
 24 12  1  0  0  0  0
 24 20  1  0  0  0  0
 25  4  2  0  0  0  0
 26 11  1  0  0  0  0
 26  2  1  0  0  0  0
 27 28  1  0  0  0  0
 28 10  1  0  0  0  0
 29 28  1  0  0  0  0
 29 30  1  0  0  0  0
 30 32  1  0  0  0  0
 30 31  1  0  0  0  0
 31 35  1  0  0  0  0
 32 31  1  0  0  0  0
 35 34  1  0  0  0  0
 35 33  1  0  0  0  0
 37 38  1  0  0  0  0
 37 36  1  0  0  0  0
 38 40  1  0  0  0  0
 39 38  1  0  0  0  0
 40 43  1  0  0  0  0
 41 40  2  0  0  0  0
 43 42  1  0  0  0  0
 44 37  1  0  0  0  0
 45 44  1  0  0  0  0
 46 47  1  0  0  0  0
 47 45  1  0  0  0  0
M  END
>  <MODEL>
3

>  <REMARK>
 VINA RESULT:      -6.6      2.348      6.216
  Name = 
  12 active torsions:
  status: ('A' for Active; 'I' for Inactive)
    1  A    between atoms: C_1  and  C_5
    2  A    between atoms: C_1  and  N_15
    3  A    between atoms: C_2  and  N_15
    4  A    between atoms: C_2  and  C_23
    5  A    between atoms: C_5  and  C_42
    6  A    between atoms: C_7  and  C_23
    7  A    between atoms: N_12  and  C_45
    8  A    between atoms: N_15  and  C_41
    9  A    between atoms: C_19  and  N_38
   10  A    between atoms: C_24  and  N_36
   11  A    between atoms: N_36  and  C_45
   12  A    between atoms: C_39  and  C_41
                            x       y       z     vdW  Elec       q    Type
                         _______ _______ _______ _____ _____    ______ ____

>  <TORSDO>
F 12

$$$$
=
 OpenBabel11042415313D

 47 55  0  0  1  0  0  0  0  0999 V2000
  189.9420  172.0510  142.9710 C   0  0  2  0  0  3  0  0  0  0  0  0
  193.1650  173.2320  145.1600 C   0  0  2  0  0  3  0  0  0  0  0  0
  189.5240  171.8960  144.4270 C   0  0  0  0  0  2  0  0  0  0  0  0
  194.6940  171.9190  142.5300 C   0  0  0  0  0  0  0  0  0  0  0  0
  195.2880  172.5430  143.8020 C   0  0  2  0  0  3  0  0  0  0  0  0
  195.7980  171.4900  144.7500 C   0  0  0  0  0  3  0  0  0  0  0  0
  197.4280  173.0350  145.5700 C   0  0  0  0  0  2  0  0  0  0  0  0
  192.4270  172.6230  144.0750 N   0  0  1  0  0  0  0  0  0  0  0  0
  193.4700  171.2370  142.5010 C   0  0  0  0  0  0  0  0  0  0  0  0
  191.5380  170.7650  141.3510 C   0  0  0  0  0  0  0  0  0  0  0  0
  195.2980  174.4240  145.6020 C   0  0  0  0  0  3  0  0  0  0  0  0
  192.1260  174.3180  145.4000 C   0  0  0  0  0  2  0  0  0  0  0  0
  191.6210  174.7350  143.0080 C   0  0  0  0  0  2  0  0  0  0  0  0
  193.6280  170.9740  140.1010 N   0  0  0  0  0  0  0  0  0  0  0  0
  196.7610  171.7500  145.5630 N   0  0  0  0  0  0  0  0  0  0  0  0
  192.3960  171.4940  143.2880 C   0  0  2  0  0  3  0  0  0  0  0  0
  189.2380  174.3160  143.5160 N   0  0  0  0  0  2  0  0  0  0  0  0
  191.2150  171.2600  142.6250 C   0  0  0  0  0  0  0  0  0  0  0  0
  192.9230  170.8040  141.2450 C   0  0  0  0  0  0  0  0  0  0  0  0
  190.0900  173.2450  143.9990 C   0  0  2  0  0  0  0  0  0  0  0  0
  190.1620  175.1240  142.7000 C   0  0  1  0  0  3  0  0  0  0  0  0
  194.8660  171.5450  140.1650 C   0  0  0  0  0  3  0  0  0  0  0  0
  196.5270  174.1360  146.0630 C   0  0  0  0  0  3  0  0  0  0  0  0
  191.5210  173.7430  144.1560 C   0  0  1  0  0  0  0  0  0  0  0  0
  195.3790  172.0070  141.3530 N   0  0  0  0  0  0  0  0  0  0  0  0
  194.5020  173.6920  144.5440 C   0  0  2  0  0  3  0  0  0  0  0  0
  190.3390  169.7230  139.4470 C   0  0  0  0  0  1  0  0  0  0  0  0
  190.6800  170.9060  140.2170 N   0  0  0  0  0  0  0  0  0  0  0  0
  189.8270  172.0790  140.0920 C   0  0  0  0  0  2  0  0  0  0  0  0
  190.4370  173.0630  139.2030 N   0  0  0  0  0  0  0  0  0  0  0  0
  189.8590  172.8980  137.9040 C   0  0  1  0  0  3  0  0  0  0  0  0
  189.3660  173.9170  138.7570 N   0  0  0  0  0  2  0  0  0  0  0  0
  189.9970  174.4980  136.1890 C   0  0  0  0  0  1  0  0  0  0  0  0
  191.7410  174.1260  137.5700 O   0  0  0  0  0  1  0  0  0  0  0  0
  190.7480  173.4820  136.9100 N   0  0  0  0  0  0  0  0  0  0  0  0
  189.9190  176.6260  142.8590 C   0  0  0  0  0  2  0  0  0  0  0  0
  188.8780  176.9190  143.8530 N   0  0  0  0  0  0  0  0  0  0  0  0
  187.7570  177.6730  143.2440 C   0  0  2  0  0  3  0  0  0  0  0  0
  186.8460  178.2720  144.3130 C   0  0  0  0  0  1  0  0  0  0  0  0
  186.9010  176.8430  142.3200 C   0  0  0  0  0  0  0  0  0  0  0  0
  186.2860  175.8810  142.7490 O   0  0  0  0  0  0  0  0  0  0  0  0
  185.5760  178.2630  140.8650 N   0  0  0  0  0  1  0  0  0  0  0  0
  186.6680  177.3050  140.9120 C   0  0  0  0  0  2  0  0  0  0  0  0
  189.4410  177.6860  144.9890 C   0  0  0  0  0  2  0  0  0  0  0  0
  189.6930  176.8770  146.2760 C   0  0  0  0  0  2  0  0  0  0  0  0
  189.0350  174.6940  147.2660 C   0  0  0  0  0  1  0  0  0  0  0  0
  188.5190  175.9750  146.6350 C   0  0  0  0  0  2  0  0  0  0  0  0
  1 20  1  0  0  0  0
  1  3  1  1  0  0  0
  2 12  1  6  0  0  0
  4  5  1  0  0  0  0
  5 26  1  0  0  0  0
  5  6  1  1  0  0  0
  6 15  2  0  0  0  0
  7 23  1  0  0  0  0
  8 24  1  0  0  0  0
  8  2  1  0  0  0  0
  9  4  1  0  0  0  0
  9 16  1  0  0  0  0
 10 18  2  0  0  0  0
 11 23  2  0  0  0  0
 13 24  1  0  0  0  0
 14 22  2  0  0  0  0
 14 19  1  0  0  0  0
 15  7  1  0  0  0  0
 16  8  1  0  0  0  0
 17 20  1  0  0  0  0
 18  1  1  0  0  0  0
 18 16  1  0  0  0  0
 19 10  1  0  0  0  0
 19  9  2  0  0  0  0
 20 24  1  0  0  0  0
 20  3  1  0  0  0  0
 21 36  1  0  0  0  0
 21 13  1  0  0  0  0
 21 17  1  0  0  0  0
 22 25  1  0  0  0  0
 24 12  1  0  0  0  0
 25  4  2  0  0  0  0
 26  2  1  0  0  0  0
 26 11  1  0  0  0  0
 27 28  1  0  0  0  0
 28 10  1  0  0  0  0
 29 28  1  0  0  0  0
 30 29  1  0  0  0  0
 31 32  1  0  0  0  0
 31 30  1  0  0  0  0
 32 30  1  0  0  0  0
 33 35  1  0  0  0  0
 35 34  1  0  0  0  0
 35 31  1  0  0  0  0
 36 37  1  0  0  0  0
 37 44  1  0  0  0  0
 38 37  1  0  0  0  0
 38 39  1  0  0  0  0
 40 41  2  0  0  0  0
 40 38  1  0  0  0  0
 42 43  1  0  0  0  0
 43 40  1  0  0  0  0
 44 45  1  0  0  0  0
 45 47  1  0  0  0  0
 47 46  1  0  0  0  0
M  END
>  <MODEL>
4

>  <REMARK>
 VINA RESULT:      -6.4      2.314      6.849
  Name = 
  12 active torsions:
  status: ('A' for Active; 'I' for Inactive)
    1  A    between atoms: C_1  and  C_5
    2  A    between atoms: C_1  and  N_15
    3  A    between atoms: C_2  and  N_15
    4  A    between atoms: C_2  and  C_23
    5  A    between atoms: C_5  and  C_42
    6  A    between atoms: C_7  and  C_23
    7  A    between atoms: N_12  and  C_45
    8  A    between atoms: N_15  and  C_41
    9  A    between atoms: C_19  and  N_38
   10  A    between atoms: C_24  and  N_36
   11  A    between atoms: N_36  and  C_45
   12  A    between atoms: C_39  and  C_41
                            x       y       z     vdW  Elec       q    Type
                         _______ _______ _______ _____ _____    ______ ____

>  <TORSDO>
F 12

$$$$
=
 OpenBabel11042415313D

 47 55  0  0  1  0  0  0  0  0999 V2000
  190.6680  172.7240  143.9410 C   0  0  2  0  0  3  0  0  0  0  0  0
  187.5660  175.0830  142.7640 C   0  0  2  0  0  3  0  0  0  0  0  0
  189.4100  171.9160  144.2280 C   0  0  0  0  0  2  0  0  0  0  0  0
  189.7030  177.3990  143.7910 C   0  0  0  0  0  0  0  0  0  0  0  0
  188.2790  177.5520  143.2360 C   0  0  2  0  0  3  0  0  0  0  0  0
  187.2860  177.8420  144.3290 C   0  0  0  0  0  3  0  0  0  0  0  0
  185.9370  179.0490  142.7680 C   0  0  0  0  0  2  0  0  0  0  0  0
  188.8530  174.7370  143.3260 N   0  0  0  0  0  0  0  0  0  0  0  0
  190.1280  176.2870  144.5320 C   0  0  0  0  0  0  0  0  0  0  0  0
  191.8200  174.8100  145.0150 C   0  0  0  0  0  0  0  0  0  0  0  0
  186.4500  176.9060  141.4980 C   0  0  0  0  0  3  0  0  0  0  0  0
  187.5800  173.9440  141.7550 C   0  0  0  0  0  2  0  0  0  0  0  0
  189.9860  174.1230  141.1850 C   0  0  0  0  0  2  0  0  0  0  0  0
  192.3880  177.1510  144.6030 N   0  0  0  0  0  0  0  0  0  0  0  0
  186.2120  178.5070  144.0810 N   0  0  0  0  0  0  0  0  0  0  0  0
  189.6780  175.0160  144.3920 C   0  0  0  0  0  0  0  0  0  0  0  0
  190.2250  171.7320  141.7640 N   0  0  0  0  0  2  0  0  0  0  0  0
  190.6700  174.0970  144.6360 C   0  0  0  0  0  0  0  0  0  0  0  0
  191.5120  176.1590  144.8960 C   0  0  1  0  0  3  0  0  0  0  0  0
  189.5750  172.4830  142.8230 C   0  0  2  0  0  0  0  0  0  0  0  0
  190.6860  172.7920  140.8500 C   0  0  1  0  0  3  0  0  0  0  0  0
  191.9310  178.2730  143.9750 C   0  0  0  0  0  3  0  0  0  0  0  0
  185.6670  177.9670  141.7560 C   0  0  0  0  0  3  0  0  0  0  0  0
  188.9770  173.7670  142.2640 C   0  0  1  0  0  0  0  0  0  0  0  0
  190.6210  178.3860  143.5790 N   0  0  0  0  0  0  0  0  0  0  0  0
  187.7360  176.5050  142.1890 C   0  0  2  0  0  3  0  0  0  0  0  0
  193.6470  173.3080  145.7600 C   0  0  0  0  0  1  0  0  0  0  0  0
  193.1450  174.3080  144.8340 N   0  0  0  0  0  0  0  0  0  0  0  0
  193.8040  174.4420  143.5430 C   0  0  0  0  0  2  0  0  0  0  0  0
  194.9930  175.2820  143.6600 N   0  0  0  0  0  0  0  0  0  0  0  0
  195.8870  174.9240  142.6010 C   0  0  1  0  0  3  0  0  0  0  0  0
  195.0520  176.0600  142.4500 N   0  0  0  0  0  2  0  0  0  0  0  0
  197.2050  176.7960  143.1320 C   0  0  0  0  0  1  0  0  0  0  0  0
  197.5390  174.8150  144.1570 O   0  0  0  0  0  1  0  0  0  0  0  0
  197.2340  175.3520  142.9520 N   0  0  0  0  0  0  0  0  0  0  0  0
  190.5200  172.4050  139.3780 C   0  0  0  0  0  2  0  0  0  0  0  0
  190.2730  173.5730  138.5220 N   0  0  0  0  0  0  0  0  0  0  0  0
  189.1110  173.3430  137.6310 C   0  0  2  0  0  3  0  0  0  0  0  0
  189.5600  172.9380  136.2280 C   0  0  0  0  0  1  0  0  0  0  0  0
  188.2030  174.5400  137.4990 C   0  0  0  0  0  0  0  0  0  0  0  0
  187.6270  174.9870  138.4760 O   0  0  0  0  0  0  0  0  0  0  0  0
  187.0910  176.2860  136.2320 N   0  0  0  0  0  1  0  0  0  0  0  0
  188.1470  175.2880  136.2000 C   0  0  0  0  0  2  0  0  0  0  0  0
  191.4730  173.8900  137.7120 C   0  0  0  0  0  2  0  0  0  0  0  0
  192.8170  173.4320  138.3110 C   0  0  0  0  0  2  0  0  0  0  0  0
  193.7590  175.4260  137.1640 C   0  0  0  0  0  1  0  0  0  0  0  0
  193.8240  174.5700  138.4160 C   0  0  0  0  0  2  0  0  0  0  0  0
  1  3  1  1  0  0  0
  1 18  1  0  0  0  0
  2 12  1  6  0  0  0
  2  8  1  0  0  0  0
  4  9  1  0  0  0  0
  5  4  1  0  0  0  0
  5  6  1  1  0  0  0
  7 15  1  0  0  0  0
  8 16  1  0  0  0  0
 11 23  2  0  0  0  0
 12 24  1  0  0  0  0
 14 19  1  0  0  0  0
 15  6  2  0  0  0  0
 16  9  2  0  0  0  0
 16 18  1  0  0  0  0
 17 20  1  0  0  0  0
 18 10  2  0  0  0  0
 19  9  1  6  0  0  0
 19 10  1  0  0  0  0
 20  1  1  0  0  0  0
 20  3  1  1  0  0  0
 21 36  1  6  0  0  0
 21 13  1  0  0  0  0
 21 17  1  0  0  0  0
 22 14  2  0  0  0  0
 23  7  1  0  0  0  0
 24 13  1  6  0  0  0
 24 20  1  0  0  0  0
 24  8  1  0  0  0  0
 25  4  2  0  0  0  0
 25 22  1  0  0  0  0
 26 11  1  1  0  0  0
 26  2  1  0  0  0  0
 26  5  1  0  0  0  0
 28 10  1  0  0  0  0
 28 27  1  0  0  0  0
 29 30  1  0  0  0  0
 29 28  1  0  0  0  0
 31 35  1  1  0  0  0
 31 30  1  0  0  0  0
 32 31  1  0  0  0  0
 32 30  1  0  0  0  0
 35 33  1  0  0  0  0
 35 34  1  0  0  0  0
 37 36  1  0  0  0  0
 38 39  1  6  0  0  0
 38 37  1  0  0  0  0
 40 38  1  0  0  0  0
 40 41  2  0  0  0  0
 43 42  1  0  0  0  0
 43 40  1  0  0  0  0
 44 45  1  0  0  0  0
 44 37  1  0  0  0  0
 45 47  1  0  0  0  0
 46 47  1  0  0  0  0
M  END
>  <MODEL>
5

>  <REMARK>
 VINA RESULT:      -6.3      2.487      6.372
  Name = 
  12 active torsions:
  status: ('A' for Active; 'I' for Inactive)
    1  A    between atoms: C_1  and  C_5
    2  A    between atoms: C_1  and  N_15
    3  A    between atoms: C_2  and  N_15
    4  A    between atoms: C_2  and  C_23
    5  A    between atoms: C_5  and  C_42
    6  A    between atoms: C_7  and  C_23
    7  A    between atoms: N_12  and  C_45
    8  A    between atoms: N_15  and  C_41
    9  A    between atoms: C_19  and  N_38
   10  A    between atoms: C_24  and  N_36
   11  A    between atoms: N_36  and  C_45
   12  A    between atoms: C_39  and  C_41
                            x       y       z     vdW  Elec       q    Type
                         _______ _______ _______ _____ _____    ______ ____

>  <TORSDO>
F 12

$$$$
=
 OpenBabel11042415313D

 47 55  0  0  1  0  0  0  0  0999 V2000
  194.0960  171.9700  141.4280 C   0  0  2  0  0  3  0  0  0  0  0  0
  194.5700  169.4490  144.5900 C   0  0  2  0  0  3  0  0  0  0  0  0
  193.8740  170.5710  140.8710 C   0  0  0  0  0  2  0  0  0  0  0  0
  196.7260  171.8270  145.4110 C   0  0  0  0  0  0  0  0  0  0  0  0
  196.3870  170.5150  146.1340 C   0  0  2  0  0  3  0  0  0  0  0  0
  197.4580  169.4770  145.9290 C   0  0  0  0  0  3  0  0  0  0  0  0
  196.9200  168.5200  148.0530 C   0  0  0  0  0  2  0  0  0  0  0  0
  194.8040  170.5940  143.7370 N   0  0  0  0  0  0  0  0  0  0  0  0
  196.6690  171.9800  144.0190 C   0  0  0  0  0  0  0  0  0  0  0  0
  196.1710  173.3390  142.2350 C   0  0  0  0  0  0  0  0  0  0  0  0
  194.6280  168.7940  146.9850 C   0  0  0  0  0  3  0  0  0  0  0  0
  193.0850  169.3750  144.2650 C   0  0  0  0  0  2  0  0  0  0  0  0
  192.6910  171.8230  144.2610 C   0  0  0  0  0  2  0  0  0  0  0  0
  197.1990  174.3340  144.2160 N   0  0  0  0  0  0  0  0  0  0  0  0
  197.6630  168.5620  146.8120 N   0  0  0  0  0  0  0  0  0  0  0  0
  195.8180  171.3390  143.1810 C   0  0  0  0  0  0  0  0  0  0  0  0
  191.7570  171.5940  141.9840 N   0  0  0  0  0  2  0  0  0  0  0  0
  195.4630  172.1310  142.1160 C   0  0  0  0  0  0  0  0  0  0  0  0
  196.8690  173.2770  143.4340 C   0  0  0  0  0  0  0  0  0  0  0  0
  193.0650  170.9740  142.0970 C   0  0  2  0  0  0  0  0  0  0  0  0
  191.6300  172.3200  143.2600 C   0  0  1  0  0  3  0  0  0  0  0  0
  197.3540  174.1400  145.5590 C   0  0  0  0  0  3  0  0  0  0  0  0
  195.4700  168.1780  147.8320 C   0  0  0  0  0  3  0  0  0  0  0  0
  193.3730  170.6620  143.5560 C   0  0  1  0  0  0  0  0  0  0  0  0
  197.1180  172.9160  146.1350 N   0  0  0  0  0  2  0  0  0  0  0  0
  194.9340  169.9150  146.0150 C   0  0  2  0  0  3  0  0  0  0  0  0
  196.5790  175.2980  140.7710 C   0  0  0  0  0  1  0  0  0  0  0  0
  195.7100  174.5720  141.6800 N   0  0  0  0  0  0  0  0  0  0  0  0
  194.2860  174.8740  141.6580 C   0  0  0  0  0  2  0  0  0  0  0  0
  193.7690  175.0010  143.0180 N   0  0  0  0  0  0  0  0  0  0  0  0
  194.2660  176.2280  143.5620 C   0  0  1  0  0  3  0  0  0  0  0  0
  192.9550  176.1890  143.0250 N   0  0  0  0  0  2  0  0  0  0  0  0
  192.9800  176.8380  145.4310 C   0  0  0  0  0  1  0  0  0  0  0  0
  194.0670  174.8630  145.3670 O   0  0  0  0  0  1  0  0  0  0  0  0
  194.2000  176.1640  145.0150 N   0  0  0  0  0  0  0  0  0  0  0  0
  190.2130  172.2440  143.8350 C   0  0  0  0  0  2  0  0  0  0  0  0
  189.5380  173.5490  143.8220 N   0  0  0  0  0  0  0  0  0  0  0  0
  189.5280  174.1290  142.4580 C   0  0  2  0  0  3  0  0  0  0  0  0
  189.0320  175.5730  142.4730 C   0  0  0  0  0  1  0  0  0  0  0  0
  188.6780  173.3580  141.4790 C   0  0  0  0  0  0  0  0  0  0  0  0
  187.5250  173.0720  141.7570 O   0  0  0  0  0  0  0  0  0  0  0  0
  188.1130  172.6670  139.2230 N   0  0  0  0  0  1  0  0  0  0  0  0
  189.1940  173.0960  140.0960 C   0  0  0  0  0  2  0  0  0  0  0  0
  190.1960  174.4870  144.7620 C   0  0  0  0  0  2  0  0  0  0  0  0
  190.0070  174.1680  146.2580 C   0  0  0  0  0  2  0  0  0  0  0  0
  188.7980  176.3360  146.1290 C   0  0  0  0  0  1  0  0  0  0  0  0
  188.9420  175.0420  146.9090 C   0  0  0  0  0  2  0  0  0  0  0  0
  1  3  1  6  0  0  0
  1 20  1  0  0  0  0
  1 18  1  0  0  0  0
  2 12  1  1  0  0  0
  2 26  1  0  0  0  0
  4  5  1  0  0  0  0
  4 25  1  0  0  0  0
  5  6  1  6  0  0  0
  6 15  2  0  0  0  0
  8  2  1  0  0  0  0
  9  4  2  0  0  0  0
 10 19  2  0  0  0  0
 11 23  2  0  0  0  0
 14 22  2  0  0  0  0
 15  7  1  0  0  0  0
 16  8  1  0  0  0  0
 16  9  1  0  0  0  0
 17 20  1  0  0  0  0
 17 21  1  0  0  0  0
 18 10  1  0  0  0  0
 18 16  2  0  0  0  0
 19  9  1  0  0  0  0
 19 14  1  0  0  0  0
 20  3  1  6  0  0  0
 20 24  1  0  0  0  0
 21 36  1  1  0  0  0
 21 13  1  0  0  0  0
 22 25  1  0  0  0  0
 23  7  1  0  0  0  0
 24  8  1  0  0  0  0
 24 13  1  1  0  0  0
 24 12  1  0  0  0  0
 26  5  1  0  0  0  0
 26 11  1  1  0  0  0
 27 28  1  0  0  0  0
 28 10  1  0  0  0  0
 29 28  1  0  0  0  0
 29 30  1  0  0  0  0
 30 32  1  0  0  0  0
 30 31  1  0  0  0  0
 31 35  1  1  0  0  0
 32 31  1  0  0  0  0
 35 34  1  0  0  0  0
 35 33  1  0  0  0  0
 37 36  1  0  0  0  0
 37 44  1  0  0  0  0
 38 39  1  1  0  0  0
 38 37  1  0  0  0  0
 40 41  2  0  0  0  0
 40 38  1  0  0  0  0
 42 43  1  0  0  0  0
 43 40  1  0  0  0  0
 44 45  1  0  0  0  0
 45 47  1  0  0  0  0
 46 47  1  0  0  0  0
M  END
>  <MODEL>
6

>  <REMARK>
 VINA RESULT:      -6.3      3.740      7.077
  Name = 
  12 active torsions:
  status: ('A' for Active; 'I' for Inactive)
    1  A    between atoms: C_1  and  C_5
    2  A    between atoms: C_1  and  N_15
    3  A    between atoms: C_2  and  N_15
    4  A    between atoms: C_2  and  C_23
    5  A    between atoms: C_5  and  C_42
    6  A    between atoms: C_7  and  C_23
    7  A    between atoms: N_12  and  C_45
    8  A    between atoms: N_15  and  C_41
    9  A    between atoms: C_19  and  N_38
   10  A    between atoms: C_24  and  N_36
   11  A    between atoms: N_36  and  C_45
   12  A    between atoms: C_39  and  C_41
                            x       y       z     vdW  Elec       q    Type
                         _______ _______ _______ _____ _____    ______ ____

>  <TORSDO>
F 12

$$$$
=
 OpenBabel11042415313D

 47 55  0  0  1  0  0  0  0  0999 V2000
  189.2070  172.8880  141.8800 C   0  0  2  0  0  3  0  0  0  0  0  0
  191.8920  174.2050  144.6420 C   0  0  2  0  0  3  0  0  0  0  0  0
  188.5950  172.5550  143.2340 C   0  0  0  0  0  2  0  0  0  0  0  0
  193.9520  173.3130  142.2040 C   0  0  0  0  0  0  0  0  0  0  0  0
  194.2650  173.8780  143.5980 C   0  0  2  0  0  3  0  0  0  0  0  0
  194.7500  172.8040  144.5350 C   0  0  0  0  0  3  0  0  0  0  0  0
  196.0360  174.4350  145.7190 C   0  0  0  0  0  2  0  0  0  0  0  0
  191.4080  173.6220  143.4100 N   0  0  1  0  0  0  0  0  0  0  0  0
  192.8390  172.5080  141.9280 C   0  0  0  0  0  0  0  0  0  0  0  0
  191.1760  171.9370  140.4490 C   0  0  0  0  0  0  0  0  0  0  0  0
  193.7730  175.5760  145.5090 C   0  0  0  0  0  3  0  0  0  0  0  0
  190.7050  175.1450  144.7890 C   0  0  0  0  0  2  0  0  0  0  0  0
  190.5220  175.7230  142.3850 C   0  0  0  0  0  2  0  0  0  0  0  0
  193.3900  172.4850  139.5710 N   0  0  0  0  0  0  0  0  0  0  0  0
  195.5390  173.0920  145.5100 N   0  0  0  0  0  0  0  0  0  0  0  0
  191.6350  172.5740  142.5470 C   0  0  2  0  0  3  0  0  0  0  0  0
  188.1590  175.0040  142.4680 N   0  0  0  0  0  2  0  0  0  0  0  0
  190.6050  172.2750  141.6870 C   0  0  0  0  0  0  0  0  0  0  0  0
  192.5460  172.1360  140.5720 C   0  0  0  0  0  0  0  0  0  0  0  0
  189.0510  173.9910  143.0030 C   0  0  2  0  0  0  0  0  0  0  0  0
  189.0910  175.9780  141.8740 C   0  0  1  0  0  3  0  0  0  0  0  0
  194.5250  173.1790  139.8770 C   0  0  0  0  0  3  0  0  0  0  0  0
  194.9430  175.3820  146.1400 C   0  0  0  0  0  3  0  0  0  0  0  0
  190.3700  174.6250  143.4250 C   0  0  1  0  0  0  0  0  0  0  0  0
  194.7920  173.5820  141.1620 N   0  0  0  0  0  0  0  0  0  0  0  0
  193.2420  174.8620  144.2850 C   0  0  2  0  0  3  0  0  0  0  0  0
  189.6800  170.9860  138.7150 C   0  0  0  0  0  1  0  0  0  0  0  0
  190.4890  172.0880  139.2050 N   0  0  0  0  0  0  0  0  0  0  0  0
  190.2390  173.4170  138.6680 C   0  0  0  0  0  2  0  0  0  0  0  0
  190.7110  173.5100  137.2890 N   0  0  0  0  0  0  0  0  0  0  0  0
  189.6130  173.1920  136.4280 C   0  0  1  0  0  3  0  0  0  0  0  0
  189.9340  174.5520  136.6700 N   0  0  0  0  0  2  0  0  0  0  0  0
  191.5650  172.5950  135.2640 C   0  0  0  0  0  1  0  0  0  0  0  0
  189.5960  171.5890  134.8190 O   0  0  0  0  0  1  0  0  0  0  0  0
  190.1300  172.7940  135.1260 N   0  0  0  0  0  0  0  0  0  0  0  0
  188.6460  177.4240  142.1020 C   0  0  0  0  0  2  0  0  0  0  0  0
  187.4110  177.5070  142.8940 N   0  0  0  0  0  0  0  0  0  0  0  0
  186.5260  178.5830  142.3880 C   0  0  2  0  0  3  0  0  0  0  0  0
  185.8240  179.3090  143.5340 C   0  0  0  0  0  1  0  0  0  0  0  0
  185.4660  178.0950  141.4320 C   0  0  0  0  0  0  0  0  0  0  0  0
  185.7830  177.5370  140.3950 O   0  0  0  0  0  0  0  0  0  0  0  0
  183.1700  178.2910  140.6730 N   0  0  0  0  0  1  0  0  0  0  0  0
  184.0240  178.1390  141.8390 C   0  0  0  0  0  2  0  0  0  0  0  0
  187.7220  177.7430  144.3230 C   0  0  0  0  0  2  0  0  0  0  0  0
  187.3630  176.5900  145.2800 C   0  0  0  0  0  2  0  0  0  0  0  0
  185.1920  176.9180  146.4450 C   0  0  0  0  0  1  0  0  0  0  0  0
  186.6970  177.0820  146.5590 C   0  0  0  0  0  2  0  0  0  0  0  0
  1 20  1  0  0  0  0
  1  3  1  1  0  0  0
  2 12  1  6  0  0  0
  4  5  1  0  0  0  0
  5 26  1  0  0  0  0
  5  6  1  1  0  0  0
  6 15  2  0  0  0  0
  7 23  1  0  0  0  0
  8 24  1  0  0  0  0
  8  2  1  0  0  0  0
  9  4  1  0  0  0  0
  9 16  1  0  0  0  0
 10 19  1  0  0  0  0
 10 18  2  0  0  0  0
 11 23  2  0  0  0  0
 13 24  1  0  0  0  0
 14 22  2  0  0  0  0
 14 19  1  0  0  0  0
 15  7  1  0  0  0  0
 16  8  1  0  0  0  0
 17 20  1  0  0  0  0
 18  1  1  0  0  0  0
 18 16  1  0  0  0  0
 19  9  2  0  0  0  0
 20  3  1  0  0  0  0
 20 24  1  0  0  0  0
 21 36  1  0  0  0  0
 21 13  1  0  0  0  0
 21 17  1  0  0  0  0
 22 25  1  0  0  0  0
 24 12  1  0  0  0  0
 25  4  2  0  0  0  0
 26  2  1  0  0  0  0
 26 11  1  0  0  0  0
 27 28  1  0  0  0  0
 28 10  1  0  0  0  0
 29 28  1  0  0  0  0
 30 29  1  0  0  0  0
 31 32  1  0  0  0  0
 31 30  1  0  0  0  0
 32 30  1  0  0  0  0
 34 35  1  0  0  0  0
 35 33  1  0  0  0  0
 35 31  1  0  0  0  0
 36 37  1  0  0  0  0
 37 44  1  0  0  0  0
 38 37  1  0  0  0  0
 38 39  1  0  0  0  0
 40 43  1  0  0  0  0
 40 38  1  0  0  0  0
 41 40  2  0  0  0  0
 42 43  1  0  0  0  0
 44 45  1  0  0  0  0
 45 47  1  0  0  0  0
 46 47  1  0  0  0  0
M  END
>  <MODEL>
7

>  <REMARK>
 VINA RESULT:      -6.3      2.149      7.175
  Name = 
  12 active torsions:
  status: ('A' for Active; 'I' for Inactive)
    1  A    between atoms: C_1  and  C_5
    2  A    between atoms: C_1  and  N_15
    3  A    between atoms: C_2  and  N_15
    4  A    between atoms: C_2  and  C_23
    5  A    between atoms: C_5  and  C_42
    6  A    between atoms: C_7  and  C_23
    7  A    between atoms: N_12  and  C_45
    8  A    between atoms: N_15  and  C_41
    9  A    between atoms: C_19  and  N_38
   10  A    between atoms: C_24  and  N_36
   11  A    between atoms: N_36  and  C_45
   12  A    between atoms: C_39  and  C_41
                            x       y       z     vdW  Elec       q    Type
                         _______ _______ _______ _____ _____    ______ ____

>  <TORSDO>
F 12

$$$$
=
 OpenBabel11042415313D

 47 55  0  0  1  0  0  0  0  0999 V2000
  189.3460  173.1680  142.0250 C   0  0  2  0  0  3  0  0  0  0  0  0
  192.6280  174.7030  143.8810 C   0  0  2  0  0  3  0  0  0  0  0  0
  189.3180  172.6000  143.4370 C   0  0  0  0  0  2  0  0  0  0  0  0
  193.7750  174.4490  140.7820 C   0  0  0  0  0  0  0  0  0  0  0  0
  194.4850  174.9290  142.0570 C   0  0  2  0  0  3  0  0  0  0  0  0
  195.4240  173.8830  142.5960 C   0  0  0  0  0  3  0  0  0  0  0  0
  196.8020  175.6090  143.5100 C   0  0  0  0  0  2  0  0  0  0  0  0
  191.8210  174.1570  142.8120 N   0  0  1  0  0  0  0  0  0  0  0  0
  192.7640  173.4780  140.7790 C   0  0  0  0  0  0  0  0  0  0  0  0
  190.7800  172.7450  139.8820 C   0  0  0  0  0  0  0  0  0  0  0  0
  194.4780  176.3170  144.2600 C   0  0  0  0  0  3  0  0  0  0  0  0
  191.4520  175.3840  144.5660 C   0  0  0  0  0  2  0  0  0  0  0  0
  190.3340  176.1400  142.4860 C   0  0  0  0  0  2  0  0  0  0  0  0
  192.4260  173.7810  138.4020 N   0  0  0  0  0  0  0  0  0  0  0  0
  196.4620  174.2210  143.2770 N   0  0  0  0  0  0  0  0  0  0  0  0
  191.8690  173.2560  141.7720 C   0  0  2  0  0  3  0  0  0  0  0  0
  188.2890  174.9830  143.2540 N   0  0  0  0  0  2  0  0  0  0  0  0
  190.6530  172.8510  141.2770 C   0  0  0  0  0  0  0  0  0  0  0  0
  192.0580  173.1860  139.5620 C   0  0  0  0  0  0  0  0  0  0  0  0
  189.4500  174.1110  143.2910 C   0  0  2  0  0  0  0  0  0  0  0  0
  188.7940  176.1670  142.5370 C   0  0  1  0  0  3  0  0  0  0  0  0
  193.4830  174.6450  138.4070 C   0  0  0  0  0  3  0  0  0  0  0  0
  195.8110  176.2880  144.4180 C   0  0  0  0  0  3  0  0  0  0  0  0
  190.7260  174.9400  143.3330 C   0  0  1  0  0  0  0  0  0  0  0  0
  194.1340  174.9680  139.5720 N   0  0  0  0  0  0  0  0  0  0  0  0
  193.6490  175.6330  143.1930 C   0  0  2  0  0  3  0  0  0  0  0  0
  188.9240  174.1210  138.9830 C   0  0  0  0  0  1  0  0  0  0  0  0
  189.6770  172.8790  138.9840 N   0  0  0  0  0  0  0  0  0  0  0  0
  189.5780  172.0130  137.8180 C   0  0  0  0  0  2  0  0  0  0  0  0
  190.4940  170.8820  137.9420 N   0  0  0  0  0  0  0  0  0  0  0  0
  189.7090  169.6850  137.9780 C   0  0  1  0  0  3  0  0  0  0  0  0
  190.3070  170.0860  136.7560 N   0  0  0  0  0  2  0  0  0  0  0  0
  191.8280  168.6700  137.9940 C   0  0  0  0  0  1  0  0  0  0  0  0
  190.6380  168.9000  139.8960 O   0  0  0  0  0  1  0  0  0  0  0  0
  190.4970  168.6190  138.5790 N   0  0  0  0  0  0  0  0  0  0  0  0
  188.2580  177.4760  143.1230 C   0  0  0  0  0  2  0  0  0  0  0  0
  186.8160  177.4110  143.4000 N   0  0  0  0  0  0  0  0  0  0  0  0
  186.1090  178.5690  142.8030 C   0  0  2  0  0  3  0  0  0  0  0  0
  185.5570  179.4970  143.8820 C   0  0  0  0  0  1  0  0  0  0  0  0
  184.9660  178.1790  141.8990 C   0  0  0  0  0  0  0  0  0  0  0  0
  183.8720  177.9160  142.3700 O   0  0  0  0  0  0  0  0  0  0  0  0
  186.2950  177.5410  139.9720 N   0  0  0  0  0  1  0  0  0  0  0  0
  185.1270  178.2860  140.4120 C   0  0  0  0  0  2  0  0  0  0  0  0
  186.5660  177.3670  144.8600 C   0  0  0  0  0  2  0  0  0  0  0  0
  187.8210  177.4490  145.7500 C   0  0  0  0  0  2  0  0  0  0  0  0
  188.5930  175.3560  146.8460 C   0  0  0  0  0  1  0  0  0  0  0  0
  187.7080  176.5800  146.9960 C   0  0  0  0  0  2  0  0  0  0  0  0
  1 20  1  0  0  0  0
  1  3  1  1  0  0  0
  2 12  1  1  0  0  0
  4  5  1  0  0  0  0
  5  6  1  1  0  0  0
  5 26  1  0  0  0  0
  6 15  2  0  0  0  0
  7 23  1  0  0  0  0
  8 24  1  0  0  0  0
  8  2  1  0  0  0  0
  9  4  1  0  0  0  0
  9 16  1  0  0  0  0
 10 18  2  0  0  0  0
 11 23  2  0  0  0  0
 13 21  1  0  0  0  0
 13 24  1  0  0  0  0
 14 22  2  0  0  0  0
 14 19  1  0  0  0  0
 15  7  1  0  0  0  0
 16  8  1  0  0  0  0
 17 20  1  0  0  0  0
 18 16  1  0  0  0  0
 18  1  1  0  0  0  0
 19 10  1  0  0  0  0
 19  9  2  0  0  0  0
 20 24  1  0  0  0  0
 20  3  1  0  0  0  0
 21 36  1  0  0  0  0
 21 17  1  0  0  0  0
 22 25  1  0  0  0  0
 24 12  1  0  0  0  0
 25  4  2  0  0  0  0
 26  2  1  0  0  0  0
 26 11  1  0  0  0  0
 27 28  1  0  0  0  0
 28 10  1  0  0  0  0
 29 30  1  0  0  0  0
 29 28  1  0  0  0  0
 30 31  1  0  0  0  0
 31 35  1  0  0  0  0
 32 30  1  0  0  0  0
 32 31  1  0  0  0  0
 33 35  1  0  0  0  0
 35 34  1  0  0  0  0
 36 37  1  0  0  0  0
 37 44  1  0  0  0  0
 38 37  1  0  0  0  0
 38 39  1  0  0  0  0
 40 41  2  0  0  0  0
 40 38  1  0  0  0  0
 42 43  1  0  0  0  0
 43 40  1  0  0  0  0
 44 45  1  0  0  0  0
 45 47  1  0  0  0  0
 46 47  1  0  0  0  0
M  END
>  <MODEL>
8

>  <REMARK>
 VINA RESULT:      -6.2      2.267      7.320
  Name = 
  12 active torsions:
  status: ('A' for Active; 'I' for Inactive)
    1  A    between atoms: C_1  and  C_5
    2  A    between atoms: C_1  and  N_15
    3  A    between atoms: C_2  and  N_15
    4  A    between atoms: C_2  and  C_23
    5  A    between atoms: C_5  and  C_42
    6  A    between atoms: C_7  and  C_23
    7  A    between atoms: N_12  and  C_45
    8  A    between atoms: N_15  and  C_41
    9  A    between atoms: C_19  and  N_38
   10  A    between atoms: C_24  and  N_36
   11  A    between atoms: N_36  and  C_45
   12  A    between atoms: C_39  and  C_41
                            x       y       z     vdW  Elec       q    Type
                         _______ _______ _______ _____ _____    ______ ____

>  <TORSDO>
F 12

$$$$
=
 OpenBabel11042415313D

 47 55  0  0  1  0  0  0  0  0999 V2000
  190.6120  172.7430  143.8230 C   0  0  2  0  0  3  0  0  0  0  0  0
  187.4720  175.1740  142.9270 C   0  0  2  0  0  3  0  0  0  0  0  0
  189.3650  171.9440  144.1750 C   0  0  0  0  0  2  0  0  0  0  0  0
  189.7100  177.4320  143.8630 C   0  0  0  0  0  0  0  0  0  0  0  0
  188.2530  177.6190  143.4130 C   0  0  2  0  0  3  0  0  0  0  0  0
  187.3430  177.8920  144.5800 C   0  0  0  0  0  3  0  0  0  0  0  0
  185.9070  179.1590  143.1490 C   0  0  0  0  0  2  0  0  0  0  0  0
  188.7900  174.7950  143.3890 N   0  0  0  0  0  0  0  0  0  0  0  0
  190.1690  176.2950  144.5430 C   0  0  0  0  0  0  0  0  0  0  0  0
  191.8670  174.7820  144.8680 C   0  0  0  0  0  0  0  0  0  0  0  0
  186.2990  177.0460  141.7900 C   0  0  0  0  0  3  0  0  0  0  0  0
  187.3990  174.0630  141.8890 C   0  0  0  0  0  2  0  0  0  0  0  0
  189.7620  174.2250  141.1580 C   0  0  0  0  0  2  0  0  0  0  0  0
  192.4410  177.1260  144.4800 N   0  0  0  0  0  0  0  0  0  0  0  0
  186.2650  178.5780  144.4250 N   0  0  0  0  0  0  0  0  0  0  0  0
  189.6910  175.0350  144.4010 C   0  0  0  0  0  0  0  0  0  0  0  0
  190.0050  171.8160  141.6560 N   0  0  0  0  0  2  0  0  0  0  0  0
  190.6830  174.0960  144.5510 C   0  0  0  0  0  0  0  0  0  0  0  0
  191.5720  176.1390  144.8070 C   0  0  1  0  0  3  0  0  0  0  0  0
  189.4410  172.5470  142.7770 C   0  0  2  0  0  0  0  0  0  0  0  0
  190.4170  172.8950  140.7400 C   0  0  1  0  0  3  0  0  0  0  0  0
  191.9580  178.2710  143.9150 C   0  0  0  0  0  3  0  0  0  0  0  0
  185.5520  178.1090  142.1300 C   0  0  0  0  0  3  0  0  0  0  0  0
  188.8250  173.8540  142.2950 C   0  0  1  0  0  0  0  0  0  0  0  0
  190.6260  178.4120  143.6140 N   0  0  0  0  0  0  0  0  0  0  0  0
  187.6230  176.6090  142.3790 C   0  0  2  0  0  3  0  0  0  0  0  0
  193.7490  173.2900  145.4850 C   0  0  0  0  0  1  0  0  0  0  0  0
  193.1690  174.2680  144.5820 N   0  0  0  0  0  0  0  0  0  0  0  0
  193.7090  174.3650  143.2340 C   0  0  0  0  0  2  0  0  0  0  0  0
  194.8770  175.2420  143.2120 N   0  0  0  0  0  0  0  0  0  0  0  0
  195.9710  174.5020  142.6610 C   0  0  1  0  0  3  0  0  0  0  0  0
  195.2420  175.3860  141.8270 N   0  0  0  0  0  2  0  0  0  0  0  0
  197.0240  176.5710  143.0220 C   0  0  0  0  0  1  0  0  0  0  0  0
  197.4490  174.8040  144.3580 O   0  0  0  0  0  1  0  0  0  0  0  0
  197.2200  175.1290  143.0630 N   0  0  0  0  0  0  0  0  0  0  0  0
  190.1440  172.5510  139.2740 C   0  0  0  0  0  2  0  0  0  0  0  0
  191.3820  172.4210  138.4930 N   0  0  0  0  0  0  0  0  0  0  0  0
  191.7450  173.7070  137.8550 C   0  0  2  0  0  3  0  0  0  0  0  0
  191.8470  173.5640  136.3370 C   0  0  0  0  0  1  0  0  0  0  0  0
  193.0470  174.2840  138.3530 C   0  0  0  0  0  0  0  0  0  0  0  0
  193.5860  173.8200  139.3440 O   0  0  0  0  0  0  0  0  0  0  0  0
  195.1610  174.9380  137.3580 N   0  0  0  0  0  1  0  0  0  0  0  0
  193.7670  175.3100  137.5290 C   0  0  0  0  0  2  0  0  0  0  0  0
  191.2390  171.3690  137.4590 C   0  0  0  0  0  2  0  0  0  0  0  0
  189.9390  170.5430  137.5280 C   0  0  0  0  0  2  0  0  0  0  0  0
  190.5010  168.7740  139.1810 C   0  0  0  0  0  1  0  0  0  0  0  0
  190.2050  169.0550  137.7190 C   0  0  0  0  0  2  0  0  0  0  0  0
  1  3  1  1  0  0  0
  1 18  1  0  0  0  0
  2 12  1  6  0  0  0
  2  8  1  0  0  0  0
  4  9  1  0  0  0  0
  5  4  1  0  0  0  0
  5  6  1  1  0  0  0
  7 15  1  0  0  0  0
  8 16  1  0  0  0  0
  9 19  1  0  0  0  0
 11 23  2  0  0  0  0
 12 24  1  0  0  0  0
 15  6  2  0  0  0  0
 16  9  2  0  0  0  0
 16 18  1  0  0  0  0
 17 20  1  0  0  0  0
 18 10  2  0  0  0  0
 19 14  1  6  0  0  0
 19 10  1  0  0  0  0
 20  1  1  0  0  0  0
 20  3  1  1  0  0  0
 21 36  1  6  0  0  0
 21 13  1  0  0  0  0
 21 17  1  0  0  0  0
 22 14  2  0  0  0  0
 23  7  1  0  0  0  0
 24 13  1  6  0  0  0
 24 20  1  0  0  0  0
 24  8  1  0  0  0  0
 25  4  2  0  0  0  0
 25 22  1  0  0  0  0
 26 11  1  1  0  0  0
 26  2  1  0  0  0  0
 26  5  1  0  0  0  0
 28 10  1  0  0  0  0
 28 27  1  0  0  0  0
 29 28  1  0  0  0  0
 30 29  1  0  0  0  0
 31 35  1  1  0  0  0
 31 30  1  0  0  0  0
 32 31  1  0  0  0  0
 32 30  1  0  0  0  0
 33 35  1  0  0  0  0
 35 34  1  0  0  0  0
 37 36  1  0  0  0  0
 38 39  1  6  0  0  0
 38 40  1  0  0  0  0
 38 37  1  0  0  0  0
 40 41  2  0  0  0  0
 42 43  1  0  0  0  0
 43 40  1  0  0  0  0
 44 45  1  0  0  0  0
 44 37  1  0  0  0  0
 45 47  1  0  0  0  0
 47 46  1  0  0  0  0
M  END
>  <MODEL>
9

>  <REMARK>
 VINA RESULT:      -6.1      2.657      6.515
  Name = 
  12 active torsions:
  status: ('A' for Active; 'I' for Inactive)
    1  A    between atoms: C_1  and  C_5
    2  A    between atoms: C_1  and  N_15
    3  A    between atoms: C_2  and  N_15
    4  A    between atoms: C_2  and  C_23
    5  A    between atoms: C_5  and  C_42
    6  A    between atoms: C_7  and  C_23
    7  A    between atoms: N_12  and  C_45
    8  A    between atoms: N_15  and  C_41
    9  A    between atoms: C_19  and  N_38
   10  A    between atoms: C_24  and  N_36
   11  A    between atoms: N_36  and  C_45
   12  A    between atoms: C_39  and  C_41
                            x       y       z     vdW  Elec       q    Type
                         _______ _______ _______ _____ _____    ______ ____

>  <TORSDO>
F 12

$$$$
