=
 OpenBabel11042419383D

 63 68  0  0  1  0  0  0  0  0999 V2000
  192.4140  172.7380  142.9540 C   0  0  2  0  0  3  0  0  0  0  0  0
  191.8820  173.9540  145.0730 C   0  0  0  0  0  3  0  0  0  0  0  0
  193.6200  174.8840  146.4790 C   0  0  0  0  0  3  0  0  0  0  0  0
  194.2050  173.7470  144.4280 C   0  0  0  0  0  3  0  0  0  0  0  0
  194.5960  174.4440  145.5810 C   0  0  0  0  0  0  0  0  0  0  0  0
  192.2650  174.6470  146.2270 C   0  0  0  0  0  0  0  0  0  0  0  0
  192.8480  173.5030  144.1690 C   0  0  0  0  0  0  0  0  0  0  0  0
  196.0080  174.7120  145.8790 C   0  0  0  0  0  3  0  0  0  0  0  0
  196.9140  173.7470  146.0010 C   0  0  0  0  0  2  0  0  0  0  0  0
  191.2380  175.0940  147.2150 C   0  0  0  0  0  2  0  0  0  0  0  0
  189.8260  174.9160  146.6690 C   0  0  0  0  0  2  0  0  0  0  0  0
  189.1290  176.1930  146.6360 N   0  0  0  0  0  2  0  0  0  0  0  0
  188.3820  176.2610  145.3890 C   0  0  1  0  0  3  0  0  0  0  0  0
  188.8230  178.5690  142.6440 C   0  0  0  0  0  2  0  0  0  0  0  0
  187.7820  177.6580  145.2140 C   0  0  0  0  0  2  0  0  0  0  0  0
  187.4420  177.8870  142.6690 C   0  0  2  0  0  3  0  0  0  0  0  0
  190.3240  176.9460  143.9120 C   0  0  0  0  0  2  0  0  0  0  0  0
  186.7870  177.7310  144.0570 C   0  0  2  0  0  3  0  0  0  0  0  0
  189.2970  175.8650  144.2310 C   0  0  0  0  0  2  0  0  0  0  0  0
  190.0100  177.6000  142.5730 C   0  0  0  0  0  2  0  0  0  0  0  0
  187.3490  176.6250  141.8120 C   0  0  0  0  0  2  0  0  0  0  0  0
  185.8500  177.9570  140.2790 N   0  0  0  0  0  1  0  0  0  0  0  0
  186.8290  176.9360  140.4520 C   0  0  0  0  0  0  0  0  0  0  0  0
  187.2570  176.3040  139.4520 O   0  0  0  0  0  0  0  0  0  0  0  0
  185.8400  178.8970  144.3100 C   0  0  0  0  0  2  0  0  0  0  0  0
  184.2540  178.6880  146.2200 C   0  0  0  0  0  1  0  0  0  0  0  0
  183.4890  179.0810  144.0060 O   0  0  0  0  0  1  0  0  0  0  0  0
  184.4650  178.4140  144.7430 C   0  0  1  0  0  3  0  0  0  0  0  0
  190.8860  172.8060  140.9760 C   0  0  1  0  0  3  0  0  0  0  0  0
  191.3590  174.2360  141.1500 C   0  0  2  0  0  3  0  0  0  0  0  0
  192.7070  174.3220  140.7870 O   0  0  0  0  0  1  0  0  0  0  0  0
  191.1350  173.3410  142.3720 C   0  0  2  0  0  3  0  0  0  0  0  0
  189.1030  173.6350  139.6100 O   0  0  0  0  0  0  0  0  0  0  0  0
  188.9650  172.2510  139.3830 C   0  0  2  0  0  3  0  0  0  0  0  0
  189.3850  172.8000  140.7100 C   0  0  1  0  0  3  0  0  0  0  0  0
  190.0930  171.7740  138.4760 C   0  0  0  0  0  2  0  0  0  0  0  0
  189.8480  170.6580  136.3920 O   0  0  0  0  0  1  0  0  0  0  0  0
  189.6580  171.8810  137.0290 C   0  0  0  0  0  2  0  0  0  0  0  0
  192.1920  171.2580  143.2650 C   0  0  0  0  0  2  0  0  0  0  0  0
  193.4410  170.6120  143.7830 C   0  0  0  0  0  0  0  0  0  0  0  0
  194.3760  170.1060  141.4710 C   0  0  0  0  0  0  0  0  0  0  0  0
  193.6340  170.5920  145.0280 O   0  0  0  0  0  0  0  0  0  0  0  0
  195.4480  169.3390  143.4780 O   0  0  0  0  0  1  0  0  0  0  0  0
  194.4150  170.0070  142.9080 N   0  0  0  0  0  0  0  0  0  0  0  0
  193.4410  170.7100  140.8810 O   0  0  0  0  0  0  0  0  0  0  0  0
  195.4630  169.4930  140.6510 C   0  0  0  0  0  2  0  0  0  0  0  0
  195.1370  169.6130  139.2410 N   0  0  0  0  0  2  0  0  0  0  0  0
  196.2020  170.3800  138.6190 C   0  0  0  0  0  2  0  0  0  0  0  0
  197.1990  170.7990  139.6840 C   0  0  0  0  0  2  0  0  0  0  0  0
  196.8590  173.0170  140.7250 C   0  0  0  0  0  2  0  0  0  0  0  0
  196.8520  175.5390  140.4220 N   0  0  2  0  0  0  0  0  0  0  0  0
  197.1870  175.1640  137.9930 C   0  0  1  0  0  3  0  0  0  0  0  0
  195.8220  175.9800  141.3610 C   0  0  0  0  0  2  0  0  0  0  0  0
  196.4600  176.5440  142.6360 C   0  0  0  0  0  2  0  0  0  0  0  0
  196.1870  175.2750  139.1460 C   0  0  0  0  0  2  0  0  0  0  0  0
  197.9020  174.4910  142.4600 C   0  0  0  0  0  2  0  0  0  0  0  0
  197.0750  172.7740  138.3340 O   0  0  0  0  0  0  0  0  0  0  0  0
  197.5260  172.2770  139.5670 C   0  0  2  0  0  3  0  0  0  0  0  0
  197.5660  174.3530  140.9660 C   0  0  1  0  0  3  0  0  0  0  0  0
  197.9400  173.8320  138.0210 C   0  0  0  0  0  2  0  0  0  0  0  0
  197.8440  175.9470  142.9100 C   0  0  0  0  0  2  0  0  0  0  0  0
  196.4790  175.3070  136.6820 C   0  0  0  0  0  3  0  0  0  0  0  0
  195.3170  175.6700  136.6430 O   0  0  0  0  0  0  0  0  0  0  0  0
  1 39  1  1  0  0  0
  1  7  1  0  0  0  0
  2  6  1  0  0  0  0
  4  5  2  0  0  0  0
  5  8  1  0  0  0  0
  5  3  1  0  0  0  0
  6  3  2  0  0  0  0
  6 10  1  0  0  0  0
  7  4  1  0  0  0  0
  7  2  2  0  0  0  0
  8  9  2  0  0  0  0
 11 10  1  0  0  0  0
 12 11  1  0  0  0  0
 13 12  1  1  0  0  0
 14 16  1  0  0  0  0
 15 13  1  0  0  0  0
 16 21  1  1  0  0  0
 16 18  1  0  0  0  0
 17 19  1  0  0  0  0
 18 25  1  1  0  0  0
 18 15  1  0  0  0  0
 19 13  1  0  0  0  0
 20 14  1  0  0  0  0
 20 17  1  0  0  0  0
 22 23  1  0  0  0  0
 23 21  1  0  0  0  0
 24 23  2  0  0  0  0
 25 28  1  0  0  0  0
 27 28  1  0  0  0  0
 28 26  1  1  0  0  0
 29 35  1  1  0  0  0
 29 30  1  0  0  0  0
 29 32  1  0  0  0  0
 30 31  1  6  0  0  0
 30 32  1  0  0  0  0
 32  1  1  6  0  0  0
 34 36  1  6  0  0  0
 34 33  1  0  0  0  0
 34 35  1  0  0  0  0
 35 33  1  6  0  0  0
 37 38  1  0  0  0  0
 38 36  1  0  0  0  0
 39 40  1  0  0  0  0
 40 42  2  0  0  0  0
 41 44  1  0  0  0  0
 44 43  1  0  0  0  0
 44 40  1  0  0  0  0
 45 41  2  0  0  0  0
 46 41  1  0  0  0  0
 47 46  1  0  0  0  0
 48 47  1  0  0  0  0
 48 49  1  0  0  0  0
 51 55  1  6  0  0  0
 51 59  1  0  0  0  0
 51 53  1  0  0  0  0
 52 62  1  6  0  0  0
 52 60  1  0  0  0  0
 52 55  1  0  0  0  0
 53 54  1  0  0  0  0
 54 61  1  0  0  0  0
 56 61  1  0  0  0  0
 57 58  1  0  0  0  0
 58 49  1  1  0  0  0
 58 50  1  0  0  0  0
 59 50  1  1  0  0  0
 59 56  1  0  0  0  0
 60 57  1  0  0  0  0
 63 62  2  0  0  0  0
M  END
>  <MODEL>
1

>  <REMARK>
 VINA RESULT:      -6.4      0.000      0.000
  Name = 
  22 active torsions:
  status: ('A' for Active; 'I' for Inactive)
    1  A    between atoms: C_1  and  C_50
    2  A    between atoms: C_2  and  N_8
    3  A    between atoms: C_4  and  C_17
    4  A    between atoms: C_4  and  C_54
    5  A    between atoms: C_6  and  C_43
    6  A    between atoms: C_7  and  C_31
    7  A    between atoms: N_8  and  C_59
    8  A    between atoms: C_12  and  C_48
    9  A    between atoms: C_14  and  C_46
   10  A    between atoms: C_14  and  C_61
   11  A    between atoms: C_16  and  C_40
   12  A    between atoms: C_19  and  C_42
   13  A    between atoms: C_24  and  C_27
   14  A    between atoms: C_24  and  C_38
   15  A    between atoms: C_27  and  N_53
   16  A    between atoms: C_33  and  C_51
   17  A    between atoms: C_33  and  C_59
   18  A    between atoms: C_35  and  C_42
   19  A    between atoms: C_43  and  N_53
   20  A    between atoms: C_50  and  C_60
   21  A    between atoms: C_55  and  C_60
   22  A    between atoms: C_58  and  C_60
                            x       y       z     vdW  Elec       q    Type
                         _______ _______ _______ _____ _____    ______ ____

>  <TORSDO>
F 22

$$$$
=
 OpenBabel11042419383D

 63 68  0  0  1  0  0  0  0  0999 V2000
  189.3430  175.7070  143.6590 C   0  0  2  0  0  3  0  0  0  0  0  0
  190.2980  173.4480  143.1710 C   0  0  0  0  0  3  0  0  0  0  0  0
  192.3680  173.1780  141.9440 C   0  0  0  0  0  3  0  0  0  0  0  0
  191.5180  175.3930  142.4060 C   0  0  0  0  0  3  0  0  0  0  0  0
  192.5020  174.5650  141.8450 C   0  0  0  0  0  0  0  0  0  0  0  0
  191.2740  172.6170  142.6100 C   0  0  0  0  0  0  0  0  0  0  0  0
  190.4170  174.8370  143.0740 C   0  0  0  0  0  0  0  0  0  0  0  0
  193.6640  175.1180  141.1390 C   0  0  0  0  0  3  0  0  0  0  0  0
  194.3880  176.1220  141.6210 C   0  0  0  0  0  2  0  0  0  0  0  0
  191.1300  171.1310  142.6770 C   0  0  0  0  0  2  0  0  0  0  0  0
  190.6200  170.5610  141.3580 C   0  0  0  0  0  2  0  0  0  0  0  0
  191.6650  169.7940  140.6980 N   0  0  0  0  0  2  0  0  0  0  0  0
  191.7610  170.2630  139.3240 C   0  0  1  0  0  3  0  0  0  0  0  0
  193.9510  172.8030  137.9790 C   0  0  0  0  0  2  0  0  0  0  0  0
  191.5440  171.7770  139.2720 C   0  0  0  0  0  2  0  0  0  0  0  0
  192.7210  172.5120  137.0990 C   0  0  2  0  0  3  0  0  0  0  0  0
  194.2640  170.6560  139.3150 C   0  0  0  0  0  2  0  0  0  0  0  0
  191.3870  172.3020  137.8450 C   0  0  2  0  0  3  0  0  0  0  0  0
  193.1090  169.8430  138.7410 C   0  0  0  0  0  2  0  0  0  0  0  0
  194.8400  171.5850  138.2530 C   0  0  0  0  0  2  0  0  0  0  0  0
  192.9660  171.4800  135.9980 C   0  0  0  0  0  2  0  0  0  0  0  0
  190.9730  171.9340  134.5190 N   0  0  0  0  0  1  0  0  0  0  0  0
  191.6860  171.0460  135.3740 C   0  0  0  0  0  0  0  0  0  0  0  0
  191.2350  169.8930  135.5950 O   0  0  0  0  0  0  0  0  0  0  0  0
  190.6170  173.6150  137.8970 C   0  0  0  0  0  2  0  0  0  0  0  0
  188.8640  173.8510  139.6520 C   0  0  0  0  0  1  0  0  0  0  0  0
  188.3560  174.1050  137.3460 O   0  0  0  0  0  1  0  0  0  0  0  0
  189.1520  173.3880  138.2360 C   0  0  1  0  0  3  0  0  0  0  0  0
  187.3330  177.0570  143.0340 C   0  0  1  0  0  3  0  0  0  0  0  0
  187.3910  175.9460  142.0030 C   0  0  2  0  0  3  0  0  0  0  0  0
  187.0530  174.7340  142.6120 O   0  0  0  0  0  1  0  0  0  0  0  0
  188.6820  176.5480  142.5650 C   0  0  2  0  0  3  0  0  0  0  0  0
  185.9360  178.2110  141.4700 O   0  0  0  0  0  0  0  0  0  0  0  0
  185.6950  178.9770  142.6270 C   0  0  2  0  0  3  0  0  0  0  0  0
  187.0340  178.3780  142.3360 C   0  0  1  0  0  3  0  0  0  0  0  0
  184.8090  178.1840  143.5820 C   0  0  0  0  0  2  0  0  0  0  0  0
  185.6870  179.5590  145.3100 O   0  0  0  0  0  1  0  0  0  0  0  0
  184.5050  179.0250  144.8050 C   0  0  0  0  0  2  0  0  0  0  0  0
  189.8900  176.6220  144.7540 C   0  0  0  0  0  2  0  0  0  0  0  0
  190.3820  175.8380  145.9320 C   0  0  0  0  0  0  0  0  0  0  0  0
  192.7800  176.6660  145.7360 C   0  0  0  0  0  0  0  0  0  0  0  0
  189.5470  175.1650  146.5940 O   0  0  0  0  0  0  0  0  0  0  0  0
  192.1360  174.9820  147.3220 O   0  0  0  0  0  1  0  0  0  0  0  0
  191.7700  175.8200  146.3200 N   0  0  0  0  0  0  0  0  0  0  0  0
  192.5050  177.4630  144.8000 O   0  0  0  0  0  0  0  0  0  0  0  0
  194.1830  176.6160  146.2460 C   0  0  0  0  0  2  0  0  0  0  0  0
  195.0680  176.1510  145.1920 N   0  0  0  0  0  2  0  0  0  0  0  0
  195.5570  174.8430  145.5910 C   0  0  0  0  0  2  0  0  0  0  0  0
  195.0030  173.7950  144.6430 C   0  0  0  0  0  2  0  0  0  0  0  0
  195.5780  171.7650  143.3540 C   0  0  0  0  0  2  0  0  0  0  0  0
  196.5820  169.4320  143.3810 N   0  0  2  0  0  0  0  0  0  0  0  0
  196.7410  169.6200  145.8490 C   0  0  1  0  0  3  0  0  0  0  0  0
  195.8140  168.7310  142.3520 C   0  0  0  0  0  2  0  0  0  0  0  0
  196.6230  168.6220  141.0550 C   0  0  0  0  0  2  0  0  0  0  0  0
  195.8670  169.2570  144.6460 C   0  0  0  0  0  2  0  0  0  0  0  0
  197.1230  171.0430  141.5190 C   0  0  0  0  0  2  0  0  0  0  0  0
  195.6810  171.7900  145.7640 O   0  0  0  0  0  0  0  0  0  0  0  0
  195.8940  172.5670  144.6150 C   0  0  2  0  0  3  0  0  0  0  0  0
  196.7610  170.8590  143.0020 C   0  0  1  0  0  3  0  0  0  0  0  0
  196.8980  171.1350  146.0000 C   0  0  0  0  0  2  0  0  0  0  0  0
  197.6520  169.7480  140.9120 C   0  0  0  0  0  2  0  0  0  0  0  0
  196.1500  169.0530  147.1020 C   0  0  0  0  0  3  0  0  0  0  0  0
  196.8700  168.6670  148.0060 O   0  0  0  0  0  0  0  0  0  0  0  0
  1 39  1  1  0  0  0
  3  6  1  0  0  0  0
  4  7  2  0  0  0  0
  5  3  2  0  0  0  0
  5  4  1  0  0  0  0
  6 10  1  0  0  0  0
  6  2  2  0  0  0  0
  7  2  1  0  0  0  0
  7  1  1  0  0  0  0
  8  9  2  0  0  0  0
  8  5  1  0  0  0  0
 11 10  1  0  0  0  0
 12 11  1  0  0  0  0
 13 12  1  1  0  0  0
 14 20  1  0  0  0  0
 15 13  1  0  0  0  0
 16 21  1  1  0  0  0
 16 18  1  0  0  0  0
 16 14  1  0  0  0  0
 18 25  1  1  0  0  0
 18 15  1  0  0  0  0
 19 17  1  0  0  0  0
 19 13  1  0  0  0  0
 20 17  1  0  0  0  0
 22 23  1  0  0  0  0
 23 24  2  0  0  0  0
 23 21  1  0  0  0  0
 25 28  1  0  0  0  0
 27 28  1  0  0  0  0
 28 26  1  1  0  0  0
 29 35  1  6  0  0  0
 30 32  1  0  0  0  0
 30 31  1  1  0  0  0
 30 29  1  0  0  0  0
 32 29  1  0  0  0  0
 32  1  1  1  0  0  0
 33 34  1  0  0  0  0
 34 36  1  1  0  0  0
 35 33  1  6  0  0  0
 35 34  1  0  0  0  0
 36 38  1  0  0  0  0
 38 37  1  0  0  0  0
 39 40  1  0  0  0  0
 40 44  1  0  0  0  0
 40 42  2  0  0  0  0
 41 46  1  0  0  0  0
 41 44  1  0  0  0  0
 44 43  1  0  0  0  0
 45 41  2  0  0  0  0
 47 48  1  0  0  0  0
 47 46  1  0  0  0  0
 49 48  1  0  0  0  0
 50 58  1  0  0  0  0
 51 53  1  6  0  0  0
 51 55  1  0  0  0  0
 52 60  1  0  0  0  0
 52 62  1  1  0  0  0
 54 53  1  0  0  0  0
 55 52  1  0  0  0  0
 57 60  1  0  0  0  0
 58 49  1  1  0  0  0
 58 57  1  0  0  0  0
 59 56  1  6  0  0  0
 59 50  1  0  0  0  0
 59 51  1  0  0  0  0
 61 54  1  0  0  0  0
 61 56  1  0  0  0  0
 62 63  2  0  0  0  0
M  END
>  <MODEL>
2

>  <REMARK>
 VINA RESULT:      -6.2      2.911      7.842
  Name = 
  22 active torsions:
  status: ('A' for Active; 'I' for Inactive)
    1  A    between atoms: C_1  and  C_50
    2  A    between atoms: C_2  and  N_8
    3  A    between atoms: C_4  and  C_17
    4  A    between atoms: C_4  and  C_54
    5  A    between atoms: C_6  and  C_43
    6  A    between atoms: C_7  and  C_31
    7  A    between atoms: N_8  and  C_59
    8  A    between atoms: C_12  and  C_48
    9  A    between atoms: C_14  and  C_46
   10  A    between atoms: C_14  and  C_61
   11  A    between atoms: C_16  and  C_40
   12  A    between atoms: C_19  and  C_42
   13  A    between atoms: C_24  and  C_27
   14  A    between atoms: C_24  and  C_38
   15  A    between atoms: C_27  and  N_53
   16  A    between atoms: C_33  and  C_51
   17  A    between atoms: C_33  and  C_59
   18  A    between atoms: C_35  and  C_42
   19  A    between atoms: C_43  and  N_53
   20  A    between atoms: C_50  and  C_60
   21  A    between atoms: C_55  and  C_60
   22  A    between atoms: C_58  and  C_60
                            x       y       z     vdW  Elec       q    Type
                         _______ _______ _______ _____ _____    ______ ____

>  <TORSDO>
F 22

$$$$
=
 OpenBabel11042419383D

 63 68  0  0  1  0  0  0  0  0999 V2000
  189.4720  175.7540  143.4460 C   0  0  2  0  0  3  0  0  0  0  0  0
  190.2640  173.5790  142.4980 C   0  0  0  0  0  3  0  0  0  0  0  0
  192.3850  173.3890  141.3460 C   0  0  0  0  0  3  0  0  0  0  0  0
  191.6960  175.5160  142.2640 C   0  0  0  0  0  3  0  0  0  0  0  0
  192.6430  174.7430  141.5760 C   0  0  0  0  0  0  0  0  0  0  0  0
  191.2030  172.8030  141.8100 C   0  0  0  0  0  0  0  0  0  0  0  0
  190.5070  174.9360  142.7300 C   0  0  0  0  0  0  0  0  0  0  0  0
  193.8950  175.3230  141.0750 C   0  0  0  0  0  3  0  0  0  0  0  0
  194.8200  175.8400  141.8760 C   0  0  0  0  0  2  0  0  0  0  0  0
  190.9290  171.3620  141.5260 C   0  0  0  0  0  2  0  0  0  0  0  0
  190.2570  171.1810  140.1700 C   0  0  0  0  0  2  0  0  0  0  0  0
  191.1860  170.5950  139.2160 N   0  0  0  0  0  2  0  0  0  0  0  0
  191.2670  171.4850  138.0680 C   0  0  1  0  0  3  0  0  0  0  0  0
  192.6010  170.7800  134.7850 C   0  0  0  0  0  2  0  0  0  0  0  0
  192.7160  171.5870  137.5860 C   0  0  0  0  0  2  0  0  0  0  0  0
  192.5140  172.2820  135.1120 C   0  0  2  0  0  3  0  0  0  0  0  0
  190.8370  169.7270  136.2940 C   0  0  0  0  0  2  0  0  0  0  0  0
  192.9150  172.6890  136.5450 C   0  0  2  0  0  3  0  0  0  0  0  0
  190.3190  170.9880  136.9760 C   0  0  0  0  0  2  0  0  0  0  0  0
  191.2630  170.0330  134.8630 C   0  0  0  0  0  2  0  0  0  0  0  0
  191.2310  172.9580  134.6290 C   0  0  0  0  0  2  0  0  0  0  0  0
  190.2650  174.7370  136.1360 N   0  0  0  0  0  1  0  0  0  0  0  0
  191.1620  174.3720  135.0910 C   0  0  0  0  0  0  0  0  0  0  0  0
  191.9000  175.2440  134.5660 O   0  0  0  0  0  0  0  0  0  0  0  0
  194.3770  173.1130  136.5670 C   0  0  0  0  0  2  0  0  0  0  0  0
  195.9150  174.9280  137.3080 C   0  0  0  0  0  1  0  0  0  0  0  0
  193.5670  175.0820  137.6250 O   0  0  0  0  0  1  0  0  0  0  0  0
  194.6310  174.1830  137.6170 C   0  0  1  0  0  3  0  0  0  0  0  0
  187.4090  177.1080  143.0470 C   0  0  1  0  0  3  0  0  0  0  0  0
  187.4190  176.0800  141.9330 C   0  0  2  0  0  3  0  0  0  0  0  0
  187.1360  174.8190  142.4680 O   0  0  0  0  0  1  0  0  0  0  0  0
  188.7330  176.6610  142.4610 C   0  0  2  0  0  3  0  0  0  0  0  0
  185.9210  178.3440  141.6350 O   0  0  0  0  0  0  0  0  0  0  0  0
  185.7080  179.0080  142.8600 C   0  0  2  0  0  3  0  0  0  0  0  0
  187.0490  178.4730  142.4700 C   0  0  1  0  0  3  0  0  0  0  0  0
  184.8810  178.1170  143.7790 C   0  0  0  0  0  2  0  0  0  0  0  0
  185.6490  179.2110  145.7440 O   0  0  0  0  0  1  0  0  0  0  0  0
  184.5010  178.8910  145.0250 C   0  0  0  0  0  2  0  0  0  0  0  0
  190.0890  176.5970  144.5610 C   0  0  0  0  0  2  0  0  0  0  0  0
  190.4230  175.7630  145.7600 C   0  0  0  0  0  0  0  0  0  0  0  0
  192.8730  176.4500  145.8040 C   0  0  0  0  0  0  0  0  0  0  0  0
  189.4930  175.1280  146.3270 O   0  0  0  0  0  0  0  0  0  0  0  0
  191.9890  174.7790  147.2840 O   0  0  0  0  0  1  0  0  0  0  0  0
  191.7660  175.6550  146.2740 N   0  0  0  0  0  0  0  0  0  0  0  0
  192.7320  177.2790  144.8670 O   0  0  0  0  0  0  0  0  0  0  0  0
  194.2170  176.3070  146.4390 C   0  0  0  0  0  2  0  0  0  0  0  0
  195.1900  175.9090  145.4360 N   0  0  0  0  0  2  0  0  0  0  0  0
  195.4890  174.5060  145.6650 C   0  0  0  0  0  2  0  0  0  0  0  0
  196.9480  174.2490  145.3380 C   0  0  0  0  0  2  0  0  0  0  0  0
  195.9510  172.7380  143.6540 C   0  0  0  0  0  2  0  0  0  0  0  0
  195.7700  170.3700  142.7510 N   0  0  2  0  0  0  0  0  0  0  0  0
  197.1140  169.6170  144.6940 C   0  0  1  0  0  3  0  0  0  0  0  0
  194.4000  170.3170  142.2400 C   0  0  0  0  0  2  0  0  0  0  0  0
  194.3870  170.4640  140.7150 C   0  0  0  0  0  2  0  0  0  0  0  0
  195.7230  169.9550  144.1530 C   0  0  0  0  0  2  0  0  0  0  0  0
  196.0060  172.3310  141.1830 C   0  0  0  0  0  2  0  0  0  0  0  0
  197.1560  171.8730  145.5560 O   0  0  0  0  0  0  0  0  0  0  0  0
  197.1160  172.9210  144.6230 C   0  0  2  0  0  3  0  0  0  0  0  0
  196.3320  171.7340  142.5620 C   0  0  1  0  0  3  0  0  0  0  0  0
  197.9410  170.8760  144.9620 C   0  0  0  0  0  2  0  0  0  0  0  0
  195.5960  171.2460  140.1930 C   0  0  0  0  0  2  0  0  0  0  0  0
  196.9950  168.8220  145.9560 C   0  0  0  0  0  3  0  0  0  0  0  0
  197.9410  168.7250  146.7190 O   0  0  0  0  0  0  0  0  0  0  0  0
  1 39  1  1  0  0  0
  2  7  1  0  0  0  0
  3  5  2  0  0  0  0
  3  6  1  0  0  0  0
  4  7  2  0  0  0  0
  5  4  1  0  0  0  0
  6  2  2  0  0  0  0
  7  1  1  0  0  0  0
  8  5  1  0  0  0  0
  8  9  2  0  0  0  0
 10  6  1  0  0  0  0
 11 10  1  0  0  0  0
 12 11  1  0  0  0  0
 13 12  1  1  0  0  0
 14 20  1  0  0  0  0
 14 16  1  0  0  0  0
 15 13  1  0  0  0  0
 16 21  1  1  0  0  0
 16 18  1  0  0  0  0
 17 19  1  0  0  0  0
 18 25  1  6  0  0  0
 18 15  1  0  0  0  0
 19 13  1  0  0  0  0
 20 17  1  0  0  0  0
 21 23  1  0  0  0  0
 23 22  1  0  0  0  0
 24 23  2  0  0  0  0
 25 28  1  0  0  0  0
 28 26  1  6  0  0  0
 28 27  1  0  0  0  0
 29 35  1  6  0  0  0
 30 32  1  0  0  0  0
 30 31  1  1  0  0  0
 30 29  1  0  0  0  0
 32 29  1  0  0  0  0
 32  1  1  1  0  0  0
 33 34  1  0  0  0  0
 34 36  1  1  0  0  0
 35 33  1  6  0  0  0
 35 34  1  0  0  0  0
 36 38  1  0  0  0  0
 38 37  1  0  0  0  0
 39 40  1  0  0  0  0
 40 44  1  0  0  0  0
 40 42  2  0  0  0  0
 41 44  1  0  0  0  0
 41 46  1  0  0  0  0
 44 43  1  0  0  0  0
 45 41  2  0  0  0  0
 47 48  1  0  0  0  0
 47 46  1  0  0  0  0
 49 48  1  0  0  0  0
 50 58  1  0  0  0  0
 51 53  1  1  0  0  0
 51 55  1  0  0  0  0
 52 60  1  0  0  0  0
 52 62  1  1  0  0  0
 54 53  1  0  0  0  0
 55 52  1  0  0  0  0
 58 49  1  1  0  0  0
 58 57  1  0  0  0  0
 59 56  1  6  0  0  0
 59 51  1  0  0  0  0
 59 50  1  0  0  0  0
 60 57  1  0  0  0  0
 61 54  1  0  0  0  0
 61 56  1  0  0  0  0
 62 63  2  0  0  0  0
M  END
>  <MODEL>
3

>  <REMARK>
 VINA RESULT:      -6.0      2.778      8.175
  Name = 
  22 active torsions:
  status: ('A' for Active; 'I' for Inactive)
    1  A    between atoms: C_1  and  C_50
    2  A    between atoms: C_2  and  N_8
    3  A    between atoms: C_4  and  C_17
    4  A    between atoms: C_4  and  C_54
    5  A    between atoms: C_6  and  C_43
    6  A    between atoms: C_7  and  C_31
    7  A    between atoms: N_8  and  C_59
    8  A    between atoms: C_12  and  C_48
    9  A    between atoms: C_14  and  C_46
   10  A    between atoms: C_14  and  C_61
   11  A    between atoms: C_16  and  C_40
   12  A    between atoms: C_19  and  C_42
   13  A    between atoms: C_24  and  C_27
   14  A    between atoms: C_24  and  C_38
   15  A    between atoms: C_27  and  N_53
   16  A    between atoms: C_33  and  C_51
   17  A    between atoms: C_33  and  C_59
   18  A    between atoms: C_35  and  C_42
   19  A    between atoms: C_43  and  N_53
   20  A    between atoms: C_50  and  C_60
   21  A    between atoms: C_55  and  C_60
   22  A    between atoms: C_58  and  C_60
                            x       y       z     vdW  Elec       q    Type
                         _______ _______ _______ _____ _____    ______ ____

>  <TORSDO>
F 22

$$$$
=
 OpenBabel11042419383D

 63 68  0  0  1  0  0  0  0  0999 V2000
  189.6560  175.6720  143.4500 C   0  0  2  0  0  3  0  0  0  0  0  0
  190.5670  173.3790  143.0410 C   0  0  0  0  0  3  0  0  0  0  0  0
  192.5490  173.0160  141.6980 C   0  0  0  0  0  3  0  0  0  0  0  0
  191.7410  175.2630  142.0770 C   0  0  0  0  0  3  0  0  0  0  0  0
  192.6810  174.3940  141.5030 C   0  0  0  0  0  0  0  0  0  0  0  0
  191.5000  172.5060  142.4690 C   0  0  0  0  0  0  0  0  0  0  0  0
  190.6840  174.7590  142.8500 C   0  0  0  0  0  0  0  0  0  0  0  0
  193.7960  174.8920  140.6880 C   0  0  0  0  0  3  0  0  0  0  0  0
  195.0690  174.7180  141.0260 C   0  0  0  0  0  2  0  0  0  0  0  0
  191.3550  171.0290  142.6380 C   0  0  0  0  0  2  0  0  0  0  0  0
  190.5730  170.4110  141.4840 C   0  0  0  0  0  2  0  0  0  0  0  0
  191.4830  169.9150  140.4620 N   0  0  0  0  0  2  0  0  0  0  0  0
  191.0790  170.4900  139.1880 C   0  0  1  0  0  3  0  0  0  0  0  0
  192.0930  169.4910  135.8670 C   0  0  0  0  0  2  0  0  0  0  0  0
  192.3150  170.9270  138.3980 C   0  0  0  0  0  2  0  0  0  0  0  0
  191.5300  170.9230  135.9420 C   0  0  2  0  0  3  0  0  0  0  0  0
  191.0490  168.3220  137.8770 C   0  0  0  0  0  2  0  0  0  0  0  0
  191.9620  171.7590  137.1650 C   0  0  2  0  0  3  0  0  0  0  0  0
  190.2230  169.4790  138.4270 C   0  0  0  0  0  2  0  0  0  0  0  0
  191.1300  168.4020  136.3570 C   0  0  0  0  0  2  0  0  0  0  0  0
  190.0360  171.0270  135.6360 C   0  0  0  0  0  2  0  0  0  0  0  0
  189.7880  173.4430  134.9500 N   0  0  0  0  0  1  0  0  0  0  0  0
  189.5310  172.4050  135.8900 C   0  0  0  0  0  0  0  0  0  0  0  0
  188.8710  172.6530  136.9320 O   0  0  0  0  0  0  0  0  0  0  0  0
  193.1680  172.6140  136.8000 C   0  0  0  0  0  2  0  0  0  0  0  0
  194.0830  174.9300  136.8590 C   0  0  0  0  0  1  0  0  0  0  0  0
  191.8530  174.4580  137.5250 O   0  0  0  0  0  1  0  0  0  0  0  0
  193.1490  173.9450  137.5340 C   0  0  1  0  0  3  0  0  0  0  0  0
  187.6020  176.9600  142.8420 C   0  0  1  0  0  3  0  0  0  0  0  0
  187.6670  175.8340  141.8290 C   0  0  2  0  0  3  0  0  0  0  0  0
  187.3710  174.6250  142.4660 O   0  0  0  0  0  1  0  0  0  0  0  0
  188.9530  176.4760  142.3560 C   0  0  2  0  0  3  0  0  0  0  0  0
  186.0560  178.0960  141.4090 O   0  0  0  0  0  0  0  0  0  0  0  0
  185.9800  178.9150  142.5520 C   0  0  2  0  0  3  0  0  0  0  0  0
  187.2560  178.2620  142.1280 C   0  0  1  0  0  3  0  0  0  0  0  0
  185.1950  178.1920  143.6410 C   0  0  0  0  0  2  0  0  0  0  0  0
  183.8460  179.0380  145.4050 O   0  0  0  0  0  1  0  0  0  0  0  0
  185.1360  179.0580  144.8820 C   0  0  0  0  0  2  0  0  0  0  0  0
  190.2730  176.6230  144.4750 C   0  0  0  0  0  2  0  0  0  0  0  0
  190.4710  175.9510  145.7990 C   0  0  0  0  0  0  0  0  0  0  0  0
  193.0030  176.1990  145.7720 C   0  0  0  0  0  0  0  0  0  0  0  0
  189.4510  175.5900  146.4460 O   0  0  0  0  0  0  0  0  0  0  0  0
  191.8590  174.9720  147.4890 O   0  0  0  0  0  1  0  0  0  0  0  0
  191.7810  175.6970  146.3460 N   0  0  0  0  0  0  0  0  0  0  0  0
  192.9980  176.8750  144.7090 O   0  0  0  0  0  0  0  0  0  0  0  0
  194.3100  175.9300  146.4440 C   0  0  0  0  0  2  0  0  0  0  0  0
  195.2870  175.5040  145.4570 N   0  0  0  0  0  2  0  0  0  0  0  0
  195.4050  174.0610  145.5700 C   0  0  0  0  0  2  0  0  0  0  0  0
  194.4480  173.4060  144.5920 C   0  0  0  0  0  2  0  0  0  0  0  0
  195.5220  171.4370  145.6330 C   0  0  0  0  0  2  0  0  0  0  0  0
  196.6450  169.1840  145.2870 N   0  0  2  0  0  0  0  0  0  0  0  0
  196.5770  169.6200  142.8470 C   0  0  1  0  0  3  0  0  0  0  0  0
  197.5990  169.1190  146.3930 C   0  0  0  0  0  2  0  0  0  0  0  0
  197.0640  168.2220  147.5150 C   0  0  0  0  0  2  0  0  0  0  0  0
  197.3310  169.8210  144.1630 C   0  0  0  0  0  2  0  0  0  0  0  0
  194.9370  169.5040  147.1150 C   0  0  0  0  0  2  0  0  0  0  0  0
  195.6110  171.7980  143.2500 O   0  0  0  0  0  0  0  0  0  0  0  0
  194.8010  171.9430  144.3870 C   0  0  2  0  0  3  0  0  0  0  0  0
  195.4180  169.9110  145.7130 C   0  0  1  0  0  3  0  0  0  0  0  0
  195.3370  170.5130  142.7600 C   0  0  0  0  0  2  0  0  0  0  0  0
  195.5330  168.1660  147.5380 C   0  0  0  0  0  2  0  0  0  0  0  0
  197.4790  169.9090  141.6880 C   0  0  0  0  0  3  0  0  0  0  0  0
  197.0160  170.1410  140.5850 O   0  0  0  0  0  0  0  0  0  0  0  0
  1 39  1  1  0  0  0
  3  6  1  0  0  0  0
  4  7  2  0  0  0  0
  5  3  2  0  0  0  0
  5  4  1  0  0  0  0
  6 10  1  0  0  0  0
  6  2  2  0  0  0  0
  7  2  1  0  0  0  0
  7  1  1  0  0  0  0
  8  9  2  0  0  0  0
  8  5  1  0  0  0  0
 11 10  1  0  0  0  0
 12 11  1  0  0  0  0
 13 12  1  1  0  0  0
 14 16  1  0  0  0  0
 14 20  1  0  0  0  0
 15 13  1  0  0  0  0
 16 21  1  1  0  0  0
 16 18  1  0  0  0  0
 17 19  1  0  0  0  0
 18 25  1  6  0  0  0
 18 15  1  0  0  0  0
 19 13  1  0  0  0  0
 20 17  1  0  0  0  0
 21 23  1  0  0  0  0
 22 23  1  0  0  0  0
 23 24  2  0  0  0  0
 25 28  1  0  0  0  0
 27 28  1  0  0  0  0
 28 26  1  6  0  0  0
 29 35  1  6  0  0  0
 30 32  1  0  0  0  0
 30 31  1  1  0  0  0
 30 29  1  0  0  0  0
 32 29  1  0  0  0  0
 32  1  1  1  0  0  0
 33 34  1  0  0  0  0
 34 36  1  1  0  0  0
 35 33  1  6  0  0  0
 35 34  1  0  0  0  0
 36 38  1  0  0  0  0
 38 37  1  0  0  0  0
 39 40  1  0  0  0  0
 40 44  1  0  0  0  0
 40 42  2  0  0  0  0
 41 44  1  0  0  0  0
 41 46  1  0  0  0  0
 44 43  1  0  0  0  0
 45 41  2  0  0  0  0
 47 48  1  0  0  0  0
 47 46  1  0  0  0  0
 49 48  1  0  0  0  0
 51 55  1  6  0  0  0
 51 59  1  0  0  0  0
 51 53  1  0  0  0  0
 52 62  1  6  0  0  0
 52 55  1  0  0  0  0
 53 54  1  0  0  0  0
 54 61  1  0  0  0  0
 56 61  1  0  0  0  0
 57 58  1  0  0  0  0
 58 49  1  1  0  0  0
 58 50  1  0  0  0  0
 59 50  1  1  0  0  0
 59 56  1  0  0  0  0
 60 52  1  0  0  0  0
 60 57  1  0  0  0  0
 63 62  2  0  0  0  0
M  END
>  <MODEL>
4

>  <REMARK>
 VINA RESULT:      -6.0      2.989      8.008
  Name = 
  22 active torsions:
  status: ('A' for Active; 'I' for Inactive)
    1  A    between atoms: C_1  and  C_50
    2  A    between atoms: C_2  and  N_8
    3  A    between atoms: C_4  and  C_17
    4  A    between atoms: C_4  and  C_54
    5  A    between atoms: C_6  and  C_43
    6  A    between atoms: C_7  and  C_31
    7  A    between atoms: N_8  and  C_59
    8  A    between atoms: C_12  and  C_48
    9  A    between atoms: C_14  and  C_46
   10  A    between atoms: C_14  and  C_61
   11  A    between atoms: C_16  and  C_40
   12  A    between atoms: C_19  and  C_42
   13  A    between atoms: C_24  and  C_27
   14  A    between atoms: C_24  and  C_38
   15  A    between atoms: C_27  and  N_53
   16  A    between atoms: C_33  and  C_51
   17  A    between atoms: C_33  and  C_59
   18  A    between atoms: C_35  and  C_42
   19  A    between atoms: C_43  and  N_53
   20  A    between atoms: C_50  and  C_60
   21  A    between atoms: C_55  and  C_60
   22  A    between atoms: C_58  and  C_60
                            x       y       z     vdW  Elec       q    Type
                         _______ _______ _______ _____ _____    ______ ____

>  <TORSDO>
F 22

$$$$
=
 OpenBabel11042419383D

 63 68  0  0  1  0  0  0  0  0999 V2000
  192.0890  172.7020  143.0020 C   0  0  2  0  0  3  0  0  0  0  0  0
  191.8680  174.0140  145.1190 C   0  0  0  0  0  3  0  0  0  0  0  0
  193.8040  174.8380  146.3160 C   0  0  0  0  0  3  0  0  0  0  0  0
  194.0920  173.6010  144.2590 C   0  0  0  0  0  3  0  0  0  0  0  0
  194.6480  174.2950  145.3440 C   0  0  0  0  0  0  0  0  0  0  0  0
  192.4170  174.7050  146.2050 C   0  0  0  0  0  0  0  0  0  0  0  0
  192.7010  173.4620  144.1420 C   0  0  0  0  0  0  0  0  0  0  0  0
  196.1000  174.4550  145.4940 C   0  0  0  0  0  3  0  0  0  0  0  0
  196.8720  173.5290  146.0540 C   0  0  0  0  0  2  0  0  0  0  0  0
  191.5310  175.2620  147.2710 C   0  0  0  0  0  2  0  0  0  0  0  0
  190.1230  175.5210  146.7460 C   0  0  0  0  0  2  0  0  0  0  0  0
  189.5720  176.7270  147.3450 N   0  0  0  0  0  2  0  0  0  0  0  0
  188.7530  177.3890  146.3410 C   0  0  1  0  0  3  0  0  0  0  0  0
  185.5730  176.3230  144.9960 C   0  0  0  0  0  2  0  0  0  0  0  0
  188.4840  176.4350  145.1750 C   0  0  0  0  0  2  0  0  0  0  0  0
  186.3180  177.3360  144.1060 C   0  0  2  0  0  3  0  0  0  0  0  0
  186.5040  176.7640  147.3270 C   0  0  0  0  0  2  0  0  0  0  0  0
  187.8420  177.1350  143.9770 C   0  0  2  0  0  3  0  0  0  0  0  0
  187.4680  177.8970  146.9930 C   0  0  0  0  0  2  0  0  0  0  0  0
  185.2830  176.8180  146.4180 C   0  0  0  0  0  2  0  0  0  0  0  0
  185.9190  178.7920  144.3430 C   0  0  0  0  0  2  0  0  0  0  0  0
  183.9450  178.1990  142.8860 N   0  0  0  0  0  1  0  0  0  0  0  0
  184.5350  179.0560  143.8590 C   0  0  0  0  0  0  0  0  0  0  0  0
  183.8830  180.0310  144.3130 O   0  0  0  0  0  0  0  0  0  0  0  0
  188.1470  176.3230  142.7250 C   0  0  0  0  0  2  0  0  0  0  0  0
  186.6820  177.2440  140.9320 C   0  0  0  0  0  1  0  0  0  0  0  0
  188.5220  178.4770  141.7890 O   0  0  0  0  0  1  0  0  0  0  0  0
  188.0970  177.1870  141.4750 C   0  0  1  0  0  3  0  0  0  0  0  0
  190.5880  173.1610  141.0560 C   0  0  1  0  0  3  0  0  0  0  0  0
  191.0070  174.5310  141.5550 C   0  0  2  0  0  3  0  0  0  0  0  0
  192.3550  174.7390  141.2500 O   0  0  0  0  0  1  0  0  0  0  0  0
  190.7970  173.3790  142.5410 C   0  0  2  0  0  3  0  0  0  0  0  0
  188.8020  174.1920  139.8390 O   0  0  0  0  0  0  0  0  0  0  0  0
  188.7100  172.8750  139.3450 C   0  0  2  0  0  3  0  0  0  0  0  0
  189.0930  173.1670  140.7610 C   0  0  1  0  0  3  0  0  0  0  0  0
  189.8660  172.6130  138.3870 C   0  0  0  0  0  2  0  0  0  0  0  0
  189.5200  171.0570  136.6240 O   0  0  0  0  0  1  0  0  0  0  0  0
  189.3240  172.3860  136.9900 C   0  0  0  0  0  2  0  0  0  0  0  0
  191.8050  171.2480  143.3780 C   0  0  0  0  0  2  0  0  0  0  0  0
  193.0510  170.5390  143.8120 C   0  0  0  0  0  0  0  0  0  0  0  0
  193.9660  170.2810  141.4510 C   0  0  0  0  0  0  0  0  0  0  0  0
  193.2520  170.3820  145.0460 O   0  0  0  0  0  0  0  0  0  0  0  0
  195.0450  169.2900  143.3540 O   0  0  0  0  0  1  0  0  0  0  0  0
  194.0140  170.0260  142.8690 N   0  0  0  0  0  0  0  0  0  0  0  0
  193.0340  170.9540  140.9380 O   0  0  0  0  0  0  0  0  0  0  0  0
  195.0430  169.7530  140.5610 C   0  0  0  0  0  2  0  0  0  0  0  0
  194.5770  169.7460  139.1850 N   0  0  0  0  0  2  0  0  0  0  0  0
  195.4150  170.6760  138.4460 C   0  0  0  0  0  2  0  0  0  0  0  0
  196.7310  170.8510  139.1810 C   0  0  0  0  0  2  0  0  0  0  0  0
  196.6280  173.0300  140.3450 C   0  0  0  0  0  2  0  0  0  0  0  0
  196.8480  175.5550  140.1730 N   0  0  2  0  0  0  0  0  0  0  0  0
  197.0800  175.2830  137.7190 C   0  0  1  0  0  3  0  0  0  0  0  0
  195.8890  176.0370  141.1670 C   0  0  0  0  0  2  0  0  0  0  0  0
  196.6120  176.4700  142.4470 C   0  0  0  0  0  2  0  0  0  0  0  0
  196.1260  175.4220  138.9070 C   0  0  0  0  0  2  0  0  0  0  0  0
  197.8510  174.3060  142.1200 C   0  0  0  0  0  2  0  0  0  0  0  0
  196.7550  172.8990  137.9400 O   0  0  0  0  0  0  0  0  0  0  0  0
  197.1910  172.2960  139.1300 C   0  0  2  0  0  3  0  0  0  0  0  0
  197.4630  174.2810  140.6330 C   0  0  1  0  0  3  0  0  0  0  0  0
  197.7060  173.8880  137.6540 C   0  0  0  0  0  2  0  0  0  0  0  0
  197.9410  175.7340  142.6450 C   0  0  0  0  0  2  0  0  0  0  0  0
  196.3530  175.5620  136.4410 C   0  0  0  0  0  3  0  0  0  0  0  0
  196.9270  176.0880  135.5040 O   0  0  0  0  0  0  0  0  0  0  0  0
  1 39  1  1  0  0  0
  1  7  1  0  0  0  0
  2  6  1  0  0  0  0
  4  5  2  0  0  0  0
  5  8  1  0  0  0  0
  5  3  1  0  0  0  0
  6  3  2  0  0  0  0
  6 10  1  0  0  0  0
  7  4  1  0  0  0  0
  7  2  2  0  0  0  0
  8  9  2  0  0  0  0
 11 10  1  0  0  0  0
 11 12  1  0  0  0  0
 13 19  1  0  0  0  0
 13 12  1  1  0  0  0
 14 20  1  0  0  0  0
 15 13  1  0  0  0  0
 16 21  1  1  0  0  0
 16 14  1  0  0  0  0
 18 25  1  6  0  0  0
 18 16  1  0  0  0  0
 18 15  1  0  0  0  0
 19 17  1  0  0  0  0
 20 17  1  0  0  0  0
 22 23  1  0  0  0  0
 23 24  2  0  0  0  0
 23 21  1  0  0  0  0
 28 26  1  1  0  0  0
 28 27  1  0  0  0  0
 28 25  1  0  0  0  0
 29 35  1  1  0  0  0
 29 30  1  0  0  0  0
 29 32  1  0  0  0  0
 30 31  1  6  0  0  0
 30 32  1  0  0  0  0
 32  1  1  6  0  0  0
 34 36  1  6  0  0  0
 34 33  1  0  0  0  0
 34 35  1  0  0  0  0
 35 33  1  6  0  0  0
 37 38  1  0  0  0  0
 38 36  1  0  0  0  0
 39 40  1  0  0  0  0
 40 42  2  0  0  0  0
 41 44  1  0  0  0  0
 44 43  1  0  0  0  0
 44 40  1  0  0  0  0
 45 41  2  0  0  0  0
 46 41  1  0  0  0  0
 47 46  1  0  0  0  0
 48 49  1  0  0  0  0
 48 47  1  0  0  0  0
 51 55  1  6  0  0  0
 51 59  1  0  0  0  0
 51 53  1  0  0  0  0
 52 62  1  6  0  0  0
 52 55  1  0  0  0  0
 53 54  1  0  0  0  0
 54 61  1  0  0  0  0
 56 61  1  0  0  0  0
 57 58  1  0  0  0  0
 58 49  1  6  0  0  0
 58 50  1  0  0  0  0
 59 50  1  1  0  0  0
 59 56  1  0  0  0  0
 60 52  1  0  0  0  0
 60 57  1  0  0  0  0
 63 62  2  0  0  0  0
M  END
>  <MODEL>
5

>  <REMARK>
 VINA RESULT:      -5.9      1.023      2.271
  Name = 
  22 active torsions:
  status: ('A' for Active; 'I' for Inactive)
    1  A    between atoms: C_1  and  C_50
    2  A    between atoms: C_2  and  N_8
    3  A    between atoms: C_4  and  C_17
    4  A    between atoms: C_4  and  C_54
    5  A    between atoms: C_6  and  C_43
    6  A    between atoms: C_7  and  C_31
    7  A    between atoms: N_8  and  C_59
    8  A    between atoms: C_12  and  C_48
    9  A    between atoms: C_14  and  C_46
   10  A    between atoms: C_14  and  C_61
   11  A    between atoms: C_16  and  C_40
   12  A    between atoms: C_19  and  C_42
   13  A    between atoms: C_24  and  C_27
   14  A    between atoms: C_24  and  C_38
   15  A    between atoms: C_27  and  N_53
   16  A    between atoms: C_33  and  C_51
   17  A    between atoms: C_33  and  C_59
   18  A    between atoms: C_35  and  C_42
   19  A    between atoms: C_43  and  N_53
   20  A    between atoms: C_50  and  C_60
   21  A    between atoms: C_55  and  C_60
   22  A    between atoms: C_58  and  C_60
                            x       y       z     vdW  Elec       q    Type
                         _______ _______ _______ _____ _____    ______ ____

>  <TORSDO>
F 22

$$$$
=
 OpenBabel11042419383D

 63 68  0  0  1  0  0  0  0  0999 V2000
  192.8720  170.3980  139.5850 C   0  0  2  0  0  3  0  0  0  0  0  0
  194.3870  172.3070  140.1440 C   0  0  0  0  0  3  0  0  0  0  0  0
  196.6780  171.9530  140.8430 C   0  0  0  0  0  3  0  0  0  0  0  0
  195.2780  170.0620  140.2900 C   0  0  0  0  0  3  0  0  0  0  0  0
  196.5170  170.5720  140.7040 C   0  0  0  0  0  0  0  0  0  0  0  0
  195.6200  172.8220  140.5590 C   0  0  0  0  0  0  0  0  0  0  0  0
  194.2110  170.9280  140.0050 C   0  0  0  0  0  0  0  0  0  0  0  0
  197.6510  169.6900  141.0100 C   0  0  0  0  0  3  0  0  0  0  0  0
  197.5930  168.7390  141.9360 C   0  0  0  0  0  2  0  0  0  0  0  0
  195.8000  174.2930  140.7470 C   0  0  0  0  0  2  0  0  0  0  0  0
  194.4580  175.0050  140.8810 C   0  0  0  0  0  2  0  0  0  0  0  0
  194.5490  176.0810  141.8570 N   0  0  0  0  0  2  0  0  0  0  0  0
  193.5180  175.8620  142.8590 C   0  0  1  0  0  3  0  0  0  0  0  0
  193.9380  175.1980  146.3860 C   0  0  0  0  0  2  0  0  0  0  0  0
  193.7430  174.5170  143.5550 C   0  0  0  0  0  2  0  0  0  0  0  0
  192.5640  174.7770  145.8330 C   0  0  2  0  0  3  0  0  0  0  0  0
  194.7110  177.0140  144.7740 C   0  0  0  0  0  2  0  0  0  0  0  0
  192.5670  174.1080  144.4430 C   0  0  2  0  0  3  0  0  0  0  0  0
  193.5080  177.0350  143.8380 C   0  0  0  0  0  2  0  0  0  0  0  0
  194.2730  176.6820  146.1950 C   0  0  0  0  0  2  0  0  0  0  0  0
  191.4720  175.8350  145.9910 C   0  0  0  0  0  2  0  0  0  0  0  0
  189.6770  174.3110  146.8980 N   0  0  0  0  0  1  0  0  0  0  0  0
  190.5080  175.4560  147.0610 C   0  0  0  0  0  0  0  0  0  0  0  0
  190.4300  176.1410  148.1130 O   0  0  0  0  0  0  0  0  0  0  0  0
  192.5900  172.5940  144.6030 C   0  0  0  0  0  2  0  0  0  0  0  0
  194.5040  171.4000  145.6610 C   0  0  0  0  0  1  0  0  0  0  0  0
  193.9410  171.0680  143.3780 O   0  0  0  0  0  1  0  0  0  0  0  0
  193.9850  172.0320  144.3840 C   0  0  1  0  0  3  0  0  0  0  0  0
  191.4640  170.2870  137.5220 C   0  0  1  0  0  3  0  0  0  0  0  0
  192.0240  168.8870  137.6860 C   0  0  2  0  0  3  0  0  0  0  0  0
  191.4130  168.2720  138.7840 O   0  0  0  0  0  1  0  0  0  0  0  0
  192.8600  170.1060  138.0840 C   0  0  2  0  0  3  0  0  0  0  0  0
  190.2990  171.0930  135.5920 O   0  0  0  0  0  0  0  0  0  0  0  0
  191.2330  172.1320  135.7690 C   0  0  2  0  0  3  0  0  0  0  0  0
  191.5700  170.7050  136.0600 C   0  0  1  0  0  3  0  0  0  0  0  0
  190.8280  172.9770  136.9710 C   0  0  0  0  0  2  0  0  0  0  0  0
  188.7700  174.1650  136.9470 O   0  0  0  0  0  1  0  0  0  0  0  0
  190.0860  174.2100  136.4960 C   0  0  0  0  0  2  0  0  0  0  0  0
  191.7450  171.3710  139.9310 C   0  0  0  0  0  2  0  0  0  0  0  0
  191.0580  170.9860  141.2060 C   0  0  0  0  0  0  0  0  0  0  0  0
  189.4490  172.9570  141.1680 C   0  0  0  0  0  0  0  0  0  0  0  0
  191.4050  169.9160  141.7740 O   0  0  0  0  0  0  0  0  0  0  0  0
  189.5580  171.4330  143.0210 O   0  0  0  0  0  1  0  0  0  0  0  0
  190.0300  171.8010  141.8040 N   0  0  0  0  0  0  0  0  0  0  0  0
  189.8450  173.3530  140.0400 O   0  0  0  0  0  0  0  0  0  0  0  0
  188.3470  173.7050  141.8440 C   0  0  0  0  0  2  0  0  0  0  0  0
  188.6220  175.1300  141.7910 N   0  0  0  0  0  2  0  0  0  0  0  0
  189.2280  175.4950  143.0600 C   0  0  0  0  0  2  0  0  0  0  0  0
  189.5380  176.9810  143.0540 C   0  0  0  0  0  2  0  0  0  0  0  0
  187.6780  177.2290  144.6650 C   0  0  0  0  0  2  0  0  0  0  0  0
  185.3340  178.1060  145.1010 N   0  0  2  0  0  0  0  0  0  0  0  0
  185.1950  178.6880  142.6940 C   0  0  1  0  0  3  0  0  0  0  0  0
  184.7950  177.1420  146.0590 C   0  0  0  0  0  2  0  0  0  0  0  0
  184.8340  177.7140  147.4800 C   0  0  0  0  0  2  0  0  0  0  0  0
  185.0160  177.6070  143.7630 C   0  0  0  0  0  2  0  0  0  0  0  0
  187.1590  178.4040  146.8150 C   0  0  0  0  0  2  0  0  0  0  0  0
  187.3860  177.7380  142.3250 O   0  0  0  0  0  0  0  0  0  0  0  0
  188.3000  177.7920  143.3890 C   0  0  2  0  0  3  0  0  0  0  0  0
  186.7930  178.2890  145.3260 C   0  0  1  0  0  3  0  0  0  0  0  0
  186.6720  178.9430  142.3860 C   0  0  0  0  0  2  0  0  0  0  0  0
  185.9400  178.7580  147.6600 C   0  0  0  0  0  2  0  0  0  0  0  0
  184.4860  178.2910  141.4370 C   0  0  0  0  0  3  0  0  0  0  0  0
  183.2800  178.1190  141.4340 O   0  0  0  0  0  0  0  0  0  0  0  0
  1 39  1  6  0  0  0
  1  7  1  0  0  0  0
  2  6  1  0  0  0  0
  4  5  2  0  0  0  0
  5  3  1  0  0  0  0
  5  8  1  0  0  0  0
  6 10  1  0  0  0  0
  6  3  2  0  0  0  0
  7  2  2  0  0  0  0
  7  4  1  0  0  0  0
  8  9  2  0  0  0  0
 10 11  1  0  0  0  0
 11 12  1  0  0  0  0
 13 12  1  6  0  0  0
 13 15  1  0  0  0  0
 13 19  1  0  0  0  0
 15 18  1  0  0  0  0
 16 21  1  6  0  0  0
 16 14  1  0  0  0  0
 17 20  1  0  0  0  0
 18 25  1  1  0  0  0
 18 16  1  0  0  0  0
 19 17  1  0  0  0  0
 20 14  1  0  0  0  0
 21 23  1  0  0  0  0
 22 23  1  0  0  0  0
 23 24  2  0  0  0  0
 27 28  1  0  0  0  0
 28 25  1  0  0  0  0
 28 26  1  1  0  0  0
 29 35  1  6  0  0  0
 29 30  1  0  0  0  0
 29 32  1  0  0  0  0
 30 32  1  0  0  0  0
 30 31  1  1  0  0  0
 32  1  1  1  0  0  0
 33 34  1  0  0  0  0
 34 35  1  0  0  0  0
 34 36  1  1  0  0  0
 35 33  1  6  0  0  0
 38 37  1  0  0  0  0
 38 36  1  0  0  0  0
 39 40  1  0  0  0  0
 40 42  2  0  0  0  0
 40 44  1  0  0  0  0
 41 44  1  0  0  0  0
 41 46  1  0  0  0  0
 44 43  1  0  0  0  0
 45 41  2  0  0  0  0
 47 46  1  0  0  0  0
 47 48  1  0  0  0  0
 49 48  1  0  0  0  0
 51 55  1  6  0  0  0
 51 59  1  0  0  0  0
 51 53  1  0  0  0  0
 52 62  1  6  0  0  0
 52 55  1  0  0  0  0
 53 54  1  0  0  0  0
 54 61  1  0  0  0  0
 56 61  1  0  0  0  0
 57 60  1  0  0  0  0
 57 58  1  0  0  0  0
 58 49  1  6  0  0  0
 58 50  1  0  0  0  0
 59 50  1  1  0  0  0
 59 56  1  0  0  0  0
 60 52  1  0  0  0  0
 63 62  2  0  0  0  0
M  END
>  <MODEL>
6

>  <REMARK>
 VINA RESULT:      -5.7      2.490      8.469
  Name = 
  22 active torsions:
  status: ('A' for Active; 'I' for Inactive)
    1  A    between atoms: C_1  and  C_50
    2  A    between atoms: C_2  and  N_8
    3  A    between atoms: C_4  and  C_17
    4  A    between atoms: C_4  and  C_54
    5  A    between atoms: C_6  and  C_43
    6  A    between atoms: C_7  and  C_31
    7  A    between atoms: N_8  and  C_59
    8  A    between atoms: C_12  and  C_48
    9  A    between atoms: C_14  and  C_46
   10  A    between atoms: C_14  and  C_61
   11  A    between atoms: C_16  and  C_40
   12  A    between atoms: C_19  and  C_42
   13  A    between atoms: C_24  and  C_27
   14  A    between atoms: C_24  and  C_38
   15  A    between atoms: C_27  and  N_53
   16  A    between atoms: C_33  and  C_51
   17  A    between atoms: C_33  and  C_59
   18  A    between atoms: C_35  and  C_42
   19  A    between atoms: C_43  and  N_53
   20  A    between atoms: C_50  and  C_60
   21  A    between atoms: C_55  and  C_60
   22  A    between atoms: C_58  and  C_60
                            x       y       z     vdW  Elec       q    Type
                         _______ _______ _______ _____ _____    ______ ____

>  <TORSDO>
F 22

$$$$
=
 OpenBabel11042419383D

 63 68  0  0  1  0  0  0  0  0999 V2000
  188.0310  177.9320  145.2400 C   0  0  2  0  0  3  0  0  0  0  0  0
  188.8780  175.5980  145.5410 C   0  0  0  0  0  3  0  0  0  0  0  0
  190.6690  175.0820  147.0870 C   0  0  0  0  0  3  0  0  0  0  0  0
  189.8800  177.3570  146.8670 C   0  0  0  0  0  3  0  0  0  0  0  0
  190.7420  176.4250  147.4660 C   0  0  0  0  0  0  0  0  0  0  0  0
  189.7370  174.6650  146.1320 C   0  0  0  0  0  0  0  0  0  0  0  0
  188.9440  176.9450  145.9070 C   0  0  0  0  0  0  0  0  0  0  0  0
  191.7330  176.8270  148.4720 C   0  0  0  0  0  3  0  0  0  0  0  0
  191.5490  177.8550  149.2930 C   0  0  0  0  0  2  0  0  0  0  0  0
  189.6960  173.2310  145.7140 C   0  0  0  0  0  2  0  0  0  0  0  0
  189.7640  173.0910  144.1970 C   0  0  0  0  0  2  0  0  0  0  0  0
  189.2930  171.7770  143.7860 N   0  0  0  0  0  2  0  0  0  0  0  0
  189.9210  171.4560  142.5140 C   0  0  1  0  0  3  0  0  0  0  0  0
  192.8680  172.9420  141.0420 C   0  0  0  0  0  2  0  0  0  0  0  0
  190.0230  172.7150  141.6490 C   0  0  0  0  0  2  0  0  0  0  0  0
  191.9640  172.2150  140.0280 C   0  0  2  0  0  3  0  0  0  0  0  0
  192.3150  171.8190  143.2620 C   0  0  0  0  0  2  0  0  0  0  0  0
  190.4450  172.4100  140.2120 C   0  0  2  0  0  3  0  0  0  0  0  0
  191.2820  170.8110  142.7720 C   0  0  0  0  0  2  0  0  0  0  0  0
  193.3720  172.0600  142.1910 C   0  0  0  0  0  2  0  0  0  0  0  0
  192.3590  170.7630  139.7620 C   0  0  0  0  0  2  0  0  0  0  0  0
  191.8250  169.0570  137.9810 N   0  0  0  0  0  1  0  0  0  0  0  0
  192.1410  170.4000  138.3340 C   0  0  0  0  0  0  0  0  0  0  0  0
  192.2290  171.2800  137.4390 O   0  0  0  0  0  0  0  0  0  0  0  0
  189.9620  173.5450  139.3180 C   0  0  0  0  0  2  0  0  0  0  0  0
  187.9940  174.4630  138.0970 C   0  0  0  0  0  1  0  0  0  0  0  0
  187.9400  172.3120  139.1000 O   0  0  0  0  0  1  0  0  0  0  0  0
  188.4440  173.6010  139.2610 C   0  0  1  0  0  3  0  0  0  0  0  0
  185.6270  178.5190  144.8870 C   0  0  1  0  0  3  0  0  0  0  0  0
  185.6930  177.9940  146.3080 C   0  0  2  0  0  3  0  0  0  0  0  0
  186.3590  178.9240  147.1120 O   0  0  0  0  0  1  0  0  0  0  0  0
  186.5960  177.4030  145.2210 C   0  0  2  0  0  3  0  0  0  0  0  0
  183.7830  178.9220  143.4150 O   0  0  0  0  0  0  0  0  0  0  0  0
  184.4620  177.9220  142.6920 C   0  0  2  0  0  3  0  0  0  0  0  0
  184.4110  177.9250  144.1860 C   0  0  1  0  0  3  0  0  0  0  0  0
  185.7210  178.5160  142.0700 C   0  0  0  0  0  2  0  0  0  0  0  0
  184.4350  177.8470  140.1880 O   0  0  0  0  0  1  0  0  0  0  0  0
  185.6900  178.3110  140.5690 C   0  0  0  0  0  2  0  0  0  0  0  0
  188.4840  178.2470  143.8140 C   0  0  0  0  0  2  0  0  0  0  0  0
  188.9070  177.0090  143.0850 C   0  0  0  0  0  0  0  0  0  0  0  0
  191.3940  177.5260  143.2430 C   0  0  0  0  0  0  0  0  0  0  0  0
  188.0190  176.1850  142.7360 O   0  0  0  0  0  0  0  0  0  0  0  0
  190.5550  175.6550  141.9930 O   0  0  0  0  0  1  0  0  0  0  0  0
  190.2860  176.7380  142.7630 N   0  0  0  0  0  0  0  0  0  0  0  0
  191.2110  178.5450  143.9600 O   0  0  0  0  0  0  0  0  0  0  0  0
  192.7940  177.1320  142.9020 C   0  0  0  0  0  2  0  0  0  0  0  0
  193.2330  176.0740  143.7960 N   0  0  0  0  0  2  0  0  0  0  0  0
  194.4070  176.5670  144.4960 C   0  0  0  0  0  2  0  0  0  0  0  0
  194.9900  175.4470  145.3380 C   0  0  0  0  0  2  0  0  0  0  0  0
  195.8070  174.7770  143.1020 C   0  0  0  0  0  2  0  0  0  0  0  0
  197.2850  173.2160  141.7480 N   0  0  2  0  0  0  0  0  0  0  0  0
  197.7360  171.9650  143.8420 C   0  0  1  0  0  3  0  0  0  0  0  0
  196.5520  173.0780  140.4900 C   0  0  0  0  0  2  0  0  0  0  0  0
  197.1800  173.9550  139.4010 C   0  0  0  0  0  2  0  0  0  0  0  0
  196.8050  172.1620  142.6440 C   0  0  0  0  0  2  0  0  0  0  0  0
  197.2050  175.6820  141.2300 C   0  0  0  0  0  2  0  0  0  0  0  0
  196.2320  173.4200  145.0500 O   0  0  0  0  0  0  0  0  0  0  0  0
  196.1130  174.7430  144.5980 C   0  0  2  0  0  3  0  0  0  0  0  0
  197.0980  174.5840  142.3010 C   0  0  1  0  0  3  0  0  0  0  0  0
  197.5820  173.0860  144.8710 C   0  0  0  0  0  2  0  0  0  0  0  0
  197.9120  175.1700  139.9800 C   0  0  0  0  0  2  0  0  0  0  0  0
  197.4600  170.6480  144.4960 C   0  0  0  0  0  3  0  0  0  0  0  0
  197.4970  170.5380  145.7090 O   0  0  0  0  0  0  0  0  0  0  0  0
  1 39  1  6  0  0  0
  1  7  1  0  0  0  0
  2  7  2  0  0  0  0
  2  6  1  0  0  0  0
  3  5  1  0  0  0  0
  4  5  2  0  0  0  0
  5  8  1  0  0  0  0
  6  3  2  0  0  0  0
  7  4  1  0  0  0  0
  8  9  2  0  0  0  0
 10  6  1  0  0  0  0
 11 10  1  0  0  0  0
 12 11  1  0  0  0  0
 13 19  1  0  0  0  0
 13 12  1  1  0  0  0
 14 20  1  0  0  0  0
 15 13  1  0  0  0  0
 16 21  1  1  0  0  0
 16 18  1  0  0  0  0
 16 14  1  0  0  0  0
 18 25  1  6  0  0  0
 18 15  1  0  0  0  0
 19 17  1  0  0  0  0
 20 17  1  0  0  0  0
 22 23  1  0  0  0  0
 23 21  1  0  0  0  0
 24 23  2  0  0  0  0
 27 28  1  0  0  0  0
 28 26  1  6  0  0  0
 28 25  1  0  0  0  0
 29 35  1  6  0  0  0
 29 32  1  0  0  0  0
 29 30  1  0  0  0  0
 30 31  1  1  0  0  0
 32  1  1  1  0  0  0
 32 30  1  0  0  0  0
 34 36  1  1  0  0  0
 34 33  1  0  0  0  0
 34 35  1  0  0  0  0
 35 33  1  6  0  0  0
 37 38  1  0  0  0  0
 38 36  1  0  0  0  0
 40 39  1  0  0  0  0
 41 45  2  0  0  0  0
 42 40  2  0  0  0  0
 43 44  1  0  0  0  0
 44 40  1  0  0  0  0
 44 41  1  0  0  0  0
 46 41  1  0  0  0  0
 46 47  1  0  0  0  0
 47 48  1  0  0  0  0
 48 49  1  0  0  0  0
 50 58  1  0  0  0  0
 51 53  1  6  0  0  0
 51 59  1  0  0  0  0
 51 55  1  0  0  0  0
 52 62  1  1  0  0  0
 52 60  1  0  0  0  0
 54 61  1  0  0  0  0
 54 53  1  0  0  0  0
 55 52  1  0  0  0  0
 58 57  1  0  0  0  0
 58 49  1  1  0  0  0
 59 56  1  6  0  0  0
 59 50  1  0  0  0  0
 60 57  1  0  0  0  0
 61 56  1  0  0  0  0
 62 63  2  0  0  0  0
M  END
>  <MODEL>
7

>  <REMARK>
 VINA RESULT:      -5.7      2.385      7.136
  Name = 
  22 active torsions:
  status: ('A' for Active; 'I' for Inactive)
    1  A    between atoms: C_1  and  C_50
    2  A    between atoms: C_2  and  N_8
    3  A    between atoms: C_4  and  C_17
    4  A    between atoms: C_4  and  C_54
    5  A    between atoms: C_6  and  C_43
    6  A    between atoms: C_7  and  C_31
    7  A    between atoms: N_8  and  C_59
    8  A    between atoms: C_12  and  C_48
    9  A    between atoms: C_14  and  C_46
   10  A    between atoms: C_14  and  C_61
   11  A    between atoms: C_16  and  C_40
   12  A    between atoms: C_19  and  C_42
   13  A    between atoms: C_24  and  C_27
   14  A    between atoms: C_24  and  C_38
   15  A    between atoms: C_27  and  N_53
   16  A    between atoms: C_33  and  C_51
   17  A    between atoms: C_33  and  C_59
   18  A    between atoms: C_35  and  C_42
   19  A    between atoms: C_43  and  N_53
   20  A    between atoms: C_50  and  C_60
   21  A    between atoms: C_55  and  C_60
   22  A    between atoms: C_58  and  C_60
                            x       y       z     vdW  Elec       q    Type
                         _______ _______ _______ _____ _____    ______ ____

>  <TORSDO>
F 22

$$$$
=
 OpenBabel11042419383D

 63 68  0  0  1  0  0  0  0  0999 V2000
  192.1870  172.8300  137.4340 C   0  0  2  0  0  3  0  0  0  0  0  0
  190.1080  172.9760  138.8160 C   0  0  0  0  0  3  0  0  0  0  0  0
  188.1510  174.1780  138.0500 C   0  0  0  0  0  3  0  0  0  0  0  0
  190.1170  174.0520  136.6490 C   0  0  0  0  0  3  0  0  0  0  0  0
  188.8010  174.4940  136.8540 C   0  0  0  0  0  0  0  0  0  0  0  0
  188.7970  173.4160  139.0290 C   0  0  0  0  0  0  0  0  0  0  0  0
  190.7720  173.2890  137.6270 C   0  0  0  0  0  0  0  0  0  0  0  0
  188.0910  175.2950  135.8500 C   0  0  0  0  0  3  0  0  0  0  0  0
  187.3640  176.3620  136.1630 C   0  0  0  0  0  2  0  0  0  0  0  0
  188.0990  173.1170  140.3150 C   0  0  0  0  0  2  0  0  0  0  0  0
  189.0110  173.3600  141.5130 C   0  0  0  0  0  2  0  0  0  0  0  0
  189.3070  174.7780  141.6460 N   0  0  0  0  0  2  0  0  0  0  0  0
  188.3700  175.3410  142.6070 C   0  0  1  0  0  3  0  0  0  0  0  0
  187.1680  178.7410  142.8240 C   0  0  0  0  0  2  0  0  0  0  0  0
  189.0090  176.5330  143.3230 C   0  0  0  0  0  2  0  0  0  0  0  0
  187.0030  177.9380  144.1280 C   0  0  2  0  0  3  0  0  0  0  0  0
  187.2360  176.9510  141.0120 C   0  0  0  0  0  2  0  0  0  0  0  0
  188.1810  177.0190  144.5120 C   0  0  2  0  0  3  0  0  0  0  0  0
  187.0740  175.7140  141.8880 C   0  0  0  0  0  2  0  0  0  0  0  0
  186.4700  178.1260  141.6050 C   0  0  0  0  0  2  0  0  0  0  0  0
  185.6380  177.2680  144.2850 C   0  0  0  0  0  2  0  0  0  0  0  0
  184.6400  178.8260  146.0010 N   0  0  0  0  0  1  0  0  0  0  0  0
  185.0700  177.5170  145.6380 C   0  0  0  0  0  0  0  0  0  0  0  0
  184.9620  176.5720  146.4610 O   0  0  0  0  0  0  0  0  0  0  0  0
  189.1060  177.7490  145.4770 C   0  0  0  0  0  2  0  0  0  0  0  0
  188.4470  175.7320  146.7840 C   0  0  0  0  0  1  0  0  0  0  0  0
  190.4140  176.9590  147.2990 O   0  0  0  0  0  1  0  0  0  0  0  0
  189.1020  177.0990  146.8510 C   0  0  1  0  0  3  0  0  0  0  0  0
  193.4240  170.8700  136.4960 C   0  0  1  0  0  3  0  0  0  0  0  0
  193.5430  171.9470  135.4360 C   0  0  2  0  0  3  0  0  0  0  0  0
  194.4010  172.9520  135.8940 O   0  0  0  0  0  1  0  0  0  0  0  0
  192.2710  171.8300  136.2800 C   0  0  2  0  0  3  0  0  0  0  0  0
  193.4470  168.4840  136.6900 O   0  0  0  0  0  0  0  0  0  0  0  0
  192.0660  168.7050  136.5250 C   0  0  2  0  0  3  0  0  0  0  0  0
  193.0920  169.5400  135.8290 C   0  0  1  0  0  3  0  0  0  0  0  0
  191.4920  169.2930  137.8090 C   0  0  0  0  0  2  0  0  0  0  0  0
  191.3670  168.2860  139.9580 O   0  0  0  0  0  1  0  0  0  0  0  0
  190.8960  168.1840  138.6520 C   0  0  0  0  0  2  0  0  0  0  0  0
  192.7560  172.2000  138.7050 C   0  0  0  0  0  2  0  0  0  0  0  0
  193.7990  173.0740  139.3330 C   0  0  0  0  0  0  0  0  0  0  0  0
  195.0150  171.1480  140.4680 C   0  0  0  0  0  0  0  0  0  0  0  0
  193.7820  174.3070  139.0740 O   0  0  0  0  0  0  0  0  0  0  0  0
  195.6260  173.4400  140.8390 O   0  0  0  0  0  1  0  0  0  0  0  0
  194.8060  172.5530  140.2240 N   0  0  0  0  0  0  0  0  0  0  0  0
  194.2850  170.2740  139.9300 O   0  0  0  0  0  0  0  0  0  0  0  0
  196.1230  170.7030  141.3660 C   0  0  0  0  0  2  0  0  0  0  0  0
  195.9880  171.3460  142.6610 N   0  0  0  0  0  2  0  0  0  0  0  0
  195.8130  170.2920  143.6450 C   0  0  0  0  0  2  0  0  0  0  0  0
  195.1320  170.8680  144.8730 C   0  0  0  0  0  2  0  0  0  0  0  0
  194.8100  173.2680  145.3750 C   0  0  0  0  0  2  0  0  0  0  0  0
  193.2540  175.2740  145.3010 N   0  0  2  0  0  0  0  0  0  0  0  0
  191.4570  173.7460  144.5340 C   0  0  1  0  0  3  0  0  0  0  0  0
  193.6510  176.0420  146.4810 C   0  0  0  0  0  2  0  0  0  0  0  0
  194.5350  177.2280  146.0800 C   0  0  0  0  0  2  0  0  0  0  0  0
  192.2090  174.3420  145.7260 C   0  0  0  0  0  2  0  0  0  0  0  0
  195.6790  175.5030  144.6510 C   0  0  0  0  0  2  0  0  0  0  0  0
  192.9580  171.8630  144.7300 O   0  0  0  0  0  0  0  0  0  0  0  0
  194.3250  172.1020  144.5160 C   0  0  2  0  0  3  0  0  0  0  0  0
  194.4380  174.5960  144.7100 C   0  0  1  0  0  3  0  0  0  0  0  0
  192.2890  172.6840  143.8120 C   0  0  0  0  0  2  0  0  0  0  0  0
  195.2970  176.9730  144.7750 C   0  0  0  0  0  2  0  0  0  0  0  0
  190.1660  173.1420  144.9900 C   0  0  0  0  0  3  0  0  0  0  0  0
  189.8690  172.0030  144.6730 O   0  0  0  0  0  0  0  0  0  0  0  0
  1  7  1  0  0  0  0
  1 39  1  1  0  0  0
  2  6  1  0  0  0  0
  3  6  2  0  0  0  0
  4  5  2  0  0  0  0
  4  7  1  0  0  0  0
  5  3  1  0  0  0  0
  6 10  1  0  0  0  0
  7  2  2  0  0  0  0
  8  9  2  0  0  0  0
  8  5  1  0  0  0  0
 10 11  1  0  0  0  0
 11 12  1  0  0  0  0
 13 12  1  6  0  0  0
 13 15  1  0  0  0  0
 14 16  1  0  0  0  0
 15 18  1  0  0  0  0
 16 21  1  6  0  0  0
 16 18  1  0  0  0  0
 17 20  1  0  0  0  0
 17 19  1  0  0  0  0
 18 25  1  1  0  0  0
 19 13  1  0  0  0  0
 20 14  1  0  0  0  0
 21 23  1  0  0  0  0
 23 22  1  0  0  0  0
 23 24  2  0  0  0  0
 25 28  1  0  0  0  0
 28 26  1  6  0  0  0
 28 27  1  0  0  0  0
 29 35  1  6  0  0  0
 30 31  1  1  0  0  0
 30 32  1  0  0  0  0
 30 29  1  0  0  0  0
 32 29  1  0  0  0  0
 32  1  1  1  0  0  0
 34 33  1  0  0  0  0
 34 36  1  1  0  0  0
 35 34  1  0  0  0  0
 35 33  1  1  0  0  0
 36 38  1  0  0  0  0
 38 37  1  0  0  0  0
 39 40  1  0  0  0  0
 40 44  1  0  0  0  0
 41 46  1  0  0  0  0
 42 40  2  0  0  0  0
 44 41  1  0  0  0  0
 44 43  1  0  0  0  0
 45 41  2  0  0  0  0
 46 47  1  0  0  0  0
 47 48  1  0  0  0  0
 48 49  1  0  0  0  0
 51 55  1  1  0  0  0
 51 53  1  0  0  0  0
 52 62  1  1  0  0  0
 52 55  1  0  0  0  0
 54 53  1  0  0  0  0
 56 61  1  0  0  0  0
 58 57  1  0  0  0  0
 58 49  1  1  0  0  0
 58 50  1  0  0  0  0
 59 56  1  1  0  0  0
 59 51  1  0  0  0  0
 59 50  1  0  0  0  0
 60 52  1  0  0  0  0
 60 57  1  0  0  0  0
 61 54  1  0  0  0  0
 63 62  2  0  0  0  0
M  END
>  <MODEL>
8

>  <REMARK>
 VINA RESULT:      -5.5      2.727      6.282
  Name = 
  22 active torsions:
  status: ('A' for Active; 'I' for Inactive)
    1  A    between atoms: C_1  and  C_50
    2  A    between atoms: C_2  and  N_8
    3  A    between atoms: C_4  and  C_17
    4  A    between atoms: C_4  and  C_54
    5  A    between atoms: C_6  and  C_43
    6  A    between atoms: C_7  and  C_31
    7  A    between atoms: N_8  and  C_59
    8  A    between atoms: C_12  and  C_48
    9  A    between atoms: C_14  and  C_46
   10  A    between atoms: C_14  and  C_61
   11  A    between atoms: C_16  and  C_40
   12  A    between atoms: C_19  and  C_42
   13  A    between atoms: C_24  and  C_27
   14  A    between atoms: C_24  and  C_38
   15  A    between atoms: C_27  and  N_53
   16  A    between atoms: C_33  and  C_51
   17  A    between atoms: C_33  and  C_59
   18  A    between atoms: C_35  and  C_42
   19  A    between atoms: C_43  and  N_53
   20  A    between atoms: C_50  and  C_60
   21  A    between atoms: C_55  and  C_60
   22  A    between atoms: C_58  and  C_60
                            x       y       z     vdW  Elec       q    Type
                         _______ _______ _______ _____ _____    ______ ____

>  <TORSDO>
F 22

$$$$
=
 OpenBabel11042419383D

 63 68  0  0  1  0  0  0  0  0999 V2000
  194.5830  173.4630  142.6620 C   0  0  2  0  0  3  0  0  0  0  0  0
  195.2880  171.7190  141.0150 C   0  0  0  0  0  3  0  0  0  0  0  0
  196.8870  172.1950  139.2600 C   0  0  0  0  0  3  0  0  0  0  0  0
  196.2730  173.9220  140.8370 C   0  0  0  0  0  3  0  0  0  0  0  0
  197.0210  173.5060  139.7250 C   0  0  0  0  0  0  0  0  0  0  0  0
  196.0280  171.2990  139.9040 C   0  0  0  0  0  0  0  0  0  0  0  0
  195.4080  173.0290  141.4870 C   0  0  0  0  0  0  0  0  0  0  0  0
  197.9320  174.4190  139.0230 C   0  0  0  0  0  3  0  0  0  0  0  0
  197.9020  175.7360  139.1920 C   0  0  0  0  0  2  0  0  0  0  0  0
  195.8710  169.9120  139.3730 C   0  0  0  0  0  2  0  0  0  0  0  0
  194.9050  169.8730  138.1940 C   0  0  0  0  0  2  0  0  0  0  0  0
  193.5640  169.5330  138.6470 N   0  0  0  0  0  2  0  0  0  0  0  0
  192.7360  170.7220  138.5170 C   0  0  1  0  0  3  0  0  0  0  0  0
  190.2960  171.4740  135.9600 C   0  0  0  0  0  2  0  0  0  0  0  0
  192.9600  171.3680  137.1480 C   0  0  0  0  0  2  0  0  0  0  0  0
  190.8020  172.7130  136.7210 C   0  0  2  0  0  3  0  0  0  0  0  0
  190.6830  169.5570  137.5940 C   0  0  0  0  0  2  0  0  0  0  0  0
  192.3120  172.7480  137.0340 C   0  0  2  0  0  3  0  0  0  0  0  0
  191.2740  170.3460  138.7570 C   0  0  0  0  0  2  0  0  0  0  0  0
  189.6560  170.3990  136.8470 C   0  0  0  0  0  2  0  0  0  0  0  0
  189.9300  173.1200  137.9090 C   0  0  0  0  0  2  0  0  0  0  0  0
  189.0300  174.8420  136.2980 N   0  0  0  0  0  1  0  0  0  0  0  0
  188.8740  174.0850  137.4940 C   0  0  0  0  0  0  0  0  0  0  0  0
  187.8390  174.2270  138.1940 O   0  0  0  0  0  0  0  0  0  0  0  0
  193.0410  173.5330  135.9520 C   0  0  0  0  0  2  0  0  0  0  0  0
  194.4470  175.0070  137.3880 C   0  0  0  0  0  1  0  0  0  0  0  0
  193.6440  175.7320  135.2740 O   0  0  0  0  0  1  0  0  0  0  0  0
  193.3080  174.9660  136.3880 C   0  0  1  0  0  3  0  0  0  0  0  0
  194.2710  175.3540  144.2690 C   0  0  1  0  0  3  0  0  0  0  0  0
  194.7730  176.0060  142.9950 C   0  0  2  0  0  3  0  0  0  0  0  0
  193.7670  175.9560  142.0250 O   0  0  0  0  0  1  0  0  0  0  0  0
  195.2690  174.6150  143.3990 C   0  0  2  0  0  3  0  0  0  0  0  0
  194.6780  177.3170  145.5770 O   0  0  0  0  0  0  0  0  0  0  0  0
  194.1340  176.4710  146.5630 C   0  0  2  0  0  3  0  0  0  0  0  0
  195.0040  175.9520  145.4640 C   0  0  1  0  0  3  0  0  0  0  0  0
  192.6330  176.3360  146.3410 C   0  0  0  0  0  2  0  0  0  0  0  0
  190.9260  176.5540  147.9800 O   0  0  0  0  0  1  0  0  0  0  0  0
  191.9880  175.7490  147.5800 C   0  0  0  0  0  2  0  0  0  0  0  0
  194.3270  172.3100  143.6320 C   0  0  0  0  0  2  0  0  0  0  0  0
  193.0870  172.5370  144.4410 C   0  0  0  0  0  0  0  0  0  0  0  0
  191.5250  171.5370  142.6990 C   0  0  0  0  0  0  0  0  0  0  0  0
  193.2080  173.0210  145.5990 O   0  0  0  0  0  0  0  0  0  0  0  0
  190.7050  172.5890  144.6960 O   0  0  0  0  0  1  0  0  0  0  0  0
  191.7710  172.2320  143.9380 N   0  0  0  0  0  0  0  0  0  0  0  0
  192.4720  171.1810  141.9490 O   0  0  0  0  0  0  0  0  0  0  0  0
  190.1250  171.2150  142.2890 C   0  0  0  0  0  2  0  0  0  0  0  0
  189.5670  172.3310  141.5450 N   0  0  0  0  0  2  0  0  0  0  0  0
  188.3000  172.6700  142.1690 C   0  0  0  0  0  2  0  0  0  0  0  0
  187.8980  174.0710  141.7470 C   0  0  0  0  0  2  0  0  0  0  0  0
  186.9290  175.9780  142.9880 C   0  0  0  0  0  2  0  0  0  0  0  0
  187.3560  178.0200  144.4390 N   0  0  2  0  0  0  0  0  0  0  0  0
  189.7820  177.6810  144.0540 C   0  0  1  0  0  3  0  0  0  0  0  0
  186.2710  178.9250  144.0600 C   0  0  0  0  0  2  0  0  0  0  0  0
  185.1620  178.9100  145.1170 C   0  0  0  0  0  2  0  0  0  0  0  0
  188.4770  178.2900  143.5380 C   0  0  0  0  0  2  0  0  0  0  0  0
  185.4860  176.4200  144.9870 C   0  0  0  0  0  2  0  0  0  0  0  0
  189.3040  175.8140  142.5970 O   0  0  0  0  0  0  0  0  0  0  0  0
  188.1480  175.0660  142.8670 C   0  0  2  0  0  3  0  0  0  0  0  0
  186.8870  176.6090  144.3830 C   0  0  1  0  0  3  0  0  0  0  0  0
  189.8210  176.1650  143.8520 C   0  0  0  0  0  2  0  0  0  0  0  0
  185.1090  177.5890  145.8900 C   0  0  0  0  0  2  0  0  0  0  0  0
  190.9510  178.3050  143.3590 C   0  0  0  0  0  3  0  0  0  0  0  0
  192.0840  178.1330  143.7750 O   0  0  0  0  0  0  0  0  0  0  0  0
  1 39  1  1  0  0  0
  2  7  1  0  0  0  0
  3  5  2  0  0  0  0
  3  6  1  0  0  0  0
  4  7  2  0  0  0  0
  5  4  1  0  0  0  0
  6  2  2  0  0  0  0
  7  1  1  0  0  0  0
  8  9  2  0  0  0  0
  8  5  1  0  0  0  0
 10  6  1  0  0  0  0
 11 12  1  0  0  0  0
 11 10  1  0  0  0  0
 13 12  1  6  0  0  0
 13 19  1  0  0  0  0
 14 16  1  0  0  0  0
 14 20  1  0  0  0  0
 15 13  1  0  0  0  0
 16 18  1  0  0  0  0
 16 21  1  1  0  0  0
 17 19  1  0  0  0  0
 18 25  1  6  0  0  0
 18 15  1  0  0  0  0
 20 17  1  0  0  0  0
 22 23  1  0  0  0  0
 23 21  1  0  0  0  0
 23 24  2  0  0  0  0
 25 28  1  0  0  0  0
 27 28  1  0  0  0  0
 28 26  1  1  0  0  0
 29 35  1  1  0  0  0
 30 31  1  6  0  0  0
 30 32  1  0  0  0  0
 30 29  1  0  0  0  0
 32  1  1  6  0  0  0
 32 29  1  0  0  0  0
 33 34  1  0  0  0  0
 34 36  1  6  0  0  0
 35 33  1  6  0  0  0
 35 34  1  0  0  0  0
 36 38  1  0  0  0  0
 38 37  1  0  0  0  0
 39 40  1  0  0  0  0
 40 42  2  0  0  0  0
 41 44  1  0  0  0  0
 44 40  1  0  0  0  0
 44 43  1  0  0  0  0
 45 41  2  0  0  0  0
 46 41  1  0  0  0  0
 47 48  1  0  0  0  0
 47 46  1  0  0  0  0
 49 48  1  0  0  0  0
 51 55  1  6  0  0  0
 52 62  1  6  0  0  0
 53 51  1  0  0  0  0
 53 54  1  0  0  0  0
 54 61  1  0  0  0  0
 55 52  1  0  0  0  0
 56 61  1  0  0  0  0
 57 58  1  0  0  0  0
 57 60  1  0  0  0  0
 58 49  1  6  0  0  0
 58 50  1  0  0  0  0
 59 50  1  6  0  0  0
 59 51  1  0  0  0  0
 59 56  1  0  0  0  0
 60 52  1  0  0  0  0
 62 63  2  0  0  0  0
M  END
>  <MODEL>
9

>  <REMARK>
 VINA RESULT:      -5.5      2.549      8.791
  Name = 
  22 active torsions:
  status: ('A' for Active; 'I' for Inactive)
    1  A    between atoms: C_1  and  C_50
    2  A    between atoms: C_2  and  N_8
    3  A    between atoms: C_4  and  C_17
    4  A    between atoms: C_4  and  C_54
    5  A    between atoms: C_6  and  C_43
    6  A    between atoms: C_7  and  C_31
    7  A    between atoms: N_8  and  C_59
    8  A    between atoms: C_12  and  C_48
    9  A    between atoms: C_14  and  C_46
   10  A    between atoms: C_14  and  C_61
   11  A    between atoms: C_16  and  C_40
   12  A    between atoms: C_19  and  C_42
   13  A    between atoms: C_24  and  C_27
   14  A    between atoms: C_24  and  C_38
   15  A    between atoms: C_27  and  N_53
   16  A    between atoms: C_33  and  C_51
   17  A    between atoms: C_33  and  C_59
   18  A    between atoms: C_35  and  C_42
   19  A    between atoms: C_43  and  N_53
   20  A    between atoms: C_50  and  C_60
   21  A    between atoms: C_55  and  C_60
   22  A    between atoms: C_58  and  C_60
                            x       y       z     vdW  Elec       q    Type
                         _______ _______ _______ _____ _____    ______ ____

>  <TORSDO>
F 22

$$$$
