=
 OpenBabel11042416253D

 38 43  0  0  1  0  0  0  0  0999 V2000
  188.6360  175.3760  146.8700 C   0  0  0  0  0  2  0  0  0  0  0  0
  184.0060  178.8060  142.4920 O   0  0  0  0  0  1  0  0  0  0  0  0
  190.8320  177.2140  144.6770 C   0  0  0  0  0  2  0  0  0  0  0  0
  189.8900  174.6100  144.9510 N   0  0  2  0  0  0  0  0  0  0  0  0
  188.4090  177.3080  145.3630 N   0  0  0  0  0  0  0  0  0  0  0  0
  188.5720  176.8950  146.7550 C   0  0  0  0  0  2  0  0  0  0  0  0
  189.3770  177.4710  144.4300 C   0  0  0  0  0  0  0  0  0  0  0  0
  186.3030  177.2060  141.3950 C   0  0  0  0  0  1  0  0  0  0  0  0
  186.3770  178.2630  142.4840 C   0  0  2  0  0  3  0  0  0  0  0  0
  187.4810  177.9280  143.4410 C   0  0  0  0  0  0  0  0  0  0  0  0
  188.8440  177.8630  143.2050 C   0  0  0  0  0  3  0  0  0  0  0  0
  185.9090  177.5640  145.3220 C   0  0  0  0  0  3  0  0  0  0  0  0
  191.3330  176.1700  143.7820 N   0  0  0  0  0  0  0  0  0  0  0  0
  185.0780  178.3490  143.1790 N   0  0  0  0  0  0  0  0  0  0  0  0
  191.2290  174.8290  144.3970 C   0  0  2  0  0  3  0  0  0  0  0  0
  189.9880  174.8830  146.3940 C   0  0  2  0  0  3  0  0  0  0  0  0
  184.8830  177.9380  144.5500 C   0  0  0  0  0  3  0  0  0  0  0  0
  189.9260  173.5080  145.9290 C   0  0  0  0  0  2  0  0  0  0  0  0
  187.2520  177.5850  144.7430 C   0  0  0  0  0  0  0  0  0  0  0  0
  192.6500  176.4420  143.6300 O   0  0  0  0  0  1  0  0  0  0  0  0
  192.9440  173.0830  143.4530 C   0  0  2  0  0  3  0  0  0  0  0  0
  192.0270  174.1530  140.9540 C   0  0  0  0  0  3  0  0  0  0  0  0
  193.4570  173.7210  141.1090 C   0  0  0  0  0  2  0  0  0  0  0  0
  189.8210  174.4550  141.6840 O   0  0  0  0  0  1  0  0  0  0  0  0
  193.9240  173.8370  142.5540 C   0  0  0  0  0  2  0  0  0  0  0  0
  191.1370  174.1030  141.9500 C   0  0  0  0  0  0  0  0  0  0  0  0
  191.5310  173.7120  143.3620 C   0  0  2  0  0  3  0  0  0  0  0  0
  194.1170  171.5820  145.0640 C   0  0  0  0  0  0  0  0  0  0  0  0
  193.4560  172.9080  144.8940 C   0  0  1  0  0  3  0  0  0  0  0  0
  194.6020  173.8880  145.2040 C   0  0  0  0  0  2  0  0  0  0  0  0
  193.5280  170.4750  144.9530 O   0  0  0  0  0  0  0  0  0  0  0  0
  195.5170  171.7370  145.4050 C   0  0  0  0  0  0  0  0  0  0  0  0
  195.7950  173.0320  145.4930 C   0  0  0  0  0  0  0  0  0  0  0  0
  196.4410  170.6520  145.6000 N   0  0  0  0  0  0  0  0  0  0  0  0
  196.5580  170.0270  146.8190 O   0  0  0  0  0  0  0  0  0  0  0  0
  197.1920  170.2960  144.6690 O   0  0  0  0  0  0  0  0  0  0  0  0
  197.1220  173.6210  145.8380 C   0  0  0  0  0  2  0  0  0  0  0  0
  197.2480  173.7240  147.2110 F   0  0  0  0  0  0  0  0  0  0  0  0
  2 14  1  0  0  0  0
  4 18  1  1  0  0  0
  4 16  1  0  0  0  0
  5  6  1  0  0  0  0
  6  1  1  0  0  0  0
  7  3  1  0  0  0  0
  7  5  1  0  0  0  0
  9  8  1  6  0  0  0
  9 14  1  0  0  0  0
  9 10  1  0  0  0  0
 10 19  2  0  0  0  0
 11 10  1  0  0  0  0
 11  7  2  0  0  0  0
 13  3  1  0  0  0  0
 14 17  1  0  0  0  0
 15 13  1  6  0  0  0
 15  4  1  0  0  0  0
 16 18  1  1  0  0  0
 16  1  1  0  0  0  0
 17 12  2  0  0  0  0
 19 12  1  0  0  0  0
 19  5  1  0  0  0  0
 20 13  1  0  0  0  0
 21 25  1  6  0  0  0
 21 29  1  0  0  0  0
 22 23  1  0  0  0  0
 22 26  2  0  0  0  0
 23 25  1  0  0  0  0
 24 26  1  0  0  0  0
 27 26  1  6  0  0  0
 27 21  1  0  0  0  0
 27 15  1  0  0  0  0
 28 32  1  0  0  0  0
 29 28  1  0  0  0  0
 29 30  1  6  0  0  0
 30 33  1  0  0  0  0
 31 28  2  0  0  0  0
 32 33  2  0  0  0  0
 32 34  1  0  0  0  0
 33 37  1  0  0  0  0
 34 35  2  0  0  0  0
 36 34  2  0  0  0  0
 37 38  1  0  0  0  0
M  END
>  <MODEL>
1

>  <REMARK>
 VINA RESULT:      -8.5      0.000      0.000
  Name = 
  4 active torsions:
  status: ('A' for Active; 'I' for Inactive)
    1  A    between atoms: N_1  and  C_32
    2  A    between atoms: C_2  and  C_22
    3  A    between atoms: C_12  and  C_34
    4  A    between atoms: C_29  and  C_38
                            x       y       z     vdW  Elec       q    Type
                         _______ _______ _______ _____ _____    ______ ____

>  <TORSDO>
F 4

$$$$
=
 OpenBabel11042416253D

 38 43  0  0  1  0  0  0  0  0999 V2000
  193.7160  177.1350  145.3900 C   0  0  0  0  0  2  0  0  0  0  0  0
  197.9400  171.4120  144.0570 O   0  0  0  0  0  1  0  0  0  0  0  0
  191.4800  174.3570  145.9300 C   0  0  0  0  0  2  0  0  0  0  0  0
  192.0140  176.2230  143.9360 N   0  0  2  0  0  0  0  0  0  0  0  0
  193.9710  174.7260  145.8260 N   0  0  0  0  0  0  0  0  0  0  0  0
  194.0070  176.0580  146.4280 C   0  0  0  0  0  2  0  0  0  0  0  0
  192.8850  173.9480  145.6060 C   0  0  0  0  0  0  0  0  0  0  0  0
  195.2450  171.7040  142.7560 C   0  0  0  0  0  1  0  0  0  0  0  0
  195.5530  171.8460  144.2370 C   0  0  2  0  0  3  0  0  0  0  0  0
  194.6100  172.8300  144.8590 C   0  0  0  0  0  0  0  0  0  0  0  0
  193.2340  172.7440  145.0010 C   0  0  0  0  0  3  0  0  0  0  0  0
  196.4260  174.4370  145.3710 C   0  0  0  0  0  3  0  0  0  0  0  0
  190.6550  174.3740  144.7220 N   0  0  0  0  0  0  0  0  0  0  0  0
  196.9560  172.2690  144.4120 N   0  0  0  0  0  0  0  0  0  0  0  0
  190.6500  175.7090  144.0840 C   0  0  2  0  0  3  0  0  0  0  0  0
  192.2360  177.1430  145.0620 C   0  0  2  0  0  3  0  0  0  0  0  0
  197.3350  173.5700  144.9130 C   0  0  0  0  0  3  0  0  0  0  0  0
  191.9810  177.6830  143.7370 C   0  0  0  0  0  2  0  0  0  0  0  0
  195.0200  174.0330  145.3590 C   0  0  0  0  0  0  0  0  0  0  0  0
  189.3950  174.1300  145.1550 O   0  0  0  0  0  1  0  0  0  0  0  0
  188.4800  176.0570  142.6510 C   0  0  2  0  0  3  0  0  0  0  0  0
  189.3070  173.5420  141.5440 C   0  0  0  0  0  3  0  0  0  0  0  0
  187.8460  173.8550  141.6960 C   0  0  0  0  0  2  0  0  0  0  0  0
  191.5960  174.0250  141.6860 O   0  0  0  0  0  1  0  0  0  0  0  0
  187.5960  174.8250  142.8430 C   0  0  0  0  0  2  0  0  0  0  0  0
  190.2760  174.3740  141.9390 C   0  0  0  0  0  0  0  0  0  0  0  0
  189.9780  175.6610  142.6860 C   0  0  2  0  0  3  0  0  0  0  0  0
  187.0000  178.0260  143.0440 C   0  0  0  0  0  0  0  0  0  0  0  0
  188.1210  177.2150  143.5990 C   0  0  1  0  0  3  0  0  0  0  0  0
  187.5240  176.6920  144.9190 C   0  0  0  0  0  2  0  0  0  0  0  0
  187.0640  178.6900  141.9770 O   0  0  0  0  0  0  0  0  0  0  0  0
  185.8400  177.9750  143.9110 C   0  0  0  0  0  0  0  0  0  0  0  0
  186.1300  177.2320  144.9720 C   0  0  0  0  0  0  0  0  0  0  0  0
  184.5830  178.6210  143.6420 N   0  0  0  0  0  0  0  0  0  0  0  0
  183.7080  178.1150  142.7090 O   0  0  0  0  0  0  0  0  0  0  0  0
  184.2900  179.6860  144.2220 O   0  0  0  0  0  0  0  0  0  0  0  0
  185.2140  176.9390  146.1130 C   0  0  0  0  0  2  0  0  0  0  0  0
  185.9520  176.6640  147.2500 F   0  0  0  0  0  0  0  0  0  0  0  0
  1  6  1  0  0  0  0
  2 14  1  0  0  0  0
  4 18  1  6  0  0  0
  4 15  1  0  0  0  0
  4 16  1  0  0  0  0
  5  6  1  0  0  0  0
  7  5  1  0  0  0  0
  7  3  1  0  0  0  0
  9  8  1  6  0  0  0
  9 14  1  0  0  0  0
  9 10  1  0  0  0  0
 10 11  1  0  0  0  0
 10 19  2  0  0  0  0
 11  7  2  0  0  0  0
 13 20  1  0  0  0  0
 13  3  1  0  0  0  0
 14 17  1  0  0  0  0
 15 13  1  6  0  0  0
 16 18  1  6  0  0  0
 16  1  1  0  0  0  0
 17 12  2  0  0  0  0
 19 12  1  0  0  0  0
 19  5  1  0  0  0  0
 21 27  1  0  0  0  0
 21 25  1  1  0  0  0
 21 29  1  0  0  0  0
 22 23  1  0  0  0  0
 22 26  2  0  0  0  0
 23 25  1  0  0  0  0
 24 26  1  0  0  0  0
 27 26  1  1  0  0  0
 27 15  1  0  0  0  0
 28 29  1  0  0  0  0
 28 32  1  0  0  0  0
 29 30  1  1  0  0  0
 30 33  1  0  0  0  0
 31 28  2  0  0  0  0
 32 33  2  0  0  0  0
 33 37  1  0  0  0  0
 34 32  1  0  0  0  0
 34 36  2  0  0  0  0
 35 34  2  0  0  0  0
 37 38  1  0  0  0  0
M  END
>  <MODEL>
2

>  <REMARK>
 VINA RESULT:      -8.1      2.671      8.975
  Name = 
  4 active torsions:
  status: ('A' for Active; 'I' for Inactive)
    1  A    between atoms: N_1  and  C_32
    2  A    between atoms: C_2  and  C_22
    3  A    between atoms: C_12  and  C_34
    4  A    between atoms: C_29  and  C_38
                            x       y       z     vdW  Elec       q    Type
                         _______ _______ _______ _____ _____    ______ ____

>  <TORSDO>
F 4

$$$$
=
 OpenBabel11042416253D

 38 43  0  0  1  0  0  0  0  0999 V2000
  193.5210  175.6780  141.7160 C   0  0  0  0  0  2  0  0  0  0  0  0
  197.7720  170.8400  145.0160 O   0  0  0  0  0  1  0  0  0  0  0  0
  193.2430  176.6170  145.1870 C   0  0  0  0  0  2  0  0  0  0  0  0
  191.7550  175.2140  143.3000 N   0  0  2  0  0  0  0  0  0  0  0  0
  194.8260  175.2690  143.7620 N   0  0  0  0  0  0  0  0  0  0  0  0
  194.7390  176.0710  142.5430 C   0  0  0  0  0  2  0  0  0  0  0  0
  194.1960  175.4870  144.9410 C   0  0  0  0  0  0  0  0  0  0  0  0
  194.9610  171.3490  145.9530 C   0  0  0  0  0  1  0  0  0  0  0  0
  196.0230  172.3980  145.6730 C   0  0  2  0  0  3  0  0  0  0  0  0
  195.3740  173.6620  145.1960 C   0  0  0  0  0  0  0  0  0  0  0  0
  194.5100  174.5040  145.8760 C   0  0  0  0  0  3  0  0  0  0  0  0
  196.4050  173.4910  142.9490 C   0  0  0  0  0  3  0  0  0  0  0  0
  191.9200  176.1080  145.5490 N   0  0  0  0  0  0  0  0  0  0  0  0
  196.9790  171.8810  144.6740 N   0  0  0  0  0  0  0  0  0  0  0  0
  191.0550  175.9450  144.3590 C   0  0  2  0  0  3  0  0  0  0  0  0
  192.2650  176.2270  142.3620 C   0  0  2  0  0  3  0  0  0  0  0  0
  197.0870  172.4070  143.3330 C   0  0  0  0  0  3  0  0  0  0  0  0
  191.0910  175.4480  142.0050 C   0  0  0  0  0  2  0  0  0  0  0  0
  195.5390  174.1460  143.9290 C   0  0  0  0  0  0  0  0  0  0  0  0
  191.3700  177.0790  146.3160 O   0  0  0  0  0  1  0  0  0  0  0  0
  188.4960  176.0720  144.9240 C   0  0  2  0  0  3  0  0  0  0  0  0
  189.2790  174.2170  146.9690 C   0  0  0  0  0  3  0  0  0  0  0  0
  188.1920  175.2180  147.2350 C   0  0  0  0  0  2  0  0  0  0  0  0
  190.8880  173.1500  145.6400 O   0  0  0  0  0  1  0  0  0  0  0  0
  188.3660  176.4750  146.3930 C   0  0  0  0  0  2  0  0  0  0  0  0
  189.9510  174.1610  145.8150 C   0  0  0  0  0  0  0  0  0  0  0  0
  189.7490  175.1850  144.7140 C   0  0  2  0  0  3  0  0  0  0  0  0
  187.4810  176.9720  142.8320 C   0  0  0  0  0  0  0  0  0  0  0  0
  188.4110  177.2670  143.9580 C   0  0  1  0  0  3  0  0  0  0  0  0
  187.7400  178.4810  144.6280 C   0  0  0  0  0  2  0  0  0  0  0  0
  187.6660  176.0680  141.9740 O   0  0  0  0  0  0  0  0  0  0  0  0
  186.3530  177.8810  142.8340 C   0  0  0  0  0  0  0  0  0  0  0  0
  186.4950  178.7380  143.8380 C   0  0  0  0  0  0  0  0  0  0  0  0
  185.2590  177.8390  141.9010 N   0  0  0  0  0  0  0  0  0  0  0  0
  185.4620  178.0400  140.5560 O   0  0  0  0  0  0  0  0  0  0  0  0
  184.0930  177.6660  142.3110 O   0  0  0  0  0  0  0  0  0  0  0  0
  185.5590  179.8470  144.1820 C   0  0  0  0  0  2  0  0  0  0  0  0
  184.6400  179.4130  145.1200 F   0  0  0  0  0  0  0  0  0  0  0  0
  1  6  1  0  0  0  0
  3 13  1  0  0  0  0
  4 18  1  6  0  0  0
  4 15  1  0  0  0  0
  5 19  1  0  0  0  0
  5  7  1  0  0  0  0
  6  5  1  0  0  0  0
  7  3  1  0  0  0  0
  7 11  2  0  0  0  0
  9  8  1  6  0  0  0
 10  9  1  0  0  0  0
 10 11  1  0  0  0  0
 12 17  2  0  0  0  0
 12 19  1  0  0  0  0
 13 20  1  0  0  0  0
 14  2  1  0  0  0  0
 14  9  1  0  0  0  0
 15 27  1  0  0  0  0
 15 13  1  1  0  0  0
 16  1  1  6  0  0  0
 16  4  1  0  0  0  0
 17 14  1  0  0  0  0
 18 16  1  0  0  0  0
 19 10  2  0  0  0  0
 21 25  1  1  0  0  0
 22 23  1  0  0  0  0
 24 26  1  0  0  0  0
 25 23  1  0  0  0  0
 26 22  2  0  0  0  0
 27 21  1  0  0  0  0
 27 26  1  1  0  0  0
 28 32  1  0  0  0  0
 28 29  1  0  0  0  0
 29 30  1  1  0  0  0
 29 21  1  0  0  0  0
 31 28  2  0  0  0  0
 32 33  2  0  0  0  0
 33 37  1  0  0  0  0
 33 30  1  0  0  0  0
 34 36  2  0  0  0  0
 34 32  1  0  0  0  0
 35 34  2  0  0  0  0
 37 38  1  0  0  0  0
M  END
>  <MODEL>
3

>  <REMARK>
 VINA RESULT:      -7.5      2.911      9.272
  Name = 
  4 active torsions:
  status: ('A' for Active; 'I' for Inactive)
    1  A    between atoms: N_1  and  C_32
    2  A    between atoms: C_2  and  C_22
    3  A    between atoms: C_12  and  C_34
    4  A    between atoms: C_29  and  C_38
                            x       y       z     vdW  Elec       q    Type
                         _______ _______ _______ _____ _____    ______ ____

>  <TORSDO>
F 4

$$$$
=
 OpenBabel11042416253D

 38 43  0  0  1  0  0  0  0  0999 V2000
  189.2700  174.9750  147.0540 C   0  0  0  0  0  2  0  0  0  0  0  0
  183.6800  179.2570  145.3880 O   0  0  0  0  0  1  0  0  0  0  0  0
  190.4830  176.7760  144.1750 C   0  0  0  0  0  2  0  0  0  0  0  0
  189.4220  174.2680  144.7480 N   0  0  2  0  0  0  0  0  0  0  0  0
  188.6560  177.0530  145.8880 N   0  0  0  0  0  0  0  0  0  0  0  0
  189.3650  176.4950  147.0380 C   0  0  0  0  0  2  0  0  0  0  0  0
  189.1190  177.2030  144.6250 C   0  0  0  0  0  0  0  0  0  0  0  0
  185.0100  177.5410  143.3080 C   0  0  0  0  0  1  0  0  0  0  0  0
  185.7020  178.4770  144.2840 C   0  0  2  0  0  3  0  0  0  0  0  0
  187.0610  177.9430  144.6220 C   0  0  0  0  0  0  0  0  0  0  0  0
  188.1540  177.7610  143.7910 C   0  0  0  0  0  3  0  0  0  0  0  0
  186.4590  177.5660  146.9960 C   0  0  0  0  0  3  0  0  0  0  0  0
  190.3870  175.7760  143.1110 N   0  0  0  0  0  0  0  0  0  0  0  0
  184.8740  178.6300  145.4950 N   0  0  0  0  0  0  0  0  0  0  0  0
  190.3900  174.4000  143.6550 C   0  0  2  0  0  3  0  0  0  0  0  0
  190.1880  174.3930  145.9980 C   0  0  2  0  0  3  0  0  0  0  0  0
  185.2570  178.1140  146.7890 C   0  0  0  0  0  3  0  0  0  0  0  0
  189.7430  173.0810  145.5600 C   0  0  0  0  0  2  0  0  0  0  0  0
  187.3930  177.5040  145.8720 C   0  0  0  0  0  0  0  0  0  0  0  0
  191.5220  175.9250  142.3880 O   0  0  0  0  0  1  0  0  0  0  0  0
  191.2580  172.6110  141.9430 C   0  0  2  0  0  3  0  0  0  0  0  0
  189.4160  173.9760  140.2160 C   0  0  0  0  0  3  0  0  0  0  0  0
  190.6950  173.4160  139.6630 C   0  0  0  0  0  2  0  0  0  0  0  0
  187.8520  174.3920  141.9110 O   0  0  0  0  0  1  0  0  0  0  0  0
  191.7890  173.3600  140.7210 C   0  0  0  0  0  2  0  0  0  0  0  0
  189.0910  173.9090  141.5110 C   0  0  0  0  0  0  0  0  0  0  0  0
  190.0460  173.3600  142.5540 C   0  0  2  0  0  3  0  0  0  0  0  0
  192.7910  170.8470  142.8130 C   0  0  0  0  0  0  0  0  0  0  0  0
  192.3550  172.2640  142.9650 C   0  0  1  0  0  3  0  0  0  0  0  0
  193.6530  173.0400  142.6770 C   0  0  0  0  0  2  0  0  0  0  0  0
  192.0490  169.8490  143.0100 O   0  0  0  0  0  0  0  0  0  0  0  0
  194.1900  170.7690  142.4400 C   0  0  0  0  0  0  0  0  0  0  0  0
  194.6830  171.9990  142.3690 C   0  0  0  0  0  0  0  0  0  0  0  0
  194.9050  169.5480  142.1810 N   0  0  0  0  0  0  0  0  0  0  0  0
  194.9720  169.0170  140.9150 O   0  0  0  0  0  0  0  0  0  0  0  0
  195.4370  168.9240  143.1210 O   0  0  0  0  0  0  0  0  0  0  0  0
  196.0910  172.3600  142.0300 C   0  0  0  0  0  2  0  0  0  0  0  0
  196.3920  173.6090  142.5400 F   0  0  0  0  0  0  0  0  0  0  0  0
  2 14  1  0  0  0  0
  3  7  1  0  0  0  0
  4 18  1  1  0  0  0
  4 16  1  0  0  0  0
  5  6  1  0  0  0  0
  6  1  1  0  0  0  0
  7  5  1  0  0  0  0
  9  8  1  6  0  0  0
  9 10  1  0  0  0  0
  9 14  1  0  0  0  0
 10 19  2  0  0  0  0
 11 10  1  0  0  0  0
 11  7  2  0  0  0  0
 13  3  1  0  0  0  0
 14 17  1  0  0  0  0
 15 13  1  6  0  0  0
 15  4  1  0  0  0  0
 16 18  1  1  0  0  0
 16  1  1  0  0  0  0
 17 12  2  0  0  0  0
 19  5  1  0  0  0  0
 19 12  1  0  0  0  0
 20 13  1  0  0  0  0
 21 25  1  6  0  0  0
 21 27  1  0  0  0  0
 21 29  1  0  0  0  0
 22 26  2  0  0  0  0
 23 22  1  0  0  0  0
 23 25  1  0  0  0  0
 26 24  1  0  0  0  0
 27 26  1  6  0  0  0
 27 15  1  0  0  0  0
 28 29  1  0  0  0  0
 28 31  2  0  0  0  0
 29 30  1  6  0  0  0
 32 28  1  0  0  0  0
 33 32  2  0  0  0  0
 33 30  1  0  0  0  0
 34 32  1  0  0  0  0
 34 36  2  0  0  0  0
 35 34  2  0  0  0  0
 37 33  1  0  0  0  0
 37 38  1  0  0  0  0
M  END
>  <MODEL>
4

>  <REMARK>
 VINA RESULT:      -7.5      2.163      2.505
  Name = 
  4 active torsions:
  status: ('A' for Active; 'I' for Inactive)
    1  A    between atoms: N_1  and  C_32
    2  A    between atoms: C_2  and  C_22
    3  A    between atoms: C_12  and  C_34
    4  A    between atoms: C_29  and  C_38
                            x       y       z     vdW  Elec       q    Type
                         _______ _______ _______ _____ _____    ______ ____

>  <TORSDO>
F 4

$$$$
=
 OpenBabel11042416253D

 38 43  0  0  1  0  0  0  0  0999 V2000
  188.8690  178.6070  142.0170 C   0  0  0  0  0  2  0  0  0  0  0  0
  182.9770  179.0420  146.1970 O   0  0  0  0  0  1  0  0  0  0  0  0
  188.6680  175.3030  143.4490 C   0  0  0  0  0  2  0  0  0  0  0  0
  190.1090  177.6470  143.8570 N   0  0  2  0  0  0  0  0  0  0  0  0
  187.1200  177.2620  143.1080 N   0  0  0  0  0  0  0  0  0  0  0  0
  187.6460  177.7190  141.8230 C   0  0  0  0  0  2  0  0  0  0  0  0
  187.5340  176.2010  143.8400 C   0  0  0  0  0  0  0  0  0  0  0  0
  185.5800  177.9810  147.2670 C   0  0  0  0  0  1  0  0  0  0  0  0
  184.8900  177.5530  145.9830 C   0  0  2  0  0  3  0  0  0  0  0  0
  185.9140  177.1390  144.9700 C   0  0  0  0  0  0  0  0  0  0  0  0
  186.8050  176.0790  145.0200 C   0  0  0  0  0  3  0  0  0  0  0  0
  185.3460  179.0090  143.4470 C   0  0  0  0  0  3  0  0  0  0  0  0
  189.7240  175.3300  144.4620 N   0  0  0  0  0  0  0  0  0  0  0  0
  184.0570  178.6600  145.4750 N   0  0  0  0  0  0  0  0  0  0  0  0
  190.7410  176.3610  144.1590 C   0  0  2  0  0  3  0  0  0  0  0  0
  190.0660  177.7550  142.3900 C   0  0  2  0  0  3  0  0  0  0  0  0
  184.3540  179.3840  144.2610 C   0  0  0  0  0  3  0  0  0  0  0  0
  191.0570  178.5140  143.1340 C   0  0  0  0  0  2  0  0  0  0  0  0
  186.1320  177.8320  143.8130 C   0  0  0  0  0  0  0  0  0  0  0  0
  190.3310  174.1240  144.3670 O   0  0  0  0  0  1  0  0  0  0  0  0
  193.1030  175.8720  145.1920 C   0  0  2  0  0  3  0  0  0  0  0  0
  191.5140  175.3260  147.5190 C   0  0  0  0  0  3  0  0  0  0  0  0
  192.7610  174.5320  147.2540 C   0  0  0  0  0  2  0  0  0  0  0  0
  189.9430  177.0040  147.0630 O   0  0  0  0  0  1  0  0  0  0  0  0
  193.0730  174.4550  145.7660 C   0  0  0  0  0  2  0  0  0  0  0  0
  191.0650  176.2750  146.6910 C   0  0  0  0  0  0  0  0  0  0  0  0
  191.7190  176.5500  145.3500 C   0  0  2  0  0  3  0  0  0  0  0  0
  195.1410  176.1520  143.7830 C   0  0  0  0  0  0  0  0  0  0  0  0
  193.6670  175.9340  143.7620 C   0  0  1  0  0  3  0  0  0  0  0  0
  193.5470  174.5730  143.0530 C   0  0  0  0  0  2  0  0  0  0  0  0
  195.7020  177.1850  144.2350 O   0  0  0  0  0  0  0  0  0  0  0  0
  195.8420  175.0330  143.1850 C   0  0  0  0  0  0  0  0  0  0  0  0
  194.9510  174.1440  142.7650 C   0  0  0  0  0  0  0  0  0  0  0  0
  197.2730  174.9180  143.0840 N   0  0  0  0  0  0  0  0  0  0  0  0
  197.9390  175.2930  141.9400 O   0  0  0  0  0  0  0  0  0  0  0  0
  197.9280  174.4240  144.0240 O   0  0  0  0  0  0  0  0  0  0  0  0
  195.2570  172.8550  142.0790 C   0  0  0  0  0  2  0  0  0  0  0  0
  195.8510  171.9780  142.9690 F   0  0  0  0  0  0  0  0  0  0  0  0
  3  7  1  0  0  0  0
  3 13  1  0  0  0  0
  4 18  1  1  0  0  0
  4 15  1  0  0  0  0
  5 19  1  0  0  0  0
  5  7  1  0  0  0  0
  6  1  1  0  0  0  0
  6  5  1  0  0  0  0
  7 11  2  0  0  0  0
  9  8  1  1  0  0  0
 10 11  1  0  0  0  0
 10  9  1  0  0  0  0
 12 19  1  0  0  0  0
 12 17  2  0  0  0  0
 14  9  1  0  0  0  0
 14  2  1  0  0  0  0
 15 13  1  1  0  0  0
 15 27  1  0  0  0  0
 16  1  1  1  0  0  0
 16 18  1  0  0  0  0
 16  4  1  0  0  0  0
 17 14  1  0  0  0  0
 19 10  2  0  0  0  0
 20 13  1  0  0  0  0
 21 27  1  0  0  0  0
 21 25  1  6  0  0  0
 23 22  1  0  0  0  0
 25 23  1  0  0  0  0
 26 24  1  0  0  0  0
 26 22  2  0  0  0  0
 27 26  1  1  0  0  0
 28 31  2  0  0  0  0
 29 30  1  1  0  0  0
 29 28  1  0  0  0  0
 29 21  1  0  0  0  0
 32 28  1  0  0  0  0
 33 30  1  0  0  0  0
 33 32  2  0  0  0  0
 34 32  1  0  0  0  0
 34 36  2  0  0  0  0
 35 34  2  0  0  0  0
 37 33  1  0  0  0  0
 37 38  1  0  0  0  0
M  END
>  <MODEL>
5

>  <REMARK>
 VINA RESULT:      -7.3      2.747      4.295
  Name = 
  4 active torsions:
  status: ('A' for Active; 'I' for Inactive)
    1  A    between atoms: N_1  and  C_32
    2  A    between atoms: C_2  and  C_22
    3  A    between atoms: C_12  and  C_34
    4  A    between atoms: C_29  and  C_38
                            x       y       z     vdW  Elec       q    Type
                         _______ _______ _______ _____ _____    ______ ____

>  <TORSDO>
F 4

$$$$
=
 OpenBabel11042416253D

 38 43  0  0  1  0  0  0  0  0999 V2000
  190.0390  171.1710  143.2440 C   0  0  0  0  0  2  0  0  0  0  0  0
  196.3300  170.9160  139.6780 O   0  0  0  0  0  1  0  0  0  0  0  0
  189.8480  174.0590  141.0920 C   0  0  0  0  0  2  0  0  0  0  0  0
  190.4190  173.5020  143.7580 N   0  0  2  0  0  0  0  0  0  0  0  0
  191.1770  171.9210  141.1950 N   0  0  0  0  0  0  0  0  0  0  0  0
  190.1290  171.0520  141.7270 C   0  0  0  0  0  2  0  0  0  0  0  0
  191.0840  173.2380  140.8920 C   0  0  0  0  0  0  0  0  0  0  0  0
  195.4060  173.4320  141.0410 C   0  0  0  0  0  1  0  0  0  0  0  0
  194.5950  172.5700  140.0880 C   0  0  2  0  0  3  0  0  0  0  0  0
  193.1420  172.6440  140.4490 C   0  0  0  0  0  0  0  0  0  0  0  0
  192.2930  173.7380  140.4170 C   0  0  0  0  0  3  0  0  0  0  0  0
  193.0480  170.2470  141.0730 C   0  0  0  0  0  3  0  0  0  0  0  0
  190.1030  175.1630  142.0190 N   0  0  0  0  0  0  0  0  0  0  0  0
  195.0850  171.1800  140.1370 N   0  0  0  0  0  0  0  0  0  0  0  0
  189.7970  174.7840  143.4150 C   0  0  2  0  0  3  0  0  0  0  0  0
  189.3700  172.4800  143.6150 C   0  0  2  0  0  3  0  0  0  0  0  0
  194.3170  170.0860  140.6850 C   0  0  0  0  0  3  0  0  0  0  0  0
  189.7590  172.9250  144.9430 C   0  0  0  0  0  2  0  0  0  0  0  0
  192.4430  171.5700  140.9250 C   0  0  0  0  0  0  0  0  0  0  0  0
  189.2250  176.1300  141.6620 O   0  0  0  0  0  1  0  0  0  0  0  0
  189.3390  177.0650  144.6270 C   0  0  2  0  0  3  0  0  0  0  0  0
  192.0650  177.5410  143.8680 C   0  0  0  0  0  3  0  0  0  0  0  0
  191.0790  178.6730  143.8880 C   0  0  0  0  0  2  0  0  0  0  0  0
  192.7320  175.3160  144.1810 O   0  0  0  0  0  1  0  0  0  0  0  0
  189.6580  178.1860  143.6380 C   0  0  0  0  0  2  0  0  0  0  0  0
  191.7310  176.2790  144.1550 C   0  0  0  0  0  0  0  0  0  0  0  0
  190.2940  175.8640  144.4130 C   0  0  2  0  0  3  0  0  0  0  0  0
  187.2290  177.0230  145.9560 C   0  0  0  0  0  0  0  0  0  0  0  0
  187.8490  176.6790  144.6450 C   0  0  1  0  0  3  0  0  0  0  0  0
  187.0360  177.5410  143.6610 C   0  0  0  0  0  2  0  0  0  0  0  0
  187.5550  176.5050  147.0560 O   0  0  0  0  0  0  0  0  0  0  0  0
  186.1790  178.0090  145.7930 C   0  0  0  0  0  0  0  0  0  0  0  0
  186.0600  178.3000  144.5040 C   0  0  0  0  0  0  0  0  0  0  0  0
  185.4110  178.5780  146.8690 N   0  0  0  0  0  0  0  0  0  0  0  0
  184.0830  178.2630  147.0400 O   0  0  0  0  0  0  0  0  0  0  0  0
  185.9320  179.4130  147.6360 O   0  0  0  0  0  0  0  0  0  0  0  0
  185.0840  179.2590  143.9090 C   0  0  0  0  0  2  0  0  0  0  0  0
  185.5750  180.5490  144.0030 F   0  0  0  0  0  0  0  0  0  0  0  0
  2 14  1  0  0  0  0
  3 13  1  0  0  0  0
  4 18  1  1  0  0  0
  5  6  1  0  0  0  0
  6  1  1  0  0  0  0
  7  3  1  0  0  0  0
  7  5  1  0  0  0  0
  9 14  1  0  0  0  0
  9 10  1  0  0  0  0
  9  8  1  1  0  0  0
 10 19  2  0  0  0  0
 11 10  1  0  0  0  0
 11  7  2  0  0  0  0
 14 17  1  0  0  0  0
 15 13  1  6  0  0  0
 15  4  1  0  0  0  0
 15 27  1  0  0  0  0
 16  1  1  1  0  0  0
 16  4  1  0  0  0  0
 16 18  1  0  0  0  0
 17 12  2  0  0  0  0
 19 12  1  0  0  0  0
 19  5  1  0  0  0  0
 20 13  1  0  0  0  0
 21 25  1  6  0  0  0
 21 29  1  0  0  0  0
 22 23  1  0  0  0  0
 22 26  2  0  0  0  0
 25 23  1  0  0  0  0
 26 24  1  0  0  0  0
 27 26  1  6  0  0  0
 27 21  1  0  0  0  0
 28 31  2  0  0  0  0
 29 30  1  6  0  0  0
 29 28  1  0  0  0  0
 30 33  1  0  0  0  0
 32 28  1  0  0  0  0
 32 34  1  0  0  0  0
 33 32  2  0  0  0  0
 34 35  2  0  0  0  0
 34 36  2  0  0  0  0
 37 38  1  0  0  0  0
 37 33  1  0  0  0  0
M  END
>  <MODEL>
6

>  <REMARK>
 VINA RESULT:      -7.2      3.821      8.870
  Name = 
  4 active torsions:
  status: ('A' for Active; 'I' for Inactive)
    1  A    between atoms: N_1  and  C_32
    2  A    between atoms: C_2  and  C_22
    3  A    between atoms: C_12  and  C_34
    4  A    between atoms: C_29  and  C_38
                            x       y       z     vdW  Elec       q    Type
                         _______ _______ _______ _____ _____    ______ ____

>  <TORSDO>
F 4

$$$$
=
 OpenBabel11042416253D

 38 43  0  0  1  0  0  0  0  0999 V2000
  191.0180  172.2340  142.2990 C   0  0  0  0  0  2  0  0  0  0  0  0
  197.9400  171.0840  144.0660 O   0  0  0  0  0  1  0  0  0  0  0  0
  192.2590  175.5740  142.8550 C   0  0  0  0  0  2  0  0  0  0  0  0
  190.7600  173.6720  144.2250 N   0  0  2  0  0  0  0  0  0  0  0  0
  193.2340  173.2990  142.3860 N   0  0  0  0  0  0  0  0  0  0  0  0
  192.1840  172.8030  141.5000 C   0  0  0  0  0  2  0  0  0  0  0  0
  193.3060  174.5110  142.9860 C   0  0  0  0  0  0  0  0  0  0  0  0
  196.1590  172.8140  145.7630 C   0  0  0  0  0  1  0  0  0  0  0  0
  196.3450  172.9110  144.2580 C   0  0  2  0  0  3  0  0  0  0  0  0
  195.0790  173.4000  143.6210 C   0  0  0  0  0  0  0  0  0  0  0  0
  194.4490  174.6250  143.7720 C   0  0  0  0  0  3  0  0  0  0  0  0
  194.7160  171.2690  142.4110 C   0  0  0  0  0  3  0  0  0  0  0  0
  191.6950  175.9090  144.1640 N   0  0  0  0  0  0  0  0  0  0  0  0
  196.7350  171.5930  143.7210 N   0  0  0  0  0  0  0  0  0  0  0  0
  190.4980  175.0930  144.4660 C   0  0  2  0  0  3  0  0  0  0  0  0
  190.2060  173.3670  142.8960 C   0  0  2  0  0  3  0  0  0  0  0  0
  195.8790  170.7980  142.8710 C   0  0  0  0  0  3  0  0  0  0  0  0
  189.4860  172.9440  144.0850 C   0  0  0  0  0  2  0  0  0  0  0  0
  194.3230  172.6260  142.7880 C   0  0  0  0  0  0  0  0  0  0  0  0
  191.2870  177.1950  144.0510 O   0  0  0  0  0  1  0  0  0  0  0  0
  188.7880  176.1500  146.1520 C   0  0  2  0  0  3  0  0  0  0  0  0
  191.2050  176.7910  147.5590 C   0  0  0  0  0  3  0  0  0  0  0  0
  190.0380  177.7340  147.5980 C   0  0  0  0  0  2  0  0  0  0  0  0
  192.3030  174.8130  146.9450 O   0  0  0  0  0  1  0  0  0  0  0  0
  189.1770  177.6160  146.3470 C   0  0  0  0  0  2  0  0  0  0  0  0
  191.2000  175.6540  146.8560 C   0  0  0  0  0  0  0  0  0  0  0  0
  190.0510  175.2770  145.9410 C   0  0  2  0  0  3  0  0  0  0  0  0
  186.5260  176.8200  145.3420 C   0  0  0  0  0  0  0  0  0  0  0  0
  187.7060  175.9490  145.0750 C   0  0  1  0  0  3  0  0  0  0  0  0
  188.1830  176.4540  143.7020 C   0  0  0  0  0  2  0  0  0  0  0  0
  185.7840  176.7220  146.3540 O   0  0  0  0  0  0  0  0  0  0  0  0
  186.3270  177.7720  144.2670 C   0  0  0  0  0  0  0  0  0  0  0  0
  187.2510  177.5670  143.3370 C   0  0  0  0  0  0  0  0  0  0  0  0
  185.2970  178.7760  144.2380 N   0  0  0  0  0  0  0  0  0  0  0  0
  185.5680  180.0830  144.5700 O   0  0  0  0  0  0  0  0  0  0  0  0
  184.1240  178.4600  143.9550 O   0  0  0  0  0  0  0  0  0  0  0  0
  187.3910  178.3250  142.0590 C   0  0  0  0  0  2  0  0  0  0  0  0
  188.7200  178.3620  141.6770 F   0  0  0  0  0  0  0  0  0  0  0  0
  3  7  1  0  0  0  0
  3 13  1  0  0  0  0
  4 18  1  1  0  0  0
  4 15  1  0  0  0  0
  5 19  1  0  0  0  0
  5  7  1  0  0  0  0
  6  1  1  0  0  0  0
  6  5  1  0  0  0  0
  7 11  2  0  0  0  0
  9  8  1  1  0  0  0
 10 11  1  0  0  0  0
 10  9  1  0  0  0  0
 12 19  1  0  0  0  0
 12 17  2  0  0  0  0
 14  2  1  0  0  0  0
 14  9  1  0  0  0  0
 15 13  1  1  0  0  0
 15 27  1  0  0  0  0
 16  1  1  6  0  0  0
 16 18  1  0  0  0  0
 16  4  1  0  0  0  0
 17 14  1  0  0  0  0
 19 10  2  0  0  0  0
 20 13  1  0  0  0  0
 21 25  1  6  0  0  0
 22 23  1  0  0  0  0
 25 23  1  0  0  0  0
 26 24  1  0  0  0  0
 26 22  2  0  0  0  0
 27 21  1  0  0  0  0
 27 26  1  1  0  0  0
 28 31  2  0  0  0  0
 29 30  1  6  0  0  0
 29 28  1  0  0  0  0
 29 21  1  0  0  0  0
 32 28  1  0  0  0  0
 33 30  1  0  0  0  0
 33 32  2  0  0  0  0
 34 32  1  0  0  0  0
 34 35  2  0  0  0  0
 36 34  2  0  0  0  0
 37 33  1  0  0  0  0
 38 37  1  0  0  0  0
M  END
>  <MODEL>
7

>  <REMARK>
 VINA RESULT:      -7.1      2.629      9.024
  Name = 
  4 active torsions:
  status: ('A' for Active; 'I' for Inactive)
    1  A    between atoms: N_1  and  C_32
    2  A    between atoms: C_2  and  C_22
    3  A    between atoms: C_12  and  C_34
    4  A    between atoms: C_29  and  C_38
                            x       y       z     vdW  Elec       q    Type
                         _______ _______ _______ _____ _____    ______ ____

>  <TORSDO>
F 4

$$$$
=
 OpenBabel11042416253D

 38 43  0  0  1  0  0  0  0  0999 V2000
  188.7630  175.8190  146.5080 C   0  0  0  0  0  2  0  0  0  0  0  0
  184.7490  177.8270  140.8320 O   0  0  0  0  0  1  0  0  0  0  0  0
  191.0900  177.7410  144.5330 C   0  0  0  0  0  2  0  0  0  0  0  0
  190.5070  175.0630  145.0140 N   0  0  2  0  0  0  0  0  0  0  0  0
  188.5890  177.4860  144.7060 N   0  0  0  0  0  0  0  0  0  0  0  0
  188.5030  177.2770  146.1500 C   0  0  0  0  0  2  0  0  0  0  0  0
  189.7030  177.7060  143.9680 C   0  0  0  0  0  0  0  0  0  0  0  0
  187.4420  176.5400  140.4660 C   0  0  0  0  0  1  0  0  0  0  0  0
  187.1180  177.7150  141.3730 C   0  0  2  0  0  3  0  0  0  0  0  0
  188.0230  177.6980  142.5680 C   0  0  0  0  0  0  0  0  0  0  0  0
  189.3990  177.8480  142.6170 C   0  0  0  0  0  3  0  0  0  0  0  0
  186.1490  177.2890  144.1370 C   0  0  0  0  0  3  0  0  0  0  0  0
  191.9230  176.7030  143.9250 N   0  0  0  0  0  0  0  0  0  0  0  0
  185.7010  177.6530  141.7780 N   0  0  0  0  0  0  0  0  0  0  0  0
  191.8870  175.4470  144.7060 C   0  0  2  0  0  3  0  0  0  0  0  0
  190.2450  175.5200  146.3880 C   0  0  2  0  0  3  0  0  0  0  0  0
  185.2740  177.3800  143.1300 C   0  0  0  0  0  3  0  0  0  0  0  0
  190.4900  174.1100  146.1380 C   0  0  0  0  0  2  0  0  0  0  0  0
  187.5680  177.4780  143.8370 C   0  0  0  0  0  0  0  0  0  0  0  0
  193.1870  177.1840  143.9940 O   0  0  0  0  0  1  0  0  0  0  0  0
  191.6270  173.4180  143.0640 C   0  0  2  0  0  3  0  0  0  0  0  0
  193.3160  172.1590  145.0130 C   0  0  0  0  0  3  0  0  0  0  0  0
  192.2610  171.3610  144.3020 C   0  0  0  0  0  2  0  0  0  0  0  0
  194.5490  174.1000  145.4660 O   0  0  0  0  0  1  0  0  0  0  0  0
  191.0910  172.2350  143.8710 C   0  0  0  0  0  2  0  0  0  0  0  0
  193.4970  173.4680  144.8150 C   0  0  0  0  0  0  0  0  0  0  0  0
  192.5700  174.2860  143.9360 C   0  0  2  0  0  3  0  0  0  0  0  0
  190.4940  173.9100  140.8980 C   0  0  0  0  0  0  0  0  0  0  0  0
  190.5210  174.2200  142.3560 C   0  0  1  0  0  3  0  0  0  0  0  0
  189.1220  173.7680  142.8130 C   0  0  0  0  0  2  0  0  0  0  0  0
  191.4320  174.1650  140.0980 O   0  0  0  0  0  0  0  0  0  0  0  0
  189.2330  173.3050  140.5170 C   0  0  0  0  0  0  0  0  0  0  0  0
  188.4530  173.2290  141.5880 C   0  0  0  0  0  0  0  0  0  0  0  0
  188.9030  172.8550  139.1900 N   0  0  0  0  0  0  0  0  0  0  0  0
  189.2950  171.6160  138.7410 O   0  0  0  0  0  0  0  0  0  0  0  0
  188.2950  173.6120  138.4060 O   0  0  0  0  0  0  0  0  0  0  0  0
  187.0650  172.6830  141.6240 C   0  0  0  0  0  2  0  0  0  0  0  0
  186.8900  171.9160  142.7620 F   0  0  0  0  0  0  0  0  0  0  0  0
  2 14  1  0  0  0  0
  4 18  1  1  0  0  0
  4 16  1  0  0  0  0
  5  6  1  0  0  0  0
  6  1  1  0  0  0  0
  7  3  1  0  0  0  0
  7  5  1  0  0  0  0
  9  8  1  6  0  0  0
  9 14  1  0  0  0  0
  9 10  1  0  0  0  0
 10 11  1  0  0  0  0
 10 19  2  0  0  0  0
 11  7  2  0  0  0  0
 13 20  1  0  0  0  0
 13  3  1  0  0  0  0
 14 17  1  0  0  0  0
 15 13  1  6  0  0  0
 15  4  1  0  0  0  0
 16 18  1  1  0  0  0
 16  1  1  0  0  0  0
 17 12  2  0  0  0  0
 19 12  1  0  0  0  0
 19  5  1  0  0  0  0
 21 25  1  1  0  0  0
 21 27  1  0  0  0  0
 23 22  1  0  0  0  0
 25 23  1  0  0  0  0
 26 22  2  0  0  0  0
 26 24  1  0  0  0  0
 27 15  1  0  0  0  0
 27 26  1  1  0  0  0
 28 29  1  0  0  0  0
 29 30  1  1  0  0  0
 29 21  1  0  0  0  0
 31 28  2  0  0  0  0
 32 28  1  0  0  0  0
 32 33  2  0  0  0  0
 33 37  1  0  0  0  0
 33 30  1  0  0  0  0
 34 32  1  0  0  0  0
 35 34  2  0  0  0  0
 36 34  2  0  0  0  0
 37 38  1  0  0  0  0
M  END
>  <MODEL>
8

>  <REMARK>
 VINA RESULT:      -6.8      2.884      5.128
  Name = 
  4 active torsions:
  status: ('A' for Active; 'I' for Inactive)
    1  A    between atoms: N_1  and  C_32
    2  A    between atoms: C_2  and  C_22
    3  A    between atoms: C_12  and  C_34
    4  A    between atoms: C_29  and  C_38
                            x       y       z     vdW  Elec       q    Type
                         _______ _______ _______ _____ _____    ______ ____

>  <TORSDO>
F 4

$$$$
=
 OpenBabel11042416253D

 38 43  0  0  1  0  0  0  0  0999 V2000
  192.1300  175.0200  146.8760 C   0  0  0  0  0  2  0  0  0  0  0  0
  186.6050  178.2900  143.5380 O   0  0  0  0  0  1  0  0  0  0  0  0
  193.7460  176.6830  144.1140 C   0  0  0  0  0  2  0  0  0  0  0  0
  192.8800  174.1190  144.7620 N   0  0  2  0  0  0  0  0  0  0  0  0
  191.5590  176.8670  145.3540 N   0  0  0  0  0  0  0  0  0  0  0  0
  192.0500  176.5300  146.6880 C   0  0  0  0  0  2  0  0  0  0  0  0
  192.2760  176.9570  144.2080 C   0  0  0  0  0  0  0  0  0  0  0  0
  188.5600  176.5830  142.0200 C   0  0  0  0  0  1  0  0  0  0  0  0
  188.9000  177.6980  142.9940 C   0  0  2  0  0  3  0  0  0  0  0  0
  190.2000  177.3960  143.6770 C   0  0  0  0  0  0  0  0  0  0  0  0
  191.4660  177.2890  143.1250 C   0  0  0  0  0  3  0  0  0  0  0  0
  189.1250  177.1720  145.8980 C   0  0  0  0  0  3  0  0  0  0  0  0
  194.0090  175.5800  143.1890 N   0  0  0  0  0  0  0  0  0  0  0  0
  187.8080  177.8510  143.9740 N   0  0  0  0  0  0  0  0  0  0  0  0
  194.0470  174.2780  143.8910 C   0  0  2  0  0  3  0  0  0  0  0  0
  193.3240  174.4720  146.1200 C   0  0  2  0  0  3  0  0  0  0  0  0
  187.9460  177.5220  145.3740 C   0  0  0  0  0  3  0  0  0  0  0  0
  193.1440  173.0740  145.7680 C   0  0  0  0  0  2  0  0  0  0  0  0
  190.2890  177.1320  145.0140 C   0  0  0  0  0  0  0  0  0  0  0  0
  195.2530  175.8150  142.7090 O   0  0  0  0  0  1  0  0  0  0  0  0
  192.7030  172.5290  142.4710 C   0  0  2  0  0  3  0  0  0  0  0  0
  194.7130  170.7620  143.5080 C   0  0  0  0  0  3  0  0  0  0  0  0
  193.3120  170.2660  143.2910 C   0  0  0  0  0  2  0  0  0  0  0  0
  196.4190  172.3670  143.4390 O   0  0  0  0  0  1  0  0  0  0  0  0
  192.2930  171.3910  143.4070 C   0  0  0  0  0  2  0  0  0  0  0  0
  195.0830  172.0260  143.2770 C   0  0  0  0  0  0  0  0  0  0  0  0
  194.0840  173.0980  142.8830 C   0  0  2  0  0  3  0  0  0  0  0  0
  191.2410  173.7640  140.8720 C   0  0  0  0  0  0  0  0  0  0  0  0
  191.6120  173.6010  142.3070 C   0  0  1  0  0  3  0  0  0  0  0  0
  190.2830  173.1490  142.9400 C   0  0  0  0  0  2  0  0  0  0  0  0
  192.0250  174.1750  139.9770 O   0  0  0  0  0  0  0  0  0  0  0  0
  189.8520  173.4170  140.6500 C   0  0  0  0  0  0  0  0  0  0  0  0
  189.3040  173.0770  141.8100 C   0  0  0  0  0  0  0  0  0  0  0  0
  189.1940  173.4320  139.3700 N   0  0  0  0  0  0  0  0  0  0  0  0
  188.4290  174.5040  138.9760 O   0  0  0  0  0  0  0  0  0  0  0  0
  189.2720  172.4410  138.6160 O   0  0  0  0  0  0  0  0  0  0  0  0
  187.8850  172.6660  142.0220 C   0  0  0  0  0  2  0  0  0  0  0  0
  187.0680  173.7820  142.0250 F   0  0  0  0  0  0  0  0  0  0  0  0
  2 14  1  0  0  0  0
  3  7  1  0  0  0  0
  4 18  1  1  0  0  0
  4 16  1  0  0  0  0
  5  6  1  0  0  0  0
  6  1  1  0  0  0  0
  7  5  1  0  0  0  0
  9  8  1  6  0  0  0
  9 10  1  0  0  0  0
  9 14  1  0  0  0  0
 10 19  2  0  0  0  0
 11 10  1  0  0  0  0
 11  7  2  0  0  0  0
 13  3  1  0  0  0  0
 14 17  1  0  0  0  0
 15 13  1  6  0  0  0
 15  4  1  0  0  0  0
 16 18  1  1  0  0  0
 16  1  1  0  0  0  0
 17 12  2  0  0  0  0
 19  5  1  0  0  0  0
 19 12  1  0  0  0  0
 20 13  1  0  0  0  0
 21 27  1  0  0  0  0
 21 25  1  1  0  0  0
 23 25  1  0  0  0  0
 23 22  1  0  0  0  0
 26 24  1  0  0  0  0
 26 22  2  0  0  0  0
 27 26  1  1  0  0  0
 27 15  1  0  0  0  0
 28 29  1  0  0  0  0
 29 21  1  0  0  0  0
 29 30  1  1  0  0  0
 31 28  2  0  0  0  0
 32 28  1  0  0  0  0
 32 33  2  0  0  0  0
 33 37  1  0  0  0  0
 33 30  1  0  0  0  0
 34 32  1  0  0  0  0
 35 34  2  0  0  0  0
 36 34  2  0  0  0  0
 37 38  1  0  0  0  0
M  END
>  <MODEL>
9

>  <REMARK>
 VINA RESULT:      -6.8      2.969      5.421
  Name = 
  4 active torsions:
  status: ('A' for Active; 'I' for Inactive)
    1  A    between atoms: N_1  and  C_32
    2  A    between atoms: C_2  and  C_22
    3  A    between atoms: C_12  and  C_34
    4  A    between atoms: C_29  and  C_38
                            x       y       z     vdW  Elec       q    Type
                         _______ _______ _______ _____ _____    ______ ____

>  <TORSDO>
F 4

$$$$
