=
 OpenBabel11042419303D

 40 46  0  0  1  0  0  0  0  0999 V2000
  189.4480  173.2080  144.4910 C   0  0  0  0  0  3  0  0  0  0  0  0
  196.3000  172.0430  145.5090 N   0  0  0  0  0  0  0  0  0  0  0  0
  194.5600  169.0180  146.4060 O   0  0  0  0  0  1  0  0  0  0  0  0
  189.3460  172.2570  143.4720 C   0  0  0  0  0  0  0  0  0  0  0  0
  195.7120  173.2760  145.0090 C   0  0  1  0  0  3  0  0  0  0  0  0
  193.1450  173.8210  144.5260 N   0  0  0  0  0  0  0  0  0  0  0  0
  188.1310  171.7780  143.1140 F   0  0  0  0  0  0  0  0  0  0  0  0
  190.7030  173.7040  144.8700 C   0  0  0  0  0  0  0  0  0  0  0  0
  190.8310  174.6320  145.9120 O   0  0  0  0  0  0  0  0  0  0  0  0
  195.6200  175.7720  145.4250 C   0  0  0  0  0  2  0  0  0  0  0  0
  191.6630  177.1200  144.5700 C   0  0  0  0  0  2  0  0  0  0  0  0
  194.2220  172.9480  144.9890 C   0  0  0  0  0  0  0  0  0  0  0  0
  191.7480  172.2970  143.1930 C   0  0  0  0  0  3  0  0  0  0  0  0
  191.8590  173.2560  144.2080 C   0  0  0  0  0  0  0  0  0  0  0  0
  190.2150  176.6940  144.7690 C   0  0  0  0  0  2  0  0  0  0  0  0
  195.6010  169.8650  146.2140 N   0  0  0  0  0  0  0  0  0  0  0  0
  194.0330  171.7020  145.4030 C   0  0  0  0  0  3  0  0  0  0  0  0
  195.3560  171.1860  145.7200 C   0  0  0  0  0  0  0  0  0  0  0  0
  193.3310  175.2570  144.4380 C   0  0  1  0  0  3  0  0  0  0  0  0
  194.4370  175.7330  144.9100 C   0  0  0  0  0  2  0  0  0  0  0  0
  190.4970  171.7960  142.8290 C   0  0  0  0  0  3  0  0  0  0  0  0
  192.3970  176.1400  143.6630 C   0  0  0  0  0  2  0  0  0  0  0  0
  196.0880  174.4450  145.9520 C   0  0  0  0  0  2  0  0  0  0  0  0
  190.0590  175.8280  146.0180 C   0  0  1  0  0  3  0  0  0  0  0  0
  197.5320  168.6510  145.3450 C   0  0  0  0  0  1  0  0  0  0  0  0
  196.9590  169.4260  146.5150 C   0  0  0  0  0  3  0  0  0  0  0  0
  196.9670  168.5620  147.7620 C   0  0  0  0  0  1  0  0  0  0  0  0
  188.5950  175.5240  146.3170 C   0  0  0  0  0  2  0  0  0  0  0  0
  186.3260  178.6360  146.1090 C   0  0  0  0  0  3  0  0  0  0  0  0
  187.3280  176.5360  144.5180 N   0  0  0  0  0  0  0  0  0  0  0  0
  186.4820  177.5400  144.0140 N   0  0  0  0  0  0  0  0  0  0  0  0
  187.2330  177.6450  146.6170 N   0  0  0  0  0  2  0  0  0  0  0  0
  185.9780  178.5590  144.8310 C   0  0  0  0  0  0  0  0  0  0  0  0
  185.9390  177.5400  142.7230 N   0  0  0  0  0  0  0  0  0  0  0  0
  185.0350  179.3970  144.0950 C   0  0  0  0  0  3  0  0  0  0  0  0
  187.7090  176.5870  145.7620 C   0  0  0  0  0  0  0  0  0  0  0  0
  185.0170  178.6990  142.7180 C   0  0  0  0  0  3  0  0  0  0  0  0
  187.0170  177.8470  141.7910 C   0  0  0  0  0  3  0  0  0  0  0  0
  187.5570  176.5600  141.1960 C   0  0  0  0  0  2  0  0  0  0  0  0
  186.6150  177.4240  140.3900 C   0  0  0  0  0  2  0  0  0  0  0  0
  1  8  1  0  0  0  0
  2 18  2  0  0  0  0
  4  1  2  0  0  0  0
  5  2  1  0  0  0  0
  5 23  1  1  0  0  0
  6 12  1  0  0  0  0
  7  4  1  0  0  0  0
  8  9  1  0  0  0  0
  9 24  1  0  0  0  0
 10 23  1  0  0  0  0
 11 15  1  0  0  0  0
 12  5  1  0  0  0  0
 12 17  2  0  0  0  0
 13 14  1  0  0  0  0
 14  6  1  0  0  0  0
 14  8  2  0  0  0  0
 15 24  1  0  0  0  0
 16  3  1  0  0  0  0
 16 26  1  0  0  0  0
 17 18  1  0  0  0  0
 18 16  1  0  0  0  0
 19 22  1  6  0  0  0
 19  6  1  0  0  0  0
 19 20  1  0  0  0  0
 20 10  1  0  0  0  0
 21 13  2  0  0  0  0
 21  4  1  0  0  0  0
 22 11  1  0  0  0  0
 24 28  1  6  0  0  0
 25 26  1  0  0  0  0
 26 27  1  0  0  0  0
 29 32  1  0  0  0  0
 30 36  2  0  0  0  0
 31 30  1  0  0  0  0
 31 33  1  0  0  0  0
 33 29  2  0  0  0  0
 34 31  1  0  0  0  0
 35 33  1  0  0  0  0
 36 28  1  0  0  0  0
 36 32  1  0  0  0  0
 37 34  1  0  0  0  0
 37 35  2  0  0  0  0
 38 34  1  0  0  0  0
 39 38  1  0  0  0  0
 40 39  1  0  0  0  0
 40 38  1  0  0  0  0
M  END
>  <MODEL>
1

>  <REMARK>
 VINA RESULT:      -9.2      0.000      0.000
  Name = 
  4 active torsions:
  status: ('A' for Active; 'I' for Inactive)
    1  A    between atoms: C_6  and  N_26
    2  A    between atoms: C_15  and  N_28
    3  A    between atoms: C_31  and  C_37
    4  A    between atoms: C_37  and  C_40
                            x       y       z     vdW  Elec       q    Type
                         _______ _______ _______ _____ _____    ______ ____

>  <TORSDO>
F 4

$$$$
=
 OpenBabel11042419303D

 40 46  0  0  1  0  0  0  0  0999 V2000
  190.4600  173.9030  141.2440 C   0  0  0  0  0  3  0  0  0  0  0  0
  196.0000  173.1460  145.4950 N   0  0  0  0  0  0  0  0  0  0  0  0
  194.9130  169.8400  144.5630 O   0  0  0  0  0  1  0  0  0  0  0  0
  191.1160  173.3500  140.1420 C   0  0  0  0  0  0  0  0  0  0  0  0
  195.4240  174.4110  145.0650 C   0  0  1  0  0  3  0  0  0  0  0  0
  193.3690  174.8310  143.4160 N   0  0  0  0  0  0  0  0  0  0  0  0
  190.4000  172.9030  139.0820 F   0  0  0  0  0  0  0  0  0  0  0  0
  191.1940  174.3620  142.3460 C   0  0  0  0  0  0  0  0  0  0  0  0
  190.5530  174.8880  143.4760 O   0  0  0  0  0  0  0  0  0  0  0  0
  194.4880  176.5950  145.9410 C   0  0  0  0  0  2  0  0  0  0  0  0
  191.2380  177.7540  143.4310 C   0  0  0  0  0  2  0  0  0  0  0  0
  194.2770  173.9640  144.1660 C   0  0  0  0  0  0  0  0  0  0  0  0
  193.2470  173.7210  141.2240 C   0  0  0  0  0  3  0  0  0  0  0  0
  192.5970  174.2830  142.3310 C   0  0  0  0  0  0  0  0  0  0  0  0
  190.0450  177.1440  142.7080 C   0  0  0  0  0  2  0  0  0  0  0  0
  195.6520  170.8010  145.1710 N   0  0  0  0  0  0  0  0  0  0  0  0
  194.2470  172.6390  144.1030 C   0  0  0  0  0  3  0  0  0  0  0  0
  195.3360  172.1800  144.9520 C   0  0  0  0  0  0  0  0  0  0  0  0
  193.1870  176.2220  143.7850 C   0  0  1  0  0  3  0  0  0  0  0  0
  193.7580  176.6160  144.8760 C   0  0  0  0  0  2  0  0  0  0  0  0
  192.5090  173.2520  140.1350 C   0  0  0  0  0  3  0  0  0  0  0  0
  192.5470  177.2190  142.8630 C   0  0  0  0  0  2  0  0  0  0  0  0
  194.9750  175.2210  146.3070 C   0  0  0  0  0  2  0  0  0  0  0  0
  189.5410  175.8930  143.4270 C   0  0  1  0  0  3  0  0  0  0  0  0
  197.9070  169.8690  145.2260 C   0  0  0  0  0  1  0  0  0  0  0  0
  196.7570  170.4230  146.0440 C   0  0  0  0  0  3  0  0  0  0  0  0
  196.2980  169.3900  147.0560 C   0  0  0  0  0  1  0  0  0  0  0  0
  188.2550  175.3620  142.8050 C   0  0  0  0  0  2  0  0  0  0  0  0
  185.1100  177.5360  142.2970 C   0  0  0  0  0  3  0  0  0  0  0  0
  186.9790  176.8030  144.2750 N   0  0  0  0  0  0  0  0  0  0  0  0
  185.9010  177.6710  144.5270 N   0  0  0  0  0  0  0  0  0  0  0  0
  186.1760  176.6080  142.0480 N   0  0  0  0  0  0  0  0  0  0  0  0
  185.0000  178.0380  143.5210 C   0  0  0  0  0  0  0  0  0  0  0  0
  185.7100  178.3650  145.7280 N   0  0  1  0  0  0  0  0  0  0  0  0
  184.0530  179.0360  144.0100 C   0  0  0  0  0  3  0  0  0  0  0  0
  187.1110  176.2730  143.0930 C   0  0  0  0  0  0  0  0  0  0  0  0
  184.5480  179.2420  145.4580 C   0  0  0  0  0  2  0  0  0  0  0  0
  185.2910  177.3970  146.7350 C   0  0  0  0  0  3  0  0  0  0  0  0
  186.5120  176.7060  147.3140 C   0  0  0  0  0  2  0  0  0  0  0  0
  185.8320  177.8090  148.0920 C   0  0  0  0  0  2  0  0  0  0  0  0
  1  8  1  0  0  0  0
  3 16  1  0  0  0  0
  4  1  2  0  0  0  0
  5  2  1  0  0  0  0
  5 23  1  1  0  0  0
  6 19  1  0  0  0  0
  6 12  1  0  0  0  0
  7  4  1  0  0  0  0
  8  9  1  0  0  0  0
 10 23  1  0  0  0  0
 12  5  1  0  0  0  0
 13 14  1  0  0  0  0
 14  8  2  0  0  0  0
 14  6  1  0  0  0  0
 15 24  1  0  0  0  0
 15 11  1  0  0  0  0
 16 26  1  0  0  0  0
 17 12  2  0  0  0  0
 17 18  1  0  0  0  0
 18 16  1  0  0  0  0
 18  2  2  0  0  0  0
 19 22  1  6  0  0  0
 19 20  1  0  0  0  0
 20 10  1  0  0  0  0
 21  4  1  0  0  0  0
 21 13  2  0  0  0  0
 22 11  1  0  0  0  0
 24 28  1  6  0  0  0
 24  9  1  0  0  0  0
 25 26  1  0  0  0  0
 26 27  1  0  0  0  0
 28 36  1  0  0  0  0
 29 33  1  0  0  0  0
 30 31  1  0  0  0  0
 31 34  1  0  0  0  0
 32 29  2  0  0  0  0
 32 36  1  0  0  0  0
 33 35  2  0  0  0  0
 33 31  1  0  0  0  0
 34 38  1  1  0  0  0
 35 37  1  0  0  0  0
 36 30  2  0  0  0  0
 37 34  1  0  0  0  0
 38 39  1  0  0  0  0
 38 40  1  0  0  0  0
 39 40  1  0  0  0  0
M  END
>  <MODEL>
2

>  <REMARK>
 VINA RESULT:      -9.0      1.912      2.928
  Name = 
  4 active torsions:
  status: ('A' for Active; 'I' for Inactive)
    1  A    between atoms: C_6  and  N_26
    2  A    between atoms: C_15  and  N_28
    3  A    between atoms: C_31  and  C_37
    4  A    between atoms: C_37  and  C_40
                            x       y       z     vdW  Elec       q    Type
                         _______ _______ _______ _____ _____    ______ ____

>  <TORSDO>
F 4

$$$$
=
 OpenBabel11042419303D

 40 46  0  0  1  0  0  0  0  0999 V2000
  189.6680  176.1640  144.8100 C   0  0  0  0  0  3  0  0  0  0  0  0
  193.7380  170.4730  144.1890 N   0  0  0  0  0  0  0  0  0  0  0  0
  195.6810  172.9930  145.8770 O   0  0  0  0  0  1  0  0  0  0  0  0
  189.6380  176.1010  146.2050 C   0  0  0  0  0  0  0  0  0  0  0  0
  192.3610  170.5880  143.7330 C   0  0  1  0  0  3  0  0  0  0  0  0
  190.6990  172.6620  143.9600 N   0  0  0  0  0  0  0  0  0  0  0  0
  189.2710  177.1890  146.9240 F   0  0  0  0  0  0  0  0  0  0  0  0
  190.0520  175.0430  144.0610 C   0  0  0  0  0  0  0  0  0  0  0  0
  190.1210  175.0950  142.6620 O   0  0  0  0  0  0  0  0  0  0  0  0
  190.8900  170.3050  141.6910 C   0  0  0  0  0  2  0  0  0  0  0  0
  187.9140  173.3630  141.7610 C   0  0  0  0  0  2  0  0  0  0  0  0
  191.9970  172.0130  144.1370 C   0  0  0  0  0  0  0  0  0  0  0  0
  190.3630  173.7950  146.1180 C   0  0  0  0  0  3  0  0  0  0  0  0
  190.3880  173.8480  144.7180 C   0  0  0  0  0  0  0  0  0  0  0  0
  187.7690  174.8460  142.0760 C   0  0  0  0  0  2  0  0  0  0  0  0
  195.3870  171.8010  145.3040 N   0  0  0  0  0  0  0  0  0  0  0  0
  193.0280  172.5840  144.7440 C   0  0  0  0  0  3  0  0  0  0  0  0
  194.0870  171.5860  144.7450 C   0  0  0  0  0  0  0  0  0  0  0  0
  189.7400  172.1700  142.9900 C   0  0  1  0  0  3  0  0  0  0  0  0
  190.1380  171.2210  142.2060 C   0  0  0  0  0  2  0  0  0  0  0  0
  189.9940  174.9190  146.8590 C   0  0  0  0  0  3  0  0  0  0  0  0
  188.2960  172.5780  143.0100 C   0  0  0  0  0  2  0  0  0  0  0  0
  192.3010  170.3290  142.2070 C   0  0  0  0  0  2  0  0  0  0  0  0
  189.0770  175.5960  141.8270 C   0  0  1  0  0  3  0  0  0  0  0  0
  196.5080  170.0670  146.6080 C   0  0  0  0  0  1  0  0  0  0  0  0
  196.3970  170.7490  145.2580 C   0  0  0  0  0  3  0  0  0  0  0  0
  197.7410  171.3290  144.8600 C   0  0  0  0  0  1  0  0  0  0  0  0
  188.9050  177.1020  141.9870 C   0  0  0  0  0  2  0  0  0  0  0  0
  185.2340  177.8360  141.0610 C   0  0  0  0  0  3  0  0  0  0  0  0
  186.9880  177.8440  143.2670 N   0  0  0  0  0  0  0  0  0  0  0  0
  185.6290  178.1920  143.3710 N   0  0  0  0  0  0  0  0  0  0  0  0
  186.6070  177.4290  140.9590 N   0  0  0  0  0  0  0  0  0  0  0  0
  184.7840  178.2020  142.2540 C   0  0  0  0  0  0  0  0  0  0  0  0
  185.0300  178.7020  144.5290 N   0  0  1  0  0  0  0  0  0  0  0  0
  183.4620  178.7110  142.6080 C   0  0  0  0  0  3  0  0  0  0  0  0
  187.4640  177.4600  142.1170 C   0  0  0  0  0  0  0  0  0  0  0  0
  183.6540  179.0440  144.1040 C   0  0  0  0  0  2  0  0  0  0  0  0
  184.9230  177.6090  145.4880 C   0  0  0  0  0  3  0  0  0  0  0  0
  186.0420  177.7150  146.5070 C   0  0  0  0  0  2  0  0  0  0  0  0
  184.6470  178.1700  146.8710 C   0  0  0  0  0  2  0  0  0  0  0  0
  1  4  1  0  0  0  0
  2 18  2  0  0  0  0
  4 21  2  0  0  0  0
  4  7  1  0  0  0  0
  5 23  1  6  0  0  0
  5 12  1  0  0  0  0
  5  2  1  0  0  0  0
  6 12  1  0  0  0  0
  6 14  1  0  0  0  0
  8 14  1  0  0  0  0
  8  1  2  0  0  0  0
  9  8  1  0  0  0  0
 10 20  1  0  0  0  0
 10 23  1  0  0  0  0
 11 15  1  0  0  0  0
 11 22  1  0  0  0  0
 12 17  2  0  0  0  0
 13 21  1  0  0  0  0
 14 13  2  0  0  0  0
 16  3  1  0  0  0  0
 17 18  1  0  0  0  0
 18 16  1  0  0  0  0
 19 20  1  1  0  0  0
 19 22  1  0  0  0  0
 19  6  1  0  0  0  0
 24 28  1  1  0  0  0
 24 15  1  0  0  0  0
 24  9  1  0  0  0  0
 26 16  1  0  0  0  0
 26 25  1  0  0  0  0
 27 26  1  0  0  0  0
 28 36  1  0  0  0  0
 29 33  1  0  0  0  0
 30 31  1  0  0  0  0
 31 34  1  0  0  0  0
 32 29  2  0  0  0  0
 32 36  1  0  0  0  0
 33 35  2  0  0  0  0
 33 31  1  0  0  0  0
 34 38  1  1  0  0  0
 35 37  1  0  0  0  0
 36 30  2  0  0  0  0
 37 34  1  0  0  0  0
 38 39  1  0  0  0  0
 38 40  1  0  0  0  0
 39 40  1  0  0  0  0
M  END
>  <MODEL>
3

>  <REMARK>
 VINA RESULT:      -8.8      2.265      4.277
  Name = 
  4 active torsions:
  status: ('A' for Active; 'I' for Inactive)
    1  A    between atoms: C_6  and  N_26
    2  A    between atoms: C_15  and  N_28
    3  A    between atoms: C_31  and  C_37
    4  A    between atoms: C_37  and  C_40
                            x       y       z     vdW  Elec       q    Type
                         _______ _______ _______ _____ _____    ______ ____

>  <TORSDO>
F 4

$$$$
=
 OpenBabel11042419303D

 40 46  0  0  1  0  0  0  0  0999 V2000
  192.6360  176.2240  145.6440 C   0  0  0  0  0  3  0  0  0  0  0  0
  194.7030  172.7860  139.8780 N   0  0  0  0  0  0  0  0  0  0  0  0
  196.5060  175.9040  139.9630 O   0  0  0  0  0  1  0  0  0  0  0  0
  193.8980  176.1650  146.2410 C   0  0  0  0  0  0  0  0  0  0  0  0
  193.7400  172.3050  140.8560 C   0  0  1  0  0  3  0  0  0  0  0  0
  192.9180  173.4820  143.1050 N   0  0  0  0  0  0  0  0  0  0  0  0
  194.2030  177.0010  147.2630 F   0  0  0  0  0  0  0  0  0  0  0  0
  192.3160  175.3660  144.5830 C   0  0  0  0  0  0  0  0  0  0  0  0
  191.0680  175.4330  143.9480 O   0  0  0  0  0  0  0  0  0  0  0  0
  191.3810  171.4120  141.0830 C   0  0  0  0  0  2  0  0  0  0  0  0
  189.7280  172.9230  144.7150 C   0  0  0  0  0  2  0  0  0  0  0  0
  193.6980  173.4450  141.8690 C   0  0  0  0  0  0  0  0  0  0  0  0
  194.5280  174.3820  144.7330 C   0  0  0  0  0  3  0  0  0  0  0  0
  193.2630  174.4300  144.1340 C   0  0  0  0  0  0  0  0  0  0  0  0
  189.6800  174.2080  145.5320 C   0  0  0  0  0  2  0  0  0  0  0  0
  196.0980  174.6950  139.5060 N   0  0  0  0  0  0  0  0  0  0  0  0
  194.5380  174.4020  141.4990 C   0  0  0  0  0  3  0  0  0  0  0  0
  195.1330  173.9460  140.2530 C   0  0  0  0  0  0  0  0  0  0  0  0
  191.7640  172.6230  143.2900 C   0  0  1  0  0  3  0  0  0  0  0  0
  191.3860  171.9270  142.2670 C   0  0  0  0  0  2  0  0  0  0  0  0
  194.8460  175.2490  145.7800 C   0  0  0  0  0  3  0  0  0  0  0  0
  191.1500  172.3830  144.6380 C   0  0  0  0  0  2  0  0  0  0  0  0
  192.3850  172.0340  140.1550 C   0  0  0  0  0  2  0  0  0  0  0  0
  189.8180  175.4390  144.6370 C   0  0  1  0  0  3  0  0  0  0  0  0
  197.9410  173.4340  138.5200 C   0  0  0  0  0  1  0  0  0  0  0  0
  196.6410  174.1690  138.2590 C   0  0  0  0  0  3  0  0  0  0  0  0
  196.8740  175.2970  137.2710 C   0  0  0  0  0  1  0  0  0  0  0  0
  189.6160  176.7320  145.4180 C   0  0  0  0  0  2  0  0  0  0  0  0
  186.1960  178.3870  146.0810 C   0  0  0  0  0  3  0  0  0  0  0  0
  187.6780  177.1510  144.0270 N   0  0  0  0  0  0  0  0  0  0  0  0
  186.3830  177.6630  143.8320 N   0  0  0  0  0  0  0  0  0  0  0  0
  187.5380  177.9140  146.2720 N   0  0  0  0  0  2  0  0  0  0  0  0
  185.6590  178.2520  144.8750 C   0  0  0  0  0  0  0  0  0  0  0  0
  185.6390  177.5030  142.6570 N   0  0  0  0  0  0  0  0  0  0  0  0
  184.3060  178.5900  144.4420 C   0  0  0  0  0  3  0  0  0  0  0  0
  188.2490  177.2810  145.1910 C   0  0  0  0  0  0  0  0  0  0  0  0
  184.3150  178.0770  142.9860 C   0  0  0  0  0  3  0  0  0  0  0  0
  186.2350  178.3590  141.6380 C   0  0  0  0  0  3  0  0  0  0  0  0
  187.1770  177.5400  140.7740 C   0  0  0  0  0  2  0  0  0  0  0  0
  185.7990  177.8910  140.2610 C   0  0  0  0  0  2  0  0  0  0  0  0
  1  4  1  0  0  0  0
  2 18  2  0  0  0  0
  2  5  1  0  0  0  0
  4  7  1  0  0  0  0
  5 23  1  6  0  0  0
  5 12  1  0  0  0  0
  6 19  1  0  0  0  0
  6 14  1  0  0  0  0
  8  1  2  0  0  0  0
  9  8  1  0  0  0  0
  9 24  1  0  0  0  0
 10 20  1  0  0  0  0
 11 15  1  0  0  0  0
 12  6  1  0  0  0  0
 13 21  1  0  0  0  0
 14  8  1  0  0  0  0
 14 13  2  0  0  0  0
 16  3  1  0  0  0  0
 16 18  1  0  0  0  0
 17 12  2  0  0  0  0
 18 17  1  0  0  0  0
 19 20  1  1  0  0  0
 19 22  1  0  0  0  0
 21  4  2  0  0  0  0
 22 11  1  0  0  0  0
 23 10  1  0  0  0  0
 24 28  1  1  0  0  0
 24 15  1  0  0  0  0
 26 25  1  0  0  0  0
 26 16  1  0  0  0  0
 27 26  1  0  0  0  0
 29 32  1  0  0  0  0
 30 36  2  0  0  0  0
 31 30  1  0  0  0  0
 31 33  1  0  0  0  0
 33 29  2  0  0  0  0
 34 37  1  0  0  0  0
 34 31  1  0  0  0  0
 35 33  1  0  0  0  0
 36 28  1  0  0  0  0
 36 32  1  0  0  0  0
 37 35  2  0  0  0  0
 38 34  1  0  0  0  0
 39 38  1  0  0  0  0
 40 39  1  0  0  0  0
 40 38  1  0  0  0  0
M  END
>  <MODEL>
4

>  <REMARK>
 VINA RESULT:      -8.7      3.393      5.071
  Name = 
  4 active torsions:
  status: ('A' for Active; 'I' for Inactive)
    1  A    between atoms: C_6  and  N_26
    2  A    between atoms: C_15  and  N_28
    3  A    between atoms: C_31  and  C_37
    4  A    between atoms: C_37  and  C_40
                            x       y       z     vdW  Elec       q    Type
                         _______ _______ _______ _____ _____    ______ ____

>  <TORSDO>
F 4

$$$$
=
 OpenBabel11042419303D

 40 46  0  0  1  0  0  0  0  0999 V2000
  189.8050  175.5350  142.3590 C   0  0  0  0  0  3  0  0  0  0  0  0
  183.4930  178.4330  143.4090 N   0  0  0  0  0  0  0  0  0  0  0  0
  183.8680  177.9550  139.8580 O   0  0  0  0  0  1  0  0  0  0  0  0
  189.2740  174.3430  141.8610 C   0  0  0  0  0  0  0  0  0  0  0  0
  184.4490  178.0800  144.4460 C   0  0  1  0  0  3  0  0  0  0  0  0
  186.8410  176.9270  144.1830 N   0  0  0  0  0  0  0  0  0  0  0  0
  190.0570  173.5010  141.1440 F   0  0  0  0  0  0  0  0  0  0  0  0
  188.9980  176.4130  143.0970 C   0  0  0  0  0  0  0  0  0  0  0  0
  189.5020  177.6300  143.5770 O   0  0  0  0  0  0  0  0  0  0  0  0
  185.7080  179.0300  146.4280 C   0  0  0  0  0  2  0  0  0  0  0  0
  189.5970  177.2740  146.5010 C   0  0  0  0  0  2  0  0  0  0  0  0
  185.6070  177.4940  143.6430 C   0  0  0  0  0  0  0  0  0  0  0  0
  187.1310  174.8850  142.8430 C   0  0  0  0  0  3  0  0  0  0  0  0
  187.6570  176.0800  143.3520 C   0  0  0  0  0  0  0  0  0  0  0  0
  190.7190  176.8790  145.5490 C   0  0  0  0  0  2  0  0  0  0  0  0
  183.2900  178.3240  141.0260 N   0  0  0  0  0  0  0  0  0  0  0  0
  185.3090  177.5110  142.3510 C   0  0  0  0  0  3  0  0  0  0  0  0
  183.9860  178.1100  142.2590 C   0  0  0  0  0  0  0  0  0  0  0  0
  187.2920  177.2530  145.5230 C   0  0  1  0  0  3  0  0  0  0  0  0
  186.6250  178.1610  146.1580 C   0  0  0  0  0  2  0  0  0  0  0  0
  187.9360  174.0220  142.0960 C   0  0  0  0  0  3  0  0  0  0  0  0
  188.3430  176.4510  146.2330 C   0  0  0  0  0  2  0  0  0  0  0  0
  184.8210  179.3460  145.2570 C   0  0  0  0  0  2  0  0  0  0  0  0
  190.7240  177.7610  144.3010 C   0  0  1  0  0  3  0  0  0  0  0  0
  181.4600  179.1100  142.4380 C   0  0  0  0  0  1  0  0  0  0  0  0
  181.9670  178.9390  141.0190 C   0  0  0  0  0  3  0  0  0  0  0  0
  180.9960  178.0880  140.2230 C   0  0  0  0  0  1  0  0  0  0  0  0
  191.9320  177.4810  143.4160 C   0  0  0  0  0  2  0  0  0  0  0  0
  194.8650  176.5090  145.7250 C   0  0  0  0  0  3  0  0  0  0  0  0
  193.0360  175.3800  143.9010 N   0  0  0  0  0  0  0  0  0  0  0  0
  194.0020  174.6190  144.5840 N   0  0  0  0  0  0  0  0  0  0  0  0
  193.8470  177.2820  145.0710 N   0  0  0  0  0  0  0  0  0  0  0  0
  194.9150  175.2080  145.4670 C   0  0  0  0  0  0  0  0  0  0  0  0
  194.2540  173.2630  144.3440 N   0  0  1  0  0  0  0  0  0  0  0  0
  195.8810  174.2240  145.9480 C   0  0  0  0  0  3  0  0  0  0  0  0
  192.9410  176.6570  144.1400 C   0  0  0  0  0  0  0  0  0  0  0  0
  195.4320  172.9580  145.1860 C   0  0  0  0  0  2  0  0  0  0  0  0
  193.1330  172.5040  144.8860 C   0  0  0  0  0  3  0  0  0  0  0  0
  192.0300  172.4140  143.8470 C   0  0  0  0  0  2  0  0  0  0  0  0
  192.9430  171.2310  144.0800 C   0  0  0  0  0  2  0  0  0  0  0  0
  1  8  1  0  0  0  0
  2  5  1  0  0  0  0
  3 16  1  0  0  0  0
  4 21  1  0  0  0  0
  4  1  2  0  0  0  0
  5 23  1  6  0  0  0
  6 19  1  0  0  0  0
  7  4  1  0  0  0  0
  8 14  2  0  0  0  0
  8  9  1  0  0  0  0
  9 24  1  0  0  0  0
 12  6  1  0  0  0  0
 12  5  1  0  0  0  0
 13 14  1  0  0  0  0
 14  6  1  0  0  0  0
 15 11  1  0  0  0  0
 16 18  1  0  0  0  0
 17 12  2  0  0  0  0
 18 17  1  0  0  0  0
 18  2  2  0  0  0  0
 19 20  1  1  0  0  0
 19 22  1  0  0  0  0
 20 10  1  0  0  0  0
 21 13  2  0  0  0  0
 22 11  1  0  0  0  0
 23 10  1  0  0  0  0
 24 28  1  6  0  0  0
 24 15  1  0  0  0  0
 26 16  1  0  0  0  0
 26 25  1  0  0  0  0
 27 26  1  0  0  0  0
 28 36  1  0  0  0  0
 30 36  2  0  0  0  0
 30 31  1  0  0  0  0
 31 33  1  0  0  0  0
 32 29  2  0  0  0  0
 33 29  1  0  0  0  0
 33 35  2  0  0  0  0
 34 31  1  0  0  0  0
 34 38  1  1  0  0  0
 34 37  1  0  0  0  0
 36 32  1  0  0  0  0
 37 35  1  0  0  0  0
 39 40  1  0  0  0  0
 39 38  1  0  0  0  0
 40 38  1  0  0  0  0
M  END
>  <MODEL>
5

>  <REMARK>
 VINA RESULT:      -8.3      2.735      9.906
  Name = 
  4 active torsions:
  status: ('A' for Active; 'I' for Inactive)
    1  A    between atoms: C_6  and  N_26
    2  A    between atoms: C_15  and  N_28
    3  A    between atoms: C_31  and  C_37
    4  A    between atoms: C_37  and  C_40
                            x       y       z     vdW  Elec       q    Type
                         _______ _______ _______ _____ _____    ______ ____

>  <TORSDO>
F 4

$$$$
=
 OpenBabel11042419303D

 40 46  0  0  1  0  0  0  0  0999 V2000
  191.4670  174.5020  142.4330 C   0  0  0  0  0  3  0  0  0  0  0  0
  185.2540  177.5180  143.7130 N   0  0  0  0  0  0  0  0  0  0  0  0
  185.8570  177.7810  140.1710 O   0  0  0  0  0  1  0  0  0  0  0  0
  190.9130  173.4800  141.6590 C   0  0  0  0  0  0  0  0  0  0  0  0
  186.1150  176.8910  144.7030 C   0  0  1  0  0  3  0  0  0  0  0  0
  188.4570  175.6660  144.3380 N   0  0  0  0  0  0  0  0  0  0  0  0
  191.7010  172.7610  140.8240 F   0  0  0  0  0  0  0  0  0  0  0  0
  190.6570  175.2540  143.2950 C   0  0  0  0  0  0  0  0  0  0  0  0
  191.1860  176.3060  144.0550 O   0  0  0  0  0  0  0  0  0  0  0  0
  187.2770  177.3140  146.9140 C   0  0  0  0  0  2  0  0  0  0  0  0
  191.0550  175.3320  146.8330 C   0  0  0  0  0  2  0  0  0  0  0  0
  187.2950  176.4140  143.8620 C   0  0  0  0  0  0  0  0  0  0  0  0
  188.7360  173.9410  142.6070 C   0  0  0  0  0  3  0  0  0  0  0  0
  189.2860  174.9630  143.3930 C   0  0  0  0  0  0  0  0  0  0  0  0
  192.2200  175.0750  145.8860 C   0  0  0  0  0  2  0  0  0  0  0  0
  185.2160  177.9310  141.3550 N   0  0  0  0  0  0  0  0  0  0  0  0
  187.0910  176.7250  142.5890 C   0  0  0  0  0  3  0  0  0  0  0  0
  185.8110  177.4150  142.5510 C   0  0  0  0  0  0  0  0  0  0  0  0
  188.8280  175.6700  145.7410 C   0  0  1  0  0  3  0  0  0  0  0  0
  188.1650  176.4640  146.5170 C   0  0  0  0  0  2  0  0  0  0  0  0
  189.5460  173.2050  141.7400 C   0  0  0  0  0  3  0  0  0  0  0  0
  189.7830  174.6680  146.3210 C   0  0  0  0  0  2  0  0  0  0  0  0
  186.4930  177.9290  145.7890 C   0  0  0  0  0  2  0  0  0  0  0  0
  192.3590  176.2000  144.8610 C   0  0  1  0  0  3  0  0  0  0  0  0
  183.4130  178.6650  142.8290 C   0  0  0  0  0  1  0  0  0  0  0  0
  183.9310  178.6190  141.4040 C   0  0  0  0  0  3  0  0  0  0  0  0
  182.9250  177.9160  140.5120 C   0  0  0  0  0  1  0  0  0  0  0  0
  193.6120  176.0350  144.0080 C   0  0  0  0  0  2  0  0  0  0  0  0
  196.4420  174.1660  145.8440 C   0  0  0  0  0  3  0  0  0  0  0  0
  194.2320  173.6990  144.1580 N   0  0  0  0  0  0  0  0  0  0  0  0
  195.0530  172.6660  144.6440 N   0  0  0  0  0  0  0  0  0  0  0  0
  195.5760  175.2190  145.3940 N   0  0  0  0  0  0  0  0  0  0  0  0
  196.1600  172.9270  145.4610 C   0  0  0  0  0  0  0  0  0  0  0  0
  194.9550  171.3260  144.2500 N   0  0  1  0  0  0  0  0  0  0  0  0
  196.9090  171.7030  145.7280 C   0  0  0  0  0  3  0  0  0  0  0  0
  194.4640  174.9270  144.5250 C   0  0  0  0  0  0  0  0  0  0  0  0
  196.1050  170.6680  144.9110 C   0  0  0  0  0  2  0  0  0  0  0  0
  193.7450  170.7780  144.8500 C   0  0  0  0  0  3  0  0  0  0  0  0
  192.5820  170.9360  143.8870 C   0  0  0  0  0  2  0  0  0  0  0  0
  193.2620  169.5940  144.0320 C   0  0  0  0  0  2  0  0  0  0  0  0
  1  8  1  0  0  0  0
  2  5  1  0  0  0  0
  3 16  1  0  0  0  0
  4 21  1  0  0  0  0
  4  1  2  0  0  0  0
  5 23  1  1  0  0  0
  6 19  1  0  0  0  0
  7  4  1  0  0  0  0
  8 14  2  0  0  0  0
  8  9  1  0  0  0  0
  9 24  1  0  0  0  0
 12  6  1  0  0  0  0
 12  5  1  0  0  0  0
 13 14  1  0  0  0  0
 14  6  1  0  0  0  0
 15 11  1  0  0  0  0
 16 26  1  0  0  0  0
 16 18  1  0  0  0  0
 17 12  2  0  0  0  0
 18 17  1  0  0  0  0
 18  2  2  0  0  0  0
 19 22  1  1  0  0  0
 19 20  1  0  0  0  0
 20 10  1  0  0  0  0
 21 13  2  0  0  0  0
 22 11  1  0  0  0  0
 23 10  1  0  0  0  0
 24 28  1  6  0  0  0
 24 15  1  0  0  0  0
 26 25  1  0  0  0  0
 27 26  1  0  0  0  0
 28 36  1  0  0  0  0
 30 36  2  0  0  0  0
 30 31  1  0  0  0  0
 31 33  1  0  0  0  0
 32 29  2  0  0  0  0
 33 35  2  0  0  0  0
 33 29  1  0  0  0  0
 34 31  1  0  0  0  0
 34 38  1  1  0  0  0
 34 37  1  0  0  0  0
 36 32  1  0  0  0  0
 37 35  1  0  0  0  0
 39 40  1  0  0  0  0
 39 38  1  0  0  0  0
 40 38  1  0  0  0  0
M  END
>  <MODEL>
6

>  <REMARK>
 VINA RESULT:      -8.1      2.292      9.500
  Name = 
  4 active torsions:
  status: ('A' for Active; 'I' for Inactive)
    1  A    between atoms: C_6  and  N_26
    2  A    between atoms: C_15  and  N_28
    3  A    between atoms: C_31  and  C_37
    4  A    between atoms: C_37  and  C_40
                            x       y       z     vdW  Elec       q    Type
                         _______ _______ _______ _____ _____    ______ ____

>  <TORSDO>
F 4

$$$$
=
 OpenBabel11042419303D

 40 46  0  0  1  0  0  0  0  0999 V2000
  192.8700  176.5740  144.4740 C   0  0  0  0  0  3  0  0  0  0  0  0
  193.2100  172.1530  139.0270 N   0  0  0  0  0  0  0  0  0  0  0  0
  194.9810  175.1450  138.0830 O   0  0  0  0  0  1  0  0  0  0  0  0
  194.2480  176.5450  144.7000 C   0  0  0  0  0  0  0  0  0  0  0  0
  192.5580  171.8860  140.2990 C   0  0  1  0  0  3  0  0  0  0  0  0
  192.4100  173.4500  142.4560 N   0  0  0  0  0  0  0  0  0  0  0  0
  194.8340  177.5160  145.4410 F   0  0  0  0  0  0  0  0  0  0  0  0
  192.2590  175.5750  143.7040 C   0  0  0  0  0  0  0  0  0  0  0  0
  190.8840  175.6050  143.4370 O   0  0  0  0  0  0  0  0  0  0  0  0
  190.3540  171.1660  141.3170 C   0  0  0  0  0  2  0  0  0  0  0  0
  189.8000  173.3240  144.9570 C   0  0  0  0  0  2  0  0  0  0  0  0
  192.8110  173.1740  141.0770 C   0  0  0  0  0  0  0  0  0  0  0  0
  194.4190  174.5130  143.3990 C   0  0  0  0  0  3  0  0  0  0  0  0
  193.0360  174.5310  143.1740 C   0  0  0  0  0  0  0  0  0  0  0  0
  189.9910  174.7240  145.5260 C   0  0  0  0  0  2  0  0  0  0  0  0
  194.4540  173.9010  137.9670 N   0  0  0  0  0  0  0  0  0  0  0  0
  193.5170  174.0140  140.3340 C   0  0  0  0  0  3  0  0  0  0  0  0
  193.7340  173.3330  139.0660 C   0  0  0  0  0  0  0  0  0  0  0  0
  191.3500  172.6930  143.0950 C   0  0  1  0  0  3  0  0  0  0  0  0
  190.6960  171.8630  142.3490 C   0  0  0  0  0  2  0  0  0  0  0  0
  195.0240  175.5180  144.1560 C   0  0  0  0  0  3  0  0  0  0  0  0
  191.1400  172.7040  144.5810 C   0  0  0  0  0  2  0  0  0  0  0  0
  191.0600  171.5780  140.0560 C   0  0  0  0  0  2  0  0  0  0  0  0
  189.8780  175.7870  144.4340 C   0  0  1  0  0  3  0  0  0  0  0  0
  196.0010  173.4000  136.1460 C   0  0  0  0  0  1  0  0  0  0  0  0
  194.6210  173.1550  136.7250 C   0  0  0  0  0  3  0  0  0  0  0  0
  193.5590  173.5620  135.7210 C   0  0  0  0  0  1  0  0  0  0  0  0
  189.9120  177.1970  145.0110 C   0  0  0  0  0  2  0  0  0  0  0  0
  187.2760  178.0740  147.6880 C   0  0  0  0  0  3  0  0  0  0  0  0
  187.5200  177.5650  144.9260 N   0  0  0  0  0  0  0  0  0  0  0  0
  186.2940  177.8800  145.5390 N   0  0  0  0  0  0  0  0  0  0  0  0
  188.5390  177.8050  147.0580 N   0  0  0  0  0  2  0  0  0  0  0  0
  186.1960  178.1050  146.9170 C   0  0  0  0  0  0  0  0  0  0  0  0
  185.0540  177.8470  144.8900 N   0  0  0  0  0  0  0  0  0  0  0  0
  184.8030  178.2930  147.3160 C   0  0  0  0  0  3  0  0  0  0  0  0
  188.6070  177.5430  145.6430 C   0  0  0  0  0  0  0  0  0  0  0  0
  184.0730  178.1070  145.9680 C   0  0  0  0  0  3  0  0  0  0  0  0
  185.0020  178.9860  143.9810 C   0  0  0  0  0  3  0  0  0  0  0  0
  185.6080  178.5980  142.6450 C   0  0  0  0  0  2  0  0  0  0  0  0
  184.1060  178.6550  142.8010 C   0  0  0  0  0  2  0  0  0  0  0  0
  1  4  1  0  0  0  0
  2 18  2  0  0  0  0
  2  5  1  0  0  0  0
  4  7  1  0  0  0  0
  5 23  1  6  0  0  0
  5 12  1  0  0  0  0
  6 19  1  0  0  0  0
  6 14  1  0  0  0  0
  8  1  2  0  0  0  0
  9  8  1  0  0  0  0
  9 24  1  0  0  0  0
 10 20  1  0  0  0  0
 11 15  1  0  0  0  0
 12  6  1  0  0  0  0
 13 21  1  0  0  0  0
 14 13  2  0  0  0  0
 14  8  1  0  0  0  0
 16  3  1  0  0  0  0
 16 18  1  0  0  0  0
 17 12  2  0  0  0  0
 18 17  1  0  0  0  0
 19 20  1  1  0  0  0
 19 22  1  0  0  0  0
 21  4  2  0  0  0  0
 22 11  1  0  0  0  0
 23 10  1  0  0  0  0
 24 28  1  1  0  0  0
 24 15  1  0  0  0  0
 25 26  1  0  0  0  0
 26 16  1  0  0  0  0
 27 26  1  0  0  0  0
 28 36  1  0  0  0  0
 30 31  1  0  0  0  0
 30 36  2  0  0  0  0
 31 33  1  0  0  0  0
 32 29  1  0  0  0  0
 33 35  1  0  0  0  0
 33 29  2  0  0  0  0
 34 31  1  0  0  0  0
 34 37  1  0  0  0  0
 36 32  1  0  0  0  0
 37 35  2  0  0  0  0
 38 34  1  0  0  0  0
 39 40  1  0  0  0  0
 39 38  1  0  0  0  0
 40 38  1  0  0  0  0
M  END
>  <MODEL>
7

>  <REMARK>
 VINA RESULT:      -7.9      3.650      5.728
  Name = 
  4 active torsions:
  status: ('A' for Active; 'I' for Inactive)
    1  A    between atoms: C_6  and  N_26
    2  A    between atoms: C_15  and  N_28
    3  A    between atoms: C_31  and  C_37
    4  A    between atoms: C_37  and  C_40
                            x       y       z     vdW  Elec       q    Type
                         _______ _______ _______ _____ _____    ______ ____

>  <TORSDO>
F 4

$$$$
=
 OpenBabel11042419303D

 40 46  0  0  1  0  0  0  0  0999 V2000
  192.8610  176.6200  144.2780 C   0  0  0  0  0  3  0  0  0  0  0  0
  194.7020  172.1880  139.1490 N   0  0  0  0  0  0  0  0  0  0  0  0
  196.3600  175.3200  138.4970 O   0  0  0  0  0  1  0  0  0  0  0  0
  194.1610  176.7200  144.7810 C   0  0  0  0  0  0  0  0  0  0  0  0
  193.8280  171.8770  140.2690 C   0  0  1  0  0  3  0  0  0  0  0  0
  193.1030  173.4440  142.3030 N   0  0  0  0  0  0  0  0  0  0  0  0
  194.4940  177.7490  145.5970 F   0  0  0  0  0  0  0  0  0  0  0  0
  192.5120  175.5610  143.4290 C   0  0  0  0  0  0  0  0  0  0  0  0
  191.2240  175.4610  142.8870 O   0  0  0  0  0  0  0  0  0  0  0  0
  191.5330  170.9690  140.8370 C   0  0  0  0  0  2  0  0  0  0  0  0
  190.0550  173.1070  144.2210 C   0  0  0  0  0  2  0  0  0  0  0  0
  193.8010  173.1910  141.0430 C   0  0  0  0  0  0  0  0  0  0  0  0
  194.7730  174.6980  143.6030 C   0  0  0  0  0  3  0  0  0  0  0  0
  193.4700  174.5860  143.1010 C   0  0  0  0  0  0  0  0  0  0  0  0
  190.0010  174.5250  144.7750 C   0  0  0  0  0  2  0  0  0  0  0  0
  195.9790  174.0320  138.3130 N   0  0  0  0  0  0  0  0  0  0  0  0
  194.5690  174.0850  140.4350 C   0  0  0  0  0  3  0  0  0  0  0  0
  195.1010  173.4120  139.2590 C   0  0  0  0  0  0  0  0  0  0  0  0
  192.0050  172.6010  142.7340 C   0  0  1  0  0  3  0  0  0  0  0  0
  191.5930  171.7060  141.8960 C   0  0  0  0  0  2  0  0  0  0  0  0
  195.1190  175.7630  144.4370 C   0  0  0  0  0  3  0  0  0  0  0  0
  191.4930  172.6090  144.1450 C   0  0  0  0  0  2  0  0  0  0  0  0
  192.4450  171.4300  139.7350 C   0  0  0  0  0  2  0  0  0  0  0  0
  190.0230  175.5610  143.6520 C   0  0  1  0  0  3  0  0  0  0  0  0
  197.9410  173.5530  136.9420 C   0  0  0  0  0  1  0  0  0  0  0  0
  196.4630  173.2900  137.1550 C   0  0  0  0  0  3  0  0  0  0  0  0
  195.6840  173.6860  135.9150 C   0  0  0  0  0  1  0  0  0  0  0  0
  189.8130  176.9740  144.1810 C   0  0  0  0  0  2  0  0  0  0  0  0
  186.7130  178.0640  142.1610 C   0  0  0  0  0  3  0  0  0  0  0  0
  187.6530  177.8700  144.8120 N   0  0  0  0  0  0  0  0  0  0  0  0
  186.3670  178.3410  144.4900 N   0  0  0  0  0  0  0  0  0  0  0  0
  188.0070  177.5320  142.4870 N   0  0  0  0  0  0  0  0  0  0  0  0
  185.9330  178.4500  143.1640 C   0  0  0  0  0  0  0  0  0  0  0  0
  185.4690  178.8840  145.4170 N   0  0  1  0  0  0  0  0  0  0  0  0
  184.6140  179.0730  143.0980 C   0  0  0  0  0  3  0  0  0  0  0  0
  188.4420  177.4630  143.8590 C   0  0  0  0  0  0  0  0  0  0  0  0
  184.3380  179.3600  144.5900 C   0  0  0  0  0  2  0  0  0  0  0  0
  184.9680  177.7880  146.2390 C   0  0  0  0  0  3  0  0  0  0  0  0
  185.9550  177.4960  147.3540 C   0  0  0  0  0  2  0  0  0  0  0  0
  184.7010  178.2890  147.6470 C   0  0  0  0  0  2  0  0  0  0  0  0
  1  4  1  0  0  0  0
  2 18  2  0  0  0  0
  2  5  1  0  0  0  0
  4  7  1  0  0  0  0
  5 23  1  6  0  0  0
  5 12  1  0  0  0  0
  6 19  1  0  0  0  0
  6 14  1  0  0  0  0
  8  1  2  0  0  0  0
  9  8  1  0  0  0  0
  9 24  1  0  0  0  0
 10 20  1  0  0  0  0
 11 15  1  0  0  0  0
 12  6  1  0  0  0  0
 13 21  1  0  0  0  0
 14  8  1  0  0  0  0
 14 13  2  0  0  0  0
 16  3  1  0  0  0  0
 16 18  1  0  0  0  0
 17 12  2  0  0  0  0
 18 17  1  0  0  0  0
 19 20  1  1  0  0  0
 19 22  1  0  0  0  0
 21  4  2  0  0  0  0
 22 11  1  0  0  0  0
 23 10  1  0  0  0  0
 24 28  1  1  0  0  0
 24 15  1  0  0  0  0
 25 26  1  0  0  0  0
 26 16  1  0  0  0  0
 27 26  1  0  0  0  0
 29 32  2  0  0  0  0
 29 33  1  0  0  0  0
 31 30  1  0  0  0  0
 31 34  1  0  0  0  0
 32 36  1  0  0  0  0
 33 31  1  0  0  0  0
 34 38  1  1  0  0  0
 35 33  2  0  0  0  0
 35 37  1  0  0  0  0
 36 28  1  0  0  0  0
 36 30  2  0  0  0  0
 37 34  1  0  0  0  0
 38 39  1  0  0  0  0
 38 40  1  0  0  0  0
 39 40  1  0  0  0  0
M  END
>  <MODEL>
8

>  <REMARK>
 VINA RESULT:      -7.9      3.868      5.809
  Name = 
  4 active torsions:
  status: ('A' for Active; 'I' for Inactive)
    1  A    between atoms: C_6  and  N_26
    2  A    between atoms: C_15  and  N_28
    3  A    between atoms: C_31  and  C_37
    4  A    between atoms: C_37  and  C_40
                            x       y       z     vdW  Elec       q    Type
                         _______ _______ _______ _____ _____    ______ ____

>  <TORSDO>
F 4

$$$$
=
 OpenBabel11042419303D

 40 46  0  0  1  0  0  0  0  0999 V2000
  192.0280  174.4370  141.6990 C   0  0  0  0  0  3  0  0  0  0  0  0
  187.8570  177.5170  146.4370 N   0  0  0  0  0  0  0  0  0  0  0  0
  186.5140  178.2760  143.1820 O   0  0  0  0  0  1  0  0  0  0  0  0
  191.0300  173.5690  141.2510 C   0  0  0  0  0  0  0  0  0  0  0  0
  189.0300  176.7090  146.7340 C   0  0  1  0  0  3  0  0  0  0  0  0
  190.6540  175.4440  145.0370 N   0  0  0  0  0  0  0  0  0  0  0  0
  191.1610  172.9450  140.0550 F   0  0  0  0  0  0  0  0  0  0  0  0
  191.8960  175.0890  142.9320 C   0  0  0  0  0  0  0  0  0  0  0  0
  192.8700  175.9900  143.3840 O   0  0  0  0  0  0  0  0  0  0  0  0
  191.2280  176.7430  147.9910 C   0  0  0  0  0  2  0  0  0  0  0  0
  194.1180  174.6200  145.6760 C   0  0  0  0  0  2  0  0  0  0  0  0
  189.5160  176.3080  145.3450 C   0  0  0  0  0  0  0  0  0  0  0  0
  189.7620  173.9850  143.2690 C   0  0  0  0  0  3  0  0  0  0  0  0
  190.7630  174.8510  143.7290 C   0  0  0  0  0  0  0  0  0  0  0  0
  194.5610  174.4530  144.2290 C   0  0  0  0  0  2  0  0  0  0  0  0
  186.6230  178.2780  144.5330 N   0  0  0  0  0  0  0  0  0  0  0  0
  188.7060  176.8150  144.4240 C   0  0  0  0  0  3  0  0  0  0  0  0
  187.6950  177.5620  145.1560 C   0  0  0  0  0  0  0  0  0  0  0  0
  191.7100  175.2210  146.0070 C   0  0  1  0  0  3  0  0  0  0  0  0
  191.6610  175.9210  147.0930 C   0  0  0  0  0  2  0  0  0  0  0  0
  189.8930  173.3490  142.0320 C   0  0  0  0  0  3  0  0  0  0  0  0
  192.6990  174.1010  145.8720 C   0  0  0  0  0  2  0  0  0  0  0  0
  190.0480  177.5550  147.5390 C   0  0  0  0  0  2  0  0  0  0  0  0
  194.2690  175.7100  143.4100 C   0  0  1  0  0  3  0  0  0  0  0  0
  184.5740  178.0720  145.8430 C   0  0  0  0  0  1  0  0  0  0  0  0
  185.6530  179.0100  145.3390 C   0  0  0  0  0  3  0  0  0  0  0  0
  185.0280  180.1260  144.5240 C   0  0  0  0  0  1  0  0  0  0  0  0
  194.8470  175.6160  142.0030 C   0  0  0  0  0  2  0  0  0  0  0  0
  197.9400  173.3200  141.8010 C   0  0  0  0  0  3  0  0  0  0  0  0
  195.1340  173.2550  141.5460 N   0  0  0  0  0  0  0  0  0  0  0  0
  195.9410  172.1130  141.3970 N   0  0  0  0  0  0  0  0  0  0  0  0
  197.1170  174.4790  142.0070 N   0  0  0  0  0  2  0  0  0  0  0  0
  197.3350  172.1770  141.5050 C   0  0  0  0  0  0  0  0  0  0  0  0
  195.4700  170.8610  140.9810 N   0  0  0  0  0  0  0  0  0  0  0  0
  197.9410  170.8850  141.1920 C   0  0  0  0  0  3  0  0  0  0  0  0
  195.6860  174.3930  141.8550 C   0  0  0  0  0  0  0  0  0  0  0  0
  196.6950  170.0420  140.8390 C   0  0  0  0  0  3  0  0  0  0  0  0
  194.7000  170.2920  142.0800 C   0  0  0  0  0  3  0  0  0  0  0  0
  193.2310  170.6310  141.9010 C   0  0  0  0  0  2  0  0  0  0  0  0
  193.7350  169.2520  141.5400 C   0  0  0  0  0  2  0  0  0  0  0  0
  1  8  1  0  0  0  0
  2  5  1  0  0  0  0
  3 16  1  0  0  0  0
  4  1  2  0  0  0  0
  4 21  1  0  0  0  0
  5 23  1  6  0  0  0
  6 12  1  0  0  0  0
  6 19  1  0  0  0  0
  7  4  1  0  0  0  0
  8  9  1  0  0  0  0
  8 14  2  0  0  0  0
  9 24  1  0  0  0  0
 11 22  1  0  0  0  0
 12  5  1  0  0  0  0
 13 14  1  0  0  0  0
 14  6  1  0  0  0  0
 15 11  1  0  0  0  0
 16 18  1  0  0  0  0
 16 26  1  0  0  0  0
 17 18  1  0  0  0  0
 17 12  2  0  0  0  0
 18  2  2  0  0  0  0
 19 22  1  1  0  0  0
 19 20  1  0  0  0  0
 20 10  1  0  0  0  0
 21 13  2  0  0  0  0
 23 10  1  0  0  0  0
 24 28  1  6  0  0  0
 24 15  1  0  0  0  0
 26 25  1  0  0  0  0
 27 26  1  0  0  0  0
 29 32  1  0  0  0  0
 30 36  2  0  0  0  0
 31 33  1  0  0  0  0
 31 30  1  0  0  0  0
 33 29  2  0  0  0  0
 34 31  1  0  0  0  0
 34 38  1  0  0  0  0
 35 33  1  0  0  0  0
 36 28  1  0  0  0  0
 36 32  1  0  0  0  0
 37 34  1  0  0  0  0
 37 35  2  0  0  0  0
 39 38  1  0  0  0  0
 40 39  1  0  0  0  0
 40 38  1  0  0  0  0
M  END
>  <MODEL>
9

>  <REMARK>
 VINA RESULT:      -7.7      3.034      9.254
  Name = 
  4 active torsions:
  status: ('A' for Active; 'I' for Inactive)
    1  A    between atoms: C_6  and  N_26
    2  A    between atoms: C_15  and  N_28
    3  A    between atoms: C_31  and  C_37
    4  A    between atoms: C_37  and  C_40
                            x       y       z     vdW  Elec       q    Type
                         _______ _______ _______ _____ _____    ______ ____

>  <TORSDO>
F 4

$$$$
