=
 OpenBabel11042414253D

 41 45  0  0  1  0  0  0  0  0999 V2000
  187.8050  175.4800  142.3470 C   0  0  1  0  0  3  0  0  0  0  0  0
  190.8500  176.8040  145.8070 C   0  0  0  0  0  3  0  0  0  0  0  0
  187.8410  175.7740  140.8780 C   0  0  0  0  0  3  0  0  0  0  0  0
  187.0750  176.7380  140.3610 C   0  0  0  0  0  3  0  0  0  0  0  0
  189.3910  176.0310  143.9430 C   0  0  0  0  0  0  0  0  0  0  0  0
  191.5690  175.0630  144.4320 N   0  0  0  0  0  0  0  0  0  0  0  0
  190.5090  175.9760  144.6640 C   0  0  2  0  0  3  0  0  0  0  0  0
  186.2370  177.6130  141.2160 C   0  0  0  0  0  0  0  0  0  0  0  0
  189.1330  175.1680  142.8450 N   0  0  0  0  0  0  0  0  0  0  0  0
  187.3560  176.6540  143.1000 N   0  0  0  0  0  0  0  0  0  0  0  0
  186.4050  177.5860  142.5580 C   0  0  0  0  0  0  0  0  0  0  0  0
  192.4260  175.3680  145.3520 C   0  0  0  0  0  0  0  0  0  0  0  0
  188.2850  176.9910  144.1680 C   0  0  0  0  0  2  0  0  0  0  0  0
  192.0130  176.4260  146.2220 N   0  0  0  0  0  0  0  0  0  0  0  0
  185.6720  178.4860  143.4870 C   0  0  0  0  0  0  0  0  0  0  0  0
  185.9570  179.7120  143.5700 O   0  0  0  0  0  0  0  0  0  0  0  0
  184.6640  177.9510  144.2910 O   0  0  0  0  0  0  0  0  0  0  0  0
  183.9850  178.7230  145.2700 C   0  0  0  0  0  2  0  0  0  0  0  0
  184.4780  178.3370  146.6520 C   0  0  0  0  0  2  0  0  0  0  0  0
  185.7350  177.6180  146.5480 N   0  0  0  0  0  0  0  0  0  0  0  0
  186.6590  178.2480  147.5000 C   0  0  0  0  0  2  0  0  0  0  0  0
  185.9840  177.0090  147.8620 C   0  0  0  0  0  2  0  0  0  0  0  0
  185.3030  178.5040  140.5990 N   0  0  0  0  0  2  0  0  0  0  0  0
  184.0530  178.0570  140.1480 N   0  0  0  0  0  2  0  0  0  0  0  0
  183.1360  178.4920  141.0440 O   0  0  0  0  0  0  0  0  0  0  0  0
  181.9520  178.0470  140.5610 N   0  0  0  0  0  2  0  0  0  0  0  0
  179.2440  177.9690  141.4710 C   0  0  0  0  0  1  0  0  0  0  0  0
  181.1610  179.3730  142.7110 O   0  0  0  0  0  0  0  0  0  0  0  0
  180.4040  180.1920  140.5240 O   0  0  0  0  0  0  0  0  0  0  0  0
  180.7090  178.9660  141.3370 S   0  0  0  0  0  0  0  0  0  0  0  0
  193.7030  174.6280  145.5300 C   0  0  0  0  0  2  0  0  0  0  0  0
  194.5860  174.9030  144.4090 N   0  0  0  0  0  2  0  0  0  0  0  0
  197.2160  173.1700  145.1300 C   0  0  0  0  0  2  0  0  0  0  0  0
  196.9930  175.0180  143.9080 C   0  0  2  0  0  3  0  0  0  0  0  0
  197.3520  173.6690  143.8230 O   0  0  0  0  0  0  0  0  0  0  0  0
  196.2530  174.0500  145.9090 C   0  0  0  0  0  2  0  0  0  0  0  0
  195.9060  175.1610  144.9640 C   0  0  2  0  0  3  0  0  0  0  0  0
  196.7010  175.6120  142.5200 C   0  0  1  0  0  3  0  0  0  0  0  0
  196.6450  177.0070  142.5680 O   0  0  0  0  0  1  0  0  0  0  0  0
  197.7130  175.1680  141.4730 C   0  0  0  0  0  2  0  0  0  0  0  0
  197.1960  175.4600  140.0770 C   0  0  0  0  0  1  0  0  0  0  0  0
  1  3  1  6  0  0  0
  1  9  1  0  0  0  0
  1 10  1  0  0  0  0
  2 14  2  0  0  0  0
  4  3  2  0  0  0  0
  4  8  1  0  0  0  0
  5 13  1  0  0  0  0
  6  7  1  0  0  0  0
  6 12  2  0  0  0  0
  7  5  1  1  0  0  0
  7  2  1  0  0  0  0
  8 11  2  0  0  0  0
  9  5  2  0  0  0  0
 10 13  1  0  0  0  0
 11 10  1  0  0  0  0
 11 15  1  0  0  0  0
 12 31  1  0  0  0  0
 12 14  1  0  0  0  0
 15 16  2  0  0  0  0
 15 17  1  0  0  0  0
 17 18  1  0  0  0  0
 18 19  1  0  0  0  0
 20 19  1  0  0  0  0
 20 21  1  0  0  0  0
 20 22  1  0  0  0  0
 21 22  1  0  0  0  0
 23  8  1  0  0  0  0
 24 23  1  0  0  0  0
 24 25  1  0  0  0  0
 26 25  1  0  0  0  0
 26 30  1  0  0  0  0
 29 30  2  0  0  0  0
 30 27  1  0  0  0  0
 30 28  2  0  0  0  0
 32 31  1  0  0  0  0
 33 36  1  0  0  0  0
 34 38  1  6  0  0  0
 34 37  1  0  0  0  0
 35 34  1  0  0  0  0
 35 33  1  0  0  0  0
 37 32  1  6  0  0  0
 37 36  1  0  0  0  0
 38 39  1  1  0  0  0
 40 38  1  0  0  0  0
 41 40  1  0  0  0  0
M  END
>  <MODEL>
1

>  <REMARK>
 VINA RESULT:      -7.0      0.000      0.000
  Name = 
  15 active torsions:
  status: ('A' for Active; 'I' for Inactive)
    1  A    between atoms: C_1  and  O_27
    2  A    between atoms: C_1  and  C_28
    3  A    between atoms: N_5  and  O_30
    4  A    between atoms: N_5  and  S_36
    5  A    between atoms: N_6  and  C_11
    6  A    between atoms: C_10  and  C_11
    7  A    between atoms: C_10  and  O_27
    8  A    between atoms: C_16  and  C_38
    9  A    between atoms: C_21  and  N_23
   10  A    between atoms: N_22  and  N_23
   11  A    between atoms: N_22  and  O_30
   12  A    between atoms: C_31  and  C_38
   13  A    between atoms: N_32  and  C_35
   14  A    between atoms: N_32  and  C_37
   15  A    between atoms: C_33  and  C_35
                            x       y       z     vdW  Elec       q    Type
                         _______ _______ _______ _____ _____    ______ ____

>  <TORSDO>
F 15

$$$$
=
 OpenBabel11042414253D

 41 45  0  0  1  0  0  0  0  0999 V2000
  186.1710  176.5980  145.4170 C   0  0  1  0  0  3  0  0  0  0  0  0
  185.3230  177.9340  140.8910 C   0  0  0  0  0  3  0  0  0  0  0  0
  186.3020  177.4350  146.6530 C   0  0  0  0  0  3  0  0  0  0  0  0
  187.5080  177.7330  147.1440 C   0  0  0  0  0  3  0  0  0  0  0  0
  185.6160  177.2990  143.2800 C   0  0  0  0  0  0  0  0  0  0  0  0
  183.4790  177.9510  142.3170 N   0  0  0  0  0  0  0  0  0  0  0  0
  184.8720  177.6980  142.2510 C   0  0  0  0  0  0  0  0  0  0  0  0
  188.7550  177.3370  146.4470 C   0  0  0  0  0  0  0  0  0  0  0  0
  185.0860  177.0770  144.5790 N   0  0  0  0  0  2  0  0  0  0  0  0
  187.3830  176.6860  144.5990 N   0  0  0  0  0  0  0  0  0  0  0  0
  188.6860  176.8520  145.1860 C   0  0  0  0  0  0  0  0  0  0  0  0
  183.1870  178.3090  141.1090 C   0  0  0  0  0  0  0  0  0  0  0  0
  187.0750  177.0480  143.2240 C   0  0  0  0  0  2  0  0  0  0  0  0
  184.2930  178.3010  140.2030 N   0  0  0  0  0  0  0  0  0  0  0  0
  189.8860  176.5080  144.3800 C   0  0  0  0  0  0  0  0  0  0  0  0
  190.4570  177.3720  143.6580 O   0  0  0  0  0  0  0  0  0  0  0  0
  190.3710  175.2000  144.4150 O   0  0  0  0  0  0  0  0  0  0  0  0
  190.6180  174.4510  143.2340 C   0  0  0  0  0  2  0  0  0  0  0  0
  189.4790  174.6590  142.2540 C   0  0  0  0  0  2  0  0  0  0  0  0
  189.8420  174.1270  140.9510 N   0  0  0  0  0  0  0  0  0  0  0  0
  189.2770  172.7720  140.8790 C   0  0  0  0  0  2  0  0  0  0  0  0
  188.5850  173.8780  140.2320 C   0  0  0  0  0  2  0  0  0  0  0  0
  190.0110  177.5230  147.1060 N   0  0  0  0  0  2  0  0  0  0  0  0
  190.7260  176.4400  147.6390 N   0  0  0  0  0  2  0  0  0  0  0  0
  192.0400  176.7330  147.4990 O   0  0  0  0  0  0  0  0  0  0  0  0
  192.5570  175.6640  146.8480 N   0  0  0  0  0  2  0  0  0  0  0  0
  193.7700  176.3770  144.3600 C   0  0  0  0  0  1  0  0  0  0  0  0
  194.4590  177.4990  146.6950 O   0  0  0  0  0  0  0  0  0  0  0  0
  195.1030  175.1570  146.3400 O   0  0  0  0  0  0  0  0  0  0  0  0
  194.0310  176.1840  146.1080 S   0  0  0  0  0  0  0  0  0  0  0  0
  181.7990  178.6340  140.6860 C   0  0  0  0  0  2  0  0  0  0  0  0
  180.8930  178.4520  141.8070 N   0  0  0  0  0  2  0  0  0  0  0  0
  178.7610  179.9340  139.8840 C   0  0  0  0  0  2  0  0  0  0  0  0
  178.5820  179.2770  142.0040 C   0  0  2  0  0  3  0  0  0  0  0  0
  178.0660  179.0480  140.7240 O   0  0  0  0  0  0  0  0  0  0  0  0
  180.0810  180.3160  140.5330 C   0  0  0  0  0  2  0  0  0  0  0  0
  180.0550  179.6390  141.8700 C   0  0  2  0  0  3  0  0  0  0  0  0
  178.2290  178.1320  142.9670 C   0  0  1  0  0  3  0  0  0  0  0  0
  178.6870  176.9050  142.4830 O   0  0  0  0  0  1  0  0  0  0  0  0
  178.7630  178.3700  144.3730 C   0  0  0  0  0  2  0  0  0  0  0  0
  178.1150  179.5970  144.9870 C   0  0  0  0  0  1  0  0  0  0  0  0
  1  3  1  1  0  0  0
  2  7  1  0  0  0  0
  3  4  2  0  0  0  0
  5  9  1  0  0  0  0
  7  6  1  0  0  0  0
  7  5  2  0  0  0  0
  8 23  1  0  0  0  0
  8  4  1  0  0  0  0
  9  1  1  0  0  0  0
 10 11  1  0  0  0  0
 10  1  1  0  0  0  0
 11  8  2  0  0  0  0
 12  6  2  0  0  0  0
 13  5  1  0  0  0  0
 13 10  1  0  0  0  0
 14  2  2  0  0  0  0
 14 12  1  0  0  0  0
 15 17  1  0  0  0  0
 15 11  1  0  0  0  0
 16 15  2  0  0  0  0
 18 17  1  0  0  0  0
 19 18  1  0  0  0  0
 20 19  1  0  0  0  0
 21 20  1  0  0  0  0
 22 21  1  0  0  0  0
 22 20  1  0  0  0  0
 23 24  1  0  0  0  0
 25 24  1  0  0  0  0
 26 25  1  0  0  0  0
 27 30  1  0  0  0  0
 30 29  2  0  0  0  0
 30 28  2  0  0  0  0
 30 26  1  0  0  0  0
 31 12  1  0  0  0  0
 31 32  1  0  0  0  0
 33 36  1  0  0  0  0
 33 35  1  0  0  0  0
 34 38  1  1  0  0  0
 35 34  1  0  0  0  0
 36 37  1  0  0  0  0
 37 32  1  6  0  0  0
 37 34  1  0  0  0  0
 38 39  1  6  0  0  0
 38 40  1  0  0  0  0
 40 41  1  0  0  0  0
M  END
>  <MODEL>
2

>  <REMARK>
 VINA RESULT:      -6.6      3.673     12.090
  Name = 
  15 active torsions:
  status: ('A' for Active; 'I' for Inactive)
    1  A    between atoms: C_1  and  O_27
    2  A    between atoms: C_1  and  C_28
    3  A    between atoms: N_5  and  O_30
    4  A    between atoms: N_5  and  S_36
    5  A    between atoms: N_6  and  C_11
    6  A    between atoms: C_10  and  C_11
    7  A    between atoms: C_10  and  O_27
    8  A    between atoms: C_16  and  C_38
    9  A    between atoms: C_21  and  N_23
   10  A    between atoms: N_22  and  N_23
   11  A    between atoms: N_22  and  O_30
   12  A    between atoms: C_31  and  C_38
   13  A    between atoms: N_32  and  C_35
   14  A    between atoms: N_32  and  C_37
   15  A    between atoms: C_33  and  C_35
                            x       y       z     vdW  Elec       q    Type
                         _______ _______ _______ _____ _____    ______ ____

>  <TORSDO>
F 15

$$$$
=
 OpenBabel11042414253D

 41 45  0  0  1  0  0  0  0  0999 V2000
  188.2540  176.5170  141.4640 C   0  0  1  0  0  3  0  0  0  0  0  0
  184.1960  178.4580  143.1250 C   0  0  0  0  0  3  0  0  0  0  0  0
  188.6150  175.0750  141.2690 C   0  0  0  0  0  3  0  0  0  0  0  0
  189.3790  174.4410  142.1630 C   0  0  0  0  0  3  0  0  0  0  0  0
  186.2170  177.3920  142.1360 C   0  0  0  0  0  0  0  0  0  0  0  0
  184.1230  177.6720  140.9300 N   0  0  0  0  0  0  0  0  0  0  0  0
  184.9530  177.8010  142.0720 C   0  0  2  0  0  3  0  0  0  0  0  0
  189.8190  175.0960  143.4180 C   0  0  0  0  0  0  0  0  0  0  0  0
  186.8860  176.7690  141.0490 N   0  0  0  0  0  0  0  0  0  0  0  0
  188.3200  176.8820  142.8810 N   0  0  0  0  0  0  0  0  0  0  0  0
  189.2710  176.2790  143.7780 C   0  0  0  0  0  0  0  0  0  0  0  0
  183.0040  178.1940  141.3180 C   0  0  0  0  0  0  0  0  0  0  0  0
  187.0860  177.5090  143.3300 C   0  0  0  0  0  2  0  0  0  0  0  0
  183.0160  178.6970  142.6570 N   0  0  0  0  0  0  0  0  0  0  0  0
  189.5880  176.9670  145.0570 C   0  0  0  0  0  0  0  0  0  0  0  0
  190.0960  178.1220  145.0680 O   0  0  0  0  0  0  0  0  0  0  0  0
  189.3310  176.3080  146.2590 O   0  0  0  0  0  0  0  0  0  0  0  0
  188.0120  176.0360  146.7080 C   0  0  0  0  0  2  0  0  0  0  0  0
  187.2400  177.3360  146.8360 C   0  0  0  0  0  2  0  0  0  0  0  0
  185.9670  177.0950  147.4930 N   0  0  0  0  0  0  0  0  0  0  0  0
  185.2670  178.3860  147.5380 C   0  0  0  0  0  2  0  0  0  0  0  0
  184.9200  177.4120  146.5120 C   0  0  0  0  0  2  0  0  0  0  0  0
  190.7800  174.4370  144.2480 N   0  0  0  0  0  2  0  0  0  0  0  0
  192.1220  174.8410  144.2780 N   0  0  0  0  0  2  0  0  0  0  0  0
  192.8220  173.8270  144.8400 O   0  0  0  0  0  0  0  0  0  0  0  0
  193.5830  174.4250  145.7870 N   0  0  0  0  0  2  0  0  0  0  0  0
  195.3310  176.3140  144.5430 C   0  0  0  0  0  1  0  0  0  0  0  0
  196.2040  174.3600  146.1560 O   0  0  0  0  0  0  0  0  0  0  0  0
  195.3460  173.7000  143.9530 O   0  0  0  0  0  0  0  0  0  0  0  0
  195.1610  174.6390  145.1110 S   0  0  0  0  0  0  0  0  0  0  0  0
  181.8280  178.3220  140.4170 C   0  0  0  0  0  2  0  0  0  0  0  0
  180.8010  179.1170  141.0680 N   0  0  0  0  0  2  0  0  0  0  0  0
  177.9620  178.6920  142.5510 C   0  0  0  0  0  2  0  0  0  0  0  0
  178.4320  179.5330  140.5440 C   0  0  2  0  0  3  0  0  0  0  0  0
  177.8980  179.8720  141.7920 O   0  0  0  0  0  0  0  0  0  0  0  0
  179.0290  177.7770  141.9750 C   0  0  0  0  0  2  0  0  0  0  0  0
  179.5240  178.4930  140.7550 C   0  0  2  0  0  3  0  0  0  0  0  0
  178.8050  180.7830  139.7320 C   0  0  1  0  0  3  0  0  0  0  0  0
  178.3690  180.6770  138.4090 O   0  0  0  0  0  1  0  0  0  0  0  0
  178.2680  182.0640  140.3550 C   0  0  0  0  0  2  0  0  0  0  0  0
  178.5720  183.2560  139.4670 C   0  0  0  0  0  1  0  0  0  0  0  0
  1  3  1  1  0  0  0
  1 10  1  0  0  0  0
  3  4  2  0  0  0  0
  4  8  1  0  0  0  0
  5 13  1  0  0  0  0
  6 12  2  0  0  0  0
  6  7  1  0  0  0  0
  7  5  1  6  0  0  0
  7  2  1  0  0  0  0
  8 11  2  0  0  0  0
  8 23  1  0  0  0  0
  9  1  1  0  0  0  0
  9  5  2  0  0  0  0
 10 13  1  0  0  0  0
 10 11  1  0  0  0  0
 11 15  1  0  0  0  0
 12 14  1  0  0  0  0
 14  2  2  0  0  0  0
 15 16  2  0  0  0  0
 15 17  1  0  0  0  0
 17 18  1  0  0  0  0
 18 19  1  0  0  0  0
 19 20  1  0  0  0  0
 20 21  1  0  0  0  0
 22 20  1  0  0  0  0
 22 21  1  0  0  0  0
 23 24  1  0  0  0  0
 24 25  1  0  0  0  0
 25 26  1  0  0  0  0
 27 30  1  0  0  0  0
 29 30  2  0  0  0  0
 30 26  1  0  0  0  0
 30 28  2  0  0  0  0
 31 32  1  0  0  0  0
 31 12  1  0  0  0  0
 34 38  1  1  0  0  0
 34 37  1  0  0  0  0
 34 35  1  0  0  0  0
 35 33  1  0  0  0  0
 36 33  1  0  0  0  0
 37 32  1  1  0  0  0
 37 36  1  0  0  0  0
 38 39  1  6  0  0  0
 38 40  1  0  0  0  0
 41 40  1  0  0  0  0
M  END
>  <MODEL>
3

>  <REMARK>
 VINA RESULT:      -6.6      3.486     11.964
  Name = 
  15 active torsions:
  status: ('A' for Active; 'I' for Inactive)
    1  A    between atoms: C_1  and  O_27
    2  A    between atoms: C_1  and  C_28
    3  A    between atoms: N_5  and  O_30
    4  A    between atoms: N_5  and  S_36
    5  A    between atoms: N_6  and  C_11
    6  A    between atoms: C_10  and  C_11
    7  A    between atoms: C_10  and  O_27
    8  A    between atoms: C_16  and  C_38
    9  A    between atoms: C_21  and  N_23
   10  A    between atoms: N_22  and  N_23
   11  A    between atoms: N_22  and  O_30
   12  A    between atoms: C_31  and  C_38
   13  A    between atoms: N_32  and  C_35
   14  A    between atoms: N_32  and  C_37
   15  A    between atoms: C_33  and  C_35
                            x       y       z     vdW  Elec       q    Type
                         _______ _______ _______ _____ _____    ______ ____

>  <TORSDO>
F 15

$$$$
=
 OpenBabel11042414253D

 41 45  0  0  1  0  0  0  0  0999 V2000
  187.6060  176.0600  141.5190 C   0  0  1  0  0  3  0  0  0  0  0  0
  191.1610  177.6970  144.2900 C   0  0  0  0  0  3  0  0  0  0  0  0
  187.2640  176.4020  140.1000 C   0  0  0  0  0  3  0  0  0  0  0  0
  186.2790  177.2620  139.8300 C   0  0  0  0  0  3  0  0  0  0  0  0
  189.4290  176.7820  142.7530 C   0  0  0  0  0  0  0  0  0  0  0  0
  191.7700  176.1210  142.6810 N   0  0  0  0  0  0  0  0  0  0  0  0
  190.6790  176.8640  143.2010 C   0  0  2  0  0  3  0  0  0  0  0  0
  185.5520  177.9810  140.9040 C   0  0  0  0  0  0  0  0  0  0  0  0
  189.0420  175.9260  141.6880 N   0  0  0  0  0  0  0  0  0  0  0  0
  187.1910  177.1330  142.4260 N   0  0  0  0  0  0  0  0  0  0  0  0
  186.0250  177.9360  142.1710 C   0  0  0  0  0  0  0  0  0  0  0  0
  192.7670  176.5170  143.4050 C   0  0  0  0  0  0  0  0  0  0  0  0
  188.2870  177.5660  143.2800 C   0  0  0  0  0  2  0  0  0  0  0  0
  192.4280  177.4760  144.4100 N   0  0  0  0  0  0  0  0  0  0  0  0
  185.4130  178.6910  143.2950 C   0  0  0  0  0  0  0  0  0  0  0  0
  185.7760  179.8690  143.5650 O   0  0  0  0  0  0  0  0  0  0  0  0
  184.4320  178.0710  144.0700 O   0  0  0  0  0  0  0  0  0  0  0  0
  183.8740  178.6860  145.2210 C   0  0  0  0  0  2  0  0  0  0  0  0
  184.4180  178.0150  146.4690 C   0  0  0  0  0  2  0  0  0  0  0  0
  185.7300  178.5510  146.7880 N   0  0  0  0  0  0  0  0  0  0  0  0
  186.1440  177.9220  148.0500 C   0  0  0  0  0  2  0  0  0  0  0  0
  186.6620  177.4140  146.7870 C   0  0  0  0  0  2  0  0  0  0  0  0
  184.3920  178.7480  140.5690 N   0  0  0  0  0  2  0  0  0  0  0  0
  183.1480  178.1380  140.3520 N   0  0  0  0  0  2  0  0  0  0  0  0
  182.2910  178.6640  141.2590 O   0  0  0  0  0  0  0  0  0  0  0  0
  181.1500  178.8770  140.5620 N   0  0  0  0  0  2  0  0  0  0  0  0
  179.0200  177.4940  141.8740 C   0  0  0  0  0  1  0  0  0  0  0  0
  180.4440  179.4360  143.0520 O   0  0  0  0  0  0  0  0  0  0  0  0
  178.9090  180.1000  141.2550 O   0  0  0  0  0  0  0  0  0  0  0  0
  179.8740  179.0450  141.7180 S   0  0  0  0  0  0  0  0  0  0  0  0
  194.1370  175.9620  143.2460 C   0  0  0  0  0  2  0  0  0  0  0  0
  194.5150  175.2440  144.4510 N   0  0  0  0  0  2  0  0  0  0  0  0
  196.4340  173.1320  145.9650 C   0  0  0  0  0  2  0  0  0  0  0  0
  195.1570  172.8860  144.1570 C   0  0  2  0  0  3  0  0  0  0  0  0
  195.3100  172.4450  145.4760 O   0  0  0  0  0  0  0  0  0  0  0  0
  196.6470  174.3960  145.1510 C   0  0  0  0  0  2  0  0  0  0  0  0
  195.5960  174.3420  144.0850 C   0  0  2  0  0  3  0  0  0  0  0  0
  193.7620  172.5480  143.6080 C   0  0  1  0  0  3  0  0  0  0  0  0
  193.8110  171.4570  142.7390 O   0  0  0  0  0  1  0  0  0  0  0  0
  192.7490  172.2880  144.7150 C   0  0  0  0  0  2  0  0  0  0  0  0
  191.3650  172.7400  144.2860 C   0  0  0  0  0  1  0  0  0  0  0  0
  1  3  1  6  0  0  0
  1  9  1  0  0  0  0
  1 10  1  0  0  0  0
  2 14  2  0  0  0  0
  4  3  2  0  0  0  0
  4  8  1  0  0  0  0
  5 13  1  0  0  0  0
  6  7  1  0  0  0  0
  6 12  2  0  0  0  0
  7  5  1  1  0  0  0
  7  2  1  0  0  0  0
  8 11  2  0  0  0  0
  9  5  2  0  0  0  0
 10 13  1  0  0  0  0
 11 10  1  0  0  0  0
 11 15  1  0  0  0  0
 12 14  1  0  0  0  0
 15 16  2  0  0  0  0
 15 17  1  0  0  0  0
 17 18  1  0  0  0  0
 18 19  1  0  0  0  0
 19 20  1  0  0  0  0
 20 21  1  0  0  0  0
 22 20  1  0  0  0  0
 22 21  1  0  0  0  0
 23  8  1  0  0  0  0
 24 23  1  0  0  0  0
 24 25  1  0  0  0  0
 26 25  1  0  0  0  0
 26 30  1  0  0  0  0
 29 30  2  0  0  0  0
 30 27  1  0  0  0  0
 30 28  2  0  0  0  0
 31 12  1  0  0  0  0
 31 32  1  0  0  0  0
 34 38  1  1  0  0  0
 34 35  1  0  0  0  0
 35 33  1  0  0  0  0
 36 33  1  0  0  0  0
 37 34  1  0  0  0  0
 37 32  1  1  0  0  0
 37 36  1  0  0  0  0
 38 39  1  6  0  0  0
 38 40  1  0  0  0  0
 41 40  1  0  0  0  0
M  END
>  <MODEL>
4

>  <REMARK>
 VINA RESULT:      -6.4      1.766      2.374
  Name = 
  15 active torsions:
  status: ('A' for Active; 'I' for Inactive)
    1  A    between atoms: C_1  and  O_27
    2  A    between atoms: C_1  and  C_28
    3  A    between atoms: N_5  and  O_30
    4  A    between atoms: N_5  and  S_36
    5  A    between atoms: N_6  and  C_11
    6  A    between atoms: C_10  and  C_11
    7  A    between atoms: C_10  and  O_27
    8  A    between atoms: C_16  and  C_38
    9  A    between atoms: C_21  and  N_23
   10  A    between atoms: N_22  and  N_23
   11  A    between atoms: N_22  and  O_30
   12  A    between atoms: C_31  and  C_38
   13  A    between atoms: N_32  and  C_35
   14  A    between atoms: N_32  and  C_37
   15  A    between atoms: C_33  and  C_35
                            x       y       z     vdW  Elec       q    Type
                         _______ _______ _______ _____ _____    ______ ____

>  <TORSDO>
F 15

$$$$
=
 OpenBabel11042414253D

 41 45  0  0  1  0  0  0  0  0999 V2000
  187.7450  176.9930  141.1260 C   0  0  1  0  0  3  0  0  0  0  0  0
  184.0040  178.7850  143.5310 C   0  0  0  0  0  3  0  0  0  0  0  0
  188.1700  175.5670  140.9410 C   0  0  0  0  0  3  0  0  0  0  0  0
  189.1580  175.0540  141.6780 C   0  0  0  0  0  3  0  0  0  0  0  0
  185.8400  177.7810  142.1820 C   0  0  0  0  0  0  0  0  0  0  0  0
  183.5170  177.8320  141.4580 N   0  0  0  0  0  0  0  0  0  0  0  0
  184.5630  178.1010  142.3770 C   0  0  2  0  0  3  0  0  0  0  0  0
  189.8070  175.8290  142.7630 C   0  0  0  0  0  0  0  0  0  0  0  0
  186.3040  177.1230  141.0120 N   0  0  0  0  0  0  0  0  0  0  0  0
  188.0890  177.4670  142.4690 N   0  0  0  0  0  0  0  0  0  0  0  0
  189.2570  176.9980  143.1650 C   0  0  0  0  0  0  0  0  0  0  0  0
  182.4720  178.3080  142.0540 C   0  0  0  0  0  0  0  0  0  0  0  0
  186.9360  178.0450  143.1430 C   0  0  0  0  0  2  0  0  0  0  0  0
  182.7340  178.9100  143.3240 N   0  0  0  0  0  0  0  0  0  0  0  0
  189.7890  177.8000  144.2980 C   0  0  0  0  0  0  0  0  0  0  0  0
  190.7380  178.6140  144.1320 O   0  0  0  0  0  0  0  0  0  0  0  0
  189.2330  177.6280  145.5660 O   0  0  0  0  0  0  0  0  0  0  0  0
  188.8220  176.3570  146.0480 C   0  0  0  0  0  2  0  0  0  0  0  0
  187.5530  176.5100  146.8650 C   0  0  0  0  0  2  0  0  0  0  0  0
  187.2410  177.9180  147.0380 N   0  0  0  0  0  0  0  0  0  0  0  0
  185.8540  178.0990  146.5890 C   0  0  0  0  0  2  0  0  0  0  0  0
  186.1430  177.9900  148.0120 C   0  0  0  0  0  2  0  0  0  0  0  0
  190.9750  175.2990  143.3960 N   0  0  0  0  0  2  0  0  0  0  0  0
  192.2320  175.3500  142.7760 N   0  0  0  0  0  2  0  0  0  0  0  0
  193.1550  175.1620  143.7480 O   0  0  0  0  0  0  0  0  0  0  0  0
  193.6420  176.4010  143.9970 N   0  0  0  0  0  2  0  0  0  0  0  0
  192.5630  176.3730  146.6440 C   0  0  0  0  0  1  0  0  0  0  0  0
  194.9360  175.2930  146.0240 O   0  0  0  0  0  0  0  0  0  0  0  0
  194.7690  177.7420  145.9780 O   0  0  0  0  0  0  0  0  0  0  0  0
  194.0510  176.4570  145.6770 S   0  0  0  0  0  0  0  0  0  0  0  0
  181.1220  178.2900  141.4320 C   0  0  0  0  0  2  0  0  0  0  0  0
  180.9950  179.4080  140.5130 N   0  0  0  0  0  2  0  0  0  0  0  0
  178.8000  181.1880  138.9470 C   0  0  0  0  0  2  0  0  0  0  0  0
  178.5500  179.3800  140.2220 C   0  0  2  0  0  3  0  0  0  0  0  0
  178.3930  179.8440  138.9110 O   0  0  0  0  0  0  0  0  0  0  0  0
  179.7220  181.4060  140.1340 C   0  0  0  0  0  2  0  0  0  0  0  0
  179.7490  180.0850  140.8410 C   0  0  2  0  0  3  0  0  0  0  0  0
  178.5360  177.8440  140.2810 C   0  0  1  0  0  3  0  0  0  0  0  0
  177.8810  177.3880  141.4280 O   0  0  0  0  0  1  0  0  0  0  0  0
  177.9110  177.2200  139.0420 C   0  0  0  0  0  2  0  0  0  0  0  0
  178.9670  176.5140  138.2110 C   0  0  0  0  0  1  0  0  0  0  0  0
  1  3  1  1  0  0  0
  1 10  1  0  0  0  0
  3  4  2  0  0  0  0
  4  8  1  0  0  0  0
  5 13  1  0  0  0  0
  6 12  2  0  0  0  0
  6  7  1  0  0  0  0
  7  5  1  6  0  0  0
  7  2  1  0  0  0  0
  8 11  2  0  0  0  0
  8 23  1  0  0  0  0
  9  1  1  0  0  0  0
  9  5  2  0  0  0  0
 10 13  1  0  0  0  0
 10 11  1  0  0  0  0
 11 15  1  0  0  0  0
 12 14  1  0  0  0  0
 14  2  2  0  0  0  0
 15 17  1  0  0  0  0
 16 15  2  0  0  0  0
 17 18  1  0  0  0  0
 18 19  1  0  0  0  0
 19 20  1  0  0  0  0
 20 22  1  0  0  0  0
 21 20  1  0  0  0  0
 21 22  1  0  0  0  0
 24 23  1  0  0  0  0
 24 25  1  0  0  0  0
 25 26  1  0  0  0  0
 26 30  1  0  0  0  0
 30 29  2  0  0  0  0
 30 28  2  0  0  0  0
 30 27  1  0  0  0  0
 31 12  1  0  0  0  0
 32 31  1  0  0  0  0
 33 36  1  0  0  0  0
 34 38  1  6  0  0  0
 34 37  1  0  0  0  0
 35 33  1  0  0  0  0
 35 34  1  0  0  0  0
 36 37  1  0  0  0  0
 37 32  1  6  0  0  0
 38 39  1  1  0  0  0
 40 38  1  0  0  0  0
 41 40  1  0  0  0  0
M  END
>  <MODEL>
5

>  <REMARK>
 VINA RESULT:      -6.4      3.946     11.692
  Name = 
  15 active torsions:
  status: ('A' for Active; 'I' for Inactive)
    1  A    between atoms: C_1  and  O_27
    2  A    between atoms: C_1  and  C_28
    3  A    between atoms: N_5  and  O_30
    4  A    between atoms: N_5  and  S_36
    5  A    between atoms: N_6  and  C_11
    6  A    between atoms: C_10  and  C_11
    7  A    between atoms: C_10  and  O_27
    8  A    between atoms: C_16  and  C_38
    9  A    between atoms: C_21  and  N_23
   10  A    between atoms: N_22  and  N_23
   11  A    between atoms: N_22  and  O_30
   12  A    between atoms: C_31  and  C_38
   13  A    between atoms: N_32  and  C_35
   14  A    between atoms: N_32  and  C_37
   15  A    between atoms: C_33  and  C_35
                            x       y       z     vdW  Elec       q    Type
                         _______ _______ _______ _____ _____    ______ ____

>  <TORSDO>
F 15

$$$$
=
 OpenBabel11042414253D

 41 45  0  0  1  0  0  0  0  0999 V2000
  186.2070  176.7040  144.9730 C   0  0  1  0  0  3  0  0  0  0  0  0
  184.4940  178.2120  140.7560 C   0  0  0  0  0  3  0  0  0  0  0  0
  186.6140  177.4960  146.1790 C   0  0  0  0  0  3  0  0  0  0  0  0
  187.9040  177.7470  146.4190 C   0  0  0  0  0  3  0  0  0  0  0  0
  185.2490  177.4900  143.0160 C   0  0  0  0  0  0  0  0  0  0  0  0
  182.9810  178.2280  142.5310 N   0  0  0  0  0  0  0  0  0  0  0  0
  184.3230  177.9420  142.1730 C   0  0  0  0  0  0  0  0  0  0  0  0
  188.9690  177.3420  145.4710 C   0  0  0  0  0  0  0  0  0  0  0  0
  184.9890  177.2380  144.3900 N   0  0  0  0  0  2  0  0  0  0  0  0
  187.2280  176.7880  143.9260 N   0  0  0  0  0  0  0  0  0  0  0  0
  188.6280  176.9020  144.2370 C   0  0  0  0  0  0  0  0  0  0  0  0
  182.4600  178.6340  141.4190 C   0  0  0  0  0  0  0  0  0  0  0  0
  186.6560  177.2040  142.6540 C   0  0  0  0  0  2  0  0  0  0  0  0
  183.3570  178.6270  140.3050 N   0  0  0  0  0  0  0  0  0  0  0  0
  189.6260  176.5550  143.1930 C   0  0  0  0  0  0  0  0  0  0  0  0
  190.0730  177.4290  142.4010 O   0  0  0  0  0  0  0  0  0  0  0  0
  190.0570  175.2320  143.0830 O   0  0  0  0  0  0  0  0  0  0  0  0
  190.2360  174.5950  141.8270 C   0  0  0  0  0  2  0  0  0  0  0  0
  188.9030  174.5020  141.1090 C   0  0  0  0  0  2  0  0  0  0  0  0
  188.6080  173.1160  140.7870 N   0  0  0  0  0  0  0  0  0  0  0  0
  189.0700  172.3130  141.9280 C   0  0  0  0  0  2  0  0  0  0  0  0
  187.6570  172.6400  141.8010 C   0  0  0  0  0  2  0  0  0  0  0  0
  190.3390  177.4740  145.8620 N   0  0  0  0  0  2  0  0  0  0  0  0
  190.9370  176.5690  146.7500 N   0  0  0  0  0  2  0  0  0  0  0  0
  191.8470  175.8650  146.0360 O   0  0  0  0  0  0  0  0  0  0  0  0
  192.4770  176.7950  145.2800 N   0  0  0  0  0  2  0  0  0  0  0  0
  193.2130  174.1990  144.3350 C   0  0  0  0  0  1  0  0  0  0  0  0
  193.2330  176.3810  142.7770 O   0  0  0  0  0  0  0  0  0  0  0  0
  194.9490  176.2330  144.5260 O   0  0  0  0  0  0  0  0  0  0  0  0
  193.5140  175.9450  144.1870 S   0  0  0  0  0  0  0  0  0  0  0  0
  181.0260  179.0070  141.2990 C   0  0  0  0  0  2  0  0  0  0  0  0
  180.3770  178.1450  140.3270 N   0  0  0  0  0  2  0  0  0  0  0  0
  177.9940  180.1200  139.4010 C   0  0  0  0  0  2  0  0  0  0  0  0
  178.1520  177.9010  139.3020 C   0  0  2  0  0  3  0  0  0  0  0  0
  178.0590  179.0450  138.5000 O   0  0  0  0  0  0  0  0  0  0  0  0
  178.5990  179.7030  140.7310 C   0  0  0  0  0  2  0  0  0  0  0  0
  178.9440  178.2560  140.5530 C   0  0  2  0  0  3  0  0  0  0  0  0
  178.6300  176.6840  138.4940 C   0  0  1  0  0  3  0  0  0  0  0  0
  178.0240  175.5090  138.9430 O   0  0  0  0  0  1  0  0  0  0  0  0
  178.3980  176.8510  136.9980 C   0  0  0  0  0  2  0  0  0  0  0  0
  179.4380  176.0780  136.2090 C   0  0  0  0  0  1  0  0  0  0  0  0
  1  3  1  1  0  0  0
  2  7  1  0  0  0  0
  3  4  2  0  0  0  0
  5  9  1  0  0  0  0
  7  6  1  0  0  0  0
  7  5  2  0  0  0  0
  8 23  1  0  0  0  0
  8  4  1  0  0  0  0
  9  1  1  0  0  0  0
 10 11  1  0  0  0  0
 10  1  1  0  0  0  0
 11  8  2  0  0  0  0
 12  6  2  0  0  0  0
 13  5  1  0  0  0  0
 13 10  1  0  0  0  0
 14  2  2  0  0  0  0
 14 12  1  0  0  0  0
 15 11  1  0  0  0  0
 16 15  2  0  0  0  0
 17 15  1  0  0  0  0
 18 17  1  0  0  0  0
 19 18  1  0  0  0  0
 20 19  1  0  0  0  0
 20 22  1  0  0  0  0
 20 21  1  0  0  0  0
 22 21  1  0  0  0  0
 23 24  1  0  0  0  0
 25 24  1  0  0  0  0
 26 25  1  0  0  0  0
 28 30  2  0  0  0  0
 30 27  1  0  0  0  0
 30 29  2  0  0  0  0
 30 26  1  0  0  0  0
 31 12  1  0  0  0  0
 32 31  1  0  0  0  0
 33 36  1  0  0  0  0
 34 38  1  6  0  0  0
 34 37  1  0  0  0  0
 35 34  1  0  0  0  0
 35 33  1  0  0  0  0
 37 32  1  6  0  0  0
 37 36  1  0  0  0  0
 38 39  1  1  0  0  0
 40 38  1  0  0  0  0
 41 40  1  0  0  0  0
M  END
>  <MODEL>
6

>  <REMARK>
 VINA RESULT:      -6.3      3.661     12.110
  Name = 
  15 active torsions:
  status: ('A' for Active; 'I' for Inactive)
    1  A    between atoms: C_1  and  O_27
    2  A    between atoms: C_1  and  C_28
    3  A    between atoms: N_5  and  O_30
    4  A    between atoms: N_5  and  S_36
    5  A    between atoms: N_6  and  C_11
    6  A    between atoms: C_10  and  C_11
    7  A    between atoms: C_10  and  O_27
    8  A    between atoms: C_16  and  C_38
    9  A    between atoms: C_21  and  N_23
   10  A    between atoms: N_22  and  N_23
   11  A    between atoms: N_22  and  O_30
   12  A    between atoms: C_31  and  C_38
   13  A    between atoms: N_32  and  C_35
   14  A    between atoms: N_32  and  C_37
   15  A    between atoms: C_33  and  C_35
                            x       y       z     vdW  Elec       q    Type
                         _______ _______ _______ _____ _____    ______ ____

>  <TORSDO>
F 15

$$$$
=
 OpenBabel11042414253D

 41 45  0  0  1  0  0  0  0  0999 V2000
  186.6890  176.3980  144.9980 C   0  0  1  0  0  3  0  0  0  0  0  0
  184.7540  178.2850  141.0370 C   0  0  0  0  0  3  0  0  0  0  0  0
  187.1010  177.0690  146.2740 C   0  0  0  0  0  3  0  0  0  0  0  0
  188.3840  177.3590  146.5030 C   0  0  0  0  0  3  0  0  0  0  0  0
  185.6240  177.3500  143.1750 C   0  0  0  0  0  0  0  0  0  0  0  0
  183.3070  178.0170  142.8470 N   0  0  0  0  0  0  0  0  0  0  0  0
  184.6480  177.8460  142.4180 C   0  0  0  0  0  0  0  0  0  0  0  0
  189.4330  177.1220  145.4830 C   0  0  0  0  0  0  0  0  0  0  0  0
  185.4270  176.9310  144.5170 N   0  0  0  0  0  2  0  0  0  0  0  0
  187.6670  176.6560  143.9380 N   0  0  0  0  0  0  0  0  0  0  0  0
  189.0700  176.8070  144.2180 C   0  0  0  0  0  0  0  0  0  0  0  0
  182.7270  178.5190  141.8050 C   0  0  0  0  0  0  0  0  0  0  0  0
  187.0300  177.1830  142.7400 C   0  0  0  0  0  2  0  0  0  0  0  0
  183.5820  178.6870  140.6720 N   0  0  0  0  0  0  0  0  0  0  0  0
  190.0460  176.6350  143.1100 C   0  0  0  0  0  0  0  0  0  0  0  0
  190.5420  177.6320  142.5170 O   0  0  0  0  0  0  0  0  0  0  0  0
  190.3990  175.3440  142.7160 O   0  0  0  0  0  0  0  0  0  0  0  0
  190.5620  174.2850  143.6470 C   0  0  0  0  0  2  0  0  0  0  0  0
  189.6590  173.1280  143.2640 C   0  0  0  0  0  2  0  0  0  0  0  0
  190.1340  172.5130  142.0370 N   0  0  0  0  0  0  0  0  0  0  0  0
  191.4200  171.8780  142.3560 C   0  0  0  0  0  2  0  0  0  0  0  0
  190.2130  171.0680  142.2920 C   0  0  0  0  0  2  0  0  0  0  0  0
  190.8080  177.2810  145.8450 N   0  0  0  0  0  2  0  0  0  0  0  0
  191.3860  176.5230  146.8730 N   0  0  0  0  0  2  0  0  0  0  0  0
  192.7280  176.6280  146.7280 O   0  0  0  0  0  0  0  0  0  0  0  0
  193.0600  175.6130  145.8950 N   0  0  0  0  0  2  0  0  0  0  0  0
  194.3530  175.8970  143.3610 C   0  0  0  0  0  1  0  0  0  0  0  0
  194.8880  177.4780  145.4590 O   0  0  0  0  0  0  0  0  0  0  0  0
  195.6450  175.1460  145.5870 O   0  0  0  0  0  0  0  0  0  0  0  0
  194.5430  176.0550  145.1210 S   0  0  0  0  0  0  0  0  0  0  0  0
  181.2720  178.8280  141.7730 C   0  0  0  0  0  2  0  0  0  0  0  0
  180.9300  179.4240  140.4930 N   0  0  0  0  0  2  0  0  0  0  0  0
  178.0190  179.1190  141.8630 C   0  0  0  0  0  2  0  0  0  0  0  0
  178.6100  180.0030  139.9060 C   0  0  2  0  0  3  0  0  0  0  0  0
  178.0530  180.3280  141.1480 O   0  0  0  0  0  0  0  0  0  0  0  0
  179.0500  178.1620  141.2880 C   0  0  0  0  0  2  0  0  0  0  0  0
  179.6300  178.8920  140.1140 C   0  0  2  0  0  3  0  0  0  0  0  0
  179.0860  181.2570  139.1560 C   0  0  1  0  0  3  0  0  0  0  0  0
  178.6300  181.2620  137.8370 O   0  0  0  0  0  1  0  0  0  0  0  0
  178.6720  182.5450  139.8550 C   0  0  0  0  0  2  0  0  0  0  0  0
  179.0570  183.7510  139.0190 C   0  0  0  0  0  1  0  0  0  0  0  0
  1  3  1  1  0  0  0
  2  7  1  0  0  0  0
  3  4  2  0  0  0  0
  5  9  1  0  0  0  0
  7  6  1  0  0  0  0
  7  5  2  0  0  0  0
  8 23  1  0  0  0  0
  8  4  1  0  0  0  0
  9  1  1  0  0  0  0
 10 11  1  0  0  0  0
 10  1  1  0  0  0  0
 11  8  2  0  0  0  0
 12  6  2  0  0  0  0
 13  5  1  0  0  0  0
 13 10  1  0  0  0  0
 14  2  2  0  0  0  0
 14 12  1  0  0  0  0
 15 11  1  0  0  0  0
 16 15  2  0  0  0  0
 17 15  1  0  0  0  0
 17 18  1  0  0  0  0
 19 18  1  0  0  0  0
 20 22  1  0  0  0  0
 20 21  1  0  0  0  0
 20 19  1  0  0  0  0
 22 21  1  0  0  0  0
 23 24  1  0  0  0  0
 25 24  1  0  0  0  0
 26 25  1  0  0  0  0
 27 30  1  0  0  0  0
 30 28  2  0  0  0  0
 30 29  2  0  0  0  0
 30 26  1  0  0  0  0
 31 12  1  0  0  0  0
 32 31  1  0  0  0  0
 34 38  1  1  0  0  0
 34 37  1  0  0  0  0
 34 35  1  0  0  0  0
 35 33  1  0  0  0  0
 36 33  1  0  0  0  0
 37 32  1  1  0  0  0
 37 36  1  0  0  0  0
 38 39  1  6  0  0  0
 38 40  1  0  0  0  0
 41 40  1  0  0  0  0
M  END
>  <MODEL>
7

>  <REMARK>
 VINA RESULT:      -6.2      3.754     12.306
  Name = 
  15 active torsions:
  status: ('A' for Active; 'I' for Inactive)
    1  A    between atoms: C_1  and  O_27
    2  A    between atoms: C_1  and  C_28
    3  A    between atoms: N_5  and  O_30
    4  A    between atoms: N_5  and  S_36
    5  A    between atoms: N_6  and  C_11
    6  A    between atoms: C_10  and  C_11
    7  A    between atoms: C_10  and  O_27
    8  A    between atoms: C_16  and  C_38
    9  A    between atoms: C_21  and  N_23
   10  A    between atoms: N_22  and  N_23
   11  A    between atoms: N_22  and  O_30
   12  A    between atoms: C_31  and  C_38
   13  A    between atoms: N_32  and  C_35
   14  A    between atoms: N_32  and  C_37
   15  A    between atoms: C_33  and  C_35
                            x       y       z     vdW  Elec       q    Type
                         _______ _______ _______ _____ _____    ______ ____

>  <TORSDO>
F 15

$$$$
=
 OpenBabel11042414253D

 41 45  0  0  1  0  0  0  0  0999 V2000
  194.8970  176.0130  145.6940 C   0  0  1  0  0  3  0  0  0  0  0  0
  190.3960  174.4060  146.0800 C   0  0  0  0  0  3  0  0  0  0  0  0
  195.5590  176.7420  144.5640 C   0  0  0  0  0  3  0  0  0  0  0  0
  196.3500  176.0910  143.7080 C   0  0  0  0  0  3  0  0  0  0  0  0
  192.6730  175.3920  145.8730 C   0  0  0  0  0  0  0  0  0  0  0  0
  190.6840  176.7010  146.3730 N   0  0  0  0  0  0  0  0  0  0  0  0
  191.3620  175.4900  146.0850 C   0  0  2  0  0  3  0  0  0  0  0  0
  196.5330  174.6210  143.7770 C   0  0  0  0  0  0  0  0  0  0  0  0
  193.5500  176.5080  145.9120 N   0  0  0  0  0  0  0  0  0  0  0  0
  194.7580  174.5880  145.3820 N   0  0  0  0  0  0  0  0  0  0  0  0
  195.7250  173.8880  144.5790 C   0  0  0  0  0  0  0  0  0  0  0  0
  189.4520  176.3260  146.4990 C   0  0  0  0  0  0  0  0  0  0  0  0
  193.3870  174.1330  145.5570 C   0  0  0  0  0  2  0  0  0  0  0  0
  189.2390  174.9210  146.3370 N   0  0  0  0  0  0  0  0  0  0  0  0
  195.7780  172.4050  144.6490 C   0  0  0  0  0  0  0  0  0  0  0  0
  195.1130  171.6890  143.8510 O   0  0  0  0  0  0  0  0  0  0  0  0
  196.5670  171.8030  145.6310 O   0  0  0  0  0  0  0  0  0  0  0  0
  196.8790  170.4180  145.6090 C   0  0  0  0  0  2  0  0  0  0  0  0
  196.3540  169.7600  146.8710 C   0  0  0  0  0  2  0  0  0  0  0  0
  194.9280  169.5100  146.7450 N   0  0  0  0  0  0  0  0  0  0  0  0
  194.7830  168.3490  145.8570 C   0  0  0  0  0  2  0  0  0  0  0  0
  194.6830  168.1710  147.2990 C   0  0  0  0  0  2  0  0  0  0  0  0
  197.5270  174.0020  142.9550 N   0  0  0  0  0  2  0  0  0  0  0  0
  197.5930  174.2470  141.5760 N   0  0  0  0  0  2  0  0  0  0  0  0
  196.6250  173.4970  140.9990 O   0  0  0  0  0  0  0  0  0  0  0  0
  196.3250  174.1540  139.8540 N   0  0  0  0  0  2  0  0  0  0  0  0
  193.8730  174.0260  141.3170 C   0  0  0  0  0  1  0  0  0  0  0  0
  195.0120  176.3360  140.5760 O   0  0  0  0  0  0  0  0  0  0  0  0
  194.0300  174.9480  138.8050 O   0  0  0  0  0  0  0  0  0  0  0  0
  194.7970  174.9280  140.0970 S   0  0  0  0  0  0  0  0  0  0  0  0
  188.3620  177.2720  146.8550 C   0  0  0  0  0  2  0  0  0  0  0  0
  187.6640  177.6860  145.6500 N   0  0  0  0  0  2  0  0  0  0  0  0
  184.4820  177.9450  146.1510 C   0  0  0  0  0  2  0  0  0  0  0  0
  185.6120  177.2550  144.3600 C   0  0  2  0  0  3  0  0  0  0  0  0
  184.7510  178.2630  144.8090 O   0  0  0  0  0  0  0  0  0  0  0  0
  185.5950  177.0650  146.6950 C   0  0  0  0  0  2  0  0  0  0  0  0
  186.4970  176.8260  145.5220 C   0  0  2  0  0  3  0  0  0  0  0  0
  186.3180  177.6570  143.0550 C   0  0  1  0  0  3  0  0  0  0  0  0
  187.0230  176.5820  142.5100 O   0  0  0  0  0  1  0  0  0  0  0  0
  185.3540  178.2250  142.0230 C   0  0  0  0  0  2  0  0  0  0  0  0
  185.8560  177.9500  140.6180 C   0  0  0  0  0  1  0  0  0  0  0  0
  1  3  1  6  0  0  0
  1  9  1  0  0  0  0
  2  7  1  0  0  0  0
  2 14  2  0  0  0  0
  4  8  1  0  0  0  0
  4  3  2  0  0  0  0
  5  9  2  0  0  0  0
  6 12  2  0  0  0  0
  7  5  1  1  0  0  0
  7  6  1  0  0  0  0
  8 11  2  0  0  0  0
 10 13  1  0  0  0  0
 10  1  1  0  0  0  0
 11 15  1  0  0  0  0
 11 10  1  0  0  0  0
 12 31  1  0  0  0  0
 13  5  1  0  0  0  0
 14 12  1  0  0  0  0
 15 17  1  0  0  0  0
 16 15  2  0  0  0  0
 18 17  1  0  0  0  0
 18 19  1  0  0  0  0
 20 19  1  0  0  0  0
 20 22  1  0  0  0  0
 21 20  1  0  0  0  0
 21 22  1  0  0  0  0
 23  8  1  0  0  0  0
 24 23  1  0  0  0  0
 25 24  1  0  0  0  0
 26 30  1  0  0  0  0
 26 25  1  0  0  0  0
 29 30  2  0  0  0  0
 30 28  2  0  0  0  0
 30 27  1  0  0  0  0
 32 31  1  0  0  0  0
 33 36  1  0  0  0  0
 34 38  1  6  0  0  0
 34 35  1  0  0  0  0
 34 37  1  0  0  0  0
 35 33  1  0  0  0  0
 37 32  1  1  0  0  0
 37 36  1  0  0  0  0
 38 39  1  6  0  0  0
 40 38  1  0  0  0  0
 41 40  1  0  0  0  0
M  END
>  <MODEL>
8

>  <REMARK>
 VINA RESULT:      -6.1      3.808     11.065
  Name = 
  15 active torsions:
  status: ('A' for Active; 'I' for Inactive)
    1  A    between atoms: C_1  and  O_27
    2  A    between atoms: C_1  and  C_28
    3  A    between atoms: N_5  and  O_30
    4  A    between atoms: N_5  and  S_36
    5  A    between atoms: N_6  and  C_11
    6  A    between atoms: C_10  and  C_11
    7  A    between atoms: C_10  and  O_27
    8  A    between atoms: C_16  and  C_38
    9  A    between atoms: C_21  and  N_23
   10  A    between atoms: N_22  and  N_23
   11  A    between atoms: N_22  and  O_30
   12  A    between atoms: C_31  and  C_38
   13  A    between atoms: N_32  and  C_35
   14  A    between atoms: N_32  and  C_37
   15  A    between atoms: C_33  and  C_35
                            x       y       z     vdW  Elec       q    Type
                         _______ _______ _______ _____ _____    ______ ____

>  <TORSDO>
F 15

$$$$
=
 OpenBabel11042414253D

 41 45  0  0  1  0  0  0  0  0999 V2000
  194.5600  176.2560  145.9460 C   0  0  1  0  0  3  0  0  0  0  0  0
  190.0720  174.6350  146.4210 C   0  0  0  0  0  3  0  0  0  0  0  0
  195.2460  176.8330  144.7450 C   0  0  0  0  0  3  0  0  0  0  0  0
  196.0740  176.0830  144.0130 C   0  0  0  0  0  3  0  0  0  0  0  0
  192.3400  175.6250  146.1450 C   0  0  0  0  0  0  0  0  0  0  0  0
  190.3170  176.9540  146.3970 N   0  0  0  0  0  0  0  0  0  0  0  0
  191.0220  175.7270  146.3030 C   0  0  2  0  0  3  0  0  0  0  0  0
  196.2750  174.6410  144.2920 C   0  0  0  0  0  0  0  0  0  0  0  0
  193.1990  176.7520  146.0530 N   0  0  0  0  0  0  0  0  0  0  0  0
  194.4510  174.7990  145.8330 N   0  0  0  0  0  0  0  0  0  0  0  0
  195.4530  174.0120  145.1650 C   0  0  0  0  0  0  0  0  0  0  0  0
  189.0880  176.5770  146.5390 C   0  0  0  0  0  0  0  0  0  0  0  0
  193.0820  174.3480  146.0300 C   0  0  0  0  0  2  0  0  0  0  0  0
  188.9010  175.1590  146.5690 N   0  0  0  0  0  0  0  0  0  0  0  0
  195.5260  172.5540  145.4440 C   0  0  0  0  0  0  0  0  0  0  0  0
  196.4970  172.0590  146.0790 O   0  0  0  0  0  0  0  0  0  0  0  0
  194.5050  171.7260  144.9750 O   0  0  0  0  0  0  0  0  0  0  0  0
  194.1750  171.6350  143.5970 C   0  0  0  0  0  2  0  0  0  0  0  0
  192.7980  171.0170  143.4440 C   0  0  0  0  0  2  0  0  0  0  0  0
  191.8310  172.0420  143.0900 N   0  0  0  0  0  0  0  0  0  0  0  0
  190.5950  171.3400  142.7150 C   0  0  0  0  0  2  0  0  0  0  0  0
  190.7200  171.9210  144.0450 C   0  0  0  0  0  2  0  0  0  0  0  0
  197.3040  173.9320  143.5950 N   0  0  0  0  0  2  0  0  0  0  0  0
  197.0610  173.3180  142.3580 N   0  0  0  0  0  2  0  0  0  0  0  0
  197.1100  174.2940  141.4210 O   0  0  0  0  0  0  0  0  0  0  0  0
  196.2150  173.9080  140.4820 N   0  0  0  0  0  2  0  0  0  0  0  0
  193.6550  174.7030  141.4760 C   0  0  0  0  0  1  0  0  0  0  0  0
  195.5810  176.4540  140.8370 O   0  0  0  0  0  0  0  0  0  0  0  0
  194.4950  175.2550  138.9910 O   0  0  0  0  0  0  0  0  0  0  0  0
  195.0010  175.1380  140.4000 S   0  0  0  0  0  0  0  0  0  0  0  0
  187.9730  177.5430  146.7270 C   0  0  0  0  0  2  0  0  0  0  0  0
  187.3210  177.7870  145.4520 N   0  0  0  0  0  2  0  0  0  0  0  0
  184.2760  178.6370  146.1190 C   0  0  0  0  0  2  0  0  0  0  0  0
  185.1260  177.5680  144.3600 C   0  0  2  0  0  3  0  0  0  0  0  0
  184.4790  178.7520  144.7330 O   0  0  0  0  0  0  0  0  0  0  0  0
  185.2750  177.6490  146.6970 C   0  0  0  0  0  2  0  0  0  0  0  0
  186.0240  177.1290  145.5080 C   0  0  2  0  0  3  0  0  0  0  0  0
  185.7750  177.6940  142.9730 C   0  0  1  0  0  3  0  0  0  0  0  0
  186.2670  176.4630  142.5310 O   0  0  0  0  0  1  0  0  0  0  0  0
  184.8240  178.2770  141.9360 C   0  0  0  0  0  2  0  0  0  0  0  0
  185.4120  178.1470  140.5430 C   0  0  0  0  0  1  0  0  0  0  0  0
  1  3  1  6  0  0  0
  1  9  1  0  0  0  0
  2 14  2  0  0  0  0
  4  8  1  0  0  0  0
  4  3  2  0  0  0  0
  6 12  2  0  0  0  0
  7  5  1  1  0  0  0
  7  6  1  0  0  0  0
  7  2  1  0  0  0  0
  8 11  2  0  0  0  0
  9  5  2  0  0  0  0
 10  1  1  0  0  0  0
 10 13  1  0  0  0  0
 11 15  1  0  0  0  0
 11 10  1  0  0  0  0
 12 14  1  0  0  0  0
 12 31  1  0  0  0  0
 13  5  1  0  0  0  0
 15 16  2  0  0  0  0
 17 15  1  0  0  0  0
 18 17  1  0  0  0  0
 19 18  1  0  0  0  0
 20 19  1  0  0  0  0
 20 22  1  0  0  0  0
 21 20  1  0  0  0  0
 21 22  1  0  0  0  0
 23  8  1  0  0  0  0
 24 23  1  0  0  0  0
 25 24  1  0  0  0  0
 26 25  1  0  0  0  0
 29 30  2  0  0  0  0
 30 26  1  0  0  0  0
 30 28  2  0  0  0  0
 30 27  1  0  0  0  0
 32 31  1  0  0  0  0
 33 36  1  0  0  0  0
 34 38  1  6  0  0  0
 34 35  1  0  0  0  0
 34 37  1  0  0  0  0
 35 33  1  0  0  0  0
 37 32  1  6  0  0  0
 37 36  1  0  0  0  0
 38 39  1  6  0  0  0
 40 38  1  0  0  0  0
 41 40  1  0  0  0  0
M  END
>  <MODEL>
9

>  <REMARK>
 VINA RESULT:      -6.1      3.759     10.723
  Name = 
  15 active torsions:
  status: ('A' for Active; 'I' for Inactive)
    1  A    between atoms: C_1  and  O_27
    2  A    between atoms: C_1  and  C_28
    3  A    between atoms: N_5  and  O_30
    4  A    between atoms: N_5  and  S_36
    5  A    between atoms: N_6  and  C_11
    6  A    between atoms: C_10  and  C_11
    7  A    between atoms: C_10  and  O_27
    8  A    between atoms: C_16  and  C_38
    9  A    between atoms: C_21  and  N_23
   10  A    between atoms: N_22  and  N_23
   11  A    between atoms: N_22  and  O_30
   12  A    between atoms: C_31  and  C_38
   13  A    between atoms: N_32  and  C_35
   14  A    between atoms: N_32  and  C_37
   15  A    between atoms: C_33  and  C_35
                            x       y       z     vdW  Elec       q    Type
                         _______ _______ _______ _____ _____    ______ ____

>  <TORSDO>
F 15

$$$$
