=
 OpenBabel11042418053D

 45 49  0  0  1  0  0  0  0  0999 V2000
  192.2710  176.5540  142.6780 C   0  0  0  0  0  2  0  0  0  0  0  0
  191.6360  177.5830  143.6000 C   0  0  0  0  0  2  0  0  0  0  0  0
  191.6760  176.1200  144.0010 C   0  0  0  0  0  0  0  0  0  0  0  0
  190.4610  175.3330  143.8050 N   0  0  0  0  0  2  0  0  0  0  0  0
  189.8310  175.7260  142.5510 C   0  0  0  0  0  2  0  0  0  0  0  0
  188.4870  175.0400  142.3860 C   0  0  1  0  0  3  0  0  0  0  0  0
  187.3100  176.7220  141.0650 N   0  0  0  0  0  0  0  0  0  0  0  0
  185.4750  177.2390  142.4610 N   0  0  0  0  0  0  0  0  0  0  0  0
  186.3220  176.2720  143.0180 N   0  0  0  0  0  2  0  0  0  0  0  0
  187.4040  176.0470  142.1450 C   0  0  0  0  0  0  0  0  0  0  0  0
  186.0910  177.5220  141.1570 C   0  0  0  0  0  2  0  0  0  0  0  0
  185.6180  178.3950  143.2320 N   0  0  0  0  0  2  0  0  0  0  0  0
  185.5800  179.2180  145.5060 C   0  0  0  0  0  2  0  0  0  0  0  0
  184.1630  178.8740  145.1030 C   0  0  0  0  0  2  0  0  0  0  0  0
  185.3150  178.0310  144.6040 C   0  0  0  0  0  3  0  0  0  0  0  0
  188.5770  173.8450  141.0130 S   0  0  0  0  0  0  0  0  0  0  0  0
  188.6050  172.0020  142.8780 O   0  0  0  0  0  0  0  0  0  0  0  0
  189.2900  172.5560  142.0350 C   0  0  0  0  0  0  0  0  0  0  0  0
  190.7240  172.1670  141.8470 C   0  0  0  0  0  2  0  0  0  0  0  0
  192.1930  170.6690  140.7190 F   0  0  0  0  0  0  0  0  0  0  0  0
  190.4400  169.7990  141.8480 F   0  0  0  0  0  0  0  0  0  0  0  0
  190.0950  170.9230  139.9240 F   0  0  0  0  0  0  0  0  0  0  0  0
  190.8680  170.8620  141.0740 C   0  0  0  0  0  0  0  0  0  0  0  0
  192.7320  175.6460  145.0010 C   0  0  2  0  0  3  0  0  0  0  0  0
  192.7480  174.1270  145.1970 C   0  0  0  0  0  2  0  0  0  0  0  0
  194.0790  173.5450  144.7460 C   0  0  1  0  0  3  0  0  0  0  0  0
  195.9680  172.2420  145.5830 C   0  0  0  0  0  2  0  0  0  0  0  0
  196.3700  171.4260  144.4500 N   0  0  0  0  0  0  0  0  0  0  0  0
  194.4620  172.3770  145.6350 C   0  0  0  0  0  2  0  0  0  0  0  0
  196.9770  171.4700  142.1990 O   0  0  0  0  0  0  0  0  0  0  0  0
  196.1400  171.8100  143.0790 C   0  0  0  0  0  0  0  0  0  0  0  0
  193.9880  173.1500  143.3080 C   0  0  0  0  0  3  0  0  0  0  0  0
  194.8930  172.4530  142.6120 C   0  0  0  0  0  3  0  0  0  0  0  0
  197.0490  169.8010  146.1480 C   0  0  0  0  0  1  0  0  0  0  0  0
  197.2870  170.3320  144.7470 C   0  0  0  0  0  2  0  0  0  0  0  0
  192.7920  176.4870  146.2920 C   0  0  2  0  0  3  0  0  0  0  0  0
  194.7230  177.4230  145.7530 C   0  0  0  0  0  1  0  0  0  0  0  0
  194.1220  176.5900  146.6970 O   0  0  0  0  0  0  0  0  0  0  0  0
  191.9790  175.9140  147.4520 C   0  0  0  0  0  2  0  0  0  0  0  0
  188.2940  175.1360  147.2090 C   0  0  0  0  0  3  0  0  0  0  0  0
  190.5150  176.0730  147.2450 C   0  0  0  0  0  0  0  0  0  0  0  0
  187.7850  176.3710  146.9560 N   0  0  0  0  0  0  0  0  0  0  0  0
  189.9710  177.3360  146.9970 C   0  0  0  0  0  3  0  0  0  0  0  0
  188.5880  177.4640  146.8460 C   0  0  0  0  0  3  0  0  0  0  0  0
  189.6720  174.9660  147.3620 C   0  0  0  0  0  3  0  0  0  0  0  0
  1  2  1  0  0  0  0
  1  3  1  0  0  0  0
  2  3  1  0  0  0  0
  3 24  1  0  0  0  0
  4  3  1  0  0  0  0
  5  4  1  0  0  0  0
  6  5  1  6  0  0  0
  7 11  1  0  0  0  0
  7 10  2  0  0  0  0
  8  9  1  0  0  0  0
  8 12  1  0  0  0  0
 10  6  1  0  0  0  0
 10  9  1  0  0  0  0
 11  8  1  0  0  0  0
 12 15  1  0  0  0  0
 14 13  1  0  0  0  0
 15 14  1  0  0  0  0
 15 13  1  0  0  0  0
 16 18  1  0  0  0  0
 16  6  1  0  0  0  0
 18 17  2  0  0  0  0
 19 18  1  0  0  0  0
 20 23  1  0  0  0  0
 22 23  1  0  0  0  0
 23 19  1  0  0  0  0
 23 21  1  0  0  0  0
 24 25  1  1  0  0  0
 24 36  1  0  0  0  0
 26 25  1  1  0  0  0
 26 29  1  0  0  0  0
 27 29  1  0  0  0  0
 28 35  1  0  0  0  0
 28 27  1  0  0  0  0
 30 31  2  0  0  0  0
 31 28  1  0  0  0  0
 32 26  1  0  0  0  0
 33 31  1  0  0  0  0
 33 32  2  0  0  0  0
 35 34  1  0  0  0  0
 36 38  1  0  0  0  0
 36 39  1  1  0  0  0
 37 38  1  0  0  0  0
 40 45  1  0  0  0  0
 41 45  2  0  0  0  0
 41 39  1  0  0  0  0
 42 40  2  0  0  0  0
 43 41  1  0  0  0  0
 44 42  1  0  0  0  0
 44 43  2  0  0  0  0
M  END
>  <MODEL>
1

>  <REMARK>
 VINA RESULT:      -6.4      0.000      0.000
  Name = 
  18 active torsions:
  status: ('A' for Active; 'I' for Inactive)
    1  A    between atoms: C_1  and  C_22
    2  A    between atoms: C_1  and  C_29
    3  A    between atoms: C_1  and  C_43
    4  A    between atoms: N_3  and  C_22
    5  A    between atoms: N_3  and  C_42
    6  A    between atoms: C_6  and  C_21
    7  A    between atoms: C_6  and  C_43
    8  A    between atoms: C_12  and  C_29
    9  A    between atoms: S_14  and  C_36
   10  A    between atoms: S_14  and  C_41
   11  A    between atoms: N_16  and  N_31
   12  A    between atoms: C_18  and  C_28
   13  A    between atoms: N_19  and  C_40
   14  A    between atoms: C_27  and  C_41
   15  A    between atoms: C_28  and  C_36
   16  A    between atoms: N_31  and  C_44
   17  A    between atoms: O_37  and  C_43
   18  A    between atoms: C_41  and  C_42
                            x       y       z     vdW  Elec       q    Type
                         _______ _______ _______ _____ _____    ______ ____

>  <TORSDO>
F 18

$$$$
=
 OpenBabel11042418053D

 45 49  0  0  1  0  0  0  0  0999 V2000
  190.6290  174.5810  143.3100 C   0  0  0  0  0  2  0  0  0  0  0  0
  189.6480  173.6760  144.0400 C   0  0  0  0  0  2  0  0  0  0  0  0
  190.9050  174.1610  144.7380 C   0  0  0  0  0  0  0  0  0  0  0  0
  192.0350  173.2370  144.8110 N   0  0  0  0  0  2  0  0  0  0  0  0
  192.7780  173.2880  143.5590 C   0  0  0  0  0  2  0  0  0  0  0  0
  192.9930  171.8910  143.0040 C   0  0  1  0  0  3  0  0  0  0  0  0
  193.3000  171.6290  140.5960 N   0  0  0  0  0  0  0  0  0  0  0  0
  191.0690  171.6430  139.8190 N   0  0  0  0  0  0  0  0  0  0  0  0
  191.1560  171.7860  141.2100 N   0  0  0  0  0  2  0  0  0  0  0  0
  192.5130  171.8040  141.5880 C   0  0  0  0  0  0  0  0  0  0  0  0
  192.4710  171.5030  139.4000 C   0  0  0  0  0  2  0  0  0  0  0  0
  190.6200  172.8660  139.3140 N   0  0  0  0  0  2  0  0  0  0  0  0
  188.5650  174.1350  139.1850 C   0  0  0  0  0  2  0  0  0  0  0  0
  188.2100  172.6660  139.2730 C   0  0  0  0  0  2  0  0  0  0  0  0
  189.4040  173.2020  140.0320 C   0  0  0  0  0  3  0  0  0  0  0  0
  194.7590  171.4550  143.1180 S   0  0  0  0  0  0  0  0  0  0  0  0
  193.9810  169.2780  144.3560 O   0  0  0  0  0  0  0  0  0  0  0  0
  194.5130  170.3630  144.5190 C   0  0  0  0  0  0  0  0  0  0  0  0
  194.9620  170.7910  145.8820 C   0  0  0  0  0  2  0  0  0  0  0  0
  196.5950  169.8560  147.3420 F   0  0  0  0  0  0  0  0  0  0  0  0
  196.9260  169.6780  145.1140 F   0  0  0  0  0  0  0  0  0  0  0  0
  197.1510  171.6780  146.1310 F   0  0  0  0  0  0  0  0  0  0  0  0
  196.4360  170.4900  146.1210 C   0  0  0  0  0  0  0  0  0  0  0  0
  190.8110  175.3220  145.7290 C   0  0  2  0  0  3  0  0  0  0  0  0
  190.5520  176.6750  145.0590 C   0  0  0  0  0  2  0  0  0  0  0  0
  189.1540  177.1760  145.3920 C   0  0  1  0  0  3  0  0  0  0  0  0
  187.2520  178.3230  144.3760 C   0  0  0  0  0  2  0  0  0  0  0  0
  186.0900  177.7080  144.9950 N   0  0  0  0  0  0  0  0  0  0  0  0
  188.3300  177.2940  144.1230 C   0  0  0  0  0  2  0  0  0  0  0  0
  185.0900  177.1580  147.0280 O   0  0  0  0  0  0  0  0  0  0  0  0
  186.1210  177.1020  146.3030 C   0  0  0  0  0  0  0  0  0  0  0  0
  188.5220  176.2610  146.3890 C   0  0  0  0  0  3  0  0  0  0  0  0
  187.2460  176.2760  146.7910 C   0  0  0  0  0  3  0  0  0  0  0  0
  184.6520  179.4770  144.1080 C   0  0  0  0  0  1  0  0  0  0  0  0
  184.8070  177.9900  144.3610 C   0  0  0  0  0  2  0  0  0  0  0  0
  191.9090  175.3130  146.8110 C   0  0  2  0  0  3  0  0  0  0  0  0
  191.4970  176.7730  148.4210 C   0  0  0  0  0  1  0  0  0  0  0  0
  191.3070  175.4380  148.0620 O   0  0  0  0  0  0  0  0  0  0  0  0
  192.9460  176.4250  146.6620 C   0  0  0  0  0  2  0  0  0  0  0  0
  195.9920  174.6190  145.3560 C   0  0  0  0  0  3  0  0  0  0  0  0
  194.0800  176.0230  145.7880 C   0  0  0  0  0  0  0  0  0  0  0  0
  196.1360  175.2020  144.1370 N   0  0  0  0  0  0  0  0  0  0  0  0
  194.2370  176.6010  144.5250 C   0  0  0  0  0  3  0  0  0  0  0  0
  195.2880  176.1770  143.7080 C   0  0  0  0  0  3  0  0  0  0  0  0
  194.9570  175.0180  146.2040 C   0  0  0  0  0  3  0  0  0  0  0  0
  1  2  1  0  0  0  0
  1  3  1  0  0  0  0
  2  3  1  0  0  0  0
  3  4  1  0  0  0  0
  3 24  1  0  0  0  0
  5  4  1  0  0  0  0
  6 16  1  0  0  0  0
  6  5  1  6  0  0  0
  7 10  2  0  0  0  0
  8  9  1  0  0  0  0
  9 10  1  0  0  0  0
 10  6  1  0  0  0  0
 11  8  1  0  0  0  0
 11  7  1  0  0  0  0
 12  8  1  0  0  0  0
 12 15  1  0  0  0  0
 13 14  1  0  0  0  0
 13 15  1  0  0  0  0
 14 15  1  0  0  0  0
 16 18  1  0  0  0  0
 17 18  2  0  0  0  0
 18 19  1  0  0  0  0
 19 23  1  0  0  0  0
 21 23  1  0  0  0  0
 23 22  1  0  0  0  0
 23 20  1  0  0  0  0
 24 25  1  6  0  0  0
 24 36  1  0  0  0  0
 26 25  1  6  0  0  0
 26 32  1  0  0  0  0
 27 28  1  0  0  0  0
 28 31  1  0  0  0  0
 29 27  1  0  0  0  0
 29 26  1  0  0  0  0
 31 33  1  0  0  0  0
 31 30  2  0  0  0  0
 32 33  2  0  0  0  0
 34 35  1  0  0  0  0
 35 28  1  0  0  0  0
 36 39  1  6  0  0  0
 36 38  1  0  0  0  0
 38 37  1  0  0  0  0
 40 45  1  0  0  0  0
 41 45  2  0  0  0  0
 41 39  1  0  0  0  0
 42 40  2  0  0  0  0
 43 41  1  0  0  0  0
 44 42  1  0  0  0  0
 44 43  2  0  0  0  0
M  END
>  <MODEL>
2

>  <REMARK>
 VINA RESULT:      -6.3      3.441      7.784
  Name = 
  18 active torsions:
  status: ('A' for Active; 'I' for Inactive)
    1  A    between atoms: C_1  and  C_22
    2  A    between atoms: C_1  and  C_29
    3  A    between atoms: C_1  and  C_43
    4  A    between atoms: N_3  and  C_22
    5  A    between atoms: N_3  and  C_42
    6  A    between atoms: C_6  and  C_21
    7  A    between atoms: C_6  and  C_43
    8  A    between atoms: C_12  and  C_29
    9  A    between atoms: S_14  and  C_36
   10  A    between atoms: S_14  and  C_41
   11  A    between atoms: N_16  and  N_31
   12  A    between atoms: C_18  and  C_28
   13  A    between atoms: N_19  and  C_40
   14  A    between atoms: C_27  and  C_41
   15  A    between atoms: C_28  and  C_36
   16  A    between atoms: N_31  and  C_44
   17  A    between atoms: O_37  and  C_43
   18  A    between atoms: C_41  and  C_42
                            x       y       z     vdW  Elec       q    Type
                         _______ _______ _______ _____ _____    ______ ____

>  <TORSDO>
F 18

$$$$
=
 OpenBabel11042418053D

 45 49  0  0  1  0  0  0  0  0999 V2000
  191.8850  175.1200  146.9680 C   0  0  0  0  0  2  0  0  0  0  0  0
  191.5180  176.4630  147.5800 C   0  0  0  0  0  2  0  0  0  0  0  0
  191.8190  176.3570  146.0970 C   0  0  0  0  0  0  0  0  0  0  0  0
  193.1490  176.7620  145.6470 N   0  0  0  0  0  2  0  0  0  0  0  0
  194.1530  175.9540  146.3270 C   0  0  0  0  0  2  0  0  0  0  0  0
  195.2620  175.5560  145.3700 C   0  0  1  0  0  3  0  0  0  0  0  0
  196.7460  173.6540  145.7430 N   0  0  0  0  0  0  0  0  0  0  0  0
  195.2350  171.8390  145.6710 N   0  0  0  0  0  0  0  0  0  0  0  0
  194.6040  173.0750  145.4740 N   0  0  0  0  0  2  0  0  0  0  0  0
  195.5730  174.0970  145.4960 C   0  0  0  0  0  0  0  0  0  0  0  0
  196.6430  172.2040  145.8850 C   0  0  0  0  0  2  0  0  0  0  0  0
  195.1780  171.1580  144.4530 N   0  0  0  0  0  2  0  0  0  0  0  0
  193.1260  170.4520  143.3830 C   0  0  0  0  0  2  0  0  0  0  0  0
  194.1030  169.2970  143.3420 C   0  0  0  0  0  2  0  0  0  0  0  0
  194.0730  170.2200  144.5410 C   0  0  0  0  0  3  0  0  0  0  0  0
  194.7730  175.9700  143.6640 S   0  0  0  0  0  0  0  0  0  0  0  0
  197.0250  177.3040  143.5110 O   0  0  0  0  0  0  0  0  0  0  0  0
  196.4570  176.2910  143.1400 C   0  0  0  0  0  0  0  0  0  0  0  0
  197.1570  175.3120  142.2490 C   0  0  0  0  0  2  0  0  0  0  0  0
  195.9790  176.5570  140.5950 F   0  0  0  0  0  0  0  0  0  0  0  0
  197.6720  175.2210  139.9230 F   0  0  0  0  0  0  0  0  0  0  0  0
  195.7330  174.3140  140.6320 F   0  0  0  0  0  0  0  0  0  0  0  0
  196.6290  175.3550  140.8210 C   0  0  0  0  0  0  0  0  0  0  0  0
  190.6610  176.3210  145.0980 C   0  0  2  0  0  3  0  0  0  0  0  0
  189.3950  175.6640  145.6580 C   0  0  0  0  0  2  0  0  0  0  0  0
  188.2680  176.6820  145.7610 C   0  0  1  0  0  3  0  0  0  0  0  0
  186.7730  178.0150  144.3630 C   0  0  0  0  0  2  0  0  0  0  0  0
  185.5260  178.0540  145.1070 N   0  0  0  0  0  0  0  0  0  0  0  0
  187.4320  176.6600  144.4950 C   0  0  0  0  0  2  0  0  0  0  0  0
  184.5630  178.5450  147.1720 O   0  0  0  0  0  0  0  0  0  0  0  0
  185.4580  177.9200  146.5410 C   0  0  0  0  0  0  0  0  0  0  0  0
  187.4510  176.3980  146.9790 C   0  0  0  0  0  3  0  0  0  0  0  0
  186.2860  176.9660  147.3100 C   0  0  0  0  0  3  0  0  0  0  0  0
  184.3960  178.0410  142.9370 C   0  0  0  0  0  1  0  0  0  0  0  0
  184.3610  178.5320  144.3720 C   0  0  0  0  0  2  0  0  0  0  0  0
  191.0710  175.8790  143.6800 C   0  0  2  0  0  3  0  0  0  0  0  0
  190.7170  177.9810  143.0890 C   0  0  0  0  0  1  0  0  0  0  0  0
  190.3930  176.6670  142.7510 O   0  0  0  0  0  0  0  0  0  0  0  0
  190.7770  174.4120  143.3710 C   0  0  0  0  0  2  0  0  0  0  0  0
  190.1750  173.4790  139.7630 C   0  0  0  0  0  3  0  0  0  0  0  0
  191.0170  174.0790  141.9410 C   0  0  0  0  0  0  0  0  0  0  0  0
  191.4370  173.5500  139.2640 N   0  0  0  0  0  0  0  0  0  0  0  0
  192.3050  174.1590  141.4050 C   0  0  0  0  0  3  0  0  0  0  0  0
  192.4980  173.8800  140.0500 C   0  0  0  0  0  3  0  0  0  0  0  0
  189.9420  173.7460  141.1140 C   0  0  0  0  0  3  0  0  0  0  0  0
  1  2  1  0  0  0  0
  3  1  1  0  0  0  0
  3  2  1  0  0  0  0
  4  3  1  0  0  0  0
  4  5  1  0  0  0  0
  6 10  1  0  0  0  0
  6  5  1  1  0  0  0
  7 11  1  0  0  0  0
  8 11  1  0  0  0  0
  9 10  1  0  0  0  0
  9  8  1  0  0  0  0
 10  7  2  0  0  0  0
 12 15  1  0  0  0  0
 12  8  1  0  0  0  0
 13 15  1  0  0  0  0
 14 13  1  0  0  0  0
 14 15  1  0  0  0  0
 16  6  1  0  0  0  0
 18 17  2  0  0  0  0
 18 16  1  0  0  0  0
 19 18  1  0  0  0  0
 20 23  1  0  0  0  0
 21 23  1  0  0  0  0
 22 23  1  0  0  0  0
 23 19  1  0  0  0  0
 24 25  1  1  0  0  0
 24  3  1  0  0  0  0
 26 25  1  6  0  0  0
 26 32  1  0  0  0  0
 27 29  1  0  0  0  0
 27 28  1  0  0  0  0
 28 31  1  0  0  0  0
 29 26  1  0  0  0  0
 31 30  2  0  0  0  0
 31 33  1  0  0  0  0
 32 33  2  0  0  0  0
 34 35  1  0  0  0  0
 35 28  1  0  0  0  0
 36 39  1  6  0  0  0
 36 24  1  0  0  0  0
 38 37  1  0  0  0  0
 38 36  1  0  0  0  0
 40 45  1  0  0  0  0
 41 39  1  0  0  0  0
 42 40  2  0  0  0  0
 42 44  1  0  0  0  0
 43 41  1  0  0  0  0
 44 43  2  0  0  0  0
 45 41  2  0  0  0  0
M  END
>  <MODEL>
3

>  <REMARK>
 VINA RESULT:      -6.2      3.324      9.095
  Name = 
  18 active torsions:
  status: ('A' for Active; 'I' for Inactive)
    1  A    between atoms: C_1  and  C_22
    2  A    between atoms: C_1  and  C_29
    3  A    between atoms: C_1  and  C_43
    4  A    between atoms: N_3  and  C_22
    5  A    between atoms: N_3  and  C_42
    6  A    between atoms: C_6  and  C_21
    7  A    between atoms: C_6  and  C_43
    8  A    between atoms: C_12  and  C_29
    9  A    between atoms: S_14  and  C_36
   10  A    between atoms: S_14  and  C_41
   11  A    between atoms: N_16  and  N_31
   12  A    between atoms: C_18  and  C_28
   13  A    between atoms: N_19  and  C_40
   14  A    between atoms: C_27  and  C_41
   15  A    between atoms: C_28  and  C_36
   16  A    between atoms: N_31  and  C_44
   17  A    between atoms: O_37  and  C_43
   18  A    between atoms: C_41  and  C_42
                            x       y       z     vdW  Elec       q    Type
                         _______ _______ _______ _____ _____    ______ ____

>  <TORSDO>
F 18

$$$$
=
 OpenBabel11042418053D

 45 49  0  0  1  0  0  0  0  0999 V2000
  189.8460  174.1470  141.5970 C   0  0  0  0  0  2  0  0  0  0  0  0
  188.7340  173.1500  141.8850 C   0  0  0  0  0  2  0  0  0  0  0  0
  189.7270  173.5230  142.9710 C   0  0  0  0  0  0  0  0  0  0  0  0
  190.8240  172.5940  143.2300 N   0  0  0  0  0  2  0  0  0  0  0  0
  190.5610  171.3360  142.5430 C   0  0  0  0  0  2  0  0  0  0  0  0
  191.8100  170.8360  141.8380 C   0  0  1  0  0  3  0  0  0  0  0  0
  192.2430  169.7130  139.7140 N   0  0  0  0  0  0  0  0  0  0  0  0
  190.3690  170.3620  138.4310 N   0  0  0  0  0  0  0  0  0  0  0  0
  190.3490  170.8990  139.7250 N   0  0  0  0  0  2  0  0  0  0  0  0
  191.5110  170.4960  140.4100 C   0  0  0  0  0  0  0  0  0  0  0  0
  191.5930  169.5480  138.4170 C   0  0  0  0  0  2  0  0  0  0  0  0
  190.5860  171.4280  137.5550 N   0  0  0  0  0  2  0  0  0  0  0  0
  190.4960  173.8450  137.4840 C   0  0  0  0  0  2  0  0  0  0  0  0
  189.1430  173.3080  137.0700 C   0  0  0  0  0  2  0  0  0  0  0  0
  189.9450  172.5940  138.1360 C   0  0  0  0  0  3  0  0  0  0  0  0
  193.1170  172.1020  141.9430 S   0  0  0  0  0  0  0  0  0  0  0  0
  193.9500  169.9380  143.1700 O   0  0  0  0  0  0  0  0  0  0  0  0
  194.1030  171.1460  143.0960 C   0  0  0  0  0  0  0  0  0  0  0  0
  195.1120  171.8370  143.9610 C   0  0  0  0  0  2  0  0  0  0  0  0
  195.4740  172.8800  146.0710 F   0  0  0  0  0  0  0  0  0  0  0  0
  193.3490  172.6700  145.3320 F   0  0  0  0  0  0  0  0  0  0  0  0
  194.4860  170.8510  146.0280 F   0  0  0  0  0  0  0  0  0  0  0  0
  194.5940  172.0690  145.3740 C   0  0  0  0  0  0  0  0  0  0  0  0
  189.3160  174.5280  144.0480 C   0  0  2  0  0  3  0  0  0  0  0  0
  189.0560  175.9350  143.5010 C   0  0  0  0  0  2  0  0  0  0  0  0
  187.5830  176.2940  143.6290 C   0  0  1  0  0  3  0  0  0  0  0  0
  185.9560  177.1020  145.2620 C   0  0  0  0  0  2  0  0  0  0  0  0
  185.0610  177.9460  144.4880 N   0  0  0  0  0  0  0  0  0  0  0  0
  187.3830  177.2570  144.7840 C   0  0  0  0  0  2  0  0  0  0  0  0
  183.6990  178.0390  142.5980 O   0  0  0  0  0  0  0  0  0  0  0  0
  184.8360  177.7710  143.0750 C   0  0  0  0  0  0  0  0  0  0  0  0
  187.0940  176.8580  142.3350 C   0  0  0  0  0  3  0  0  0  0  0  0
  185.9100  177.4400  142.1140 C   0  0  0  0  0  3  0  0  0  0  0  0
  184.1720  178.3970  146.7220 C   0  0  0  0  0  1  0  0  0  0  0  0
  184.1660  178.8000  145.2600 C   0  0  0  0  0  2  0  0  0  0  0  0
  190.1700  174.4570  145.3290 C   0  0  2  0  0  3  0  0  0  0  0  0
  189.2730  175.0940  147.2490 C   0  0  0  0  0  1  0  0  0  0  0  0
  189.3680  174.0090  146.3780 O   0  0  0  0  0  0  0  0  0  0  0  0
  190.7980  175.7880  145.7390 C   0  0  0  0  0  2  0  0  0  0  0  0
  194.1570  175.8030  144.0170 C   0  0  0  0  0  3  0  0  0  0  0  0
  192.2680  175.8080  145.5160 C   0  0  0  0  0  0  0  0  0  0  0  0
  194.9920  175.9370  145.0810 N   0  0  0  0  0  0  0  0  0  0  0  0
  193.1440  175.9580  146.5950 C   0  0  0  0  0  3  0  0  0  0  0  0
  194.5180  176.0140  146.3540 C   0  0  0  0  0  3  0  0  0  0  0  0
  192.7760  175.7390  144.2160 C   0  0  0  0  0  3  0  0  0  0  0  0
  1  2  1  0  0  0  0
  1  3  1  0  0  0  0
  2  3  1  0  0  0  0
  3  4  1  0  0  0  0
  3 24  1  0  0  0  0
  5  4  1  0  0  0  0
  6 16  1  0  0  0  0
  6  5  1  6  0  0  0
  7 10  2  0  0  0  0
  8  9  1  0  0  0  0
  9 10  1  0  0  0  0
 10  6  1  0  0  0  0
 11  8  1  0  0  0  0
 11  7  1  0  0  0  0
 12 15  1  0  0  0  0
 12  8  1  0  0  0  0
 13 15  1  0  0  0  0
 14 13  1  0  0  0  0
 14 15  1  0  0  0  0
 16 18  1  0  0  0  0
 18 17  2  0  0  0  0
 18 19  1  0  0  0  0
 19 23  1  0  0  0  0
 21 23  1  0  0  0  0
 23 22  1  0  0  0  0
 23 20  1  0  0  0  0
 24 25  1  6  0  0  0
 24 36  1  0  0  0  0
 26 25  1  6  0  0  0
 26 29  1  0  0  0  0
 28 35  1  0  0  0  0
 28 27  1  0  0  0  0
 29 27  1  0  0  0  0
 30 31  2  0  0  0  0
 31 28  1  0  0  0  0
 32 26  1  0  0  0  0
 33 32  2  0  0  0  0
 33 31  1  0  0  0  0
 35 34  1  0  0  0  0
 36 39  1  1  0  0  0
 36 38  1  0  0  0  0
 38 37  1  0  0  0  0
 40 45  2  0  0  0  0
 40 42  1  0  0  0  0
 41 39  1  0  0  0  0
 41 43  2  0  0  0  0
 42 44  2  0  0  0  0
 44 43  1  0  0  0  0
 45 41  1  0  0  0  0
M  END
>  <MODEL>
4

>  <REMARK>
 VINA RESULT:      -6.2      3.506      8.081
  Name = 
  18 active torsions:
  status: ('A' for Active; 'I' for Inactive)
    1  A    between atoms: C_1  and  C_22
    2  A    between atoms: C_1  and  C_29
    3  A    between atoms: C_1  and  C_43
    4  A    between atoms: N_3  and  C_22
    5  A    between atoms: N_3  and  C_42
    6  A    between atoms: C_6  and  C_21
    7  A    between atoms: C_6  and  C_43
    8  A    between atoms: C_12  and  C_29
    9  A    between atoms: S_14  and  C_36
   10  A    between atoms: S_14  and  C_41
   11  A    between atoms: N_16  and  N_31
   12  A    between atoms: C_18  and  C_28
   13  A    between atoms: N_19  and  C_40
   14  A    between atoms: C_27  and  C_41
   15  A    between atoms: C_28  and  C_36
   16  A    between atoms: N_31  and  C_44
   17  A    between atoms: O_37  and  C_43
   18  A    between atoms: C_41  and  C_42
                            x       y       z     vdW  Elec       q    Type
                         _______ _______ _______ _____ _____    ______ ____

>  <TORSDO>
F 18

$$$$
=
 OpenBabel11042418053D

 45 49  0  0  1  0  0  0  0  0999 V2000
  188.4490  173.8750  141.8300 C   0  0  0  0  0  2  0  0  0  0  0  0
  189.2240  172.7710  142.5320 C   0  0  0  0  0  2  0  0  0  0  0  0
  189.6740  174.2150  142.6520 C   0  0  0  0  0  0  0  0  0  0  0  0
  190.7800  174.6510  141.8030 N   0  0  0  0  0  2  0  0  0  0  0  0
  191.5210  173.4840  141.3440 C   0  0  0  0  0  2  0  0  0  0  0  0
  192.9770  173.5690  141.7680 C   0  0  1  0  0  3  0  0  0  0  0  0
  193.8900  173.3530  144.0220 N   0  0  0  0  0  0  0  0  0  0  0  0
  192.9450  171.3080  144.7340 N   0  0  0  0  0  0  0  0  0  0  0  0
  192.5610  171.6550  143.4320 N   0  0  0  0  0  2  0  0  0  0  0  0
  193.1910  172.8620  143.0710 C   0  0  0  0  0  0  0  0  0  0  0  0
  193.7940  172.4330  145.1520 C   0  0  0  0  0  2  0  0  0  0  0  0
  193.7810  170.1930  144.6240 N   0  0  0  0  0  2  0  0  0  0  0  0
  194.8330  168.8020  146.3000 C   0  0  0  0  0  2  0  0  0  0  0  0
  195.9200  169.4250  145.4510 C   0  0  0  0  0  2  0  0  0  0  0  0
  194.6690  170.2120  145.7720 C   0  0  0  0  0  3  0  0  0  0  0  0
  194.0340  172.8590  140.4640 S   0  0  0  0  0  0  0  0  0  0  0  0
  194.6130  174.5640  138.5570 O   0  0  0  0  0  0  0  0  0  0  0  0
  194.4280  174.4600  139.7580 C   0  0  0  0  0  0  0  0  0  0  0  0
  194.5290  175.6600  140.6480 C   0  0  0  0  0  2  0  0  0  0  0  0
  196.8590  175.5100  140.1810 F   0  0  0  0  0  0  0  0  0  0  0  0
  196.1360  177.2140  141.4750 F   0  0  0  0  0  0  0  0  0  0  0  0
  196.1560  175.1110  142.2880 F   0  0  0  0  0  0  0  0  0  0  0  0
  195.9480  175.8820  141.1550 C   0  0  0  0  0  0  0  0  0  0  0  0
  189.3390  175.0010  143.9220 C   0  0  2  0  0  3  0  0  0  0  0  0
  189.0640  176.4860  143.6650 C   0  0  0  0  0  2  0  0  0  0  0  0
  187.5840  176.7920  143.8430 C   0  0  1  0  0  3  0  0  0  0  0  0
  185.8430  176.8370  145.5560 C   0  0  0  0  0  2  0  0  0  0  0  0
  185.0020  177.9620  145.1820 N   0  0  0  0  0  0  0  0  0  0  0  0
  187.2990  177.1480  145.2900 C   0  0  0  0  0  2  0  0  0  0  0  0
  183.7770  178.9230  143.4470 O   0  0  0  0  0  0  0  0  0  0  0  0
  184.8780  178.4390  143.8270 C   0  0  0  0  0  0  0  0  0  0  0  0
  187.1860  177.8860  142.9070 C   0  0  0  0  0  3  0  0  0  0  0  0
  186.0180  178.5390  142.8910 C   0  0  0  0  0  3  0  0  0  0  0  0
  184.7400  178.5810  147.5350 C   0  0  0  0  0  1  0  0  0  0  0  0
  184.0520  178.4100  146.1940 C   0  0  0  0  0  2  0  0  0  0  0  0
  190.2660  174.6900  145.1130 C   0  0  2  0  0  3  0  0  0  0  0  0
  189.2900  174.7110  147.0980 C   0  0  0  0  0  1  0  0  0  0  0  0
  189.5790  173.8800  146.0160 O   0  0  0  0  0  0  0  0  0  0  0  0
  190.7650  175.9270  145.8590 C   0  0  0  0  0  2  0  0  0  0  0  0
  194.4920  175.9860  146.4490 C   0  0  0  0  0  3  0  0  0  0  0  0
  192.2210  176.1550  145.6580 C   0  0  0  0  0  0  0  0  0  0  0  0
  194.9340  176.4870  145.2650 N   0  0  0  0  0  0  0  0  0  0  0  0
  192.6960  176.6570  144.4440 C   0  0  0  0  0  3  0  0  0  0  0  0
  194.0720  176.8250  144.2680 C   0  0  0  0  0  3  0  0  0  0  0  0
  193.1240  175.8070  146.6660 C   0  0  0  0  0  3  0  0  0  0  0  0
  1  2  1  0  0  0  0
  1  3  1  0  0  0  0
  2  3  1  0  0  0  0
  3 24  1  0  0  0  0
  4  3  1  0  0  0  0
  5  4  1  0  0  0  0
  6  5  1  6  0  0  0
  6 10  1  0  0  0  0
  7 11  1  0  0  0  0
  8 11  1  0  0  0  0
  9  8  1  0  0  0  0
 10  9  1  0  0  0  0
 10  7  2  0  0  0  0
 12  8  1  0  0  0  0
 12 15  1  0  0  0  0
 14 15  1  0  0  0  0
 14 13  1  0  0  0  0
 15 13  1  0  0  0  0
 16  6  1  0  0  0  0
 17 18  2  0  0  0  0
 18 16  1  0  0  0  0
 18 19  1  0  0  0  0
 19 23  1  0  0  0  0
 20 23  1  0  0  0  0
 23 21  1  0  0  0  0
 23 22  1  0  0  0  0
 24 25  1  6  0  0  0
 24 36  1  0  0  0  0
 26 25  1  1  0  0  0
 26 29  1  0  0  0  0
 28 27  1  0  0  0  0
 28 35  1  0  0  0  0
 29 27  1  0  0  0  0
 30 31  2  0  0  0  0
 31 28  1  0  0  0  0
 32 26  1  0  0  0  0
 33 32  2  0  0  0  0
 33 31  1  0  0  0  0
 35 34  1  0  0  0  0
 36 39  1  1  0  0  0
 36 38  1  0  0  0  0
 38 37  1  0  0  0  0
 40 45  1  0  0  0  0
 41 39  1  0  0  0  0
 41 45  2  0  0  0  0
 42 40  2  0  0  0  0
 43 41  1  0  0  0  0
 44 43  2  0  0  0  0
 44 42  1  0  0  0  0
M  END
>  <MODEL>
5

>  <REMARK>
 VINA RESULT:      -6.1      3.246      8.611
  Name = 
  18 active torsions:
  status: ('A' for Active; 'I' for Inactive)
    1  A    between atoms: C_1  and  C_22
    2  A    between atoms: C_1  and  C_29
    3  A    between atoms: C_1  and  C_43
    4  A    between atoms: N_3  and  C_22
    5  A    between atoms: N_3  and  C_42
    6  A    between atoms: C_6  and  C_21
    7  A    between atoms: C_6  and  C_43
    8  A    between atoms: C_12  and  C_29
    9  A    between atoms: S_14  and  C_36
   10  A    between atoms: S_14  and  C_41
   11  A    between atoms: N_16  and  N_31
   12  A    between atoms: C_18  and  C_28
   13  A    between atoms: N_19  and  C_40
   14  A    between atoms: C_27  and  C_41
   15  A    between atoms: C_28  and  C_36
   16  A    between atoms: N_31  and  C_44
   17  A    between atoms: O_37  and  C_43
   18  A    between atoms: C_41  and  C_42
                            x       y       z     vdW  Elec       q    Type
                         _______ _______ _______ _____ _____    ______ ____

>  <TORSDO>
F 18

$$$$
=
 OpenBabel11042418053D

 45 49  0  0  1  0  0  0  0  0999 V2000
  189.7930  173.2720  143.7250 C   0  0  0  0  0  2  0  0  0  0  0  0
  189.6940  172.8910  145.1940 C   0  0  0  0  0  2  0  0  0  0  0  0
  190.8540  173.7360  144.7010 C   0  0  0  0  0  0  0  0  0  0  0  0
  192.1270  173.0610  144.4620 N   0  0  0  0  0  2  0  0  0  0  0  0
  191.8730  171.7430  143.8950 C   0  0  0  0  0  2  0  0  0  0  0  0
  192.9870  171.3420  142.9430 C   0  0  1  0  0  3  0  0  0  0  0  0
  193.1790  170.7420  140.5850 N   0  0  0  0  0  0  0  0  0  0  0  0
  190.9120  170.5970  139.9350 N   0  0  0  0  0  0  0  0  0  0  0  0
  191.0650  170.9420  141.2850 N   0  0  0  0  0  2  0  0  0  0  0  0
  192.4380  171.0420  141.5830 C   0  0  0  0  0  0  0  0  0  0  0  0
  192.2940  170.4270  139.4660 C   0  0  0  0  0  2  0  0  0  0  0  0
  190.4040  171.7250  139.2860 N   0  0  0  0  0  2  0  0  0  0  0  0
  189.1820  173.7570  139.7690 C   0  0  0  0  0  2  0  0  0  0  0  0
  188.1870  172.6900  139.3680 C   0  0  0  0  0  2  0  0  0  0  0  0
  189.4140  172.3150  140.1690 C   0  0  0  0  0  3  0  0  0  0  0  0
  194.2280  172.6740  142.8630 S   0  0  0  0  0  0  0  0  0  0  0  0
  196.7100  171.8800  143.1570 O   0  0  0  0  0  0  0  0  0  0  0  0
  195.5550  171.6250  143.4560 C   0  0  0  0  0  0  0  0  0  0  0  0
  195.2380  170.4400  144.3150 C   0  0  0  0  0  2  0  0  0  0  0  0
  196.6040  171.2310  146.0990 F   0  0  0  0  0  0  0  0  0  0  0  0
  194.4010  171.7290  146.1380 F   0  0  0  0  0  0  0  0  0  0  0  0
  195.0870  169.6180  146.5380 F   0  0  0  0  0  0  0  0  0  0  0  0
  195.3340  170.7660  145.8000 C   0  0  0  0  0  0  0  0  0  0  0  0
  190.8300  175.2480  144.9320 C   0  0  2  0  0  3  0  0  0  0  0  0
  190.5300  176.0530  143.6640 C   0  0  0  0  0  2  0  0  0  0  0  0
  189.0990  176.5680  143.6850 C   0  0  1  0  0  3  0  0  0  0  0  0
  187.3080  177.1470  145.2430 C   0  0  0  0  0  2  0  0  0  0  0  0
  186.6420  178.2770  144.6190 N   0  0  0  0  0  0  0  0  0  0  0  0
  188.8030  177.2200  145.0230 C   0  0  0  0  0  2  0  0  0  0  0  0
  185.6300  179.0410  142.6620 O   0  0  0  0  0  0  0  0  0  0  0  0
  186.6400  178.5040  143.1950 C   0  0  0  0  0  0  0  0  0  0  0  0
  188.8900  177.5080  142.5440 C   0  0  0  0  0  3  0  0  0  0  0  0
  187.8220  178.2860  142.3340 C   0  0  0  0  0  3  0  0  0  0  0  0
  185.3720  178.2190  146.7090 C   0  0  0  0  0  1  0  0  0  0  0  0
  185.7180  179.0200  145.4680 C   0  0  0  0  0  2  0  0  0  0  0  0
  191.9990  175.7680  145.7920 C   0  0  2  0  0  3  0  0  0  0  0  0
  191.2030  175.5680  147.8470 C   0  0  0  0  0  1  0  0  0  0  0  0
  191.4790  176.5080  146.8540 O   0  0  0  0  0  0  0  0  0  0  0  0
  192.9930  176.6460  145.0350 C   0  0  0  0  0  2  0  0  0  0  0  0
  196.4280  175.7630  143.7440 C   0  0  0  0  0  3  0  0  0  0  0  0
  194.3260  176.0010  144.9010 C   0  0  0  0  0  0  0  0  0  0  0  0
  196.8410  174.8790  144.6910 N   0  0  0  0  0  0  0  0  0  0  0  0
  194.7740  175.1000  145.8710 C   0  0  0  0  0  3  0  0  0  0  0  0
  196.0460  174.5380  145.7420 C   0  0  0  0  0  3  0  0  0  0  0  0
  195.1610  176.3430  143.8350 C   0  0  0  0  0  3  0  0  0  0  0  0
  1  3  1  0  0  0  0
  1  2  1  0  0  0  0
  3 24  1  0  0  0  0
  3  2  1  0  0  0  0
  4  3  1  0  0  0  0
  5  4  1  0  0  0  0
  6  5  1  1  0  0  0
  7 10  2  0  0  0  0
  8  9  1  0  0  0  0
  9 10  1  0  0  0  0
 10  6  1  0  0  0  0
 11  8  1  0  0  0  0
 11  7  1  0  0  0  0
 12  8  1  0  0  0  0
 12 15  1  0  0  0  0
 13 15  1  0  0  0  0
 14 13  1  0  0  0  0
 14 15  1  0  0  0  0
 16  6  1  0  0  0  0
 16 18  1  0  0  0  0
 17 18  2  0  0  0  0
 18 19  1  0  0  0  0
 19 23  1  0  0  0  0
 23 20  1  0  0  0  0
 23 21  1  0  0  0  0
 23 22  1  0  0  0  0
 24 25  1  6  0  0  0
 24 36  1  0  0  0  0
 26 25  1  1  0  0  0
 26 29  1  0  0  0  0
 28 27  1  0  0  0  0
 28 35  1  0  0  0  0
 29 27  1  0  0  0  0
 30 31  2  0  0  0  0
 31 28  1  0  0  0  0
 32 26  1  0  0  0  0
 33 32  2  0  0  0  0
 33 31  1  0  0  0  0
 35 34  1  0  0  0  0
 36 39  1  6  0  0  0
 36 38  1  0  0  0  0
 38 37  1  0  0  0  0
 40 45  2  0  0  0  0
 40 42  1  0  0  0  0
 41 39  1  0  0  0  0
 41 43  2  0  0  0  0
 42 44  2  0  0  0  0
 44 43  1  0  0  0  0
 45 41  1  0  0  0  0
M  END
>  <MODEL>
6

>  <REMARK>
 VINA RESULT:      -6.0      3.322      7.790
  Name = 
  18 active torsions:
  status: ('A' for Active; 'I' for Inactive)
    1  A    between atoms: C_1  and  C_22
    2  A    between atoms: C_1  and  C_29
    3  A    between atoms: C_1  and  C_43
    4  A    between atoms: N_3  and  C_22
    5  A    between atoms: N_3  and  C_42
    6  A    between atoms: C_6  and  C_21
    7  A    between atoms: C_6  and  C_43
    8  A    between atoms: C_12  and  C_29
    9  A    between atoms: S_14  and  C_36
   10  A    between atoms: S_14  and  C_41
   11  A    between atoms: N_16  and  N_31
   12  A    between atoms: C_18  and  C_28
   13  A    between atoms: N_19  and  C_40
   14  A    between atoms: C_27  and  C_41
   15  A    between atoms: C_28  and  C_36
   16  A    between atoms: N_31  and  C_44
   17  A    between atoms: O_37  and  C_43
   18  A    between atoms: C_41  and  C_42
                            x       y       z     vdW  Elec       q    Type
                         _______ _______ _______ _____ _____    ______ ____

>  <TORSDO>
F 18

$$$$
=
 OpenBabel11042418053D

 45 49  0  0  1  0  0  0  0  0999 V2000
  190.7370  177.5380  144.1950 C   0  0  0  0  0  2  0  0  0  0  0  0
  190.5380  178.0320  142.7710 C   0  0  0  0  0  2  0  0  0  0  0  0
  190.6120  176.5440  143.0600 C   0  0  0  0  0  0  0  0  0  0  0  0
  191.8810  175.8690  142.8020 N   0  0  0  0  0  2  0  0  0  0  0  0
  192.9780  176.7860  143.0800 C   0  0  0  0  0  2  0  0  0  0  0  0
  194.0790  176.0890  143.8600 C   0  0  1  0  0  3  0  0  0  0  0  0
  196.3980  176.4320  143.1780 N   0  0  0  0  0  0  0  0  0  0  0  0
  196.6110  174.8970  141.3950 N   0  0  0  0  0  0  0  0  0  0  0  0
  195.3310  174.8870  141.9650 N   0  0  0  0  0  2  0  0  0  0  0  0
  195.2750  175.8500  142.9920 C   0  0  0  0  0  0  0  0  0  0  0  0
  197.3390  175.8840  142.2060 C   0  0  0  0  0  2  0  0  0  0  0  0
  196.4800  175.4450  140.1170 N   0  0  0  0  0  2  0  0  0  0  0  0
  194.6580  175.2670  138.5360 C   0  0  0  0  0  2  0  0  0  0  0  0
  195.9210  174.7820  137.8590 C   0  0  0  0  0  2  0  0  0  0  0  0
  195.6990  174.5070  139.3300 C   0  0  0  0  0  3  0  0  0  0  0  0
  194.5230  177.0930  145.3150 S   0  0  0  0  0  0  0  0  0  0  0  0
  193.9320  174.8390  146.5190 O   0  0  0  0  0  0  0  0  0  0  0  0
  193.6480  176.0240  146.4580 C   0  0  0  0  0  0  0  0  0  0  0  0
  192.5750  176.5930  147.3330 C   0  0  0  0  0  2  0  0  0  0  0  0
  191.2860  174.9370  146.2060 F   0  0  0  0  0  0  0  0  0  0  0  0
  191.3170  174.9130  148.4640 F   0  0  0  0  0  0  0  0  0  0  0  0
  190.2010  176.5380  147.3700 F   0  0  0  0  0  0  0  0  0  0  0  0
  191.3230  175.7250  147.3450 C   0  0  0  0  0  0  0  0  0  0  0  0
  189.3190  175.7290  143.1230 C   0  0  2  0  0  3  0  0  0  0  0  0
  188.7130  175.6550  144.5280 C   0  0  0  0  0  2  0  0  0  0  0  0
  187.6220  176.7030  144.6930 C   0  0  1  0  0  3  0  0  0  0  0  0
  186.0940  178.0830  143.3780 C   0  0  0  0  0  2  0  0  0  0  0  0
  184.8880  178.1530  144.1860 N   0  0  0  0  0  0  0  0  0  0  0  0
  186.7210  176.7100  143.4720 C   0  0  0  0  0  2  0  0  0  0  0  0
  184.0480  178.6610  146.3000 O   0  0  0  0  0  0  0  0  0  0  0  0
  184.8920  178.0150  145.6210 C   0  0  0  0  0  0  0  0  0  0  0  0
  186.8610  176.4360  145.9500 C   0  0  0  0  0  3  0  0  0  0  0  0
  185.7320  177.0350  146.3430 C   0  0  0  0  0  3  0  0  0  0  0  0
  183.7140  178.2920  142.0450 C   0  0  0  0  0  1  0  0  0  0  0  0
  183.7010  178.6670  143.5140 C   0  0  0  0  0  2  0  0  0  0  0  0
  189.3830  174.3950  142.3520 C   0  0  2  0  0  3  0  0  0  0  0  0
  187.6600  173.0540  141.9930 C   0  0  0  0  0  1  0  0  0  0  0  0
  188.2240  174.2640  141.5880 O   0  0  0  0  0  0  0  0  0  0  0  0
  189.5130  173.1610  143.2440 C   0  0  0  0  0  2  0  0  0  0  0  0
  192.7430  171.4860  144.2470 C   0  0  0  0  0  3  0  0  0  0  0  0
  190.8690  172.5550  143.1700 C   0  0  0  0  0  0  0  0  0  0  0  0
  193.3460  171.3430  143.0370 N   0  0  0  0  0  0  0  0  0  0  0  0
  191.5000  172.3870  141.9350 C   0  0  0  0  0  3  0  0  0  0  0  0
  192.7570  171.7780  141.8910 C   0  0  0  0  0  3  0  0  0  0  0  0
  191.4880  172.0930  144.3350 C   0  0  0  0  0  3  0  0  0  0  0  0
  2  3  1  0  0  0  0
  2  1  1  0  0  0  0
  3 24  1  0  0  0  0
  3  1  1  0  0  0  0
  4  3  1  0  0  0  0
  4  5  1  0  0  0  0
  6  5  1  6  0  0  0
  6 16  1  0  0  0  0
  8  9  1  0  0  0  0
  8 11  1  0  0  0  0
  9 10  1  0  0  0  0
 10  7  2  0  0  0  0
 10  6  1  0  0  0  0
 11  7  1  0  0  0  0
 12  8  1  0  0  0  0
 13 15  1  0  0  0  0
 14 13  1  0  0  0  0
 14 15  1  0  0  0  0
 15 12  1  0  0  0  0
 16 18  1  0  0  0  0
 18 17  2  0  0  0  0
 18 19  1  0  0  0  0
 19 23  1  0  0  0  0
 20 23  1  0  0  0  0
 23 22  1  0  0  0  0
 23 21  1  0  0  0  0
 24 25  1  1  0  0  0
 26 25  1  6  0  0  0
 26 32  1  0  0  0  0
 27 29  1  0  0  0  0
 27 28  1  0  0  0  0
 28 31  1  0  0  0  0
 29 26  1  0  0  0  0
 31 30  2  0  0  0  0
 31 33  1  0  0  0  0
 32 33  2  0  0  0  0
 34 35  1  0  0  0  0
 35 28  1  0  0  0  0
 36 24  1  0  0  0  0
 36 39  1  1  0  0  0
 38 37  1  0  0  0  0
 38 36  1  0  0  0  0
 40 45  1  0  0  0  0
 41 39  1  0  0  0  0
 41 45  2  0  0  0  0
 42 40  2  0  0  0  0
 43 41  1  0  0  0  0
 44 43  2  0  0  0  0
 44 42  1  0  0  0  0
M  END
>  <MODEL>
7

>  <REMARK>
 VINA RESULT:      -6.0      3.744      9.168
  Name = 
  18 active torsions:
  status: ('A' for Active; 'I' for Inactive)
    1  A    between atoms: C_1  and  C_22
    2  A    between atoms: C_1  and  C_29
    3  A    between atoms: C_1  and  C_43
    4  A    between atoms: N_3  and  C_22
    5  A    between atoms: N_3  and  C_42
    6  A    between atoms: C_6  and  C_21
    7  A    between atoms: C_6  and  C_43
    8  A    between atoms: C_12  and  C_29
    9  A    between atoms: S_14  and  C_36
   10  A    between atoms: S_14  and  C_41
   11  A    between atoms: N_16  and  N_31
   12  A    between atoms: C_18  and  C_28
   13  A    between atoms: N_19  and  C_40
   14  A    between atoms: C_27  and  C_41
   15  A    between atoms: C_28  and  C_36
   16  A    between atoms: N_31  and  C_44
   17  A    between atoms: O_37  and  C_43
   18  A    between atoms: C_41  and  C_42
                            x       y       z     vdW  Elec       q    Type
                         _______ _______ _______ _____ _____    ______ ____

>  <TORSDO>
F 18

$$$$
=
 OpenBabel11042418053D

 45 49  0  0  1  0  0  0  0  0999 V2000
  190.3370  178.1980  143.8050 C   0  0  0  0  0  2  0  0  0  0  0  0
  189.7680  177.9220  142.4220 C   0  0  0  0  0  2  0  0  0  0  0  0
  190.4030  176.8020  143.2240 C   0  0  0  0  0  0  0  0  0  0  0  0
  191.7760  176.4290  142.8930 N   0  0  0  0  0  2  0  0  0  0  0  0
  191.9930  175.0330  143.2490 C   0  0  0  0  0  2  0  0  0  0  0  0
  193.4140  174.8180  143.7410 C   0  0  1  0  0  3  0  0  0  0  0  0
  193.1150  172.6470  144.8170 N   0  0  0  0  0  0  0  0  0  0  0  0
  194.5210  171.2630  143.5170 N   0  0  0  0  0  0  0  0  0  0  0  0
  194.5260  172.5960  143.0840 N   0  0  0  0  0  2  0  0  0  0  0  0
  193.6950  173.3590  143.9280 C   0  0  0  0  0  0  0  0  0  0  0  0
  193.5690  171.2710  144.6370 C   0  0  0  0  0  2  0  0  0  0  0  0
  195.7820  171.0120  144.0640 N   0  0  0  0  0  2  0  0  0  0  0  0
  196.8420  170.3660  146.1390 C   0  0  0  0  0  2  0  0  0  0  0  0
  196.7070  171.8730  146.1260 C   0  0  0  0  0  2  0  0  0  0  0  0
  195.6280  171.0120  145.5070 C   0  0  0  0  0  3  0  0  0  0  0  0
  194.5870  175.5570  142.5580 S   0  0  0  0  0  0  0  0  0  0  0  0
  196.4800  177.0830  143.5390 O   0  0  0  0  0  0  0  0  0  0  0  0
  195.5560  176.3480  143.8430 C   0  0  0  0  0  0  0  0  0  0  0  0
  195.2240  176.1010  145.2820 C   0  0  0  0  0  2  0  0  0  0  0  0
  194.0970  176.9530  147.1990 F   0  0  0  0  0  0  0  0  0  0  0  0
  195.3230  178.3860  145.9560 F   0  0  0  0  0  0  0  0  0  0  0  0
  193.3730  177.5840  145.1560 F   0  0  0  0  0  0  0  0  0  0  0  0
  194.4940  177.2790  145.9130 C   0  0  0  0  0  0  0  0  0  0  0  0
  189.5050  175.8070  143.9620 C   0  0  2  0  0  3  0  0  0  0  0  0
  188.3100  175.3310  143.1300 C   0  0  0  0  0  2  0  0  0  0  0  0
  188.5990  173.9720  142.5110 C   0  0  1  0  0  3  0  0  0  0  0  0
  188.9990  172.9130  140.3460 C   0  0  0  0  0  2  0  0  0  0  0  0
  189.9690  171.8690  140.6310 N   0  0  0  0  0  0  0  0  0  0  0  0
  189.2860  174.1490  141.1690 C   0  0  0  0  0  2  0  0  0  0  0  0
  190.4360  170.0300  141.9850 O   0  0  0  0  0  0  0  0  0  0  0  0
  190.0980  171.2430  141.9240 C   0  0  0  0  0  0  0  0  0  0  0  0
  189.4180  173.1570  143.4580 C   0  0  0  0  0  3  0  0  0  0  0  0
  190.0060  171.9840  143.2000 C   0  0  0  0  0  3  0  0  0  0  0  0
  191.8340  172.0730  139.0610 C   0  0  0  0  0  1  0  0  0  0  0  0
  190.6160  171.2680  139.4710 C   0  0  0  0  0  2  0  0  0  0  0  0
  189.1880  176.2090  145.4160 C   0  0  2  0  0  3  0  0  0  0  0  0
  189.3640  174.5560  146.8760 C   0  0  0  0  0  1  0  0  0  0  0  0
  190.0950  175.5750  146.2640 O   0  0  0  0  0  0  0  0  0  0  0  0
  187.7740  175.8540  145.8710 C   0  0  0  0  0  2  0  0  0  0  0  0
  185.6260  178.5150  147.4680 C   0  0  0  0  0  3  0  0  0  0  0  0
  186.9200  177.0590  146.0480 C   0  0  0  0  0  0  0  0  0  0  0  0
  185.4110  179.3420  146.4120 N   0  0  0  0  0  0  0  0  0  0  0  0
  186.6980  177.9290  144.9770 C   0  0  0  0  0  3  0  0  0  0  0  0
  185.9240  179.0740  145.1800 C   0  0  0  0  0  3  0  0  0  0  0  0
  186.3900  177.3570  147.3060 C   0  0  0  0  0  3  0  0  0  0  0  0
  2  3  1  0  0  0  0
  2  1  1  0  0  0  0
  3  1  1  0  0  0  0
  3 24  1  0  0  0  0
  4  3  1  0  0  0  0
  4  5  1  0  0  0  0
  6  5  1  6  0  0  0
  6 10  1  0  0  0  0
  8 12  1  0  0  0  0
  8 11  1  0  0  0  0
  9  8  1  0  0  0  0
  9 10  1  0  0  0  0
 10  7  2  0  0  0  0
 11  7  1  0  0  0  0
 12 15  1  0  0  0  0
 14 13  1  0  0  0  0
 15 14  1  0  0  0  0
 15 13  1  0  0  0  0
 16  6  1  0  0  0  0
 16 18  1  0  0  0  0
 17 18  2  0  0  0  0
 18 19  1  0  0  0  0
 19 23  1  0  0  0  0
 22 23  1  0  0  0  0
 23 21  1  0  0  0  0
 23 20  1  0  0  0  0
 24 25  1  6  0  0  0
 24 36  1  0  0  0  0
 26 25  1  1  0  0  0
 26 32  1  0  0  0  0
 27 28  1  0  0  0  0
 27 29  1  0  0  0  0
 28 31  1  0  0  0  0
 29 26  1  0  0  0  0
 31 30  2  0  0  0  0
 31 33  1  0  0  0  0
 33 32  2  0  0  0  0
 34 35  1  0  0  0  0
 35 28  1  0  0  0  0
 36 39  1  1  0  0  0
 36 38  1  0  0  0  0
 38 37  1  0  0  0  0
 39 41  1  0  0  0  0
 41 45  2  0  0  0  0
 42 40  2  0  0  0  0
 43 44  2  0  0  0  0
 43 41  1  0  0  0  0
 44 42  1  0  0  0  0
 45 40  1  0  0  0  0
M  END
>  <MODEL>
8

>  <REMARK>
 VINA RESULT:      -6.0      3.373      7.475
  Name = 
  18 active torsions:
  status: ('A' for Active; 'I' for Inactive)
    1  A    between atoms: C_1  and  C_22
    2  A    between atoms: C_1  and  C_29
    3  A    between atoms: C_1  and  C_43
    4  A    between atoms: N_3  and  C_22
    5  A    between atoms: N_3  and  C_42
    6  A    between atoms: C_6  and  C_21
    7  A    between atoms: C_6  and  C_43
    8  A    between atoms: C_12  and  C_29
    9  A    between atoms: S_14  and  C_36
   10  A    between atoms: S_14  and  C_41
   11  A    between atoms: N_16  and  N_31
   12  A    between atoms: C_18  and  C_28
   13  A    between atoms: N_19  and  C_40
   14  A    between atoms: C_27  and  C_41
   15  A    between atoms: C_28  and  C_36
   16  A    between atoms: N_31  and  C_44
   17  A    between atoms: O_37  and  C_43
   18  A    between atoms: C_41  and  C_42
                            x       y       z     vdW  Elec       q    Type
                         _______ _______ _______ _____ _____    ______ ____

>  <TORSDO>
F 18

$$$$
=
 OpenBabel11042418053D

 45 49  0  0  1  0  0  0  0  0999 V2000
  193.5060  176.0210  146.3060 C   0  0  0  0  0  2  0  0  0  0  0  0
  192.8740  174.7660  145.7230 C   0  0  0  0  0  2  0  0  0  0  0  0
  192.9100  176.0500  144.9150 C   0  0  0  0  0  0  0  0  0  0  0  0
  191.6930  176.8580  144.8750 N   0  0  0  0  0  2  0  0  0  0  0  0
  190.6550  176.2010  145.6590 C   0  0  0  0  0  2  0  0  0  0  0  0
  189.3790  177.0250  145.6610 C   0  0  1  0  0  3  0  0  0  0  0  0
  189.6690  178.0220  143.4520 N   0  0  0  0  0  0  0  0  0  0  0  0
  187.7220  177.2910  142.3310 N   0  0  0  0  0  0  0  0  0  0  0  0
  187.7850  176.8370  143.6550 N   0  0  0  0  0  2  0  0  0  0  0  0
  188.9510  177.3430  144.2620 C   0  0  0  0  0  0  0  0  0  0  0  0
  188.9730  178.0450  142.1680 C   0  0  0  0  0  2  0  0  0  0  0  0
  186.6810  178.2210  142.2720 N   0  0  0  0  0  2  0  0  0  0  0  0
  184.2710  178.2600  142.4670 C   0  0  0  0  0  2  0  0  0  0  0  0
  184.6270  178.2920  140.9970 C   0  0  0  0  0  2  0  0  0  0  0  0
  185.4690  177.4860  141.9620 C   0  0  0  0  0  3  0  0  0  0  0  0
  188.0710  176.1200  146.5500 S   0  0  0  0  0  0  0  0  0  0  0  0
  188.1290  178.4930  147.6640 O   0  0  0  0  0  0  0  0  0  0  0  0
  187.3850  177.6060  147.2810 C   0  0  0  0  0  0  0  0  0  0  0  0
  185.9010  177.7500  147.4160 C   0  0  0  0  0  2  0  0  0  0  0  0
  185.0800  176.8920  145.3510 F   0  0  0  0  0  0  0  0  0  0  0  0
  183.9880  178.6300  146.2970 F   0  0  0  0  0  0  0  0  0  0  0  0
  186.0190  178.9450  145.3680 F   0  0  0  0  0  0  0  0  0  0  0  0
  185.2300  178.0580  146.0840 C   0  0  0  0  0  0  0  0  0  0  0  0
  193.9640  176.2160  143.8190 C   0  0  2  0  0  3  0  0  0  0  0  0
  193.4850  175.7610  142.4370 C   0  0  0  0  0  2  0  0  0  0  0  0
  192.4750  174.6300  142.5690 C   0  0  1  0  0  3  0  0  0  0  0  0
  190.0680  174.2330  142.6900 C   0  0  0  0  0  2  0  0  0  0  0  0
  189.8760  172.9760  141.9870 N   0  0  0  0  0  0  0  0  0  0  0  0
  191.1320  175.0670  142.0130 C   0  0  0  0  0  2  0  0  0  0  0  0
  190.5670  170.7540  141.8490 O   0  0  0  0  0  0  0  0  0  0  0  0
  190.9030  171.9690  141.8770 C   0  0  0  0  0  0  0  0  0  0  0  0
  192.9990  173.4130  141.8810 C   0  0  0  0  0  3  0  0  0  0  0  0
  192.3280  172.2810  141.6370 C   0  0  0  0  0  3  0  0  0  0  0  0
  188.2090  172.9900  140.1970 C   0  0  0  0  0  1  0  0  0  0  0  0
  188.4990  172.6420  141.6440 C   0  0  0  0  0  2  0  0  0  0  0  0
  195.3720  175.7390  144.2280 C   0  0  2  0  0  3  0  0  0  0  0  0
  196.9420  176.5800  142.9160 C   0  0  0  0  0  1  0  0  0  0  0  0
  196.2590  176.8080  144.1110 O   0  0  0  0  0  0  0  0  0  0  0  0
  195.9060  174.5760  143.3940 C   0  0  0  0  0  2  0  0  0  0  0  0
  196.8170  172.1520  146.1390 C   0  0  0  0  0  3  0  0  0  0  0  0
  196.0260  173.3230  144.1860 C   0  0  0  0  0  0  0  0  0  0  0  0
  196.1800  171.0290  145.7150 N   0  0  0  0  0  0  0  0  0  0  0  0
  195.3680  172.1620  143.7740 C   0  0  0  0  0  3  0  0  0  0  0  0
  195.4650  171.0100  144.5580 C   0  0  0  0  0  3  0  0  0  0  0  0
  196.7490  173.3230  145.3820 C   0  0  0  0  0  3  0  0  0  0  0  0
  2  1  1  0  0  0  0
  3  2  1  0  0  0  0
  3  1  1  0  0  0  0
  4  3  1  0  0  0  0
  4  5  1  0  0  0  0
  6  5  1  6  0  0  0
  6 16  1  0  0  0  0
  7 10  2  0  0  0  0
  8  9  1  0  0  0  0
  9 10  1  0  0  0  0
 10  6  1  0  0  0  0
 11  8  1  0  0  0  0
 11  7  1  0  0  0  0
 12  8  1  0  0  0  0
 14 15  1  0  0  0  0
 14 13  1  0  0  0  0
 15 12  1  0  0  0  0
 15 13  1  0  0  0  0
 16 18  1  0  0  0  0
 18 19  1  0  0  0  0
 18 17  2  0  0  0  0
 20 23  1  0  0  0  0
 22 23  1  0  0  0  0
 23 21  1  0  0  0  0
 23 19  1  0  0  0  0
 24 25  1  6  0  0  0
 24 36  1  0  0  0  0
 24  3  1  0  0  0  0
 26 25  1  6  0  0  0
 28 27  1  0  0  0  0
 29 26  1  0  0  0  0
 29 27  1  0  0  0  0
 30 31  2  0  0  0  0
 31 28  1  0  0  0  0
 32 26  1  0  0  0  0
 33 31  1  0  0  0  0
 33 32  2  0  0  0  0
 34 35  1  0  0  0  0
 35 28  1  0  0  0  0
 36 39  1  6  0  0  0
 37 38  1  0  0  0  0
 38 36  1  0  0  0  0
 39 41  1  0  0  0  0
 41 45  1  0  0  0  0
 42 40  1  0  0  0  0
 43 41  2  0  0  0  0
 43 44  1  0  0  0  0
 44 42  2  0  0  0  0
 45 40  2  0  0  0  0
M  END
>  <MODEL>
9

>  <REMARK>
 VINA RESULT:      -6.0      3.532      6.359
  Name = 
  18 active torsions:
  status: ('A' for Active; 'I' for Inactive)
    1  A    between atoms: C_1  and  C_22
    2  A    between atoms: C_1  and  C_29
    3  A    between atoms: C_1  and  C_43
    4  A    between atoms: N_3  and  C_22
    5  A    between atoms: N_3  and  C_42
    6  A    between atoms: C_6  and  C_21
    7  A    between atoms: C_6  and  C_43
    8  A    between atoms: C_12  and  C_29
    9  A    between atoms: S_14  and  C_36
   10  A    between atoms: S_14  and  C_41
   11  A    between atoms: N_16  and  N_31
   12  A    between atoms: C_18  and  C_28
   13  A    between atoms: N_19  and  C_40
   14  A    between atoms: C_27  and  C_41
   15  A    between atoms: C_28  and  C_36
   16  A    between atoms: N_31  and  C_44
   17  A    between atoms: O_37  and  C_43
   18  A    between atoms: C_41  and  C_42
                            x       y       z     vdW  Elec       q    Type
                         _______ _______ _______ _____ _____    ______ ____

>  <TORSDO>
F 18

$$$$
