=
 OpenBabel11042416583D

 35 37  0  0  1  0  0  0  0  0999 V2000
  185.0660  178.3120  142.0830 C   0  0  0  0  0  0  0  0  0  0  0  0
  184.1690  178.7950  144.2920 C   0  0  0  0  0  3  0  0  0  0  0  0
  183.9670  178.5570  142.9320 C   0  0  0  0  0  0  0  0  0  0  0  0
  185.7140  177.8740  139.8220 O   0  0  0  0  0  0  0  0  0  0  0  0
  186.5480  178.5430  143.9970 C   0  0  0  0  0  3  0  0  0  0  0  0
  182.4100  178.2620  140.9560 C   0  0  0  0  0  0  0  0  0  0  0  0
  181.0430  178.2030  140.3750 C   0  0  0  0  0  1  0  0  0  0  0  0
  185.4540  178.7910  144.8330 C   0  0  0  0  0  0  0  0  0  0  0  0
  186.3750  178.3020  142.6260 C   0  0  0  0  0  0  0  0  0  0  0  0
  183.4330  178.0460  140.1860 N   0  0  0  0  0  0  0  0  0  0  0  0
  184.7850  178.0700  140.6490 C   0  0  0  0  0  0  0  0  0  0  0  0
  182.5540  178.5920  142.4180 C   0  0  0  0  0  2  0  0  0  0  0  0
  187.5100  178.0410  141.7820 N   0  0  0  0  0  2  0  0  0  0  0  0
  188.7580  177.4370  142.1520 C   0  0  0  0  0  0  0  0  0  0  0  0
  191.1290  176.2140  142.8570 C   0  0  0  0  0  0  0  0  0  0  0  0
  190.0520  175.4660  142.4830 N   0  0  0  0  0  0  0  0  0  0  0  0
  191.0110  177.6080  142.8810 C   0  0  0  0  0  3  0  0  0  0  0  0
  189.8310  178.1850  142.5300 N   0  0  0  0  0  0  0  0  0  0  0  0
  188.8720  176.0460  142.1320 C   0  0  0  0  0  3  0  0  0  0  0  0
  194.7920  175.7530  143.9810 C   0  0  0  0  0  1  0  0  0  0  0  0
  192.4840  174.2970  143.2060 O   0  0  0  0  0  0  0  0  0  0  0  0
  193.5270  176.3500  143.5860 N   0  0  0  0  0  2  0  0  0  0  0  0
  192.3960  175.5570  143.2180 C   0  0  0  0  0  0  0  0  0  0  0  0
  185.6180  179.0310  146.2010 O   0  0  0  0  0  0  0  0  0  0  0  0
  185.3430  178.0460  147.1870 C   0  0  0  0  0  2  0  0  0  0  0  0
  186.6410  177.5750  147.8060 C   0  0  0  0  0  2  0  0  0  0  0  0
  187.1760  176.5110  147.0300 O   0  0  0  0  0  0  0  0  0  0  0  0
  188.9810  177.2530  145.8320 O   0  0  0  0  0  0  0  0  0  0  0  0
  188.5270  176.4460  146.6860 C   0  0  0  0  0  0  0  0  0  0  0  0
  188.7110  174.3490  147.7800 O   0  0  0  0  0  1  0  0  0  0  0  0
  189.4440  175.4490  147.3270 C   0  0  1  0  0  3  0  0  0  0  0  0
  190.5060  174.9970  146.3380 C   0  0  0  0  0  2  0  0  0  0  0  0
  192.8400  174.6020  146.6140 O   0  0  0  0  0  0  0  0  0  0  0  0
  191.8620  175.3670  146.8290 C   0  0  0  0  0  0  0  0  0  0  0  0
  192.0580  176.5740  147.4930 O   0  0  0  0  0  1  0  0  0  0  0  0
  1  9  2  0  0  0  0
  1  3  1  0  0  0  0
  2  8  1  0  0  0  0
  3  2  2  0  0  0  0
  4 11  2  0  0  0  0
  5  8  2  0  0  0  0
  6 12  1  0  0  0  0
  7  6  1  0  0  0  0
  8 24  1  0  0  0  0
  9  5  1  0  0  0  0
 10 11  1  0  0  0  0
 10  6  2  0  0  0  0
 11  1  1  0  0  0  0
 12  3  1  0  0  0  0
 13 14  1  0  0  0  0
 13  9  1  0  0  0  0
 14 18  2  0  0  0  0
 15 17  2  0  0  0  0
 15 23  1  0  0  0  0
 16 15  1  0  0  0  0
 18 17  1  0  0  0  0
 19 14  1  0  0  0  0
 19 16  2  0  0  0  0
 21 23  2  0  0  0  0
 22 20  1  0  0  0  0
 23 22  1  0  0  0  0
 24 25  1  0  0  0  0
 25 26  1  0  0  0  0
 27 26  1  0  0  0  0
 28 29  2  0  0  0  0
 29 27  1  0  0  0  0
 29 31  1  0  0  0  0
 31 30  1  6  0  0  0
 32 34  1  0  0  0  0
 32 31  1  0  0  0  0
 33 34  2  0  0  0  0
 34 35  1  0  0  0  0
M  END
>  <MODEL>
1

>  <REMARK>
 VINA RESULT:      -7.0      0.000      0.000
  Name = 
  11 active torsions:
  status: ('A' for Active; 'I' for Inactive)
    1  A    between atoms: C_5  and  N_22
    2  A    between atoms: C_7  and  C_18
    3  A    between atoms: O_12  and  C_32
    4  A    between atoms: O_12  and  C_34
    5  A    between atoms: C_14  and  C_28
    6  A    between atoms: C_16  and  C_32
    7  A    between atoms: C_16  and  O_33
    8  A    between atoms: C_17  and  O_33
    9  A    between atoms: C_18  and  C_24
   10  A    between atoms: N_22  and  C_23
   11  A    between atoms: C_24  and  C_34
                            x       y       z     vdW  Elec       q    Type
                         _______ _______ _______ _____ _____    ______ ____

>  <TORSDO>
F 11

$$$$
=
 OpenBabel11042416583D

 35 37  0  0  1  0  0  0  0  0999 V2000
  185.0330  178.4440  142.1990 C   0  0  0  0  0  0  0  0  0  0  0  0
  184.0470  178.8750  144.3800 C   0  0  0  0  0  3  0  0  0  0  0  0
  183.8980  178.6360  143.0120 C   0  0  0  0  0  0  0  0  0  0  0  0
  185.7710  178.0470  139.9580 O   0  0  0  0  0  0  0  0  0  0  0  0
  186.4420  178.7270  144.1600 C   0  0  0  0  0  3  0  0  0  0  0  0
  182.4190  178.2860  140.9870 C   0  0  0  0  0  0  0  0  0  0  0  0
  181.0750  178.1710  140.3610 C   0  0  0  0  0  1  0  0  0  0  0  0
  185.3120  178.9240  144.9620 C   0  0  0  0  0  0  0  0  0  0  0  0
  186.3240  178.4870  142.7830 C   0  0  0  0  0  0  0  0  0  0  0  0
  183.4750  178.1180  140.2490 N   0  0  0  0  0  0  0  0  0  0  0  0
  184.8090  178.1980  140.7550 C   0  0  0  0  0  0  0  0  0  0  0  0
  182.5020  178.6130  142.4530 C   0  0  0  0  0  2  0  0  0  0  0  0
  187.4950  178.2800  141.9750 N   0  0  0  0  0  2  0  0  0  0  0  0
  188.4350  177.1980  142.0530 C   0  0  0  0  0  0  0  0  0  0  0  0
  190.2870  175.1610  142.2290 C   0  0  0  0  0  0  0  0  0  0  0  0
  190.5940  176.4110  142.6750 N   0  0  0  0  0  0  0  0  0  0  0  0
  189.0220  174.9280  141.6780 C   0  0  0  0  0  3  0  0  0  0  0  0
  188.1280  175.9490  141.6030 N   0  0  0  0  0  0  0  0  0  0  0  0
  189.6980  177.4320  142.5980 C   0  0  0  0  0  3  0  0  0  0  0  0
  191.7990  171.6100  142.2150 C   0  0  0  0  0  1  0  0  0  0  0  0
  192.4830  174.3370  142.5940 O   0  0  0  0  0  0  0  0  0  0  0  0
  190.8610  172.7180  142.1500 N   0  0  0  0  0  2  0  0  0  0  0  0
  191.2740  174.0740  142.3380 C   0  0  0  0  0  0  0  0  0  0  0  0
  185.4220  179.1620  146.3350 O   0  0  0  0  0  0  0  0  0  0  0  0
  185.4730  178.1120  147.2910 C   0  0  0  0  0  2  0  0  0  0  0  0
  186.9060  177.8940  147.7240 C   0  0  0  0  0  2  0  0  0  0  0  0
  187.4200  176.7310  147.0890 O   0  0  0  0  0  0  0  0  0  0  0  0
  189.2650  177.5260  145.9910 O   0  0  0  0  0  0  0  0  0  0  0  0
  188.7580  176.6220  146.7050 C   0  0  0  0  0  0  0  0  0  0  0  0
  188.7910  174.4770  147.7170 O   0  0  0  0  0  1  0  0  0  0  0  0
  189.5990  175.4620  147.1440 C   0  0  1  0  0  3  0  0  0  0  0  0
  190.3620  174.8880  145.9600 C   0  0  0  0  0  2  0  0  0  0  0  0
  192.2630  176.1320  146.6790 O   0  0  0  0  0  1  0  0  0  0  0  0
  191.8270  175.0740  146.1500 C   0  0  0  0  0  0  0  0  0  0  0  0
  192.7110  174.0660  145.7800 O   0  0  0  0  0  0  0  0  0  0  0  0
  1  9  2  0  0  0  0
  1  3  1  0  0  0  0
  2  8  1  0  0  0  0
  3  2  2  0  0  0  0
  4 11  2  0  0  0  0
  5  8  2  0  0  0  0
  6 12  1  0  0  0  0
  7  6  1  0  0  0  0
  8 24  1  0  0  0  0
  9  5  1  0  0  0  0
 10 11  1  0  0  0  0
 10  6  2  0  0  0  0
 11  1  1  0  0  0  0
 12  3  1  0  0  0  0
 13 14  1  0  0  0  0
 13  9  1  0  0  0  0
 14 19  1  0  0  0  0
 15 23  1  0  0  0  0
 15 16  1  0  0  0  0
 17 15  2  0  0  0  0
 18 17  1  0  0  0  0
 18 14  2  0  0  0  0
 19 16  2  0  0  0  0
 22 20  1  0  0  0  0
 22 23  1  0  0  0  0
 23 21  2  0  0  0  0
 24 25  1  0  0  0  0
 25 26  1  0  0  0  0
 27 26  1  0  0  0  0
 28 29  2  0  0  0  0
 29 27  1  0  0  0  0
 29 31  1  0  0  0  0
 31 30  1  6  0  0  0
 32 34  1  0  0  0  0
 32 31  1  0  0  0  0
 34 33  1  0  0  0  0
 35 34  2  0  0  0  0
M  END
>  <MODEL>
2

>  <REMARK>
 VINA RESULT:      -6.8      1.128      1.675
  Name = 
  11 active torsions:
  status: ('A' for Active; 'I' for Inactive)
    1  A    between atoms: C_5  and  N_22
    2  A    between atoms: C_7  and  C_18
    3  A    between atoms: O_12  and  C_32
    4  A    between atoms: O_12  and  C_34
    5  A    between atoms: C_14  and  C_28
    6  A    between atoms: C_16  and  C_32
    7  A    between atoms: C_16  and  O_33
    8  A    between atoms: C_17  and  O_33
    9  A    between atoms: C_18  and  C_24
   10  A    between atoms: N_22  and  C_23
   11  A    between atoms: C_24  and  C_34
                            x       y       z     vdW  Elec       q    Type
                         _______ _______ _______ _____ _____    ______ ____

>  <TORSDO>
F 11

$$$$
=
 OpenBabel11042416583D

 35 37  0  0  1  0  0  0  0  0999 V2000
  192.8480  174.5760  145.6450 C   0  0  0  0  0  0  0  0  0  0  0  0
  192.4550  172.4630  144.5070 C   0  0  0  0  0  3  0  0  0  0  0  0
  193.3380  173.3860  145.0690 C   0  0  0  0  0  0  0  0  0  0  0  0
  193.4800  176.6150  146.7260 O   0  0  0  0  0  0  0  0  0  0  0  0
  190.5890  173.8740  145.0830 C   0  0  0  0  0  3  0  0  0  0  0  0
  195.6900  174.0810  145.7000 C   0  0  0  0  0  0  0  0  0  0  0  0
  197.1520  173.8180  145.7610 C   0  0  0  0  0  1  0  0  0  0  0  0
  191.0810  172.6980  144.5080 C   0  0  0  0  0  0  0  0  0  0  0  0
  191.4520  174.8210  145.6540 C   0  0  0  0  0  0  0  0  0  0  0  0
  195.2240  175.1770  146.2200 N   0  0  0  0  0  0  0  0  0  0  0  0
  193.8360  175.5170  146.2210 C   0  0  0  0  0  0  0  0  0  0  0  0
  194.8080  173.0710  145.0170 C   0  0  0  0  0  2  0  0  0  0  0  0
  190.9280  176.0210  146.2480 N   0  0  0  0  0  2  0  0  0  0  0  0
  189.6440  176.6230  146.0260 C   0  0  0  0  0  0  0  0  0  0  0  0
  187.2010  177.8100  145.5430 C   0  0  0  0  0  0  0  0  0  0  0  0
  188.2390  177.9960  144.6800 N   0  0  0  0  0  0  0  0  0  0  0  0
  187.3940  177.0130  146.6760 C   0  0  0  0  0  3  0  0  0  0  0  0
  188.6080  176.4400  146.8910 N   0  0  0  0  0  0  0  0  0  0  0  0
  189.4540  177.4210  144.8980 C   0  0  0  0  0  3  0  0  0  0  0  0
  183.9430  178.7750  143.7120 C   0  0  0  0  0  1  0  0  0  0  0  0
  185.3470  179.1640  146.1460 O   0  0  0  0  0  0  0  0  0  0  0  0
  185.2470  178.2090  144.0180 N   0  0  0  0  0  2  0  0  0  0  0  0
  185.8950  178.4340  145.2730 C   0  0  0  0  0  0  0  0  0  0  0  0
  190.2270  171.7480  143.9380 O   0  0  0  0  0  0  0  0  0  0  0  0
  189.9020  171.7450  142.5560 C   0  0  0  0  0  2  0  0  0  0  0  0
  188.5730  172.4380  142.3490 C   0  0  0  0  0  2  0  0  0  0  0  0
  188.7170  173.4480  141.3590 O   0  0  0  0  0  0  0  0  0  0  0  0
  189.7390  175.3950  141.9980 O   0  0  0  0  0  0  0  0  0  0  0  0
  188.6740  174.8080  141.6710 C   0  0  0  0  0  0  0  0  0  0  0  0
  186.7410  175.5320  142.8410 O   0  0  0  0  0  1  0  0  0  0  0  0
  187.3910  175.5800  141.6050 C   0  0  1  0  0  3  0  0  0  0  0  0
  187.6640  177.0230  141.2140 C   0  0  0  0  0  2  0  0  0  0  0  0
  185.7730  178.3390  140.6060 O   0  0  0  0  0  1  0  0  0  0  0  0
  186.6390  177.4990  140.2440 C   0  0  0  0  0  0  0  0  0  0  0  0
  186.6620  177.0460  138.9290 O   0  0  0  0  0  0  0  0  0  0  0  0
  1  9  1  0  0  0  0
  1 11  1  0  0  0  0
  2  8  2  0  0  0  0
  2  3  1  0  0  0  0
  3  1  2  0  0  0  0
  5  9  2  0  0  0  0
  6  7  1  0  0  0  0
  6 10  2  0  0  0  0
  8  5  1  0  0  0  0
  9 13  1  0  0  0  0
 10 11  1  0  0  0  0
 11  4  2  0  0  0  0
 12  3  1  0  0  0  0
 12  6  1  0  0  0  0
 14 13  1  0  0  0  0
 14 18  2  0  0  0  0
 15 17  2  0  0  0  0
 16 19  2  0  0  0  0
 16 15  1  0  0  0  0
 17 18  1  0  0  0  0
 19 14  1  0  0  0  0
 20 22  1  0  0  0  0
 22 23  1  0  0  0  0
 23 15  1  0  0  0  0
 23 21  2  0  0  0  0
 24  8  1  0  0  0  0
 25 24  1  0  0  0  0
 26 25  1  0  0  0  0
 27 29  1  0  0  0  0
 27 26  1  0  0  0  0
 29 28  2  0  0  0  0
 31 29  1  0  0  0  0
 31 30  1  1  0  0  0
 32 31  1  0  0  0  0
 34 33  1  0  0  0  0
 34 32  1  0  0  0  0
 35 34  2  0  0  0  0
M  END
>  <MODEL>
3

>  <REMARK>
 VINA RESULT:      -6.5      2.679      8.912
  Name = 
  11 active torsions:
  status: ('A' for Active; 'I' for Inactive)
    1  A    between atoms: C_5  and  N_22
    2  A    between atoms: C_7  and  C_18
    3  A    between atoms: O_12  and  C_32
    4  A    between atoms: O_12  and  C_34
    5  A    between atoms: C_14  and  C_28
    6  A    between atoms: C_16  and  C_32
    7  A    between atoms: C_16  and  O_33
    8  A    between atoms: C_17  and  O_33
    9  A    between atoms: C_18  and  C_24
   10  A    between atoms: N_22  and  C_23
   11  A    between atoms: C_24  and  C_34
                            x       y       z     vdW  Elec       q    Type
                         _______ _______ _______ _____ _____    ______ ____

>  <TORSDO>
F 11

$$$$
=
 OpenBabel11042416583D

 35 37  0  0  1  0  0  0  0  0999 V2000
  189.2730  175.3280  144.2380 C   0  0  0  0  0  0  0  0  0  0  0  0
  188.5800  177.6080  143.7470 C   0  0  0  0  0  3  0  0  0  0  0  0
  189.2150  176.6930  144.5880 C   0  0  0  0  0  0  0  0  0  0  0  0
  190.0240  173.1710  144.9480 O   0  0  0  0  0  0  0  0  0  0  0  0
  188.0570  175.8400  142.1950 C   0  0  0  0  0  3  0  0  0  0  0  0
  190.5310  176.1800  146.6910 C   0  0  0  0  0  0  0  0  0  0  0  0
  191.2090  176.6170  147.9400 C   0  0  0  0  0  1  0  0  0  0  0  0
  187.9980  177.1920  142.5510 C   0  0  0  0  0  0  0  0  0  0  0  0
  188.6870  174.8970  143.0210 C   0  0  0  0  0  0  0  0  0  0  0  0
  190.5680  174.9250  146.3580 N   0  0  0  0  0  0  0  0  0  0  0  0
  189.9570  174.4070  145.1740 C   0  0  0  0  0  0  0  0  0  0  0  0
  189.8070  177.2130  145.8700 C   0  0  0  0  0  2  0  0  0  0  0  0
  188.7460  173.5130  142.6360 N   0  0  0  0  0  2  0  0  0  0  0  0
  189.0720  172.9740  141.3470 C   0  0  0  0  0  0  0  0  0  0  0  0
  189.7620  171.9270  138.8890 C   0  0  0  0  0  0  0  0  0  0  0  0
  190.6730  171.9640  139.9030 N   0  0  0  0  0  0  0  0  0  0  0  0
  188.4760  172.4310  139.1140 C   0  0  0  0  0  3  0  0  0  0  0  0
  188.1620  172.9420  140.3330 N   0  0  0  0  0  0  0  0  0  0  0  0
  190.3560  172.4760  141.1230 C   0  0  0  0  0  3  0  0  0  0  0  0
  189.9270  171.3940  135.0700 C   0  0  0  0  0  1  0  0  0  0  0  0
  190.9410  170.3870  137.5210 O   0  0  0  0  0  0  0  0  0  0  0  0
  189.5730  171.9000  136.3870 N   0  0  0  0  0  2  0  0  0  0  0  0
  190.1320  171.3550  137.5840 C   0  0  0  0  0  0  0  0  0  0  0  0
  187.3740  178.1380  141.7320 O   0  0  0  0  0  0  0  0  0  0  0  0
  186.4080  177.7820  140.7530 C   0  0  0  0  0  2  0  0  0  0  0  0
  185.1120  178.5110  141.0340 C   0  0  0  0  0  2  0  0  0  0  0  0
  184.4110  177.8440  142.0730 O   0  0  0  0  0  0  0  0  0  0  0  0
  182.9610  178.9370  143.4690 O   0  0  0  0  0  0  0  0  0  0  0  0
  184.1140  178.4640  143.2890 C   0  0  0  0  0  0  0  0  0  0  0  0
  185.7130  179.8280  144.3890 O   0  0  0  0  0  1  0  0  0  0  0  0
  185.1350  178.5560  144.3820 C   0  0  1  0  0  3  0  0  0  0  0  0
  184.4910  178.2680  145.7290 C   0  0  0  0  0  2  0  0  0  0  0  0
  186.1050  176.5780  146.1950 O   0  0  0  0  0  0  0  0  0  0  0  0
  185.4550  177.5680  146.6240 C   0  0  0  0  0  0  0  0  0  0  0  0
  185.6650  178.0310  147.9190 O   0  0  0  0  0  1  0  0  0  0  0  0
  1  3  1  0  0  0  0
  1 11  1  0  0  0  0
  2  3  2  0  0  0  0
  3 12  1  0  0  0  0
  4 11  2  0  0  0  0
  5  8  2  0  0  0  0
  5  9  1  0  0  0  0
  6  7  1  0  0  0  0
  8  2  1  0  0  0  0
  9  1  2  0  0  0  0
 10  6  2  0  0  0  0
 11 10  1  0  0  0  0
 12  6  1  0  0  0  0
 13  9  1  0  0  0  0
 14 13  1  0  0  0  0
 15 17  2  0  0  0  0
 15 16  1  0  0  0  0
 16 19  2  0  0  0  0
 17 18  1  0  0  0  0
 18 14  2  0  0  0  0
 19 14  1  0  0  0  0
 20 22  1  0  0  0  0
 21 23  2  0  0  0  0
 22 23  1  0  0  0  0
 23 15  1  0  0  0  0
 24  8  1  0  0  0  0
 25 26  1  0  0  0  0
 25 24  1  0  0  0  0
 26 27  1  0  0  0  0
 27 29  1  0  0  0  0
 29 28  2  0  0  0  0
 29 31  1  0  0  0  0
 31 30  1  1  0  0  0
 31 32  1  0  0  0  0
 32 34  1  0  0  0  0
 33 34  2  0  0  0  0
 34 35  1  0  0  0  0
M  END
>  <MODEL>
4

>  <REMARK>
 VINA RESULT:      -6.4      3.500      6.975
  Name = 
  11 active torsions:
  status: ('A' for Active; 'I' for Inactive)
    1  A    between atoms: C_5  and  N_22
    2  A    between atoms: C_7  and  C_18
    3  A    between atoms: O_12  and  C_32
    4  A    between atoms: O_12  and  C_34
    5  A    between atoms: C_14  and  C_28
    6  A    between atoms: C_16  and  C_32
    7  A    between atoms: C_16  and  O_33
    8  A    between atoms: C_17  and  O_33
    9  A    between atoms: C_18  and  C_24
   10  A    between atoms: N_22  and  C_23
   11  A    between atoms: C_24  and  C_34
                            x       y       z     vdW  Elec       q    Type
                         _______ _______ _______ _____ _____    ______ ____

>  <TORSDO>
F 11

$$$$
=
 OpenBabel11042416583D

 35 37  0  0  1  0  0  0  0  0999 V2000
  187.6310  176.4650  144.6030 C   0  0  0  0  0  0  0  0  0  0  0  0
  188.7220  176.7690  146.7550 C   0  0  0  0  0  3  0  0  0  0  0  0
  187.6260  176.9760  145.9170 C   0  0  0  0  0  0  0  0  0  0  0  0
  186.3800  176.3250  142.5680 O   0  0  0  0  0  0  0  0  0  0  0  0
  189.8420  175.5390  145.0110 C   0  0  0  0  0  3  0  0  0  0  0  0
  185.2990  177.8950  145.5210 C   0  0  0  0  0  0  0  0  0  0  0  0
  184.0820  178.6030  145.9970 C   0  0  0  0  0  1  0  0  0  0  0  0
  189.8340  176.0540  146.3120 C   0  0  0  0  0  0  0  0  0  0  0  0
  188.7550  175.7330  144.1450 C   0  0  0  0  0  0  0  0  0  0  0  0
  185.3230  177.4250  144.3100 N   0  0  0  0  0  0  0  0  0  0  0  0
  186.4390  176.7220  143.7610 C   0  0  0  0  0  0  0  0  0  0  0  0
  186.4690  177.7690  146.4590 C   0  0  0  0  0  2  0  0  0  0  0  0
  188.7780  175.1900  142.8140 N   0  0  0  0  0  2  0  0  0  0  0  0
  189.2960  173.9200  142.3920 C   0  0  0  0  0  0  0  0  0  0  0  0
  190.3140  171.5070  141.5240 C   0  0  0  0  0  0  0  0  0  0  0  0
  190.4640  172.6310  140.7670 N   0  0  0  0  0  0  0  0  0  0  0  0
  189.6340  171.5970  142.7430 C   0  0  0  0  0  3  0  0  0  0  0  0
  189.1420  172.7970  143.1480 N   0  0  0  0  0  0  0  0  0  0  0  0
  189.9690  173.8320  141.1730 C   0  0  0  0  0  3  0  0  0  0  0  0
  192.1650  168.9290  139.3270 C   0  0  0  0  0  1  0  0  0  0  0  0
  190.7380  169.1850  141.7660 O   0  0  0  0  0  0  0  0  0  0  0  0
  191.5670  170.1620  139.8150 N   0  0  0  0  0  2  0  0  0  0  0  0
  190.8710  170.2250  141.0620 C   0  0  0  0  0  0  0  0  0  0  0  0
  190.9120  175.8630  147.1820 O   0  0  0  0  0  0  0  0  0  0  0  0
  192.1670  175.3620  146.7440 C   0  0  0  0  0  2  0  0  0  0  0  0
  193.1360  176.5110  146.5680 C   0  0  0  0  0  2  0  0  0  0  0  0
  194.4670  176.0200  146.6310 O   0  0  0  0  0  0  0  0  0  0  0  0
  195.8200  174.4730  145.6210 O   0  0  0  0  0  0  0  0  0  0  0  0
  195.1320  175.5210  145.5090 C   0  0  0  0  0  0  0  0  0  0  0  0
  196.2410  176.7950  143.8440 O   0  0  0  0  0  1  0  0  0  0  0  0
  195.0220  176.1990  144.1770 C   0  0  1  0  0  3  0  0  0  0  0  0
  194.6210  175.1960  143.1070 C   0  0  0  0  0  2  0  0  0  0  0  0
  192.3800  175.8960  142.7010 O   0  0  0  0  0  0  0  0  0  0  0  0
  193.1470  174.9880  143.1190 C   0  0  0  0  0  0  0  0  0  0  0  0
  192.6180  173.7780  143.5570 O   0  0  0  0  0  1  0  0  0  0  0  0
  1  3  1  0  0  0  0
  3 12  1  0  0  0  0
  3  2  2  0  0  0  0
  4 11  2  0  0  0  0
  5  8  2  0  0  0  0
  6  7  1  0  0  0  0
  6 12  1  0  0  0  0
  8  2  1  0  0  0  0
  8 24  1  0  0  0  0
  9  1  2  0  0  0  0
  9  5  1  0  0  0  0
 10  6  2  0  0  0  0
 11 10  1  0  0  0  0
 11  1  1  0  0  0  0
 13  9  1  0  0  0  0
 14 13  1  0  0  0  0
 14 18  2  0  0  0  0
 15 17  2  0  0  0  0
 16 19  2  0  0  0  0
 16 15  1  0  0  0  0
 17 18  1  0  0  0  0
 19 14  1  0  0  0  0
 20 22  1  0  0  0  0
 22 23  1  0  0  0  0
 23 15  1  0  0  0  0
 23 21  2  0  0  0  0
 25 24  1  0  0  0  0
 26 27  1  0  0  0  0
 26 25  1  0  0  0  0
 29 28  2  0  0  0  0
 29 27  1  0  0  0  0
 31 30  1  6  0  0  0
 31 29  1  0  0  0  0
 32 34  1  0  0  0  0
 32 31  1  0  0  0  0
 33 34  2  0  0  0  0
 34 35  1  0  0  0  0
M  END
>  <MODEL>
5

>  <REMARK>
 VINA RESULT:      -6.3      3.095      5.638
  Name = 
  11 active torsions:
  status: ('A' for Active; 'I' for Inactive)
    1  A    between atoms: C_5  and  N_22
    2  A    between atoms: C_7  and  C_18
    3  A    between atoms: O_12  and  C_32
    4  A    between atoms: O_12  and  C_34
    5  A    between atoms: C_14  and  C_28
    6  A    between atoms: C_16  and  C_32
    7  A    between atoms: C_16  and  O_33
    8  A    between atoms: C_17  and  O_33
    9  A    between atoms: C_18  and  C_24
   10  A    between atoms: N_22  and  C_23
   11  A    between atoms: C_24  and  C_34
                            x       y       z     vdW  Elec       q    Type
                         _______ _______ _______ _____ _____    ______ ____

>  <TORSDO>
F 11

$$$$
=
 OpenBabel11042416583D

 35 37  0  0  1  0  0  0  0  0999 V2000
  193.1600  175.2520  144.0150 C   0  0  0  0  0  0  0  0  0  0  0  0
  192.9570  174.2210  141.8220 C   0  0  0  0  0  3  0  0  0  0  0  0
  193.6880  174.9800  142.7370 C   0  0  0  0  0  0  0  0  0  0  0  0
  193.5700  176.3780  146.0860 O   0  0  0  0  0  0  0  0  0  0  0  0
  191.1750  173.9790  143.4250 C   0  0  0  0  0  3  0  0  0  0  0  0
  195.7850  176.2560  143.3610 C   0  0  0  0  0  0  0  0  0  0  0  0
  197.1510  176.7480  143.0430 C   0  0  0  0  0  1  0  0  0  0  0  0
  191.7010  173.7170  142.1560 C   0  0  0  0  0  0  0  0  0  0  0  0
  191.8850  174.7400  144.3650 C   0  0  0  0  0  0  0  0  0  0  0  0
  195.2820  176.5040  144.5320 N   0  0  0  0  0  0  0  0  0  0  0  0
  193.9830  176.0660  144.9390 C   0  0  0  0  0  0  0  0  0  0  0  0
  195.0300  175.5020  142.3000 C   0  0  0  0  0  2  0  0  0  0  0  0
  191.3330  174.9920  145.6680 N   0  0  0  0  0  2  0  0  0  0  0  0
  190.1380  175.7180  145.9900 C   0  0  0  0  0  0  0  0  0  0  0  0
  187.8130  177.0580  146.6340 C   0  0  0  0  0  0  0  0  0  0  0  0
  187.9780  175.7530  146.9920 N   0  0  0  0  0  0  0  0  0  0  0  0
  188.8370  177.7040  145.9330 C   0  0  0  0  0  3  0  0  0  0  0  0
  189.9720  177.0210  145.6270 N   0  0  0  0  0  0  0  0  0  0  0  0
  189.1150  175.0710  146.6840 C   0  0  0  0  0  3  0  0  0  0  0  0
  184.1320  178.2140  146.5590 C   0  0  0  0  0  1  0  0  0  0  0  0
  186.5650  178.5670  147.9740 O   0  0  0  0  0  0  0  0  0  0  0  0
  185.3870  177.5590  146.2290 N   0  0  0  0  0  2  0  0  0  0  0  0
  186.5770  177.7720  146.9930 C   0  0  0  0  0  0  0  0  0  0  0  0
  190.9990  172.9580  141.2140 O   0  0  0  0  0  0  0  0  0  0  0  0
  190.1360  173.5440  140.2510 C   0  0  0  0  0  2  0  0  0  0  0  0
  188.7730  173.7720  140.8670 C   0  0  0  0  0  2  0  0  0  0  0  0
  188.3710  175.1160  140.6390 O   0  0  0  0  0  0  0  0  0  0  0  0
  189.3720  176.4580  142.2010 O   0  0  0  0  0  0  0  0  0  0  0  0
  188.3040  176.0580  141.6680 C   0  0  0  0  0  0  0  0  0  0  0  0
  186.6600  176.0700  143.3780 O   0  0  0  0  0  1  0  0  0  0  0  0
  186.9900  176.6090  142.1320 C   0  0  1  0  0  3  0  0  0  0  0  0
  187.0570  178.1250  142.2200 C   0  0  0  0  0  2  0  0  0  0  0  0
  185.7250  179.5950  143.5410 O   0  0  0  0  0  1  0  0  0  0  0  0
  185.7510  178.6750  142.6800 C   0  0  0  0  0  0  0  0  0  0  0  0
  184.5640  178.1990  142.1340 O   0  0  0  0  0  0  0  0  0  0  0  0
  1  9  1  0  0  0  0
  1 11  1  0  0  0  0
  2  8  2  0  0  0  0
  2  3  1  0  0  0  0
  3  1  2  0  0  0  0
  5  9  2  0  0  0  0
  6 10  2  0  0  0  0
  7  6  1  0  0  0  0
  8  5  1  0  0  0  0
  9 13  1  0  0  0  0
 10 11  1  0  0  0  0
 11  4  2  0  0  0  0
 12  3  1  0  0  0  0
 12  6  1  0  0  0  0
 13 14  1  0  0  0  0
 14 19  1  0  0  0  0
 15 16  1  0  0  0  0
 15 23  1  0  0  0  0
 17 15  2  0  0  0  0
 18 17  1  0  0  0  0
 18 14  2  0  0  0  0
 19 16  2  0  0  0  0
 22 20  1  0  0  0  0
 22 23  1  0  0  0  0
 23 21  2  0  0  0  0
 24  8  1  0  0  0  0
 25 26  1  0  0  0  0
 25 24  1  0  0  0  0
 27 26  1  0  0  0  0
 27 29  1  0  0  0  0
 29 31  1  0  0  0  0
 29 28  2  0  0  0  0
 31 32  1  0  0  0  0
 31 30  1  1  0  0  0
 32 34  1  0  0  0  0
 34 33  1  0  0  0  0
 35 34  2  0  0  0  0
M  END
>  <MODEL>
6

>  <REMARK>
 VINA RESULT:      -6.3      2.736      8.622
  Name = 
  11 active torsions:
  status: ('A' for Active; 'I' for Inactive)
    1  A    between atoms: C_5  and  N_22
    2  A    between atoms: C_7  and  C_18
    3  A    between atoms: O_12  and  C_32
    4  A    between atoms: O_12  and  C_34
    5  A    between atoms: C_14  and  C_28
    6  A    between atoms: C_16  and  C_32
    7  A    between atoms: C_16  and  O_33
    8  A    between atoms: C_17  and  O_33
    9  A    between atoms: C_18  and  C_24
   10  A    between atoms: N_22  and  C_23
   11  A    between atoms: C_24  and  C_34
                            x       y       z     vdW  Elec       q    Type
                         _______ _______ _______ _____ _____    ______ ____

>  <TORSDO>
F 11

$$$$
=
 OpenBabel11042416583D

 35 37  0  0  1  0  0  0  0  0999 V2000
  191.4090  174.4180  145.2140 C   0  0  0  0  0  0  0  0  0  0  0  0
  191.0050  176.2310  146.7850 C   0  0  0  0  0  3  0  0  0  0  0  0
  191.8940  175.3890  146.1140 C   0  0  0  0  0  0  0  0  0  0  0  0
  192.0480  172.6430  143.7430 O   0  0  0  0  0  0  0  0  0  0  0  0
  189.1450  175.1720  145.6780 C   0  0  0  0  0  3  0  0  0  0  0  0
  194.2600  174.6510  145.5950 C   0  0  0  0  0  0  0  0  0  0  0  0
  195.7310  174.7860  145.7610 C   0  0  0  0  0  1  0  0  0  0  0  0
  189.6310  176.1300  146.5750 C   0  0  0  0  0  0  0  0  0  0  0  0
  190.0140  174.3110  144.9920 C   0  0  0  0  0  0  0  0  0  0  0  0
  193.7970  173.7560  144.7750 N   0  0  0  0  0  0  0  0  0  0  0  0
  192.4030  173.5530  144.5370 C   0  0  0  0  0  0  0  0  0  0  0  0
  193.3620  175.5480  146.4030 C   0  0  0  0  0  2  0  0  0  0  0  0
  189.4970  173.3370  144.0680 N   0  0  0  0  0  2  0  0  0  0  0  0
  189.1640  173.5300  142.6850 C   0  0  0  0  0  0  0  0  0  0  0  0
  188.5150  173.9660  140.0390 C   0  0  0  0  0  0  0  0  0  0  0  0
  188.5680  175.0080  140.9170 N   0  0  0  0  0  0  0  0  0  0  0  0
  188.7910  172.6740  140.5020 C   0  0  0  0  0  3  0  0  0  0  0  0
  189.1080  172.4870  141.8110 N   0  0  0  0  0  0  0  0  0  0  0  0
  188.8840  174.8170  142.2260 C   0  0  0  0  0  3  0  0  0  0  0  0
  187.0860  175.6590  136.8790 C   0  0  0  0  0  1  0  0  0  0  0  0
  188.5720  173.3990  137.7350 O   0  0  0  0  0  0  0  0  0  0  0  0
  187.4160  175.3570  138.2630 N   0  0  0  0  0  2  0  0  0  0  0  0
  188.1820  174.2060  138.6260 C   0  0  0  0  0  0  0  0  0  0  0  0
  188.7710  176.9920  147.2620 O   0  0  0  0  0  0  0  0  0  0  0  0
  187.6840  177.6510  146.6290 C   0  0  0  0  0  2  0  0  0  0  0  0
  186.3800  177.1050  147.1670 C   0  0  0  0  0  2  0  0  0  0  0  0
  185.4650  176.9240  146.0950 O   0  0  0  0  0  0  0  0  0  0  0  0
  184.0610  178.7060  146.4070 O   0  0  0  0  0  0  0  0  0  0  0  0
  184.6840  177.9690  145.5980 C   0  0  0  0  0  0  0  0  0  0  0  0
  183.5080  179.0790  143.8620 O   0  0  0  0  0  1  0  0  0  0  0  0
  184.5920  178.2370  144.1270 C   0  0  1  0  0  3  0  0  0  0  0  0
  185.8790  178.8700  143.6250 C   0  0  0  0  0  2  0  0  0  0  0  0
  187.5800  178.3720  142.0320 O   0  0  0  0  0  0  0  0  0  0  0  0
  186.5240  177.9950  142.6080 C   0  0  0  0  0  0  0  0  0  0  0  0
  185.9850  176.7450  142.3220 O   0  0  0  0  0  1  0  0  0  0  0  0
  1  3  1  0  0  0  0
  3 12  1  0  0  0  0
  3  2  2  0  0  0  0
  4 11  2  0  0  0  0
  5  8  2  0  0  0  0
  6  7  1  0  0  0  0
  6 12  1  0  0  0  0
  8  2  1  0  0  0  0
  8 24  1  0  0  0  0
  9  1  2  0  0  0  0
  9  5  1  0  0  0  0
 10  6  2  0  0  0  0
 11 10  1  0  0  0  0
 11  1  1  0  0  0  0
 13  9  1  0  0  0  0
 14 13  1  0  0  0  0
 15 17  2  0  0  0  0
 15 16  1  0  0  0  0
 16 19  2  0  0  0  0
 17 18  1  0  0  0  0
 18 14  2  0  0  0  0
 19 14  1  0  0  0  0
 20 22  1  0  0  0  0
 21 23  2  0  0  0  0
 22 23  1  0  0  0  0
 23 15  1  0  0  0  0
 25 26  1  0  0  0  0
 25 24  1  0  0  0  0
 27 26  1  0  0  0  0
 29 27  1  0  0  0  0
 29 28  2  0  0  0  0
 31 30  1  1  0  0  0
 31 29  1  0  0  0  0
 32 31  1  0  0  0  0
 33 34  2  0  0  0  0
 34 32  1  0  0  0  0
 35 34  1  0  0  0  0
M  END
>  <MODEL>
7

>  <REMARK>
 VINA RESULT:      -6.2      2.547      7.546
  Name = 
  11 active torsions:
  status: ('A' for Active; 'I' for Inactive)
    1  A    between atoms: C_5  and  N_22
    2  A    between atoms: C_7  and  C_18
    3  A    between atoms: O_12  and  C_32
    4  A    between atoms: O_12  and  C_34
    5  A    between atoms: C_14  and  C_28
    6  A    between atoms: C_16  and  C_32
    7  A    between atoms: C_16  and  O_33
    8  A    between atoms: C_17  and  O_33
    9  A    between atoms: C_18  and  C_24
   10  A    between atoms: N_22  and  C_23
   11  A    between atoms: C_24  and  C_34
                            x       y       z     vdW  Elec       q    Type
                         _______ _______ _______ _____ _____    ______ ____

>  <TORSDO>
F 11

$$$$
=
 OpenBabel11042416583D

 35 37  0  0  1  0  0  0  0  0999 V2000
  187.3370  176.7440  144.6670 C   0  0  0  0  0  0  0  0  0  0  0  0
  187.9750  176.1160  146.9290 C   0  0  0  0  0  3  0  0  0  0  0  0
  187.0870  176.7450  146.0550 C   0  0  0  0  0  0  0  0  0  0  0  0
  186.5270  177.5010  142.5470 O   0  0  0  0  0  0  0  0  0  0  0  0
  189.3670  175.4680  145.0720 C   0  0  0  0  0  3  0  0  0  0  0  0
  184.9410  178.0250  145.6400 C   0  0  0  0  0  0  0  0  0  0  0  0
  183.6880  178.6580  146.1300 C   0  0  0  0  0  1  0  0  0  0  0  0
  189.1160  175.4770  146.4480 C   0  0  0  0  0  0  0  0  0  0  0  0
  188.4930  176.0930  144.1690 C   0  0  0  0  0  0  0  0  0  0  0  0
  185.1900  178.0220  144.3650 N   0  0  0  0  0  0  0  0  0  0  0  0
  186.3590  177.4310  143.7930 C   0  0  0  0  0  0  0  0  0  0  0  0
  185.8840  177.4270  146.6480 C   0  0  0  0  0  2  0  0  0  0  0  0
  188.7620  176.0660  142.7570 N   0  0  0  0  0  2  0  0  0  0  0  0
  189.1660  174.9420  141.9610 C   0  0  0  0  0  0  0  0  0  0  0  0
  189.8780  172.7660  140.4220 C   0  0  0  0  0  0  0  0  0  0  0  0
  188.5650  173.0890  140.5920 N   0  0  0  0  0  0  0  0  0  0  0  0
  190.8560  173.5520  141.0420 C   0  0  0  0  0  3  0  0  0  0  0  0
  190.4780  174.6180  141.7950 N   0  0  0  0  0  0  0  0  0  0  0  0
  188.1890  174.1570  141.3480 C   0  0  0  0  0  3  0  0  0  0  0  0
  189.7010  170.0480  137.6870 C   0  0  0  0  0  1  0  0  0  0  0  0
  191.3540  171.0230  139.7760 O   0  0  0  0  0  0  0  0  0  0  0  0
  189.3670  171.1620  138.5600 N   0  0  0  0  0  2  0  0  0  0  0  0
  190.2530  171.6130  139.5880 C   0  0  0  0  0  0  0  0  0  0  0  0
  189.9820  174.8550  147.3540 O   0  0  0  0  0  0  0  0  0  0  0  0
  191.1030  175.5190  147.9180 C   0  0  0  0  0  2  0  0  0  0  0  0
  192.3300  175.2380  147.0790 C   0  0  0  0  0  2  0  0  0  0  0  0
  192.9970  176.4600  146.7930 O   0  0  0  0  0  0  0  0  0  0  0  0
  194.5740  177.4570  145.4650 O   0  0  0  0  0  0  0  0  0  0  0  0
  193.5460  176.7330  145.5380 C   0  0  0  0  0  0  0  0  0  0  0  0
  192.3180  177.1790  143.5580 O   0  0  0  0  0  1  0  0  0  0  0  0
  192.9450  176.1660  144.2880 C   0  0  1  0  0  3  0  0  0  0  0  0
  194.0200  175.5020  143.4420 C   0  0  0  0  0  2  0  0  0  0  0  0
  193.6470  173.1730  143.1020 O   0  0  0  0  0  0  0  0  0  0  0  0
  194.1650  174.0690  143.8200 C   0  0  0  0  0  0  0  0  0  0  0  0
  194.9040  173.7170  144.9450 O   0  0  0  0  0  1  0  0  0  0  0  0
  1  3  1  0  0  0  0
  3 12  1  0  0  0  0
  3  2  2  0  0  0  0
  4 11  2  0  0  0  0
  5  8  2  0  0  0  0
  6  7  1  0  0  0  0
  6 12  1  0  0  0  0
  8  2  1  0  0  0  0
  8 24  1  0  0  0  0
  9  1  2  0  0  0  0
  9  5  1  0  0  0  0
 10  6  2  0  0  0  0
 11 10  1  0  0  0  0
 11  1  1  0  0  0  0
 13  9  1  0  0  0  0
 14 13  1  0  0  0  0
 15 16  1  0  0  0  0
 15 17  2  0  0  0  0
 16 19  2  0  0  0  0
 17 18  1  0  0  0  0
 18 14  2  0  0  0  0
 19 14  1  0  0  0  0
 20 22  1  0  0  0  0
 22 23  1  0  0  0  0
 23 21  2  0  0  0  0
 23 15  1  0  0  0  0
 24 25  1  0  0  0  0
 26 25  1  0  0  0  0
 27 26  1  0  0  0  0
 28 29  2  0  0  0  0
 29 27  1  0  0  0  0
 31 30  1  6  0  0  0
 31 29  1  0  0  0  0
 32 34  1  0  0  0  0
 32 31  1  0  0  0  0
 33 34  2  0  0  0  0
 34 35  1  0  0  0  0
M  END
>  <MODEL>
8

>  <REMARK>
 VINA RESULT:      -6.2      2.821      5.110
  Name = 
  11 active torsions:
  status: ('A' for Active; 'I' for Inactive)
    1  A    between atoms: C_5  and  N_22
    2  A    between atoms: C_7  and  C_18
    3  A    between atoms: O_12  and  C_32
    4  A    between atoms: O_12  and  C_34
    5  A    between atoms: C_14  and  C_28
    6  A    between atoms: C_16  and  C_32
    7  A    between atoms: C_16  and  O_33
    8  A    between atoms: C_17  and  O_33
    9  A    between atoms: C_18  and  C_24
   10  A    between atoms: N_22  and  C_23
   11  A    between atoms: C_24  and  C_34
                            x       y       z     vdW  Elec       q    Type
                         _______ _______ _______ _____ _____    ______ ____

>  <TORSDO>
F 11

$$$$
=
 OpenBabel11042416583D

 35 37  0  0  1  0  0  0  0  0999 V2000
  193.6690  175.1090  144.6610 C   0  0  0  0  0  0  0  0  0  0  0  0
  193.6170  172.9010  143.6420 C   0  0  0  0  0  3  0  0  0  0  0  0
  194.2660  174.1180  143.8550 C   0  0  0  0  0  0  0  0  0  0  0  0
  193.9270  177.3260  145.5240 O   0  0  0  0  0  0  0  0  0  0  0  0
  191.7800  173.6220  145.0250 C   0  0  0  0  0  3  0  0  0  0  0  0
  196.2650  175.6370  143.5160 C   0  0  0  0  0  0  0  0  0  0  0  0
  197.6160  175.9030  142.9560 C   0  0  0  0  0  1  0  0  0  0  0  0
  192.3750  172.6450  144.2200 C   0  0  0  0  0  0  0  0  0  0  0  0
  192.4080  174.8550  145.2560 C   0  0  0  0  0  0  0  0  0  0  0  0
  195.6970  176.5430  144.2530 N   0  0  0  0  0  0  0  0  0  0  0  0
  194.4070  176.3800  144.8460 C   0  0  0  0  0  0  0  0  0  0  0  0
  195.5970  174.3290  143.1860 C   0  0  0  0  0  2  0  0  0  0  0  0
  191.7860  175.8460  146.0930 N   0  0  0  0  0  2  0  0  0  0  0  0
  190.4550  176.3730  145.9870 C   0  0  0  0  0  0  0  0  0  0  0  0
  187.9190  177.4310  145.7380 C   0  0  0  0  0  0  0  0  0  0  0  0
  188.9360  177.8860  144.9520 N   0  0  0  0  0  0  0  0  0  0  0  0
  188.1830  176.4250  146.6740 C   0  0  0  0  0  3  0  0  0  0  0  0
  189.4410  175.9210  146.7770 N   0  0  0  0  0  0  0  0  0  0  0  0
  190.1950  177.3800  145.0570 C   0  0  0  0  0  3  0  0  0  0  0  0
  184.2320  178.2710  146.5070 C   0  0  0  0  0  1  0  0  0  0  0  0
  186.2780  178.7070  144.5920 O   0  0  0  0  0  0  0  0  0  0  0  0
  185.5750  177.7190  146.5870 N   0  0  0  0  0  2  0  0  0  0  0  0
  186.5650  177.9890  145.5920 C   0  0  0  0  0  0  0  0  0  0  0  0
  191.7560  171.4120  143.9860 O   0  0  0  0  0  0  0  0  0  0  0  0
  191.5130  170.9160  142.6780 C   0  0  0  0  0  2  0  0  0  0  0  0
  190.0660  171.1610  142.3070 C   0  0  0  0  0  2  0  0  0  0  0  0
  189.9320  172.4660  141.7640 O   0  0  0  0  0  0  0  0  0  0  0  0
  187.6740  172.7450  142.0220 O   0  0  0  0  0  0  0  0  0  0  0  0
  188.8190  173.2690  142.0200 C   0  0  0  0  0  0  0  0  0  0  0  0
  190.3200  175.0820  142.3190 O   0  0  0  0  0  1  0  0  0  0  0  0
  188.9670  174.7320  142.3110 C   0  0  1  0  0  3  0  0  0  0  0  0
  188.2210  175.5540  141.2720 C   0  0  0  0  0  2  0  0  0  0  0  0
  187.1960  177.6720  141.6440 O   0  0  0  0  0  0  0  0  0  0  0  0
  187.2290  176.4460  141.9330 C   0  0  0  0  0  0  0  0  0  0  0  0
  186.3150  175.9200  142.8400 O   0  0  0  0  0  1  0  0  0  0  0  0
  1 11  1  0  0  0  0
  1  9  1  0  0  0  0
  2  3  1  0  0  0  0
  2  8  2  0  0  0  0
  3  1  2  0  0  0  0
  5  9  2  0  0  0  0
  6 10  2  0  0  0  0
  7  6  1  0  0  0  0
  8  5  1  0  0  0  0
  9 13  1  0  0  0  0
 10 11  1  0  0  0  0
 11  4  2  0  0  0  0
 12  6  1  0  0  0  0
 12  3  1  0  0  0  0
 14 13  1  0  0  0  0
 14 18  2  0  0  0  0
 15 17  2  0  0  0  0
 16 19  2  0  0  0  0
 16 15  1  0  0  0  0
 17 18  1  0  0  0  0
 19 14  1  0  0  0  0
 20 22  1  0  0  0  0
 21 23  2  0  0  0  0
 23 15  1  0  0  0  0
 23 22  1  0  0  0  0
 24  8  1  0  0  0  0
 25 24  1  0  0  0  0
 26 25  1  0  0  0  0
 27 29  1  0  0  0  0
 27 26  1  0  0  0  0
 29 28  2  0  0  0  0
 29 31  1  0  0  0  0
 31 30  1  6  0  0  0
 32 34  1  0  0  0  0
 32 31  1  0  0  0  0
 33 34  2  0  0  0  0
 34 35  1  0  0  0  0
M  END
>  <MODEL>
9

>  <REMARK>
 VINA RESULT:      -6.2      3.140      8.827
  Name = 
  11 active torsions:
  status: ('A' for Active; 'I' for Inactive)
    1  A    between atoms: C_5  and  N_22
    2  A    between atoms: C_7  and  C_18
    3  A    between atoms: O_12  and  C_32
    4  A    between atoms: O_12  and  C_34
    5  A    between atoms: C_14  and  C_28
    6  A    between atoms: C_16  and  C_32
    7  A    between atoms: C_16  and  O_33
    8  A    between atoms: C_17  and  O_33
    9  A    between atoms: C_18  and  C_24
   10  A    between atoms: N_22  and  C_23
   11  A    between atoms: C_24  and  C_34
                            x       y       z     vdW  Elec       q    Type
                         _______ _______ _______ _____ _____    ______ ____

>  <TORSDO>
F 11

$$$$
