=
 OpenBabel11042417083D

 38 41  0  0  1  0  0  0  0  0999 V2000
  186.8900  177.8850  144.5390 C   0  0  0  0  0  2  0  0  0  0  0  0
  187.3290  175.8250  147.5300 O   0  0  0  0  0  0  0  0  0  0  0  0
  186.5850  177.2090  145.7930 N   0  0  0  0  0  0  0  0  0  0  0  0
  187.6240  176.5520  146.5420 C   0  0  0  0  0  0  0  0  0  0  0  0
  189.5420  175.6030  145.4070 O   0  0  0  0  0  0  0  0  0  0  0  0
  190.0850  174.6390  146.2800 C   0  0  0  0  0  2  0  0  0  0  0  0
  189.9450  177.1430  147.3430 C   0  0  0  0  0  2  0  0  0  0  0  0
  189.0640  176.7130  146.1540 C   0  0  2  0  0  3  0  0  0  0  0  0
  191.3940  175.1450  146.9050 C   0  0  2  0  0  3  0  0  0  0  0  0
  191.3730  176.6600  147.1330 C   0  0  0  0  0  2  0  0  0  0  0  0
  192.6180  174.7200  146.0970 C   0  0  0  0  0  2  0  0  0  0  0  0
  193.3840  175.9110  145.5310 C   0  0  0  0  0  2  0  0  0  0  0  0
  194.8110  175.9150  146.0520 C   0  0  0  0  0  2  0  0  0  0  0  0
  196.3680  173.9520  145.9890 C   0  0  0  0  0  1  0  0  0  0  0  0
  195.7140  175.0560  145.1800 C   0  0  0  0  0  2  0  0  0  0  0  0
  185.1800  177.0150  146.1400 C   0  0  0  0  0  2  0  0  0  0  0  0
  183.8730  179.0190  145.9250 O   0  0  0  0  0  1  0  0  0  0  0  0
  184.5920  178.2420  146.8330 C   0  0  2  0  0  3  0  0  0  0  0  0
  185.6350  179.0420  147.4500 N   0  0  0  0  0  1  0  0  0  0  0  0
  185.8810  177.4880  143.4730 C   0  0  0  0  0  2  0  0  0  0  0  0
  188.5120  174.4170  139.5920 C   0  0  0  0  0  3  0  0  0  0  0  0
  187.0050  176.4170  140.0350 C   0  0  0  0  0  0  0  0  0  0  0  0
  188.0180  175.0570  141.6980 C   0  0  0  0  0  0  0  0  0  0  0  0
  185.5100  178.2360  140.7040 C   0  0  0  0  0  1  0  0  0  0  0  0
  188.8110  173.9940  141.8030 N   0  0  0  0  0  0  0  0  0  0  0  0
  187.8410  175.3630  140.3780 C   0  0  0  0  0  0  0  0  0  0  0  0
  186.8130  176.7110  138.8220 O   0  0  0  0  0  0  0  0  0  0  0  0
  189.7060  172.3030  140.5880 C   0  0  0  0  0  0  0  0  0  0  0  0
  186.3870  177.1180  141.0440 N   0  0  0  0  0  0  0  0  0  0  0  0
  189.7940  171.9410  141.8890 C   0  0  0  0  0  0  0  0  0  0  0  0
  189.0950  173.6090  140.5720 C   0  0  0  0  0  0  0  0  0  0  0  0
  189.1550  172.9860  142.7840 C   0  0  0  0  0  3  0  0  0  0  0  0
  186.5800  176.7680  142.3670 C   0  0  2  0  0  3  0  0  0  0  0  0
  187.3920  175.7180  142.6960 N   0  0  0  0  0  0  0  0  0  0  0  0
  190.0560  171.5750  139.4470 O   0  0  0  0  0  0  0  0  0  0  0  0
  191.3690  171.0900  139.2130 C   0  0  0  0  0  1  0  0  0  0  0  0
  190.3990  170.7910  142.3990 O   0  0  0  0  0  0  0  0  0  0  0  0
  191.6680  170.8150  143.0320 C   0  0  0  0  0  1  0  0  0  0  0  0
  1  3  1  0  0  0  0
  3 16  1  0  0  0  0
  3  4  1  0  0  0  0
  4  2  2  0  0  0  0
  5  8  1  0  0  0  0
  5  6  1  0  0  0  0
  6  9  1  0  0  0  0
  8  4  1  1  0  0  0
  8  7  1  0  0  0  0
  9 11  1  6  0  0  0
  9 10  1  0  0  0  0
 10  7  1  0  0  0  0
 12 13  1  0  0  0  0
 12 11  1  0  0  0  0
 15 14  1  0  0  0  0
 15 13  1  0  0  0  0
 16 18  1  0  0  0  0
 18 17  1  6  0  0  0
 18 19  1  0  0  0  0
 20  1  1  0  0  0  0
 21 26  2  0  0  0  0
 21 31  1  0  0  0  0
 22 26  1  0  0  0  0
 22 29  1  0  0  0  0
 23 25  1  0  0  0  0
 23 34  2  0  0  0  0
 24 29  1  0  0  0  0
 25 32  1  0  0  0  0
 26 23  1  0  0  0  0
 27 22  2  0  0  0  0
 28 30  1  0  0  0  0
 29 33  1  0  0  0  0
 30 37  1  0  0  0  0
 30 32  2  0  0  0  0
 31 28  2  0  0  0  0
 31 25  1  0  0  0  0
 33 34  1  0  0  0  0
 33 20  1  6  0  0  0
 35 28  1  0  0  0  0
 36 35  1  0  0  0  0
 37 38  1  0  0  0  0
M  END
>  <MODEL>
1

>  <REMARK>
 VINA RESULT:      -6.9      0.000      0.000
  Name = 
  12 active torsions:
  status: ('A' for Active; 'I' for Inactive)
    1  A    between atoms: C_4  and  C_12
    2  A    between atoms: C_4  and  N_21
    3  A    between atoms: O_9  and  C_14
    4  A    between atoms: C_12  and  C_24
    5  A    between atoms: C_13  and  C_32
    6  A    between atoms: C_16  and  O_28
    7  A    between atoms: N_21  and  C_32
    8  A    between atoms: C_22  and  C_30
    9  A    between atoms: C_26  and  C_31
   10  A    between atoms: C_26  and  C_35
   11  A    between atoms: C_27  and  C_38
   12  A    between atoms: C_30  and  C_31
                            x       y       z     vdW  Elec       q    Type
                         _______ _______ _______ _____ _____    ______ ____

>  <TORSDO>
F 12

$$$$
=
 OpenBabel11042417083D

 38 41  0  0  1  0  0  0  0  0999 V2000
  193.3840  172.8400  144.1270 C   0  0  0  0  0  2  0  0  0  0  0  0
  194.3800  175.5760  146.3420 O   0  0  0  0  0  0  0  0  0  0  0  0
  194.2310  173.7170  144.9250 N   0  0  0  0  0  0  0  0  0  0  0  0
  193.6490  174.7090  145.7910 C   0  0  0  0  0  0  0  0  0  0  0  0
  191.4780  175.5130  145.0750 O   0  0  0  0  0  0  0  0  0  0  0  0
  191.3800  176.8460  145.5220 C   0  0  0  0  0  2  0  0  0  0  0  0
  191.8290  175.0380  147.5100 C   0  0  0  0  0  2  0  0  0  0  0  0
  192.1690  174.7310  146.0390 C   0  0  2  0  0  3  0  0  0  0  0  0
  190.4170  176.9500  146.7140 C   0  0  2  0  0  3  0  0  0  0  0  0
  190.4610  175.7000  147.6000 C   0  0  0  0  0  2  0  0  0  0  0  0
  188.9890  177.2690  146.2730 C   0  0  0  0  0  2  0  0  0  0  0  0
  188.0040  176.1690  146.6510 C   0  0  0  0  0  2  0  0  0  0  0  0
  186.7100  176.7760  147.1670 C   0  0  0  0  0  2  0  0  0  0  0  0
  184.5590  177.8140  146.4070 C   0  0  0  0  0  1  0  0  0  0  0  0
  185.6510  176.8130  146.0760 C   0  0  0  0  0  2  0  0  0  0  0  0
  195.6640  173.7240  144.6430 C   0  0  0  0  0  2  0  0  0  0  0  0
  197.0420  173.5710  146.6060 O   0  0  0  0  0  1  0  0  0  0  0  0
  196.4340  172.8180  145.6020 C   0  0  2  0  0  3  0  0  0  0  0  0
  197.4350  172.0400  144.8930 N   0  0  0  0  0  1  0  0  0  0  0  0
  193.5570  173.1490  142.6490 C   0  0  0  0  0  2  0  0  0  0  0  0
  188.5610  174.1890  140.3300 C   0  0  0  0  0  3  0  0  0  0  0  0
  190.5480  172.6040  140.4400 C   0  0  0  0  0  0  0  0  0  0  0  0
  190.2440  174.5330  141.7930 C   0  0  0  0  0  0  0  0  0  0  0  0
  192.5950  171.2820  140.6600 C   0  0  0  0  0  1  0  0  0  0  0  0
  189.3750  175.5240  141.9790 N   0  0  0  0  0  0  0  0  0  0  0  0
  189.7720  173.6890  140.8280 C   0  0  0  0  0  0  0  0  0  0  0  0
  190.1410  171.8180  139.5400 O   0  0  0  0  0  0  0  0  0  0  0  0
  187.5560  176.5050  141.0480 C   0  0  0  0  0  0  0  0  0  0  0  0
  191.7670  172.4210  141.0490 N   0  0  0  0  0  0  0  0  0  0  0  0
  188.0750  177.3930  141.9270 C   0  0  0  0  0  0  0  0  0  0  0  0
  188.3920  175.3310  141.1170 C   0  0  0  0  0  0  0  0  0  0  0  0
  189.3440  176.8500  142.5570 C   0  0  0  0  0  3  0  0  0  0  0  0
  192.2160  173.3070  142.0100 C   0  0  2  0  0  3  0  0  0  0  0  0
  191.4530  174.3810  142.3750 N   0  0  0  0  0  0  0  0  0  0  0  0
  186.4750  176.6610  140.1740 O   0  0  0  0  0  0  0  0  0  0  0  0
  186.6320  177.0000  138.8050 C   0  0  0  0  0  1  0  0  0  0  0  0
  187.5470  178.6400  142.2670 O   0  0  0  0  0  0  0  0  0  0  0  0
  186.2500  178.7920  142.8230 C   0  0  0  0  0  1  0  0  0  0  0  0
  1  3  1  0  0  0  0
  3  4  1  0  0  0  0
  4  2  2  0  0  0  0
  5  6  1  0  0  0  0
  5  8  1  0  0  0  0
  6  9  1  0  0  0  0
  7 10  1  0  0  0  0
  8  4  1  1  0  0  0
  8  7  1  0  0  0  0
  9 11  1  6  0  0  0
  9 10  1  0  0  0  0
 11 12  1  0  0  0  0
 12 13  1  0  0  0  0
 15 14  1  0  0  0  0
 15 13  1  0  0  0  0
 16  3  1  0  0  0  0
 16 18  1  0  0  0  0
 18 19  1  6  0  0  0
 18 17  1  0  0  0  0
 20  1  1  0  0  0  0
 21 26  2  0  0  0  0
 21 31  1  0  0  0  0
 22 26  1  0  0  0  0
 22 29  1  0  0  0  0
 23 25  1  0  0  0  0
 23 34  2  0  0  0  0
 24 29  1  0  0  0  0
 25 32  1  0  0  0  0
 26 23  1  0  0  0  0
 27 22  2  0  0  0  0
 28 31  2  0  0  0  0
 28 30  1  0  0  0  0
 29 33  1  0  0  0  0
 30 37  1  0  0  0  0
 30 32  2  0  0  0  0
 31 25  1  0  0  0  0
 33 34  1  0  0  0  0
 33 20  1  6  0  0  0
 35 28  1  0  0  0  0
 36 35  1  0  0  0  0
 37 38  1  0  0  0  0
M  END
>  <MODEL>
2

>  <REMARK>
 VINA RESULT:      -6.6      2.895      7.329
  Name = 
  12 active torsions:
  status: ('A' for Active; 'I' for Inactive)
    1  A    between atoms: C_4  and  C_12
    2  A    between atoms: C_4  and  N_21
    3  A    between atoms: O_9  and  C_14
    4  A    between atoms: C_12  and  C_24
    5  A    between atoms: C_13  and  C_32
    6  A    between atoms: C_16  and  O_28
    7  A    between atoms: N_21  and  C_32
    8  A    between atoms: C_22  and  C_30
    9  A    between atoms: C_26  and  C_31
   10  A    between atoms: C_26  and  C_35
   11  A    between atoms: C_27  and  C_38
   12  A    between atoms: C_30  and  C_31
                            x       y       z     vdW  Elec       q    Type
                         _______ _______ _______ _____ _____    ______ ____

>  <TORSDO>
F 12

$$$$
=
 OpenBabel11042417083D

 38 41  0  0  1  0  0  0  0  0999 V2000
  193.3970  174.1920  143.3410 C   0  0  0  0  0  2  0  0  0  0  0  0
  193.7040  176.9950  145.6710 O   0  0  0  0  0  0  0  0  0  0  0  0
  193.9770  175.3210  144.0560 N   0  0  0  0  0  0  0  0  0  0  0  0
  193.2850  175.9170  145.1690 C   0  0  0  0  0  0  0  0  0  0  0  0
  190.8720  175.7120  145.0850 O   0  0  0  0  0  0  0  0  0  0  0  0
  190.3530  176.8410  145.7490 C   0  0  0  0  0  2  0  0  0  0  0  0
  192.0250  175.3260  147.2760 C   0  0  0  0  0  2  0  0  0  0  0  0
  192.0550  175.2710  145.7370 C   0  0  2  0  0  3  0  0  0  0  0  0
  189.7910  176.4530  147.1240 C   0  0  2  0  0  3  0  0  0  0  0  0
  190.5850  175.3110  147.7690 C   0  0  0  0  0  2  0  0  0  0  0  0
  188.2990  176.1290  147.0650 C   0  0  0  0  0  2  0  0  0  0  0  0
  187.5010  177.1940  146.3220 C   0  0  0  0  0  2  0  0  0  0  0  0
  186.2460  176.5860  145.7190 C   0  0  0  0  0  2  0  0  0  0  0  0
  185.2620  178.2990  147.2610 C   0  0  0  0  0  1  0  0  0  0  0  0
  185.0060  177.0210  146.4840 C   0  0  0  0  0  2  0  0  0  0  0  0
  195.1460  175.9720  143.4710 C   0  0  0  0  0  2  0  0  0  0  0  0
  197.2850  174.9410  143.1040 O   0  0  0  0  0  1  0  0  0  0  0  0
  196.4470  175.4630  144.0880 C   0  0  2  0  0  3  0  0  0  0  0  0
  196.1840  174.4550  145.1000 N   0  0  0  0  0  1  0  0  0  0  0  0
  193.0750  174.5900  141.9100 C   0  0  0  0  0  2  0  0  0  0  0  0
  187.5330  174.9650  141.1620 C   0  0  0  0  0  3  0  0  0  0  0  0
  189.6220  173.5600  140.7950 C   0  0  0  0  0  0  0  0  0  0  0  0
  189.5280  175.6060  141.9980 C   0  0  0  0  0  0  0  0  0  0  0  0
  191.7720  172.4330  140.4890 C   0  0  0  0  0  1  0  0  0  0  0  0
  188.6520  176.5430  142.3540 N   0  0  0  0  0  0  0  0  0  0  0  0
  188.8840  174.6200  141.3050 C   0  0  0  0  0  0  0  0  0  0  0  0
  189.0530  172.6440  140.1380 O   0  0  0  0  0  0  0  0  0  0  0  0
  186.5430  177.2660  141.9460 C   0  0  0  0  0  0  0  0  0  0  0  0
  190.9790  173.5430  141.0120 N   0  0  0  0  0  0  0  0  0  0  0  0
  187.2010  178.2880  142.5390 C   0  0  0  0  0  0  0  0  0  0  0  0
  187.4830  176.1760  141.8580 C   0  0  0  0  0  0  0  0  0  0  0  0
  188.6510  177.9220  142.7920 C   0  0  0  0  0  3  0  0  0  0  0  0
  191.5960  174.5680  141.7040 C   0  0  2  0  0  3  0  0  0  0  0  0
  190.8650  175.6170  142.1900 N   0  0  0  0  0  0  0  0  0  0  0  0
  185.2400  177.2340  141.4380 O   0  0  0  0  0  0  0  0  0  0  0  0
  184.7610  178.1670  140.4820 C   0  0  0  0  0  1  0  0  0  0  0  0
  186.6660  179.5230  142.9130 O   0  0  0  0  0  0  0  0  0  0  0  0
  185.6110  179.6420  143.8530 C   0  0  0  0  0  1  0  0  0  0  0  0
  1  3  1  0  0  0  0
  3  4  1  0  0  0  0
  4  2  2  0  0  0  0
  5  8  1  0  0  0  0
  5  6  1  0  0  0  0
  6  9  1  0  0  0  0
  7 10  1  0  0  0  0
  8  4  1  6  0  0  0
  8  7  1  0  0  0  0
  9 11  1  6  0  0  0
  9 10  1  0  0  0  0
 12 11  1  0  0  0  0
 13 12  1  0  0  0  0
 13 15  1  0  0  0  0
 15 14  1  0  0  0  0
 16  3  1  0  0  0  0
 16 18  1  0  0  0  0
 18 17  1  6  0  0  0
 18 19  1  0  0  0  0
 20  1  1  0  0  0  0
 21 26  2  0  0  0  0
 21 31  1  0  0  0  0
 22 29  1  0  0  0  0
 22 26  1  0  0  0  0
 23 34  2  0  0  0  0
 23 25  1  0  0  0  0
 24 29  1  0  0  0  0
 25 32  1  0  0  0  0
 26 23  1  0  0  0  0
 27 22  2  0  0  0  0
 28 30  1  0  0  0  0
 29 33  1  0  0  0  0
 30 32  2  0  0  0  0
 30 37  1  0  0  0  0
 31 28  2  0  0  0  0
 31 25  1  0  0  0  0
 33 20  1  6  0  0  0
 33 34  1  0  0  0  0
 35 28  1  0  0  0  0
 36 35  1  0  0  0  0
 37 38  1  0  0  0  0
M  END
>  <MODEL>
3

>  <REMARK>
 VINA RESULT:      -6.4      2.809      7.218
  Name = 
  12 active torsions:
  status: ('A' for Active; 'I' for Inactive)
    1  A    between atoms: C_4  and  C_12
    2  A    between atoms: C_4  and  N_21
    3  A    between atoms: O_9  and  C_14
    4  A    between atoms: C_12  and  C_24
    5  A    between atoms: C_13  and  C_32
    6  A    between atoms: C_16  and  O_28
    7  A    between atoms: N_21  and  C_32
    8  A    between atoms: C_22  and  C_30
    9  A    between atoms: C_26  and  C_31
   10  A    between atoms: C_26  and  C_35
   11  A    between atoms: C_27  and  C_38
   12  A    between atoms: C_30  and  C_31
                            x       y       z     vdW  Elec       q    Type
                         _______ _______ _______ _____ _____    ______ ____

>  <TORSDO>
F 12

$$$$
=
 OpenBabel11042417083D

 38 41  0  0  1  0  0  0  0  0999 V2000
  193.3910  176.7660  142.4050 C   0  0  0  0  0  2  0  0  0  0  0  0
  194.8730  174.2930  140.1530 O   0  0  0  0  0  0  0  0  0  0  0  0
  194.3240  176.1500  141.4710 N   0  0  0  0  0  0  0  0  0  0  0  0
  193.9980  174.9080  140.8210 C   0  0  0  0  0  0  0  0  0  0  0  0
  192.4750  173.5300  142.1060 O   0  0  0  0  0  0  0  0  0  0  0  0
  192.8090  172.1910  141.8170 C   0  0  0  0  0  2  0  0  0  0  0  0
  192.1510  173.6690  139.6250 C   0  0  0  0  0  2  0  0  0  0  0  0
  192.6200  174.3250  140.9380 C   0  0  2  0  0  3  0  0  0  0  0  0
  191.7520  171.5500  140.9050 C   0  0  2  0  0  3  0  0  0  0  0  0
  191.1480  172.5630  139.9250 C   0  0  0  0  0  2  0  0  0  0  0  0
  190.6650  170.8320  141.7020 C   0  0  0  0  0  2  0  0  0  0  0  0
  189.4700  171.7300  141.9980 C   0  0  0  0  0  2  0  0  0  0  0  0
  189.2910  171.8910  143.4980 C   0  0  0  0  0  2  0  0  0  0  0  0
  189.8670  173.3500  145.4530 C   0  0  0  0  0  1  0  0  0  0  0  0
  189.6830  173.2910  143.9480 C   0  0  0  0  0  2  0  0  0  0  0  0
  195.6770  176.6950  141.3990 C   0  0  0  0  0  2  0  0  0  0  0  0
  197.0750  177.0450  143.3220 O   0  0  0  0  0  1  0  0  0  0  0  0
  196.5960  176.0700  142.4470 C   0  0  2  0  0  3  0  0  0  0  0  0
  197.7090  175.3790  141.8190 N   0  0  0  0  0  1  0  0  0  0  0  0
  193.6390  176.2460  143.8110 C   0  0  0  0  0  2  0  0  0  0  0  0
  188.8380  176.9310  146.6220 C   0  0  0  0  0  3  0  0  0  0  0  0
  191.3600  176.6500  146.7900 C   0  0  0  0  0  0  0  0  0  0  0  0
  190.1250  176.8440  144.7710 C   0  0  0  0  0  0  0  0  0  0  0  0
  193.7790  176.2880  146.7000 C   0  0  0  0  0  1  0  0  0  0  0  0
  188.8700  176.9880  144.3510 N   0  0  0  0  0  0  0  0  0  0  0  0
  190.1490  176.8380  146.1370 C   0  0  0  0  0  0  0  0  0  0  0  0
  191.4080  176.6260  148.0520 O   0  0  0  0  0  0  0  0  0  0  0  0
  186.7220  176.8950  145.0680 C   0  0  0  0  0  0  0  0  0  0  0  0
  192.4940  176.4800  146.0320 N   0  0  0  0  0  0  0  0  0  0  0  0
  186.6910  176.7950  143.7190 C   0  0  0  0  0  0  0  0  0  0  0  0
  188.1120  177.0300  145.4320 C   0  0  0  0  0  0  0  0  0  0  0  0
  188.0960  176.7790  143.1460 C   0  0  0  0  0  3  0  0  0  0  0  0
  192.4250  176.4750  144.6510 C   0  0  2  0  0  3  0  0  0  0  0  0
  191.2270  176.6450  144.0150 N   0  0  0  0  0  0  0  0  0  0  0  0
  185.6660  176.8200  145.9810 O   0  0  0  0  0  0  0  0  0  0  0  0
  184.7690  177.8950  146.2140 C   0  0  0  0  0  1  0  0  0  0  0  0
  185.5540  176.7360  142.9110 O   0  0  0  0  0  0  0  0  0  0  0  0
  184.8580  177.8990  142.4900 C   0  0  0  0  0  1  0  0  0  0  0  0
  1 20  1  0  0  0  0
  2  4  2  0  0  0  0
  3  1  1  0  0  0  0
  4  3  1  0  0  0  0
  6  5  1  0  0  0  0
  7 10  1  0  0  0  0
  7  8  1  0  0  0  0
  8  4  1  6  0  0  0
  8  5  1  0  0  0  0
  9 11  1  1  0  0  0
  9  6  1  0  0  0  0
 10  9  1  0  0  0  0
 11 12  1  0  0  0  0
 12 13  1  0  0  0  0
 13 15  1  0  0  0  0
 15 14  1  0  0  0  0
 16  3  1  0  0  0  0
 16 18  1  0  0  0  0
 18 19  1  6  0  0  0
 18 17  1  0  0  0  0
 22 27  2  0  0  0  0
 23 26  1  0  0  0  0
 25 23  1  0  0  0  0
 25 31  1  0  0  0  0
 26 21  2  0  0  0  0
 26 22  1  0  0  0  0
 28 31  2  0  0  0  0
 28 35  1  0  0  0  0
 29 24  1  0  0  0  0
 29 22  1  0  0  0  0
 30 28  1  0  0  0  0
 31 21  1  0  0  0  0
 32 30  2  0  0  0  0
 32 25  1  0  0  0  0
 33 20  1  1  0  0  0
 33 29  1  0  0  0  0
 34 33  1  0  0  0  0
 34 23  2  0  0  0  0
 35 36  1  0  0  0  0
 37 30  1  0  0  0  0
 38 37  1  0  0  0  0
M  END
>  <MODEL>
4

>  <REMARK>
 VINA RESULT:      -6.4      3.384      8.310
  Name = 
  12 active torsions:
  status: ('A' for Active; 'I' for Inactive)
    1  A    between atoms: C_4  and  C_12
    2  A    between atoms: C_4  and  N_21
    3  A    between atoms: O_9  and  C_14
    4  A    between atoms: C_12  and  C_24
    5  A    between atoms: C_13  and  C_32
    6  A    between atoms: C_16  and  O_28
    7  A    between atoms: N_21  and  C_32
    8  A    between atoms: C_22  and  C_30
    9  A    between atoms: C_26  and  C_31
   10  A    between atoms: C_26  and  C_35
   11  A    between atoms: C_27  and  C_38
   12  A    between atoms: C_30  and  C_31
                            x       y       z     vdW  Elec       q    Type
                         _______ _______ _______ _____ _____    ______ ____

>  <TORSDO>
F 12

$$$$
=
 OpenBabel11042417083D

 38 41  0  0  1  0  0  0  0  0999 V2000
  192.4790  174.3370  143.5950 C   0  0  0  0  0  2  0  0  0  0  0  0
  192.0950  175.1410  147.1430 O   0  0  0  0  0  0  0  0  0  0  0  0
  192.7790  174.4350  145.0180 N   0  0  0  0  0  0  0  0  0  0  0  0
  191.7800  174.8930  145.9480 C   0  0  0  0  0  0  0  0  0  0  0  0
  190.2250  176.1990  144.6270 O   0  0  0  0  0  0  0  0  0  0  0  0
  189.9550  177.3660  145.3690 C   0  0  0  0  0  2  0  0  0  0  0  0
  189.3720  175.0550  146.6880 C   0  0  0  0  0  2  0  0  0  0  0  0
  190.3600  175.0910  145.5060 C   0  0  2  0  0  3  0  0  0  0  0  0
  188.5450  177.3120  145.9760 C   0  0  2  0  0  3  0  0  0  0  0  0
  188.1380  175.8850  146.3590 C   0  0  0  0  0  2  0  0  0  0  0  0
  187.5030  177.9630  145.0690 C   0  0  0  0  0  2  0  0  0  0  0  0
  186.1410  177.2880  145.1690 C   0  0  0  0  0  2  0  0  0  0  0  0
  185.0810  178.1390  144.4900 C   0  0  0  0  0  2  0  0  0  0  0  0
  184.4290  178.2530  146.9080 C   0  0  0  0  0  1  0  0  0  0  0  0
  184.1660  178.7930  145.5150 C   0  0  0  0  0  2  0  0  0  0  0  0
  194.1720  174.2880  145.4320 C   0  0  0  0  0  2  0  0  0  0  0  0
  196.4240  174.8500  144.8120 O   0  0  0  0  0  1  0  0  0  0  0  0
  195.0930  175.2400  144.6720 C   0  0  2  0  0  3  0  0  0  0  0  0
  194.9270  176.6070  145.1340 N   0  0  0  0  0  1  0  0  0  0  0  0
  191.9280  172.9580  143.2710 C   0  0  0  0  0  2  0  0  0  0  0  0
  188.4850  173.7350  138.9170 C   0  0  0  0  0  3  0  0  0  0  0  0
  190.3300  172.2990  139.9180 C   0  0  0  0  0  0  0  0  0  0  0  0
  189.2700  174.1320  140.9950 C   0  0  0  0  0  0  0  0  0  0  0  0
  192.1550  171.1230  141.0470 C   0  0  0  0  0  1  0  0  0  0  0  0
  188.3290  175.0450  140.7660 N   0  0  0  0  0  0  0  0  0  0  0  0
  189.3700  173.3020  139.9130 C   0  0  0  0  0  0  0  0  0  0  0  0
  190.4530  171.5280  138.9250 O   0  0  0  0  0  0  0  0  0  0  0  0
  187.0630  175.9330  139.1100 C   0  0  0  0  0  0  0  0  0  0  0  0
  191.1440  172.1770  141.0200 N   0  0  0  0  0  0  0  0  0  0  0  0
  187.0400  176.8130  140.1370 C   0  0  0  0  0  0  0  0  0  0  0  0
  187.8730  174.8220  139.5470 C   0  0  0  0  0  0  0  0  0  0  0  0
  187.9200  176.3360  141.2760 C   0  0  0  0  0  3  0  0  0  0  0  0
  191.0220  173.0460  142.0870 C   0  0  2  0  0  3  0  0  0  0  0  0
  190.0850  174.0420  142.0680 N   0  0  0  0  0  0  0  0  0  0  0  0
  186.4950  176.0500  137.8370 O   0  0  0  0  0  0  0  0  0  0  0  0
  187.1430  176.7080  136.7600 C   0  0  0  0  0  1  0  0  0  0  0  0
  186.3070  178.0000  140.2050 O   0  0  0  0  0  0  0  0  0  0  0  0
  184.8960  178.0160  140.3480 C   0  0  0  0  0  1  0  0  0  0  0  0
  1  3  1  0  0  0  0
  3 16  1  0  0  0  0
  3  4  1  0  0  0  0
  4  2  2  0  0  0  0
  5  6  1  0  0  0  0
  5  8  1  0  0  0  0
  6  9  1  0  0  0  0
  8  4  1  1  0  0  0
  8  7  1  0  0  0  0
  9 11  1  6  0  0  0
  9 10  1  0  0  0  0
 10  7  1  0  0  0  0
 11 12  1  0  0  0  0
 13 12  1  0  0  0  0
 13 15  1  0  0  0  0
 15 14  1  0  0  0  0
 18 17  1  1  0  0  0
 18 19  1  0  0  0  0
 18 16  1  0  0  0  0
 20  1  1  0  0  0  0
 21 31  1  0  0  0  0
 21 26  2  0  0  0  0
 22 29  1  0  0  0  0
 23 34  2  0  0  0  0
 25 23  1  0  0  0  0
 25 32  1  0  0  0  0
 26 22  1  0  0  0  0
 26 23  1  0  0  0  0
 27 22  2  0  0  0  0
 28 31  2  0  0  0  0
 28 30  1  0  0  0  0
 29 24  1  0  0  0  0
 29 33  1  0  0  0  0
 30 37  1  0  0  0  0
 30 32  2  0  0  0  0
 31 25  1  0  0  0  0
 33 20  1  6  0  0  0
 34 33  1  0  0  0  0
 35 28  1  0  0  0  0
 36 35  1  0  0  0  0
 37 38  1  0  0  0  0
M  END
>  <MODEL>
5

>  <REMARK>
 VINA RESULT:      -6.3      2.512      6.957
  Name = 
  12 active torsions:
  status: ('A' for Active; 'I' for Inactive)
    1  A    between atoms: C_4  and  C_12
    2  A    between atoms: C_4  and  N_21
    3  A    between atoms: O_9  and  C_14
    4  A    between atoms: C_12  and  C_24
    5  A    between atoms: C_13  and  C_32
    6  A    between atoms: C_16  and  O_28
    7  A    between atoms: N_21  and  C_32
    8  A    between atoms: C_22  and  C_30
    9  A    between atoms: C_26  and  C_31
   10  A    between atoms: C_26  and  C_35
   11  A    between atoms: C_27  and  C_38
   12  A    between atoms: C_30  and  C_31
                            x       y       z     vdW  Elec       q    Type
                         _______ _______ _______ _____ _____    ______ ____

>  <TORSDO>
F 12

$$$$
=
 OpenBabel11042417083D

 38 41  0  0  1  0  0  0  0  0999 V2000
  193.5520  175.2100  142.9390 C   0  0  0  0  0  2  0  0  0  0  0  0
  193.7540  171.7930  144.2280 O   0  0  0  0  0  0  0  0  0  0  0  0
  194.0740  174.0310  143.6170 N   0  0  0  0  0  0  0  0  0  0  0  0
  193.4010  172.7640  143.5050 C   0  0  0  0  0  0  0  0  0  0  0  0
  191.3100  173.6280  142.6390 O   0  0  0  0  0  0  0  0  0  0  0  0
  190.3150  173.2730  143.5730 C   0  0  0  0  0  2  0  0  0  0  0  0
  191.6980  171.1530  142.5660 C   0  0  0  0  0  2  0  0  0  0  0  0
  192.2680  172.5840  142.5370 C   0  0  2  0  0  3  0  0  0  0  0  0
  189.4380  172.1360  143.0300 C   0  0  2  0  0  3  0  0  0  0  0  0
  190.2340  171.1680  142.1460 C   0  0  0  0  0  2  0  0  0  0  0  0
  188.2000  172.6600  142.3050 C   0  0  0  0  0  2  0  0  0  0  0  0
  188.1930  174.1790  142.1890 C   0  0  0  0  0  2  0  0  0  0  0  0
  188.3320  174.5970  140.7350 C   0  0  0  0  0  2  0  0  0  0  0  0
  189.9460  173.4760  139.1780 C   0  0  0  0  0  1  0  0  0  0  0  0
  188.5840  173.3920  139.8410 C   0  0  0  0  0  2  0  0  0  0  0  0
  195.1440  174.2220  144.5920 C   0  0  0  0  0  2  0  0  0  0  0  0
  197.2460  173.0640  144.7170 O   0  0  0  0  0  1  0  0  0  0  0  0
  196.5220  173.9950  143.9730 C   0  0  2  0  0  3  0  0  0  0  0  0
  197.2640  175.2410  143.8830 N   0  0  0  0  0  1  0  0  0  0  0  0
  193.5930  176.4100  143.8710 C   0  0  0  0  0  2  0  0  0  0  0  0
  188.2960  177.3310  145.4560 C   0  0  0  0  0  3  0  0  0  0  0  0
  190.6320  176.6480  146.1960 C   0  0  0  0  0  0  0  0  0  0  0  0
  190.0300  177.3620  144.0120 C   0  0  0  0  0  0  0  0  0  0  0  0
  192.9320  175.9450  146.6480 C   0  0  0  0  0  1  0  0  0  0  0  0
  188.9610  177.7630  143.3270 N   0  0  0  0  0  0  0  0  0  0  0  0
  189.6750  177.1230  145.3100 C   0  0  0  0  0  0  0  0  0  0  0  0
  190.3260  176.4050  147.3970 O   0  0  0  0  0  0  0  0  0  0  0  0
  186.7010  177.8760  143.4450 C   0  0  0  0  0  0  0  0  0  0  0  0
  191.9090  176.4380  145.7300 N   0  0  0  0  0  0  0  0  0  0  0  0
  187.0340  178.0100  142.1400 C   0  0  0  0  0  0  0  0  0  0  0  0
  187.9410  177.7370  144.1670 C   0  0  0  0  0  0  0  0  0  0  0  0
  188.5330  177.8790  141.9500 C   0  0  0  0  0  3  0  0  0  0  0  0
  192.2240  176.6760  144.4060 C   0  0  2  0  0  3  0  0  0  0  0  0
  191.2720  177.1290  143.5360 N   0  0  0  0  0  0  0  0  0  0  0  0
  185.4310  177.8090  144.0270 O   0  0  0  0  0  0  0  0  0  0  0  0
  184.2890  178.4340  143.4610 C   0  0  0  0  0  1  0  0  0  0  0  0
  186.1650  178.2600  141.0760 O   0  0  0  0  0  0  0  0  0  0  0  0
  186.2750  177.5900  139.8300 C   0  0  0  0  0  1  0  0  0  0  0  0
  1  3  1  0  0  0  0
  1 20  1  0  0  0  0
  3 16  1  0  0  0  0
  4  3  1  0  0  0  0
  4  2  2  0  0  0  0
  5  6  1  0  0  0  0
  8  7  1  0  0  0  0
  8  5  1  0  0  0  0
  8  4  1  1  0  0  0
  9 11  1  6  0  0  0
  9  6  1  0  0  0  0
 10  7  1  0  0  0  0
 10  9  1  0  0  0  0
 12 11  1  0  0  0  0
 13 12  1  0  0  0  0
 14 15  1  0  0  0  0
 15 13  1  0  0  0  0
 18 19  1  1  0  0  0
 18 16  1  0  0  0  0
 18 17  1  0  0  0  0
 22 27  2  0  0  0  0
 23 26  1  0  0  0  0
 25 23  1  0  0  0  0
 25 31  1  0  0  0  0
 26 21  2  0  0  0  0
 26 22  1  0  0  0  0
 28 35  1  0  0  0  0
 28 31  2  0  0  0  0
 29 22  1  0  0  0  0
 29 24  1  0  0  0  0
 30 28  1  0  0  0  0
 31 21  1  0  0  0  0
 32 30  2  0  0  0  0
 32 25  1  0  0  0  0
 33 20  1  6  0  0  0
 33 29  1  0  0  0  0
 34 23  2  0  0  0  0
 34 33  1  0  0  0  0
 36 35  1  0  0  0  0
 37 30  1  0  0  0  0
 38 37  1  0  0  0  0
M  END
>  <MODEL>
6

>  <REMARK>
 VINA RESULT:      -6.3      2.948      8.040
  Name = 
  12 active torsions:
  status: ('A' for Active; 'I' for Inactive)
    1  A    between atoms: C_4  and  C_12
    2  A    between atoms: C_4  and  N_21
    3  A    between atoms: O_9  and  C_14
    4  A    between atoms: C_12  and  C_24
    5  A    between atoms: C_13  and  C_32
    6  A    between atoms: C_16  and  O_28
    7  A    between atoms: N_21  and  C_32
    8  A    between atoms: C_22  and  C_30
    9  A    between atoms: C_26  and  C_31
   10  A    between atoms: C_26  and  C_35
   11  A    between atoms: C_27  and  C_38
   12  A    between atoms: C_30  and  C_31
                            x       y       z     vdW  Elec       q    Type
                         _______ _______ _______ _____ _____    ______ ____

>  <TORSDO>
F 12

$$$$
=
 OpenBabel11042417083D

 38 41  0  0  1  0  0  0  0  0999 V2000
  190.1700  173.5700  142.2400 C   0  0  0  0  0  2  0  0  0  0  0  0
  192.6260  171.3010  140.7570 O   0  0  0  0  0  0  0  0  0  0  0  0
  190.8380  172.7280  141.2560 N   0  0  0  0  0  0  0  0  0  0  0  0
  191.9450  171.8910  141.6390 C   0  0  0  0  0  0  0  0  0  0  0  0
  193.3260  172.6200  143.4900 O   0  0  0  0  0  0  0  0  0  0  0  0
  194.5910  172.0280  143.3000 C   0  0  0  0  0  2  0  0  0  0  0  0
  192.5400  170.2410  143.4540 C   0  0  0  0  0  2  0  0  0  0  0  0
  192.3070  171.7180  143.0840 C   0  0  2  0  0  3  0  0  0  0  0  0
  194.8120  170.8830  144.3000 C   0  0  2  0  0  3  0  0  0  0  0  0
  193.5080  170.1460  144.6260 C   0  0  0  0  0  2  0  0  0  0  0  0
  195.5150  171.3570  145.5700 C   0  0  0  0  0  2  0  0  0  0  0  0
  196.8060  172.1110  145.2750 C   0  0  0  0  0  2  0  0  0  0  0  0
  196.8810  173.3750  146.1120 C   0  0  0  0  0  2  0  0  0  0  0  0
  195.0300  175.0620  146.0220 C   0  0  0  0  0  1  0  0  0  0  0  0
  196.3020  174.5640  145.3610 C   0  0  0  0  0  2  0  0  0  0  0  0
  190.5140  172.9370  139.8480 C   0  0  0  0  0  2  0  0  0  0  0  0
  189.5700  171.1010  138.6170 O   0  0  0  0  0  1  0  0  0  0  0  0
  189.2510  172.1810  139.4390 C   0  0  2  0  0  3  0  0  0  0  0  0
  188.3150  173.0600  138.7580 N   0  0  0  0  0  1  0  0  0  0  0  0
  190.7510  174.9740  142.2070 C   0  0  0  0  0  2  0  0  0  0  0  0
  187.1820  178.2440  145.0340 C   0  0  0  0  0  3  0  0  0  0  0  0
  189.4520  177.0950  145.0430 C   0  0  0  0  0  0  0  0  0  0  0  0
  187.9240  177.1180  143.2250 C   0  0  0  0  0  0  0  0  0  0  0  0
  191.5410  175.8360  144.8530 C   0  0  0  0  0  1  0  0  0  0  0  0
  186.7210  177.5900  142.9070 N   0  0  0  0  0  0  0  0  0  0  0  0
  188.2510  177.5190  144.4890 C   0  0  0  0  0  0  0  0  0  0  0  0
  189.7710  177.4390  146.2150 O   0  0  0  0  0  0  0  0  0  0  0  0
  184.8750  178.5400  143.8180 C   0  0  0  0  0  0  0  0  0  0  0  0
  190.2710  176.2870  144.2900 N   0  0  0  0  0  0  0  0  0  0  0  0
  184.5110  178.0540  142.6080 C   0  0  0  0  0  0  0  0  0  0  0  0
  186.2780  178.2430  143.9670 C   0  0  0  0  0  0  0  0  0  0  0  0
  185.6710  177.3350  141.9450 C   0  0  0  0  0  3  0  0  0  0  0  0
  189.8960  175.8900  143.0210 C   0  0  2  0  0  3  0  0  0  0  0  0
  188.7050  176.2980  142.4890 N   0  0  0  0  0  0  0  0  0  0  0  0
  184.0830  179.1510  144.7950 O   0  0  0  0  0  0  0  0  0  0  0  0
  183.9270  178.6230  146.1030 C   0  0  0  0  0  1  0  0  0  0  0  0
  183.2640  178.1860  141.9940 O   0  0  0  0  0  0  0  0  0  0  0  0
  183.1130  178.2420  140.5840 C   0  0  0  0  0  1  0  0  0  0  0  0
  2  4  2  0  0  0  0
  3  4  1  0  0  0  0
  3  1  1  0  0  0  0
  6  5  1  0  0  0  0
  6  9  1  0  0  0  0
  7 10  1  0  0  0  0
  8  4  1  6  0  0  0
  8  7  1  0  0  0  0
  8  5  1  0  0  0  0
  9 10  1  0  0  0  0
  9 11  1  1  0  0  0
 12 11  1  0  0  0  0
 12 13  1  0  0  0  0
 15 14  1  0  0  0  0
 15 13  1  0  0  0  0
 16  3  1  0  0  0  0
 18 17  1  6  0  0  0
 18 16  1  0  0  0  0
 19 18  1  0  0  0  0
 20  1  1  0  0  0  0
 22 27  2  0  0  0  0
 23 26  1  0  0  0  0
 25 23  1  0  0  0  0
 25 31  1  0  0  0  0
 26 21  2  0  0  0  0
 26 22  1  0  0  0  0
 28 31  2  0  0  0  0
 28 35  1  0  0  0  0
 29 24  1  0  0  0  0
 29 22  1  0  0  0  0
 30 28  1  0  0  0  0
 31 21  1  0  0  0  0
 32 30  2  0  0  0  0
 32 25  1  0  0  0  0
 33 20  1  1  0  0  0
 33 29  1  0  0  0  0
 34 33  1  0  0  0  0
 34 23  2  0  0  0  0
 35 36  1  0  0  0  0
 37 30  1  0  0  0  0
 38 37  1  0  0  0  0
M  END
>  <MODEL>
7

>  <REMARK>
 VINA RESULT:      -6.2      2.213      7.429
  Name = 
  12 active torsions:
  status: ('A' for Active; 'I' for Inactive)
    1  A    between atoms: C_4  and  C_12
    2  A    between atoms: C_4  and  N_21
    3  A    between atoms: O_9  and  C_14
    4  A    between atoms: C_12  and  C_24
    5  A    between atoms: C_13  and  C_32
    6  A    between atoms: C_16  and  O_28
    7  A    between atoms: N_21  and  C_32
    8  A    between atoms: C_22  and  C_30
    9  A    between atoms: C_26  and  C_31
   10  A    between atoms: C_26  and  C_35
   11  A    between atoms: C_27  and  C_38
   12  A    between atoms: C_30  and  C_31
                            x       y       z     vdW  Elec       q    Type
                         _______ _______ _______ _____ _____    ______ ____

>  <TORSDO>
F 12

$$$$
=
 OpenBabel11042417083D

 38 41  0  0  1  0  0  0  0  0999 V2000
  192.0930  174.1780  144.3320 C   0  0  0  0  0  2  0  0  0  0  0  0
  191.1940  176.5460  146.9710 O   0  0  0  0  0  0  0  0  0  0  0  0
  192.1650  174.9370  145.5740 N   0  0  0  0  0  0  0  0  0  0  0  0
  191.0610  175.7600  145.9940 C   0  0  0  0  0  0  0  0  0  0  0  0
  189.7190  176.5710  144.1480 O   0  0  0  0  0  0  0  0  0  0  0  0
  189.2320  177.8360  144.5340 C   0  0  0  0  0  2  0  0  0  0  0  0
  188.5480  175.8180  146.2320 C   0  0  0  0  0  2  0  0  0  0  0  0
  189.7480  175.7020  145.2710 C   0  0  2  0  0  3  0  0  0  0  0  0
  187.7360  177.7640  144.8750 C   0  0  2  0  0  3  0  0  0  0  0  0
  187.3540  176.4180  145.5020 C   0  0  0  0  0  2  0  0  0  0  0  0
  186.8560  178.0850  143.6690 C   0  0  0  0  0  2  0  0  0  0  0  0
  185.3860  178.2320  144.0430 C   0  0  0  0  0  2  0  0  0  0  0  0
  185.2270  179.2430  145.1660 C   0  0  0  0  0  2  0  0  0  0  0  0
  185.2350  178.5750  147.5810 C   0  0  0  0  0  1  0  0  0  0  0  0
  184.4100  178.6650  146.3110 C   0  0  0  0  0  2  0  0  0  0  0  0
  193.4590  175.0270  146.2440 C   0  0  0  0  0  2  0  0  0  0  0  0
  195.6890  175.2950  145.3920 O   0  0  0  0  0  1  0  0  0  0  0  0
  194.4380  175.9070  145.4710 C   0  0  2  0  0  3  0  0  0  0  0  0
  194.5650  177.2140  146.0900 N   0  0  0  0  0  1  0  0  0  0  0  0
  191.7360  172.7290  144.6250 C   0  0  0  0  0  2  0  0  0  0  0  0
  190.6080  170.4660  139.6230 C   0  0  0  0  0  3  0  0  0  0  0  0
  191.6760  170.1160  141.9050 C   0  0  0  0  0  0  0  0  0  0  0  0
  190.4610  172.0420  141.2300 C   0  0  0  0  0  0  0  0  0  0  0  0
  192.6980  170.0470  144.1270 C   0  0  0  0  0  1  0  0  0  0  0  0
  189.8150  172.5230  140.1710 N   0  0  0  0  0  0  0  0  0  0  0  0
  190.9260  170.7890  140.9490 C   0  0  0  0  0  0  0  0  0  0  0  0
  192.1300  168.9630  141.6650 O   0  0  0  0  0  0  0  0  0  0  0  0
  189.4880  172.1570  137.9580 C   0  0  0  0  0  0  0  0  0  0  0  0
  191.9180  170.7410  143.1060 N   0  0  0  0  0  0  0  0  0  0  0  0
  189.1210  173.4360  138.2040 C   0  0  0  0  0  0  0  0  0  0  0  0
  189.9060  171.6060  139.2240 C   0  0  0  0  0  0  0  0  0  0  0  0
  189.3680  173.7990  139.6550 C   0  0  0  0  0  3  0  0  0  0  0  0
  191.4440  172.0170  143.3460 C   0  0  2  0  0  3  0  0  0  0  0  0
  190.7200  172.6790  142.3930 N   0  0  0  0  0  0  0  0  0  0  0  0
  189.5390  171.4750  136.7380 O   0  0  0  0  0  0  0  0  0  0  0  0
  190.6900  171.4630  135.9080 C   0  0  0  0  0  1  0  0  0  0  0  0
  188.5630  174.3360  137.2930 O   0  0  0  0  0  0  0  0  0  0  0  0
  187.4390  175.1420  137.6110 C   0  0  0  0  0  1  0  0  0  0  0  0
  1 20  1  0  0  0  0
  1  3  1  0  0  0  0
  3  4  1  0  0  0  0
  3 16  1  0  0  0  0
  4  2  2  0  0  0  0
  5  6  1  0  0  0  0
  5  8  1  0  0  0  0
  6  9  1  0  0  0  0
  8  4  1  1  0  0  0
  8  7  1  0  0  0  0
  9 11  1  6  0  0  0
  9 10  1  0  0  0  0
 10  7  1  0  0  0  0
 11 12  1  0  0  0  0
 12 13  1  0  0  0  0
 13 15  1  0  0  0  0
 15 14  1  0  0  0  0
 18 17  1  1  0  0  0
 18 19  1  0  0  0  0
 18 16  1  0  0  0  0
 21 26  2  0  0  0  0
 22 29  1  0  0  0  0
 23 34  2  0  0  0  0
 25 23  1  0  0  0  0
 26 23  1  0  0  0  0
 26 22  1  0  0  0  0
 27 22  2  0  0  0  0
 28 30  1  0  0  0  0
 28 31  2  0  0  0  0
 29 33  1  0  0  0  0
 29 24  1  0  0  0  0
 30 32  2  0  0  0  0
 31 21  1  0  0  0  0
 31 25  1  0  0  0  0
 32 25  1  0  0  0  0
 33 20  1  6  0  0  0
 34 33  1  0  0  0  0
 35 28  1  0  0  0  0
 36 35  1  0  0  0  0
 37 38  1  0  0  0  0
 37 30  1  0  0  0  0
M  END
>  <MODEL>
8

>  <REMARK>
 VINA RESULT:      -6.2      2.921      6.951
  Name = 
  12 active torsions:
  status: ('A' for Active; 'I' for Inactive)
    1  A    between atoms: C_4  and  C_12
    2  A    between atoms: C_4  and  N_21
    3  A    between atoms: O_9  and  C_14
    4  A    between atoms: C_12  and  C_24
    5  A    between atoms: C_13  and  C_32
    6  A    between atoms: C_16  and  O_28
    7  A    between atoms: N_21  and  C_32
    8  A    between atoms: C_22  and  C_30
    9  A    between atoms: C_26  and  C_31
   10  A    between atoms: C_26  and  C_35
   11  A    between atoms: C_27  and  C_38
   12  A    between atoms: C_30  and  C_31
                            x       y       z     vdW  Elec       q    Type
                         _______ _______ _______ _____ _____    ______ ____

>  <TORSDO>
F 12

$$$$
=
 OpenBabel11042417083D

 38 41  0  0  1  0  0  0  0  0999 V2000
  189.5800  174.3630  144.3210 C   0  0  0  0  0  2  0  0  0  0  0  0
  189.4840  176.6020  147.2120 O   0  0  0  0  0  0  0  0  0  0  0  0
  189.9510  174.9820  145.5860 N   0  0  0  0  0  0  0  0  0  0  0  0
  189.0830  175.9440  146.2140 C   0  0  0  0  0  0  0  0  0  0  0  0
  187.7160  176.8410  144.4270 O   0  0  0  0  0  0  0  0  0  0  0  0
  187.6760  178.2370  144.6180 C   0  0  0  0  0  2  0  0  0  0  0  0
  186.7670  176.7980  146.7460 C   0  0  0  0  0  2  0  0  0  0  0  0
  187.6990  176.1820  145.6850 C   0  0  2  0  0  3  0  0  0  0  0  0
  186.3030  178.6750  145.1490 C   0  0  2  0  0  3  0  0  0  0  0  0
  185.6780  177.6180  146.0670 C   0  0  0  0  0  2  0  0  0  0  0  0
  185.3490  179.0660  144.0220 C   0  0  0  0  0  2  0  0  0  0  0  0
  184.5640  177.8760  143.4840 C   0  0  0  0  0  2  0  0  0  0  0  0
  184.4980  177.9320  141.9670 C   0  0  0  0  0  2  0  0  0  0  0  0
  186.6990  177.1050  141.0970 C   0  0  0  0  0  1  0  0  0  0  0  0
  185.8430  178.3270  141.3760 C   0  0  0  0  0  2  0  0  0  0  0  0
  191.3150  174.7830  146.0690 C   0  0  0  0  0  2  0  0  0  0  0  0
  193.1360  174.9050  144.5070 O   0  0  0  0  0  1  0  0  0  0  0  0
  192.3130  175.6720  145.3310 C   0  0  2  0  0  3  0  0  0  0  0  0
  193.1220  176.4350  146.2650 N   0  0  0  0  0  1  0  0  0  0  0  0
  189.9910  172.9000  144.3140 C   0  0  0  0  0  2  0  0  0  0  0  0
  190.5180  171.5730  138.8940 C   0  0  0  0  0  3  0  0  0  0  0  0
  191.2550  171.0590  141.2730 C   0  0  0  0  0  0  0  0  0  0  0  0
  189.5910  172.6370  140.6540 C   0  0  0  0  0  0  0  0  0  0  0  0
  191.8650  170.8050  143.6300 C   0  0  0  0  0  1  0  0  0  0  0  0
  189.0030  173.1270  139.5660 N   0  0  0  0  0  0  0  0  0  0  0  0
  190.4890  171.6740  140.2910 C   0  0  0  0  0  0  0  0  0  0  0  0
  192.1020  170.1760  140.9630 O   0  0  0  0  0  0  0  0  0  0  0  0
  189.1820  173.1820  137.3070 C   0  0  0  0  0  0  0  0  0  0  0  0
  191.0750  171.4450  142.5810 N   0  0  0  0  0  0  0  0  0  0  0  0
  188.3730  174.2060  137.6620 C   0  0  0  0  0  0  0  0  0  0  0  0
  189.5490  172.5130  138.5310 C   0  0  0  0  0  0  0  0  0  0  0  0
  188.2440  174.2940  139.1710 C   0  0  0  0  0  3  0  0  0  0  0  0
  190.1670  172.4350  142.9060 C   0  0  2  0  0  3  0  0  0  0  0  0
  189.4280  173.0470  141.9310 N   0  0  0  0  0  0  0  0  0  0  0  0
  189.6580  172.8340  136.0380 O   0  0  0  0  0  0  0  0  0  0  0  0
  189.3450  171.6020  135.4080 C   0  0  0  0  0  1  0  0  0  0  0  0
  187.7010  175.0780  136.8030 O   0  0  0  0  0  0  0  0  0  0  0  0
  186.6900  175.9650  137.2560 C   0  0  0  0  0  1  0  0  0  0  0  0
  1  3  1  0  0  0  0
  3 16  1  0  0  0  0
  3  4  1  0  0  0  0
  4  2  2  0  0  0  0
  5  6  1  0  0  0  0
  5  8  1  0  0  0  0
  6  9  1  0  0  0  0
  8  4  1  1  0  0  0
  8  7  1  0  0  0  0
  9 11  1  6  0  0  0
  9 10  1  0  0  0  0
 10  7  1  0  0  0  0
 12 11  1  0  0  0  0
 13 12  1  0  0  0  0
 14 15  1  0  0  0  0
 15 13  1  0  0  0  0
 18 17  1  1  0  0  0
 18 16  1  0  0  0  0
 18 19  1  0  0  0  0
 20  1  1  0  0  0  0
 21 26  2  0  0  0  0
 22 29  1  0  0  0  0
 23 34  2  0  0  0  0
 25 23  1  0  0  0  0
 26 23  1  0  0  0  0
 26 22  1  0  0  0  0
 27 22  2  0  0  0  0
 28 30  1  0  0  0  0
 28 31  2  0  0  0  0
 29 33  1  0  0  0  0
 29 24  1  0  0  0  0
 30 32  2  0  0  0  0
 31 21  1  0  0  0  0
 31 25  1  0  0  0  0
 32 25  1  0  0  0  0
 33 20  1  6  0  0  0
 34 33  1  0  0  0  0
 35 28  1  0  0  0  0
 36 35  1  0  0  0  0
 37 38  1  0  0  0  0
 37 30  1  0  0  0  0
M  END
>  <MODEL>
9

>  <REMARK>
 VINA RESULT:      -6.1      2.425      6.542
  Name = 
  12 active torsions:
  status: ('A' for Active; 'I' for Inactive)
    1  A    between atoms: C_4  and  C_12
    2  A    between atoms: C_4  and  N_21
    3  A    between atoms: O_9  and  C_14
    4  A    between atoms: C_12  and  C_24
    5  A    between atoms: C_13  and  C_32
    6  A    between atoms: C_16  and  O_28
    7  A    between atoms: N_21  and  C_32
    8  A    between atoms: C_22  and  C_30
    9  A    between atoms: C_26  and  C_31
   10  A    between atoms: C_26  and  C_35
   11  A    between atoms: C_27  and  C_38
   12  A    between atoms: C_30  and  C_31
                            x       y       z     vdW  Elec       q    Type
                         _______ _______ _______ _____ _____    ______ ____

>  <TORSDO>
F 12

$$$$
