=
 OpenBabel11042415253D

 51 54  0  0  1  0  0  0  0  0999 V2000
  190.2620  172.8070  142.8940 C   0  0  2  0  0  0  0  0  0  0  0  0
  188.9190  172.0860  143.0350 C   0  0  0  0  0  1  0  0  0  0  0  0
  191.2620  171.9470  142.0620 C   0  0  1  0  0  3  0  0  0  0  0  0
  190.6980  170.7400  141.4450 C   0  0  0  0  0  0  0  0  0  0  0  0
  191.1160  172.1550  139.6600 O   0  0  0  0  0  0  0  0  0  0  0  0
  190.4240  169.7170  142.0500 O   0  0  0  0  0  0  0  0  0  0  0  0
  191.7530  172.6740  140.8140 C   0  0  0  0  0  2  0  0  0  0  0  0
  190.6560  170.8600  139.9760 C   0  0  1  0  0  3  0  0  0  0  0  0
  191.4980  169.9100  139.3950 O   0  0  0  0  0  0  0  0  0  0  0  0
  190.6370  169.0020  138.7760 C   0  0  0  0  0  2  0  0  0  0  0  0
  190.0370  169.6390  137.5410 C   0  0  0  0  0  2  0  0  0  0  0  0
  191.0680  169.6520  136.4330 C   0  0  0  0  0  1  0  0  0  0  0  0
  190.8400  173.1200  144.3070 C   0  0  2  0  0  3  0  0  0  0  0  0
  189.8510  173.5540  145.1980 O   0  0  0  0  0  1  0  0  0  0  0  0
  192.0270  174.0900  144.3400 C   0  0  0  0  0  2  0  0  0  0  0  0
  192.7980  174.0310  145.6520 C   0  0  0  0  0  2  0  0  0  0  0  0
  194.1000  173.2530  145.4940 C   0  0  0  0  0  2  0  0  0  0  0  0
  195.0210  175.3740  146.0950 O   0  0  0  0  0  1  0  0  0  0  0  0
  195.3490  174.1390  145.5280 C   0  0  2  0  0  3  0  0  0  0  0  0
  196.3800  176.0880  142.4160 C   0  0  0  0  0  2  0  0  0  0  0  0
  195.3220  175.4120  143.2720 C   0  0  2  0  0  3  0  0  0  0  0  0
  194.6870  176.3870  144.0430 O   0  0  0  0  0  1  0  0  0  0  0  0
  196.5660  175.2660  140.8430 S   0  0  0  0  0  0  0  0  0  0  0  0
  195.5480  175.8130  139.8840 O   0  0  0  0  0  0  0  0  0  0  0  0
  195.9720  172.9890  143.3770 C   0  0  0  0  0  2  0  0  0  0  0  0
  196.3520  173.5020  140.9670 C   0  0  0  0  0  2  0  0  0  0  0  0
  195.9870  174.3190  144.1340 C   0  0  2  0  0  3  0  0  0  0  0  0
  196.9810  172.9640  142.2400 C   0  0  0  0  0  2  0  0  0  0  0  0
  197.9410  175.5520  140.3100 O   0  0  0  0  0  0  0  0  0  0  0  0
  189.9860  174.1160  142.1250 C   0  0  0  0  0  2  0  0  0  0  0  0
  188.5720  174.1950  141.5460 C   0  0  2  0  0  3  0  0  0  0  0  0
  188.5630  174.1090  140.0240 C   0  0  0  0  0  1  0  0  0  0  0  0
  187.7900  175.2370  142.1200 O   0  0  0  0  0  0  0  0  0  0  0  0
  188.4980  176.4590  142.3220 C   0  0  2  0  0  3  0  0  0  0  0  0
  185.1330  177.9490  144.8490 C   0  0  0  0  0  3  0  0  0  0  0  0
  190.5480  177.0150  146.9960 C   0  0  0  0  0  1  0  0  0  0  0  0
  188.1060  176.9590  146.8890 C   0  0  0  0  0  2  0  0  0  0  0  0
  189.3550  177.3770  146.1250 C   0  0  2  0  0  3  0  0  0  0  0  0
  186.9950  176.4600  144.2980 C   0  0  0  0  0  2  0  0  0  0  0  0
  185.8660  177.7900  147.6260 C   0  0  0  0  0  2  0  0  0  0  0  0
  188.3000  177.0360  143.7460 C   0  0  1  0  0  3  0  0  0  0  0  0
  189.4860  176.7400  144.7140 C   0  0  1  0  0  3  0  0  0  0  0  0
  184.4530  178.9160  145.7750 C   0  0  0  0  0  2  0  0  0  0  0  0
  184.5060  178.4040  147.2220 C   0  0  0  0  0  2  0  0  0  0  0  0
  186.9260  177.8440  146.5190 C   0  0  2  0  0  3  0  0  0  0  0  0
  186.3220  177.4440  145.1960 C   0  0  0  0  0  0  0  0  0  0  0  0
  190.8390  177.1350  144.1030 C   0  0  0  0  0  2  0  0  0  0  0  0
  190.9270  178.6290  143.8150 C   0  0  0  0  0  1  0  0  0  0  0  0
  188.2470  177.3960  141.3060 O   0  0  0  0  0  0  0  0  0  0  0  0
  186.8900  177.2500  141.0050 C   0  0  0  0  0  2  0  0  0  0  0  0
  186.6620  177.5900  139.6710 O   0  0  0  0  0  1  0  0  0  0  0  0
  1  2  1  1  0  0  0
  1 13  1  0  0  0  0
  3  1  1  6  0  0  0
  4  6  2  0  0  0  0
  4  3  1  0  0  0  0
  5  8  1  0  0  0  0
  5  7  1  0  0  0  0
  7  3  1  0  0  0  0
  8  9  1  6  0  0  0
  8  4  1  0  0  0  0
 10  9  1  0  0  0  0
 11 10  1  0  0  0  0
 12 11  1  0  0  0  0
 13 15  1  0  0  0  0
 13 14  1  1  0  0  0
 15 16  1  0  0  0  0
 17 19  1  0  0  0  0
 17 16  1  0  0  0  0
 19 18  1  6  0  0  0
 20 21  1  0  0  0  0
 21 22  1  1  0  0  0
 21 27  1  0  0  0  0
 23 26  1  0  0  0  0
 23 20  1  0  0  0  0
 24 23  2  0  0  0  0
 25 27  1  0  0  0  0
 26 28  1  0  0  0  0
 27 19  1  1  0  0  0
 28 25  1  0  0  0  0
 29 23  2  0  0  0  0
 30  1  1  0  0  0  0
 31 32  1  6  0  0  0
 31 33  1  0  0  0  0
 31 30  1  0  0  0  0
 33 34  1  0  0  0  0
 34 49  1  6  0  0  0
 35 46  2  0  0  0  0
 35 43  1  0  0  0  0
 38 37  1  0  0  0  0
 38 36  1  1  0  0  0
 39 46  1  0  0  0  0
 41 34  1  6  0  0  0
 41 39  1  0  0  0  0
 41 42  1  0  0  0  0
 42 47  1  6  0  0  0
 42 38  1  0  0  0  0
 43 44  1  0  0  0  0
 44 40  1  0  0  0  0
 45 37  1  1  0  0  0
 45 40  1  0  0  0  0
 46 45  1  0  0  0  0
 48 47  1  0  0  0  0
 50 49  1  0  0  0  0
 51 50  1  0  0  0  0
M  END
>  <MODEL>
1

>  <REMARK>
 VINA RESULT:      -7.3      0.000      0.000
  Name = 
  18 active torsions:
  status: ('A' for Active; 'I' for Inactive)
    1  A    between atoms: C_1  and  C_4
    2  A    between atoms: C_1  and  C_10
    3  A    between atoms: C_4  and  C_9
    4  A    between atoms: C_5  and  C_9
    5  A    between atoms: C_9  and  C_38
    6  A    between atoms: C_10  and  C_43
    7  A    between atoms: C_11  and  O_15
    8  A    between atoms: C_11  and  C_38
    9  A    between atoms: O_15  and  C_26
   10  A    between atoms: O_18  and  C_19
   11  A    between atoms: O_18  and  C_45
   12  A    between atoms: C_19  and  C_21
   13  A    between atoms: C_22  and  O_47
   14  A    between atoms: C_26  and  C_34
   15  A    between atoms: C_26  and  O_47
   16  A    between atoms: C_29  and  C_35
   17  A    between atoms: C_37  and  C_50
   18  A    between atoms: C_43  and  C_50
                            x       y       z     vdW  Elec       q    Type
                         _______ _______ _______ _____ _____    ______ ____

>  <TORSDO>
F 18

$$$$
=
 OpenBabel11042415253D

 51 54  0  0  1  0  0  0  0  0999 V2000
  194.3690  175.5310  144.0750 C   0  0  2  0  0  0  0  0  0  0  0  0
  193.9260  176.7040  144.9540 C   0  0  0  0  0  1  0  0  0  0  0  0
  194.7550  174.3020  144.9540 C   0  0  1  0  0  3  0  0  0  0  0  0
  195.5990  173.2950  144.2990 C   0  0  0  0  0  0  0  0  0  0  0  0
  196.9960  174.2890  145.8550 O   0  0  0  0  0  0  0  0  0  0  0  0
  195.2010  172.4940  143.4690 O   0  0  0  0  0  0  0  0  0  0  0  0
  195.6620  174.6860  146.1190 C   0  0  0  0  0  2  0  0  0  0  0  0
  196.9500  173.2650  144.8870 C   0  0  1  0  0  3  0  0  0  0  0  0
  197.1760  172.0310  145.5000 O   0  0  0  0  0  0  0  0  0  0  0  0
  197.9410  171.3110  144.5820 C   0  0  0  0  0  2  0  0  0  0  0  0
  197.7860  169.8300  144.8490 C   0  0  0  0  0  2  0  0  0  0  0  0
  196.9310  169.6280  146.0800 C   0  0  0  0  0  1  0  0  0  0  0  0
  195.5660  175.9700  143.1780 C   0  0  2  0  0  3  0  0  0  0  0  0
  196.3230  176.9890  143.7690 O   0  0  0  0  0  1  0  0  0  0  0  0
  195.2100  176.3600  141.7380 C   0  0  0  0  0  2  0  0  0  0  0  0
  196.2880  175.9620  140.7380 C   0  0  0  0  0  2  0  0  0  0  0  0
  196.4060  174.4450  140.6270 C   0  0  0  0  0  2  0  0  0  0  0  0
  195.3860  174.8570  138.5050 O   0  0  0  0  0  1  0  0  0  0  0  0
  195.6160  173.8570  139.4540 C   0  0  2  0  0  3  0  0  0  0  0  0
  193.3730  170.9590  140.5140 C   0  0  0  0  0  2  0  0  0  0  0  0
  194.1350  171.7320  139.4490 C   0  0  2  0  0  3  0  0  0  0  0  0
  195.3630  171.1030  139.2390 O   0  0  0  0  0  1  0  0  0  0  0  0
  191.6140  171.0110  140.2200 S   0  0  0  0  0  0  0  0  0  0  0  0
  191.2460  169.9120  139.2650 O   0  0  0  0  0  0  0  0  0  0  0  0
  193.1050  174.0210  139.3950 C   0  0  0  0  0  2  0  0  0  0  0  0
  191.0830  172.5680  139.5370 C   0  0  0  0  0  2  0  0  0  0  0  0
  194.2930  173.1980  139.9000 C   0  0  2  0  0  3  0  0  0  0  0  0
  191.8320  173.7260  140.1730 C   0  0  0  0  0  2  0  0  0  0  0  0
  190.9020  170.7840  141.5230 O   0  0  0  0  0  0  0  0  0  0  0  0
  193.1570  175.1470  143.2020 C   0  0  0  0  0  2  0  0  0  0  0  0
  191.9140  174.7790  144.0140 C   0  0  2  0  0  3  0  0  0  0  0  0
  191.5300  173.3110  143.8540 C   0  0  0  0  0  1  0  0  0  0  0  0
  190.8570  175.7220  143.8770 O   0  0  0  0  0  0  0  0  0  0  0  0
  189.8130  175.5770  144.8390 C   0  0  2  0  0  3  0  0  0  0  0  0
  186.1150  177.4210  146.5270 C   0  0  0  0  0  3  0  0  0  0  0  0
  187.1210  177.0580  140.7250 C   0  0  0  0  0  1  0  0  0  0  0  0
  186.4670  178.0560  142.8590 C   0  0  0  0  0  2  0  0  0  0  0  0
  187.0380  176.7970  142.2210 C   0  0  2  0  0  3  0  0  0  0  0  0
  188.1040  177.3580  145.1020 C   0  0  0  0  0  2  0  0  0  0  0  0
  184.7130  178.8450  144.4570 C   0  0  0  0  0  2  0  0  0  0  0  0
  188.4460  176.0890  144.3200 C   0  0  1  0  0  3  0  0  0  0  0  0
  188.4190  176.3630  142.7850 C   0  0  1  0  0  3  0  0  0  0  0  0
  184.6310  177.5730  146.7080 C   0  0  0  0  0  2  0  0  0  0  0  0
  184.1050  178.7510  145.8750 C   0  0  0  0  0  2  0  0  0  0  0  0
  185.7000  177.7180  144.1280 C   0  0  2  0  0  3  0  0  0  0  0  0
  186.6280  177.4780  145.2930 C   0  0  0  0  0  0  0  0  0  0  0  0
  188.9420  175.1650  141.9790 C   0  0  0  0  0  2  0  0  0  0  0  0
  188.0240  173.9540  142.0840 C   0  0  0  0  0  1  0  0  0  0  0  0
  190.1630  176.1080  146.0910 O   0  0  0  0  0  0  0  0  0  0  0  0
  190.1940  175.0080  146.9550 C   0  0  0  0  0  2  0  0  0  0  0  0
  188.9010  174.7050  147.3820 O   0  0  0  0  0  1  0  0  0  0  0  0
  1  2  1  1  0  0  0
  3  1  1  6  0  0  0
  3  7  1  0  0  0  0
  4  8  1  0  0  0  0
  4  3  1  0  0  0  0
  5  7  1  0  0  0  0
  6  4  2  0  0  0  0
  8  9  1  1  0  0  0
  8  5  1  0  0  0  0
 10 11  1  0  0  0  0
 10  9  1  0  0  0  0
 11 12  1  0  0  0  0
 13 14  1  1  0  0  0
 13  1  1  0  0  0  0
 15 13  1  0  0  0  0
 16 15  1  0  0  0  0
 17 16  1  0  0  0  0
 19 18  1  6  0  0  0
 19 17  1  0  0  0  0
 21 22  1  1  0  0  0
 21 27  1  0  0  0  0
 21 20  1  0  0  0  0
 23 20  1  0  0  0  0
 23 29  2  0  0  0  0
 24 23  2  0  0  0  0
 25 27  1  0  0  0  0
 25 28  1  0  0  0  0
 26 28  1  0  0  0  0
 26 23  1  0  0  0  0
 27 19  1  6  0  0  0
 30 31  1  0  0  0  0
 30  1  1  0  0  0  0
 31 32  1  6  0  0  0
 33 31  1  0  0  0  0
 34 33  1  6  0  0  0
 34 49  1  0  0  0  0
 35 43  1  0  0  0  0
 38 36  1  6  0  0  0
 38 42  1  0  0  0  0
 38 37  1  0  0  0  0
 39 46  1  0  0  0  0
 40 44  1  0  0  0  0
 41 34  1  1  0  0  0
 41 39  1  0  0  0  0
 42 47  1  6  0  0  0
 42 41  1  0  0  0  0
 44 43  1  0  0  0  0
 45 37  1  6  0  0  0
 45 40  1  0  0  0  0
 45 46  1  0  0  0  0
 46 35  2  0  0  0  0
 47 48  1  0  0  0  0
 49 50  1  0  0  0  0
 50 51  1  0  0  0  0
M  END
>  <MODEL>
2

>  <REMARK>
 VINA RESULT:      -7.1      2.330      6.027
  Name = 
  18 active torsions:
  status: ('A' for Active; 'I' for Inactive)
    1  A    between atoms: C_1  and  C_4
    2  A    between atoms: C_1  and  C_10
    3  A    between atoms: C_4  and  C_9
    4  A    between atoms: C_5  and  C_9
    5  A    between atoms: C_9  and  C_38
    6  A    between atoms: C_10  and  C_43
    7  A    between atoms: C_11  and  O_15
    8  A    between atoms: C_11  and  C_38
    9  A    between atoms: O_15  and  C_26
   10  A    between atoms: O_18  and  C_19
   11  A    between atoms: O_18  and  C_45
   12  A    between atoms: C_19  and  C_21
   13  A    between atoms: C_22  and  O_47
   14  A    between atoms: C_26  and  C_34
   15  A    between atoms: C_26  and  O_47
   16  A    between atoms: C_29  and  C_35
   17  A    between atoms: C_37  and  C_50
   18  A    between atoms: C_43  and  C_50
                            x       y       z     vdW  Elec       q    Type
                         _______ _______ _______ _____ _____    ______ ____

>  <TORSDO>
F 18

$$$$
=
 OpenBabel11042415253D

 51 54  0  0  1  0  0  0  0  0999 V2000
  190.5450  173.2510  142.3270 C   0  0  2  0  0  0  0  0  0  0  0  0
  189.6470  173.1380  143.5610 C   0  0  0  0  0  1  0  0  0  0  0  0
  190.3860  171.9950  141.4150 C   0  0  1  0  0  3  0  0  0  0  0  0
  191.4440  171.8000  140.4160 C   0  0  0  0  0  0  0  0  0  0  0  0
  191.7820  170.0970  141.9500 O   0  0  0  0  0  0  0  0  0  0  0  0
  191.5540  172.4490  139.3900 O   0  0  0  0  0  0  0  0  0  0  0  0
  190.5190  170.6920  142.1970 C   0  0  0  0  0  2  0  0  0  0  0  0
  192.2600  170.6130  140.7280 C   0  0  1  0  0  3  0  0  0  0  0  0
  192.1100  169.6530  139.7250 O   0  0  0  0  0  0  0  0  0  0  0  0
  193.3690  169.5590  139.1300 C   0  0  0  0  0  2  0  0  0  0  0  0
  194.4010  170.2070  140.0270 C   0  0  0  0  0  2  0  0  0  0  0  0
  195.7820  169.9690  139.4560 C   0  0  0  0  0  1  0  0  0  0  0  0
  192.0290  173.4280  142.7730 C   0  0  2  0  0  3  0  0  0  0  0  0
  192.1610  173.4660  144.1660 O   0  0  0  0  0  1  0  0  0  0  0  0
  192.7730  174.6160  142.1510 C   0  0  0  0  0  2  0  0  0  0  0  0
  194.2350  174.6790  142.5710 C   0  0  0  0  0  2  0  0  0  0  0  0
  195.0520  173.5830  141.8940 C   0  0  0  0  0  2  0  0  0  0  0  0
  197.2820  172.7430  142.0750 O   0  0  0  0  0  1  0  0  0  0  0  0
  196.1110  172.9600  142.8080 C   0  0  2  0  0  3  0  0  0  0  0  0
  194.3140  170.8890  145.4590 C   0  0  0  0  0  2  0  0  0  0  0  0
  195.4840  171.7500  145.0100 C   0  0  2  0  0  3  0  0  0  0  0  0
  195.2640  173.0570  145.4470 O   0  0  0  0  0  1  0  0  0  0  0  0
  194.8380  169.2230  145.8270 S   0  0  0  0  0  0  0  0  0  0  0  0
  195.3260  169.1670  147.2460 O   0  0  0  0  0  0  0  0  0  0  0  0
  196.5660  170.5040  143.1190 C   0  0  0  0  0  2  0  0  0  0  0  0
  196.1410  168.6640  144.7480 C   0  0  0  0  0  2  0  0  0  0  0  0
  195.6260  171.6570  143.4770 C   0  0  2  0  0  3  0  0  0  0  0  0
  195.9140  169.1460  143.3250 C   0  0  0  0  0  2  0  0  0  0  0  0
  193.6590  168.3040  145.6810 O   0  0  0  0  0  0  0  0  0  0  0  0
  190.0700  174.4900  141.5410 C   0  0  0  0  0  2  0  0  0  0  0  0
  188.5930  174.4290  141.1450 C   0  0  2  0  0  3  0  0  0  0  0  0
  188.4020  174.2850  139.6390 C   0  0  0  0  0  1  0  0  0  0  0  0
  187.8010  175.4230  141.7850 O   0  0  0  0  0  0  0  0  0  0  0  0
  188.5100  176.6150  142.1180 C   0  0  2  0  0  3  0  0  0  0  0  0
  185.0950  178.0200  144.6260 C   0  0  0  0  0  3  0  0  0  0  0  0
  190.3570  176.6390  146.9090 C   0  0  0  0  0  1  0  0  0  0  0  0
  187.9230  176.7070  146.6910 C   0  0  0  0  0  2  0  0  0  0  0  0
  189.2230  177.1350  146.0250 C   0  0  2  0  0  3  0  0  0  0  0  0
  186.9170  176.5030  144.0180 C   0  0  0  0  0  2  0  0  0  0  0  0
  185.6870  177.5700  147.4050 C   0  0  0  0  0  2  0  0  0  0  0  0
  188.2700  177.0660  143.5810 C   0  0  1  0  0  3  0  0  0  0  0  0
  189.3950  176.6260  144.5670 C   0  0  1  0  0  3  0  0  0  0  0  0
  184.4130  178.9270  145.6100 C   0  0  0  0  0  2  0  0  0  0  0  0
  184.3750  178.2810  147.0020 C   0  0  0  0  0  2  0  0  0  0  0  0
  186.8000  177.6770  146.3550 C   0  0  2  0  0  3  0  0  0  0  0  0
  186.2440  177.4300  144.9750 C   0  0  0  0  0  0  0  0  0  0  0  0
  190.7900  177.0130  144.0550 C   0  0  0  0  0  2  0  0  0  0  0  0
  190.9040  178.5040  143.7640 C   0  0  0  0  0  1  0  0  0  0  0  0
  188.3000  177.6410  141.1820 O   0  0  0  0  0  0  0  0  0  0  0  0
  186.9720  178.0360  141.3690 C   0  0  0  0  0  2  0  0  0  0  0  0
  186.2400  177.8000  140.2040 O   0  0  0  0  0  1  0  0  0  0  0  0
  1 13  1  0  0  0  0
  1  2  1  1  0  0  0
  3  7  1  0  0  0  0
  3  1  1  1  0  0  0
  4  8  1  0  0  0  0
  4  3  1  0  0  0  0
  5  7  1  0  0  0  0
  6  4  2  0  0  0  0
  8  9  1  6  0  0  0
  8  5  1  0  0  0  0
 10  9  1  0  0  0  0
 10 11  1  0  0  0  0
 12 11  1  0  0  0  0
 13 14  1  1  0  0  0
 15 16  1  0  0  0  0
 15 13  1  0  0  0  0
 17 16  1  0  0  0  0
 17 19  1  0  0  0  0
 19 18  1  6  0  0  0
 20 23  1  0  0  0  0
 21 22  1  6  0  0  0
 21 20  1  0  0  0  0
 23 24  2  0  0  0  0
 25 28  1  0  0  0  0
 25 27  1  0  0  0  0
 26 23  1  0  0  0  0
 27 19  1  1  0  0  0
 27 21  1  0  0  0  0
 28 26  1  0  0  0  0
 29 23  2  0  0  0  0
 30  1  1  0  0  0  0
 31 32  1  6  0  0  0
 31 30  1  0  0  0  0
 31 33  1  0  0  0  0
 33 34  1  0  0  0  0
 34 49  1  6  0  0  0
 35 46  2  0  0  0  0
 35 43  1  0  0  0  0
 38 37  1  0  0  0  0
 38 36  1  1  0  0  0
 39 46  1  0  0  0  0
 41 34  1  6  0  0  0
 41 39  1  0  0  0  0
 41 42  1  0  0  0  0
 42 47  1  6  0  0  0
 42 38  1  0  0  0  0
 43 44  1  0  0  0  0
 44 40  1  0  0  0  0
 45 37  1  1  0  0  0
 45 40  1  0  0  0  0
 46 45  1  0  0  0  0
 48 47  1  0  0  0  0
 49 50  1  0  0  0  0
 51 50  1  0  0  0  0
M  END
>  <MODEL>
3

>  <REMARK>
 VINA RESULT:      -7.1      2.308      3.410
  Name = 
  18 active torsions:
  status: ('A' for Active; 'I' for Inactive)
    1  A    between atoms: C_1  and  C_4
    2  A    between atoms: C_1  and  C_10
    3  A    between atoms: C_4  and  C_9
    4  A    between atoms: C_5  and  C_9
    5  A    between atoms: C_9  and  C_38
    6  A    between atoms: C_10  and  C_43
    7  A    between atoms: C_11  and  O_15
    8  A    between atoms: C_11  and  C_38
    9  A    between atoms: O_15  and  C_26
   10  A    between atoms: O_18  and  C_19
   11  A    between atoms: O_18  and  C_45
   12  A    between atoms: C_19  and  C_21
   13  A    between atoms: C_22  and  O_47
   14  A    between atoms: C_26  and  C_34
   15  A    between atoms: C_26  and  O_47
   16  A    between atoms: C_29  and  C_35
   17  A    between atoms: C_37  and  C_50
   18  A    between atoms: C_43  and  C_50
                            x       y       z     vdW  Elec       q    Type
                         _______ _______ _______ _____ _____    ______ ____

>  <TORSDO>
F 18

$$$$
=
 OpenBabel11042415253D

 51 54  0  0  1  0  0  0  0  0999 V2000
  195.1000  174.5110  140.6830 C   0  0  2  0  0  0  0  0  0  0  0  0
  196.5190  175.0860  140.6680 C   0  0  0  0  0  1  0  0  0  0  0  0
  194.7600  173.8560  139.3090 C   0  0  1  0  0  3  0  0  0  0  0  0
  194.3470  172.4480  139.3640 C   0  0  0  0  0  0  0  0  0  0  0  0
  192.4130  173.5900  138.7990 O   0  0  0  0  0  0  0  0  0  0  0  0
  195.1060  171.5110  139.5480 O   0  0  0  0  0  0  0  0  0  0  0  0
  193.5180  174.4680  138.6670 C   0  0  0  0  0  2  0  0  0  0  0  0
  192.9250  172.2940  139.0070 C   0  0  1  0  0  3  0  0  0  0  0  0
  192.8070  171.5500  137.8310 O   0  0  0  0  0  0  0  0  0  0  0  0
  192.2750  170.3250  138.2360 C   0  0  0  0  0  2  0  0  0  0  0  0
  191.0110  170.5620  139.0340 C   0  0  0  0  0  2  0  0  0  0  0  0
  189.8090  170.4090  138.1270 C   0  0  0  0  0  1  0  0  0  0  0  0
  194.0810  175.6390  141.0270 C   0  0  2  0  0  3  0  0  0  0  0  0
  194.7120  176.7940  141.5050 O   0  0  0  0  0  1  0  0  0  0  0  0
  192.9440  175.2400  141.9780 C   0  0  0  0  0  2  0  0  0  0  0  0
  192.2000  176.4440  142.5410 C   0  0  0  0  0  2  0  0  0  0  0  0
  190.7150  176.1460  142.7120 C   0  0  0  0  0  2  0  0  0  0  0  0
  190.6940  178.4550  143.3270 O   0  0  0  0  0  1  0  0  0  0  0  0
  189.8640  177.3980  142.9420 C   0  0  2  0  0  3  0  0  0  0  0  0
  186.2520  177.3000  144.1660 C   0  0  0  0  0  2  0  0  0  0  0  0
  187.5020  178.0690  143.7680 C   0  0  2  0  0  3  0  0  0  0  0  0
  187.3620  178.4880  142.4440 O   0  0  0  0  0  1  0  0  0  0  0  0
  185.8660  177.5370  145.8920 S   0  0  0  0  0  0  0  0  0  0  0  0
  185.0520  178.7900  146.0420 O   0  0  0  0  0  0  0  0  0  0  0  0
  189.2840  177.3660  145.3910 C   0  0  0  0  0  2  0  0  0  0  0  0
  187.3250  177.6730  146.9040 C   0  0  0  0  0  2  0  0  0  0  0  0
  188.7390  177.1700  143.9740 C   0  0  2  0  0  3  0  0  0  0  0  0
  188.4030  176.7070  146.4410 C   0  0  0  0  0  2  0  0  0  0  0  0
  185.0530  176.3670  146.3670 O   0  0  0  0  0  0  0  0  0  0  0  0
  195.0740  173.4150  141.7670 C   0  0  0  0  0  2  0  0  0  0  0  0
  196.3860  173.2990  142.5470 C   0  0  2  0  0  3  0  0  0  0  0  0
  196.9720  171.8920  142.4900 C   0  0  0  0  0  1  0  0  0  0  0  0
  196.3260  173.9020  143.8350 O   0  0  0  0  0  0  0  0  0  0  0  0
  195.5510  173.1760  144.7870 C   0  0  2  0  0  3  0  0  0  0  0  0
  191.6280  171.9870  143.0200 C   0  0  0  0  0  3  0  0  0  0  0  0
  192.0880  175.9820  147.3370 C   0  0  0  0  0  1  0  0  0  0  0  0
  191.2210  174.0530  146.1100 C   0  0  0  0  0  2  0  0  0  0  0  0
  192.3060  175.1210  146.1020 C   0  0  2  0  0  3  0  0  0  0  0  0
  193.1940  172.4000  144.8550 C   0  0  0  0  0  2  0  0  0  0  0  0
  189.4860  172.9820  144.6630 C   0  0  0  0  0  2  0  0  0  0  0  0
  194.0760  173.6490  144.8430 C   0  0  1  0  0  3  0  0  0  0  0  0
  193.7560  174.5630  146.0650 C   0  0  1  0  0  3  0  0  0  0  0  0
  190.3160  172.2330  142.3300 C   0  0  0  0  0  2  0  0  0  0  0  0
  189.1650  172.2360  143.3470 C   0  0  0  0  0  2  0  0  0  0  0  0
  190.8820  173.6180  144.6930 C   0  0  2  0  0  3  0  0  0  0  0  0
  191.9070  172.6570  144.1440 C   0  0  0  0  0  0  0  0  0  0  0  0
  194.7510  175.7270  146.1890 C   0  0  0  0  0  2  0  0  0  0  0  0
  194.6280  176.7140  145.0350 C   0  0  0  0  0  1  0  0  0  0  0  0
  196.1640  173.1260  146.0500 O   0  0  0  0  0  0  0  0  0  0  0  0
  196.9170  171.9480  146.0410 C   0  0  0  0  0  2  0  0  0  0  0  0
  196.0650  170.8420  146.0210 O   0  0  0  0  0  1  0  0  0  0  0  0
  1  2  1  6  0  0  0
  1 13  1  0  0  0  0
  1 30  1  0  0  0  0
  3  4  1  0  0  0  0
  3  1  1  1  0  0  0
  4  6  2  0  0  0  0
  5  8  1  0  0  0  0
  7  5  1  0  0  0  0
  7  3  1  0  0  0  0
  8  9  1  6  0  0  0
  8  4  1  0  0  0  0
  9 10  1  0  0  0  0
 10 11  1  0  0  0  0
 12 11  1  0  0  0  0
 13 14  1  1  0  0  0
 13 15  1  0  0  0  0
 15 16  1  0  0  0  0
 16 17  1  0  0  0  0
 17 19  1  0  0  0  0
 19 18  1  1  0  0  0
 20 23  1  0  0  0  0
 21 22  1  6  0  0  0
 21 27  1  0  0  0  0
 21 20  1  0  0  0  0
 23 24  2  0  0  0  0
 23 29  2  0  0  0  0
 23 26  1  0  0  0  0
 25 28  1  0  0  0  0
 27 19  1  6  0  0  0
 27 25  1  0  0  0  0
 28 26  1  0  0  0  0
 30 31  1  0  0  0  0
 31 32  1  1  0  0  0
 31 33  1  0  0  0  0
 34 33  1  6  0  0  0
 34 49  1  0  0  0  0
 35 46  2  0  0  0  0
 38 37  1  0  0  0  0
 38 36  1  1  0  0  0
 41 34  1  1  0  0  0
 41 39  1  0  0  0  0
 41 42  1  0  0  0  0
 42 38  1  0  0  0  0
 42 47  1  6  0  0  0
 43 35  1  0  0  0  0
 43 44  1  0  0  0  0
 44 40  1  0  0  0  0
 45 40  1  1  0  0  0
 45 37  1  0  0  0  0
 46 45  1  0  0  0  0
 46 39  1  0  0  0  0
 48 47  1  0  0  0  0
 50 49  1  0  0  0  0
 51 50  1  0  0  0  0
M  END
>  <MODEL>
4

>  <REMARK>
 VINA RESULT:      -7.0      2.791      7.510
  Name = 
  18 active torsions:
  status: ('A' for Active; 'I' for Inactive)
    1  A    between atoms: C_1  and  C_4
    2  A    between atoms: C_1  and  C_10
    3  A    between atoms: C_4  and  C_9
    4  A    between atoms: C_5  and  C_9
    5  A    between atoms: C_9  and  C_38
    6  A    between atoms: C_10  and  C_43
    7  A    between atoms: C_11  and  O_15
    8  A    between atoms: C_11  and  C_38
    9  A    between atoms: O_15  and  C_26
   10  A    between atoms: O_18  and  C_19
   11  A    between atoms: O_18  and  C_45
   12  A    between atoms: C_19  and  C_21
   13  A    between atoms: C_22  and  O_47
   14  A    between atoms: C_26  and  C_34
   15  A    between atoms: C_26  and  O_47
   16  A    between atoms: C_29  and  C_35
   17  A    between atoms: C_37  and  C_50
   18  A    between atoms: C_43  and  C_50
                            x       y       z     vdW  Elec       q    Type
                         _______ _______ _______ _____ _____    ______ ____

>  <TORSDO>
F 18

$$$$
=
 OpenBabel11042415253D

 51 54  0  0  1  0  0  0  0  0999 V2000
  195.3700  174.6480  140.6680 C   0  0  2  0  0  0  0  0  0  0  0  0
  196.6810  175.4380  140.6270 C   0  0  0  0  0  1  0  0  0  0  0  0
  195.1850  173.8240  139.3560 C   0  0  1  0  0  3  0  0  0  0  0  0
  195.6540  174.4760  138.1270 C   0  0  0  0  0  0  0  0  0  0  0  0
  197.1630  172.7540  138.4740 O   0  0  0  0  0  0  0  0  0  0  0  0
  195.0700  175.3850  137.5610 O   0  0  0  0  0  0  0  0  0  0  0  0
  196.0520  172.5690  139.3350 C   0  0  0  0  0  2  0  0  0  0  0  0
  196.8330  173.7870  137.5740 C   0  0  1  0  0  3  0  0  0  0  0  0
  196.5250  173.2400  136.3270 O   0  0  0  0  0  0  0  0  0  0  0  0
  197.7570  173.0820  135.6910 C   0  0  0  0  0  2  0  0  0  0  0  0
  197.8570  171.6820  135.1250 C   0  0  0  0  0  2  0  0  0  0  0  0
  196.4670  171.1060  134.9630 C   0  0  0  0  0  1  0  0  0  0  0  0
  194.1760  175.6270  140.8810 C   0  0  2  0  0  3  0  0  0  0  0  0
  194.5820  176.8430  141.4440 O   0  0  0  0  0  1  0  0  0  0  0  0
  192.9880  175.0640  141.6720 C   0  0  0  0  0  2  0  0  0  0  0  0
  192.3040  176.1170  142.5350 C   0  0  0  0  0  2  0  0  0  0  0  0
  190.7990  175.8820  142.6040 C   0  0  0  0  0  2  0  0  0  0  0  0
  190.8510  178.2120  143.1330 O   0  0  0  0  0  1  0  0  0  0  0  0
  189.9890  177.1700  142.7810 C   0  0  2  0  0  3  0  0  0  0  0  0
  186.3670  177.2310  143.9750 C   0  0  0  0  0  2  0  0  0  0  0  0
  187.6430  177.9450  143.5580 C   0  0  2  0  0  3  0  0  0  0  0  0
  187.5260  178.3140  142.2170 O   0  0  0  0  0  1  0  0  0  0  0  0
  185.9740  177.5490  145.6870 S   0  0  0  0  0  0  0  0  0  0  0  0
  185.1990  178.8310  145.7800 O   0  0  0  0  0  0  0  0  0  0  0  0
  189.3900  177.2540  145.2240 C   0  0  0  0  0  2  0  0  0  0  0  0
  187.4300  177.6810  146.7060 C   0  0  0  0  0  2  0  0  0  0  0  0
  188.8500  177.0180  143.8110 C   0  0  2  0  0  3  0  0  0  0  0  0
  188.4800  176.6650  146.2910 C   0  0  0  0  0  2  0  0  0  0  0  0
  185.1220  176.4240  146.2010 O   0  0  0  0  0  0  0  0  0  0  0  0
  195.4780  173.6670  141.8520 C   0  0  0  0  0  2  0  0  0  0  0  0
  196.7150  173.8950  142.7220 C   0  0  2  0  0  3  0  0  0  0  0  0
  197.6060  172.6590  142.8000 C   0  0  0  0  0  1  0  0  0  0  0  0
  196.4200  174.5350  143.9580 O   0  0  0  0  0  0  0  0  0  0  0  0
  195.7180  173.7140  144.8900 C   0  0  2  0  0  3  0  0  0  0  0  0
  191.8360  172.0950  143.3940 C   0  0  0  0  0  3  0  0  0  0  0  0
  192.1440  176.4080  147.4080 C   0  0  0  0  0  1  0  0  0  0  0  0
  191.3890  174.3350  146.3560 C   0  0  0  0  0  2  0  0  0  0  0  0
  192.3800  175.4830  146.2240 C   0  0  2  0  0  3  0  0  0  0  0  0
  193.4380  172.7600  145.1210 C   0  0  0  0  0  2  0  0  0  0  0  0
  189.6890  173.0300  145.0670 C   0  0  0  0  0  2  0  0  0  0  0  0
  194.2120  174.0710  144.9840 C   0  0  1  0  0  3  0  0  0  0  0  0
  193.8690  175.0410  146.1560 C   0  0  1  0  0  3  0  0  0  0  0  0
  190.4800  172.1870  142.7530 C   0  0  0  0  0  2  0  0  0  0  0  0
  189.3770  172.1700  143.8200 C   0  0  0  0  0  2  0  0  0  0  0  0
  191.0280  173.7750  144.9880 C   0  0  2  0  0  3  0  0  0  0  0  0
  192.1050  172.8630  144.4560 C   0  0  0  0  0  0  0  0  0  0  0  0
  194.7680  176.2860  146.1540 C   0  0  0  0  0  2  0  0  0  0  0  0
  194.5020  177.1880  144.9560 C   0  0  0  0  0  1  0  0  0  0  0  0
  196.3520  173.6620  146.1410 O   0  0  0  0  0  0  0  0  0  0  0  0
  197.0640  172.4580  146.1360 C   0  0  0  0  0  2  0  0  0  0  0  0
  196.2830  171.4490  145.5720 O   0  0  0  0  0  1  0  0  0  0  0  0
  1  2  1  6  0  0  0
  1 13  1  0  0  0  0
  1 30  1  0  0  0  0
  3  1  1  1  0  0  0
  4  3  1  0  0  0  0
  5  7  1  0  0  0  0
  6  4  2  0  0  0  0
  7  3  1  0  0  0  0
  8  9  1  6  0  0  0
  8  4  1  0  0  0  0
  8  5  1  0  0  0  0
 10  9  1  0  0  0  0
 11 10  1  0  0  0  0
 12 11  1  0  0  0  0
 13 14  1  1  0  0  0
 13 15  1  0  0  0  0
 15 16  1  0  0  0  0
 16 17  1  0  0  0  0
 17 19  1  0  0  0  0
 19 18  1  1  0  0  0
 20 23  1  0  0  0  0
 21 22  1  6  0  0  0
 21 27  1  0  0  0  0
 21 20  1  0  0  0  0
 23 24  2  0  0  0  0
 23 29  2  0  0  0  0
 23 26  1  0  0  0  0
 25 28  1  0  0  0  0
 27 19  1  6  0  0  0
 27 25  1  0  0  0  0
 28 26  1  0  0  0  0
 30 31  1  0  0  0  0
 31 32  1  1  0  0  0
 31 33  1  0  0  0  0
 34 33  1  6  0  0  0
 34 49  1  0  0  0  0
 35 46  2  0  0  0  0
 38 37  1  0  0  0  0
 38 36  1  1  0  0  0
 41 34  1  1  0  0  0
 41 39  1  0  0  0  0
 41 42  1  0  0  0  0
 42 47  1  6  0  0  0
 42 38  1  0  0  0  0
 43 35  1  0  0  0  0
 43 44  1  0  0  0  0
 44 40  1  0  0  0  0
 45 40  1  1  0  0  0
 45 37  1  0  0  0  0
 46 45  1  0  0  0  0
 46 39  1  0  0  0  0
 48 47  1  0  0  0  0
 50 49  1  0  0  0  0
 51 50  1  0  0  0  0
M  END
>  <MODEL>
5

>  <REMARK>
 VINA RESULT:      -6.9      3.279      7.937
  Name = 
  18 active torsions:
  status: ('A' for Active; 'I' for Inactive)
    1  A    between atoms: C_1  and  C_4
    2  A    between atoms: C_1  and  C_10
    3  A    between atoms: C_4  and  C_9
    4  A    between atoms: C_5  and  C_9
    5  A    between atoms: C_9  and  C_38
    6  A    between atoms: C_10  and  C_43
    7  A    between atoms: C_11  and  O_15
    8  A    between atoms: C_11  and  C_38
    9  A    between atoms: O_15  and  C_26
   10  A    between atoms: O_18  and  C_19
   11  A    between atoms: O_18  and  C_45
   12  A    between atoms: C_19  and  C_21
   13  A    between atoms: C_22  and  O_47
   14  A    between atoms: C_26  and  C_34
   15  A    between atoms: C_26  and  O_47
   16  A    between atoms: C_29  and  C_35
   17  A    between atoms: C_37  and  C_50
   18  A    between atoms: C_43  and  C_50
                            x       y       z     vdW  Elec       q    Type
                         _______ _______ _______ _____ _____    ______ ____

>  <TORSDO>
F 18

$$$$
=
 OpenBabel11042415253D

 51 54  0  0  1  0  0  0  0  0999 V2000
  189.4840  176.2490  145.4260 C   0  0  2  0  0  0  0  0  0  0  0  0
  189.9630  177.6000  145.9630 C   0  0  0  0  0  1  0  0  0  0  0  0
  187.9530  176.2890  145.1250 C   0  0  1  0  0  3  0  0  0  0  0  0
  187.2570  177.5090  145.5530 C   0  0  0  0  0  0  0  0  0  0  0  0
  187.2660  177.6350  143.2410 O   0  0  0  0  0  0  0  0  0  0  0  0
  186.9700  177.7720  146.7090 O   0  0  0  0  0  0  0  0  0  0  0  0
  187.6590  176.3300  143.6290 C   0  0  0  0  0  2  0  0  0  0  0  0
  186.8020  178.2990  144.3950 C   0  0  1  0  0  3  0  0  0  0  0  0
  185.4070  178.3550  144.3730 O   0  0  0  0  0  0  0  0  0  0  0  0
  185.0950  179.0400  143.1980 C   0  0  0  0  0  2  0  0  0  0  0  0
  184.0150  178.2910  142.4490 C   0  0  0  0  0  2  0  0  0  0  0  0
  184.3370  178.2910  140.9700 C   0  0  0  0  0  1  0  0  0  0  0  0
  189.8170  175.1270  146.4560 C   0  0  2  0  0  3  0  0  0  0  0  0
  191.1830  175.0770  146.7590 O   0  0  0  0  0  1  0  0  0  0  0  0
  189.3160  173.7230  146.0950 C   0  0  0  0  0  2  0  0  0  0  0  0
  190.3120  172.9440  145.2450 C   0  0  0  0  0  2  0  0  0  0  0  0
  189.5980  172.0560  144.2320 C   0  0  0  0  0  2  0  0  0  0  0  0
  188.0970  172.2910  142.3870 O   0  0  0  0  0  1  0  0  0  0  0  0
  189.3100  172.7580  142.9020 C   0  0  2  0  0  3  0  0  0  0  0  0
  191.5230  173.7880  139.9710 C   0  0  0  0  0  2  0  0  0  0  0  0
  190.2010  173.2840  140.5270 C   0  0  2  0  0  3  0  0  0  0  0  0
  189.3280  174.3660  140.6420 O   0  0  0  0  0  1  0  0  0  0  0  0
  192.3050  172.5590  138.9400 S   0  0  0  0  0  0  0  0  0  0  0  0
  191.7610  172.6720  137.5460 O   0  0  0  0  0  0  0  0  0  0  0  0
  190.7180  171.0950  141.6420 C   0  0  0  0  0  2  0  0  0  0  0  0
  192.0320  170.9000  139.5320 C   0  0  0  0  0  2  0  0  0  0  0  0
  190.4520  172.5830  141.8790 C   0  0  2  0  0  3  0  0  0  0  0  0
  192.0950  170.8450  141.0480 C   0  0  0  0  0  2  0  0  0  0  0  0
  193.7830  172.8260  138.9100 O   0  0  0  0  0  0  0  0  0  0  0  0
  190.2360  176.0030  144.1020 C   0  0  0  0  0  2  0  0  0  0  0  0
  191.3310  177.0340  143.8240 C   0  0  2  0  0  3  0  0  0  0  0  0
  190.7760  178.3240  143.2290 C   0  0  0  0  0  1  0  0  0  0  0  0
  192.4680  176.4810  143.1710 O   0  0  0  0  0  0  0  0  0  0  0  0
  193.6160  176.3450  144.0070 C   0  0  2  0  0  3  0  0  0  0  0  0
  193.8580  172.0840  145.3160 C   0  0  0  0  0  3  0  0  0  0  0  0
  196.7760  174.1340  140.6160 C   0  0  0  0  0  1  0  0  0  0  0  0
  195.3950  172.6200  141.9500 C   0  0  0  0  0  2  0  0  0  0  0  0
  196.1140  173.9620  141.9750 C   0  0  2  0  0  3  0  0  0  0  0  0
  193.5100  173.8840  143.6950 C   0  0  0  0  0  2  0  0  0  0  0  0
  195.1000  170.5080  143.2550 C   0  0  0  0  0  2  0  0  0  0  0  0
  194.4550  175.0860  143.6690 C   0  0  1  0  0  3  0  0  0  0  0  0
  195.1980  175.1740  142.3020 C   0  0  1  0  0  3  0  0  0  0  0  0
  194.5650  170.8370  145.7640 C   0  0  0  0  0  2  0  0  0  0  0  0
  194.7070  169.8490  144.5970 C   0  0  0  0  0  2  0  0  0  0  0  0
  195.3180  172.0240  143.3470 C   0  0  2  0  0  3  0  0  0  0  0  0
  194.2240  172.6610  144.1670 C   0  0  0  0  0  0  0  0  0  0  0  0
  196.0090  176.4720  142.1710 C   0  0  0  0  0  2  0  0  0  0  0  0
  197.1850  176.5170  143.1380 C   0  0  0  0  0  1  0  0  0  0  0  0
  193.3010  176.4500  145.3710 O   0  0  0  0  0  0  0  0  0  0  0  0
  194.5250  176.6680  146.0100 C   0  0  0  0  0  2  0  0  0  0  0  0
  195.0190  177.9270  145.6690 O   0  0  0  0  0  1  0  0  0  0  0  0
  1  2  1  1  0  0  0
  1 13  1  0  0  0  0
  3  1  1  6  0  0  0
  3  4  1  0  0  0  0
  4  6  2  0  0  0  0
  5  7  1  0  0  0  0
  5  8  1  0  0  0  0
  7  3  1  0  0  0  0
  8  9  1  6  0  0  0
  8  4  1  0  0  0  0
 10  9  1  0  0  0  0
 11 10  1  0  0  0  0
 12 11  1  0  0  0  0
 13 14  1  6  0  0  0
 15 13  1  0  0  0  0
 16 15  1  0  0  0  0
 17 16  1  0  0  0  0
 19 18  1  6  0  0  0
 19 17  1  0  0  0  0
 20 21  1  0  0  0  0
 21 22  1  1  0  0  0
 21 27  1  0  0  0  0
 23 26  1  0  0  0  0
 23 20  1  0  0  0  0
 24 23  2  0  0  0  0
 25 27  1  0  0  0  0
 26 28  1  0  0  0  0
 27 19  1  1  0  0  0
 28 25  1  0  0  0  0
 29 23  2  0  0  0  0
 30  1  1  0  0  0  0
 31 32  1  6  0  0  0
 31 30  1  0  0  0  0
 33 31  1  0  0  0  0
 34 33  1  6  0  0  0
 34 49  1  0  0  0  0
 35 43  1  0  0  0  0
 37 38  1  0  0  0  0
 38 36  1  6  0  0  0
 38 42  1  0  0  0  0
 39 46  1  0  0  0  0
 40 45  1  0  0  0  0
 40 44  1  0  0  0  0
 41 39  1  0  0  0  0
 41 34  1  6  0  0  0
 42 47  1  1  0  0  0
 42 41  1  0  0  0  0
 44 43  1  0  0  0  0
 45 37  1  6  0  0  0
 45 46  1  0  0  0  0
 46 35  2  0  0  0  0
 47 48  1  0  0  0  0
 49 50  1  0  0  0  0
 51 50  1  0  0  0  0
M  END
>  <MODEL>
6

>  <REMARK>
 VINA RESULT:      -6.9      2.223      7.869
  Name = 
  18 active torsions:
  status: ('A' for Active; 'I' for Inactive)
    1  A    between atoms: C_1  and  C_4
    2  A    between atoms: C_1  and  C_10
    3  A    between atoms: C_4  and  C_9
    4  A    between atoms: C_5  and  C_9
    5  A    between atoms: C_9  and  C_38
    6  A    between atoms: C_10  and  C_43
    7  A    between atoms: C_11  and  O_15
    8  A    between atoms: C_11  and  C_38
    9  A    between atoms: O_15  and  C_26
   10  A    between atoms: O_18  and  C_19
   11  A    between atoms: O_18  and  C_45
   12  A    between atoms: C_19  and  C_21
   13  A    between atoms: C_22  and  O_47
   14  A    between atoms: C_26  and  C_34
   15  A    between atoms: C_26  and  O_47
   16  A    between atoms: C_29  and  C_35
   17  A    between atoms: C_37  and  C_50
   18  A    between atoms: C_43  and  C_50
                            x       y       z     vdW  Elec       q    Type
                         _______ _______ _______ _____ _____    ______ ____

>  <TORSDO>
F 18

$$$$
=
 OpenBabel11042415253D

 51 54  0  0  1  0  0  0  0  0999 V2000
  190.7180  172.4690  141.0320 C   0  0  2  0  0  0  0  0  0  0  0  0
  189.7170  171.7640  140.1140 C   0  0  0  0  0  1  0  0  0  0  0  0
  192.1070  172.5970  140.3340 C   0  0  1  0  0  3  0  0  0  0  0  0
  192.4870  171.4730  139.4690 C   0  0  0  0  0  0  0  0  0  0  0  0
  192.0810  173.2150  137.9990 O   0  0  0  0  0  0  0  0  0  0  0  0
  192.8640  170.3860  139.8740 O   0  0  0  0  0  0  0  0  0  0  0  0
  192.1410  173.7330  139.3160 C   0  0  0  0  0  2  0  0  0  0  0  0
  192.5110  171.8740  138.0510 C   0  0  1  0  0  3  0  0  0  0  0  0
  193.8120  171.7800  137.5510 O   0  0  0  0  0  0  0  0  0  0  0  0
  193.6530  171.5020  136.1930 C   0  0  0  0  0  2  0  0  0  0  0  0
  193.4560  170.0130  136.0030 C   0  0  0  0  0  2  0  0  0  0  0  0
  194.7390  169.2890  136.3490 C   0  0  0  0  0  1  0  0  0  0  0  0
  190.8420  171.6850  142.3730 C   0  0  2  0  0  3  0  0  0  0  0  0
  190.4970  170.3350  142.2300 O   0  0  0  0  0  1  0  0  0  0  0  0
  190.0890  172.2860  143.5670 C   0  0  0  0  0  2  0  0  0  0  0  0
  191.0210  172.7340  144.6850 C   0  0  0  0  0  2  0  0  0  0  0  0
  192.4500  172.2650  144.4340 C   0  0  0  0  0  2  0  0  0  0  0  0
  192.8830  174.0810  145.9260 O   0  0  0  0  0  1  0  0  0  0  0  0
  193.5090  173.1690  145.0720 C   0  0  2  0  0  3  0  0  0  0  0  0
  196.7380  174.6280  143.6590 C   0  0  0  0  0  2  0  0  0  0  0  0
  195.5630  174.6820  144.6220 C   0  0  2  0  0  3  0  0  0  0  0  0
  195.9760  174.1680  145.8530 O   0  0  0  0  0  1  0  0  0  0  0  0
  196.6990  175.9920  142.5090 S   0  0  0  0  0  0  0  0  0  0  0  0
  197.3660  177.1800  143.1380 O   0  0  0  0  0  0  0  0  0  0  0  0
  193.5090  174.8400  143.1880 C   0  0  0  0  0  2  0  0  0  0  0  0
  195.0390  176.4420  142.0440 C   0  0  0  0  0  2  0  0  0  0  0  0
  194.3780  173.8960  144.0240 C   0  0  2  0  0  3  0  0  0  0  0  0
  194.1680  175.2100  141.8690 C   0  0  0  0  0  2  0  0  0  0  0  0
  197.4590  175.6020  141.2740 O   0  0  0  0  0  0  0  0  0  0  0  0
  190.1670  173.8870  141.2880 C   0  0  0  0  0  2  0  0  0  0  0  0
  188.6800  174.0300  140.9590 C   0  0  2  0  0  3  0  0  0  0  0  0
  188.4470  174.6490  139.5850 C   0  0  0  0  0  1  0  0  0  0  0  0
  187.9200  174.5780  142.0300 O   0  0  0  0  0  0  0  0  0  0  0  0
  187.7830  175.9970  141.9870 C   0  0  2  0  0  3  0  0  0  0  0  0
  184.9210  177.9660  144.7910 C   0  0  0  0  0  3  0  0  0  0  0  0
  190.4040  176.4740  146.3760 C   0  0  0  0  0  1  0  0  0  0  0  0
  187.9760  176.7040  146.5400 C   0  0  0  0  0  2  0  0  0  0  0  0
  189.1690  176.9440  145.6240 C   0  0  2  0  0  3  0  0  0  0  0  0
  186.5270  176.2470  144.1130 C   0  0  0  0  0  2  0  0  0  0  0  0
  185.9440  177.8210  147.4760 C   0  0  0  0  0  2  0  0  0  0  0  0
  187.8170  176.6440  143.3950 C   0  0  1  0  0  3  0  0  0  0  0  0
  189.0640  176.2450  144.2400 C   0  0  1  0  0  3  0  0  0  0  0  0
  184.4660  179.0390  145.7380 C   0  0  0  0  0  2  0  0  0  0  0  0
  184.6250  178.5770  147.1930 C   0  0  0  0  0  2  0  0  0  0  0  0
  186.8700  177.7090  146.2570 C   0  0  2  0  0  3  0  0  0  0  0  0
  186.0770  177.3360  145.0300 C   0  0  0  0  0  0  0  0  0  0  0  0
  190.3740  176.4550  143.4650 C   0  0  0  0  0  2  0  0  0  0  0  0
  190.6370  177.9250  143.1660 C   0  0  0  0  0  1  0  0  0  0  0  0
  186.6810  176.4050  141.2170 O   0  0  0  0  0  0  0  0  0  0  0  0
  186.8350  177.7870  141.0690 C   0  0  0  0  0  2  0  0  0  0  0  0
  185.8380  178.2860  140.2290 O   0  0  0  0  0  1  0  0  0  0  0  0
  1  2  1  6  0  0  0
  1 30  1  0  0  0  0
  1 13  1  0  0  0  0
  3  1  1  6  0  0  0
  4  6  2  0  0  0  0
  4  3  1  0  0  0  0
  5  8  1  0  0  0  0
  5  7  1  0  0  0  0
  7  3  1  0  0  0  0
  8  9  1  1  0  0  0
  8  4  1  0  0  0  0
 10  9  1  0  0  0  0
 11 10  1  0  0  0  0
 11 12  1  0  0  0  0
 13 14  1  6  0  0  0
 13 15  1  0  0  0  0
 15 16  1  0  0  0  0
 17 16  1  0  0  0  0
 17 19  1  0  0  0  0
 19 18  1  6  0  0  0
 20 21  1  0  0  0  0
 21 22  1  1  0  0  0
 23 24  2  0  0  0  0
 23 20  1  0  0  0  0
 25 27  1  0  0  0  0
 26 23  1  0  0  0  0
 27 21  1  0  0  0  0
 27 19  1  1  0  0  0
 28 26  1  0  0  0  0
 28 25  1  0  0  0  0
 29 23  2  0  0  0  0
 31 32  1  6  0  0  0
 31 30  1  0  0  0  0
 31 33  1  0  0  0  0
 34 49  1  1  0  0  0
 34 33  1  0  0  0  0
 35 46  2  0  0  0  0
 35 43  1  0  0  0  0
 38 36  1  1  0  0  0
 38 37  1  0  0  0  0
 39 46  1  0  0  0  0
 41 34  1  6  0  0  0
 41 39  1  0  0  0  0
 41 42  1  0  0  0  0
 42 47  1  6  0  0  0
 42 38  1  0  0  0  0
 43 44  1  0  0  0  0
 44 40  1  0  0  0  0
 45 37  1  1  0  0  0
 45 40  1  0  0  0  0
 46 45  1  0  0  0  0
 48 47  1  0  0  0  0
 50 49  1  0  0  0  0
 51 50  1  0  0  0  0
M  END
>  <MODEL>
7

>  <REMARK>
 VINA RESULT:      -6.9      1.544      2.239
  Name = 
  18 active torsions:
  status: ('A' for Active; 'I' for Inactive)
    1  A    between atoms: C_1  and  C_4
    2  A    between atoms: C_1  and  C_10
    3  A    between atoms: C_4  and  C_9
    4  A    between atoms: C_5  and  C_9
    5  A    between atoms: C_9  and  C_38
    6  A    between atoms: C_10  and  C_43
    7  A    between atoms: C_11  and  O_15
    8  A    between atoms: C_11  and  C_38
    9  A    between atoms: O_15  and  C_26
   10  A    between atoms: O_18  and  C_19
   11  A    between atoms: O_18  and  C_45
   12  A    between atoms: C_19  and  C_21
   13  A    between atoms: C_22  and  O_47
   14  A    between atoms: C_26  and  C_34
   15  A    between atoms: C_26  and  O_47
   16  A    between atoms: C_29  and  C_35
   17  A    between atoms: C_37  and  C_50
   18  A    between atoms: C_43  and  C_50
                            x       y       z     vdW  Elec       q    Type
                         _______ _______ _______ _____ _____    ______ ____

>  <TORSDO>
F 18

$$$$
=
 OpenBabel11042415253D

 51 54  0  0  1  0  0  0  0  0999 V2000
  190.1040  172.7290  140.2270 C   0  0  2  0  0  0  0  0  0  0  0  0
  190.0660  171.2680  139.7710 C   0  0  0  0  0  1  0  0  0  0  0  0
  190.0920  173.6880  138.9970 C   0  0  1  0  0  3  0  0  0  0  0  0
  190.7100  173.1570  137.7750 C   0  0  0  0  0  0  0  0  0  0  0  0
  188.4470  173.2230  137.2900 O   0  0  0  0  0  0  0  0  0  0  0  0
  191.9130  173.0510  137.5980 O   0  0  0  0  0  0  0  0  0  0  0  0
  188.6810  173.9520  138.4830 C   0  0  0  0  0  2  0  0  0  0  0  0
  189.7020  172.9200  136.7260 C   0  0  1  0  0  3  0  0  0  0  0  0
  189.9410  173.7620  135.6370 O   0  0  0  0  0  0  0  0  0  0  0  0
  190.6450  172.9740  134.7250 C   0  0  0  0  0  2  0  0  0  0  0  0
  189.9120  171.6670  134.5160 C   0  0  0  0  0  2  0  0  0  0  0  0
  190.9090  170.5280  134.5130 C   0  0  0  0  0  1  0  0  0  0  0  0
  191.3670  172.9710  141.1080 C   0  0  2  0  0  3  0  0  0  0  0  0
  192.0520  174.1360  140.7410 O   0  0  0  0  0  1  0  0  0  0  0  0
  192.3530  171.7980  141.1940 C   0  0  0  0  0  2  0  0  0  0  0  0
  192.4220  171.1910  142.5880 C   0  0  0  0  0  2  0  0  0  0  0  0
  193.7610  170.4990  142.8240 C   0  0  0  0  0  2  0  0  0  0  0  0
  196.1440  170.6590  142.7290 O   0  0  0  0  0  1  0  0  0  0  0  0
  194.9690  171.3710  142.4690 C   0  0  2  0  0  3  0  0  0  0  0  0
  194.7660  175.1700  142.7470 C   0  0  0  0  0  2  0  0  0  0  0  0
  195.5200  173.9000  142.3840 C   0  0  2  0  0  3  0  0  0  0  0  0
  195.3980  173.6900  141.0100 O   0  0  0  0  0  1  0  0  0  0  0  0
  195.5540  176.0310  144.0960 S   0  0  0  0  0  0  0  0  0  0  0  0
  196.6330  176.9180  143.5460 O   0  0  0  0  0  0  0  0  0  0  0  0
  195.7450  172.6030  144.5220 C   0  0  0  0  0  2  0  0  0  0  0  0
  196.2750  174.9170  145.2860 C   0  0  0  0  0  2  0  0  0  0  0  0
  194.9630  172.7240  143.2120 C   0  0  2  0  0  3  0  0  0  0  0  0
  195.3870  173.7050  145.5070 C   0  0  0  0  0  2  0  0  0  0  0  0
  194.5280  176.8820  144.7890 O   0  0  0  0  0  0  0  0  0  0  0  0
  188.8220  172.9720  141.0490 C   0  0  0  0  0  2  0  0  0  0  0  0
  189.0160  173.9600  142.2020 C   0  0  2  0  0  3  0  0  0  0  0  0
  189.2220  173.2560  143.5390 C   0  0  0  0  0  1  0  0  0  0  0  0
  188.0720  175.0240  142.1920 O   0  0  0  0  0  0  0  0  0  0  0  0
  188.6460  176.3200  142.3580 C   0  0  2  0  0  3  0  0  0  0  0  0
  185.2080  178.0090  144.6500 C   0  0  0  0  0  3  0  0  0  0  0  0
  190.4040  176.7820  147.1600 C   0  0  0  0  0  1  0  0  0  0  0  0
  187.9760  176.8630  146.8880 C   0  0  0  0  0  2  0  0  0  0  0  0
  189.2950  177.2060  146.2100 C   0  0  2  0  0  3  0  0  0  0  0  0
  187.0160  176.4140  144.2270 C   0  0  0  0  0  2  0  0  0  0  0  0
  185.7410  177.8220  147.4700 C   0  0  0  0  0  2  0  0  0  0  0  0
  188.3860  176.9130  143.7650 C   0  0  1  0  0  3  0  0  0  0  0  0
  189.4850  176.5560  144.8110 C   0  0  1  0  0  3  0  0  0  0  0  0
  184.5220  179.0170  145.5270 C   0  0  0  0  0  2  0  0  0  0  0  0
  184.4480  178.5100  146.9740 C   0  0  0  0  0  2  0  0  0  0  0  0
  186.8750  177.8110  146.4370 C   0  0  2  0  0  3  0  0  0  0  0  0
  186.3400  177.4390  145.0770 C   0  0  0  0  0  0  0  0  0  0  0  0
  190.8960  176.8720  144.2930 C   0  0  0  0  0  2  0  0  0  0  0  0
  191.0530  178.3360  143.9050 C   0  0  0  0  0  1  0  0  0  0  0  0
  188.3010  177.1950  141.3160 O   0  0  0  0  0  0  0  0  0  0  0  0
  187.1230  176.6680  140.7750 C   0  0  0  0  0  2  0  0  0  0  0  0
  186.5610  177.5840  139.8840 O   0  0  0  0  0  1  0  0  0  0  0  0
  1  2  1  6  0  0  0
  1 30  1  0  0  0  0
  1 13  1  0  0  0  0
  3  1  1  1  0  0  0
  4  3  1  0  0  0  0
  5  7  1  0  0  0  0
  6  4  2  0  0  0  0
  7  3  1  0  0  0  0
  8  9  1  6  0  0  0
  8  5  1  0  0  0  0
  8  4  1  0  0  0  0
 10  9  1  0  0  0  0
 11 10  1  0  0  0  0
 12 11  1  0  0  0  0
 13 14  1  6  0  0  0
 13 15  1  0  0  0  0
 15 16  1  0  0  0  0
 16 17  1  0  0  0  0
 19 18  1  1  0  0  0
 19 17  1  0  0  0  0
 20 23  1  0  0  0  0
 21 22  1  6  0  0  0
 21 20  1  0  0  0  0
 21 27  1  0  0  0  0
 23 29  2  0  0  0  0
 23 26  1  0  0  0  0
 24 23  2  0  0  0  0
 25 28  1  0  0  0  0
 26 28  1  0  0  0  0
 27 19  1  6  0  0  0
 27 25  1  0  0  0  0
 30 31  1  0  0  0  0
 31 32  1  1  0  0  0
 33 31  1  0  0  0  0
 33 34  1  0  0  0  0
 34 49  1  6  0  0  0
 35 46  2  0  0  0  0
 35 43  1  0  0  0  0
 38 37  1  0  0  0  0
 38 36  1  1  0  0  0
 39 46  1  0  0  0  0
 41 34  1  6  0  0  0
 41 39  1  0  0  0  0
 41 42  1  0  0  0  0
 42 47  1  6  0  0  0
 42 38  1  0  0  0  0
 43 44  1  0  0  0  0
 44 40  1  0  0  0  0
 45 37  1  1  0  0  0
 45 40  1  0  0  0  0
 46 45  1  0  0  0  0
 48 47  1  0  0  0  0
 50 49  1  0  0  0  0
 51 50  1  0  0  0  0
M  END
>  <MODEL>
8

>  <REMARK>
 VINA RESULT:      -6.9      1.933      3.111
  Name = 
  18 active torsions:
  status: ('A' for Active; 'I' for Inactive)
    1  A    between atoms: C_1  and  C_4
    2  A    between atoms: C_1  and  C_10
    3  A    between atoms: C_4  and  C_9
    4  A    between atoms: C_5  and  C_9
    5  A    between atoms: C_9  and  C_38
    6  A    between atoms: C_10  and  C_43
    7  A    between atoms: C_11  and  O_15
    8  A    between atoms: C_11  and  C_38
    9  A    between atoms: O_15  and  C_26
   10  A    between atoms: O_18  and  C_19
   11  A    between atoms: O_18  and  C_45
   12  A    between atoms: C_19  and  C_21
   13  A    between atoms: C_22  and  O_47
   14  A    between atoms: C_26  and  C_34
   15  A    between atoms: C_26  and  O_47
   16  A    between atoms: C_29  and  C_35
   17  A    between atoms: C_37  and  C_50
   18  A    between atoms: C_43  and  C_50
                            x       y       z     vdW  Elec       q    Type
                         _______ _______ _______ _____ _____    ______ ____

>  <TORSDO>
F 18

$$$$
=
 OpenBabel11042415253D

 51 54  0  0  1  0  0  0  0  0999 V2000
  191.6110  172.6700  141.0150 C   0  0  2  0  0  0  0  0  0  0  0  0
  192.0310  173.8030  140.0740 C   0  0  0  0  0  1  0  0  0  0  0  0
  190.7960  171.5890  140.2400 C   0  0  1  0  0  3  0  0  0  0  0  0
  190.2700  172.0070  138.9350 C   0  0  0  0  0  0  0  0  0  0  0  0
  191.9370  170.4850  138.4200 O   0  0  0  0  0  0  0  0  0  0  0  0
  189.3110  172.7460  138.7800 O   0  0  0  0  0  0  0  0  0  0  0  0
  191.6630  170.4100  139.8080 C   0  0  0  0  0  2  0  0  0  0  0  0
  190.9420  171.2940  137.8350 C   0  0  1  0  0  3  0  0  0  0  0  0
  190.0240  170.4890  137.1570 O   0  0  0  0  0  0  0  0  0  0  0  0
  190.7260  169.9970  136.0550 C   0  0  0  0  0  2  0  0  0  0  0  0
  190.6190  170.9810  134.9090 C   0  0  0  0  0  2  0  0  0  0  0  0
  189.2780  171.6780  134.9700 C   0  0  0  0  0  1  0  0  0  0  0  0
  190.7780  173.2520  142.1970 C   0  0  2  0  0  3  0  0  0  0  0  0
  189.7010  172.4260  142.5420 O   0  0  0  0  0  1  0  0  0  0  0  0
  190.2850  174.6940  142.0160 C   0  0  0  0  0  2  0  0  0  0  0  0
  191.3050  175.7260  142.4790 C   0  0  0  0  0  2  0  0  0  0  0  0
  190.6370  176.8510  143.2610 C   0  0  0  0  0  2  0  0  0  0  0  0
  189.2800  178.4870  142.1680 O   0  0  0  0  0  1  0  0  0  0  0  0
  189.2430  177.2120  142.7410 C   0  0  2  0  0  3  0  0  0  0  0  0
  185.7000  176.7710  144.0840 C   0  0  0  0  0  2  0  0  0  0  0  0
  186.7640  177.6010  143.3830 C   0  0  2  0  0  3  0  0  0  0  0  0
  186.5820  177.4810  142.0050 O   0  0  0  0  0  1  0  0  0  0  0  0
  185.2090  177.5150  145.6300 S   0  0  0  0  0  0  0  0  0  0  0  0
  184.1360  178.5310  145.3650 O   0  0  0  0  0  0  0  0  0  0  0  0
  188.5970  177.9260  145.0670 C   0  0  0  0  0  2  0  0  0  0  0  0
  186.5670  178.3160  146.4610 C   0  0  0  0  0  2  0  0  0  0  0  0
  188.1590  177.1270  143.8370 C   0  0  2  0  0  3  0  0  0  0  0  0
  187.8450  177.5080  146.3210 C   0  0  0  0  0  2  0  0  0  0  0  0
  184.6570  176.4440  146.5260 O   0  0  0  0  0  0  0  0  0  0  0  0
  192.9080  172.0230  141.5400 C   0  0  0  0  0  2  0  0  0  0  0  0
  194.1790  172.6900  141.0120 C   0  0  2  0  0  3  0  0  0  0  0  0
  195.2140  171.6740  140.5400 C   0  0  0  0  0  1  0  0  0  0  0  0
  194.6600  173.7280  141.8590 O   0  0  0  0  0  0  0  0  0  0  0  0
  194.6530  173.4030  143.2480 C   0  0  2  0  0  3  0  0  0  0  0  0
  190.9180  173.6070  145.6850 C   0  0  0  0  0  3  0  0  0  0  0  0
  194.9690  177.8960  145.7120 C   0  0  0  0  0  1  0  0  0  0  0  0
  193.3570  176.2880  146.6030 C   0  0  0  0  0  2  0  0  0  0  0  0
  194.0230  176.7710  145.3220 C   0  0  2  0  0  3  0  0  0  0  0  0
  193.3360  173.7250  145.3280 C   0  0  0  0  0  2  0  0  0  0  0  0
  191.1240  175.7510  147.5920 C   0  0  0  0  0  2  0  0  0  0  0  0
  193.8960  174.4500  144.1030 C   0  0  1  0  0  3  0  0  0  0  0  0
  194.7760  175.6630  144.5340 C   0  0  1  0  0  3  0  0  0  0  0  0
  189.6250  174.2200  146.1440 C   0  0  0  0  0  2  0  0  0  0  0  0
  189.8160  174.9340  147.4900 C   0  0  0  0  0  2  0  0  0  0  0  0
  191.9720  175.7300  146.3140 C   0  0  2  0  0  3  0  0  0  0  0  0
  192.0400  174.3320  145.7530 C   0  0  0  0  0  0  0  0  0  0  0  0
  195.5060  176.2970  143.3400 C   0  0  0  0  0  2  0  0  0  0  0  0
  197.0200  176.1940  143.4700 C   0  0  0  0  0  1  0  0  0  0  0  0
  195.9370  173.1140  143.7360 O   0  0  0  0  0  0  0  0  0  0  0  0
  195.8400  171.8250  144.2700 C   0  0  0  0  0  2  0  0  0  0  0  0
  196.5500  171.7550  145.4690 O   0  0  0  0  0  1  0  0  0  0  0  0
  1  2  1  6  0  0  0
  1 30  1  0  0  0  0
  1 13  1  0  0  0  0
  3  1  1  6  0  0  0
  4  3  1  0  0  0  0
  5  7  1  0  0  0  0
  6  4  2  0  0  0  0
  7  3  1  0  0  0  0
  8  9  1  1  0  0  0
  8  5  1  0  0  0  0
  8  4  1  0  0  0  0
 10  9  1  0  0  0  0
 11 12  1  0  0  0  0
 11 10  1  0  0  0  0
 13 14  1  6  0  0  0
 15 13  1  0  0  0  0
 15 16  1  0  0  0  0
 16 17  1  0  0  0  0
 19 18  1  1  0  0  0
 19 17  1  0  0  0  0
 20 23  1  0  0  0  0
 21 22  1  6  0  0  0
 21 27  1  0  0  0  0
 21 20  1  0  0  0  0
 23 26  1  0  0  0  0
 23 29  2  0  0  0  0
 24 23  2  0  0  0  0
 25 28  1  0  0  0  0
 27 19  1  6  0  0  0
 27 25  1  0  0  0  0
 28 26  1  0  0  0  0
 31 32  1  1  0  0  0
 31 30  1  0  0  0  0
 31 33  1  0  0  0  0
 34 33  1  6  0  0  0
 34 49  1  0  0  0  0
 35 46  2  0  0  0  0
 35 43  1  0  0  0  0
 38 36  1  1  0  0  0
 38 37  1  0  0  0  0
 39 46  1  0  0  0  0
 41 34  1  1  0  0  0
 41 42  1  0  0  0  0
 41 39  1  0  0  0  0
 42 47  1  6  0  0  0
 42 38  1  0  0  0  0
 43 44  1  0  0  0  0
 44 40  1  0  0  0  0
 45 37  1  1  0  0  0
 45 40  1  0  0  0  0
 46 45  1  0  0  0  0
 47 48  1  0  0  0  0
 49 50  1  0  0  0  0
 50 51  1  0  0  0  0
M  END
>  <MODEL>
9

>  <REMARK>
 VINA RESULT:      -6.8      2.790      7.117
  Name = 
  18 active torsions:
  status: ('A' for Active; 'I' for Inactive)
    1  A    between atoms: C_1  and  C_4
    2  A    between atoms: C_1  and  C_10
    3  A    between atoms: C_4  and  C_9
    4  A    between atoms: C_5  and  C_9
    5  A    between atoms: C_9  and  C_38
    6  A    between atoms: C_10  and  C_43
    7  A    between atoms: C_11  and  O_15
    8  A    between atoms: C_11  and  C_38
    9  A    between atoms: O_15  and  C_26
   10  A    between atoms: O_18  and  C_19
   11  A    between atoms: O_18  and  C_45
   12  A    between atoms: C_19  and  C_21
   13  A    between atoms: C_22  and  O_47
   14  A    between atoms: C_26  and  C_34
   15  A    between atoms: C_26  and  O_47
   16  A    between atoms: C_29  and  C_35
   17  A    between atoms: C_37  and  C_50
   18  A    between atoms: C_43  and  C_50
                            x       y       z     vdW  Elec       q    Type
                         _______ _______ _______ _____ _____    ______ ____

>  <TORSDO>
F 18

$$$$
