=
 OpenBabel11042416233D

 38 43  0  0  1  0  0  0  0  0999 V2000
  190.3110  171.4610  140.7410 C   0  0  0  0  0  1  0  0  0  0  0  0
  191.6190  174.3400  145.4810 C   0  0  1  0  0  3  0  0  0  0  0  0
  197.1970  174.3030  143.5370 C   0  0  0  0  0  2  0  0  0  0  0  0
  191.9370  173.0950  144.6170 C   0  0  1  0  0  3  0  0  0  0  0  0
  188.8210  175.6760  143.1390 C   0  0  0  0  0  0  0  0  0  0  0  0
  189.9660  174.9700  143.5740 C   0  0  0  0  0  0  0  0  0  0  0  0
  195.8310  174.9950  143.5910 C   0  0  0  0  0  2  0  0  0  0  0  0
  192.8560  175.0520  146.0380 C   0  0  0  0  0  2  0  0  0  0  0  0
  191.8660  173.3610  143.1060 C   0  0  0  0  0  2  0  0  0  0  0  0
  190.0210  173.8090  141.4550 C   0  0  0  0  0  0  0  0  0  0  0  0
  190.6360  175.3600  144.8780 C   0  0  1  0  0  3  0  0  0  0  0  0
  188.0620  176.5890  144.0640 C   0  0  0  0  0  2  0  0  0  0  0  0
  189.5010  173.2350  139.2890 N   0  0  0  0  0  0  0  0  0  0  0  0
  190.5840  174.0250  142.7220 C   0  0  0  0  0  0  0  0  0  0  0  0
  193.8140  175.4260  144.9140 C   0  0  0  0  0  2  0  0  0  0  0  0
  190.4680  172.9180  140.3400 C   0  0  2  0  0  3  0  0  0  0  0  0
  194.9580  174.4180  144.7100 C   0  0  0  0  0  0  0  0  0  0  0  0
  188.9110  174.4870  141.0540 C   0  0  0  0  0  0  0  0  0  0  0  0
  197.8560  174.4530  144.7690 O   0  0  0  0  0  0  0  0  0  0  0  0
  195.7940  174.2870  146.0030 C   0  0  0  0  0  2  0  0  0  0  0  0
  193.2740  172.4270  145.0030 C   0  0  0  0  0  2  0  0  0  0  0  0
  197.1510  173.6440  145.6910 C   0  0  0  0  0  2  0  0  0  0  0  0
  194.4730  173.0250  144.2500 C   0  0  0  0  0  2  0  0  0  0  0  0
  188.2840  175.4200  141.8670 C   0  0  0  0  0  3  0  0  0  0  0  0
  188.6280  174.1030  139.6950 C   0  0  0  0  0  3  0  0  0  0  0  0
  188.8200  176.9810  145.3370 C   0  0  2  0  0  3  0  0  0  0  0  0
  189.6140  175.8090  145.9120 C   0  0  0  0  0  2  0  0  0  0  0  0
  187.8600  177.5830  146.3610 C   0  0  2  0  0  3  0  0  0  0  0  0
  188.5560  177.9310  147.5210 O   0  0  0  0  0  1  0  0  0  0  0  0
  186.7100  176.6460  146.6840 C   0  0  0  0  0  2  0  0  0  0  0  0
  185.3760  177.2510  146.2810 C   0  0  0  0  0  2  0  0  0  0  0  0
  185.1700  178.9540  144.3920 C   0  0  0  0  0  0  0  0  0  0  0  0
  185.5360  178.5880  145.7310 N   0  0  0  0  0  2  0  0  0  0  0  0
  185.2310  180.1670  144.0450 O   0  0  0  0  0  0  0  0  0  0  0  0
  184.7390  177.9220  143.3930 C   0  0  0  0  0  2  0  0  0  0  0  0
  185.1170  178.3380  142.0100 C   0  0  0  0  0  0  0  0  0  0  0  0
  186.3300  178.4520  141.7100 O   0  0  0  0  0  1  0  0  0  0  0  0
  184.1470  178.5690  141.0430 O   0  0  0  0  0  0  0  0  0  0  0  0
  2  8  1  6  0  0  0
  3  7  1  0  0  0  0
  3 19  1  0  0  0  0
  4  9  1  6  0  0  0
  4 21  1  0  0  0  0
  4  2  1  0  0  0  0
  5  6  1  0  0  0  0
  5 12  1  0  0  0  0
  6 11  1  0  0  0  0
  7 17  1  0  0  0  0
 10 14  1  0  0  0  0
 11  2  1  0  0  0  0
 11 27  1  1  0  0  0
 12 26  1  0  0  0  0
 13 25  2  0  0  0  0
 13 16  1  0  0  0  0
 14  9  1  0  0  0  0
 14  6  2  0  0  0  0
 15  8  1  0  0  0  0
 16  1  1  1  0  0  0
 16 10  1  0  0  0  0
 17 15  1  0  0  0  0
 17 20  1  0  0  0  0
 18 10  2  0  0  0  0
 18 24  1  0  0  0  0
 19 22  1  0  0  0  0
 22 20  1  0  0  0  0
 23 17  1  0  0  0  0
 23 21  1  0  0  0  0
 24  5  2  0  0  0  0
 25 18  1  0  0  0  0
 26 27  1  0  0  0  0
 26 28  1  1  0  0  0
 28 30  1  0  0  0  0
 28 29  1  1  0  0  0
 31 30  1  0  0  0  0
 32 33  1  0  0  0  0
 33 31  1  0  0  0  0
 34 32  2  0  0  0  0
 35 32  1  0  0  0  0
 36 35  1  0  0  0  0
 37 36  1  0  0  0  0
 38 36  2  0  0  0  0
M  END
>  <MODEL>
1

>  <REMARK>
 VINA RESULT:      -8.5      0.000      0.000
  Name = 
  6 active torsions:
  status: ('A' for Active; 'I' for Inactive)
    1  A    between atoms: C_3  and  C_8
    2  A    between atoms: C_3  and  C_22
    3  A    between atoms: C_19  and  C_23
    4  A    between atoms: C_19  and  C_30
    5  A    between atoms: C_23  and  N_32
    6  A    between atoms: C_30  and  C_36
                            x       y       z     vdW  Elec       q    Type
                         _______ _______ _______ _____ _____    ______ ____

>  <TORSDO>
F 6

$$$$
=
 OpenBabel11042416233D

 38 43  0  0  1  0  0  0  0  0999 V2000
  188.4080  174.4930  140.1330 C   0  0  0  0  0  1  0  0  0  0  0  0
  190.0900  177.3120  144.7910 C   0  0  1  0  0  3  0  0  0  0  0  0
  184.4410  177.1290  146.5080 C   0  0  0  0  0  2  0  0  0  0  0  0
  189.1080  177.2980  143.5940 C   0  0  1  0  0  3  0  0  0  0  0  0
  191.8660  173.9960  143.8120 C   0  0  0  0  0  0  0  0  0  0  0  0
  190.8730  174.9990  143.8920 C   0  0  0  0  0  0  0  0  0  0  0  0
  185.8310  176.4830  146.4960 C   0  0  0  0  0  2  0  0  0  0  0  0
  189.4570  177.7300  146.1220 C   0  0  0  0  0  2  0  0  0  0  0  0
  188.5960  175.8950  143.2350 C   0  0  0  0  0  2  0  0  0  0  0  0
  189.6030  173.8380  142.1950 C   0  0  0  0  0  0  0  0  0  0  0  0
  190.9580  176.0540  144.9800 C   0  0  1  0  0  3  0  0  0  0  0  0
  193.1640  174.1150  144.5640 C   0  0  0  0  0  2  0  0  0  0  0  0
  188.9690  172.1990  140.7100 N   0  0  0  0  0  0  0  0  0  0  0  0
  189.7180  174.9220  143.0780 C   0  0  0  0  0  0  0  0  0  0  0  0
  188.2530  176.8530  146.4430 C   0  0  0  0  0  2  0  0  0  0  0  0
  188.4980  173.4720  141.2550 C   0  0  2  0  0  3  0  0  0  0  0  0
  186.9040  177.4780  146.0430 C   0  0  0  0  0  0  0  0  0  0  0  0
  190.5730  172.8870  142.1190 C   0  0  0  0  0  0  0  0  0  0  0  0
  184.4410  178.2410  147.3670 O   0  0  0  0  0  0  0  0  0  0  0  0
  186.7010  178.8250  146.7710 C   0  0  0  0  0  2  0  0  0  0  0  0
  187.9380  178.2900  143.7720 C   0  0  0  0  0  2  0  0  0  0  0  0
  185.2220  179.2310  146.7270 C   0  0  0  0  0  2  0  0  0  0  0  0
  186.7460  177.6700  144.5190 C   0  0  0  0  0  2  0  0  0  0  0  0
  191.7160  172.9350  142.9050 C   0  0  0  0  0  3  0  0  0  0  0  0
  190.1320  171.8810  141.1880 C   0  0  0  0  0  3  0  0  0  0  0  0
  193.1620  175.1650  145.6800 C   0  0  2  0  0  3  0  0  0  0  0  0
  192.4040  176.4280  145.2740 C   0  0  0  0  0  2  0  0  0  0  0  0
  194.5910  175.4700  146.1240 C   0  0  2  0  0  3  0  0  0  0  0  0
  194.6510  176.7400  146.7020 O   0  0  0  0  0  1  0  0  0  0  0  0
  195.5810  175.3530  144.9790 C   0  0  0  0  0  2  0  0  0  0  0  0
  195.7930  176.6920  144.2940 C   0  0  0  0  0  2  0  0  0  0  0  0
  196.0440  176.3990  141.7720 C   0  0  0  0  0  0  0  0  0  0  0  0
  196.5950  176.5580  143.0880 N   0  0  0  0  0  2  0  0  0  0  0  0
  196.8170  176.4160  140.7730 O   0  0  0  0  0  0  0  0  0  0  0  0
  194.5740  176.1930  141.5620 C   0  0  0  0  0  2  0  0  0  0  0  0
  194.3000  174.8100  141.0720 C   0  0  0  0  0  0  0  0  0  0  0  0
  193.4290  174.6300  140.1860 O   0  0  0  0  0  0  0  0  0  0  0  0
  195.0170  173.7240  141.5590 O   0  0  0  0  0  1  0  0  0  0  0  0
  2 11  1  0  0  0  0
  2  8  1  1  0  0  0
  3 19  1  0  0  0  0
  4  9  1  1  0  0  0
  4 21  1  0  0  0  0
  4  2  1  0  0  0  0
  5  6  1  0  0  0  0
  5 12  1  0  0  0  0
  6 11  1  0  0  0  0
  7  3  1  0  0  0  0
  8 15  1  0  0  0  0
 10 14  1  0  0  0  0
 11 27  1  6  0  0  0
 12 26  1  0  0  0  0
 13 25  2  0  0  0  0
 13 16  1  0  0  0  0
 14  9  1  0  0  0  0
 14  6  2  0  0  0  0
 16  1  1  6  0  0  0
 16 10  1  0  0  0  0
 17 15  1  0  0  0  0
 17  7  1  0  0  0  0
 17 20  1  0  0  0  0
 18 10  2  0  0  0  0
 18 24  1  0  0  0  0
 21 23  1  0  0  0  0
 22 20  1  0  0  0  0
 22 19  1  0  0  0  0
 23 17  1  0  0  0  0
 24  5  2  0  0  0  0
 25 18  1  0  0  0  0
 26 28  1  6  0  0  0
 27 26  1  0  0  0  0
 28 29  1  6  0  0  0
 30 28  1  0  0  0  0
 31 30  1  0  0  0  0
 32 33  1  0  0  0  0
 33 31  1  0  0  0  0
 34 32  2  0  0  0  0
 35 32  1  0  0  0  0
 36 38  1  0  0  0  0
 36 35  1  0  0  0  0
 37 36  2  0  0  0  0
M  END
>  <MODEL>
2

>  <REMARK>
 VINA RESULT:      -8.0      2.684      7.875
  Name = 
  6 active torsions:
  status: ('A' for Active; 'I' for Inactive)
    1  A    between atoms: C_3  and  C_8
    2  A    between atoms: C_3  and  C_22
    3  A    between atoms: C_19  and  C_23
    4  A    between atoms: C_19  and  C_30
    5  A    between atoms: C_23  and  N_32
    6  A    between atoms: C_30  and  C_36
                            x       y       z     vdW  Elec       q    Type
                         _______ _______ _______ _____ _____    ______ ____

>  <TORSDO>
F 6

$$$$
=
 OpenBabel11042416233D

 38 43  0  0  1  0  0  0  0  0999 V2000
  193.6050  175.6300  145.5750 C   0  0  0  0  0  1  0  0  0  0  0  0
  189.6910  174.8230  141.5130 C   0  0  1  0  0  3  0  0  0  0  0  0
  191.4880  169.1970  141.3960 C   0  0  0  0  0  2  0  0  0  0  0  0
  191.1840  174.6710  141.8930 C   0  0  1  0  0  3  0  0  0  0  0  0
  188.6340  176.3880  144.9100 C   0  0  0  0  0  0  0  0  0  0  0  0
  189.3810  175.6580  143.9580 C   0  0  0  0  0  0  0  0  0  0  0  0
  190.5510  170.2640  141.9730 C   0  0  0  0  0  2  0  0  0  0  0  0
  189.1060  173.6230  140.7610 C   0  0  0  0  0  2  0  0  0  0  0  0
  191.4080  174.2610  143.3570 C   0  0  0  0  0  2  0  0  0  0  0  0
  191.1450  175.3930  145.5880 C   0  0  0  0  0  0  0  0  0  0  0  0
  188.7390  175.2680  142.6390 C   0  0  1  0  0  3  0  0  0  0  0  0
  187.3370  177.0600  144.5430 C   0  0  0  0  0  2  0  0  0  0  0  0
  192.2640  175.4720  147.5970 N   0  0  0  0  0  0  0  0  0  0  0  0
  190.6550  175.1440  144.2970 C   0  0  0  0  0  0  0  0  0  0  0  0
  189.3160  172.3380  141.5530 C   0  0  0  0  0  2  0  0  0  0  0  0
  192.4180  174.9520  146.2380 C   0  0  2  0  0  3  0  0  0  0  0  0
  190.5480  171.5290  141.1100 C   0  0  0  0  0  0  0  0  0  0  0  0
  190.4200  176.1090  146.4900 C   0  0  0  0  0  0  0  0  0  0  0  0
  191.0890  168.8700  140.0890 O   0  0  0  0  0  0  0  0  0  0  0  0
  190.4260  171.1380  139.6200 C   0  0  0  0  0  2  0  0  0  0  0  0
  191.9520  173.7390  140.9300 C   0  0  0  0  0  2  0  0  0  0  0  0
  191.3970  169.9970  139.2920 C   0  0  0  0  0  2  0  0  0  0  0  0
  191.8840  172.2640  141.3560 C   0  0  0  0  0  2  0  0  0  0  0  0
  189.1680  176.6240  146.1860 C   0  0  0  0  0  3  0  0  0  0  0  0
  191.1520  176.1260  147.7300 C   0  0  0  0  0  3  0  0  0  0  0  0
  186.7220  176.5820  143.2230 C   0  0  2  0  0  3  0  0  0  0  0  0
  187.7840  176.3470  142.1500 C   0  0  0  0  0  2  0  0  0  0  0  0
  185.6400  177.5560  142.7590 C   0  0  2  0  0  3  0  0  0  0  0  0
  185.4510  177.4370  141.3810 O   0  0  0  0  0  1  0  0  0  0  0  0
  185.9650  178.9900  143.1370 C   0  0  0  0  0  2  0  0  0  0  0  0
  184.8340  179.6210  143.9300 C   0  0  0  0  0  2  0  0  0  0  0  0
  184.4410  178.5660  146.2190 C   0  0  0  0  0  0  0  0  0  0  0  0
  184.1900  178.6570  144.8080 N   0  0  0  0  0  2  0  0  0  0  0  0
  183.7430  177.7800  146.9200 O   0  0  0  0  0  0  0  0  0  0  0  0
  185.5280  179.3670  146.8710 C   0  0  0  0  0  2  0  0  0  0  0  0
  186.3470  178.5070  147.7740 C   0  0  0  0  0  0  0  0  0  0  0  0
  187.2240  179.0340  148.5020 O   0  0  0  0  0  1  0  0  0  0  0  0
  186.1340  177.1360  147.8440 O   0  0  0  0  0  0  0  0  0  0  0  0
  2  8  1  1  0  0  0
  2  4  1  0  0  0  0
  2 11  1  0  0  0  0
  3  7  1  0  0  0  0
  4 21  1  6  0  0  0
  4  9  1  0  0  0  0
  5 24  1  0  0  0  0
  6 14  1  0  0  0  0
  6  5  2  0  0  0  0
  8 15  1  0  0  0  0
  9 14  1  0  0  0  0
 10 16  1  0  0  0  0
 10 18  1  0  0  0  0
 11 27  1  6  0  0  0
 11  6  1  0  0  0  0
 12  5  1  0  0  0  0
 13 25  2  0  0  0  0
 14 10  2  0  0  0  0
 16  1  1  6  0  0  0
 16 13  1  0  0  0  0
 17 23  1  0  0  0  0
 17 15  1  0  0  0  0
 17  7  1  0  0  0  0
 18 25  1  0  0  0  0
 19  3  1  0  0  0  0
 20 17  1  0  0  0  0
 21 23  1  0  0  0  0
 22 20  1  0  0  0  0
 22 19  1  0  0  0  0
 24 18  2  0  0  0  0
 26 28  1  6  0  0  0
 26 12  1  0  0  0  0
 27 26  1  0  0  0  0
 28 29  1  6  0  0  0
 28 30  1  0  0  0  0
 30 31  1  0  0  0  0
 31 33  1  0  0  0  0
 32 35  1  0  0  0  0
 32 34  2  0  0  0  0
 33 32  1  0  0  0  0
 35 36  1  0  0  0  0
 36 38  2  0  0  0  0
 36 37  1  0  0  0  0
M  END
>  <MODEL>
3

>  <REMARK>
 VINA RESULT:      -7.8      2.869      5.652
  Name = 
  6 active torsions:
  status: ('A' for Active; 'I' for Inactive)
    1  A    between atoms: C_3  and  C_8
    2  A    between atoms: C_3  and  C_22
    3  A    between atoms: C_19  and  C_23
    4  A    between atoms: C_19  and  C_30
    5  A    between atoms: C_23  and  N_32
    6  A    between atoms: C_30  and  C_36
                            x       y       z     vdW  Elec       q    Type
                         _______ _______ _______ _____ _____    ______ ____

>  <TORSDO>
F 6

$$$$
=
 OpenBabel11042416233D

 38 43  0  0  1  0  0  0  0  0999 V2000
  193.2720  176.4330  146.0940 C   0  0  0  0  0  1  0  0  0  0  0  0
  189.3620  175.7010  142.0140 C   0  0  1  0  0  3  0  0  0  0  0  0
  190.9940  170.0240  141.9630 C   0  0  0  0  0  2  0  0  0  0  0  0
  190.8480  175.5090  142.4050 C   0  0  1  0  0  3  0  0  0  0  0  0
  188.3290  177.3300  145.3880 C   0  0  0  0  0  0  0  0  0  0  0  0
  189.0610  176.5690  144.4480 C   0  0  0  0  0  0  0  0  0  0  0  0
  190.0850  171.1230  142.5230 C   0  0  0  0  0  2  0  0  0  0  0  0
  188.7470  174.5110  141.2690 C   0  0  0  0  0  2  0  0  0  0  0  0
  191.0500  175.1070  143.8740 C   0  0  0  0  0  2  0  0  0  0  0  0
  190.8060  176.2680  146.0930 C   0  0  0  0  0  0  0  0  0  0  0  0
  188.4160  176.1850  143.1290 C   0  0  1  0  0  3  0  0  0  0  0  0
  187.0550  178.0350  145.0060 C   0  0  0  0  0  2  0  0  0  0  0  0
  191.9130  176.3340  148.1080 N   0  0  0  0  0  0  0  0  0  0  0  0
  190.3170  176.0210  144.8010 C   0  0  0  0  0  0  0  0  0  0  0  0
  188.9150  173.2290  142.0740 C   0  0  0  0  0  2  0  0  0  0  0  0
  192.0600  175.7960  146.7560 C   0  0  2  0  0  3  0  0  0  0  0  0
  190.1250  172.3800  141.6480 C   0  0  0  0  0  0  0  0  0  0  0  0
  190.0960  177.0140  146.9830 C   0  0  0  0  0  0  0  0  0  0  0  0
  190.5940  169.6970  140.6560 O   0  0  0  0  0  0  0  0  0  0  0  0
  190.0010  171.9780  140.1610 C   0  0  0  0  0  2  0  0  0  0  0  0
  191.5940  174.5460  141.4570 C   0  0  0  0  0  2  0  0  0  0  0  0
  190.9410  170.8060  139.8500 C   0  0  0  0  0  2  0  0  0  0  0  0
  191.4810  173.0780  141.8960 C   0  0  0  0  0  2  0  0  0  0  0  0
  188.8610  177.5620  146.6650 C   0  0  0  0  0  3  0  0  0  0  0  0
  190.8200  177.0210  148.2280 C   0  0  0  0  0  3  0  0  0  0  0  0
  186.4340  177.5630  143.6870 C   0  0  2  0  0  3  0  0  0  0  0  0
  187.4960  177.2870  142.6230 C   0  0  0  0  0  2  0  0  0  0  0  0
  185.3850  178.5630  143.2060 C   0  0  2  0  0  3  0  0  0  0  0  0
  184.6520  179.0460  144.2920 O   0  0  0  0  0  1  0  0  0  0  0  0
  184.4630  177.9640  142.1580 C   0  0  0  0  0  2  0  0  0  0  0  0
  183.0310  178.4310  142.3520 C   0  0  0  0  0  2  0  0  0  0  0  0
  180.8000  178.4070  141.1150 C   0  0  0  0  0  0  0  0  0  0  0  0
  182.1880  178.0590  141.2260 N   0  0  0  0  0  2  0  0  0  0  0  0
  180.1820  178.1470  140.0440 O   0  0  0  0  0  0  0  0  0  0  0  0
  180.0640  179.0500  142.2520 C   0  0  0  0  0  2  0  0  0  0  0  0
  178.6900  178.4810  142.3800 C   0  0  0  0  0  0  0  0  0  0  0  0
  177.6960  179.2450  142.3110 O   0  0  0  0  0  0  0  0  0  0  0  0
  178.4940  177.1160  142.5440 O   0  0  0  0  0  1  0  0  0  0  0  0
  2  8  1  1  0  0  0
  2  4  1  0  0  0  0
  2 11  1  0  0  0  0
  3  7  1  0  0  0  0
  4 21  1  6  0  0  0
  4  9  1  0  0  0  0
  5 24  1  0  0  0  0
  6 14  1  0  0  0  0
  6  5  2  0  0  0  0
  8 15  1  0  0  0  0
  9 14  1  0  0  0  0
 10 16  1  0  0  0  0
 10 18  1  0  0  0  0
 11 27  1  6  0  0  0
 11  6  1  0  0  0  0
 12  5  1  0  0  0  0
 13 25  2  0  0  0  0
 14 10  2  0  0  0  0
 16  1  1  6  0  0  0
 16 13  1  0  0  0  0
 17 23  1  0  0  0  0
 17 15  1  0  0  0  0
 17  7  1  0  0  0  0
 18 25  1  0  0  0  0
 19  3  1  0  0  0  0
 20 17  1  0  0  0  0
 21 23  1  0  0  0  0
 22 20  1  0  0  0  0
 22 19  1  0  0  0  0
 24 18  2  0  0  0  0
 26 28  1  6  0  0  0
 26 12  1  0  0  0  0
 27 26  1  0  0  0  0
 28 29  1  1  0  0  0
 30 31  1  0  0  0  0
 30 28  1  0  0  0  0
 32 33  1  0  0  0  0
 32 35  1  0  0  0  0
 33 31  1  0  0  0  0
 34 32  2  0  0  0  0
 35 36  1  0  0  0  0
 36 38  1  0  0  0  0
 37 36  2  0  0  0  0
M  END
>  <MODEL>
4

>  <REMARK>
 VINA RESULT:      -7.8      3.297      6.001
  Name = 
  6 active torsions:
  status: ('A' for Active; 'I' for Inactive)
    1  A    between atoms: C_3  and  C_8
    2  A    between atoms: C_3  and  C_22
    3  A    between atoms: C_19  and  C_23
    4  A    between atoms: C_19  and  C_30
    5  A    between atoms: C_23  and  N_32
    6  A    between atoms: C_30  and  C_36
                            x       y       z     vdW  Elec       q    Type
                         _______ _______ _______ _____ _____    ______ ____

>  <TORSDO>
F 6

$$$$
=
 OpenBabel11042416233D

 38 43  0  0  1  0  0  0  0  0999 V2000
  191.1330  170.0520  140.2300 C   0  0  0  0  0  1  0  0  0  0  0  0
  191.3680  173.9770  144.3540 C   0  0  1  0  0  3  0  0  0  0  0  0
  197.2310  173.8650  143.6350 C   0  0  0  0  0  2  0  0  0  0  0  0
  191.8800  172.5950  143.8780 C   0  0  1  0  0  3  0  0  0  0  0  0
  189.1060  174.5880  141.2540 C   0  0  0  0  0  0  0  0  0  0  0  0
  190.1440  174.0680  142.0610 C   0  0  0  0  0  0  0  0  0  0  0  0
  195.8730  174.4650  143.2540 C   0  0  0  0  0  2  0  0  0  0  0  0
  192.4490  174.8710  144.9720 C   0  0  0  0  0  2  0  0  0  0  0  0
  192.1250  172.5180  142.3640 C   0  0  0  0  0  2  0  0  0  0  0  0
  190.6620  172.4760  140.3180 C   0  0  0  0  0  0  0  0  0  0  0  0
  190.5190  174.7770  143.3490 C   0  0  1  0  0  3  0  0  0  0  0  0
  188.1550  175.6330  141.7750 C   0  0  0  0  0  2  0  0  0  0  0  0
  190.6190  171.4100  138.2790 N   0  0  0  0  0  0  0  0  0  0  0  0
  190.9420  173.0000  141.5890 C   0  0  0  0  0  0  0  0  0  0  0  0
  193.6160  175.0480  144.0090 C   0  0  0  0  0  2  0  0  0  0  0  0
  191.3480  171.3930  139.5480 C   0  0  2  0  0  3  0  0  0  0  0  0
  194.7930  174.0930  144.2750 C   0  0  0  0  0  0  0  0  0  0  0  0
  189.6510  172.9790  139.5580 C   0  0  0  0  0  0  0  0  0  0  0  0
  197.6130  174.3230  144.9080 O   0  0  0  0  0  0  0  0  0  0  0  0
  195.3390  174.3020  145.7050 C   0  0  0  0  0  2  0  0  0  0  0  0
  193.1160  172.1130  144.6680 C   0  0  0  0  0  2  0  0  0  0  0  0
  196.7420  173.6930  145.8280 C   0  0  0  0  0  2  0  0  0  0  0  0
  194.4370  172.6060  144.0560 C   0  0  0  0  0  2  0  0  0  0  0  0
  188.8530  174.0270  139.9930 C   0  0  0  0  0  3  0  0  0  0  0  0
  189.6660  172.2900  138.2930 C   0  0  0  0  0  3  0  0  0  0  0  0
  188.6210  176.3410  143.0510 C   0  0  2  0  0  3  0  0  0  0  0  0
  189.2950  175.3760  144.0260 C   0  0  0  0  0  2  0  0  0  0  0  0
  187.4580  177.0920  143.6970 C   0  0  2  0  0  3  0  0  0  0  0  0
  187.6780  177.2260  145.0690 O   0  0  0  0  0  1  0  0  0  0  0  0
  186.1250  176.4150  143.4290 C   0  0  0  0  0  2  0  0  0  0  0  0
  185.1500  177.3640  142.7540 C   0  0  0  0  0  2  0  0  0  0  0  0
  185.0570  179.5360  144.0900 C   0  0  0  0  0  0  0  0  0  0  0  0
  185.5140  178.7550  142.9750 N   0  0  0  0  0  2  0  0  0  0  0  0
  185.5250  180.6960  144.2650 O   0  0  0  0  0  0  0  0  0  0  0  0
  184.0190  179.0100  145.0370 C   0  0  0  0  0  2  0  0  0  0  0  0
  184.6610  178.4140  146.2450 C   0  0  0  0  0  0  0  0  0  0  0  0
  184.5100  177.1910  146.4850 O   0  0  0  0  0  0  0  0  0  0  0  0
  185.4480  179.1860  147.0900 O   0  0  0  0  0  1  0  0  0  0  0  0
  2  8  1  6  0  0  0
  3 19  1  0  0  0  0
  4  9  1  6  0  0  0
  4  2  1  0  0  0  0
  4 21  1  0  0  0  0
  5 12  1  0  0  0  0
  5  6  1  0  0  0  0
  6 11  1  0  0  0  0
  7  3  1  0  0  0  0
  7 17  1  0  0  0  0
 10 14  1  0  0  0  0
 11 27  1  1  0  0  0
 11  2  1  0  0  0  0
 12 26  1  0  0  0  0
 13 25  2  0  0  0  0
 13 16  1  0  0  0  0
 14  6  2  0  0  0  0
 14  9  1  0  0  0  0
 15 17  1  0  0  0  0
 15  8  1  0  0  0  0
 16  1  1  1  0  0  0
 16 10  1  0  0  0  0
 17 20  1  0  0  0  0
 18 24  1  0  0  0  0
 18 10  2  0  0  0  0
 19 22  1  0  0  0  0
 20 22  1  0  0  0  0
 23 17  1  0  0  0  0
 23 21  1  0  0  0  0
 24  5  2  0  0  0  0
 25 18  1  0  0  0  0
 26 28  1  1  0  0  0
 26 27  1  0  0  0  0
 28 29  1  1  0  0  0
 30 28  1  0  0  0  0
 31 33  1  0  0  0  0
 31 30  1  0  0  0  0
 32 34  2  0  0  0  0
 32 35  1  0  0  0  0
 33 32  1  0  0  0  0
 35 36  1  0  0  0  0
 36 37  2  0  0  0  0
 36 38  1  0  0  0  0
M  END
>  <MODEL>
5

>  <REMARK>
 VINA RESULT:      -7.7      1.561      2.324
  Name = 
  6 active torsions:
  status: ('A' for Active; 'I' for Inactive)
    1  A    between atoms: C_3  and  C_8
    2  A    between atoms: C_3  and  C_22
    3  A    between atoms: C_19  and  C_23
    4  A    between atoms: C_19  and  C_30
    5  A    between atoms: C_23  and  N_32
    6  A    between atoms: C_30  and  C_36
                            x       y       z     vdW  Elec       q    Type
                         _______ _______ _______ _____ _____    ______ ____

>  <TORSDO>
F 6

$$$$
=
 OpenBabel11042416233D

 38 43  0  0  1  0  0  0  0  0999 V2000
  195.1880  176.0340  143.6310 C   0  0  0  0  0  1  0  0  0  0  0  0
  189.6930  174.9110  142.6230 C   0  0  1  0  0  3  0  0  0  0  0  0
  191.5030  169.6580  140.6160 C   0  0  0  0  0  2  0  0  0  0  0  0
  191.1160  174.9680  142.0130 C   0  0  1  0  0  3  0  0  0  0  0  0
  190.7970  176.0490  146.1710 C   0  0  0  0  0  0  0  0  0  0  0  0
  190.8670  175.5140  144.8640 C   0  0  0  0  0  0  0  0  0  0  0  0
  191.0270  170.5220  141.7890 C   0  0  0  0  0  2  0  0  0  0  0  0
  188.8720  173.6900  142.1950 C   0  0  0  0  0  2  0  0  0  0  0  0
  192.2160  174.4970  142.9760 C   0  0  0  0  0  2  0  0  0  0  0  0
  193.2740  175.4150  145.0660 C   0  0  0  0  0  0  0  0  0  0  0  0
  189.5900  175.1220  144.1440 C   0  0  1  0  0  3  0  0  0  0  0  0
  189.4950  176.5340  146.7510 C   0  0  0  0  0  2  0  0  0  0  0  0
  195.3730  175.5270  146.0020 N   0  0  0  0  0  0  0  0  0  0  0  0
  192.1220  175.1830  144.2990 C   0  0  0  0  0  0  0  0  0  0  0  0
  189.6260  172.4010  142.5020 C   0  0  0  0  0  2  0  0  0  0  0  0
  194.7100  175.1330  144.7580 C   0  0  2  0  0  3  0  0  0  0  0  0
  190.3950  171.8290  141.2980 C   0  0  0  0  0  0  0  0  0  0  0  0
  193.1910  175.9430  146.3170 C   0  0  0  0  0  0  0  0  0  0  0  0
  190.4190  169.3650  139.7700 O   0  0  0  0  0  0  0  0  0  0  0  0
  189.4240  171.5290  140.1350 C   0  0  0  0  0  2  0  0  0  0  0  0
  191.2120  174.2380  140.6560 C   0  0  0  0  0  2  0  0  0  0  0  0
  190.0850  170.5800  139.1270 C   0  0  0  0  0  2  0  0  0  0  0  0
  191.5390  172.7440  140.8110 C   0  0  0  0  0  2  0  0  0  0  0  0
  191.9750  176.2760  146.8980 C   0  0  0  0  0  3  0  0  0  0  0  0
  194.5220  175.9870  146.8660 C   0  0  0  0  0  3  0  0  0  0  0  0
  188.2460  176.0590  146.0020 C   0  0  2  0  0  3  0  0  0  0  0  0
  188.4500  176.0690  144.4870 C   0  0  0  0  0  2  0  0  0  0  0  0
  187.0300  176.8820  146.4240 C   0  0  2  0  0  3  0  0  0  0  0  0
  186.5350  176.4130  147.6430 O   0  0  0  0  0  1  0  0  0  0  0  0
  185.9420  176.8760  145.3640 C   0  0  0  0  0  2  0  0  0  0  0  0
  185.4930  178.2880  145.0280 C   0  0  0  0  0  2  0  0  0  0  0  0
  184.5970  178.3780  142.6400 C   0  0  0  0  0  0  0  0  0  0  0  0
  184.4060  178.2890  144.0610 N   0  0  0  0  0  2  0  0  0  0  0  0
  183.6000  178.2460  141.8750 O   0  0  0  0  0  0  0  0  0  0  0  0
  185.9490  178.6450  142.0510 C   0  0  0  0  0  2  0  0  0  0  0  0
  186.3580  177.5340  141.1430 C   0  0  0  0  0  0  0  0  0  0  0  0
  186.7080  176.4320  141.6350 O   0  0  0  0  0  1  0  0  0  0  0  0
  186.3280  177.6890  139.7630 O   0  0  0  0  0  0  0  0  0  0  0  0
  2  8  1  1  0  0  0
  2 11  1  0  0  0  0
  3  7  1  0  0  0  0
  4 21  1  6  0  0  0
  4  2  1  0  0  0  0
  4  9  1  0  0  0  0
  5 12  1  0  0  0  0
  5 24  1  0  0  0  0
  6  5  2  0  0  0  0
  8 15  1  0  0  0  0
  9 14  1  0  0  0  0
 10 18  1  0  0  0  0
 11 27  1  6  0  0  0
 11  6  1  0  0  0  0
 13 25  2  0  0  0  0
 14  6  1  0  0  0  0
 14 10  2  0  0  0  0
 16  1  1  6  0  0  0
 16 10  1  0  0  0  0
 16 13  1  0  0  0  0
 17  7  1  0  0  0  0
 17 15  1  0  0  0  0
 18 25  1  0  0  0  0
 18 24  2  0  0  0  0
 19  3  1  0  0  0  0
 20 17  1  0  0  0  0
 21 23  1  0  0  0  0
 22 19  1  0  0  0  0
 22 20  1  0  0  0  0
 23 17  1  0  0  0  0
 26 28  1  6  0  0  0
 26 12  1  0  0  0  0
 27 26  1  0  0  0  0
 28 29  1  1  0  0  0
 30 28  1  0  0  0  0
 31 30  1  0  0  0  0
 32 33  1  0  0  0  0
 33 31  1  0  0  0  0
 34 32  2  0  0  0  0
 35 32  1  0  0  0  0
 36 37  1  0  0  0  0
 36 35  1  0  0  0  0
 38 36  2  0  0  0  0
M  END
>  <MODEL>
6

>  <REMARK>
 VINA RESULT:      -7.6      2.712      5.251
  Name = 
  6 active torsions:
  status: ('A' for Active; 'I' for Inactive)
    1  A    between atoms: C_3  and  C_8
    2  A    between atoms: C_3  and  C_22
    3  A    between atoms: C_19  and  C_23
    4  A    between atoms: C_19  and  C_30
    5  A    between atoms: C_23  and  N_32
    6  A    between atoms: C_30  and  C_36
                            x       y       z     vdW  Elec       q    Type
                         _______ _______ _______ _____ _____    ______ ____

>  <TORSDO>
F 6

$$$$
=
 OpenBabel11042416233D

 38 43  0  0  1  0  0  0  0  0999 V2000
  190.9250  169.5100  140.7270 C   0  0  0  0  0  1  0  0  0  0  0  0
  190.7830  174.3140  143.7890 C   0  0  1  0  0  3  0  0  0  0  0  0
  196.6860  174.1580  143.6470 C   0  0  0  0  0  2  0  0  0  0  0  0
  191.3350  172.8690  143.7080 C   0  0  1  0  0  3  0  0  0  0  0  0
  188.8160  174.1150  140.4430 C   0  0  0  0  0  0  0  0  0  0  0  0
  189.7750  173.8260  141.4410 C   0  0  0  0  0  0  0  0  0  0  0  0
  195.3700  174.6200  143.0130 C   0  0  0  0  0  2  0  0  0  0  0  0
  191.8020  175.3530  144.2680 C   0  0  0  0  0  2  0  0  0  0  0  0
  191.7190  172.4370  142.2850 C   0  0  0  0  0  2  0  0  0  0  0  0
  190.4500  171.8740  140.1860 C   0  0  0  0  0  0  0  0  0  0  0  0
  190.0300  174.8310  142.5490 C   0  0  1  0  0  3  0  0  0  0  0  0
  187.8220  175.2340  140.6100 C   0  0  0  0  0  2  0  0  0  0  0  0
  190.5950  170.3500  138.4690 N   0  0  0  0  0  0  0  0  0  0  0  0
  190.6130  172.6930  141.3140 C   0  0  0  0  0  0  0  0  0  0  0  0
  193.0530  175.3190  143.3990 C   0  0  0  0  0  2  0  0  0  0  0  0
  191.2030  170.6530  139.7640 C   0  0  2  0  0  3  0  0  0  0  0  0
  194.2000  174.4820  143.9920 C   0  0  0  0  0  0  0  0  0  0  0  0
  189.5140  172.1580  139.2400 C   0  0  0  0  0  0  0  0  0  0  0  0
  196.9500  174.9160  144.8010 O   0  0  0  0  0  0  0  0  0  0  0  0
  194.6130  175.0390  145.3720 C   0  0  0  0  0  2  0  0  0  0  0  0
  192.4930  172.6180  144.6980 C   0  0  0  0  0  2  0  0  0  0  0  0
  195.9980  174.5080  145.7640 C   0  0  0  0  0  2  0  0  0  0  0  0
  193.8650  172.9780  144.1060 C   0  0  0  0  0  2  0  0  0  0  0  0
  188.6800  173.2630  139.3370 C   0  0  0  0  0  3  0  0  0  0  0  0
  189.6450  171.1870  138.1850 C   0  0  0  0  0  3  0  0  0  0  0  0
  188.1690  176.2370  141.7150 C   0  0  2  0  0  3  0  0  0  0  0  0
  188.7490  175.5490  142.9500 C   0  0  0  0  0  2  0  0  0  0  0  0
  186.9520  177.0960  142.0530 C   0  0  2  0  0  3  0  0  0  0  0  0
  187.3590  178.3820  142.4130 O   0  0  0  0  0  1  0  0  0  0  0  0
  186.1030  176.4740  143.1480 C   0  0  0  0  0  2  0  0  0  0  0  0
  185.5240  177.5360  144.0660 C   0  0  0  0  0  2  0  0  0  0  0  0
  186.5330  177.1250  146.3740 C   0  0  0  0  0  0  0  0  0  0  0  0
  185.4420  177.0710  145.4420 N   0  0  0  0  0  2  0  0  0  0  0  0
  186.3300  176.8120  147.5810 O   0  0  0  0  0  0  0  0  0  0  0  0
  187.9110  177.5240  145.9370 C   0  0  0  0  0  2  0  0  0  0  0  0
  188.9420  176.6790  146.6070 C   0  0  0  0  0  0  0  0  0  0  0  0
  189.8510  177.2280  147.2770 O   0  0  0  0  0  1  0  0  0  0  0  0
  188.8920  175.2930  146.5280 O   0  0  0  0  0  0  0  0  0  0  0  0
  2  8  1  6  0  0  0
  3 19  1  0  0  0  0
  4  9  1  6  0  0  0
  4  2  1  0  0  0  0
  4 21  1  0  0  0  0
  5 12  1  0  0  0  0
  5  6  1  0  0  0  0
  6 11  1  0  0  0  0
  7  3  1  0  0  0  0
  7 17  1  0  0  0  0
 10 14  1  0  0  0  0
 11 27  1  1  0  0  0
 11  2  1  0  0  0  0
 12 26  1  0  0  0  0
 13 16  1  0  0  0  0
 14  6  2  0  0  0  0
 14  9  1  0  0  0  0
 15 17  1  0  0  0  0
 15  8  1  0  0  0  0
 16 10  1  0  0  0  0
 16  1  1  1  0  0  0
 17 23  1  0  0  0  0
 17 20  1  0  0  0  0
 18 24  1  0  0  0  0
 18 10  2  0  0  0  0
 19 22  1  0  0  0  0
 20 22  1  0  0  0  0
 23 21  1  0  0  0  0
 24  5  2  0  0  0  0
 25 13  2  0  0  0  0
 25 18  1  0  0  0  0
 26 28  1  1  0  0  0
 26 27  1  0  0  0  0
 28 29  1  1  0  0  0
 28 30  1  0  0  0  0
 30 31  1  0  0  0  0
 31 33  1  0  0  0  0
 32 34  2  0  0  0  0
 33 32  1  0  0  0  0
 35 32  1  0  0  0  0
 35 36  1  0  0  0  0
 36 37  1  0  0  0  0
 38 36  2  0  0  0  0
M  END
>  <MODEL>
7

>  <REMARK>
 VINA RESULT:      -7.5      1.441      3.278
  Name = 
  6 active torsions:
  status: ('A' for Active; 'I' for Inactive)
    1  A    between atoms: C_3  and  C_8
    2  A    between atoms: C_3  and  C_22
    3  A    between atoms: C_19  and  C_23
    4  A    between atoms: C_19  and  C_30
    5  A    between atoms: C_23  and  N_32
    6  A    between atoms: C_30  and  C_36
                            x       y       z     vdW  Elec       q    Type
                         _______ _______ _______ _____ _____    ______ ____

>  <TORSDO>
F 6

$$$$
=
 OpenBabel11042416233D

 38 43  0  0  1  0  0  0  0  0999 V2000
  189.9520  171.5000  140.2580 C   0  0  0  0  0  1  0  0  0  0  0  0
  190.2860  175.0380  144.7120 C   0  0  1  0  0  3  0  0  0  0  0  0
  196.1410  174.8780  143.9460 C   0  0  0  0  0  2  0  0  0  0  0  0
  190.7680  173.6940  144.1120 C   0  0  1  0  0  3  0  0  0  0  0  0
  188.0200  175.9650  141.6940 C   0  0  0  0  0  0  0  0  0  0  0  0
  189.0520  175.3550  142.4440 C   0  0  0  0  0  0  0  0  0  0  0  0
  194.7930  175.5350  143.6290 C   0  0  0  0  0  2  0  0  0  0  0  0
  191.3860  175.8520  145.4000 C   0  0  0  0  0  2  0  0  0  0  0  0
  191.0040  173.7480  142.5950 C   0  0  0  0  0  2  0  0  0  0  0  0
  189.5300  173.9150  140.5630 C   0  0  0  0  0  0  0  0  0  0  0  0
  189.4470  175.9390  143.7880 C   0  0  1  0  0  3  0  0  0  0  0  0
  187.0920  176.9770  142.3110 C   0  0  0  0  0  2  0  0  0  0  0  0
  189.4560  173.0350  138.4390 N   0  0  0  0  0  0  0  0  0  0  0  0
  189.8270  174.3180  141.8740 C   0  0  0  0  0  0  0  0  0  0  0  0
  192.5520  176.0920  144.4480 C   0  0  0  0  0  2  0  0  0  0  0  0
  190.1900  172.8920  139.6950 C   0  0  2  0  0  3  0  0  0  0  0  0
  193.7110  175.0950  144.6210 C   0  0  0  0  0  0  0  0  0  0  0  0
  188.5250  174.5020  139.8570 C   0  0  0  0  0  0  0  0  0  0  0  0
  196.5380  175.2140  145.2520 O   0  0  0  0  0  0  0  0  0  0  0  0
  194.2690  175.1660  146.0590 C   0  0  0  0  0  2  0  0  0  0  0  0
  191.9980  173.1200  144.8470 C   0  0  0  0  0  2  0  0  0  0  0  0
  195.6600  174.5220  146.1190 C   0  0  0  0  0  2  0  0  0  0  0  0
  193.3260  173.6410  144.2730 C   0  0  0  0  0  2  0  0  0  0  0  0
  187.7500  175.5220  140.3900 C   0  0  0  0  0  3  0  0  0  0  0  0
  188.5210  173.9280  138.5370 C   0  0  0  0  0  3  0  0  0  0  0  0
  187.5790  177.5600  143.6420 C   0  0  2  0  0  3  0  0  0  0  0  0
  188.2380  176.5000  144.5230 C   0  0  0  0  0  2  0  0  0  0  0  0
  186.4330  178.2730  144.3590 C   0  0  2  0  0  3  0  0  0  0  0  0
  185.6010  177.3360  144.9770 O   0  0  0  0  0  1  0  0  0  0  0  0
  185.6390  179.1630  143.4200 C   0  0  0  0  0  2  0  0  0  0  0  0
  184.2020  178.6880  143.2950 C   0  0  0  0  0  2  0  0  0  0  0  0
  182.5880  178.2140  141.3750 C   0  0  0  0  0  0  0  0  0  0  0  0
  183.9050  178.2240  141.9480 N   0  0  0  0  0  2  0  0  0  0  0  0
  182.4480  177.9100  140.1570 O   0  0  0  0  0  0  0  0  0  0  0  0
  181.3770  178.5340  142.2000 C   0  0  0  0  0  2  0  0  0  0  0  0
  180.2900  179.0930  141.3450 C   0  0  0  0  0  0  0  0  0  0  0  0
  179.1800  178.5080  141.2970 O   0  0  0  0  0  1  0  0  0  0  0  0
  180.4770  180.2660  140.6260 O   0  0  0  0  0  0  0  0  0  0  0  0
  2  8  1  6  0  0  0
  3 19  1  0  0  0  0
  4  9  1  6  0  0  0
  4  2  1  0  0  0  0
  4 21  1  0  0  0  0
  5 12  1  0  0  0  0
  5  6  1  0  0  0  0
  6 11  1  0  0  0  0
  7  3  1  0  0  0  0
  7 17  1  0  0  0  0
 10 14  1  0  0  0  0
 11 27  1  1  0  0  0
 11  2  1  0  0  0  0
 12 26  1  0  0  0  0
 13 25  2  0  0  0  0
 13 16  1  0  0  0  0
 14  6  2  0  0  0  0
 14  9  1  0  0  0  0
 15 17  1  0  0  0  0
 15  8  1  0  0  0  0
 16  1  1  1  0  0  0
 16 10  1  0  0  0  0
 17 20  1  0  0  0  0
 18 24  1  0  0  0  0
 18 10  2  0  0  0  0
 19 22  1  0  0  0  0
 20 22  1  0  0  0  0
 23 17  1  0  0  0  0
 23 21  1  0  0  0  0
 24  5  2  0  0  0  0
 25 18  1  0  0  0  0
 26 28  1  1  0  0  0
 26 27  1  0  0  0  0
 28 29  1  6  0  0  0
 30 28  1  0  0  0  0
 31 30  1  0  0  0  0
 32 33  1  0  0  0  0
 32 35  1  0  0  0  0
 33 31  1  0  0  0  0
 34 32  2  0  0  0  0
 36 35  1  0  0  0  0
 37 36  1  0  0  0  0
 38 36  2  0  0  0  0
M  END
>  <MODEL>
8

>  <REMARK>
 VINA RESULT:      -7.4      1.975      2.710
  Name = 
  6 active torsions:
  status: ('A' for Active; 'I' for Inactive)
    1  A    between atoms: C_3  and  C_8
    2  A    between atoms: C_3  and  C_22
    3  A    between atoms: C_19  and  C_23
    4  A    between atoms: C_19  and  C_30
    5  A    between atoms: C_23  and  N_32
    6  A    between atoms: C_30  and  C_36
                            x       y       z     vdW  Elec       q    Type
                         _______ _______ _______ _____ _____    ______ ____

>  <TORSDO>
F 6

$$$$
=
 OpenBabel11042416233D

 38 43  0  0  1  0  0  0  0  0999 V2000
  197.1870  174.0150  142.7160 C   0  0  0  0  0  1  0  0  0  0  0  0
  191.5900  174.9340  142.1710 C   0  0  1  0  0  3  0  0  0  0  0  0
  191.2740  169.4780  139.9280 C   0  0  0  0  0  2  0  0  0  0  0  0
  192.8910  174.5170  141.4410 C   0  0  1  0  0  3  0  0  0  0  0  0
  193.2890  175.4490  145.6280 C   0  0  0  0  0  0  0  0  0  0  0  0
  193.0670  174.9840  144.3110 C   0  0  0  0  0  0  0  0  0  0  0  0
  191.2230  170.3990  141.1520 C   0  0  0  0  0  2  0  0  0  0  0  0
  190.3620  174.0980  141.7960 C   0  0  0  0  0  2  0  0  0  0  0  0
  193.8240  173.6470  142.2960 C   0  0  0  0  0  2  0  0  0  0  0  0
  195.2920  174.0400  144.3010 C   0  0  0  0  0  0  0  0  0  0  0  0
  191.6840  175.0970  143.6990 C   0  0  1  0  0  3  0  0  0  0  0  0
  192.2900  176.3310  146.3280 C   0  0  0  0  0  2  0  0  0  0  0  0
  197.3600  173.3670  145.0530 N   0  0  0  0  0  0  0  0  0  0  0  0
  194.0780  174.2610  143.6340 C   0  0  0  0  0  0  0  0  0  0  0  0
  190.6330  172.6150  142.0150 C   0  0  0  0  0  2  0  0  0  0  0  0
  196.5090  173.2880  143.8650 C   0  0  2  0  0  3  0  0  0  0  0  0
  191.0580  171.8650  140.7400 C   0  0  0  0  0  0  0  0  0  0  0  0
  195.4960  174.5050  145.5640 C   0  0  0  0  0  0  0  0  0  0  0  0
  190.0960  169.6230  139.1750 O   0  0  0  0  0  0  0  0  0  0  0  0
  189.9580  171.9780  139.6610 C   0  0  0  0  0  2  0  0  0  0  0  0
  192.6210  173.8630  140.0690 C   0  0  0  0  0  2  0  0  0  0  0  0
  190.1640  170.9050  138.5830 C   0  0  0  0  0  2  0  0  0  0  0  0
  192.4110  172.3440  140.1700 C   0  0  0  0  0  2  0  0  0  0  0  0
  194.5230  175.2150  146.2530 C   0  0  0  0  0  3  0  0  0  0  0  0
  196.7940  174.0550  145.9950 C   0  0  0  0  0  3  0  0  0  0  0  0
  190.9000  176.3590  145.6820 C   0  0  2  0  0  3  0  0  0  0  0  0
  190.9800  176.3670  144.1560 C   0  0  0  0  0  2  0  0  0  0  0  0
  190.0880  177.5350  146.2210 C   0  0  2  0  0  3  0  0  0  0  0  0
  190.0980  177.5210  147.6180 O   0  0  0  0  0  1  0  0  0  0  0  0
  188.6650  177.5350  145.6930 C   0  0  0  0  0  2  0  0  0  0  0  0
  187.7380  176.7490  146.6040 C   0  0  0  0  0  2  0  0  0  0  0  0
  185.4610  177.8810  146.8120 C   0  0  0  0  0  0  0  0  0  0  0  0
  186.7910  177.6180  147.2850 N   0  0  0  0  0  2  0  0  0  0  0  0
  184.6690  178.5490  147.5360 O   0  0  0  0  0  0  0  0  0  0  0  0
  185.0010  177.3990  145.4690 C   0  0  0  0  0  2  0  0  0  0  0  0
  184.9150  178.5320  144.5030 C   0  0  0  0  0  0  0  0  0  0  0  0
  185.9680  179.0050  144.0090 O   0  0  0  0  0  0  0  0  0  0  0  0
  183.6850  179.0520  144.1180 O   0  0  0  0  0  1  0  0  0  0  0  0
  2  8  1  1  0  0  0
  2 11  1  0  0  0  0
  3  7  1  0  0  0  0
  4 21  1  6  0  0  0
  4  2  1  0  0  0  0
  4  9  1  0  0  0  0
  5 24  1  0  0  0  0
  5 12  1  0  0  0  0
  6  5  2  0  0  0  0
  8 15  1  0  0  0  0
  9 14  1  0  0  0  0
 10 18  1  0  0  0  0
 11 27  1  6  0  0  0
 11  6  1  0  0  0  0
 13 25  2  0  0  0  0
 14 10  2  0  0  0  0
 14  6  1  0  0  0  0
 16  1  1  6  0  0  0
 16 10  1  0  0  0  0
 16 13  1  0  0  0  0
 17  7  1  0  0  0  0
 17 15  1  0  0  0  0
 18 25  1  0  0  0  0
 18 24  2  0  0  0  0
 19  3  1  0  0  0  0
 20 17  1  0  0  0  0
 21 23  1  0  0  0  0
 22 19  1  0  0  0  0
 22 20  1  0  0  0  0
 23 17  1  0  0  0  0
 26 28  1  1  0  0  0
 26 12  1  0  0  0  0
 27 26  1  0  0  0  0
 28 29  1  1  0  0  0
 30 28  1  0  0  0  0
 30 31  1  0  0  0  0
 31 33  1  0  0  0  0
 32 33  1  0  0  0  0
 32 34  2  0  0  0  0
 35 32  1  0  0  0  0
 36 35  1  0  0  0  0
 37 36  2  0  0  0  0
 38 36  1  0  0  0  0
M  END
>  <MODEL>
9

>  <REMARK>
 VINA RESULT:      -7.2      2.733      5.645
  Name = 
  6 active torsions:
  status: ('A' for Active; 'I' for Inactive)
    1  A    between atoms: C_3  and  C_8
    2  A    between atoms: C_3  and  C_22
    3  A    between atoms: C_19  and  C_23
    4  A    between atoms: C_19  and  C_30
    5  A    between atoms: C_23  and  N_32
    6  A    between atoms: C_30  and  C_36
                            x       y       z     vdW  Elec       q    Type
                         _______ _______ _______ _____ _____    ______ ____

>  <TORSDO>
F 6

$$$$
