=
 OpenBabel11042415353D

 47 52  0  0  1  0  0  0  0  0999 V2000
  187.1730  177.9350  143.8140 C   0  0  2  0  0  3  0  0  0  0  0  0
  189.1530  174.6770  141.8110 C   0  0  0  0  0  0  0  0  0  0  0  0
  189.2410  176.8180  142.9590 C   0  0  0  0  0  3  0  0  0  0  0  0
  187.1100  175.7200  142.5950 C   0  0  0  0  0  3  0  0  0  0  0  0
  189.8920  175.7620  142.3160 C   0  0  0  0  0  3  0  0  0  0  0  0
  187.8480  176.8000  143.1060 C   0  0  0  0  0  0  0  0  0  0  0  0
  187.7630  174.6610  141.9570 C   0  0  0  0  0  3  0  0  0  0  0  0
  189.8150  173.5320  141.1760 C   0  0  0  0  0  3  0  0  0  0  0  0
  190.5090  173.6650  140.0910 N   0  0  0  0  0  0  0  0  0  0  0  0
  191.1890  172.5640  139.4780 C   0  0  0  0  0  0  0  0  0  0  0  0
  190.5500  171.7110  138.8040 O   0  0  0  0  0  0  0  0  0  0  0  0
  192.6010  172.4160  139.6250 N   0  0  0  0  0  2  0  0  0  0  0  0
  195.3810  174.4660  139.6410 C   0  0  1  0  0  3  0  0  0  0  0  0
  193.8960  174.4560  139.4490 C   0  0  0  0  0  2  0  0  0  0  0  0
  195.6690  173.1240  140.2630 C   0  0  2  0  0  3  0  0  0  0  0  0
  194.5220  172.6880  140.9460 O   0  0  0  0  0  0  0  0  0  0  0  0
  193.4200  173.3570  140.3750 C   0  0  2  0  0  3  0  0  0  0  0  0
  196.7780  173.2410  141.2000 N   0  0  0  0  0  1  0  0  0  0  0  0
  195.3300  175.3990  137.1060 O   0  0  0  0  0  0  0  0  0  0  0  0
  196.2120  174.6370  138.0640 S   0  0  0  0  0  0  0  0  0  0  0  0
  197.4920  175.4090  138.2680 O   0  0  0  0  0  0  0  0  0  0  0  0
  195.7250  172.7800  136.1500 C   0  0  0  0  0  1  0  0  0  0  0  0
  196.5930  173.0330  137.3730 C   0  0  0  0  0  2  0  0  0  0  0  0
  186.2890  177.4360  144.9580 C   0  0  0  0  0  2  0  0  0  0  0  0
  187.0610  177.4420  146.2750 C   0  0  0  0  0  2  0  0  0  0  0  0
  188.2770  175.5480  146.5360 O   0  0  0  0  0  0  0  0  0  0  0  0
  190.2730  176.4670  147.4110 C   0  0  0  0  0  2  0  0  0  0  0  0
  189.5460  175.2040  147.0380 C   0  0  2  0  0  3  0  0  0  0  0  0
  189.3030  177.5140  146.9790 C   0  0  0  0  0  2  0  0  0  0  0  0
  188.3730  176.8340  146.0960 N   0  0  0  0  0  0  0  0  0  0  0  0
  192.3160  174.0730  144.6800 C   0  0  0  0  0  0  0  0  0  0  0  0
  191.7460  172.9200  144.1280 C   0  0  0  0  0  3  0  0  0  0  0  0
  191.6090  174.8150  145.6300 C   0  0  0  0  0  3  0  0  0  0  0  0
  190.4710  172.5090  144.5290 C   0  0  0  0  0  3  0  0  0  0  0  0
  189.7640  173.2540  145.4800 C   0  0  0  0  0  3  0  0  0  0  0  0
  190.3290  174.4080  146.0320 C   0  0  0  0  0  0  0  0  0  0  0  0
  196.1520  175.2400  144.6470 C   0  0  1  0  0  3  0  0  0  0  0  0
  195.0870  174.1980  144.2440 C   0  0  2  0  0  0  0  0  0  0  0  0
  195.4050  174.5830  145.7050 C   0  0  0  0  0  2  0  0  0  0  0  0
  194.5020  174.9680  143.3530 O   0  0  0  0  0  0  0  0  0  0  0  0
  197.4190  174.6600  144.5340 O   0  0  0  0  0  1  0  0  0  0  0  0
  193.6230  174.4860  144.2950 N   0  0  0  0  0  0  0  0  0  0  0  0
  186.3770  178.7010  142.8680 N   0  0  0  0  0  2  0  0  0  0  0  0
  184.9790  178.4830  143.2130 C   0  0  0  0  0  2  0  0  0  0  0  0
  184.1990  178.2240  141.9710 C   0  0  0  0  0  0  0  0  0  0  0  0
  184.8700  178.0860  140.7210 N   0  0  0  0  0  1  0  0  0  0  0  0
  182.9430  178.1710  142.0190 O   0  0  0  0  0  0  0  0  0  0  0  0
  1 24  1  1  0  0  0
  2  7  2  0  0  0  0
  2  5  1  0  0  0  0
  3  6  1  0  0  0  0
  4  6  2  0  0  0  0
  5  3  2  0  0  0  0
  6  1  1  0  0  0  0
  7  4  1  0  0  0  0
  8  2  1  0  0  0  0
  9  8  2  0  0  0  0
 10 12  1  0  0  0  0
 10  9  1  0  0  0  0
 11 10  2  0  0  0  0
 13 20  1  6  0  0  0
 13 15  1  0  0  0  0
 14 13  1  0  0  0  0
 14 17  1  0  0  0  0
 15 16  1  0  0  0  0
 15 18  1  1  0  0  0
 17 12  1  6  0  0  0
 17 16  1  0  0  0  0
 19 20  2  0  0  0  0
 20 21  2  0  0  0  0
 22 23  1  0  0  0  0
 23 20  1  0  0  0  0
 24 25  1  0  0  0  0
 26 28  1  0  0  0  0
 28 36  1  6  0  0  0
 28 27  1  0  0  0  0
 29 27  1  0  0  0  0
 30 25  1  0  0  0  0
 30 26  1  0  0  0  0
 30 29  1  0  0  0  0
 31 33  1  0  0  0  0
 32 34  1  0  0  0  0
 32 31  2  0  0  0  0
 33 36  2  0  0  0  0
 34 35  2  0  0  0  0
 35 36  1  0  0  0  0
 37 41  1  1  0  0  0
 37 39  1  0  0  0  0
 38 42  1  0  0  0  0
 38 37  1  0  0  0  0
 38 39  1  6  0  0  0
 40 38  1  0  0  0  0
 40 42  1  0  0  0  0
 42 31  1  0  0  0  0
 43 44  1  0  0  0  0
 43  1  1  0  0  0  0
 45 47  2  0  0  0  0
 45 44  1  0  0  0  0
 46 45  1  0  0  0  0
M  END
>  <MODEL>
1

>  <REMARK>
 VINA RESULT:      -6.6      0.000      0.000
  Name = 
  14 active torsions:
  status: ('A' for Active; 'I' for Inactive)
    1  A    between atoms: C_1  and  C_15
    2  A    between atoms: C_1  and  C_45
    3  A    between atoms: C_4  and  C_5
    4  A    between atoms: C_6  and  S_17
    5  A    between atoms: C_7  and  C_13
    6  A    between atoms: C_7  and  N_30
    7  A    between atoms: C_14  and  N_36
    8  A    between atoms: C_15  and  N_32
    9  A    between atoms: S_17  and  C_42
   10  A    between atoms: C_20  and  C_45
   11  A    between atoms: C_22  and  C_44
   12  A    between atoms: C_27  and  N_41
   13  A    between atoms: N_30  and  C_45
   14  A    between atoms: N_35  and  C_38
                            x       y       z     vdW  Elec       q    Type
                         _______ _______ _______ _____ _____    ______ ____

>  <TORSDO>
F 14

$$$$
=
 OpenBabel11042415353D

 47 52  0  0  1  0  0  0  0  0999 V2000
  189.3720  175.0200  146.5040 C   0  0  2  0  0  3  0  0  0  0  0  0
  189.7490  172.8280  142.8160 C   0  0  0  0  0  0  0  0  0  0  0  0
  189.9270  172.9360  145.2380 C   0  0  0  0  0  3  0  0  0  0  0  0
  189.2210  174.8860  143.9830 C   0  0  0  0  0  3  0  0  0  0  0  0
  190.0460  172.2150  144.0470 C   0  0  0  0  0  3  0  0  0  0  0  0
  189.5090  174.2720  145.2130 C   0  0  0  0  0  0  0  0  0  0  0  0
  189.3340  174.1620  142.7920 C   0  0  0  0  0  3  0  0  0  0  0  0
  189.8180  172.0820  141.5550 C   0  0  0  0  0  3  0  0  0  0  0  0
  190.9390  171.6180  141.1000 N   0  0  0  0  0  0  0  0  0  0  0  0
  191.0160  170.8570  139.8890 C   0  0  0  0  0  0  0  0  0  0  0  0
  190.4360  169.7420  139.7950 O   0  0  0  0  0  0  0  0  0  0  0  0
  191.7540  171.3540  138.7730 N   0  0  0  0  0  2  0  0  0  0  0  0
  192.2760  174.3820  137.1960 C   0  0  1  0  0  3  0  0  0  0  0  0
  191.5060  173.7150  138.2930 C   0  0  0  0  0  2  0  0  0  0  0  0
  193.3420  173.3750  136.8460 C   0  0  2  0  0  3  0  0  0  0  0  0
  193.5920  172.5730  137.9710 O   0  0  0  0  0  0  0  0  0  0  0  0
  192.4440  172.6340  138.7880 C   0  0  2  0  0  3  0  0  0  0  0  0
  194.5650  174.0630  136.4570 N   0  0  0  0  0  1  0  0  0  0  0  0
  191.3680  176.1430  135.3600 O   0  0  0  0  0  0  0  0  0  0  0  0
  191.2110  174.7070  135.7950 S   0  0  0  0  0  0  0  0  0  0  0  0
  191.6150  173.8050  134.6550 O   0  0  0  0  0  0  0  0  0  0  0  0
  188.6060  175.3920  135.4930 C   0  0  0  0  0  1  0  0  0  0  0  0
  189.5020  174.3980  136.2150 C   0  0  0  0  0  2  0  0  0  0  0  0
  188.7620  176.4060  146.2870 C   0  0  0  0  0  2  0  0  0  0  0  0
  187.3650  176.4800  146.8980 C   0  0  0  0  0  2  0  0  0  0  0  0
  186.7930  178.0060  145.3250 O   0  0  0  0  0  0  0  0  0  0  0  0
  184.4710  178.1700  145.7470 C   0  0  0  0  0  2  0  0  0  0  0  0
  185.6250  178.6870  144.9310 C   0  0  2  0  0  3  0  0  0  0  0  0
  185.1230  177.0930  146.5460 C   0  0  0  0  0  2  0  0  0  0  0  0
  186.3850  176.8300  145.8780 N   0  0  0  0  0  0  0  0  0  0  0  0
  183.8360  178.2520  141.5970 C   0  0  0  0  0  0  0  0  0  0  0  0
  184.9220  178.1570  140.7180 C   0  0  0  0  0  3  0  0  0  0  0  0
  184.0580  178.4300  142.9640 C   0  0  0  0  0  3  0  0  0  0  0  0
  186.2280  178.2430  141.2100 C   0  0  0  0  0  3  0  0  0  0  0  0
  186.4490  178.4210  142.5800 C   0  0  0  0  0  3  0  0  0  0  0  0
  185.3660  178.5140  143.4610 C   0  0  0  0  0  0  0  0  0  0  0  0
  179.8560  178.4790  141.1630 C   0  0  1  0  0  3  0  0  0  0  0  0
  181.2620  178.9070  140.6880 C   0  0  2  0  0  0  0  0  0  0  0  0
  180.7140  179.1720  142.1070 C   0  0  0  0  0  2  0  0  0  0  0  0
  181.5800  177.7320  140.1900 O   0  0  0  0  0  0  0  0  0  0  0  0
  178.9120  179.3680  140.6430 O   0  0  0  0  0  1  0  0  0  0  0  0
  182.5020  178.1880  141.1020 N   0  0  0  0  0  0  0  0  0  0  0  0
  190.6740  175.1430  147.1420 N   0  0  0  0  0  2  0  0  0  0  0  0
  191.2320  176.4210  146.7260 C   0  0  0  0  0  2  0  0  0  0  0  0
  192.5370  176.1910  146.0450 C   0  0  0  0  0  0  0  0  0  0  0  0
  192.5930  176.0860  144.6240 N   0  0  0  0  0  1  0  0  0  0  0  0
  193.5840  176.0460  146.7270 O   0  0  0  0  0  0  0  0  0  0  0  0
  1 24  1  6  0  0  0
  1 43  1  0  0  0  0
  2  5  1  0  0  0  0
  4  6  2  0  0  0  0
  5  3  2  0  0  0  0
  6  3  1  0  0  0  0
  6  1  1  0  0  0  0
  7  2  2  0  0  0  0
  7  4  1  0  0  0  0
  8  2  1  0  0  0  0
  9  8  2  0  0  0  0
 10  9  1  0  0  0  0
 11 10  2  0  0  0  0
 12 10  1  0  0  0  0
 13 20  1  6  0  0  0
 13 14  1  0  0  0  0
 14 17  1  0  0  0  0
 15 18  1  1  0  0  0
 15 13  1  0  0  0  0
 15 16  1  0  0  0  0
 16 17  1  0  0  0  0
 17 12  1  6  0  0  0
 19 20  2  0  0  0  0
 20 23  1  0  0  0  0
 21 20  2  0  0  0  0
 22 23  1  0  0  0  0
 24 25  1  0  0  0  0
 26 30  1  0  0  0  0
 27 29  1  0  0  0  0
 28 36  1  6  0  0  0
 28 26  1  0  0  0  0
 28 27  1  0  0  0  0
 30 29  1  0  0  0  0
 30 25  1  0  0  0  0
 31 33  1  0  0  0  0
 32 34  1  0  0  0  0
 32 31  2  0  0  0  0
 33 36  2  0  0  0  0
 34 35  2  0  0  0  0
 35 36  1  0  0  0  0
 37 41  1  6  0  0  0
 37 39  1  0  0  0  0
 38 42  1  0  0  0  0
 38 37  1  0  0  0  0
 38 39  1  6  0  0  0
 40 38  1  0  0  0  0
 40 42  1  0  0  0  0
 42 31  1  0  0  0  0
 44 43  1  0  0  0  0
 45 44  1  0  0  0  0
 45 47  2  0  0  0  0
 46 45  1  0  0  0  0
M  END
>  <MODEL>
2

>  <REMARK>
 VINA RESULT:      -6.6      2.685      7.743
  Name = 
  14 active torsions:
  status: ('A' for Active; 'I' for Inactive)
    1  A    between atoms: C_1  and  C_15
    2  A    between atoms: C_1  and  C_45
    3  A    between atoms: C_4  and  C_5
    4  A    between atoms: C_6  and  S_17
    5  A    between atoms: C_7  and  C_13
    6  A    between atoms: C_7  and  N_30
    7  A    between atoms: C_14  and  N_36
    8  A    between atoms: C_15  and  N_32
    9  A    between atoms: S_17  and  C_42
   10  A    between atoms: C_20  and  C_45
   11  A    between atoms: C_22  and  C_44
   12  A    between atoms: C_27  and  N_41
   13  A    between atoms: N_30  and  C_45
   14  A    between atoms: N_35  and  C_38
                            x       y       z     vdW  Elec       q    Type
                         _______ _______ _______ _____ _____    ______ ____

>  <TORSDO>
F 14

$$$$
=
 OpenBabel11042415353D

 47 52  0  0  1  0  0  0  0  0999 V2000
  189.2640  175.2650  146.0360 C   0  0  2  0  0  3  0  0  0  0  0  0
  189.3440  174.3790  141.8220 C   0  0  0  0  0  0  0  0  0  0  0  0
  189.8170  173.7520  144.1220 C   0  0  0  0  0  3  0  0  0  0  0  0
  188.8060  175.9010  143.6310 C   0  0  0  0  0  3  0  0  0  0  0  0
  189.8410  173.4540  142.7580 C   0  0  0  0  0  3  0  0  0  0  0  0
  189.2950  174.9740  144.5670 C   0  0  0  0  0  0  0  0  0  0  0  0
  188.8260  175.5990  142.2660 C   0  0  0  0  0  3  0  0  0  0  0  0
  189.3120  174.0720  140.3880 C   0  0  0  0  0  3  0  0  0  0  0  0
  190.3430  173.5860  139.7740 N   0  0  0  0  0  0  0  0  0  0  0  0
  190.3160  173.2490  138.3820 C   0  0  0  0  0  0  0  0  0  0  0  0
  189.2190  173.1600  137.7660 O   0  0  0  0  0  0  0  0  0  0  0  0
  191.5320  173.0090  137.6750 N   0  0  0  0  0  2  0  0  0  0  0  0
  194.8330  173.9720  137.3590 C   0  0  1  0  0  3  0  0  0  0  0  0
  193.5020  174.4000  137.8940 C   0  0  0  0  0  2  0  0  0  0  0  0
  194.6460  172.5050  137.0710 C   0  0  2  0  0  3  0  0  0  0  0  0
  193.6400  172.0040  137.9120 O   0  0  0  0  0  0  0  0  0  0  0  0
  192.8410  173.1000  138.3010 C   0  0  2  0  0  3  0  0  0  0  0  0
  195.8890  171.7890  137.3200 N   0  0  0  0  0  1  0  0  0  0  0  0
  195.4340  173.9110  134.7260 O   0  0  0  0  0  0  0  0  0  0  0  0
  195.2240  174.8780  135.8650 S   0  0  0  0  0  0  0  0  0  0  0  0
  194.0670  175.7850  135.5270 O   0  0  0  0  0  0  0  0  0  0  0  0
  197.3590  175.5080  137.4120 C   0  0  0  0  0  1  0  0  0  0  0  0
  196.7000  175.8610  136.0880 C   0  0  0  0  0  2  0  0  0  0  0  0
  188.7340  176.6720  146.3180 C   0  0  0  0  0  2  0  0  0  0  0  0
  187.3250  176.6070  146.9030 C   0  0  0  0  0  2  0  0  0  0  0  0
  186.7450  178.1030  145.3030 O   0  0  0  0  0  0  0  0  0  0  0  0
  184.4270  178.2830  145.7400 C   0  0  0  0  0  2  0  0  0  0  0  0
  185.5760  178.7780  144.9050 C   0  0  2  0  0  3  0  0  0  0  0  0
  185.0830  177.2200  146.5570 C   0  0  0  0  0  2  0  0  0  0  0  0
  186.3380  176.9390  145.8840 N   0  0  0  0  0  0  0  0  0  0  0  0
  183.7600  178.2730  141.5950 C   0  0  0  0  0  0  0  0  0  0  0  0
  184.8390  178.1630  140.7090 C   0  0  0  0  0  3  0  0  0  0  0  0
  183.9940  178.4780  142.9570 C   0  0  0  0  0  3  0  0  0  0  0  0
  186.1480  178.2630  141.1870 C   0  0  0  0  0  3  0  0  0  0  0  0
  186.3810  178.4690  142.5520 C   0  0  0  0  0  3  0  0  0  0  0  0
  185.3060  178.5770  143.4410 C   0  0  0  0  0  0  0  0  0  0  0  0
  179.7770  178.4870  141.1880 C   0  0  1  0  0  3  0  0  0  0  0  0
  181.1780  178.9030  140.6910 C   0  0  2  0  0  0  0  0  0  0  0  0
  180.6420  179.2050  142.1070 C   0  0  0  0  0  2  0  0  0  0  0  0
  181.4920  177.7150  140.2210 O   0  0  0  0  0  0  0  0  0  0  0  0
  178.8270  179.3620  140.6520 O   0  0  0  0  0  1  0  0  0  0  0  0
  182.4220  178.1950  141.1140 N   0  0  0  0  0  0  0  0  0  0  0  0
  190.5980  175.1150  146.5960 N   0  0  0  0  0  2  0  0  0  0  0  0
  191.1810  176.4470  146.6710 C   0  0  0  0  0  2  0  0  0  0  0  0
  192.4610  176.4690  145.9080 C   0  0  0  0  0  0  0  0  0  0  0  0
  193.7050  176.5210  146.6020 N   0  0  0  0  0  1  0  0  0  0  0  0
  192.4420  176.4850  144.6510 O   0  0  0  0  0  0  0  0  0  0  0  0
  1 24  1  6  0  0  0
  1 43  1  0  0  0  0
  2  7  2  0  0  0  0
  2  5  1  0  0  0  0
  3  6  1  0  0  0  0
  4  6  2  0  0  0  0
  5  3  2  0  0  0  0
  6  1  1  0  0  0  0
  7  4  1  0  0  0  0
  8  2  1  0  0  0  0
  9  8  2  0  0  0  0
 10  9  1  0  0  0  0
 11 10  2  0  0  0  0
 12 10  1  0  0  0  0
 13 20  1  6  0  0  0
 13 14  1  0  0  0  0
 14 17  1  0  0  0  0
 15 18  1  1  0  0  0
 15 13  1  0  0  0  0
 15 16  1  0  0  0  0
 16 17  1  0  0  0  0
 17 12  1  6  0  0  0
 19 20  2  0  0  0  0
 20 23  1  0  0  0  0
 21 20  2  0  0  0  0
 23 22  1  0  0  0  0
 24 25  1  0  0  0  0
 26 30  1  0  0  0  0
 27 29  1  0  0  0  0
 28 36  1  6  0  0  0
 28 26  1  0  0  0  0
 28 27  1  0  0  0  0
 30 29  1  0  0  0  0
 30 25  1  0  0  0  0
 31 33  1  0  0  0  0
 32 34  1  0  0  0  0
 32 31  2  0  0  0  0
 33 36  2  0  0  0  0
 34 35  2  0  0  0  0
 35 36  1  0  0  0  0
 37 41  1  6  0  0  0
 37 39  1  0  0  0  0
 38 42  1  0  0  0  0
 38 37  1  0  0  0  0
 38 39  1  6  0  0  0
 40 38  1  0  0  0  0
 40 42  1  0  0  0  0
 42 31  1  0  0  0  0
 43 44  1  0  0  0  0
 45 46  1  0  0  0  0
 45 44  1  0  0  0  0
 47 45  2  0  0  0  0
M  END
>  <MODEL>
3

>  <REMARK>
 VINA RESULT:      -6.6      2.395      7.438
  Name = 
  14 active torsions:
  status: ('A' for Active; 'I' for Inactive)
    1  A    between atoms: C_1  and  C_15
    2  A    between atoms: C_1  and  C_45
    3  A    between atoms: C_4  and  C_5
    4  A    between atoms: C_6  and  S_17
    5  A    between atoms: C_7  and  C_13
    6  A    between atoms: C_7  and  N_30
    7  A    between atoms: C_14  and  N_36
    8  A    between atoms: C_15  and  N_32
    9  A    between atoms: S_17  and  C_42
   10  A    between atoms: C_20  and  C_45
   11  A    between atoms: C_22  and  C_44
   12  A    between atoms: C_27  and  N_41
   13  A    between atoms: N_30  and  C_45
   14  A    between atoms: N_35  and  C_38
                            x       y       z     vdW  Elec       q    Type
                         _______ _______ _______ _____ _____    ______ ____

>  <TORSDO>
F 14

$$$$
=
 OpenBabel11042415353D

 47 52  0  0  1  0  0  0  0  0999 V2000
  187.2450  177.5990  146.0200 C   0  0  2  0  0  3  0  0  0  0  0  0
  187.7160  176.2630  141.9520 C   0  0  0  0  0  0  0  0  0  0  0  0
  188.4720  177.5940  143.8400 C   0  0  0  0  0  3  0  0  0  0  0  0
  186.4680  176.2440  144.0310 C   0  0  0  0  0  3  0  0  0  0  0  0
  188.6370  177.1610  142.5220 C   0  0  0  0  0  3  0  0  0  0  0  0
  187.3920  177.1340  144.6020 C   0  0  0  0  0  0  0  0  0  0  0  0
  186.6370  175.8060  142.7130 C   0  0  0  0  0  3  0  0  0  0  0  0
  187.8910  175.7540  140.5880 C   0  0  0  0  0  3  0  0  0  0  0  0
  188.3740  174.5740  140.3590 N   0  0  0  0  0  0  0  0  0  0  0  0
  188.5180  174.0510  139.0340 C   0  0  0  0  0  0  0  0  0  0  0  0
  188.0250  174.6610  138.0470 O   0  0  0  0  0  0  0  0  0  0  0  0
  189.2220  172.8290  138.8140 N   0  0  0  0  0  2  0  0  0  0  0  0
  192.0920  172.1280  140.6040 C   0  0  1  0  0  3  0  0  0  0  0  0
  190.8310  172.9360  140.6210 C   0  0  0  0  0  2  0  0  0  0  0  0
  191.8550  171.1240  139.5050 C   0  0  2  0  0  3  0  0  0  0  0  0
  190.4720  170.9210  139.3680 O   0  0  0  0  0  0  0  0  0  0  0  0
  189.8320  172.0640  139.8900 C   0  0  2  0  0  3  0  0  0  0  0  0
  192.5000  169.8620  139.8400 N   0  0  0  0  0  1  0  0  0  0  0  0
  194.5390  172.3730  139.4880 O   0  0  0  0  0  0  0  0  0  0  0  0
  193.4970  173.1720  140.2320 S   0  0  0  0  0  0  0  0  0  0  0  0
  193.0400  174.3120  139.3570 O   0  0  0  0  0  0  0  0  0  0  0  0
  195.6380  173.3250  141.8870 C   0  0  0  0  0  1  0  0  0  0  0  0
  194.2120  173.8280  141.7320 C   0  0  0  0  0  2  0  0  0  0  0  0
  187.9590  176.6600  146.9940 C   0  0  0  0  0  2  0  0  0  0  0  0
  189.4140  177.0840  147.1790 C   0  0  0  0  0  2  0  0  0  0  0  0
  190.9450  176.3360  145.6860 O   0  0  0  0  0  0  0  0  0  0  0  0
  190.2320  174.0910  145.4660 C   0  0  0  0  0  2  0  0  0  0  0  0
  191.2050  175.1370  144.9950 C   0  0  2  0  0  3  0  0  0  0  0  0
  189.4910  174.8250  146.5330 C   0  0  0  0  0  2  0  0  0  0  0  0
  190.3080  175.9850  146.8390 N   0  0  0  0  0  0  0  0  0  0  0  0
  194.2790  172.9250  145.4030 C   0  0  0  0  0  0  0  0  0  0  0  0
  195.2730  173.8840  145.6320 C   0  0  0  0  0  3  0  0  0  0  0  0
  192.9580  173.3270  145.1900 C   0  0  0  0  0  3  0  0  0  0  0  0
  194.9440  175.2420  145.6430 C   0  0  0  0  0  3  0  0  0  0  0  0
  193.6200  175.6430  145.4300 C   0  0  0  0  0  3  0  0  0  0  0  0
  192.6230  174.6880  145.2030 C   0  0  0  0  0  0  0  0  0  0  0  0
  196.1780  169.3960  145.5310 C   0  0  1  0  0  3  0  0  0  0  0  0
  195.0800  170.3240  146.0940 C   0  0  2  0  0  0  0  0  0  0  0  0
  196.5840  170.6730  146.0880 C   0  0  0  0  0  2  0  0  0  0  0  0
  194.3030  170.2410  145.0360 O   0  0  0  0  0  0  0  0  0  0  0  0
  196.4270  168.3770  146.4560 O   0  0  0  0  0  1  0  0  0  0  0  0
  194.6080  171.5400  145.3670 N   0  0  0  0  0  0  0  0  0  0  0  0
  185.8350  177.6940  146.3630 N   0  0  0  0  0  2  0  0  0  0  0  0
  185.4750  179.1030  146.2970 C   0  0  0  0  0  2  0  0  0  0  0  0
  184.8080  179.3810  144.9940 C   0  0  0  0  0  0  0  0  0  0  0  0
  185.4710  180.1670  144.0060 N   0  0  0  0  0  1  0  0  0  0  0  0
  183.6430  178.9590  144.7820 O   0  0  0  0  0  0  0  0  0  0  0  0
  1 43  1  0  0  0  0
  1 24  1  1  0  0  0
  2  5  2  0  0  0  0
  2  7  1  0  0  0  0
  3  6  2  0  0  0  0
  4  6  1  0  0  0  0
  5  3  1  0  0  0  0
  6  1  1  0  0  0  0
  7  4  2  0  0  0  0
  8  2  1  0  0  0  0
  9  8  2  0  0  0  0
 10  9  1  0  0  0  0
 11 10  2  0  0  0  0
 12 10  1  0  0  0  0
 13 20  1  6  0  0  0
 13 14  1  0  0  0  0
 15 18  1  1  0  0  0
 15 13  1  0  0  0  0
 16 15  1  0  0  0  0
 16 17  1  0  0  0  0
 17 12  1  6  0  0  0
 17 14  1  0  0  0  0
 19 20  2  0  0  0  0
 20 23  1  0  0  0  0
 21 20  2  0  0  0  0
 23 22  1  0  0  0  0
 24 25  1  0  0  0  0
 26 30  1  0  0  0  0
 27 29  1  0  0  0  0
 28 36  1  1  0  0  0
 28 27  1  0  0  0  0
 28 26  1  0  0  0  0
 29 30  1  0  0  0  0
 30 25  1  0  0  0  0
 31 32  1  0  0  0  0
 32 34  2  0  0  0  0
 33 36  1  0  0  0  0
 33 31  2  0  0  0  0
 35 34  1  0  0  0  0
 36 35  2  0  0  0  0
 37 39  1  0  0  0  0
 37 38  1  0  0  0  0
 37 41  1  1  0  0  0
 38 39  1  1  0  0  0
 40 42  1  0  0  0  0
 40 38  1  0  0  0  0
 42 31  1  0  0  0  0
 42 38  1  0  0  0  0
 44 43  1  0  0  0  0
 45 44  1  0  0  0  0
 46 45  1  0  0  0  0
 47 45  2  0  0  0  0
M  END
>  <MODEL>
4

>  <REMARK>
 VINA RESULT:      -6.4      2.532      3.704
  Name = 
  14 active torsions:
  status: ('A' for Active; 'I' for Inactive)
    1  A    between atoms: C_1  and  C_15
    2  A    between atoms: C_1  and  C_45
    3  A    between atoms: C_4  and  C_5
    4  A    between atoms: C_6  and  S_17
    5  A    between atoms: C_7  and  C_13
    6  A    between atoms: C_7  and  N_30
    7  A    between atoms: C_14  and  N_36
    8  A    between atoms: C_15  and  N_32
    9  A    between atoms: S_17  and  C_42
   10  A    between atoms: C_20  and  C_45
   11  A    between atoms: C_22  and  C_44
   12  A    between atoms: C_27  and  N_41
   13  A    between atoms: N_30  and  C_45
   14  A    between atoms: N_35  and  C_38
                            x       y       z     vdW  Elec       q    Type
                         _______ _______ _______ _____ _____    ______ ____

>  <TORSDO>
F 14

$$$$
=
 OpenBabel11042415353D

 47 52  0  0  1  0  0  0  0  0999 V2000
  185.1040  178.6680  142.3160 C   0  0  2  0  0  3  0  0  0  0  0  0
  187.8110  175.4680  141.3260 C   0  0  0  0  0  0  0  0  0  0  0  0
  186.6720  177.5310  140.7330 C   0  0  0  0  0  3  0  0  0  0  0  0
  186.2850  176.5080  142.8960 C   0  0  0  0  0  3  0  0  0  0  0  0
  187.5560  176.5000  140.4050 C   0  0  0  0  0  3  0  0  0  0  0  0
  186.0360  177.5430  141.9800 C   0  0  0  0  0  0  0  0  0  0  0  0
  187.1750  175.4800  142.5700 C   0  0  0  0  0  3  0  0  0  0  0  0
  188.7720  174.4000  141.0280 C   0  0  0  0  0  3  0  0  0  0  0  0
  189.3350  173.7100  141.9690 N   0  0  0  0  0  0  0  0  0  0  0  0
  190.2480  172.6420  141.6920 C   0  0  0  0  0  0  0  0  0  0  0  0
  189.8740  171.6340  141.0330 O   0  0  0  0  0  0  0  0  0  0  0  0
  191.5940  172.7050  142.1610 N   0  0  0  0  0  2  0  0  0  0  0  0
  194.2710  174.0530  143.8770 C   0  0  1  0  0  3  0  0  0  0  0  0
  193.5680  174.0520  142.5550 C   0  0  0  0  0  2  0  0  0  0  0  0
  193.2860  173.3890  144.8040 C   0  0  2  0  0  3  0  0  0  0  0  0
  191.9900  173.5840  144.3010 O   0  0  0  0  0  0  0  0  0  0  0  0
  192.1150  173.8320  142.9180 C   0  0  2  0  0  3  0  0  0  0  0  0
  193.3850  173.9750  146.1330 N   0  0  0  0  0  1  0  0  0  0  0  0
  195.5840  171.7440  144.3670 O   0  0  0  0  0  0  0  0  0  0  0  0
  195.7930  173.1150  143.7750 S   0  0  0  0  0  0  0  0  0  0  0  0
  196.1790  172.9670  142.3240 O   0  0  0  0  0  0  0  0  0  0  0  0
  197.0220  173.6250  146.1370 C   0  0  0  0  0  1  0  0  0  0  0  0
  197.1080  173.9470  144.6540 C   0  0  0  0  0  2  0  0  0  0  0  0
  185.6820  179.5660  143.4120 C   0  0  0  0  0  2  0  0  0  0  0  0
  185.0050  179.2820  144.7510 C   0  0  0  0  0  2  0  0  0  0  0  0
  185.7210  177.3110  145.6080 O   0  0  0  0  0  0  0  0  0  0  0  0
  185.9170  177.9100  147.8880 C   0  0  0  0  0  2  0  0  0  0  0  0
  186.0310  176.7980  146.8810 C   0  0  2  0  0  3  0  0  0  0  0  0
  185.6020  179.0770  147.0150 C   0  0  0  0  0  2  0  0  0  0  0  0
  185.9450  178.6540  145.6690 N   0  0  0  0  0  0  0  0  0  0  0  0
  189.6800  176.0720  146.0670 C   0  0  0  0  0  0  0  0  0  0  0  0
  189.9460  175.0100  146.9390 C   0  0  0  0  0  3  0  0  0  0  0  0
  188.4130  176.6600  146.0480 C   0  0  0  0  0  3  0  0  0  0  0  0
  188.9440  174.5410  147.7930 C   0  0  0  0  0  3  0  0  0  0  0  0
  187.6750  175.1300  147.7730 C   0  0  0  0  0  3  0  0  0  0  0  0
  187.4050  176.1900  146.9010 C   0  0  0  0  0  0  0  0  0  0  0  0
  191.7730  177.4330  142.9280 C   0  0  1  0  0  3  0  0  0  0  0  0
  191.2090  177.6780  144.3440 C   0  0  2  0  0  0  0  0  0  0  0  0
  190.3340  177.3710  143.1100 C   0  0  0  0  0  2  0  0  0  0  0  0
  192.0240  176.8360  144.9420 O   0  0  0  0  0  0  0  0  0  0  0  0
  192.1250  178.6610  142.3610 O   0  0  0  0  0  1  0  0  0  0  0  0
  190.7010  176.5720  145.2090 N   0  0  0  0  0  0  0  0  0  0  0  0
  183.8190  178.1320  142.7380 N   0  0  0  0  0  2  0  0  0  0  0  0
  183.0320  177.9160  141.5320 C   0  0  0  0  0  2  0  0  0  0  0  0
  181.7470  178.6620  141.6420 C   0  0  0  0  0  0  0  0  0  0  0  0
  180.8750  178.7520  140.5180 N   0  0  0  0  0  1  0  0  0  0  0  0
  181.4520  179.2480  142.7150 O   0  0  0  0  0  0  0  0  0  0  0  0
  1 43  1  0  0  0  0
  1 24  1  1  0  0  0
  2  7  1  0  0  0  0
  3  6  2  0  0  0  0
  5  3  1  0  0  0  0
  5  2  2  0  0  0  0
  6  1  1  0  0  0  0
  6  4  1  0  0  0  0
  7  4  2  0  0  0  0
  8  2  1  0  0  0  0
  8  9  2  0  0  0  0
 10  9  1  0  0  0  0
 10 12  1  0  0  0  0
 11 10  2  0  0  0  0
 13 20  1  6  0  0  0
 13 15  1  0  0  0  0
 14 17  1  0  0  0  0
 14 13  1  0  0  0  0
 15 18  1  1  0  0  0
 16 15  1  0  0  0  0
 17 12  1  6  0  0  0
 17 16  1  0  0  0  0
 20 19  2  0  0  0  0
 20 23  1  0  0  0  0
 21 20  2  0  0  0  0
 23 22  1  0  0  0  0
 24 25  1  0  0  0  0
 25 30  1  0  0  0  0
 26 30  1  0  0  0  0
 26 28  1  0  0  0  0
 28 36  1  6  0  0  0
 28 27  1  0  0  0  0
 29 27  1  0  0  0  0
 30 29  1  0  0  0  0
 31 32  1  0  0  0  0
 32 34  2  0  0  0  0
 33 31  2  0  0  0  0
 33 36  1  0  0  0  0
 35 34  1  0  0  0  0
 36 35  2  0  0  0  0
 37 41  1  6  0  0  0
 37 39  1  0  0  0  0
 37 38  1  0  0  0  0
 38 39  1  1  0  0  0
 38 40  1  0  0  0  0
 38 42  1  0  0  0  0
 40 42  1  0  0  0  0
 42 31  1  0  0  0  0
 44 45  1  0  0  0  0
 44 43  1  0  0  0  0
 45 47  2  0  0  0  0
 46 45  1  0  0  0  0
M  END
>  <MODEL>
5

>  <REMARK>
 VINA RESULT:      -6.3      2.849      4.251
  Name = 
  14 active torsions:
  status: ('A' for Active; 'I' for Inactive)
    1  A    between atoms: C_1  and  C_15
    2  A    between atoms: C_1  and  C_45
    3  A    between atoms: C_4  and  C_5
    4  A    between atoms: C_6  and  S_17
    5  A    between atoms: C_7  and  C_13
    6  A    between atoms: C_7  and  N_30
    7  A    between atoms: C_14  and  N_36
    8  A    between atoms: C_15  and  N_32
    9  A    between atoms: S_17  and  C_42
   10  A    between atoms: C_20  and  C_45
   11  A    between atoms: C_22  and  C_44
   12  A    between atoms: C_27  and  N_41
   13  A    between atoms: N_30  and  C_45
   14  A    between atoms: N_35  and  C_38
                            x       y       z     vdW  Elec       q    Type
                         _______ _______ _______ _____ _____    ______ ____

>  <TORSDO>
F 14

$$$$
=
 OpenBabel11042415353D

 47 52  0  0  1  0  0  0  0  0999 V2000
  187.3080  176.6730  144.7330 C   0  0  2  0  0  3  0  0  0  0  0  0
  191.4810  175.9460  145.5100 C   0  0  0  0  0  0  0  0  0  0  0  0
  189.7020  177.3950  144.7090 C   0  0  0  0  0  3  0  0  0  0  0  0
  189.1820  175.1770  145.5360 C   0  0  0  0  0  3  0  0  0  0  0  0
  191.0570  177.1710  144.9640 C   0  0  0  0  0  3  0  0  0  0  0  0
  188.7580  176.4030  144.9980 C   0  0  0  0  0  0  0  0  0  0  0  0
  190.5380  174.9550  145.7960 C   0  0  0  0  0  3  0  0  0  0  0  0
  192.8910  175.7010  145.8330 C   0  0  0  0  0  3  0  0  0  0  0  0
  193.8080  175.7060  144.9190 N   0  0  0  0  0  0  0  0  0  0  0  0
  195.1930  175.5030  145.2240 C   0  0  0  0  0  0  0  0  0  0  0  0
  195.5600  175.2620  146.4060 O   0  0  0  0  0  0  0  0  0  0  0  0
  196.1760  175.5720  144.1920 N   0  0  0  0  0  2  0  0  0  0  0  0
  196.0420  174.3460  140.9650 C   0  0  1  0  0  3  0  0  0  0  0  0
  195.2200  174.5950  142.1920 C   0  0  0  0  0  2  0  0  0  0  0  0
  197.3010  175.1360  141.2140 C   0  0  2  0  0  3  0  0  0  0  0  0
  197.0040  176.1960  142.0860 O   0  0  0  0  0  0  0  0  0  0  0  0
  195.8430  175.8340  142.8000 C   0  0  2  0  0  3  0  0  0  0  0  0
  197.8090  175.6670  139.9580 N   0  0  0  0  0  1  0  0  0  0  0  0
  197.1290  172.3540  139.5000 O   0  0  0  0  0  0  0  0  0  0  0  0
  196.3980  172.6000  140.7970 S   0  0  0  0  0  0  0  0  0  0  0  0
  197.2800  172.1690  141.9430 O   0  0  0  0  0  0  0  0  0  0  0  0
  193.9390  172.1520  139.7480 C   0  0  0  0  0  1  0  0  0  0  0  0
  194.8900  171.6410  140.8190 C   0  0  0  0  0  2  0  0  0  0  0  0
  186.8320  175.9750  143.4570 C   0  0  0  0  0  2  0  0  0  0  0  0
  187.8510  176.1570  142.3350 C   0  0  0  0  0  2  0  0  0  0  0  0
  189.8210  175.0580  142.1240 O   0  0  0  0  0  0  0  0  0  0  0  0
  189.4160  173.8860  140.1090 C   0  0  0  0  0  2  0  0  0  0  0  0
  190.4180  174.1910  141.1890 C   0  0  2  0  0  3  0  0  0  0  0  0
  188.2060  174.6030  140.6070 C   0  0  0  0  0  2  0  0  0  0  0  0
  188.4750  174.8820  142.0060 N   0  0  0  0  0  0  0  0  0  0  0  0
  192.3490  171.7860  143.4230 C   0  0  0  0  0  0  0  0  0  0  0  0
  191.8040  170.5570  143.0320 C   0  0  0  0  0  3  0  0  0  0  0  0
  191.8990  172.9690  142.8320 C   0  0  0  0  0  3  0  0  0  0  0  0
  190.8060  170.5150  142.0540 C   0  0  0  0  0  3  0  0  0  0  0  0
  190.3560  171.7020  141.4630 C   0  0  0  0  0  3  0  0  0  0  0  0
  190.9010  172.9310  141.8490 C   0  0  0  0  0  0  0  0  0  0  0  0
  195.5330  171.0820  145.7580 C   0  0  1  0  0  3  0  0  0  0  0  0
  194.7860  172.0320  144.7970 C   0  0  2  0  0  0  0  0  0  0  0  0
  195.2690  170.6170  144.4080 C   0  0  0  0  0  2  0  0  0  0  0  0
  193.8160  172.3120  145.6400 O   0  0  0  0  0  0  0  0  0  0  0  0
  196.8630  171.4970  145.8620 O   0  0  0  0  0  1  0  0  0  0  0  0
  193.3500  171.8410  144.4350 N   0  0  0  0  0  0  0  0  0  0  0  0
  187.0850  178.1070  144.6290 N   0  0  0  0  0  2  0  0  0  0  0  0
  186.2130  178.4830  145.7330 C   0  0  0  0  0  2  0  0  0  0  0  0
  184.9960  179.1510  145.1930 C   0  0  0  0  0  0  0  0  0  0  0  0
  185.1210  180.2050  144.2420 N   0  0  0  0  0  1  0  0  0  0  0  0
  183.8580  178.8130  145.6110 O   0  0  0  0  0  0  0  0  0  0  0  0
  1 24  1  6  0  0  0
  1  6  1  0  0  0  0
  2  7  1  0  0  0  0
  2  8  1  0  0  0  0
  3  5  1  0  0  0  0
  3  6  2  0  0  0  0
  4  7  2  0  0  0  0
  5  2  2  0  0  0  0
  6  4  1  0  0  0  0
  9 10  1  0  0  0  0
  9  8  2  0  0  0  0
 10 11  2  0  0  0  0
 12 10  1  0  0  0  0
 13 20  1  1  0  0  0
 13 15  1  0  0  0  0
 13 14  1  0  0  0  0
 14 17  1  0  0  0  0
 15 18  1  6  0  0  0
 15 16  1  0  0  0  0
 16 17  1  0  0  0  0
 17 12  1  1  0  0  0
 19 20  2  0  0  0  0
 20 23  1  0  0  0  0
 20 21  2  0  0  0  0
 22 23  1  0  0  0  0
 25 24  1  0  0  0  0
 27 29  1  0  0  0  0
 27 28  1  0  0  0  0
 28 36  1  1  0  0  0
 28 26  1  0  0  0  0
 29 30  1  0  0  0  0
 30 26  1  0  0  0  0
 30 25  1  0  0  0  0
 31 42  1  0  0  0  0
 32 31  1  0  0  0  0
 33 31  2  0  0  0  0
 34 32  2  0  0  0  0
 35 36  2  0  0  0  0
 35 34  1  0  0  0  0
 36 33  1  0  0  0  0
 37 41  1  6  0  0  0
 38 39  1  6  0  0  0
 38 40  1  0  0  0  0
 38 37  1  0  0  0  0
 39 37  1  0  0  0  0
 42 38  1  0  0  0  0
 42 40  1  0  0  0  0
 43  1  1  0  0  0  0
 43 44  1  0  0  0  0
 45 47  2  0  0  0  0
 45 44  1  0  0  0  0
 46 45  1  0  0  0  0
M  END
>  <MODEL>
6

>  <REMARK>
 VINA RESULT:      -6.2      2.580      4.413
  Name = 
  14 active torsions:
  status: ('A' for Active; 'I' for Inactive)
    1  A    between atoms: C_1  and  C_15
    2  A    between atoms: C_1  and  C_45
    3  A    between atoms: C_4  and  C_5
    4  A    between atoms: C_6  and  S_17
    5  A    between atoms: C_7  and  C_13
    6  A    between atoms: C_7  and  N_30
    7  A    between atoms: C_14  and  N_36
    8  A    between atoms: C_15  and  N_32
    9  A    between atoms: S_17  and  C_42
   10  A    between atoms: C_20  and  C_45
   11  A    between atoms: C_22  and  C_44
   12  A    between atoms: C_27  and  N_41
   13  A    between atoms: N_30  and  C_45
   14  A    between atoms: N_35  and  C_38
                            x       y       z     vdW  Elec       q    Type
                         _______ _______ _______ _____ _____    ______ ____

>  <TORSDO>
F 14

$$$$
=
 OpenBabel11042415353D

 47 52  0  0  1  0  0  0  0  0999 V2000
  187.7320  177.3130  143.0810 C   0  0  2  0  0  3  0  0  0  0  0  0
  189.2760  173.5350  141.7060 C   0  0  0  0  0  0  0  0  0  0  0  0
  189.6070  175.8800  142.2530 C   0  0  0  0  0  3  0  0  0  0  0  0
  187.4110  174.8770  142.4810 C   0  0  0  0  0  3  0  0  0  0  0  0
  190.1180  174.6560  141.8120 C   0  0  0  0  0  3  0  0  0  0  0  0
  188.2540  175.9950  142.5940 C   0  0  0  0  0  0  0  0  0  0  0  0
  187.9250  173.6520  142.0450 C   0  0  0  0  0  3  0  0  0  0  0  0
  189.7950  172.2260  141.2930 C   0  0  0  0  0  3  0  0  0  0  0  0
  190.8250  171.6920  141.8680 N   0  0  0  0  0  0  0  0  0  0  0  0
  191.3230  170.4010  141.4990 C   0  0  0  0  0  0  0  0  0  0  0  0
  191.0460  169.9050  140.3730 O   0  0  0  0  0  0  0  0  0  0  0  0
  192.1380  169.6570  142.4030 N   0  0  0  0  0  2  0  0  0  0  0  0
  194.7000  170.6420  144.5000 C   0  0  1  0  0  3  0  0  0  0  0  0
  193.6450  171.1530  143.5690 C   0  0  0  0  0  2  0  0  0  0  0  0
  194.3060  169.2060  144.7310 C   0  0  2  0  0  3  0  0  0  0  0  0
  192.9200  169.0820  144.5410 O   0  0  0  0  0  0  0  0  0  0  0  0
  192.5170  170.1540  143.7170 C   0  0  2  0  0  3  0  0  0  0  0  0
  194.6470  168.8120  146.0900 N   0  0  0  0  0  1  0  0  0  0  0  0
  196.7470  169.3850  143.2650 O   0  0  0  0  0  0  0  0  0  0  0  0
  196.3140  170.7520  143.7330 S   0  0  0  0  0  0  0  0  0  0  0  0
  196.2260  171.6710  142.5400 O   0  0  0  0  0  0  0  0  0  0  0  0
  196.8170  171.9200  146.1270 C   0  0  0  0  0  1  0  0  0  0  0  0
  197.5200  171.3930  144.8860 C   0  0  0  0  0  2  0  0  0  0  0  0
  188.7250  177.9970  144.0220 C   0  0  0  0  0  2  0  0  0  0  0  0
  188.8040  177.2510  145.3520 C   0  0  0  0  0  2  0  0  0  0  0  0
  190.3970  175.6420  145.4210 O   0  0  0  0  0  0  0  0  0  0  0  0
  191.3540  176.1110  147.5330 C   0  0  0  0  0  2  0  0  0  0  0  0
  191.3680  175.1970  146.3380 C   0  0  2  0  0  3  0  0  0  0  0  0
  190.3460  177.1310  147.1220 C   0  0  0  0  0  2  0  0  0  0  0  0
  190.1920  176.9620  145.6890 N   0  0  0  0  0  0  0  0  0  0  0  0
  194.1580  174.8620  143.7670 C   0  0  0  0  0  0  0  0  0  0  0  0
  195.2890  175.0430  144.5710 C   0  0  0  0  0  3  0  0  0  0  0  0
  192.8820  174.9160  144.3340 C   0  0  0  0  0  3  0  0  0  0  0  0
  195.1420  175.2830  145.9400 C   0  0  0  0  0  3  0  0  0  0  0  0
  193.8630  175.3370  146.5080 C   0  0  0  0  0  3  0  0  0  0  0  0
  192.7310  175.1540  145.7080 C   0  0  0  0  0  0  0  0  0  0  0  0
  194.6640  175.2940  139.8130 C   0  0  1  0  0  3  0  0  0  0  0  0
  195.1560  174.6950  141.1480 C   0  0  2  0  0  0  0  0  0  0  0  0
  195.0110  176.2100  140.8840 C   0  0  0  0  0  2  0  0  0  0  0  0
  194.1700  173.8330  141.2600 O   0  0  0  0  0  0  0  0  0  0  0  0
  195.7060  175.2410  138.8820 O   0  0  0  0  0  1  0  0  0  0  0  0
  194.2960  174.6390  142.3670 N   0  0  0  0  0  0  0  0  0  0  0  0
  186.4590  177.1180  143.7580 N   0  0  0  0  0  2  0  0  0  0  0  0
  185.6520  178.3010  143.4960 C   0  0  0  0  0  2  0  0  0  0  0  0
  184.9580  178.7120  144.7480 C   0  0  0  0  0  0  0  0  0  0  0  0
  185.7110  178.9710  145.9300 N   0  0  0  0  0  1  0  0  0  0  0  0
  183.7030  178.7870  144.7740 O   0  0  0  0  0  0  0  0  0  0  0  0
  1 43  1  0  0  0  0
  1 24  1  1  0  0  0
  2  5  2  0  0  0  0
  2  7  1  0  0  0  0
  3  6  2  0  0  0  0
  4  6  1  0  0  0  0
  5  3  1  0  0  0  0
  6  1  1  0  0  0  0
  7  4  2  0  0  0  0
  8  2  1  0  0  0  0
  8  9  2  0  0  0  0
 10  9  1  0  0  0  0
 10 12  1  0  0  0  0
 11 10  2  0  0  0  0
 13 20  1  6  0  0  0
 13 15  1  0  0  0  0
 14 17  1  0  0  0  0
 14 13  1  0  0  0  0
 15 18  1  1  0  0  0
 16 15  1  0  0  0  0
 17 12  1  6  0  0  0
 17 16  1  0  0  0  0
 19 20  2  0  0  0  0
 20 23  1  0  0  0  0
 21 20  2  0  0  0  0
 23 22  1  0  0  0  0
 24 25  1  0  0  0  0
 25 30  1  0  0  0  0
 26 30  1  0  0  0  0
 26 28  1  0  0  0  0
 28 36  1  6  0  0  0
 28 27  1  0  0  0  0
 29 27  1  0  0  0  0
 30 29  1  0  0  0  0
 31 33  2  0  0  0  0
 31 32  1  0  0  0  0
 32 34  2  0  0  0  0
 33 36  1  0  0  0  0
 34 35  1  0  0  0  0
 36 35  2  0  0  0  0
 37 41  1  6  0  0  0
 37 39  1  0  0  0  0
 37 38  1  0  0  0  0
 38 39  1  1  0  0  0
 38 40  1  0  0  0  0
 38 42  1  0  0  0  0
 40 42  1  0  0  0  0
 42 31  1  0  0  0  0
 44 43  1  0  0  0  0
 44 45  1  0  0  0  0
 45 47  2  0  0  0  0
 45 46  1  0  0  0  0
M  END
>  <MODEL>
7

>  <REMARK>
 VINA RESULT:      -6.2      2.627      4.221
  Name = 
  14 active torsions:
  status: ('A' for Active; 'I' for Inactive)
    1  A    between atoms: C_1  and  C_15
    2  A    between atoms: C_1  and  C_45
    3  A    between atoms: C_4  and  C_5
    4  A    between atoms: C_6  and  S_17
    5  A    between atoms: C_7  and  C_13
    6  A    between atoms: C_7  and  N_30
    7  A    between atoms: C_14  and  N_36
    8  A    between atoms: C_15  and  N_32
    9  A    between atoms: S_17  and  C_42
   10  A    between atoms: C_20  and  C_45
   11  A    between atoms: C_22  and  C_44
   12  A    between atoms: C_27  and  N_41
   13  A    between atoms: N_30  and  C_45
   14  A    between atoms: N_35  and  C_38
                            x       y       z     vdW  Elec       q    Type
                         _______ _______ _______ _____ _____    ______ ____

>  <TORSDO>
F 14

$$$$
=
 OpenBabel11042415353D

 47 52  0  0  1  0  0  0  0  0999 V2000
  186.9720  178.2370  144.9010 C   0  0  2  0  0  3  0  0  0  0  0  0
  187.8610  175.9260  141.3780 C   0  0  0  0  0  0  0  0  0  0  0  0
  187.6020  178.0740  142.4860 C   0  0  0  0  0  3  0  0  0  0  0  0
  187.2240  176.0180  143.7150 C   0  0  0  0  0  3  0  0  0  0  0  0
  187.8980  177.3320  141.3400 C   0  0  0  0  0  3  0  0  0  0  0  0
  187.2690  177.4210  143.6800 C   0  0  0  0  0  0  0  0  0  0  0  0
  187.5270  175.2760  142.5690 C   0  0  0  0  0  3  0  0  0  0  0  0
  188.2150  175.1220  140.2030 C   0  0  0  0  0  3  0  0  0  0  0  0
  188.4010  173.8430  140.2860 N   0  0  0  0  0  0  0  0  0  0  0  0
  188.7120  173.0390  139.1420 C   0  0  0  0  0  0  0  0  0  0  0  0
  187.9560  173.0410  138.1330 O   0  0  0  0  0  0  0  0  0  0  0  0
  189.8840  172.2250  139.1310 N   0  0  0  0  0  2  0  0  0  0  0  0
  192.6790  170.7220  140.4950 C   0  0  1  0  0  3  0  0  0  0  0  0
  192.2140  171.9130  139.7160 C   0  0  0  0  0  2  0  0  0  0  0  0
  191.4020  170.1290  141.0340 C   0  0  2  0  0  3  0  0  0  0  0  0
  190.4410  171.1470  141.1400 O   0  0  0  0  0  0  0  0  0  0  0  0
  190.8180  172.1690  140.2440 C   0  0  2  0  0  3  0  0  0  0  0  0
  191.6420  169.5480  142.3470 N   0  0  0  0  0  1  0  0  0  0  0  0
  194.1910  170.3150  138.2950 O   0  0  0  0  0  0  0  0  0  0  0  0
  193.5240  169.5650  139.4220 S   0  0  0  0  0  0  0  0  0  0  0  0
  194.5800  168.8410  140.2190 O   0  0  0  0  0  0  0  0  0  0  0  0
  191.7520  168.9270  137.4720 C   0  0  0  0  0  1  0  0  0  0  0  0
  192.3750  168.3760  138.7440 C   0  0  0  0  0  2  0  0  0  0  0  0
  186.6710  177.3480  146.1100 C   0  0  0  0  0  2  0  0  0  0  0  0
  187.7440  177.5200  147.1820 C   0  0  0  0  0  2  0  0  0  0  0  0
  188.9210  175.6050  146.9000 O   0  0  0  0  0  0  0  0  0  0  0  0
  191.0310  176.3050  147.7110 C   0  0  0  0  0  2  0  0  0  0  0  0
  190.2270  175.1540  147.1690 C   0  0  2  0  0  3  0  0  0  0  0  0
  190.0510  177.4270  147.6210 C   0  0  0  0  0  2  0  0  0  0  0  0
  189.0080  176.9550  146.7300 N   0  0  0  0  0  0  0  0  0  0  0  0
  192.7080  174.4830  144.3570 C   0  0  0  0  0  0  0  0  0  0  0  0
  192.0170  173.5210  143.6110 C   0  0  0  0  0  3  0  0  0  0  0  0
  192.1340  175.0130  145.5160 C   0  0  0  0  0  3  0  0  0  0  0  0
  190.7550  173.0880  144.0280 C   0  0  0  0  0  3  0  0  0  0  0  0
  190.1810  173.6190  145.1900 C   0  0  0  0  0  3  0  0  0  0  0  0
  190.8680  174.5820  145.9360 C   0  0  0  0  0  0  0  0  0  0  0  0
  195.8790  175.7690  142.2680 C   0  0  1  0  0  3  0  0  0  0  0  0
  194.8730  176.0020  143.4150 C   0  0  2  0  0  0  0  0  0  0  0  0
  194.4700  175.8510  141.9320 C   0  0  0  0  0  2  0  0  0  0  0  0
  195.3520  175.0500  144.1850 O   0  0  0  0  0  0  0  0  0  0  0  0
  196.5080  176.9800  141.9640 O   0  0  0  0  0  1  0  0  0  0  0  0
  194.0030  174.9150  143.9520 N   0  0  0  0  0  0  0  0  0  0  0  0
  185.8450  179.1200  144.6410 N   0  0  0  0  0  2  0  0  0  0  0  0
  184.6440  178.2980  144.6690 C   0  0  0  0  0  2  0  0  0  0  0  0
  183.8140  178.5970  143.4690 C   0  0  0  0  0  0  0  0  0  0  0  0
  184.1280  177.9960  142.2150 N   0  0  0  0  0  1  0  0  0  0  0  0
  182.8610  179.4140  143.5530 O   0  0  0  0  0  0  0  0  0  0  0  0
  1 24  1  1  0  0  0
  2  7  1  0  0  0  0
  3  6  2  0  0  0  0
  5  2  2  0  0  0  0
  5  3  1  0  0  0  0
  6  4  1  0  0  0  0
  6  1  1  0  0  0  0
  7  4  2  0  0  0  0
  8  9  2  0  0  0  0
  8  2  1  0  0  0  0
 10  9  1  0  0  0  0
 11 10  2  0  0  0  0
 12 10  1  0  0  0  0
 13 20  1  6  0  0  0
 13 15  1  0  0  0  0
 14 17  1  0  0  0  0
 14 13  1  0  0  0  0
 15 16  1  0  0  0  0
 15 18  1  1  0  0  0
 17 12  1  6  0  0  0
 17 16  1  0  0  0  0
 19 20  2  0  0  0  0
 20 21  2  0  0  0  0
 22 23  1  0  0  0  0
 23 20  1  0  0  0  0
 24 25  1  0  0  0  0
 26 28  1  0  0  0  0
 28 36  1  6  0  0  0
 28 27  1  0  0  0  0
 29 27  1  0  0  0  0
 30 26  1  0  0  0  0
 30 25  1  0  0  0  0
 30 29  1  0  0  0  0
 31 33  1  0  0  0  0
 32 34  1  0  0  0  0
 32 31  2  0  0  0  0
 33 36  2  0  0  0  0
 34 35  2  0  0  0  0
 35 36  1  0  0  0  0
 37 41  1  6  0  0  0
 37 38  1  0  0  0  0
 38 39  1  1  0  0  0
 38 42  1  0  0  0  0
 38 40  1  0  0  0  0
 39 37  1  0  0  0  0
 42 40  1  0  0  0  0
 42 31  1  0  0  0  0
 43 44  1  0  0  0  0
 43  1  1  0  0  0  0
 45 47  2  0  0  0  0
 45 44  1  0  0  0  0
 46 45  1  0  0  0  0
M  END
>  <MODEL>
8

>  <REMARK>
 VINA RESULT:      -6.1      2.414      3.058
  Name = 
  14 active torsions:
  status: ('A' for Active; 'I' for Inactive)
    1  A    between atoms: C_1  and  C_15
    2  A    between atoms: C_1  and  C_45
    3  A    between atoms: C_4  and  C_5
    4  A    between atoms: C_6  and  S_17
    5  A    between atoms: C_7  and  C_13
    6  A    between atoms: C_7  and  N_30
    7  A    between atoms: C_14  and  N_36
    8  A    between atoms: C_15  and  N_32
    9  A    between atoms: S_17  and  C_42
   10  A    between atoms: C_20  and  C_45
   11  A    between atoms: C_22  and  C_44
   12  A    between atoms: C_27  and  N_41
   13  A    between atoms: N_30  and  C_45
   14  A    between atoms: N_35  and  C_38
                            x       y       z     vdW  Elec       q    Type
                         _______ _______ _______ _____ _____    ______ ____

>  <TORSDO>
F 14

$$$$
=
 OpenBabel11042415353D

 47 52  0  0  1  0  0  0  0  0999 V2000
  187.8560  176.9790  144.3950 C   0  0  2  0  0  3  0  0  0  0  0  0
  189.7810  174.1760  141.7510 C   0  0  0  0  0  0  0  0  0  0  0  0
  187.7980  175.3870  142.4670 C   0  0  0  0  0  3  0  0  0  0  0  0
  189.8970  175.6870  143.6430 C   0  0  0  0  0  3  0  0  0  0  0  0
  188.4160  174.4810  141.6000 C   0  0  0  0  0  3  0  0  0  0  0  0
  188.5360  175.9980  143.4880 C   0  0  0  0  0  0  0  0  0  0  0  0
  190.5150  174.7850  142.7720 C   0  0  0  0  0  3  0  0  0  0  0  0
  190.4660  173.2670  140.8260 C   0  0  0  0  0  3  0  0  0  0  0  0
  190.6350  173.5670  139.5780 N   0  0  0  0  0  0  0  0  0  0  0  0
  191.3320  172.7050  138.6710 C   0  0  0  0  0  0  0  0  0  0  0  0
  190.9070  171.5410  138.4390 O   0  0  0  0  0  0  0  0  0  0  0  0
  192.5200  173.1530  138.0200 N   0  0  0  0  0  2  0  0  0  0  0  0
  195.1720  175.2960  137.4650 C   0  0  1  0  0  3  0  0  0  0  0  0
  193.8130  174.9100  136.9670 C   0  0  0  0  0  2  0  0  0  0  0  0
  195.2550  174.6370  138.8180 C   0  0  2  0  0  3  0  0  0  0  0  0
  193.9550  174.4770  139.3240 O   0  0  0  0  0  0  0  0  0  0  0  0
  193.0770  174.4820  138.2190 C   0  0  2  0  0  3  0  0  0  0  0  0
  196.0310  175.4690  139.7270 N   0  0  0  0  0  1  0  0  0  0  0  0
  197.3690  173.7620  137.1280 O   0  0  0  0  0  0  0  0  0  0  0  0
  196.4390  174.6730  136.3650 S   0  0  0  0  0  0  0  0  0  0  0  0
  195.7820  173.8850  135.2600 O   0  0  0  0  0  0  0  0  0  0  0  0
  196.4390  177.1420  135.2460 C   0  0  0  0  0  1  0  0  0  0  0  0
  197.3780  176.0180  135.6550 C   0  0  0  0  0  2  0  0  0  0  0  0
  187.6990  176.4200  145.8100 C   0  0  0  0  0  2  0  0  0  0  0  0
  188.3110  177.3720  146.8340 C   0  0  0  0  0  2  0  0  0  0  0  0
  190.0030  175.8900  147.1060 O   0  0  0  0  0  0  0  0  0  0  0  0
  191.4190  177.1490  148.5220 C   0  0  0  0  0  2  0  0  0  0  0  0
  191.2090  175.8300  147.8300 C   0  0  2  0  0  3  0  0  0  0  0  0
  190.2560  177.9400  148.0260 C   0  0  0  0  0  2  0  0  0  0  0  0
  189.7590  177.2100  146.8740 N   0  0  0  0  0  0  0  0  0  0  0  0
  193.4640  174.0320  145.3420 C   0  0  0  0  0  0  0  0  0  0  0  0
  194.5570  174.9050  145.2880 C   0  0  0  0  0  3  0  0  0  0  0  0
  192.3720  174.3300  146.1610 C   0  0  0  0  0  3  0  0  0  0  0  0
  194.5530  176.0770  146.0500 C   0  0  0  0  0  3  0  0  0  0  0  0
  193.4590  176.3740  146.8710 C   0  0  0  0  0  3  0  0  0  0  0  0
  192.3660  175.5030  146.9290 C   0  0  0  0  0  0  0  0  0  0  0  0
  192.4680  170.5730  143.5760 C   0  0  1  0  0  3  0  0  0  0  0  0
  192.8310  172.0670  143.4390 C   0  0  2  0  0  0  0  0  0  0  0  0
  191.6110  171.5450  144.2290 C   0  0  0  0  0  2  0  0  0  0  0  0
  194.0930  171.9120  143.7770 O   0  0  0  0  0  0  0  0  0  0  0  0
  191.8720  170.1400  142.3880 O   0  0  0  0  0  1  0  0  0  0  0  0
  193.4490  172.8480  144.5520 N   0  0  0  0  0  0  0  0  0  0  0  0
  186.5540  177.3310  143.8510 N   0  0  0  0  0  2  0  0  0  0  0  0
  186.0920  178.5050  144.5770 C   0  0  0  0  0  2  0  0  0  0  0  0
  184.6170  178.6340  144.4200 C   0  0  0  0  0  0  0  0  0  0  0  0
  184.0030  178.3420  143.1670 N   0  0  0  0  0  1  0  0  0  0  0  0
  183.9170  179.0430  145.3820 O   0  0  0  0  0  0  0  0  0  0  0  0
  1 24  1  1  0  0  0
  2  7  1  0  0  0  0
  3  6  2  0  0  0  0
  5  2  2  0  0  0  0
  5  3  1  0  0  0  0
  6  4  1  0  0  0  0
  6  1  1  0  0  0  0
  7  4  2  0  0  0  0
  8  2  1  0  0  0  0
  9  8  2  0  0  0  0
 10  9  1  0  0  0  0
 11 10  2  0  0  0  0
 12 10  1  0  0  0  0
 13 20  1  6  0  0  0
 13 15  1  0  0  0  0
 14 13  1  0  0  0  0
 14 17  1  0  0  0  0
 15 16  1  0  0  0  0
 15 18  1  1  0  0  0
 17 12  1  6  0  0  0
 17 16  1  0  0  0  0
 20 19  2  0  0  0  0
 21 20  2  0  0  0  0
 22 23  1  0  0  0  0
 23 20  1  0  0  0  0
 24 25  1  0  0  0  0
 25 30  1  0  0  0  0
 26 28  1  0  0  0  0
 28 36  1  6  0  0  0
 28 27  1  0  0  0  0
 29 27  1  0  0  0  0
 30 26  1  0  0  0  0
 30 29  1  0  0  0  0
 31 33  1  0  0  0  0
 32 31  2  0  0  0  0
 32 34  1  0  0  0  0
 33 36  2  0  0  0  0
 34 35  2  0  0  0  0
 35 36  1  0  0  0  0
 37 41  1  6  0  0  0
 37 39  1  0  0  0  0
 38 37  1  0  0  0  0
 38 40  1  0  0  0  0
 38 39  1  6  0  0  0
 38 42  1  0  0  0  0
 40 42  1  0  0  0  0
 42 31  1  0  0  0  0
 43  1  1  0  0  0  0
 43 44  1  0  0  0  0
 45 44  1  0  0  0  0
 45 47  2  0  0  0  0
 46 45  1  0  0  0  0
M  END
>  <MODEL>
9

>  <REMARK>
 VINA RESULT:      -6.1      1.970      2.919
  Name = 
  14 active torsions:
  status: ('A' for Active; 'I' for Inactive)
    1  A    between atoms: C_1  and  C_15
    2  A    between atoms: C_1  and  C_45
    3  A    between atoms: C_4  and  C_5
    4  A    between atoms: C_6  and  S_17
    5  A    between atoms: C_7  and  C_13
    6  A    between atoms: C_7  and  N_30
    7  A    between atoms: C_14  and  N_36
    8  A    between atoms: C_15  and  N_32
    9  A    between atoms: S_17  and  C_42
   10  A    between atoms: C_20  and  C_45
   11  A    between atoms: C_22  and  C_44
   12  A    between atoms: C_27  and  N_41
   13  A    between atoms: N_30  and  C_45
   14  A    between atoms: N_35  and  C_38
                            x       y       z     vdW  Elec       q    Type
                         _______ _______ _______ _____ _____    ______ ____

>  <TORSDO>
F 14

$$$$
