=
 OpenBabel11042416033D

 58 69  0  0  1  0  0  0  0  0999 V2000
  192.2750  175.7570  145.8520 C   0  0  0  0  0  3  0  0  0  0  0  0
  191.4120  173.2180  139.7530 C   0  0  0  0  0  2  0  0  0  0  0  0
  190.3240  173.8330  141.7730 C   0  0  0  0  0  2  0  0  0  0  0  0
  192.0260  171.4940  141.9540 O   0  0  0  0  0  0  0  0  0  0  0  0
  186.7470  178.4690  147.9500 O   0  0  0  0  0  0  0  0  0  0  0  0
  189.8860  175.9420  145.4280 C   0  0  0  0  0  0  0  0  0  0  0  0
  191.2770  174.5530  143.9970 C   0  0  0  0  0  0  0  0  0  0  0  0
  191.8010  172.2340  143.1360 C   0  0  1  0  0  3  0  0  0  0  0  0
  192.9760  171.9790  144.0660 C   0  0  2  0  0  3  0  0  0  0  0  0
  190.7880  171.3720  141.2900 C   0  0  2  0  0  3  0  0  0  0  0  0
  190.0190  175.0780  144.3370 C   0  0  0  0  0  3  0  0  0  0  0  0
  195.1630  172.4800  145.1290 C   0  0  0  0  0  2  0  0  0  0  0  0
  193.8600  172.9090  144.5190 C   0  0  2  0  0  3  0  0  0  0  0  0
  186.3130  177.0530  146.0030 C   0  0  2  0  0  3  0  0  0  0  0  0
  189.6620  177.7170  147.6170 C   0  0  0  0  0  3  0  0  0  0  0  0
  192.3920  174.8660  144.7780 C   0  0  0  0  0  0  0  0  0  0  0  0
  194.3290  169.9680  143.4950 C   0  0  0  0  0  2  0  0  0  0  0  0
  187.1740  177.7260  147.0270 C   0  0  0  0  0  0  0  0  0  0  0  0
  190.8990  170.8100  139.9250 N   0  0  0  0  0  0  0  0  0  0  0  0
  196.0330  171.7570  144.1090 C   0  0  0  0  0  2  0  0  0  0  0  0
  188.5510  177.3460  146.8550 C   0  0  0  0  0  0  0  0  0  0  0  0
  195.7130  170.2640  144.0800 C   0  0  2  0  0  3  0  0  0  0  0  0
  187.3150  176.2260  145.1620 C   0  0  0  0  0  2  0  0  0  0  0  0
  190.3740  172.7090  140.7530 C   0  0  2  0  0  0  0  0  0  0  0  0
  188.6480  176.4830  145.7920 C   0  0  0  0  0  0  0  0  0  0  0  0
  193.6330  174.2910  144.5050 O   0  0  0  0  0  0  0  0  0  0  0  0
  190.9130  177.1850  147.2700 C   0  0  0  0  0  3  0  0  0  0  0  0
  191.0330  176.3020  146.1820 C   0  0  0  0  0  0  0  0  0  0  0  0
  190.4870  172.1120  139.3600 C   0  0  1  0  0  3  0  0  0  0  0  0
  193.2140  170.5250  144.3690 C   0  0  0  0  0  2  0  0  0  0  0  0
  191.4900  173.7080  142.7800 C   0  0  1  0  0  3  0  0  0  0  0  0
  196.8100  169.4940  143.3380 C   0  0  1  0  0  3  0  0  0  0  0  0
  196.8510  168.1660  143.7700 O   0  0  0  0  0  1  0  0  0  0  0  0
  196.0510  169.0330  137.5210 N   0  0  0  0  0  0  0  0  0  0  0  0
  196.6270  170.2760  137.4830 C   0  0  0  0  0  3  0  0  0  0  0  0
  197.1030  170.6100  141.1030 N   0  0  0  0  0  0  0  0  0  0  0  0
  196.8120  170.2210  139.8550 C   0  0  0  0  0  0  0  0  0  0  0  0
  197.0320  170.9130  138.6710 C   0  0  0  0  0  3  0  0  0  0  0  0
  196.2430  168.9900  139.8710 C   0  0  0  0  0  0  0  0  0  0  0  0
  195.8460  168.3650  138.6950 C   0  0  0  0  0  3  0  0  0  0  0  0
  196.1430  168.5320  141.1250 N   0  0  0  0  0  2  0  0  0  0  0  0
  196.6770  169.5540  141.8460 C   0  0  0  0  0  0  0  0  0  0  0  0
  192.2770  170.4990  139.5290 C   0  0  0  0  0  2  0  0  0  0  0  0
  192.9350  170.6070  137.1200 C   0  0  0  0  0  3  0  0  0  0  0  0
  191.6680  168.1670  136.6120 C   0  0  0  0  0  3  0  0  0  0  0  0
  192.9360  170.0770  135.8270 C   0  0  0  0  0  3  0  0  0  0  0  0
  192.2980  169.9200  138.1600 C   0  0  0  0  0  0  0  0  0  0  0  0
  191.6630  168.6990  137.9030 C   0  0  0  0  0  3  0  0  0  0  0  0
  192.3030  168.8570  135.5720 C   0  0  0  0  0  3  0  0  0  0  0  0
  185.5850  178.0760  145.1170 C   0  0  1  0  0  3  0  0  0  0  0  0
  185.0330  179.1500  145.8550 O   0  0  0  0  0  0  0  0  0  0  0  0
  183.6910  178.8560  146.1620 C   0  0  0  0  0  1  0  0  0  0  0  0
  186.4430  178.5490  144.0300 N   0  0  0  0  0  2  0  0  0  0  0  0
  184.8310  177.5380  142.7200 C   0  0  0  0  0  2  0  0  0  0  0  0
  185.6200  178.7730  142.9130 N   0  0  0  0  0  0  0  0  0  0  0  0
  185.5710  178.3100  140.4580 C   0  0  0  0  0  1  0  0  0  0  0  0
  187.1740  176.9240  142.0120 C   0  0  0  0  0  1  0  0  0  0  0  0
  185.9480  177.8120  141.8360 C   0  0  0  0  0  0  0  0  0  0  0  0
  1 28  1  0  0  0  0
  6 25  2  0  0  0  0
  6 28  1  0  0  0  0
  7 11  2  0  0  0  0
  7 16  1  0  0  0  0
  8  4  1  6  0  0  0
  8  9  1  0  0  0  0
  9 30  1  6  0  0  0
  9 13  1  0  0  0  0
 10  4  1  6  0  0  0
 11  6  1  0  0  0  0
 13 12  1  1  0  0  0
 14 50  1  6  0  0  0
 14 18  1  0  0  0  0
 16  1  2  0  0  0  0
 17 22  1  0  0  0  0
 17 30  1  0  0  0  0
 18  5  2  0  0  0  0
 19 10  1  0  0  0  0
 20 12  1  0  0  0  0
 21 18  1  0  0  0  0
 21 15  2  0  0  0  0
 22 32  1  6  0  0  0
 22 20  1  0  0  0  0
 23 25  1  0  0  0  0
 23 14  1  0  0  0  0
 24  2  1  6  0  0  0
 24 10  1  0  0  0  0
 24  3  1  0  0  0  0
 25 21  1  0  0  0  0
 26 13  1  0  0  0  0
 26 16  1  0  0  0  0
 27 15  1  0  0  0  0
 28 27  2  0  0  0  0
 29  2  1  6  0  0  0
 29 19  1  0  0  0  0
 29 24  1  0  0  0  0
 31  3  1  6  0  0  0
 31  8  1  0  0  0  0
 31  7  1  0  0  0  0
 32 33  1  1  0  0  0
 34 40  1  0  0  0  0
 35 34  2  0  0  0  0
 35 38  1  0  0  0  0
 36 42  2  0  0  0  0
 37 39  1  0  0  0  0
 37 36  1  0  0  0  0
 38 37  2  0  0  0  0
 39 41  1  0  0  0  0
 40 39  2  0  0  0  0
 41 42  1  0  0  0  0
 42 32  1  0  0  0  0
 43 19  1  0  0  0  0
 44 47  1  0  0  0  0
 45 48  1  0  0  0  0
 46 44  2  0  0  0  0
 47 43  1  0  0  0  0
 48 47  2  0  0  0  0
 49 46  1  0  0  0  0
 49 45  2  0  0  0  0
 50 53  1  6  0  0  0
 50 51  1  0  0  0  0
 51 52  1  0  0  0  0
 54 55  1  0  0  0  0
 55 53  1  0  0  0  0
 56 58  1  0  0  0  0
 58 57  1  0  0  0  0
 58 54  1  0  0  0  0
 58 55  1  0  0  0  0
M  END
>  <MODEL>
1

>  <REMARK>
 VINA RESULT:      -8.0      0.000      0.000
  Name = 
  8 active torsions:
  status: ('A' for Active; 'I' for Inactive)
    1  A    between atoms: C_5  and  N_34
    2  A    between atoms: C_5  and  C_36
    3  A    between atoms: O_8  and  C_37
    4  A    between atoms: C_21  and  C_40
    5  A    between atoms: C_21  and  C_58
    6  A    between atoms: N_26  and  N_54
    7  A    between atoms: C_27  and  C_37
    8  A    between atoms: C_37  and  N_54
                            x       y       z     vdW  Elec       q    Type
                         _______ _______ _______ _____ _____    ______ ____

>  <TORSDO>
F 8

$$$$
=
 OpenBabel11042416033D

 58 69  0  0  1  0  0  0  0  0999 V2000
  190.7290  175.9880  145.3260 C   0  0  0  0  0  3  0  0  0  0  0  0
  192.0400  173.4720  139.2970 C   0  0  0  0  0  2  0  0  0  0  0  0
  190.3190  174.0300  140.8370 C   0  0  0  0  0  2  0  0  0  0  0  0
  191.9500  171.7520  141.5840 O   0  0  0  0  0  0  0  0  0  0  0  0
  184.7220  178.4800  145.4530 O   0  0  0  0  0  0  0  0  0  0  0  0
  188.6130  176.0900  144.1290 C   0  0  0  0  0  0  0  0  0  0  0  0
  190.4510  174.7650  143.2490 C   0  0  0  0  0  0  0  0  0  0  0  0
  191.3160  172.4730  142.6210 C   0  0  1  0  0  3  0  0  0  0  0  0
  192.1240  172.2530  143.8900 C   0  0  2  0  0  3  0  0  0  0  0  0
  191.0090  171.5920  140.5460 C   0  0  2  0  0  3  0  0  0  0  0  0
  189.1320  175.2410  143.1480 C   0  0  0  0  0  3  0  0  0  0  0  0
  193.8120  172.8240  145.6180 C   0  0  0  0  0  2  0  0  0  0  0  0
  192.7710  173.2100  144.6070 C   0  0  2  0  0  3  0  0  0  0  0  0
  185.0140  177.0660  143.4770 C   0  0  2  0  0  3  0  0  0  0  0  0
  187.6070  177.8380  146.1120 C   0  0  0  0  0  3  0  0  0  0  0  0
  191.2300  175.1120  144.3550 C   0  0  0  0  0  0  0  0  0  0  0  0
  193.6630  170.2980  143.8100 C   0  0  0  0  0  2  0  0  0  0  0  0
  185.4590  177.7610  144.7270 C   0  0  0  0  0  0  0  0  0  0  0  0
  191.5880  171.0460  139.2980 N   0  0  0  0  0  0  0  0  0  0  0  0
  194.9980  172.1420  144.9480 C   0  0  0  0  0  2  0  0  0  0  0  0
  186.8270  177.4330  145.0250 C   0  0  0  0  0  0  0  0  0  0  0  0
  194.7620  170.6390  144.8210 C   0  0  2  0  0  3  0  0  0  0  0  0
  186.2680  176.2840  143.0220 C   0  0  0  0  0  2  0  0  0  0  0  0
  190.7480  172.9180  139.8960 C   0  0  2  0  0  0  0  0  0  0  0  0
  187.3050  176.5830  144.0580 C   0  0  0  0  0  0  0  0  0  0  0  0
  192.5110  174.5840  144.5130 O   0  0  0  0  0  0  0  0  0  0  0  0
  188.9210  177.3540  146.2040 C   0  0  0  0  0  3  0  0  0  0  0  0
  189.4290  176.4850  145.2210 C   0  0  0  0  0  0  0  0  0  0  0  0
  191.3400  172.3370  138.6230 C   0  0  1  0  0  3  0  0  0  0  0  0
  192.3000  170.8060  144.2610 C   0  0  0  0  0  2  0  0  0  0  0  0
  191.0880  173.9390  142.1760 C   0  0  1  0  0  3  0  0  0  0  0  0
  196.0700  169.9150  144.4890 C   0  0  1  0  0  3  0  0  0  0  0  0
  196.0880  168.6470  145.0760 O   0  0  0  0  0  1  0  0  0  0  0  0
  197.2570  170.2480  138.7360 N   0  0  0  0  0  0  0  0  0  0  0  0
  196.8850  168.9290  138.7200 C   0  0  0  0  0  3  0  0  0  0  0  0
  196.1510  168.6740  142.3030 N   0  0  0  0  0  0  0  0  0  0  0  0
  196.4870  169.0520  141.0630 C   0  0  0  0  0  0  0  0  0  0  0  0
  196.4820  168.2850  139.9050 C   0  0  0  0  0  3  0  0  0  0  0  0
  196.8550  170.3580  141.0570 C   0  0  0  0  0  0  0  0  0  0  0  0
  197.2510  170.9880  139.8840 C   0  0  0  0  0  3  0  0  0  0  0  0
  196.7720  170.8770  142.2880 N   0  0  0  0  0  2  0  0  0  0  0  0
  196.3410  169.8150  143.0180 C   0  0  0  0  0  0  0  0  0  0  0  0
  193.0300  170.7880  139.3850 C   0  0  0  0  0  2  0  0  0  0  0  0
  193.3360  168.8210  137.8730 C   0  0  0  0  0  3  0  0  0  0  0  0
  194.6610  170.4100  135.9920 C   0  0  0  0  0  3  0  0  0  0  0  0
  193.8170  168.2480  136.6920 C   0  0  0  0  0  3  0  0  0  0  0  0
  193.5200  170.1870  138.1160 C   0  0  0  0  0  0  0  0  0  0  0  0
  194.1850  170.9800  137.1740 C   0  0  0  0  0  3  0  0  0  0  0  0
  194.4790  169.0420  135.7510 C   0  0  0  0  0  3  0  0  0  0  0  0
  184.5840  178.0700  142.3950 C   0  0  1  0  0  3  0  0  0  0  0  0
  184.7510  177.5680  141.0810 O   0  0  0  0  0  0  0  0  0  0  0  0
  185.9050  178.1400  140.5140 C   0  0  0  0  0  1  0  0  0  0  0  0
  183.2210  178.5510  142.6230 N   0  0  0  0  0  2  0  0  0  0  0  0
  182.0110  179.2190  140.7730 C   0  0  0  0  0  2  0  0  0  0  0  0
  182.4210  178.0520  141.5820 N   0  0  0  0  0  0  0  0  0  0  0  0
  180.0070  177.7410  141.0160 C   0  0  0  0  0  1  0  0  0  0  0  0
  180.6910  179.4240  142.9140 C   0  0  0  0  0  1  0  0  0  0  0  0
  181.0530  178.6110  141.6770 C   0  0  0  0  0  0  0  0  0  0  0  0
  6 28  1  0  0  0  0
  7 16  1  0  0  0  0
  8  4  1  6  0  0  0
  8  9  1  0  0  0  0
  9 30  1  6  0  0  0
  9 13  1  0  0  0  0
 10  4  1  1  0  0  0
 11  7  2  0  0  0  0
 11  6  1  0  0  0  0
 13 12  1  1  0  0  0
 14 50  1  6  0  0  0
 14 18  1  0  0  0  0
 15 27  1  0  0  0  0
 16 26  1  0  0  0  0
 16  1  2  0  0  0  0
 17 30  1  0  0  0  0
 17 22  1  0  0  0  0
 18 21  1  0  0  0  0
 18  5  2  0  0  0  0
 19 43  1  0  0  0  0
 19 10  1  0  0  0  0
 20 12  1  0  0  0  0
 21 15  2  0  0  0  0
 22 32  1  6  0  0  0
 22 20  1  0  0  0  0
 23 14  1  0  0  0  0
 23 25  1  0  0  0  0
 24  2  1  1  0  0  0
 24 10  1  0  0  0  0
 24  3  1  0  0  0  0
 25  6  2  0  0  0  0
 25 21  1  0  0  0  0
 26 13  1  0  0  0  0
 28  1  1  0  0  0  0
 28 27  2  0  0  0  0
 29  2  1  1  0  0  0
 29 19  1  0  0  0  0
 29 24  1  0  0  0  0
 31  3  1  6  0  0  0
 31  8  1  0  0  0  0
 31  7  1  0  0  0  0
 32 33  1  6  0  0  0
 34 40  1  0  0  0  0
 35 34  2  0  0  0  0
 35 38  1  0  0  0  0
 36 42  2  0  0  0  0
 37 36  1  0  0  0  0
 38 37  2  0  0  0  0
 39 37  1  0  0  0  0
 39 41  1  0  0  0  0
 40 39  2  0  0  0  0
 41 42  1  0  0  0  0
 42 32  1  0  0  0  0
 44 47  1  0  0  0  0
 45 48  1  0  0  0  0
 46 44  2  0  0  0  0
 47 43  1  0  0  0  0
 48 47  2  0  0  0  0
 49 45  2  0  0  0  0
 49 46  1  0  0  0  0
 50 51  1  6  0  0  0
 50 53  1  0  0  0  0
 52 51  1  0  0  0  0
 54 55  1  0  0  0  0
 54 58  1  0  0  0  0
 55 58  1  0  0  0  0
 55 53  1  0  0  0  0
 56 58  1  0  0  0  0
 58 57  1  0  0  0  0
M  END
>  <MODEL>
2

>  <REMARK>
 VINA RESULT:      -6.9      1.779      2.620
  Name = 
  8 active torsions:
  status: ('A' for Active; 'I' for Inactive)
    1  A    between atoms: C_5  and  N_34
    2  A    between atoms: C_5  and  C_36
    3  A    between atoms: O_8  and  C_37
    4  A    between atoms: C_21  and  C_40
    5  A    between atoms: C_21  and  C_58
    6  A    between atoms: N_26  and  N_54
    7  A    between atoms: C_27  and  C_37
    8  A    between atoms: C_37  and  N_54
                            x       y       z     vdW  Elec       q    Type
                         _______ _______ _______ _____ _____    ______ ____

>  <TORSDO>
F 8

$$$$
=
 OpenBabel11042416033D

 58 69  0  0  1  0  0  0  0  0999 V2000
  194.3430  171.7480  142.8070 C   0  0  0  0  0  3  0  0  0  0  0  0
  188.1240  173.9310  141.8320 C   0  0  0  0  0  2  0  0  0  0  0  0
  190.2700  173.6760  140.8460 C   0  0  0  0  0  2  0  0  0  0  0  0
  190.1040  175.6790  142.9340 O   0  0  0  0  0  0  0  0  0  0  0  0
  197.1020  170.2360  137.1130 O   0  0  0  0  0  0  0  0  0  0  0  0
  194.1240  171.9620  140.3930 C   0  0  0  0  0  0  0  0  0  0  0  0
  192.4690  172.9670  141.8630 C   0  0  0  0  0  0  0  0  0  0  0  0
  191.3630  175.0830  142.6950 C   0  0  1  0  0  3  0  0  0  0  0  0
  192.1720  175.1940  143.9780 C   0  0  2  0  0  3  0  0  0  0  0  0
  189.5300  175.9700  141.6800 C   0  0  2  0  0  3  0  0  0  0  0  0
  192.9520  172.7030  140.5700 C   0  0  0  0  0  3  0  0  0  0  0  0
  193.1020  174.3900  146.1350 C   0  0  0  0  0  2  0  0  0  0  0  0
  192.6370  174.1570  144.7270 C   0  0  2  0  0  3  0  0  0  0  0  0
  195.0730  171.5560  136.7510 C   0  0  2  0  0  3  0  0  0  0  0  0
  196.4760  170.4260  140.0700 C   0  0  0  0  0  3  0  0  0  0  0  0
  193.1860  172.5190  142.9750 C   0  0  0  0  0  0  0  0  0  0  0  0
  191.3170  176.8810  145.5970 C   0  0  0  0  0  2  0  0  0  0  0  0
  196.0840  170.8190  137.5740 C   0  0  0  0  0  0  0  0  0  0  0  0
  188.1160  176.3980  141.7580 N   0  0  0  0  0  0  0  0  0  0  0  0
  191.9560  174.8670  147.0180 C   0  0  0  0  0  2  0  0  0  0  0  0
  195.7720  170.9320  138.9730 C   0  0  0  0  0  0  0  0  0  0  0  0
  191.8160  176.3860  146.9580 C   0  0  2  0  0  3  0  0  0  0  0  0
  194.0860  172.1230  137.7970 C   0  0  0  0  0  2  0  0  0  0  0  0
  189.1510  174.6920  140.9930 C   0  0  2  0  0  0  0  0  0  0  0  0
  194.6310  171.6800  139.1190 C   0  0  0  0  0  0  0  0  0  0  0  0
  192.7660  172.8410  144.2660 O   0  0  0  0  0  0  0  0  0  0  0  0
  195.9860  170.6980  141.3570 C   0  0  0  0  0  3  0  0  0  0  0  0
  194.8160  171.4610  141.5250 C   0  0  0  0  0  0  0  0  0  0  0  0
  187.7050  175.1520  141.0780 C   0  0  1  0  0  3  0  0  0  0  0  0
  192.3220  176.6000  144.4890 C   0  0  0  0  0  2  0  0  0  0  0  0
  191.1680  173.6660  142.1050 C   0  0  1  0  0  3  0  0  0  0  0  0
  190.9250  176.8900  148.0980 C   0  0  1  0  0  3  0  0  0  0  0  0
  191.4270  178.0850  148.6190 O   0  0  0  0  0  1  0  0  0  0  0  0
  185.3260  178.2070  146.8540 N   0  0  0  0  0  0  0  0  0  0  0  0
  185.2570  176.9070  146.4250 C   0  0  0  0  0  3  0  0  0  0  0  0
  188.7440  176.0500  147.1690 N   0  0  0  0  0  0  0  0  0  0  0  0
  187.5490  176.6330  147.0060 C   0  0  0  0  0  0  0  0  0  0  0  0
  186.3870  176.0700  146.4920 C   0  0  0  0  0  3  0  0  0  0  0  0
  187.5950  177.9210  147.4290 C   0  0  0  0  0  0  0  0  0  0  0  0
  186.4770  178.7410  147.3610 C   0  0  0  0  0  3  0  0  0  0  0  0
  188.8180  178.2230  147.8830 N   0  0  0  0  0  2  0  0  0  0  0  0
  189.4880  177.0550  147.7030 C   0  0  0  0  0  0  0  0  0  0  0  0
  187.5870  176.4270  143.1270 C   0  0  0  0  0  2  0  0  0  0  0  0
  186.8710  178.7490  143.7130 C   0  0  0  0  0  3  0  0  0  0  0  0
  184.2200  178.1510  143.0540 C   0  0  0  0  0  3  0  0  0  0  0  0
  185.8810  179.7260  143.8500 C   0  0  0  0  0  3  0  0  0  0  0  0
  186.5360  177.4720  143.2480 C   0  0  0  0  0  0  0  0  0  0  0  0
  185.2080  177.1740  142.9210 C   0  0  0  0  0  3  0  0  0  0  0  0
  184.5550  179.4270  143.5210 C   0  0  0  0  0  3  0  0  0  0  0  0
  194.3430  170.6150  135.7780 C   0  0  1  0  0  3  0  0  0  0  0  0
  194.1750  169.3080  136.2970 O   0  0  0  0  0  0  0  0  0  0  0  0
  194.6740  168.3770  135.3670 C   0  0  0  0  0  1  0  0  0  0  0  0
  193.0730  171.1890  135.3320 N   0  0  0  0  0  2  0  0  0  0  0  0
  191.0030  170.3890  134.6930 C   0  0  0  0  0  2  0  0  0  0  0  0
  192.0530  170.3090  135.7300 N   0  0  0  0  0  0  0  0  0  0  0  0
  189.8530  170.3540  136.9140 C   0  0  0  0  0  1  0  0  0  0  0  0
  190.8490  172.5800  135.9360 C   0  0  0  0  0  1  0  0  0  0  0  0
  190.7970  171.0570  135.9640 C   0  0  0  0  0  0  0  0  0  0  0  0
  1 16  1  0  0  0  0
  5 18  2  0  0  0  0
  6 11  2  0  0  0  0
  6 28  1  0  0  0  0
  7 31  1  0  0  0  0
  7 16  2  0  0  0  0
  8  4  1  1  0  0  0
  8  9  1  0  0  0  0
  9 30  1  1  0  0  0
  9 13  1  0  0  0  0
 10 19  1  0  0  0  0
 10  4  1  1  0  0  0
 11  7  1  0  0  0  0
 12 20  1  0  0  0  0
 13 12  1  6  0  0  0
 14 50  1  6  0  0  0
 14 18  1  0  0  0  0
 14 23  1  0  0  0  0
 15 27  2  0  0  0  0
 16 26  1  0  0  0  0
 17 22  1  0  0  0  0
 18 21  1  0  0  0  0
 19 43  1  0  0  0  0
 21 25  2  0  0  0  0
 21 15  1  0  0  0  0
 22 20  1  0  0  0  0
 22 32  1  1  0  0  0
 23 25  1  0  0  0  0
 24  3  1  6  0  0  0
 24 29  1  0  0  0  0
 24 10  1  0  0  0  0
 24  2  1  0  0  0  0
 25  6  1  0  0  0  0
 26 13  1  0  0  0  0
 27 28  1  0  0  0  0
 28  1  2  0  0  0  0
 29 19  1  0  0  0  0
 29  2  1  1  0  0  0
 30 17  1  0  0  0  0
 31  3  1  6  0  0  0
 31  8  1  0  0  0  0
 32 33  1  6  0  0  0
 34 40  1  0  0  0  0
 35 38  1  0  0  0  0
 35 34  2  0  0  0  0
 36 42  2  0  0  0  0
 37 36  1  0  0  0  0
 37 39  1  0  0  0  0
 38 37  2  0  0  0  0
 39 41  1  0  0  0  0
 40 39  2  0  0  0  0
 42 41  1  0  0  0  0
 42 32  1  0  0  0  0
 43 47  1  0  0  0  0
 44 46  1  0  0  0  0
 45 49  1  0  0  0  0
 47 44  2  0  0  0  0
 48 45  2  0  0  0  0
 48 47  1  0  0  0  0
 49 46  2  0  0  0  0
 50 53  1  1  0  0  0
 50 51  1  0  0  0  0
 52 51  1  0  0  0  0
 53 55  1  0  0  0  0
 54 55  1  0  0  0  0
 54 58  1  0  0  0  0
 55 58  1  0  0  0  0
 57 58  1  0  0  0  0
 58 56  1  0  0  0  0
M  END
>  <MODEL>
3

>  <REMARK>
 VINA RESULT:      -6.9      2.713     10.775
  Name = 
  8 active torsions:
  status: ('A' for Active; 'I' for Inactive)
    1  A    between atoms: C_5  and  N_34
    2  A    between atoms: C_5  and  C_36
    3  A    between atoms: O_8  and  C_37
    4  A    between atoms: C_21  and  C_40
    5  A    between atoms: C_21  and  C_58
    6  A    between atoms: N_26  and  N_54
    7  A    between atoms: C_27  and  C_37
    8  A    between atoms: C_37  and  N_54
                            x       y       z     vdW  Elec       q    Type
                         _______ _______ _______ _____ _____    ______ ____

>  <TORSDO>
F 8

$$$$
=
 OpenBabel11042416033D

 58 69  0  0  1  0  0  0  0  0999 V2000
  188.4840  174.3220  138.5260 C   0  0  0  0  0  3  0  0  0  0  0  0
  191.2820  171.7600  144.0030 C   0  0  0  0  0  2  0  0  0  0  0  0
  190.2720  173.6920  143.0590 C   0  0  0  0  0  2  0  0  0  0  0  0
  192.9050  173.0510  142.0290 O   0  0  0  0  0  0  0  0  0  0  0  0
  184.4510  179.1670  140.1310 O   0  0  0  0  0  0  0  0  0  0  0  0
  187.8140  175.8120  140.3290 C   0  0  0  0  0  0  0  0  0  0  0  0
  189.5920  174.1930  140.6800 C   0  0  0  0  0  0  0  0  0  0  0  0
  192.0350  173.7870  141.1940 C   0  0  1  0  0  3  0  0  0  0  0  0
  192.4620  173.5380  139.7570 C   0  0  2  0  0  3  0  0  0  0  0  0
  192.8070  173.5970  143.3260 C   0  0  2  0  0  3  0  0  0  0  0  0
  188.7760  175.2310  141.1600 C   0  0  0  0  0  3  0  0  0  0  0  0
  192.3650  172.4400  137.5310 C   0  0  0  0  0  2  0  0  0  0  0  0
  191.7150  172.9450  138.7870 C   0  0  2  0  0  3  0  0  0  0  0  0
  185.8980  178.6040  142.0220 C   0  0  2  0  0  3  0  0  0  0  0  0
  185.8520  176.9390  138.6330 C   0  0  0  0  0  3  0  0  0  0  0  0
  189.4670  173.7680  139.3550 C   0  0  0  0  0  0  0  0  0  0  0  0
  194.7630  172.6200  139.5060 C   0  0  0  0  0  2  0  0  0  0  0  0
  185.3460  178.4410  140.6400 C   0  0  0  0  0  0  0  0  0  0  0  0
  193.4940  172.7950  144.3620 N   0  0  0  0  0  0  0  0  0  0  0  0
  193.3470  171.3160  137.8390 C   0  0  0  0  0  2  0  0  0  0  0  0
  186.0330  177.3860  139.9450 C   0  0  0  0  0  0  0  0  0  0  0  0
  194.7300  171.8750  138.1680 C   0  0  2  0  0  3  0  0  0  0  0  0
  186.9940  177.5160  142.1140 C   0  0  0  0  0  2  0  0  0  0  0  0
  191.4620  173.2750  143.9060 C   0  0  2  0  0  0  0  0  0  0  0  0
  186.9840  176.8470  140.7760 C   0  0  0  0  0  0  0  0  0  0  0  0
  190.3230  172.7960  138.8380 O   0  0  0  0  0  0  0  0  0  0  0  0
  186.6740  175.9030  138.1640 C   0  0  0  0  0  3  0  0  0  0  0  0
  187.6530  175.3380  139.0020 C   0  0  0  0  0  0  0  0  0  0  0  0
  192.1870  172.4610  144.9640 C   0  0  1  0  0  3  0  0  0  0  0  0
  193.9010  173.8750  139.4770 C   0  0  0  0  0  2  0  0  0  0  0  0
  190.5640  173.4680  141.5580 C   0  0  1  0  0  3  0  0  0  0  0  0
  195.7840  170.7640  138.1200 C   0  0  1  0  0  3  0  0  0  0  0  0
  196.9560  171.2290  137.5190 O   0  0  0  0  0  1  0  0  0  0  0  0
  196.2770  168.1720  143.3800 N   0  0  0  0  0  0  0  0  0  0  0  0
  197.5020  168.7850  143.4170 C   0  0  0  0  0  3  0  0  0  0  0  0
  197.2420  170.4040  140.1370 N   0  0  0  0  0  0  0  0  0  0  0  0
  197.0630  169.7090  141.2680 C   0  0  0  0  0  0  0  0  0  0  0  0
  197.9350  169.5850  142.3420 C   0  0  0  0  0  3  0  0  0  0  0  0
  195.8530  169.0960  141.2520 C   0  0  0  0  0  0  0  0  0  0  0  0
  195.4310  168.3090  142.3160 C   0  0  0  0  0  3  0  0  0  0  0  0
  195.2000  169.3710  140.1160 N   0  0  0  0  0  2  0  0  0  0  0  0
  196.0850  170.1690  139.4630 C   0  0  0  0  0  0  0  0  0  0  0  0
  194.1340  171.5830  143.8360 C   0  0  0  0  0  2  0  0  0  0  0  0
  194.3530  169.7440  145.5160 C   0  0  0  0  0  3  0  0  0  0  0  0
  196.8120  170.7570  146.3780 C   0  0  0  0  0  3  0  0  0  0  0  0
  195.0470  169.1050  146.5470 C   0  0  0  0  0  3  0  0  0  0  0  0
  194.8870  170.8910  144.9160 C   0  0  0  0  0  0  0  0  0  0  0  0
  196.1170  171.3970  145.3510 C   0  0  0  0  0  3  0  0  0  0  0  0
  196.2770  169.6110  146.9790 C   0  0  0  0  0  3  0  0  0  0  0  0
  184.8190  178.3730  143.0920 C   0  0  1  0  0  3  0  0  0  0  0  0
  183.5530  178.0630  142.5390 O   0  0  0  0  0  0  0  0  0  0  0  0
  182.6110  179.0080  142.9910 C   0  0  0  0  0  1  0  0  0  0  0  0
  185.2440  177.3710  144.0700 N   0  0  0  0  0  2  0  0  0  0  0  0
  185.8360  179.0190  145.5760 C   0  0  0  0  0  2  0  0  0  0  0  0
  184.9330  177.8720  145.3450 N   0  0  0  0  0  0  0  0  0  0  0  0
  185.7380  177.7090  147.7050 C   0  0  0  0  0  1  0  0  0  0  0  0
  187.3210  176.9850  145.7380 C   0  0  0  0  0  1  0  0  0  0  0  0
  186.1070  177.7570  146.2390 C   0  0  0  0  0  0  0  0  0  0  0  0
  1 28  2  0  0  0  0
  1 16  1  0  0  0  0
  5 18  2  0  0  0  0
  6 25  1  0  0  0  0
  6 11  2  0  0  0  0
  7 11  1  0  0  0  0
  7 31  1  0  0  0  0
  8 31  1  0  0  0  0
  8  4  1  1  0  0  0
  9 30  1  1  0  0  0
  9  8  1  0  0  0  0
 10  4  1  6  0  0  0
 10 24  1  0  0  0  0
 10 19  1  0  0  0  0
 12 20  1  0  0  0  0
 13 12  1  6  0  0  0
 13 26  1  0  0  0  0
 13  9  1  0  0  0  0
 14 23  1  0  0  0  0
 14 50  1  1  0  0  0
 15 21  1  0  0  0  0
 16  7  2  0  0  0  0
 18 14  1  0  0  0  0
 19 29  1  0  0  0  0
 20 22  1  0  0  0  0
 21 18  1  0  0  0  0
 21 25  2  0  0  0  0
 22 32  1  1  0  0  0
 22 17  1  0  0  0  0
 24  3  1  1  0  0  0
 24  2  1  0  0  0  0
 24 29  1  0  0  0  0
 25 23  1  0  0  0  0
 26 16  1  0  0  0  0
 27 15  2  0  0  0  0
 27 28  1  0  0  0  0
 28  6  1  0  0  0  0
 29  2  1  6  0  0  0
 30 17  1  0  0  0  0
 31  3  1  1  0  0  0
 32 33  1  1  0  0  0
 32 42  1  0  0  0  0
 34 35  1  0  0  0  0
 36 37  1  0  0  0  0
 37 38  1  0  0  0  0
 38 35  2  0  0  0  0
 39 37  2  0  0  0  0
 39 40  1  0  0  0  0
 40 34  2  0  0  0  0
 41 39  1  0  0  0  0
 42 41  1  0  0  0  0
 42 36  2  0  0  0  0
 43 19  1  0  0  0  0
 43 47  1  0  0  0  0
 44 46  1  0  0  0  0
 45 49  1  0  0  0  0
 46 49  2  0  0  0  0
 47 48  1  0  0  0  0
 47 44  2  0  0  0  0
 48 45  2  0  0  0  0
 50 51  1  6  0  0  0
 50 53  1  0  0  0  0
 51 52  1  0  0  0  0
 53 55  1  0  0  0  0
 54 58  1  0  0  0  0
 55 54  1  0  0  0  0
 55 58  1  0  0  0  0
 57 58  1  0  0  0  0
 58 56  1  0  0  0  0
M  END
>  <MODEL>
4

>  <REMARK>
 VINA RESULT:      -6.7      2.341      5.943
  Name = 
  8 active torsions:
  status: ('A' for Active; 'I' for Inactive)
    1  A    between atoms: C_5  and  N_34
    2  A    between atoms: C_5  and  C_36
    3  A    between atoms: O_8  and  C_37
    4  A    between atoms: C_21  and  C_40
    5  A    between atoms: C_21  and  C_58
    6  A    between atoms: N_26  and  N_54
    7  A    between atoms: C_27  and  C_37
    8  A    between atoms: C_37  and  N_54
                            x       y       z     vdW  Elec       q    Type
                         _______ _______ _______ _____ _____    ______ ____

>  <TORSDO>
F 8

$$$$
=
 OpenBabel11042416033D

 58 69  0  0  1  0  0  0  0  0999 V2000
  191.0310  173.4450  140.8800 C   0  0  0  0  0  3  0  0  0  0  0  0
  190.6540  177.6980  145.9950 C   0  0  0  0  0  2  0  0  0  0  0  0
  190.9410  175.4220  145.3780 C   0  0  0  0  0  2  0  0  0  0  0  0
  188.2780  176.4880  144.9540 O   0  0  0  0  0  0  0  0  0  0  0  0
  194.4200  168.1670  142.6040 O   0  0  0  0  0  0  0  0  0  0  0  0
  191.9640  172.2340  142.7730 C   0  0  0  0  0  0  0  0  0  0  0  0
  190.7170  174.2900  143.1330 C   0  0  0  0  0  0  0  0  0  0  0  0
  188.6850  175.3990  144.1500 C   0  0  1  0  0  3  0  0  0  0  0  0
  187.8710  175.4500  142.8670 C   0  0  2  0  0  3  0  0  0  0  0  0
  188.6870  176.2120  146.2750 C   0  0  2  0  0  3  0  0  0  0  0  0
  191.4430  173.1990  143.6400 C   0  0  0  0  0  3  0  0  0  0  0  0
  187.4430  176.0090  140.4860 C   0  0  0  0  0  2  0  0  0  0  0  0
  188.3610  175.6220  141.6100 C   0  0  2  0  0  3  0  0  0  0  0  0
  193.7850  169.4540  144.5850 C   0  0  2  0  0  3  0  0  0  0  0  0
  193.0390  170.3240  140.9870 C   0  0  0  0  0  3  0  0  0  0  0  0
  190.4840  174.3880  141.7590 C   0  0  0  0  0  0  0  0  0  0  0  0
  185.8180  176.8530  143.0000 C   0  0  0  0  0  2  0  0  0  0  0  0
  193.8820  169.1850  143.1160 C   0  0  0  0  0  0  0  0  0  0  0  0
  188.5270  177.3570  147.1990 N   0  0  0  0  0  0  0  0  0  0  0  0
  186.8330  177.3840  140.7270 C   0  0  0  0  0  2  0  0  0  0  0  0
  193.2110  170.2160  142.3700 C   0  0  0  0  0  0  0  0  0  0  0  0
  185.5520  177.2750  141.5520 C   0  0  2  0  0  3  0  0  0  0  0  0
  192.9930  170.7800  144.6670 C   0  0  0  0  0  2  0  0  0  0  0  0
  190.1820  176.2920  146.3650 C   0  0  2  0  0  0  0  0  0  0  0  0
  192.6920  171.1360  143.2460 C   0  0  0  0  0  0  0  0  0  0  0  0
  189.6980  175.4200  141.2450 O   0  0  0  0  0  0  0  0  0  0  0  0
  192.3100  171.4160  140.4910 C   0  0  0  0  0  3  0  0  0  0  0  0
  191.7730  172.3710  141.3740 C   0  0  0  0  0  0  0  0  0  0  0  0
  189.9960  177.4630  147.3160 C   0  0  1  0  0  3  0  0  0  0  0  0
  186.3830  175.4410  143.0850 C   0  0  0  0  0  2  0  0  0  0  0  0
  190.2260  175.4020  144.0070 C   0  0  1  0  0  3  0  0  0  0  0  0
  184.7580  178.5830  141.4880 C   0  0  1  0  0  3  0  0  0  0  0  0
  185.2310  179.3900  140.4500 O   0  0  0  0  0  1  0  0  0  0  0  0
  179.0830  177.6170  140.2720 N   0  0  0  0  0  0  0  0  0  0  0  0
  178.8730  178.0570  141.5520 C   0  0  0  0  0  3  0  0  0  0  0  0
  182.3990  178.6570  142.3570 N   0  0  0  0  0  0  0  0  0  0  0  0
  181.2220  178.3530  141.7960 C   0  0  0  0  0  0  0  0  0  0  0  0
  179.9570  178.4460  142.3630 C   0  0  0  0  0  3  0  0  0  0  0  0
  181.4080  177.9180  140.5250 C   0  0  0  0  0  0  0  0  0  0  0  0
  180.3340  177.5370  139.7300 C   0  0  0  0  0  3  0  0  0  0  0  0
  182.7090  177.9230  140.2110 N   0  0  0  0  0  2  0  0  0  0  0  0
  183.2790  178.3780  141.3580 C   0  0  0  0  0  0  0  0  0  0  0  0
  187.9820  178.5570  146.5550 C   0  0  0  0  0  2  0  0  0  0  0  0
  185.8220  179.2230  145.4870 C   0  0  0  0  0  3  0  0  0  0  0  0
  184.4020  177.4960  147.1660 C   0  0  0  0  0  3  0  0  0  0  0  0
  184.4300  179.1390  145.3840 C   0  0  0  0  0  3  0  0  0  0  0  0
  186.5040  178.4470  146.4310 C   0  0  0  0  0  0  0  0  0  0  0  0
  185.7910  177.5840  147.2720 C   0  0  0  0  0  3  0  0  0  0  0  0
  183.7200  178.2750  146.2240 C   0  0  0  0  0  3  0  0  0  0  0  0
  195.1730  169.6170  145.2240 C   0  0  1  0  0  3  0  0  0  0  0  0
  195.8030  168.3790  145.4970 O   0  0  0  0  0  0  0  0  0  0  0  0
  197.0650  168.3570  144.8730 C   0  0  0  0  0  1  0  0  0  0  0  0
  196.0280  170.4960  144.4250 N   0  0  0  0  0  2  0  0  0  0  0  0
  195.5040  172.3620  145.6800 C   0  0  0  0  0  2  0  0  0  0  0  0
  196.5940  171.4390  145.3000 N   0  0  0  0  0  0  0  0  0  0  0  0
  197.5430  173.7500  145.2560 C   0  0  0  0  0  1  0  0  0  0  0  0
  196.0220  172.9310  143.2770 C   0  0  0  0  0  1  0  0  0  0  0  0
  196.4990  172.7960  144.7180 C   0  0  0  0  0  0  0  0  0  0  0  0
  1 28  2  0  0  0  0
  1 16  1  0  0  0  0
  2 24  1  0  0  0  0
  5 18  2  0  0  0  0
  6 25  1  0  0  0  0
  6 11  2  0  0  0  0
  7 11  1  0  0  0  0
  7 31  1  0  0  0  0
  8  4  1  1  0  0  0
  9 30  1  1  0  0  0
  9  8  1  0  0  0  0
 10  4  1  6  0  0  0
 10 24  1  0  0  0  0
 10 19  1  0  0  0  0
 12 20  1  0  0  0  0
 13 12  1  6  0  0  0
 13  9  1  0  0  0  0
 14 23  1  0  0  0  0
 14 50  1  6  0  0  0
 15 21  1  0  0  0  0
 16  7  2  0  0  0  0
 17 30  1  0  0  0  0
 18 14  1  0  0  0  0
 19 29  1  0  0  0  0
 20 22  1  0  0  0  0
 21 18  1  0  0  0  0
 21 25  2  0  0  0  0
 22 32  1  1  0  0  0
 22 17  1  0  0  0  0
 24  3  1  1  0  0  0
 24 29  1  0  0  0  0
 25 23  1  0  0  0  0
 26 13  1  0  0  0  0
 26 16  1  0  0  0  0
 27 15  2  0  0  0  0
 27 28  1  0  0  0  0
 28  6  1  0  0  0  0
 29  2  1  6  0  0  0
 31  8  1  0  0  0  0
 31  3  1  1  0  0  0
 32 33  1  6  0  0  0
 34 35  1  0  0  0  0
 35 38  2  0  0  0  0
 37 36  1  0  0  0  0
 37 38  1  0  0  0  0
 39 37  2  0  0  0  0
 40 34  2  0  0  0  0
 40 39  1  0  0  0  0
 41 39  1  0  0  0  0
 41 42  1  0  0  0  0
 42 32  1  0  0  0  0
 42 36  2  0  0  0  0
 43 19  1  0  0  0  0
 44 47  1  0  0  0  0
 45 48  1  0  0  0  0
 46 44  2  0  0  0  0
 46 49  1  0  0  0  0
 47 43  1  0  0  0  0
 47 48  2  0  0  0  0
 49 45  2  0  0  0  0
 50 53  1  6  0  0  0
 50 51  1  0  0  0  0
 52 51  1  0  0  0  0
 53 55  1  0  0  0  0
 55 54  1  0  0  0  0
 57 58  1  0  0  0  0
 58 56  1  0  0  0  0
 58 55  1  0  0  0  0
 58 54  1  0  0  0  0
M  END
>  <MODEL>
5

>  <REMARK>
 VINA RESULT:      -6.7      2.940     12.130
  Name = 
  8 active torsions:
  status: ('A' for Active; 'I' for Inactive)
    1  A    between atoms: C_5  and  N_34
    2  A    between atoms: C_5  and  C_36
    3  A    between atoms: O_8  and  C_37
    4  A    between atoms: C_21  and  C_40
    5  A    between atoms: C_21  and  C_58
    6  A    between atoms: N_26  and  N_54
    7  A    between atoms: C_27  and  C_37
    8  A    between atoms: C_37  and  N_54
                            x       y       z     vdW  Elec       q    Type
                         _______ _______ _______ _____ _____    ______ ____

>  <TORSDO>
F 8

$$$$
=
 OpenBabel11042416033D

 58 69  0  0  1  0  0  0  0  0999 V2000
  190.8840  173.5760  139.7850 C   0  0  0  0  0  3  0  0  0  0  0  0
  191.8060  176.8840  145.4940 C   0  0  0  0  0  2  0  0  0  0  0  0
  191.8990  174.7540  144.4460 C   0  0  0  0  0  2  0  0  0  0  0  0
  189.2310  175.8110  144.8550 O   0  0  0  0  0  0  0  0  0  0  0  0
  194.4960  168.1660  139.7250 O   0  0  0  0  0  0  0  0  0  0  0  0
  192.2200  172.0840  141.1660 C   0  0  0  0  0  0  0  0  0  0  0  0
  191.1290  174.0160  142.1580 C   0  0  0  0  0  0  0  0  0  0  0  0
  189.4160  174.8860  143.8030 C   0  0  1  0  0  3  0  0  0  0  0  0
  188.3210  175.1350  142.7780 C   0  0  2  0  0  3  0  0  0  0  0  0
  189.9380  175.3240  145.9740 C   0  0  2  0  0  3  0  0  0  0  0  0
  191.9360  172.8730  142.2850 C   0  0  0  0  0  3  0  0  0  0  0  0
  187.3490  176.0800  140.6980 C   0  0  0  0  0  2  0  0  0  0  0  0
  188.5010  175.5300  141.4890 C   0  0  2  0  0  3  0  0  0  0  0  0
  194.3720  169.0800  141.9910 C   0  0  2  0  0  3  0  0  0  0  0  0
  192.8070  170.5320  138.8760 C   0  0  0  0  0  3  0  0  0  0  0  0
  190.5780  174.3420  140.9170 C   0  0  0  0  0  0  0  0  0  0  0  0
  186.3830  176.4420  143.6320 C   0  0  0  0  0  2  0  0  0  0  0  0
  194.1130  169.0690  140.5160 C   0  0  0  0  0  0  0  0  0  0  0  0
  190.0200  176.2900  147.0910 N   0  0  0  0  0  0  0  0  0  0  0  0
  186.8370  177.3780  141.3090 C   0  0  0  0  0  2  0  0  0  0  0  0
  193.3020  170.1950  140.1390 C   0  0  0  0  0  0  0  0  0  0  0  0
  185.7880  177.0990  142.3830 C   0  0  2  0  0  3  0  0  0  0  0  0
  193.6450  170.3530  142.4850 C   0  0  0  0  0  2  0  0  0  0  0  0
  191.4120  175.4250  145.7190 C   0  0  2  0  0  0  0  0  0  0  0  0
  193.0210  170.9390  141.2580 C   0  0  0  0  0  0  0  0  0  0  0  0
  189.7100  175.4260  140.7890 O   0  0  0  0  0  0  0  0  0  0  0  0
  192.0000  171.6750  138.7620 C   0  0  0  0  0  3  0  0  0  0  0  0
  191.7040  172.4520  139.8970 C   0  0  0  0  0  0  0  0  0  0  0  0
  191.4770  176.4110  146.8730 C   0  0  1  0  0  3  0  0  0  0  0  0
  186.9280  175.0520  143.3370 C   0  0  0  0  0  2  0  0  0  0  0  0
  190.8790  174.9500  143.3010 C   0  0  1  0  0  3  0  0  0  0  0  0
  185.0230  178.3790  142.7340 C   0  0  1  0  0  3  0  0  0  0  0  0
  185.7340  179.5040  142.3070 O   0  0  0  0  0  1  0  0  0  0  0  0
  179.3330  178.7280  141.2760 N   0  0  0  0  0  0  0  0  0  0  0  0
  179.7380  178.1510  140.1010 C   0  0  0  0  0  3  0  0  0  0  0  0
  183.2950  177.9300  140.9630 N   0  0  0  0  0  0  0  0  0  0  0  0
  181.9720  178.1330  140.9220 C   0  0  0  0  0  0  0  0  0  0  0  0
  181.0930  177.8310  139.8900 C   0  0  0  0  0  3  0  0  0  0  0  0
  181.5500  178.7010  142.0800 C   0  0  0  0  0  0  0  0  0  0  0  0
  180.2120  179.0140  142.2820 C   0  0  0  0  0  3  0  0  0  0  0  0
  182.5800  178.8880  142.9150 N   0  0  0  0  0  2  0  0  0  0  0  0
  183.6260  178.4070  142.1930 C   0  0  0  0  0  0  0  0  0  0  0  0
  189.3580  177.5690  146.8100 C   0  0  0  0  0  2  0  0  0  0  0  0
  187.0440  178.4180  146.3950 C   0  0  0  0  0  3  0  0  0  0  0  0
  185.9410  176.1220  147.5460 C   0  0  0  0  0  3  0  0  0  0  0  0
  185.6560  178.2810  146.4840 C   0  0  0  0  0  3  0  0  0  0  0  0
  187.8820  177.4090  146.8840 C   0  0  0  0  0  0  0  0  0  0  0  0
  187.3280  176.2610  147.4610 C   0  0  0  0  0  3  0  0  0  0  0  0
  185.1040  177.1330  147.0600 C   0  0  0  0  0  3  0  0  0  0  0  0
  195.8760  169.1670  142.3000 C   0  0  1  0  0  3  0  0  0  0  0  0
  196.4930  170.3030  141.7220 O   0  0  0  0  0  0  0  0  0  0  0  0
  197.5460  169.8800  140.8890 C   0  0  0  0  0  1  0  0  0  0  0  0
  196.1310  169.0830  143.7380 N   0  0  0  0  0  2  0  0  0  0  0  0
  197.4800  170.0550  145.3420 C   0  0  0  0  0  2  0  0  0  0  0  0
  196.6580  170.3210  144.1430 N   0  0  0  0  0  0  0  0  0  0  0  0
  196.1860  172.1510  145.7770 C   0  0  0  0  0  1  0  0  0  0  0  0
  195.0950  169.7860  146.1210 C   0  0  0  0  0  1  0  0  0  0  0  0
  196.1730  170.6640  145.4980 C   0  0  0  0  0  0  0  0  0  0  0  0
  1 28  2  0  0  0  0
  1 16  1  0  0  0  0
  2 24  1  0  0  0  0
  5 18  2  0  0  0  0
  6 25  1  0  0  0  0
  6 11  2  0  0  0  0
  7 11  1  0  0  0  0
  7 31  1  0  0  0  0
  8  4  1  1  0  0  0
  9 30  1  1  0  0  0
  9  8  1  0  0  0  0
 10  4  1  6  0  0  0
 10 19  1  0  0  0  0
 12 20  1  0  0  0  0
 13 12  1  6  0  0  0
 13  9  1  0  0  0  0
 14 50  1  6  0  0  0
 14 23  1  0  0  0  0
 15 21  1  0  0  0  0
 16  7  2  0  0  0  0
 18 14  1  0  0  0  0
 20 22  1  0  0  0  0
 21 18  1  0  0  0  0
 21 25  2  0  0  0  0
 22 32  1  1  0  0  0
 22 17  1  0  0  0  0
 24  3  1  6  0  0  0
 24 10  1  0  0  0  0
 24 29  1  0  0  0  0
 25 23  1  0  0  0  0
 26 16  1  0  0  0  0
 26 13  1  0  0  0  0
 27 15  2  0  0  0  0
 27 28  1  0  0  0  0
 28  6  1  0  0  0  0
 29  2  1  6  0  0  0
 29 19  1  0  0  0  0
 30 17  1  0  0  0  0
 31  8  1  0  0  0  0
 31  3  1  1  0  0  0
 32 33  1  6  0  0  0
 34 40  1  0  0  0  0
 35 34  2  0  0  0  0
 36 42  2  0  0  0  0
 37 36  1  0  0  0  0
 37 39  1  0  0  0  0
 38 35  1  0  0  0  0
 38 37  2  0  0  0  0
 39 40  2  0  0  0  0
 39 41  1  0  0  0  0
 42 32  1  0  0  0  0
 42 41  1  0  0  0  0
 43 47  1  0  0  0  0
 43 19  1  0  0  0  0
 44 46  2  0  0  0  0
 44 47  1  0  0  0  0
 46 49  1  0  0  0  0
 47 48  2  0  0  0  0
 48 45  1  0  0  0  0
 49 45  2  0  0  0  0
 50 51  1  1  0  0  0
 50 53  1  0  0  0  0
 52 51  1  0  0  0  0
 53 55  1  0  0  0  0
 54 58  1  0  0  0  0
 55 54  1  0  0  0  0
 55 58  1  0  0  0  0
 58 56  1  0  0  0  0
 58 57  1  0  0  0  0
M  END
>  <MODEL>
6

>  <REMARK>
 VINA RESULT:      -6.4      2.552     12.173
  Name = 
  8 active torsions:
  status: ('A' for Active; 'I' for Inactive)
    1  A    between atoms: C_5  and  N_34
    2  A    between atoms: C_5  and  C_36
    3  A    between atoms: O_8  and  C_37
    4  A    between atoms: C_21  and  C_40
    5  A    between atoms: C_21  and  C_58
    6  A    between atoms: N_26  and  N_54
    7  A    between atoms: C_27  and  C_37
    8  A    between atoms: C_37  and  N_54
                            x       y       z     vdW  Elec       q    Type
                         _______ _______ _______ _____ _____    ______ ____

>  <TORSDO>
F 8

$$$$
=
 OpenBabel11042416033D

 58 69  0  0  1  0  0  0  0  0999 V2000
  192.9940  176.1270  144.5240 C   0  0  0  0  0  3  0  0  0  0  0  0
  191.4880  173.6270  138.5350 C   0  0  0  0  0  2  0  0  0  0  0  0
  190.6740  174.0390  140.7280 C   0  0  0  0  0  2  0  0  0  0  0  0
  192.6830  171.9580  140.5290 O   0  0  0  0  0  0  0  0  0  0  0  0
  187.5740  177.9910  147.5990 O   0  0  0  0  0  0  0  0  0  0  0  0
  190.5660  175.9850  144.4960 C   0  0  0  0  0  0  0  0  0  0  0  0
  191.8760  174.8370  142.8010 C   0  0  0  0  0  0  0  0  0  0  0  0
  192.5570  172.6330  141.7650 C   0  0  1  0  0  3  0  0  0  0  0  0
  193.8930  172.5240  142.4820 C   0  0  2  0  0  3  0  0  0  0  0  0
  191.3800  171.6790  140.0670 C   0  0  2  0  0  3  0  0  0  0  0  0
  190.6310  175.1730  143.3600 C   0  0  0  0  0  3  0  0  0  0  0  0
  196.1380  173.3040  143.2020 C   0  0  0  0  0  2  0  0  0  0  0  0
  194.7060  173.5590  142.8280 C   0  0  2  0  0  3  0  0  0  0  0  0
  187.0200  176.5710  145.6850 C   0  0  2  0  0  3  0  0  0  0  0  0
  190.4680  177.6630  146.7700 C   0  0  0  0  0  3  0  0  0  0  0  0
  193.0520  175.2860  143.4060 C   0  0  0  0  0  0  0  0  0  0  0  0
  195.3920  170.7360  141.6130 C   0  0  0  0  0  2  0  0  0  0  0  0
  187.9390  177.3360  146.5870 C   0  0  0  0  0  0  0  0  0  0  0  0
  191.3390  171.1680  138.6790 N   0  0  0  0  0  0  0  0  0  0  0  0
  196.9170  172.7330  142.0240 C   0  0  0  0  0  2  0  0  0  0  0  0
  189.3070  177.1560  146.1800 C   0  0  0  0  0  0  0  0  0  0  0  0
  196.8010  171.2100  141.9800 C   0  0  2  0  0  3  0  0  0  0  0  0
  187.9710  175.9120  144.6590 C   0  0  0  0  0  2  0  0  0  0  0  0
  190.7060  172.9560  139.6640 C   0  0  2  0  0  0  0  0  0  0  0  0
  189.3430  176.3390  145.0780 C   0  0  0  0  0  0  0  0  0  0  0  0
  194.2970  174.8960  142.9120 O   0  0  0  0  0  0  0  0  0  0  0  0
  191.7050  177.3190  146.2030 C   0  0  0  0  0  3  0  0  0  0  0  0
  191.7620  176.4850  145.0720 C   0  0  0  0  0  0  0  0  0  0  0  0
  190.6680  172.4110  138.2460 C   0  0  1  0  0  3  0  0  0  0  0  0
  194.3710  171.1120  142.6780 C   0  0  0  0  0  2  0  0  0  0  0  0
  191.9970  174.0570  141.5290 C   0  0  1  0  0  3  0  0  0  0  0  0
  197.8540  170.6170  141.0390 C   0  0  1  0  0  3  0  0  0  0  0  0
  197.7260  169.2280  140.9770 O   0  0  0  0  0  1  0  0  0  0  0  0
  197.8720  172.2510  135.3860 N   0  0  0  0  0  0  0  0  0  0  0  0
  197.7500  173.5190  135.8920 C   0  0  0  0  0  3  0  0  0  0  0  0
  197.7180  172.5420  139.4260 N   0  0  0  0  0  0  0  0  0  0  0  0
  197.7570  172.6030  138.0880 C   0  0  0  0  0  0  0  0  0  0  0  0
  197.6890  173.7320  137.2820 C   0  0  0  0  0  3  0  0  0  0  0  0
  197.8810  171.3570  137.5680 C   0  0  0  0  0  0  0  0  0  0  0  0
  197.9410  171.1530  136.1950 C   0  0  0  0  0  3  0  0  0  0  0  0
  197.9290  170.4410  138.5430 N   0  0  0  0  0  2  0  0  0  0  0  0
  197.8230  171.2070  139.6610 C   0  0  0  0  0  0  0  0  0  0  0  0
  192.6620  171.0610  138.0540 C   0  0  0  0  0  2  0  0  0  0  0  0
  191.8150  169.0360  136.8580 C   0  0  0  0  0  3  0  0  0  0  0  0
  193.2550  169.7270  134.5640 C   0  0  0  0  0  3  0  0  0  0  0  0
  191.7630  168.2140  135.7290 C   0  0  0  0  0  3  0  0  0  0  0  0
  192.5890  170.2020  136.8420 C   0  0  0  0  0  0  0  0  0  0  0  0
  193.3100  170.5450  135.6930 C   0  0  0  0  0  3  0  0  0  0  0  0
  192.4830  168.5590  134.5810 C   0  0  0  0  0  3  0  0  0  0  0  0
  186.0240  177.5020  144.9730 C   0  0  1  0  0  3  0  0  0  0  0  0
  185.3690  178.3900  145.8600 O   0  0  0  0  0  0  0  0  0  0  0  0
  184.4070  177.6760  146.5990 C   0  0  0  0  0  1  0  0  0  0  0  0
  186.6570  178.2130  143.8620 N   0  0  0  0  0  2  0  0  0  0  0  0
  185.4540  176.9040  142.3870 C   0  0  0  0  0  2  0  0  0  0  0  0
  185.7140  178.2920  142.8240 N   0  0  0  0  0  0  0  0  0  0  0  0
  185.6270  178.3120  140.3260 C   0  0  0  0  0  1  0  0  0  0  0  0
  187.7770  177.4210  141.5460 C   0  0  0  0  0  1  0  0  0  0  0  0
  186.2920  177.7610  141.5690 C   0  0  0  0  0  0  0  0  0  0  0  0
  1 28  1  0  0  0  0
  6 28  2  0  0  0  0
  6 25  1  0  0  0  0
  7 11  2  0  0  0  0
  7 16  1  0  0  0  0
  8  4  1  6  0  0  0
  8  9  1  0  0  0  0
  9 30  1  6  0  0  0
  9 13  1  0  0  0  0
 10  4  1  6  0  0  0
 11  6  1  0  0  0  0
 13 26  1  0  0  0  0
 13 12  1  1  0  0  0
 14 50  1  6  0  0  0
 14 18  1  0  0  0  0
 16  1  2  0  0  0  0
 17 22  1  0  0  0  0
 17 30  1  0  0  0  0
 18  5  2  0  0  0  0
 19 10  1  0  0  0  0
 20 12  1  0  0  0  0
 21 18  1  0  0  0  0
 21 15  1  0  0  0  0
 22 32  1  6  0  0  0
 22 20  1  0  0  0  0
 23 25  1  0  0  0  0
 23 14  1  0  0  0  0
 24  2  1  6  0  0  0
 24 10  1  0  0  0  0
 24  3  1  0  0  0  0
 25 21  2  0  0  0  0
 26 16  1  0  0  0  0
 27 15  2  0  0  0  0
 28 27  1  0  0  0  0
 29  2  1  6  0  0  0
 29 19  1  0  0  0  0
 29 24  1  0  0  0  0
 31  3  1  1  0  0  0
 31  8  1  0  0  0  0
 31  7  1  0  0  0  0
 32 33  1  6  0  0  0
 34 35  2  0  0  0  0
 34 40  1  0  0  0  0
 35 38  1  0  0  0  0
 36 42  2  0  0  0  0
 37 36  1  0  0  0  0
 38 37  2  0  0  0  0
 39 37  1  0  0  0  0
 39 41  1  0  0  0  0
 40 39  2  0  0  0  0
 41 42  1  0  0  0  0
 42 32  1  0  0  0  0
 43 19  1  0  0  0  0
 45 49  2  0  0  0  0
 45 48  1  0  0  0  0
 46 44  2  0  0  0  0
 47 44  1  0  0  0  0
 47 43  1  0  0  0  0
 48 47  2  0  0  0  0
 49 46  1  0  0  0  0
 50 53  1  6  0  0  0
 50 51  1  0  0  0  0
 51 52  1  0  0  0  0
 54 55  1  0  0  0  0
 55 53  1  0  0  0  0
 56 58  1  0  0  0  0
 57 58  1  0  0  0  0
 58 54  1  0  0  0  0
 58 55  1  0  0  0  0
M  END
>  <MODEL>
7

>  <REMARK>
 VINA RESULT:      -6.3      1.620      2.063
  Name = 
  8 active torsions:
  status: ('A' for Active; 'I' for Inactive)
    1  A    between atoms: C_5  and  N_34
    2  A    between atoms: C_5  and  C_36
    3  A    between atoms: O_8  and  C_37
    4  A    between atoms: C_21  and  C_40
    5  A    between atoms: C_21  and  C_58
    6  A    between atoms: N_26  and  N_54
    7  A    between atoms: C_27  and  C_37
    8  A    between atoms: C_37  and  N_54
                            x       y       z     vdW  Elec       q    Type
                         _______ _______ _______ _____ _____    ______ ____

>  <TORSDO>
F 8

$$$$
=
 OpenBabel11042416033D

 58 69  0  0  1  0  0  0  0  0999 V2000
  188.0370  175.1770  139.7800 C   0  0  0  0  0  3  0  0  0  0  0  0
  192.1120  171.5400  143.5940 C   0  0  0  0  0  2  0  0  0  0  0  0
  191.0440  173.6480  143.3530 C   0  0  0  0  0  2  0  0  0  0  0  0
  193.1740  173.1230  141.4590 O   0  0  0  0  0  0  0  0  0  0  0  0
  185.1300  179.7680  143.3560 O   0  0  0  0  0  0  0  0  0  0  0  0
  188.0780  176.3240  141.9250 C   0  0  0  0  0  0  0  0  0  0  0  0
  189.7260  174.6080  141.4260 C   0  0  0  0  0  0  0  0  0  0  0  0
  192.1630  174.0320  141.0740 C   0  0  1  0  0  3  0  0  0  0  0  0
  192.1130  174.0420  139.5540 C   0  0  2  0  0  3  0  0  0  0  0  0
  193.5210  173.4180  142.7930 C   0  0  2  0  0  3  0  0  0  0  0  0
  189.1890  175.5650  142.3040 C   0  0  0  0  0  3  0  0  0  0  0  0
  191.2520  173.3860  137.3200 C   0  0  0  0  0  2  0  0  0  0  0  0
  191.0580  173.6680  138.7820 C   0  0  2  0  0  3  0  0  0  0  0  0
  187.0220  178.8120  144.5760 C   0  0  2  0  0  3  0  0  0  0  0  0
  185.8070  177.8150  141.1430 C   0  0  0  0  0  3  0  0  0  0  0  0
  189.1700  174.4440  140.1550 C   0  0  0  0  0  0  0  0  0  0  0  0
  194.1380  173.1100  138.4460 C   0  0  0  0  0  2  0  0  0  0  0  0
  186.0670  178.9300  143.4290 C   0  0  0  0  0  0  0  0  0  0  0  0
  194.4140  172.4130  143.4120 N   0  0  0  0  0  0  0  0  0  0  0  0
  192.1750  172.1920  137.1110 C   0  0  0  0  0  2  0  0  0  0  0  0
  186.4140  178.0010  142.3870 C   0  0  0  0  0  0  0  0  0  0  0  0
  193.6370  172.6310  137.0810 C   0  0  2  0  0  3  0  0  0  0  0  0
  187.9920  177.6890  144.1370 C   0  0  0  0  0  2  0  0  0  0  0  0
  192.3900  173.0390  143.7020 C   0  0  2  0  0  0  0  0  0  0  0  0
  187.5190  177.2840  142.7770 C   0  0  0  0  0  0  0  0  0  0  0  0
  189.7390  173.5580  139.2400 O   0  0  0  0  0  0  0  0  0  0  0  0
  186.3520  176.8580  140.2730 C   0  0  0  0  0  3  0  0  0  0  0  0
  187.4830  176.1130  140.6550 C   0  0  0  0  0  0  0  0  0  0  0  0
  193.3240  172.0160  144.3280 C   0  0  1  0  0  3  0  0  0  0  0  0
  193.4250  174.3770  138.9000 C   0  0  0  0  0  2  0  0  0  0  0  0
  190.8480  173.6990  141.8200 C   0  0  1  0  0  3  0  0  0  0  0  0
  194.5230  171.5140  136.5200 C   0  0  1  0  0  3  0  0  0  0  0  0
  195.4080  172.0260  135.5680 O   0  0  0  0  0  1  0  0  0  0  0  0
  196.8270  168.1850  140.7900 N   0  0  0  0  0  0  0  0  0  0  0  0
  197.9350  168.9750  140.6220 C   0  0  0  0  0  3  0  0  0  0  0  0
  196.5430  171.0620  137.9480 N   0  0  0  0  0  0  0  0  0  0  0  0
  196.7820  170.1650  138.9140 C   0  0  0  0  0  0  0  0  0  0  0  0
  197.9410  170.0060  139.6630 C   0  0  0  0  0  3  0  0  0  0  0  0
  195.6950  169.3740  139.0970 C   0  0  0  0  0  0  0  0  0  0  0  0
  195.6950  168.3600  140.0460 C   0  0  0  0  0  3  0  0  0  0  0  0
  194.7100  169.7270  138.2610 N   0  0  0  0  0  2  0  0  0  0  0  0
  195.2710  170.7580  137.5760 C   0  0  0  0  0  0  0  0  0  0  0  0
  194.7530  171.3010  142.5170 C   0  0  0  0  0  2  0  0  0  0  0  0
  195.0800  169.0900  143.6360 C   0  0  0  0  0  3  0  0  0  0  0  0
  197.7510  169.7070  144.1870 C   0  0  0  0  0  3  0  0  0  0  0  0
  195.8800  168.1730  144.3240 C   0  0  0  0  0  3  0  0  0  0  0  0
  195.6140  170.3170  143.2260 C   0  0  0  0  0  0  0  0  0  0  0  0
  196.9510  170.6250  143.5040 C   0  0  0  0  0  3  0  0  0  0  0  0
  197.2160  168.4810  144.5990 C   0  0  0  0  0  3  0  0  0  0  0  0
  186.3000  178.4200  145.8750 C   0  0  1  0  0  3  0  0  0  0  0  0
  185.1720  177.5930  145.6500 O   0  0  0  0  0  0  0  0  0  0  0  0
  184.1980  177.8680  146.6280 C   0  0  0  0  0  1  0  0  0  0  0  0
  187.2230  177.8260  146.8420 N   0  0  0  0  0  2  0  0  0  0  0  0
  187.7620  175.7470  147.6930 C   0  0  0  0  0  2  0  0  0  0  0  0
  187.4300  176.4900  146.4590 N   0  0  0  0  0  0  0  0  0  0  0  0
  189.3060  174.9370  145.8990 C   0  0  0  0  0  1  0  0  0  0  0  0
  189.8030  177.1540  147.2190 C   0  0  0  0  0  1  0  0  0  0  0  0
  188.8210  176.0820  146.7600 C   0  0  0  0  0  0  0  0  0  0  0  0
  1 16  2  0  0  0  0
  1 28  1  0  0  0  0
  2 24  1  0  0  0  0
  5 18  2  0  0  0  0
  6 11  1  0  0  0  0
  6 25  1  0  0  0  0
  7 31  1  0  0  0  0
  7 11  2  0  0  0  0
  8  4  1  6  0  0  0
  8 31  1  0  0  0  0
  9 30  1  6  0  0  0
  9  8  1  0  0  0  0
 10  4  1  6  0  0  0
 10 19  1  0  0  0  0
 10 24  1  0  0  0  0
 13 12  1  6  0  0  0
 13 26  1  0  0  0  0
 13  9  1  0  0  0  0
 14 50  1  1  0  0  0
 15 21  1  0  0  0  0
 16  7  1  0  0  0  0
 17 30  1  0  0  0  0
 18 14  1  0  0  0  0
 19 29  1  0  0  0  0
 20 12  1  0  0  0  0
 21 25  2  0  0  0  0
 21 18  1  0  0  0  0
 22 32  1  1  0  0  0
 22 20  1  0  0  0  0
 22 17  1  0  0  0  0
 23 14  1  0  0  0  0
 24  3  1  1  0  0  0
 24 29  1  0  0  0  0
 25 23  1  0  0  0  0
 26 16  1  0  0  0  0
 27 28  1  0  0  0  0
 27 15  2  0  0  0  0
 28  6  2  0  0  0  0
 29  2  1  6  0  0  0
 31  3  1  1  0  0  0
 32 33  1  6  0  0  0
 32 42  1  0  0  0  0
 35 34  1  0  0  0  0
 36 37  1  0  0  0  0
 37 39  2  0  0  0  0
 37 38  1  0  0  0  0
 38 35  2  0  0  0  0
 39 40  1  0  0  0  0
 40 34  2  0  0  0  0
 41 39  1  0  0  0  0
 42 36  2  0  0  0  0
 42 41  1  0  0  0  0
 43 47  1  0  0  0  0
 43 19  1  0  0  0  0
 44 46  1  0  0  0  0
 45 49  1  0  0  0  0
 46 49  2  0  0  0  0
 47 48  1  0  0  0  0
 47 44  2  0  0  0  0
 48 45  2  0  0  0  0
 50 51  1  6  0  0  0
 50 53  1  0  0  0  0
 51 52  1  0  0  0  0
 55 58  1  0  0  0  0
 55 53  1  0  0  0  0
 55 54  1  0  0  0  0
 56 58  1  0  0  0  0
 58 57  1  0  0  0  0
 58 54  1  0  0  0  0
M  END
>  <MODEL>
8

>  <REMARK>
 VINA RESULT:      -5.9      2.163      5.490
  Name = 
  8 active torsions:
  status: ('A' for Active; 'I' for Inactive)
    1  A    between atoms: C_5  and  N_34
    2  A    between atoms: C_5  and  C_36
    3  A    between atoms: O_8  and  C_37
    4  A    between atoms: C_21  and  C_40
    5  A    between atoms: C_21  and  C_58
    6  A    between atoms: N_26  and  N_54
    7  A    between atoms: C_27  and  C_37
    8  A    between atoms: C_37  and  N_54
                            x       y       z     vdW  Elec       q    Type
                         _______ _______ _______ _____ _____    ______ ____

>  <TORSDO>
F 8

$$$$
=
 OpenBabel11042416033D

 58 69  0  0  1  0  0  0  0  0999 V2000
  194.4710  171.9290  144.1660 C   0  0  0  0  0  3  0  0  0  0  0  0
  188.2360  173.4460  142.3720 C   0  0  0  0  0  2  0  0  0  0  0  0
  190.4770  173.2270  141.6140 C   0  0  0  0  0  2  0  0  0  0  0  0
  189.9830  175.4860  143.3630 O   0  0  0  0  0  0  0  0  0  0  0  0
  197.8430  169.8550  139.0050 O   0  0  0  0  0  0  0  0  0  0  0  0
  194.4630  171.7810  141.7380 C   0  0  0  0  0  0  0  0  0  0  0  0
  192.6150  172.8480  142.9020 C   0  0  0  0  0  0  0  0  0  0  0  0
  191.2960  174.9650  143.3190 C   0  0  1  0  0  3  0  0  0  0  0  0
  191.9720  175.3200  144.6330 C   0  0  2  0  0  3  0  0  0  0  0  0
  189.5100  175.5490  142.0360 C   0  0  2  0  0  3  0  0  0  0  0  0
  193.2320  172.4440  141.7060 C   0  0  0  0  0  3  0  0  0  0  0  0
  192.7500  174.9070  146.9540 C   0  0  0  0  0  2  0  0  0  0  0  0
  192.4350  174.4410  145.5630 C   0  0  2  0  0  3  0  0  0  0  0  0
  195.7730  170.9420  138.2860 C   0  0  2  0  0  3  0  0  0  0  0  0
  196.9330  170.4090  141.8400 C   0  0  0  0  0  3  0  0  0  0  0  0
  193.2540  172.6210  144.1230 C   0  0  0  0  0  0  0  0  0  0  0  0
  190.8590  177.1450  145.9100 C   0  0  0  0  0  2  0  0  0  0  0  0
  196.7500  170.4130  139.2890 C   0  0  0  0  0  0  0  0  0  0  0  0
  188.0690  175.8700  141.9340 N   0  0  0  0  0  0  0  0  0  0  0  0
  191.4970  175.4090  147.6600 C   0  0  0  0  0  2  0  0  0  0  0  0
  196.3020  170.6970  140.6270 C   0  0  0  0  0  0  0  0  0  0  0  0
  191.2620  176.8890  147.3650 C   0  0  2  0  0  3  0  0  0  0  0  0
  194.6560  171.5710  139.1530 C   0  0  0  0  0  2  0  0  0  0  0  0
  189.2830  174.1610  141.5170 C   0  0  2  0  0  0  0  0  0  0  0  0
  195.1040  171.3640  140.5650 C   0  0  0  0  0  0  0  0  0  0  0  0
  192.6950  173.0870  145.3130 O   0  0  0  0  0  0  0  0  0  0  0  0
  196.3080  170.8200  143.0280 C   0  0  0  0  0  3  0  0  0  0  0  0
  195.0800  171.5030  142.9850 C   0  0  0  0  0  0  0  0  0  0  0  0
  187.8080  174.5110  141.4140 C   0  0  1  0  0  3  0  0  0  0  0  0
  191.9800  176.7920  144.9410 C   0  0  0  0  0  2  0  0  0  0  0  0
  191.2520  173.4670  142.9300 C   0  0  1  0  0  3  0  0  0  0  0  0
  190.2360  177.4750  148.3400 C   0  0  1  0  0  3  0  0  0  0  0  0
  190.6110  178.7650  148.7260 O   0  0  0  0  0  1  0  0  0  0  0  0
  184.6940  178.1710  146.4870 N   0  0  0  0  0  0  0  0  0  0  0  0
  184.7770  176.8410  146.1680 C   0  0  0  0  0  3  0  0  0  0  0  0
  188.2340  176.3680  147.2950 N   0  0  0  0  0  0  0  0  0  0  0  0
  187.0160  176.8240  146.9750 C   0  0  0  0  0  0  0  0  0  0  0  0
  185.9610  176.1190  146.4090 C   0  0  0  0  0  3  0  0  0  0  0  0
  186.9130  178.1400  147.2870 C   0  0  0  0  0  0  0  0  0  0  0  0
  185.7410  178.8470  147.0470 C   0  0  0  0  0  3  0  0  0  0  0  0
  188.0550  178.5890  147.8210 N   0  0  0  0  0  2  0  0  0  0  0  0
  188.8360  177.4760  147.8050 C   0  0  0  0  0  0  0  0  0  0  0  0
  187.4140  176.0490  143.2350 C   0  0  0  0  0  2  0  0  0  0  0  0
  187.0520  178.4870  143.6530 C   0  0  0  0  0  3  0  0  0  0  0  0
  184.4080  178.2970  142.7650 C   0  0  0  0  0  3  0  0  0  0  0  0
  186.2330  179.6190  143.6540 C   0  0  0  0  0  3  0  0  0  0  0  0
  186.5490  177.2570  143.2110 C   0  0  0  0  0  0  0  0  0  0  0  0
  185.2240  177.1650  142.7680 C   0  0  0  0  0  3  0  0  0  0  0  0
  184.9110  179.5250  143.2100 C   0  0  0  0  0  3  0  0  0  0  0  0
  195.2010  169.8190  137.4070 C   0  0  1  0  0  3  0  0  0  0  0  0
  193.9890  169.2870  137.9100 O   0  0  0  0  0  0  0  0  0  0  0  0
  193.3340  168.5820  136.8830 C   0  0  0  0  0  1  0  0  0  0  0  0
  195.0690  170.2450  136.0140 N   0  0  0  0  0  2  0  0  0  0  0  0
  195.4310  171.9640  134.5130 C   0  0  0  0  0  2  0  0  0  0  0  0
  195.5700  171.5550  135.9270 N   0  0  0  0  0  0  0  0  0  0  0  0
  197.6710  172.7530  135.2990 C   0  0  0  0  0  1  0  0  0  0  0  0
  197.3040  170.2730  134.5140 C   0  0  0  0  0  1  0  0  0  0  0  0
  196.7390  171.5950  135.0200 C   0  0  0  0  0  0  0  0  0  0  0  0
  5 18  2  0  0  0  0
  6 28  1  0  0  0  0
  7 31  1  0  0  0  0
  7 16  2  0  0  0  0
  8  4  1  1  0  0  0
  8  9  1  0  0  0  0
  9 30  1  1  0  0  0
  9 13  1  0  0  0  0
 10  4  1  1  0  0  0
 11  6  2  0  0  0  0
 11  7  1  0  0  0  0
 12 20  1  0  0  0  0
 13 12  1  6  0  0  0
 14 50  1  1  0  0  0
 14 23  1  0  0  0  0
 14 18  1  0  0  0  0
 15 27  2  0  0  0  0
 16  1  1  0  0  0  0
 16 26  1  0  0  0  0
 17 22  1  0  0  0  0
 18 21  1  0  0  0  0
 19 10  1  0  0  0  0
 19 43  1  0  0  0  0
 21 15  1  0  0  0  0
 22 20  1  0  0  0  0
 22 32  1  1  0  0  0
 23 25  1  0  0  0  0
 24  3  1  6  0  0  0
 24 10  1  0  0  0  0
 24  2  1  0  0  0  0
 25 21  2  0  0  0  0
 25  6  1  0  0  0  0
 26 13  1  0  0  0  0
 28 27  1  0  0  0  0
 28  1  2  0  0  0  0
 29 24  1  0  0  0  0
 29 19  1  0  0  0  0
 29  2  1  1  0  0  0
 30 17  1  0  0  0  0
 31  3  1  6  0  0  0
 31  8  1  0  0  0  0
 32 33  1  6  0  0  0
 34 40  1  0  0  0  0
 35 38  1  0  0  0  0
 35 34  2  0  0  0  0
 36 42  2  0  0  0  0
 37 39  1  0  0  0  0
 37 36  1  0  0  0  0
 38 37  2  0  0  0  0
 39 41  1  0  0  0  0
 40 39  2  0  0  0  0
 42 41  1  0  0  0  0
 42 32  1  0  0  0  0
 44 46  1  0  0  0  0
 45 48  2  0  0  0  0
 45 49  1  0  0  0  0
 47 43  1  0  0  0  0
 47 44  2  0  0  0  0
 48 47  1  0  0  0  0
 49 46  2  0  0  0  0
 50 53  1  6  0  0  0
 50 51  1  0  0  0  0
 52 51  1  0  0  0  0
 54 58  1  0  0  0  0
 54 55  1  0  0  0  0
 55 53  1  0  0  0  0
 57 58  1  0  0  0  0
 58 56  1  0  0  0  0
 58 55  1  0  0  0  0
M  END
>  <MODEL>
9

>  <REMARK>
 VINA RESULT:      -5.8      2.389     11.090
  Name = 
  8 active torsions:
  status: ('A' for Active; 'I' for Inactive)
    1  A    between atoms: C_5  and  N_34
    2  A    between atoms: C_5  and  C_36
    3  A    between atoms: O_8  and  C_37
    4  A    between atoms: C_21  and  C_40
    5  A    between atoms: C_21  and  C_58
    6  A    between atoms: N_26  and  N_54
    7  A    between atoms: C_27  and  C_37
    8  A    between atoms: C_37  and  N_54
                            x       y       z     vdW  Elec       q    Type
                         _______ _______ _______ _____ _____    ______ ____

>  <TORSDO>
F 8

$$$$
