=
 OpenBabel11042414023D

 31 35  0  0  0  0  0  0  0  0999 V2000
  191.4010  174.3840  142.7950 N   0  0  0  0  0  0  0  0  0  0  0  0
  190.3790  174.9530  143.4750 C   0  0  0  0  0  0  0  0  0  0  0  0
  189.2610  175.0260  142.6650 C   0  0  0  0  0  0  0  0  0  0  0  0
  190.9410  174.0560  141.5670 C   0  0  0  0  0  3  0  0  0  0  0  0
  188.7190  174.0660  140.3330 C   0  0  0  0  0  1  0  0  0  0  0  0
  189.6180  174.4400  141.4580 C   0  0  0  0  0  0  0  0  0  0  0  0
  195.6590  174.3660  144.9990 C   0  0  0  0  0  0  0  0  0  0  0  0
  194.5070  173.8100  144.4570 C   0  0  0  0  0  0  0  0  0  0  0  0
  193.8750  172.6790  144.8240 N   0  0  0  0  0  0  0  0  0  0  0  0
  193.7620  174.5400  143.5840 C   0  0  0  0  0  0  0  0  0  0  0  0
  196.0280  175.6160  144.5890 N   0  0  0  0  0  2  0  0  0  0  0  0
  195.2490  176.3360  143.7190 C   0  0  0  0  0  3  0  0  0  0  0  0
  194.0910  175.8060  143.2290 N   0  0  0  0  0  0  0  0  0  0  0  0
  196.4350  173.6700  145.9690 N   0  0  0  0  0  1  0  0  0  0  0  0
  192.6860  172.7030  144.1600 C   0  0  0  0  0  3  0  0  0  0  0  0
  192.6060  173.8360  143.3530 C   0  0  0  0  0  0  0  0  0  0  0  0
  187.8120  177.6360  142.2710 C   0  0  0  0  0  2  0  0  0  0  0  0
  187.9320  175.3260  143.1150 N   0  0  0  0  0  0  0  0  0  0  0  0
  186.6510  178.6130  142.3600 C   0  0  0  0  0  2  0  0  0  0  0  0
  185.8750  176.6000  143.3130 C   0  0  0  0  0  2  0  0  0  0  0  0
  187.2690  176.4200  142.8850 C   0  0  0  0  0  0  0  0  0  0  0  0
  185.4330  177.8950  142.7830 N   0  0  0  0  0  0  0  0  0  0  0  0
  184.7940  178.6620  143.8620 C   0  0  0  0  0  3  0  0  0  0  0  0
  185.5150  179.9840  144.1060 C   0  0  0  0  0  1  0  0  0  0  0  0
  184.8280  177.8830  145.1680 C   0  0  0  0  0  1  0  0  0  0  0  0
  190.4830  175.4470  144.8210 N   0  0  0  0  0  0  0  0  0  0  0  0
  190.7150  176.8690  145.0510 C   0  0  0  0  0  2  0  0  0  0  0  0
  189.4770  177.4640  145.7330 C   0  0  0  0  0  2  0  0  0  0  0  0
  189.1680  176.7130  146.9560 N   0  0  0  0  0  2  0  0  0  0  0  0
  190.0380  174.6460  145.9590 C   0  0  0  0  0  2  0  0  0  0  0  0
  188.8330  175.3320  146.6070 C   0  0  0  0  0  2  0  0  0  0  0  0
  1 16  1  0  0  0  0
  1  2  1  0  0  0  0
  2 26  1  0  0  0  0
  3 18  1  0  0  0  0
  3  2  2  0  0  0  0
  4  1  1  0  0  0  0
  5  6  1  0  0  0  0
  6  4  2  0  0  0  0
  6  3  1  0  0  0  0
  7 14  1  0  0  0  0
  8  9  1  0  0  0  0
  8  7  2  0  0  0  0
 10  8  1  0  0  0  0
 11  7  1  0  0  0  0
 12 11  1  0  0  0  0
 13 10  1  0  0  0  0
 13 12  2  0  0  0  0
 15  9  2  0  0  0  0
 16 10  2  0  0  0  0
 16 15  1  0  0  0  0
 17 19  1  0  0  0  0
 17 21  1  0  0  0  0
 19 22  1  0  0  0  0
 21 18  2  0  0  0  0
 21 20  1  0  0  0  0
 22 20  1  0  0  0  0
 22 23  1  0  0  0  0
 23 24  1  0  0  0  0
 23 25  1  0  0  0  0
 26 27  1  0  0  0  0
 26 30  1  0  0  0  0
 27 28  1  0  0  0  0
 28 29  1  0  0  0  0
 30 31  1  0  0  0  0
 31 29  1  0  0  0  0
M  END
>  <MODEL>
1

>  <REMARK>
 VINA RESULT:      -7.3      0.000      0.000
  Name = 
  4 active torsions:
  status: ('A' for Active; 'I' for Inactive)
    1  A    between atoms: N_1  and  C_28
    2  A    between atoms: C_3  and  N_8
    3  A    between atoms: C_5  and  N_30
    4  A    between atoms: N_6  and  C_23
                            x       y       z     vdW  Elec       q    Type
                         _______ _______ _______ _____ _____    ______ ____

>  <TORSDO>
F 4

$$$$
=
 OpenBabel11042414023D

 31 35  0  0  0  0  0  0  0  0999 V2000
  192.5240  174.8760  145.8300 N   0  0  0  0  0  0  0  0  0  0  0  0
  191.4490  175.4580  145.2500 C   0  0  0  0  0  0  0  0  0  0  0  0
  190.8450  176.3230  146.1440 C   0  0  0  0  0  0  0  0  0  0  0  0
  192.6400  175.3860  147.0770 C   0  0  0  0  0  3  0  0  0  0  0  0
  191.5280  177.1950  148.4740 C   0  0  0  0  0  1  0  0  0  0  0  0
  191.6150  176.2860  147.2980 C   0  0  0  0  0  0  0  0  0  0  0  0
  196.8760  174.2120  143.9350 C   0  0  0  0  0  0  0  0  0  0  0  0
  195.6190  173.8370  144.3900 C   0  0  0  0  0  0  0  0  0  0  0  0
  195.2410  172.6570  144.9170 N   0  0  0  0  0  2  0  0  0  0  0  0
  194.6540  174.7840  144.5370 C   0  0  0  0  0  0  0  0  0  0  0  0
  197.0800  175.5210  143.6010 N   0  0  0  0  0  0  0  0  0  0  0  0
  196.0930  176.4580  143.7740 C   0  0  0  0  0  3  0  0  0  0  0  0
  194.8750  176.0940  144.2710 N   0  0  0  0  0  0  0  0  0  0  0  0
  197.9400  173.2710  143.8300 N   0  0  0  0  0  1  0  0  0  0  0  0
  193.9940  172.8730  145.4200 C   0  0  0  0  0  3  0  0  0  0  0  0
  193.5910  174.1830  145.1640 C   0  0  0  0  0  0  0  0  0  0  0  0
  187.8920  176.0850  146.6780 C   0  0  0  0  0  2  0  0  0  0  0  0
  189.8490  177.2990  145.8060 N   0  0  0  0  0  0  0  0  0  0  0  0
  186.4380  176.5280  146.6920 C   0  0  0  0  0  2  0  0  0  0  0  0
  187.6530  178.3350  145.7870 C   0  0  0  0  0  2  0  0  0  0  0  0
  188.5840  177.2420  146.0990 C   0  0  0  0  0  0  0  0  0  0  0  0
  186.3560  177.9630  146.3630 N   0  0  0  0  0  0  0  0  0  0  0  0
  185.3090  178.1480  145.3470 C   0  0  0  0  0  3  0  0  0  0  0  0
  185.7630  179.1080  144.2520 C   0  0  0  0  0  1  0  0  0  0  0  0
  184.0530  178.7360  145.9700 C   0  0  0  0  0  1  0  0  0  0  0  0
  190.9940  175.1630  143.9190 N   0  0  0  0  0  0  0  0  0  0  0  0
  189.9840  174.1290  143.7150 C   0  0  0  0  0  2  0  0  0  0  0  0
  188.7030  174.7910  143.1930 C   0  0  0  0  0  2  0  0  0  0  0  0
  188.9980  175.5720  141.9850 N   0  0  0  0  0  2  0  0  0  0  0  0
  191.2540  176.0760  142.8090 C   0  0  0  0  0  2  0  0  0  0  0  0
  189.9240  176.6540  142.3190 C   0  0  0  0  0  2  0  0  0  0  0  0
  1  4  1  0  0  0  0
  2  1  1  0  0  0  0
  2  3  2  0  0  0  0
  3  6  1  0  0  0  0
  4  6  2  0  0  0  0
  6  5  1  0  0  0  0
  7  8  1  0  0  0  0
  8 10  2  0  0  0  0
  8  9  1  0  0  0  0
  9 15  1  0  0  0  0
 10 16  1  0  0  0  0
 11 12  1  0  0  0  0
 11  7  2  0  0  0  0
 12 13  2  0  0  0  0
 13 10  1  0  0  0  0
 14  7  1  0  0  0  0
 16 15  2  0  0  0  0
 16  1  1  0  0  0  0
 17 19  1  0  0  0  0
 18 21  2  0  0  0  0
 18  3  1  0  0  0  0
 20 21  1  0  0  0  0
 20 22  1  0  0  0  0
 21 17  1  0  0  0  0
 22 19  1  0  0  0  0
 23 25  1  0  0  0  0
 23 22  1  0  0  0  0
 24 23  1  0  0  0  0
 26  2  1  0  0  0  0
 27 26  1  0  0  0  0
 28 27  1  0  0  0  0
 29 31  1  0  0  0  0
 29 28  1  0  0  0  0
 30 26  1  0  0  0  0
 31 30  1  0  0  0  0
M  END
>  <MODEL>
2

>  <REMARK>
 VINA RESULT:      -6.9      1.765      3.632
  Name = 
  4 active torsions:
  status: ('A' for Active; 'I' for Inactive)
    1  A    between atoms: N_1  and  C_28
    2  A    between atoms: C_3  and  N_8
    3  A    between atoms: C_5  and  N_30
    4  A    between atoms: N_6  and  C_23
                            x       y       z     vdW  Elec       q    Type
                         _______ _______ _______ _____ _____    ______ ____

>  <TORSDO>
F 4

$$$$
=
 OpenBabel11042414023D

 31 35  0  0  0  0  0  0  0  0999 V2000
  189.3770  176.9310  145.0230 N   0  0  0  0  0  0  0  0  0  0  0  0
  190.2490  175.9590  144.6690 C   0  0  0  0  0  0  0  0  0  0  0  0
  191.1700  175.7650  145.6820 C   0  0  0  0  0  0  0  0  0  0  0  0
  189.7050  177.3390  146.2700 C   0  0  0  0  0  3  0  0  0  0  0  0
  191.3380  176.6600  148.0950 C   0  0  0  0  0  1  0  0  0  0  0  0
  190.8110  176.6330  146.7040 C   0  0  0  0  0  0  0  0  0  0  0  0
  184.7600  178.2010  144.7910 C   0  0  0  0  0  0  0  0  0  0  0  0
  186.0190  177.8910  144.2910 C   0  0  0  0  0  0  0  0  0  0  0  0
  186.6030  178.3410  143.1640 N   0  0  0  0  0  0  0  0  0  0  0  0
  186.9000  177.2180  145.0780 C   0  0  0  0  0  0  0  0  0  0  0  0
  184.4380  177.7670  146.0460 N   0  0  0  0  0  2  0  0  0  0  0  0
  185.3520  177.1030  146.8230 C   0  0  0  0  0  3  0  0  0  0  0  0
  186.6050  176.8470  146.3480 N   0  0  0  0  0  0  0  0  0  0  0  0
  183.8270  178.9640  144.0330 N   0  0  0  0  0  1  0  0  0  0  0  0
  187.9010  177.9400  143.2500 C   0  0  0  0  0  3  0  0  0  0  0  0
  188.1040  177.2070  144.4180 C   0  0  0  0  0  0  0  0  0  0  0  0
  194.1400  175.8650  145.1940 C   0  0  0  0  0  2  0  0  0  0  0  0
  192.0750  174.6550  145.7750 N   0  0  0  0  0  0  0  0  0  0  0  0
  195.5570  175.3240  145.1100 C   0  0  0  0  0  2  0  0  0  0  0  0
  194.2220  173.5240  145.8430 C   0  0  0  0  0  2  0  0  0  0  0  0
  193.3670  174.7010  145.6420 C   0  0  0  0  0  0  0  0  0  0  0  0
  195.6110  173.9830  145.7210 N   0  0  0  0  0  0  0  0  0  0  0  0
  196.3340  173.0850  144.8090 C   0  0  0  0  0  3  0  0  0  0  0  0
  196.7840  171.8140  145.5220 C   0  0  0  0  0  1  0  0  0  0  0  0
  197.5840  173.7630  144.2670 C   0  0  0  0  0  1  0  0  0  0  0  0
  190.2300  175.2820  143.4020 N   0  0  0  0  0  0  0  0  0  0  0  0
  191.1990  175.6480  142.3740 C   0  0  0  0  0  2  0  0  0  0  0  0
  192.1400  174.4600  142.1400 C   0  0  0  0  0  2  0  0  0  0  0  0
  191.3590  173.2600  141.8120 N   0  0  0  0  0  2  0  0  0  0  0  0
  189.5040  174.0280  143.2230 C   0  0  0  0  0  2  0  0  0  0  0  0
  190.5090  172.9070  142.9490 C   0  0  0  0  0  2  0  0  0  0  0  0
  1  4  1  0  0  0  0
  2  1  1  0  0  0  0
  2  3  2  0  0  0  0
  3 18  1  0  0  0  0
  3  6  1  0  0  0  0
  4  6  2  0  0  0  0
  6  5  1  0  0  0  0
  7 11  1  0  0  0  0
  8  7  2  0  0  0  0
  8 10  1  0  0  0  0
  9 15  2  0  0  0  0
  9  8  1  0  0  0  0
 10 13  1  0  0  0  0
 11 12  1  0  0  0  0
 13 12  2  0  0  0  0
 14  7  1  0  0  0  0
 15 16  1  0  0  0  0
 16  1  1  0  0  0  0
 16 10  2  0  0  0  0
 17 21  1  0  0  0  0
 19 17  1  0  0  0  0
 19 22  1  0  0  0  0
 21 18  2  0  0  0  0
 21 20  1  0  0  0  0
 22 20  1  0  0  0  0
 23 24  1  0  0  0  0
 23 22  1  0  0  0  0
 25 23  1  0  0  0  0
 26  2  1  0  0  0  0
 27 26  1  0  0  0  0
 28 27  1  0  0  0  0
 29 28  1  0  0  0  0
 29 31  1  0  0  0  0
 30 26  1  0  0  0  0
 31 30  1  0  0  0  0
M  END
>  <MODEL>
3

>  <REMARK>
 VINA RESULT:      -6.8      1.828      8.463
  Name = 
  4 active torsions:
  status: ('A' for Active; 'I' for Inactive)
    1  A    between atoms: N_1  and  C_28
    2  A    between atoms: C_3  and  N_8
    3  A    between atoms: C_5  and  N_30
    4  A    between atoms: N_6  and  C_23
                            x       y       z     vdW  Elec       q    Type
                         _______ _______ _______ _____ _____    ______ ____

>  <TORSDO>
F 4

$$$$
=
 OpenBabel11042414023D

 31 35  0  0  0  0  0  0  0  0999 V2000
  191.8990  174.2000  145.4220 N   0  0  0  0  0  0  0  0  0  0  0  0
  190.5470  174.2250  145.3710 C   0  0  0  0  0  0  0  0  0  0  0  0
  190.0560  175.0340  146.3790 C   0  0  0  0  0  0  0  0  0  0  0  0
  192.2840  175.0160  146.4290 C   0  0  0  0  0  3  0  0  0  0  0  0
  191.1910  176.6400  148.0490 C   0  0  0  0  0  1  0  0  0  0  0  0
  191.1640  175.5480  147.0380 C   0  0  0  0  0  0  0  0  0  0  0  0
  195.1140  174.5680  141.8850 C   0  0  0  0  0  0  0  0  0  0  0  0
  194.3430  173.9130  142.8370 C   0  0  0  0  0  0  0  0  0  0  0  0
  194.6280  172.7790  143.5050 N   0  0  0  0  0  2  0  0  0  0  0  0
  193.2510  174.5380  143.3530 C   0  0  0  0  0  0  0  0  0  0  0  0
  194.7100  175.8030  141.4630 N   0  0  0  0  0  0  0  0  0  0  0  0
  193.6120  176.4160  142.0120 C   0  0  0  0  0  3  0  0  0  0  0  0
  192.8880  175.7910  142.9860 N   0  0  0  0  0  0  0  0  0  0  0  0
  196.3050  173.9850  141.3650 N   0  0  0  0  0  1  0  0  0  0  0  0
  193.6820  172.6920  144.4810 C   0  0  0  0  0  3  0  0  0  0  0  0
  192.7900  173.7590  144.3860 C   0  0  0  0  0  0  0  0  0  0  0  0
  188.8440  177.2670  144.7640 C   0  0  0  0  0  2  0  0  0  0  0  0
  188.7030  175.5040  146.4770 N   0  0  0  0  0  0  0  0  0  0  0  0
  187.7480  178.2060  144.2860 C   0  0  0  0  0  2  0  0  0  0  0  0
  186.7270  176.7680  145.8510 C   0  0  0  0  0  2  0  0  0  0  0  0
  188.1480  176.4140  145.7330 C   0  0  0  0  0  0  0  0  0  0  0  0
  186.4420  177.7370  144.7860 N   0  0  0  0  0  0  0  0  0  0  0  0
  185.7250  178.8840  145.3610 C   0  0  0  0  0  3  0  0  0  0  0  0
  184.5280  178.4310  146.1900 C   0  0  0  0  0  1  0  0  0  0  0  0
  185.1930  179.7910  144.2610 C   0  0  0  0  0  1  0  0  0  0  0  0
  189.7620  173.4710  144.4330 N   0  0  0  0  0  0  0  0  0  0  0  0
  189.3010  174.1070  143.2030 C   0  0  0  0  0  2  0  0  0  0  0  0
  189.9930  173.4320  142.0120 C   0  0  0  0  0  2  0  0  0  0  0  0
  189.7570  171.9830  142.0500 N   0  0  0  0  0  2  0  0  0  0  0  0
  189.6900  172.0140  144.5030 C   0  0  0  0  0  2  0  0  0  0  0  0
  190.3600  171.4240  143.2600 C   0  0  0  0  0  2  0  0  0  0  0  0
  1  4  1  0  0  0  0
  2  1  1  0  0  0  0
  2  3  2  0  0  0  0
  3 18  1  0  0  0  0
  3  6  1  0  0  0  0
  4  6  2  0  0  0  0
  6  5  1  0  0  0  0
  7  8  1  0  0  0  0
  8 10  2  0  0  0  0
  8  9  1  0  0  0  0
  9 15  1  0  0  0  0
 10 16  1  0  0  0  0
 11  7  2  0  0  0  0
 11 12  1  0  0  0  0
 12 13  2  0  0  0  0
 13 10  1  0  0  0  0
 14  7  1  0  0  0  0
 16 15  2  0  0  0  0
 16  1  1  0  0  0  0
 17 21  1  0  0  0  0
 19 17  1  0  0  0  0
 19 22  1  0  0  0  0
 21 20  1  0  0  0  0
 21 18  2  0  0  0  0
 22 23  1  0  0  0  0
 22 20  1  0  0  0  0
 23 24  1  0  0  0  0
 25 23  1  0  0  0  0
 26 30  1  0  0  0  0
 26  2  1  0  0  0  0
 27 26  1  0  0  0  0
 28 29  1  0  0  0  0
 28 27  1  0  0  0  0
 29 31  1  0  0  0  0
 31 30  1  0  0  0  0
M  END
>  <MODEL>
4

>  <REMARK>
 VINA RESULT:      -6.7      1.909      3.639
  Name = 
  4 active torsions:
  status: ('A' for Active; 'I' for Inactive)
    1  A    between atoms: N_1  and  C_28
    2  A    between atoms: C_3  and  N_8
    3  A    between atoms: C_5  and  N_30
    4  A    between atoms: N_6  and  C_23
                            x       y       z     vdW  Elec       q    Type
                         _______ _______ _______ _____ _____    ______ ____

>  <TORSDO>
F 4

$$$$
=
 OpenBabel11042414023D

 31 35  0  0  0  0  0  0  0  0999 V2000
  188.2540  175.3470  143.3530 N   0  0  0  0  0  0  0  0  0  0  0  0
  189.1970  175.1700  144.3080 C   0  0  0  0  0  0  0  0  0  0  0  0
  190.0090  174.1020  143.9720 C   0  0  0  0  0  0  0  0  0  0  0  0
  188.4750  174.4270  142.3870 C   0  0  0  0  0  3  0  0  0  0  0  0
  190.2210  172.6620  141.8420 C   0  0  0  0  0  1  0  0  0  0  0  0
  189.5560  173.6430  142.7420 C   0  0  0  0  0  0  0  0  0  0  0  0
  185.4430  179.0470  144.5330 C   0  0  0  0  0  0  0  0  0  0  0  0
  186.2400  178.2730  143.6990 C   0  0  0  0  0  0  0  0  0  0  0  0
  186.9930  178.6730  142.6570 N   0  0  0  0  0  0  0  0  0  0  0  0
  186.4980  176.9800  144.0360 C   0  0  0  0  0  0  0  0  0  0  0  0
  184.9030  178.4580  145.6410 N   0  0  0  0  0  2  0  0  0  0  0  0
  185.1930  177.1570  145.9650 C   0  0  0  0  0  3  0  0  0  0  0  0
  186.0180  176.4150  145.1710 N   0  0  0  0  0  0  0  0  0  0  0  0
  185.2010  180.4240  144.2610 N   0  0  0  0  0  1  0  0  0  0  0  0
  187.7550  177.5930  142.3310 C   0  0  0  0  0  3  0  0  0  0  0  0
  187.4410  176.5130  143.1540 C   0  0  0  0  0  0  0  0  0  0  0  0
  192.6410  175.4720  143.4610 C   0  0  0  0  0  2  0  0  0  0  0  0
  191.2580  173.7830  144.6020 N   0  0  0  0  0  0  0  0  0  0  0  0
  194.1220  175.7560  143.6430 C   0  0  0  0  0  2  0  0  0  0  0  0
  193.5930  174.0680  145.2030 C   0  0  0  0  0  2  0  0  0  0  0  0
  192.3830  174.4160  144.4460 C   0  0  0  0  0  0  0  0  0  0  0  0
  194.6140  175.0600  144.8480 N   0  0  0  0  0  0  0  0  0  0  0  0
  195.8620  174.3620  144.5040 C   0  0  0  0  0  3  0  0  0  0  0  0
  196.5440  173.8010  145.7480 C   0  0  0  0  0  1  0  0  0  0  0  0
  196.8460  175.3160  143.8430 C   0  0  0  0  0  1  0  0  0  0  0  0
  189.2850  175.9550  145.5080 N   0  0  0  0  0  0  0  0  0  0  0  0
  188.9720  175.3430  146.7950 C   0  0  0  0  0  2  0  0  0  0  0  0
  190.2520  175.2890  147.6380 C   0  0  0  0  0  2  0  0  0  0  0  0
  190.8340  176.6330  147.7520 N   0  0  0  0  0  2  0  0  0  0  0  0
  189.9900  177.2340  145.5270 C   0  0  0  0  0  2  0  0  0  0  0  0
  191.2230  177.1080  146.4240 C   0  0  0  0  0  2  0  0  0  0  0  0
  1  2  1  0  0  0  0
  2 26  1  0  0  0  0
  3  2  2  0  0  0  0
  3 18  1  0  0  0  0
  4  6  2  0  0  0  0
  4  1  1  0  0  0  0
  5  6  1  0  0  0  0
  6  3  1  0  0  0  0
  7 11  1  0  0  0  0
  8 10  1  0  0  0  0
  8  7  2  0  0  0  0
  9  8  1  0  0  0  0
 10 13  1  0  0  0  0
 11 12  1  0  0  0  0
 13 12  2  0  0  0  0
 14  7  1  0  0  0  0
 15  9  2  0  0  0  0
 15 16  1  0  0  0  0
 16  1  1  0  0  0  0
 16 10  2  0  0  0  0
 17 19  1  0  0  0  0
 17 21  1  0  0  0  0
 19 22  1  0  0  0  0
 21 18  2  0  0  0  0
 21 20  1  0  0  0  0
 22 20  1  0  0  0  0
 23 22  1  0  0  0  0
 23 24  1  0  0  0  0
 25 23  1  0  0  0  0
 26 30  1  0  0  0  0
 26 27  1  0  0  0  0
 27 28  1  0  0  0  0
 28 29  1  0  0  0  0
 30 31  1  0  0  0  0
 31 29  1  0  0  0  0
M  END
>  <MODEL>
5

>  <REMARK>
 VINA RESULT:      -6.7      1.531      7.553
  Name = 
  4 active torsions:
  status: ('A' for Active; 'I' for Inactive)
    1  A    between atoms: N_1  and  C_28
    2  A    between atoms: C_3  and  N_8
    3  A    between atoms: C_5  and  N_30
    4  A    between atoms: N_6  and  C_23
                            x       y       z     vdW  Elec       q    Type
                         _______ _______ _______ _____ _____    ______ ____

>  <TORSDO>
F 4

$$$$
=
 OpenBabel11042414023D

 31 35  0  0  0  0  0  0  0  0999 V2000
  192.2290  175.1960  145.2650 N   0  0  0  0  0  0  0  0  0  0  0  0
  191.1070  174.7480  144.6570 C   0  0  0  0  0  0  0  0  0  0  0  0
  190.0110  175.4560  145.1150 C   0  0  0  0  0  0  0  0  0  0  0  0
  191.8720  176.2110  146.0830 C   0  0  0  0  0  3  0  0  0  0  0  0
  189.7730  177.5450  146.6100 C   0  0  0  0  0  1  0  0  0  0  0  0
  190.5040  176.3960  146.0100 C   0  0  0  0  0  0  0  0  0  0  0  0
  196.3270  175.9450  142.8930 C   0  0  0  0  0  0  0  0  0  0  0  0
  195.4990  175.3660  143.8460 C   0  0  0  0  0  0  0  0  0  0  0  0
  195.8340  174.8760  145.0550 N   0  0  0  0  0  2  0  0  0  0  0  0
  194.1500  175.4490  143.6950 C   0  0  0  0  0  0  0  0  0  0  0  0
  195.7480  176.5370  141.8060 N   0  0  0  0  0  0  0  0  0  0  0  0
  194.3840  176.6190  141.6870 C   0  0  0  0  0  3  0  0  0  0  0  0
  193.5740  176.0950  142.6520 N   0  0  0  0  0  0  0  0  0  0  0  0
  197.7440  175.9460  143.0420 N   0  0  0  0  0  1  0  0  0  0  0  0
  194.6500  174.6490  145.6890 C   0  0  0  0  0  3  0  0  0  0  0  0
  193.5840  174.9650  144.8480 C   0  0  0  0  0  0  0  0  0  0  0  0
  189.0330  177.3270  142.9690 C   0  0  0  0  0  2  0  0  0  0  0  0
  188.7070  175.4400  144.5170 N   0  0  0  0  0  0  0  0  0  0  0  0
  188.0510  177.8980  141.9600 C   0  0  0  0  0  2  0  0  0  0  0  0
  186.9690  176.0410  142.9320 C   0  0  0  0  0  2  0  0  0  0  0  0
  188.2990  176.1920  143.5390 C   0  0  0  0  0  0  0  0  0  0  0  0
  186.9130  176.9720  141.7990 N   0  0  0  0  0  0  0  0  0  0  0  0
  185.6670  177.7490  141.8780 C   0  0  0  0  0  3  0  0  0  0  0  0
  185.2640  178.2910  140.5100 C   0  0  0  0  0  1  0  0  0  0  0  0
  185.8380  178.9450  142.8030 C   0  0  0  0  0  1  0  0  0  0  0  0
  191.0790  173.6610  143.7170 N   0  0  0  0  0  0  0  0  0  0  0  0
  190.7280  172.3210  144.1750 C   0  0  0  0  0  2  0  0  0  0  0  0
  189.3970  171.9150  143.5310 C   0  0  0  0  0  2  0  0  0  0  0  0
  189.4900  172.0320  142.0700 N   0  0  0  0  0  2  0  0  0  0  0  0
  191.0630  173.9040  142.2770 C   0  0  0  0  0  2  0  0  0  0  0  0
  189.7230  173.4300  141.7080 C   0  0  0  0  0  2  0  0  0  0  0  0
  1  4  1  0  0  0  0
  2  3  2  0  0  0  0
  2  1  1  0  0  0  0
  3  6  1  0  0  0  0
  6  4  2  0  0  0  0
  6  5  1  0  0  0  0
  7 14  1  0  0  0  0
  7  8  1  0  0  0  0
  8  9  1  0  0  0  0
  9 15  1  0  0  0  0
 10  8  2  0  0  0  0
 10 16  1  0  0  0  0
 11  7  2  0  0  0  0
 12 11  1  0  0  0  0
 12 13  2  0  0  0  0
 13 10  1  0  0  0  0
 16  1  1  0  0  0  0
 16 15  2  0  0  0  0
 17 21  1  0  0  0  0
 18  3  1  0  0  0  0
 19 17  1  0  0  0  0
 20 21  1  0  0  0  0
 21 18  2  0  0  0  0
 22 23  1  0  0  0  0
 22 19  1  0  0  0  0
 22 20  1  0  0  0  0
 23 25  1  0  0  0  0
 24 23  1  0  0  0  0
 26 27  1  0  0  0  0
 26  2  1  0  0  0  0
 28 27  1  0  0  0  0
 29 28  1  0  0  0  0
 30 26  1  0  0  0  0
 31 29  1  0  0  0  0
 31 30  1  0  0  0  0
M  END
>  <MODEL>
6

>  <REMARK>
 VINA RESULT:      -6.7      1.628      3.501
  Name = 
  4 active torsions:
  status: ('A' for Active; 'I' for Inactive)
    1  A    between atoms: N_1  and  C_28
    2  A    between atoms: C_3  and  N_8
    3  A    between atoms: C_5  and  N_30
    4  A    between atoms: N_6  and  C_23
                            x       y       z     vdW  Elec       q    Type
                         _______ _______ _______ _____ _____    ______ ____

>  <TORSDO>
F 4

$$$$
=
 OpenBabel11042414023D

 31 35  0  0  0  0  0  0  0  0999 V2000
  192.3480  174.8920  142.9150 N   0  0  0  0  0  0  0  0  0  0  0  0
  191.1850  175.3390  143.4410 C   0  0  0  0  0  0  0  0  0  0  0  0
  190.1410  175.0530  142.5810 C   0  0  0  0  0  0  0  0  0  0  0  0
  192.0590  174.2880  141.7400 C   0  0  0  0  0  3  0  0  0  0  0  0
  189.9820  173.6490  140.4220 C   0  0  0  0  0  1  0  0  0  0  0  0
  190.6990  174.3710  141.5080 C   0  0  0  0  0  0  0  0  0  0  0  0
  195.9370  172.4860  144.9910 C   0  0  0  0  0  0  0  0  0  0  0  0
  195.2880  173.5970  144.4690 C   0  0  0  0  0  0  0  0  0  0  0  0
  195.8320  174.6870  143.8950 N   0  0  0  0  0  0  0  0  0  0  0  0
  193.9390  173.5640  144.3020 C   0  0  0  0  0  0  0  0  0  0  0  0
  195.1800  171.4120  145.3670 N   0  0  0  0  0  2  0  0  0  0  0  0
  193.8220  171.3990  145.1730 C   0  0  0  0  0  3  0  0  0  0  0  0
  193.1950  172.4730  144.6110 N   0  0  0  0  0  0  0  0  0  0  0  0
  197.3550  172.4450  145.1210 N   0  0  0  0  0  1  0  0  0  0  0  0
  194.7860  175.3590  143.3410 C   0  0  0  0  0  3  0  0  0  0  0  0
  193.5890  174.6970  143.6110 C   0  0  0  0  0  0  0  0  0  0  0  0
  188.2850  177.2990  141.8220 C   0  0  0  0  0  2  0  0  0  0  0  0
  188.7480  175.1400  142.9130 N   0  0  0  0  0  0  0  0  0  0  0  0
  186.9650  178.0470  141.7350 C   0  0  0  0  0  2  0  0  0  0  0  0
  186.4870  176.0220  142.8460 C   0  0  0  0  0  2  0  0  0  0  0  0
  187.9200  176.0660  142.5270 C   0  0  0  0  0  0  0  0  0  0  0  0
  185.8650  177.1580  142.1550 N   0  0  0  0  0  0  0  0  0  0  0  0
  185.0130  177.8890  143.1040 C   0  0  0  0  0  3  0  0  0  0  0  0
  183.6830  178.2800  142.4690 C   0  0  0  0  0  1  0  0  0  0  0  0
  185.6920  179.1740  143.5540 C   0  0  0  0  0  1  0  0  0  0  0  0
  191.0840  176.0480  144.6870 N   0  0  0  0  0  0  0  0  0  0  0  0
  190.9040  177.4960  144.6800 C   0  0  0  0  0  2  0  0  0  0  0  0
  189.5190  177.8220  145.2520 C   0  0  0  0  0  2  0  0  0  0  0  0
  189.3720  177.2170  146.5820 N   0  0  0  0  0  2  0  0  0  0  0  0
  190.8240  175.3450  145.9410 C   0  0  0  0  0  2  0  0  0  0  0  0
  189.4470  175.7600  146.4660 C   0  0  0  0  0  2  0  0  0  0  0  0
  1  2  1  0  0  0  0
  1 16  1  0  0  0  0
  2 26  1  0  0  0  0
  3 18  1  0  0  0  0
  3  2  2  0  0  0  0
  4  1  1  0  0  0  0
  5  6  1  0  0  0  0
  6  4  2  0  0  0  0
  6  3  1  0  0  0  0
  7 14  1  0  0  0  0
  7 11  1  0  0  0  0
  8  7  2  0  0  0  0
  9  8  1  0  0  0  0
 10  8  1  0  0  0  0
 10 13  1  0  0  0  0
 12 11  1  0  0  0  0
 13 12  2  0  0  0  0
 15 16  1  0  0  0  0
 15  9  2  0  0  0  0
 16 10  2  0  0  0  0
 17 21  1  0  0  0  0
 19 17  1  0  0  0  0
 19 22  1  0  0  0  0
 21 20  1  0  0  0  0
 21 18  2  0  0  0  0
 22 20  1  0  0  0  0
 22 23  1  0  0  0  0
 23 25  1  0  0  0  0
 24 23  1  0  0  0  0
 26 30  1  0  0  0  0
 27 26  1  0  0  0  0
 27 28  1  0  0  0  0
 28 29  1  0  0  0  0
 30 31  1  0  0  0  0
 31 29  1  0  0  0  0
M  END
>  <MODEL>
7

>  <REMARK>
 VINA RESULT:      -6.6      1.117      1.997
  Name = 
  4 active torsions:
  status: ('A' for Active; 'I' for Inactive)
    1  A    between atoms: N_1  and  C_28
    2  A    between atoms: C_3  and  N_8
    3  A    between atoms: C_5  and  N_30
    4  A    between atoms: N_6  and  C_23
                            x       y       z     vdW  Elec       q    Type
                         _______ _______ _______ _____ _____    ______ ____

>  <TORSDO>
F 4

$$$$
=
 OpenBabel11042414023D

 31 35  0  0  0  0  0  0  0  0999 V2000
  190.9780  176.2650  144.8430 N   0  0  0  0  0  0  0  0  0  0  0  0
  191.2930  175.1800  144.0990 C   0  0  0  0  0  0  0  0  0  0  0  0
  192.6560  175.1510  143.8660 C   0  0  0  0  0  0  0  0  0  0  0  0
  192.1300  176.9150  145.1230 C   0  0  0  0  0  3  0  0  0  0  0  0
  194.6220  176.5460  144.7850 C   0  0  0  0  0  1  0  0  0  0  0  0
  193.1860  176.2470  144.5330 C   0  0  0  0  0  0  0  0  0  0  0  0
  186.2930  177.0460  145.4950 C   0  0  0  0  0  0  0  0  0  0  0  0
  187.5940  176.7390  145.8730 C   0  0  0  0  0  0  0  0  0  0  0  0
  188.0050  175.9670  146.8960 N   0  0  0  0  0  2  0  0  0  0  0  0
  188.6220  177.0580  145.0410 C   0  0  0  0  0  0  0  0  0  0  0  0
  186.1010  177.7070  144.3150 N   0  0  0  0  0  0  0  0  0  0  0  0
  187.1550  178.0030  143.4880 C   0  0  0  0  0  3  0  0  0  0  0  0
  188.4260  177.6530  143.8390 N   0  0  0  0  0  0  0  0  0  0  0  0
  185.1780  176.6710  146.2980 N   0  0  0  0  0  1  0  0  0  0  0  0
  189.3400  175.7890  146.6950 C   0  0  0  0  0  3  0  0  0  0  0  0
  189.7560  176.4890  145.5640 C   0  0  0  0  0  0  0  0  0  0  0  0
  193.7650  172.8640  145.4810 C   0  0  0  0  0  2  0  0  0  0  0  0
  193.3820  174.0280  143.3450 N   0  0  0  0  0  0  0  0  0  0  0  0
  194.4760  171.5430  145.7190 C   0  0  0  0  0  2  0  0  0  0  0  0
  194.4600  171.8540  143.3810 C   0  0  0  0  0  2  0  0  0  0  0  0
  193.7990  173.0000  144.0210 C   0  0  0  0  0  0  0  0  0  0  0  0
  194.6800  170.8520  144.4320 N   0  0  0  0  0  0  0  0  0  0  0  0
  196.0740  170.3890  144.3680 C   0  0  0  0  0  3  0  0  0  0  0  0
  196.8710  170.8610  145.5800 C   0  0  0  0  0  1  0  0  0  0  0  0
  196.7670  170.9410  143.1320 C   0  0  0  0  0  1  0  0  0  0  0  0
  190.3280  174.2420  143.5950 N   0  0  0  0  0  0  0  0  0  0  0  0
  189.9030  174.3240  142.2010 C   0  0  0  0  0  2  0  0  0  0  0  0
  190.3870  173.0680  141.4650 C   0  0  0  0  0  2  0  0  0  0  0  0
  189.9060  171.8650  142.1570 N   0  0  0  0  0  2  0  0  0  0  0  0
  190.0100  173.0160  144.3220 C   0  0  0  0  0  2  0  0  0  0  0  0
  190.4830  171.8140  143.5010 C   0  0  0  0  0  2  0  0  0  0  0  0
  1  4  1  0  0  0  0
  1 16  1  0  0  0  0
  2  1  1  0  0  0  0
  3  2  2  0  0  0  0
  3  6  1  0  0  0  0
  6  5  1  0  0  0  0
  6  4  2  0  0  0  0
  7  8  1  0  0  0  0
  7 14  1  0  0  0  0
  8  9  1  0  0  0  0
 10 16  1  0  0  0  0
 10  8  2  0  0  0  0
 11  7  2  0  0  0  0
 12 13  2  0  0  0  0
 12 11  1  0  0  0  0
 13 10  1  0  0  0  0
 15  9  1  0  0  0  0
 16 15  2  0  0  0  0
 17 19  1  0  0  0  0
 18  3  1  0  0  0  0
 18 21  2  0  0  0  0
 20 21  1  0  0  0  0
 20 22  1  0  0  0  0
 21 17  1  0  0  0  0
 22 19  1  0  0  0  0
 23 22  1  0  0  0  0
 23 24  1  0  0  0  0
 25 23  1  0  0  0  0
 26  2  1  0  0  0  0
 26 30  1  0  0  0  0
 27 26  1  0  0  0  0
 28 29  1  0  0  0  0
 28 27  1  0  0  0  0
 29 31  1  0  0  0  0
 31 30  1  0  0  0  0
M  END
>  <MODEL>
8

>  <REMARK>
 VINA RESULT:      -6.5      2.109      8.052
  Name = 
  4 active torsions:
  status: ('A' for Active; 'I' for Inactive)
    1  A    between atoms: N_1  and  C_28
    2  A    between atoms: C_3  and  N_8
    3  A    between atoms: C_5  and  N_30
    4  A    between atoms: N_6  and  C_23
                            x       y       z     vdW  Elec       q    Type
                         _______ _______ _______ _____ _____    ______ ____

>  <TORSDO>
F 4

$$$$
=
 OpenBabel11042414023D

 31 35  0  0  0  0  0  0  0  0999 V2000
  193.1780  175.2100  145.6750 N   0  0  0  0  0  0  0  0  0  0  0  0
  191.8970  174.8240  145.4680 C   0  0  0  0  0  0  0  0  0  0  0  0
  191.0890  175.3250  146.4710 C   0  0  0  0  0  0  0  0  0  0  0  0
  193.1950  175.9860  146.7820 C   0  0  0  0  0  3  0  0  0  0  0  0
  191.5060  177.0030  148.3860 C   0  0  0  0  0  1  0  0  0  0  0  0
  191.9150  176.0770  147.2950 C   0  0  0  0  0  0  0  0  0  0  0  0
  196.4100  173.3060  142.6910 C   0  0  0  0  0  0  0  0  0  0  0  0
  195.6610  174.3210  143.2710 C   0  0  0  0  0  0  0  0  0  0  0  0
  195.2540  175.4780  142.7160 N   0  0  0  0  0  0  0  0  0  0  0  0
  195.0610  174.1030  144.4720 C   0  0  0  0  0  0  0  0  0  0  0  0
  196.5590  172.1360  143.3820 N   0  0  0  0  0  2  0  0  0  0  0  0
  195.9300  171.9380  144.5850 C   0  0  0  0  0  3  0  0  0  0  0  0
  195.1520  172.9190  145.1260 N   0  0  0  0  0  0  0  0  0  0  0  0
  197.0000  173.4590  141.4040 N   0  0  0  0  0  1  0  0  0  0  0  0
  194.3620  176.0040  143.6000 C   0  0  0  0  0  3  0  0  0  0  0  0
  194.2500  175.1830  144.7200 C   0  0  0  0  0  0  0  0  0  0  0  0
  189.3760  177.3290  145.0170 C   0  0  0  0  0  2  0  0  0  0  0  0
  189.6540  175.3430  146.4460 N   0  0  0  0  0  0  0  0  0  0  0  0
  188.0860  177.9620  144.5240 C   0  0  0  0  0  2  0  0  0  0  0  0
  187.4420  176.0400  145.7300 C   0  0  0  0  0  2  0  0  0  0  0  0
  188.9060  176.1560  145.7610 C   0  0  0  0  0  0  0  0  0  0  0  0
  186.9580  177.0440  144.7750 N   0  0  0  0  0  0  0  0  0  0  0  0
  185.8660  177.8080  145.3940 C   0  0  0  0  0  3  0  0  0  0  0  0
  185.1860  177.0070  146.5000 C   0  0  0  0  0  1  0  0  0  0  0  0
  184.7980  178.1500  144.3660 C   0  0  0  0  0  1  0  0  0  0  0  0
  191.4770  173.9750  144.3870 N   0  0  0  0  0  0  0  0  0  0  0  0
  191.2130  172.5630  144.6390 C   0  0  0  0  0  2  0  0  0  0  0  0
  189.7180  172.2970  144.4280 C   0  0  0  0  0  2  0  0  0  0  0  0
  189.3150  172.7400  143.0870 N   0  0  0  0  0  2  0  0  0  0  0  0
  190.9880  174.5350  143.1300 C   0  0  0  0  0  2  0  0  0  0  0  0
  189.5050  174.1860  142.9750 C   0  0  0  0  0  2  0  0  0  0  0  0
  1  4  1  0  0  0  0
  2  1  1  0  0  0  0
  2  3  2  0  0  0  0
  3  6  1  0  0  0  0
  4  6  2  0  0  0  0
  6  5  1  0  0  0  0
  7  8  2  0  0  0  0
  7 11  1  0  0  0  0
  8 10  1  0  0  0  0
  9  8  1  0  0  0  0
  9 15  2  0  0  0  0
 10 16  2  0  0  0  0
 10 13  1  0  0  0  0
 11 12  1  0  0  0  0
 12 13  2  0  0  0  0
 14  7  1  0  0  0  0
 15 16  1  0  0  0  0
 16  1  1  0  0  0  0
 17 21  1  0  0  0  0
 18  3  1  0  0  0  0
 19 22  1  0  0  0  0
 19 17  1  0  0  0  0
 20 21  1  0  0  0  0
 21 18  2  0  0  0  0
 22 23  1  0  0  0  0
 22 20  1  0  0  0  0
 23 24  1  0  0  0  0
 25 23  1  0  0  0  0
 26 27  1  0  0  0  0
 26  2  1  0  0  0  0
 28 27  1  0  0  0  0
 29 28  1  0  0  0  0
 30 26  1  0  0  0  0
 31 29  1  0  0  0  0
 31 30  1  0  0  0  0
M  END
>  <MODEL>
9

>  <REMARK>
 VINA RESULT:      -6.5      2.064      3.994
  Name = 
  4 active torsions:
  status: ('A' for Active; 'I' for Inactive)
    1  A    between atoms: N_1  and  C_28
    2  A    between atoms: C_3  and  N_8
    3  A    between atoms: C_5  and  N_30
    4  A    between atoms: N_6  and  C_23
                            x       y       z     vdW  Elec       q    Type
                         _______ _______ _______ _____ _____    ______ ____

>  <TORSDO>
F 4

$$$$
