=
 OpenBabel11042417493D

 57 60  0  0  1  0  0  0  0  0999 V2000
  187.7000  176.7720  141.5600 C   0  0  0  0  0  0  0  0  0  0  0  0
  185.6030  177.8520  141.1930 C   0  0  0  0  0  0  0  0  0  0  0  0
  187.8570  177.4650  142.7820 C   0  0  0  0  0  0  0  0  0  0  0  0
  186.8490  178.3420  143.1890 C   0  0  0  0  0  3  0  0  0  0  0  0
  186.5730  176.9780  140.8180 N   0  0  0  0  0  0  0  0  0  0  0  0
  185.7220  178.5470  142.3940 C   0  0  0  0  0  3  0  0  0  0  0  0
  184.4050  178.0590  140.3290 C   0  0  0  0  0  2  0  0  0  0  0  0
  183.3990  178.8290  141.0490 N   0  0  0  0  0  2  0  0  0  0  0  0
  182.1450  178.3030  140.7050 N   0  0  0  0  0  2  0  0  0  0  0  0
  181.2280  178.7900  141.6450 N   0  0  0  0  0  2  0  0  0  0  0  0
  179.9530  178.1450  141.3660 C   0  0  2  0  0  3  0  0  0  0  0  0
  179.3370  177.5570  139.1250 O   0  0  0  0  0  0  0  0  0  0  0  0
  179.5040  178.4720  139.9770 C   0  0  0  0  0  0  0  0  0  0  0  0
  179.2920  179.7970  139.6170 O   0  0  0  0  0  1  0  0  0  0  0  0
  178.9240  178.5870  142.4010 C   0  0  0  0  0  2  0  0  0  0  0  0
  178.8680  177.6350  143.5930 C   0  0  2  0  0  3  0  0  0  0  0  0
  178.3350  176.4190  143.1980 F   0  0  0  0  0  0  0  0  0  0  0  0
  178.0700  178.2090  144.7650 C   0  0  0  0  0  2  0  0  0  0  0  0
  178.5980  179.5690  145.1980 C   0  0  0  0  0  1  0  0  0  0  0  0
  188.6650  175.7010  141.1370 C   0  0  0  0  0  2  0  0  0  0  0  0
  187.3750  174.1630  142.4190 O   0  0  0  0  0  0  0  0  0  0  0  0
  188.1450  174.3340  141.4370 C   0  0  0  0  0  0  0  0  0  0  0  0
  189.7130  172.5480  140.7830 C   0  0  0  0  0  0  0  0  0  0  0  0
  188.6080  173.2300  140.6410 N   0  0  0  0  0  0  0  0  0  0  0  0
  191.5750  171.6150  142.0980 C   0  0  1  0  0  3  0  0  0  0  0  0
  191.8260  173.5730  141.5160 N   0  0  0  0  0  2  0  0  0  0  0  0
  190.6660  172.7930  141.9350 C   0  0  1  0  0  3  0  0  0  0  0  0
  192.6790  172.4610  141.6620 N   0  0  0  0  0  2  0  0  0  0  0  0
  191.7450  171.2790  143.5710 C   0  0  0  0  0  2  0  0  0  0  0  0
  191.9710  174.3630  145.7540 C   0  0  0  0  0  3  0  0  0  0  0  0
  192.3340  173.2490  144.9900 C   0  0  0  0  0  3  0  0  0  0  0  0
  190.6190  174.6730  145.9420 C   0  0  0  0  0  0  0  0  0  0  0  0
  189.9930  172.7510  144.6040 C   0  0  0  0  0  3  0  0  0  0  0  0
  191.3470  172.4420  144.4150 C   0  0  0  0  0  0  0  0  0  0  0  0
  189.6300  173.8670  145.3650 C   0  0  0  0  0  3  0  0  0  0  0  0
  190.1550  176.1240  146.8760 S   0  0  0  0  0  0  0  0  0  0  0  0
  188.3960  175.6600  146.9000 C   0  0  0  0  0  2  0  0  0  0  0  0
  187.5540  176.9140  146.8610 C   0  0  0  0  0  2  0  0  0  0  0  0
  186.2160  176.6070  146.2110 C   0  0  0  0  0  2  0  0  0  0  0  0
  185.7200  178.9750  146.7480 C   0  0  0  0  0  1  0  0  0  0  0  0
  185.1670  177.5630  146.7390 C   0  0  0  0  0  2  0  0  0  0  0  0
  189.7230  171.8980  138.4600 N   0  0  0  0  0  1  0  0  0  0  0  0
  189.9740  171.4360  139.8160 C   0  0  0  0  0  2  0  0  0  0  0  0
  188.9810  177.2830  143.6530 N   0  0  0  0  0  2  0  0  0  0  0  0
  189.9430  178.2940  143.9570 C   0  0  0  0  0  3  0  0  0  0  0  0
  191.2090  178.1880  143.5710 C   0  0  0  0  0  3  0  0  0  0  0  0
  191.7190  177.0200  142.7820 C   0  0  0  0  0  2  0  0  0  0  0  0
  194.0480  176.0050  142.6460 C   0  0  0  0  0  0  0  0  0  0  0  0
  194.0390  176.0750  141.3860 O   0  0  0  0  0  0  0  0  0  0  0  0
  192.9220  176.4690  143.3980 N   0  0  0  0  0  2  0  0  0  0  0  0
  195.4850  174.0090  143.2340 C   0  0  0  0  0  2  0  0  0  0  0  0
  196.5480  176.2760  142.9030 C   0  0  0  0  0  2  0  0  0  0  0  0
  196.0530  173.0390  145.4670 C   0  0  0  0  0  1  0  0  0  0  0  0
  196.6230  173.5250  144.1490 C   0  0  2  0  0  3  0  0  0  0  0  0
  197.8520  175.5240  143.2140 C   0  0  0  0  0  2  0  0  0  0  0  0
  197.6910  174.5950  144.4180 C   0  0  0  0  0  2  0  0  0  0  0  0
  195.2840  175.5230  143.3590 C   0  0  1  0  0  3  0  0  0  0  0  0
  1  3  1  0  0  0  0
  2  6  2  0  0  0  0
  3  4  2  0  0  0  0
  3 44  1  0  0  0  0
  5  2  1  0  0  0  0
  5  1  2  0  0  0  0
  6  4  1  0  0  0  0
  7  8  1  0  0  0  0
  7  2  1  0  0  0  0
  9  8  1  0  0  0  0
  9 10  1  0  0  0  0
 11 10  1  0  0  0  0
 11 15  1  1  0  0  0
 12 13  2  0  0  0  0
 13 11  1  0  0  0  0
 14 13  1  0  0  0  0
 15 16  1  0  0  0  0
 16 17  1  6  0  0  0
 16 18  1  0  0  0  0
 18 19  1  0  0  0  0
 20 22  1  0  0  0  0
 20  1  1  0  0  0  0
 22 21  2  0  0  0  0
 24 23  2  0  0  0  0
 24 22  1  0  0  0  0
 25 29  1  1  0  0  0
 26 28  1  0  0  0  0
 26 27  1  0  0  0  0
 27 23  1  6  0  0  0
 27 25  1  0  0  0  0
 28 25  1  0  0  0  0
 29 34  1  0  0  0  0
 30 32  1  0  0  0  0
 31 30  2  0  0  0  0
 32 36  1  0  0  0  0
 33 35  1  0  0  0  0
 34 33  2  0  0  0  0
 34 31  1  0  0  0  0
 35 32  2  0  0  0  0
 36 37  1  0  0  0  0
 38 37  1  0  0  0  0
 39 41  1  0  0  0  0
 39 38  1  0  0  0  0
 41 40  1  0  0  0  0
 42 43  1  0  0  0  0
 43 23  1  0  0  0  0
 44 45  1  0  0  0  0
 46 45  2  0  0  0  0
 47 50  1  0  0  0  0
 47 46  1  0  0  0  0
 48 50  1  0  0  0  0
 49 48  2  0  0  0  0
 51 57  1  0  0  0  0
 51 54  1  0  0  0  0
 52 55  1  0  0  0  0
 52 57  1  0  0  0  0
 54 56  1  0  0  0  0
 54 53  1  1  0  0  0
 55 56  1  0  0  0  0
 57 48  1  6  0  0  0
M  END
>  <MODEL>
1

>  <REMARK>
 VINA RESULT:      -6.4      0.000      0.000
  Name = 
  26 active torsions:
  status: ('A' for Active; 'I' for Inactive)
    1  A    between atoms: C_1  and  C_14
    2  A    between atoms: C_2  and  C_38
    3  A    between atoms: C_2  and  C_51
    4  A    between atoms: C_3  and  N_45
    5  A    between atoms: C_4  and  C_39
    6  A    between atoms: C_7  and  C_15
    7  A    between atoms: C_8  and  C_40
    8  A    between atoms: C_8  and  C_47
    9  A    between atoms: C_9  and  C_43
   10  A    between atoms: N_10  and  N_13
   11  A    between atoms: N_10  and  N_33
   12  A    between atoms: C_11  and  C_18
   13  A    between atoms: C_11  and  C_23
   14  A    between atoms: N_13  and  C_23
   15  A    between atoms: C_14  and  C_52
   16  A    between atoms: C_15  and  N_33
   17  A    between atoms: C_18  and  C_19
   18  A    between atoms: C_22  and  C_56
   19  A    between atoms: C_23  and  C_31
   20  A    between atoms: S_24  and  C_37
   21  A    between atoms: S_24  and  C_40
   22  A    between atoms: C_28  and  N_45
   23  A    between atoms: C_34  and  C_39
   24  A    between atoms: C_34  and  N_53
   25  A    between atoms: C_35  and  C_47
   26  A    between atoms: N_36  and  C_43
                            x       y       z     vdW  Elec       q    Type
                         _______ _______ _______ _____ _____    ______ ____

>  <TORSDO>
F 26

$$$$
=
 OpenBabel11042417493D

 57 60  0  0  1  0  0  0  0  0999 V2000
  186.9010  176.5030  141.6620 C   0  0  0  0  0  0  0  0  0  0  0  0
  185.1190  177.8150  140.7680 C   0  0  0  0  0  0  0  0  0  0  0  0
  187.3180  176.1580  140.3560 C   0  0  0  0  0  0  0  0  0  0  0  0
  186.6130  176.6770  139.2680 C   0  0  0  0  0  3  0  0  0  0  0  0
  185.8280  177.3310  141.8210 N   0  0  0  0  0  0  0  0  0  0  0  0
  185.5050  177.5010  139.4680 C   0  0  0  0  0  3  0  0  0  0  0  0
  183.9360  178.6940  141.0000 C   0  0  0  0  0  2  0  0  0  0  0  0
  182.7260  178.0380  140.5230 N   0  0  0  0  0  2  0  0  0  0  0  0
  181.6680  178.9450  140.6790 N   0  0  0  0  0  2  0  0  0  0  0  0
  180.4970  178.2710  140.3110 N   0  0  0  0  0  2  0  0  0  0  0  0
  179.3800  179.0950  140.7500 C   0  0  2  0  0  3  0  0  0  0  0  0
  178.0350  179.2340  142.7300 O   0  0  0  0  0  1  0  0  0  0  0  0
  178.7780  178.5270  141.9970 C   0  0  0  0  0  0  0  0  0  0  0  0
  179.0620  177.2170  142.3610 O   0  0  0  0  0  0  0  0  0  0  0  0
  178.3490  179.1900  139.6300 C   0  0  0  0  0  2  0  0  0  0  0  0
  178.1430  180.6290  139.1640 C   0  0  2  0  0  3  0  0  0  0  0  0
  178.4870  180.7430  137.8260 F   0  0  0  0  0  0  0  0  0  0  0  0
  178.9310  181.6360  140.0030 C   0  0  0  0  0  2  0  0  0  0  0  0
  178.9800  183.0070  139.3440 C   0  0  0  0  0  1  0  0  0  0  0  0
  187.7020  176.1090  142.8690 C   0  0  0  0  0  2  0  0  0  0  0  0
  189.5420  177.3830  143.6860 O   0  0  0  0  0  0  0  0  0  0  0  0
  188.2910  177.2960  143.5570 C   0  0  0  0  0  0  0  0  0  0  0  0
  186.5830  178.1130  145.1330 C   0  0  0  0  0  0  0  0  0  0  0  0
  187.4060  178.2710  144.1320 N   0  0  0  0  0  0  0  0  0  0  0  0
  187.6240  176.7900  146.9320 C   0  0  1  0  0  3  0  0  0  0  0  0
  185.5730  176.9190  147.0330 N   0  0  0  0  0  2  0  0  0  0  0  0
  186.5170  176.8230  145.9250 C   0  0  1  0  0  3  0  0  0  0  0  0
  186.6170  176.8970  147.9790 N   0  0  0  0  0  2  0  0  0  0  0  0
  188.2580  175.4090  146.9760 C   0  0  0  0  0  2  0  0  0  0  0  0
  191.7920  174.8460  145.7410 C   0  0  0  0  0  3  0  0  0  0  0  0
  190.4070  174.7270  145.8980 C   0  0  0  0  0  3  0  0  0  0  0  0
  192.5100  175.7560  146.5260 C   0  0  0  0  0  0  0  0  0  0  0  0
  190.4580  176.4260  147.6280 C   0  0  0  0  0  3  0  0  0  0  0  0
  189.7380  175.5150  146.8410 C   0  0  0  0  0  0  0  0  0  0  0  0
  191.8420  176.5470  147.4690 C   0  0  0  0  0  3  0  0  0  0  0  0
  194.2720  175.9440  146.2900 S   0  0  0  0  0  0  0  0  0  0  0  0
  194.2780  174.8920  144.8050 C   0  0  0  0  0  2  0  0  0  0  0  0
  195.7040  174.5220  144.4680 C   0  0  0  0  0  2  0  0  0  0  0  0
  195.9910  174.8740  143.0190 C   0  0  0  0  0  2  0  0  0  0  0  0
  194.7680  176.0800  141.2320 C   0  0  0  0  0  1  0  0  0  0  0  0
  194.6880  174.9600  142.2530 C   0  0  0  0  0  2  0  0  0  0  0  0
  184.5830  179.3880  144.6930 N   0  0  0  0  0  1  0  0  0  0  0  0
  185.7550  179.2900  145.5470 C   0  0  0  0  0  2  0  0  0  0  0  0
  188.4590  175.3330  140.0840 N   0  0  0  0  0  2  0  0  0  0  0  0
  188.4150  174.1010  139.3630 C   0  0  0  0  0  3  0  0  0  0  0  0
  188.5940  172.9330  139.9710 C   0  0  0  0  0  3  0  0  0  0  0  0
  188.8380  172.8170  141.4450 C   0  0  0  0  0  2  0  0  0  0  0  0
  190.7630  172.1790  142.9810 C   0  0  0  0  0  0  0  0  0  0  0  0
  189.9660  171.9230  143.9250 O   0  0  0  0  0  0  0  0  0  0  0  0
  190.2590  172.6220  141.7160 N   0  0  0  0  0  2  0  0  0  0  0  0
  192.5260  170.7210  144.0600 C   0  0  0  0  0  2  0  0  0  0  0  0
  192.9680  171.7820  141.8110 C   0  0  0  0  0  2  0  0  0  0  0  0
  194.2980  171.3060  145.7230 C   0  0  0  0  0  1  0  0  0  0  0  0
  194.0240  170.6270  144.3950 C   0  0  2  0  0  3  0  0  0  0  0  0
  194.3200  171.0610  141.9240 C   0  0  0  0  0  2  0  0  0  0  0  0
  194.9330  171.2310  143.3150 C   0  0  0  0  0  2  0  0  0  0  0  0
  192.2370  171.9260  143.1590 C   0  0  1  0  0  3  0  0  0  0  0  0
  1  5  1  0  0  0  0
  1 20  1  0  0  0  0
  2  7  1  0  0  0  0
  2  5  2  0  0  0  0
  3  1  2  0  0  0  0
  4  6  2  0  0  0  0
  4  3  1  0  0  0  0
  6  2  1  0  0  0  0
  8  9  1  0  0  0  0
  8  7  1  0  0  0  0
 10  9  1  0  0  0  0
 10 11  1  0  0  0  0
 11 15  1  6  0  0  0
 11 13  1  0  0  0  0
 13 14  2  0  0  0  0
 13 12  1  0  0  0  0
 16 17  1  6  0  0  0
 16 15  1  0  0  0  0
 16 18  1  0  0  0  0
 19 18  1  0  0  0  0
 20 22  1  0  0  0  0
 22 21  2  0  0  0  0
 22 24  1  0  0  0  0
 23 43  1  0  0  0  0
 24 23  2  0  0  0  0
 25 29  1  1  0  0  0
 25 28  1  0  0  0  0
 26 28  1  0  0  0  0
 27 23  1  6  0  0  0
 27 25  1  0  0  0  0
 27 26  1  0  0  0  0
 30 31  2  0  0  0  0
 30 32  1  0  0  0  0
 31 34  1  0  0  0  0
 32 35  2  0  0  0  0
 34 29  1  0  0  0  0
 34 33  2  0  0  0  0
 35 33  1  0  0  0  0
 36 32  1  0  0  0  0
 37 36  1  0  0  0  0
 38 37  1  0  0  0  0
 39 38  1  0  0  0  0
 40 41  1  0  0  0  0
 41 39  1  0  0  0  0
 42 43  1  0  0  0  0
 44  3  1  0  0  0  0
 45 46  2  0  0  0  0
 45 44  1  0  0  0  0
 46 47  1  0  0  0  0
 47 50  1  0  0  0  0
 48 49  2  0  0  0  0
 50 48  1  0  0  0  0
 51 54  1  0  0  0  0
 52 55  1  0  0  0  0
 52 57  1  0  0  0  0
 54 53  1  1  0  0  0
 55 56  1  0  0  0  0
 56 54  1  0  0  0  0
 57 48  1  6  0  0  0
 57 51  1  0  0  0  0
M  END
>  <MODEL>
2

>  <REMARK>
 VINA RESULT:      -6.2      2.406      5.735
  Name = 
  26 active torsions:
  status: ('A' for Active; 'I' for Inactive)
    1  A    between atoms: C_1  and  C_14
    2  A    between atoms: C_2  and  C_38
    3  A    between atoms: C_2  and  C_51
    4  A    between atoms: C_3  and  N_45
    5  A    between atoms: C_4  and  C_39
    6  A    between atoms: C_7  and  C_15
    7  A    between atoms: C_8  and  C_40
    8  A    between atoms: C_8  and  C_47
    9  A    between atoms: C_9  and  C_43
   10  A    between atoms: N_10  and  N_13
   11  A    between atoms: N_10  and  N_33
   12  A    between atoms: C_11  and  C_18
   13  A    between atoms: C_11  and  C_23
   14  A    between atoms: N_13  and  C_23
   15  A    between atoms: C_14  and  C_52
   16  A    between atoms: C_15  and  N_33
   17  A    between atoms: C_18  and  C_19
   18  A    between atoms: C_22  and  C_56
   19  A    between atoms: C_23  and  C_31
   20  A    between atoms: S_24  and  C_37
   21  A    between atoms: S_24  and  C_40
   22  A    between atoms: C_28  and  N_45
   23  A    between atoms: C_34  and  C_39
   24  A    between atoms: C_34  and  N_53
   25  A    between atoms: C_35  and  C_47
   26  A    between atoms: N_36  and  C_43
                            x       y       z     vdW  Elec       q    Type
                         _______ _______ _______ _____ _____    ______ ____

>  <TORSDO>
F 26

$$$$
=
 OpenBabel11042417493D

 57 60  0  0  1  0  0  0  0  0999 V2000
  188.7370  175.5580  142.1400 C   0  0  0  0  0  0  0  0  0  0  0  0
  190.4970  176.8270  143.1340 C   0  0  0  0  0  0  0  0  0  0  0  0
  187.9900  176.7390  141.9260 C   0  0  0  0  0  0  0  0  0  0  0  0
  188.5410  177.9600  142.3190 C   0  0  0  0  0  3  0  0  0  0  0  0
  189.9690  175.6460  142.7210 N   0  0  0  0  0  0  0  0  0  0  0  0
  189.7930  178.0110  142.9330 C   0  0  0  0  0  3  0  0  0  0  0  0
  191.8370  176.8620  143.7900 C   0  0  0  0  0  2  0  0  0  0  0  0
  192.3190  175.5040  144.0110 N   0  0  0  0  0  2  0  0  0  0  0  0
  193.6580  175.5970  144.4170 N   0  0  0  0  0  2  0  0  0  0  0  0
  194.4370  175.5770  143.2540 N   0  0  0  0  0  2  0  0  0  0  0  0
  195.8270  175.4870  143.6780 C   0  0  2  0  0  3  0  0  0  0  0  0
  196.4000  176.8690  141.8060 O   0  0  0  0  0  0  0  0  0  0  0  0
  196.7330  175.9240  142.5720 C   0  0  0  0  0  0  0  0  0  0  0  0
  197.9410  175.2670  142.3720 O   0  0  0  0  0  1  0  0  0  0  0  0
  196.1310  174.0570  144.1130 C   0  0  0  0  0  2  0  0  0  0  0  0
  195.4870  173.0290  143.1860 C   0  0  2  0  0  3  0  0  0  0  0  0
  194.5010  172.3350  143.8700 F   0  0  0  0  0  0  0  0  0  0  0  0
  196.5060  172.0560  142.5910 C   0  0  0  0  0  2  0  0  0  0  0  0
  197.6080  171.7110  143.5830 C   0  0  0  0  0  1  0  0  0  0  0  0
  188.2770  174.2330  141.6040 C   0  0  0  0  0  2  0  0  0  0  0  0
  189.9110  173.2300  140.1890 O   0  0  0  0  0  0  0  0  0  0  0  0
  188.8710  173.9380  140.2660 C   0  0  0  0  0  0  0  0  0  0  0  0
  188.5900  174.3320  137.8500 C   0  0  0  0  0  0  0  0  0  0  0  0
  188.2840  174.5420  139.1020 N   0  0  0  0  0  0  0  0  0  0  0  0
  189.4430  172.9720  135.9810 C   0  0  1  0  0  3  0  0  0  0  0  0
  190.8950  173.8930  137.1120 N   0  0  0  0  0  2  0  0  0  0  0  0
  189.6070  173.2880  137.4350 C   0  0  1  0  0  3  0  0  0  0  0  0
  190.7350  173.6010  135.7420 N   0  0  0  0  0  2  0  0  0  0  0  0
  189.5580  171.4730  135.7510 C   0  0  0  0  0  2  0  0  0  0  0  0
  192.4540  170.1010  137.7670 C   0  0  0  0  0  3  0  0  0  0  0  0
  191.7130  170.6630  136.7210 C   0  0  0  0  0  3  0  0  0  0  0  0
  191.8130  169.7180  138.9510 C   0  0  0  0  0  0  0  0  0  0  0  0
  189.6910  170.4550  138.0420 C   0  0  0  0  0  3  0  0  0  0  0  0
  190.3320  170.8400  136.8560 C   0  0  0  0  0  0  0  0  0  0  0  0
  190.4310  169.8970  139.0890 C   0  0  0  0  0  3  0  0  0  0  0  0
  192.7660  169.0470  140.3060 S   0  0  0  0  0  0  0  0  0  0  0  0
  191.3570  169.1210  141.4550 C   0  0  0  0  0  2  0  0  0  0  0  0
  191.7100  170.0270  142.6120 C   0  0  0  0  0  2  0  0  0  0  0  0
  190.6340  171.0860  142.7750 C   0  0  0  0  0  2  0  0  0  0  0  0
  189.8630  172.5680  144.6050 C   0  0  0  0  0  1  0  0  0  0  0  0
  191.0700  172.0920  143.8190 C   0  0  0  0  0  2  0  0  0  0  0  0
  186.7130  175.7880  137.4310 N   0  0  0  0  0  1  0  0  0  0  0  0
  187.8300  175.0950  136.8100 C   0  0  0  0  0  2  0  0  0  0  0  0
  186.7090  176.7560  141.2830 N   0  0  0  0  0  2  0  0  0  0  0  0
  186.3120  177.7070  140.2940 C   0  0  0  0  0  3  0  0  0  0  0  0
  185.1230  178.2990  140.3360 C   0  0  0  0  0  3  0  0  0  0  0  0
  184.1240  178.0310  141.4200 C   0  0  0  0  0  2  0  0  0  0  0  0
  184.4390  178.2750  143.9330 C   0  0  0  0  0  0  0  0  0  0  0  0
  183.4830  179.0950  144.0050 O   0  0  0  0  0  0  0  0  0  0  0  0
  184.8010  177.7030  142.6720 N   0  0  0  0  0  2  0  0  0  0  0  0
  186.6020  178.2600  145.2430 C   0  0  0  0  0  2  0  0  0  0  0  0
  184.3900  178.2840  146.4610 C   0  0  0  0  0  2  0  0  0  0  0  0
  188.0330  176.3400  145.9630 C   0  0  0  0  0  1  0  0  0  0  0  0
  187.3330  177.6030  146.4270 C   0  0  2  0  0  3  0  0  0  0  0  0
  185.2720  178.2870  147.7190 C   0  0  0  0  0  2  0  0  0  0  0  0
  186.4100  177.2710  147.6090 C   0  0  0  0  0  2  0  0  0  0  0  0
  185.1340  177.8260  145.1920 C   0  0  1  0  0  3  0  0  0  0  0  0
  1  5  1  0  0  0  0
  2  7  1  0  0  0  0
  3  1  2  0  0  0  0
  3  4  1  0  0  0  0
  4  6  2  0  0  0  0
  5  2  2  0  0  0  0
  6  2  1  0  0  0  0
  7  8  1  0  0  0  0
  8  9  1  0  0  0  0
 10 11  1  0  0  0  0
 10  9  1  0  0  0  0
 11 15  1  6  0  0  0
 12 13  2  0  0  0  0
 13 11  1  0  0  0  0
 14 13  1  0  0  0  0
 16 17  1  1  0  0  0
 16 15  1  0  0  0  0
 18 16  1  0  0  0  0
 18 19  1  0  0  0  0
 20  1  1  0  0  0  0
 21 22  2  0  0  0  0
 22 20  1  0  0  0  0
 23 24  2  0  0  0  0
 24 22  1  0  0  0  0
 25 29  1  1  0  0  0
 25 27  1  0  0  0  0
 26 27  1  0  0  0  0
 27 23  1  6  0  0  0
 28 25  1  0  0  0  0
 28 26  1  0  0  0  0
 29 34  1  0  0  0  0
 30 32  1  0  0  0  0
 31 34  1  0  0  0  0
 31 30  2  0  0  0  0
 32 35  2  0  0  0  0
 32 36  1  0  0  0  0
 33 35  1  0  0  0  0
 34 33  2  0  0  0  0
 36 37  1  0  0  0  0
 37 38  1  0  0  0  0
 38 39  1  0  0  0  0
 39 41  1  0  0  0  0
 41 40  1  0  0  0  0
 43 42  1  0  0  0  0
 43 23  1  0  0  0  0
 44  3  1  0  0  0  0
 45 46  2  0  0  0  0
 45 44  1  0  0  0  0
 46 47  1  0  0  0  0
 47 50  1  0  0  0  0
 48 49  2  0  0  0  0
 50 48  1  0  0  0  0
 51 54  1  0  0  0  0
 52 55  1  0  0  0  0
 54 53  1  6  0  0  0
 54 56  1  0  0  0  0
 56 55  1  0  0  0  0
 57 48  1  6  0  0  0
 57 51  1  0  0  0  0
 57 52  1  0  0  0  0
M  END
>  <MODEL>
3

>  <REMARK>
 VINA RESULT:      -5.7      3.755     10.262
  Name = 
  26 active torsions:
  status: ('A' for Active; 'I' for Inactive)
    1  A    between atoms: C_1  and  C_14
    2  A    between atoms: C_2  and  C_38
    3  A    between atoms: C_2  and  C_51
    4  A    between atoms: C_3  and  N_45
    5  A    between atoms: C_4  and  C_39
    6  A    between atoms: C_7  and  C_15
    7  A    between atoms: C_8  and  C_40
    8  A    between atoms: C_8  and  C_47
    9  A    between atoms: C_9  and  C_43
   10  A    between atoms: N_10  and  N_13
   11  A    between atoms: N_10  and  N_33
   12  A    between atoms: C_11  and  C_18
   13  A    between atoms: C_11  and  C_23
   14  A    between atoms: N_13  and  C_23
   15  A    between atoms: C_14  and  C_52
   16  A    between atoms: C_15  and  N_33
   17  A    between atoms: C_18  and  C_19
   18  A    between atoms: C_22  and  C_56
   19  A    between atoms: C_23  and  C_31
   20  A    between atoms: S_24  and  C_37
   21  A    between atoms: S_24  and  C_40
   22  A    between atoms: C_28  and  N_45
   23  A    between atoms: C_34  and  C_39
   24  A    between atoms: C_34  and  N_53
   25  A    between atoms: C_35  and  C_47
   26  A    between atoms: N_36  and  C_43
                            x       y       z     vdW  Elec       q    Type
                         _______ _______ _______ _____ _____    ______ ____

>  <TORSDO>
F 26

$$$$
=
 OpenBabel11042417493D

 57 60  0  0  1  0  0  0  0  0999 V2000
  184.5850  178.1070  141.2770 C   0  0  0  0  0  0  0  0  0  0  0  0
  185.3720  177.2590  143.3640 C   0  0  0  0  0  0  0  0  0  0  0  0
  185.6880  177.5250  140.6100 C   0  0  0  0  0  0  0  0  0  0  0  0
  186.6150  176.7970  141.3600 C   0  0  0  0  0  3  0  0  0  0  0  0
  184.4580  177.9400  142.6250 N   0  0  0  0  0  0  0  0  0  0  0  0
  186.4670  176.6670  142.7410 C   0  0  0  0  0  3  0  0  0  0  0  0
  185.1980  177.1310  144.8400 C   0  0  0  0  0  2  0  0  0  0  0  0
  186.2300  177.8930  145.5320 N   0  0  0  0  0  2  0  0  0  0  0  0
  187.2550  176.9980  145.8690 N   0  0  0  0  0  2  0  0  0  0  0  0
  188.4390  177.5140  145.3270 N   0  0  0  0  0  2  0  0  0  0  0  0
  189.4730  176.5110  145.5400 C   0  0  2  0  0  3  0  0  0  0  0  0
  190.1140  177.4840  147.6350 O   0  0  0  0  0  1  0  0  0  0  0  0
  189.8290  176.4380  146.9920 C   0  0  0  0  0  0  0  0  0  0  0  0
  189.8680  175.2040  147.6280 O   0  0  0  0  0  0  0  0  0  0  0  0
  190.6910  176.8500  144.6870 C   0  0  0  0  0  2  0  0  0  0  0  0
  191.8250  175.8480  144.8860 C   0  0  2  0  0  3  0  0  0  0  0  0
  192.9930  176.5200  145.2090 F   0  0  0  0  0  0  0  0  0  0  0  0
  192.0450  174.9600  143.6610 C   0  0  0  0  0  2  0  0  0  0  0  0
  191.2590  175.4540  142.4550 C   0  0  0  0  0  1  0  0  0  0  0  0
  183.4720  178.7680  140.5160 C   0  0  0  0  0  2  0  0  0  0  0  0
  182.0850  177.1990  139.3810 O   0  0  0  0  0  0  0  0  0  0  0  0
  182.2670  177.8910  140.4180 C   0  0  0  0  0  0  0  0  0  0  0  0
  180.1900  178.6110  141.5310 C   0  0  0  0  0  0  0  0  0  0  0  0
  181.3000  177.9260  141.4800 N   0  0  0  0  0  0  0  0  0  0  0  0
  178.4100  178.8900  139.8510 C   0  0  1  0  0  3  0  0  0  0  0  0
  178.9730  180.6230  140.8070 N   0  0  0  0  0  2  0  0  0  0  0  0
  179.7040  179.4420  140.3600 C   0  0  1  0  0  3  0  0  0  0  0  0
  177.7540  180.0990  140.3340 N   0  0  0  0  0  2  0  0  0  0  0  0
  178.4020  178.8820  138.3300 C   0  0  0  0  0  2  0  0  0  0  0  0
  178.3190  175.9310  135.9600 C   0  0  0  0  0  3  0  0  0  0  0  0
  178.3560  177.2430  136.4450 C   0  0  0  0  0  3  0  0  0  0  0  0
  178.2540  174.8560  136.8550 C   0  0  0  0  0  0  0  0  0  0  0  0
  178.2590  176.4050  138.7180 C   0  0  0  0  0  3  0  0  0  0  0  0
  178.3250  177.4820  137.8230 C   0  0  0  0  0  0  0  0  0  0  0  0
  178.2250  175.0940  138.2340 C   0  0  0  0  0  3  0  0  0  0  0  0
  178.2580  173.1780  136.2380 S   0  0  0  0  0  0  0  0  0  0  0  0
  180.0210  173.2490  135.7920 C   0  0  0  0  0  2  0  0  0  0  0  0
  180.8400  173.4380  137.0490 C   0  0  0  0  0  2  0  0  0  0  0  0
  181.8370  174.5650  136.8390 C   0  0  0  0  0  2  0  0  0  0  0  0
  182.9900  175.9330  135.1240 C   0  0  0  0  0  1  0  0  0  0  0  0
  181.8570  174.9570  135.3770 C   0  0  0  0  0  2  0  0  0  0  0  0
  178.5280  177.2820  142.6660 N   0  0  0  0  0  1  0  0  0  0  0  0
  179.3460  178.4800  142.7600 C   0  0  0  0  0  2  0  0  0  0  0  0
  185.8860  177.6050  139.1930 N   0  0  0  0  0  2  0  0  0  0  0  0
  185.3130  176.7050  138.2430 C   0  0  0  0  0  3  0  0  0  0  0  0
  186.0660  175.8720  137.5330 C   0  0  0  0  0  3  0  0  0  0  0  0
  187.5550  175.7990  137.6840 C   0  0  0  0  0  2  0  0  0  0  0  0
  188.4900  173.6240  138.6160 C   0  0  0  0  0  0  0  0  0  0  0  0
  188.7210  173.1890  137.4540 O   0  0  0  0  0  0  0  0  0  0  0  0
  187.9160  174.9240  138.7950 N   0  0  0  0  0  2  0  0  0  0  0  0
  190.4140  172.8930  140.0860 C   0  0  0  0  0  2  0  0  0  0  0  0
  188.1100  173.1880  141.0770 C   0  0  0  0  0  2  0  0  0  0  0  0
  191.3230  170.6060  140.5250 C   0  0  0  0  0  1  0  0  0  0  0  0
  190.8350  171.8880  141.1710 C   0  0  2  0  0  3  0  0  0  0  0  0
  188.8000  172.7680  142.3830 C   0  0  0  0  0  2  0  0  0  0  0  0
  189.7160  171.5610  142.1720 C   0  0  0  0  0  2  0  0  0  0  0  0
  188.9090  172.8130  139.8140 C   0  0  1  0  0  3  0  0  0  0  0  0
  1  5  1  0  0  0  0
  2  7  1  0  0  0  0
  3  1  2  0  0  0  0
  3  4  1  0  0  0  0
  4  6  2  0  0  0  0
  5  2  2  0  0  0  0
  6  2  1  0  0  0  0
  7  8  1  0  0  0  0
  8  9  1  0  0  0  0
 10 11  1  0  0  0  0
 10  9  1  0  0  0  0
 11 15  1  6  0  0  0
 11 13  1  0  0  0  0
 13 14  2  0  0  0  0
 13 12  1  0  0  0  0
 15 16  1  0  0  0  0
 16 17  1  6  0  0  0
 18 16  1  0  0  0  0
 19 18  1  0  0  0  0
 20  1  1  0  0  0  0
 21 22  2  0  0  0  0
 22 20  1  0  0  0  0
 22 24  1  0  0  0  0
 23 43  1  0  0  0  0
 24 23  2  0  0  0  0
 25 29  1  6  0  0  0
 25 28  1  0  0  0  0
 25 27  1  0  0  0  0
 27 26  1  0  0  0  0
 27 23  1  1  0  0  0
 28 26  1  0  0  0  0
 30 31  2  0  0  0  0
 30 32  1  0  0  0  0
 31 34  1  0  0  0  0
 32 35  2  0  0  0  0
 34 29  1  0  0  0  0
 34 33  2  0  0  0  0
 35 33  1  0  0  0  0
 36 32  1  0  0  0  0
 37 36  1  0  0  0  0
 37 38  1  0  0  0  0
 39 38  1  0  0  0  0
 40 41  1  0  0  0  0
 41 39  1  0  0  0  0
 42 43  1  0  0  0  0
 44  3  1  0  0  0  0
 45 44  1  0  0  0  0
 46 47  1  0  0  0  0
 46 45  2  0  0  0  0
 47 50  1  0  0  0  0
 48 50  1  0  0  0  0
 49 48  2  0  0  0  0
 51 54  1  0  0  0  0
 52 55  1  0  0  0  0
 54 53  1  6  0  0  0
 54 56  1  0  0  0  0
 56 55  1  0  0  0  0
 57 48  1  6  0  0  0
 57 51  1  0  0  0  0
 57 52  1  0  0  0  0
M  END
>  <MODEL>
4

>  <REMARK>
 VINA RESULT:      -5.3      4.294     10.986
  Name = 
  26 active torsions:
  status: ('A' for Active; 'I' for Inactive)
    1  A    between atoms: C_1  and  C_14
    2  A    between atoms: C_2  and  C_38
    3  A    between atoms: C_2  and  C_51
    4  A    between atoms: C_3  and  N_45
    5  A    between atoms: C_4  and  C_39
    6  A    between atoms: C_7  and  C_15
    7  A    between atoms: C_8  and  C_40
    8  A    between atoms: C_8  and  C_47
    9  A    between atoms: C_9  and  C_43
   10  A    between atoms: N_10  and  N_13
   11  A    between atoms: N_10  and  N_33
   12  A    between atoms: C_11  and  C_18
   13  A    between atoms: C_11  and  C_23
   14  A    between atoms: N_13  and  C_23
   15  A    between atoms: C_14  and  C_52
   16  A    between atoms: C_15  and  N_33
   17  A    between atoms: C_18  and  C_19
   18  A    between atoms: C_22  and  C_56
   19  A    between atoms: C_23  and  C_31
   20  A    between atoms: S_24  and  C_37
   21  A    between atoms: S_24  and  C_40
   22  A    between atoms: C_28  and  N_45
   23  A    between atoms: C_34  and  C_39
   24  A    between atoms: C_34  and  N_53
   25  A    between atoms: C_35  and  C_47
   26  A    between atoms: N_36  and  C_43
                            x       y       z     vdW  Elec       q    Type
                         _______ _______ _______ _____ _____    ______ ____

>  <TORSDO>
F 26

$$$$
=
 OpenBabel11042417493D

 57 60  0  0  1  0  0  0  0  0999 V2000
  191.8820  173.8580  142.6250 C   0  0  0  0  0  0  0  0  0  0  0  0
  193.7820  174.6480  141.4170 C   0  0  0  0  0  0  0  0  0  0  0  0
  192.5190  172.6140  142.8370 C   0  0  0  0  0  0  0  0  0  0  0  0
  193.8070  172.4260  142.3320 C   0  0  0  0  0  3  0  0  0  0  0  0
  192.5410  174.8340  141.9370 N   0  0  0  0  0  0  0  0  0  0  0  0
  194.4420  173.4380  141.6120 C   0  0  0  0  0  3  0  0  0  0  0  0
  194.4450  175.7410  140.6480 C   0  0  0  0  0  2  0  0  0  0  0  0
  195.8930  175.5830  140.7050 N   0  0  0  0  0  2  0  0  0  0  0  0
  196.3150  175.1400  139.4440 N   0  0  0  0  0  2  0  0  0  0  0  0
  195.5270  175.8030  138.4950 N   0  0  0  0  0  2  0  0  0  0  0  0
  195.2600  174.8490  137.4270 C   0  0  2  0  0  3  0  0  0  0  0  0
  196.7410  173.6680  135.9590 O   0  0  0  0  0  0  0  0  0  0  0  0
  196.4360  174.7620  136.5080 C   0  0  0  0  0  0  0  0  0  0  0  0
  197.2130  175.8900  136.2770 O   0  0  0  0  0  1  0  0  0  0  0  0
  193.9990  175.2680  136.6780 C   0  0  0  0  0  2  0  0  0  0  0  0
  192.9170  174.1930  136.7350 C   0  0  2  0  0  3  0  0  0  0  0  0
  191.7020  174.7300  136.3400 F   0  0  0  0  0  0  0  0  0  0  0  0
  192.7920  173.5580  138.1210 C   0  0  0  0  0  2  0  0  0  0  0  0
  191.3380  173.3910  138.5380 C   0  0  0  0  0  1  0  0  0  0  0  0
  190.5660  174.1830  143.2710 C   0  0  0  0  0  2  0  0  0  0  0  0
  189.0780  173.0210  141.8190 O   0  0  0  0  0  0  0  0  0  0  0  0
  189.4380  174.1310  142.2940 C   0  0  0  0  0  0  0  0  0  0  0  0
  188.1860  176.2350  142.5710 C   0  0  0  0  0  0  0  0  0  0  0  0
  188.8470  175.3650  141.8560 N   0  0  0  0  0  0  0  0  0  0  0  0
  188.4330  177.3570  144.7510 C   0  0  1  0  0  3  0  0  0  0  0  0
  186.6540  176.3530  144.4930 N   0  0  0  0  0  2  0  0  0  0  0  0
  188.0260  176.0870  144.0710 C   0  0  1  0  0  3  0  0  0  0  0  0
  187.0380  177.5520  145.1260 N   0  0  0  0  0  2  0  0  0  0  0  0
  189.2540  177.0500  145.9930 C   0  0  0  0  0  2  0  0  0  0  0  0
  192.8880  175.9930  146.0750 C   0  0  0  0  0  3  0  0  0  0  0  0
  191.5390  176.1320  146.4170 C   0  0  0  0  0  3  0  0  0  0  0  0
  193.3980  176.6570  144.9520 C   0  0  0  0  0  0  0  0  0  0  0  0
  191.2090  177.6030  144.5180 C   0  0  0  0  0  3  0  0  0  0  0  0
  190.6980  176.9370  145.6410 C   0  0  0  0  0  0  0  0  0  0  0  0
  192.5570  177.4610  144.1730 C   0  0  0  0  0  3  0  0  0  0  0  0
  195.1090  176.4390  144.4850 S   0  0  0  0  0  0  0  0  0  0  0  0
  195.2330  174.8360  145.3390 C   0  0  0  0  0  2  0  0  0  0  0  0
  196.6290  174.2850  145.1530 C   0  0  0  0  0  2  0  0  0  0  0  0
  196.8400  173.1130  146.0960 C   0  0  0  0  0  2  0  0  0  0  0  0
  196.4130  171.0540  144.7850 C   0  0  0  0  0  1  0  0  0  0  0  0
  195.8280  172.0290  145.7890 C   0  0  0  0  0  2  0  0  0  0  0  0
  188.7460  178.3900  141.6440 N   0  0  0  0  0  1  0  0  0  0  0  0
  187.6600  177.4520  141.8760 C   0  0  0  0  0  2  0  0  0  0  0  0
  191.9290  171.5430  143.5850 N   0  0  0  0  0  2  0  0  0  0  0  0
  192.6680  170.5590  144.3130 C   0  0  0  0  0  3  0  0  0  0  0  0
  192.6800  169.2840  143.9420 C   0  0  0  0  0  3  0  0  0  0  0  0
  191.9420  168.7850  142.7370 C   0  0  0  0  0  2  0  0  0  0  0  0
  192.1100  169.8310  140.4230 C   0  0  0  0  0  0  0  0  0  0  0  0
  190.9200  170.2450  140.4900 O   0  0  0  0  0  0  0  0  0  0  0  0
  192.6790  169.1020  141.5170 N   0  0  0  0  0  2  0  0  0  0  0  0
  194.3980  169.6770  139.3570 C   0  0  0  0  0  2  0  0  0  0  0  0
  192.3300  169.7120  137.9080 C   0  0  0  0  0  2  0  0  0  0  0  0
  196.0010  171.4870  138.7230 C   0  0  0  0  0  1  0  0  0  0  0  0
  195.2860  170.2430  138.2350 C   0  0  2  0  0  3  0  0  0  0  0  0
  193.3400  169.6090  136.7540 C   0  0  0  0  0  2  0  0  0  0  0  0
  194.5140  170.5690  136.9480 C   0  0  0  0  0  2  0  0  0  0  0  0
  192.9590  170.1870  139.2310 C   0  0  1  0  0  3  0  0  0  0  0  0
  1  3  1  0  0  0  0
  1 20  1  0  0  0  0
  2  6  2  0  0  0  0
  2  5  1  0  0  0  0
  3 44  1  0  0  0  0
  4  3  2  0  0  0  0
  5  1  2  0  0  0  0
  6  4  1  0  0  0  0
  7  8  1  0  0  0  0
  7  2  1  0  0  0  0
  9  8  1  0  0  0  0
 10  9  1  0  0  0  0
 11 15  1  6  0  0  0
 11 10  1  0  0  0  0
 12 13  2  0  0  0  0
 13 11  1  0  0  0  0
 14 13  1  0  0  0  0
 15 16  1  0  0  0  0
 16 17  1  1  0  0  0
 16 18  1  0  0  0  0
 18 19  1  0  0  0  0
 21 22  2  0  0  0  0
 22 20  1  0  0  0  0
 24 22  1  0  0  0  0
 24 23  2  0  0  0  0
 25 28  1  0  0  0  0
 25 29  1  1  0  0  0
 26 28  1  0  0  0  0
 27 23  1  6  0  0  0
 27 26  1  0  0  0  0
 27 25  1  0  0  0  0
 30 31  1  0  0  0  0
 32 30  2  0  0  0  0
 33 34  1  0  0  0  0
 34 29  1  0  0  0  0
 34 31  2  0  0  0  0
 35 33  2  0  0  0  0
 35 32  1  0  0  0  0
 36 32  1  0  0  0  0
 36 37  1  0  0  0  0
 38 37  1  0  0  0  0
 38 39  1  0  0  0  0
 40 41  1  0  0  0  0
 41 39  1  0  0  0  0
 42 43  1  0  0  0  0
 43 23  1  0  0  0  0
 44 45  1  0  0  0  0
 46 45  2  0  0  0  0
 47 46  1  0  0  0  0
 48 49  2  0  0  0  0
 48 50  1  0  0  0  0
 50 47  1  0  0  0  0
 52 57  1  0  0  0  0
 54 53  1  1  0  0  0
 54 51  1  0  0  0  0
 55 56  1  0  0  0  0
 55 52  1  0  0  0  0
 56 54  1  0  0  0  0
 57 51  1  0  0  0  0
 57 48  1  1  0  0  0
M  END
>  <MODEL>
5

>  <REMARK>
 VINA RESULT:      -5.3      4.922      9.882
  Name = 
  26 active torsions:
  status: ('A' for Active; 'I' for Inactive)
    1  A    between atoms: C_1  and  C_14
    2  A    between atoms: C_2  and  C_38
    3  A    between atoms: C_2  and  C_51
    4  A    between atoms: C_3  and  N_45
    5  A    between atoms: C_4  and  C_39
    6  A    between atoms: C_7  and  C_15
    7  A    between atoms: C_8  and  C_40
    8  A    between atoms: C_8  and  C_47
    9  A    between atoms: C_9  and  C_43
   10  A    between atoms: N_10  and  N_13
   11  A    between atoms: N_10  and  N_33
   12  A    between atoms: C_11  and  C_18
   13  A    between atoms: C_11  and  C_23
   14  A    between atoms: N_13  and  C_23
   15  A    between atoms: C_14  and  C_52
   16  A    between atoms: C_15  and  N_33
   17  A    between atoms: C_18  and  C_19
   18  A    between atoms: C_22  and  C_56
   19  A    between atoms: C_23  and  C_31
   20  A    between atoms: S_24  and  C_37
   21  A    between atoms: S_24  and  C_40
   22  A    between atoms: C_28  and  N_45
   23  A    between atoms: C_34  and  C_39
   24  A    between atoms: C_34  and  N_53
   25  A    between atoms: C_35  and  C_47
   26  A    between atoms: N_36  and  C_43
                            x       y       z     vdW  Elec       q    Type
                         _______ _______ _______ _____ _____    ______ ____

>  <TORSDO>
F 26

$$$$
=
 OpenBabel11042417493D

 57 60  0  0  1  0  0  0  0  0999 V2000
  191.8320  172.1390  141.7230 C   0  0  0  0  0  0  0  0  0  0  0  0
  189.6070  172.7200  142.3620 C   0  0  0  0  0  0  0  0  0  0  0  0
  192.0320  171.4910  142.9630 C   0  0  0  0  0  0  0  0  0  0  0  0
  190.9810  171.4650  143.8830 C   0  0  0  0  0  3  0  0  0  0  0  0
  190.6240  172.7160  141.4610 N   0  0  0  0  0  0  0  0  0  0  0  0
  189.7670  172.0860  143.5910 C   0  0  0  0  0  3  0  0  0  0  0  0
  188.3160  173.3910  142.0340 C   0  0  0  0  0  2  0  0  0  0  0  0
  188.3810  173.9700  140.6980 N   0  0  0  0  0  2  0  0  0  0  0  0
  188.2550  175.3600  140.8380 N   0  0  0  0  0  2  0  0  0  0  0  0
  187.8380  175.6000  142.1540 N   0  0  0  0  0  2  0  0  0  0  0  0
  186.6720  176.4670  142.0760 C   0  0  2  0  0  3  0  0  0  0  0  0
  188.1370  178.2710  141.4890 O   0  0  0  0  0  1  0  0  0  0  0  0
  187.0120  177.7230  141.3370 C   0  0  0  0  0  0  0  0  0  0  0  0
  186.0690  178.3020  140.4960 O   0  0  0  0  0  0  0  0  0  0  0  0
  186.1700  176.7700  143.4840 C   0  0  0  0  0  2  0  0  0  0  0  0
  186.3770  178.2350  143.8610 C   0  0  2  0  0  3  0  0  0  0  0  0
  187.3770  178.3370  144.8150 F   0  0  0  0  0  0  0  0  0  0  0  0
  185.0930  178.8980  144.3640 C   0  0  0  0  0  2  0  0  0  0  0  0
  184.9260  178.7410  145.8680 C   0  0  0  0  0  1  0  0  0  0  0  0
  192.8600  172.0720  140.6310 C   0  0  0  0  0  2  0  0  0  0  0  0
  192.3010  173.8580  139.1580 O   0  0  0  0  0  0  0  0  0  0  0  0
  192.3380  172.6120  139.3410 C   0  0  0  0  0  0  0  0  0  0  0  0
  190.8890  171.9180  137.4720 C   0  0  0  0  0  0  0  0  0  0  0  0
  191.8090  171.6930  138.3710 N   0  0  0  0  0  0  0  0  0  0  0  0
  190.6630  173.8120  135.9140 C   0  0  1  0  0  3  0  0  0  0  0  0
  188.9050  173.2090  136.7990 N   0  0  0  0  0  2  0  0  0  0  0  0
  190.2850  173.2920  137.2660 C   0  0  1  0  0  3  0  0  0  0  0  0
  189.2640  173.6910  135.5240 N   0  0  0  0  0  2  0  0  0  0  0  0
  191.0400  175.2830  136.0010 C   0  0  0  0  0  2  0  0  0  0  0  0
  194.7260  174.4580  135.7530 C   0  0  0  0  0  3  0  0  0  0  0  0
  193.3430  174.3180  135.9100 C   0  0  0  0  0  3  0  0  0  0  0  0
  195.2830  175.7270  135.5540 C   0  0  0  0  0  0  0  0  0  0  0  0
  193.0740  176.7170  135.6720 C   0  0  0  0  0  3  0  0  0  0  0  0
  192.5150  175.4460  135.8700 C   0  0  0  0  0  0  0  0  0  0  0  0
  194.4560  176.8560  135.5120 C   0  0  0  0  0  3  0  0  0  0  0  0
  197.0450  175.9000  135.3040 S   0  0  0  0  0  0  0  0  0  0  0  0
  197.4400  174.6510  136.5670 C   0  0  0  0  0  2  0  0  0  0  0  0
  197.6590  175.3430  137.8930 C   0  0  0  0  0  2  0  0  0  0  0  0
  197.5440  174.3300  139.0190 C   0  0  0  0  0  2  0  0  0  0  0  0
  196.2490  172.2340  139.2890 C   0  0  0  0  0  1  0  0  0  0  0  0
  196.1570  173.7230  139.0120 C   0  0  0  0  0  2  0  0  0  0  0  0
  189.7890  169.7750  137.3350 N   0  0  0  0  0  1  0  0  0  0  0  0
  190.5030  170.7860  136.5720 C   0  0  0  0  0  2  0  0  0  0  0  0
  193.2480  170.8170  143.3150 N   0  0  0  0  0  2  0  0  0  0  0  0
  193.5980  170.4160  144.6410 C   0  0  0  0  0  3  0  0  0  0  0  0
  194.2440  171.2320  145.4660 C   0  0  0  0  0  3  0  0  0  0  0  0
  194.6370  172.6260  145.0830 C   0  0  0  0  0  2  0  0  0  0  0  0
  193.6690  174.8610  145.8180 C   0  0  0  0  0  0  0  0  0  0  0  0
  194.8120  175.2840  146.1450 O   0  0  0  0  0  0  0  0  0  0  0  0
  193.5190  173.5450  145.2750 N   0  0  0  0  0  2  0  0  0  0  0  0
  191.3930  175.4460  144.8840 C   0  0  0  0  0  2  0  0  0  0  0  0
  191.8850  175.8170  147.3330 C   0  0  0  0  0  2  0  0  0  0  0  0
  190.6010  177.5410  143.7720 C   0  0  0  0  0  1  0  0  0  0  0  0
  190.3010  176.5290  144.8610 C   0  0  2  0  0  3  0  0  0  0  0  0
  190.4350  176.3240  147.3760 C   0  0  0  0  0  2  0  0  0  0  0  0
  190.1320  177.2580  146.2030 C   0  0  0  0  0  2  0  0  0  0  0  0
  192.4780  175.7790  145.9120 C   0  0  1  0  0  3  0  0  0  0  0  0
  1  3  1  0  0  0  0
  2  6  2  0  0  0  0
  3 44  1  0  0  0  0
  3  4  2  0  0  0  0
  5  1  2  0  0  0  0
  5  2  1  0  0  0  0
  6  4  1  0  0  0  0
  7  2  1  0  0  0  0
  8  9  1  0  0  0  0
  8  7  1  0  0  0  0
  9 10  1  0  0  0  0
 11 10  1  0  0  0  0
 11 15  1  1  0  0  0
 13 12  1  0  0  0  0
 13 11  1  0  0  0  0
 14 13  2  0  0  0  0
 15 16  1  0  0  0  0
 16 18  1  0  0  0  0
 16 17  1  1  0  0  0
 18 19  1  0  0  0  0
 20  1  1  0  0  0  0
 21 22  2  0  0  0  0
 22 20  1  0  0  0  0
 23 24  2  0  0  0  0
 24 22  1  0  0  0  0
 25 29  1  1  0  0  0
 25 27  1  0  0  0  0
 26 27  1  0  0  0  0
 27 23  1  6  0  0  0
 28 25  1  0  0  0  0
 28 26  1  0  0  0  0
 30 31  1  0  0  0  0
 32 30  2  0  0  0  0
 33 34  1  0  0  0  0
 34 31  2  0  0  0  0
 34 29  1  0  0  0  0
 35 32  1  0  0  0  0
 35 33  2  0  0  0  0
 36 32  1  0  0  0  0
 36 37  1  0  0  0  0
 37 38  1  0  0  0  0
 38 39  1  0  0  0  0
 41 39  1  0  0  0  0
 41 40  1  0  0  0  0
 43 42  1  0  0  0  0
 43 23  1  0  0  0  0
 44 45  1  0  0  0  0
 45 46  2  0  0  0  0
 47 50  1  0  0  0  0
 47 46  1  0  0  0  0
 48 49  2  0  0  0  0
 50 48  1  0  0  0  0
 51 57  1  0  0  0  0
 52 55  1  0  0  0  0
 54 53  1  6  0  0  0
 54 51  1  0  0  0  0
 54 56  1  0  0  0  0
 56 55  1  0  0  0  0
 57 48  1  1  0  0  0
 57 52  1  0  0  0  0
M  END
>  <MODEL>
6

>  <REMARK>
 VINA RESULT:      -5.2      4.160      8.126
  Name = 
  26 active torsions:
  status: ('A' for Active; 'I' for Inactive)
    1  A    between atoms: C_1  and  C_14
    2  A    between atoms: C_2  and  C_38
    3  A    between atoms: C_2  and  C_51
    4  A    between atoms: C_3  and  N_45
    5  A    between atoms: C_4  and  C_39
    6  A    between atoms: C_7  and  C_15
    7  A    between atoms: C_8  and  C_40
    8  A    between atoms: C_8  and  C_47
    9  A    between atoms: C_9  and  C_43
   10  A    between atoms: N_10  and  N_13
   11  A    between atoms: N_10  and  N_33
   12  A    between atoms: C_11  and  C_18
   13  A    between atoms: C_11  and  C_23
   14  A    between atoms: N_13  and  C_23
   15  A    between atoms: C_14  and  C_52
   16  A    between atoms: C_15  and  N_33
   17  A    between atoms: C_18  and  C_19
   18  A    between atoms: C_22  and  C_56
   19  A    between atoms: C_23  and  C_31
   20  A    between atoms: S_24  and  C_37
   21  A    between atoms: S_24  and  C_40
   22  A    between atoms: C_28  and  N_45
   23  A    between atoms: C_34  and  C_39
   24  A    between atoms: C_34  and  N_53
   25  A    between atoms: C_35  and  C_47
   26  A    between atoms: N_36  and  C_43
                            x       y       z     vdW  Elec       q    Type
                         _______ _______ _______ _____ _____    ______ ____

>  <TORSDO>
F 26

$$$$
=
 OpenBabel11042417493D

 57 60  0  0  1  0  0  0  0  0999 V2000
  187.9830  175.7840  141.8360 C   0  0  0  0  0  0  0  0  0  0  0  0
  186.6680  176.7340  140.0860 C   0  0  0  0  0  0  0  0  0  0  0  0
  188.6100  174.9170  140.9120 C   0  0  0  0  0  0  0  0  0  0  0  0
  188.2470  174.9980  139.5660 C   0  0  0  0  0  3  0  0  0  0  0  0
  187.0470  176.6700  141.3890 N   0  0  0  0  0  0  0  0  0  0  0  0
  187.2690  175.9000  139.1470 C   0  0  0  0  0  3  0  0  0  0  0  0
  185.6190  177.7030  139.6560 C   0  0  0  0  0  2  0  0  0  0  0  0
  184.8330  178.1300  140.8060 N   0  0  0  0  0  2  0  0  0  0  0  0
  183.6350  178.6710  140.3170 N   0  0  0  0  0  2  0  0  0  0  0  0
  182.5960  178.0880  141.0530 N   0  0  0  0  0  2  0  0  0  0  0  0
  181.3500  178.6180  140.5180 C   0  0  2  0  0  3  0  0  0  0  0  0
  180.9820  179.3860  142.7590 O   0  0  0  0  0  1  0  0  0  0  0  0
  180.6750  179.4780  141.5390 C   0  0  0  0  0  0  0  0  0  0  0  0
  179.6840  180.3670  141.1420 O   0  0  0  0  0  0  0  0  0  0  0  0
  180.4530  177.4640  140.0840 C   0  0  0  0  0  2  0  0  0  0  0  0
  178.9920  177.7040  140.4570 C   0  0  2  0  0  3  0  0  0  0  0  0
  178.7380  177.1870  141.7170 F   0  0  0  0  0  0  0  0  0  0  0  0
  178.0210  177.1130  139.4340 C   0  0  0  0  0  2  0  0  0  0  0  0
  178.6550  176.9880  138.0560 C   0  0  0  0  0  1  0  0  0  0  0  0
  188.4330  175.8600  143.2670 C   0  0  0  0  0  2  0  0  0  0  0  0
  189.7460  177.7090  143.9980 O   0  0  0  0  0  0  0  0  0  0  0  0
  188.5950  177.2720  143.7250 C   0  0  0  0  0  0  0  0  0  0  0  0
  186.4210  177.8410  144.7340 C   0  0  0  0  0  0  0  0  0  0  0  0
  187.4190  178.0720  143.9250 N   0  0  0  0  0  0  0  0  0  0  0  0
  187.4420  176.8890  146.7640 C   0  0  1  0  0  3  0  0  0  0  0  0
  185.3860  176.8110  146.7150 N   0  0  0  0  0  2  0  0  0  0  0  0
  186.4190  176.6680  145.6940 C   0  0  1  0  0  3  0  0  0  0  0  0
  186.3510  177.0270  147.7190 N   0  0  0  0  0  2  0  0  0  0  0  0
  188.2010  175.6010  147.0420 C   0  0  0  0  0  2  0  0  0  0  0  0
  191.8640  175.2050  146.1760 C   0  0  0  0  0  3  0  0  0  0  0  0
  190.4890  174.9650  146.2660 C   0  0  0  0  0  3  0  0  0  0  0  0
  192.4220  176.3270  146.8000 C   0  0  0  0  0  0  0  0  0  0  0  0
  190.2290  176.9680  147.6080 C   0  0  0  0  0  3  0  0  0  0  0  0
  189.6700  175.8440  146.9820 C   0  0  0  0  0  0  0  0  0  0  0  0
  191.6030  177.2090  147.5150 C   0  0  0  0  0  3  0  0  0  0  0  0
  194.1710  176.6600  146.6420 S   0  0  0  0  0  0  0  0  0  0  0  0
  194.4200  175.2910  145.4690 C   0  0  0  0  0  2  0  0  0  0  0  0
  194.9930  175.8410  144.1830 C   0  0  0  0  0  2  0  0  0  0  0  0
  196.1690  174.9860  143.7460 C   0  0  0  0  0  2  0  0  0  0  0  0
  196.3780  172.9580  142.3370 C   0  0  0  0  0  1  0  0  0  0  0  0
  195.7130  173.5540  143.5630 C   0  0  0  0  0  2  0  0  0  0  0  0
  185.6460  179.9430  145.6290 N   0  0  0  0  0  1  0  0  0  0  0  0
  185.2990  178.8330  144.7580 C   0  0  0  0  0  2  0  0  0  0  0  0
  189.6360  173.9840  141.2760 N   0  0  0  0  0  2  0  0  0  0  0  0
  189.3990  172.7260  141.9100 C   0  0  0  0  0  3  0  0  0  0  0  0
  190.2400  172.2340  142.8130 C   0  0  0  0  0  3  0  0  0  0  0  0
  191.4790  172.9580  143.2440 C   0  0  0  0  0  2  0  0  0  0  0  0
  193.0680  170.9960  143.5540 C   0  0  0  0  0  0  0  0  0  0  0  0
  193.0410  170.7390  142.3190 O   0  0  0  0  0  0  0  0  0  0  0  0
  192.3150  172.0960  144.0740 N   0  0  0  0  0  2  0  0  0  0  0  0
  194.3240  170.9530  145.7490 C   0  0  0  0  0  2  0  0  0  0  0  0
  193.3860  168.8140  144.7900 C   0  0  0  0  0  2  0  0  0  0  0  0
  196.7770  170.7700  146.1940 C   0  0  0  0  0  1  0  0  0  0  0  0
  195.4110  170.2100  146.5430 C   0  0  2  0  0  3  0  0  0  0  0  0
  193.9910  168.1800  146.0520 C   0  0  0  0  0  2  0  0  0  0  0  0
  195.4080  168.6920  146.3140 C   0  0  0  0  0  2  0  0  0  0  0  0
  193.9690  170.2010  144.4620 C   0  0  1  0  0  3  0  0  0  0  0  0
  1 20  1  0  0  0  0
  2  5  2  0  0  0  0
  3 44  1  0  0  0  0
  3  1  2  0  0  0  0
  4  3  1  0  0  0  0
  5  1  1  0  0  0  0
  6  4  2  0  0  0  0
  6  2  1  0  0  0  0
  7  2  1  0  0  0  0
  7  8  1  0  0  0  0
  9  8  1  0  0  0  0
  9 10  1  0  0  0  0
 11 15  1  1  0  0  0
 11 10  1  0  0  0  0
 11 13  1  0  0  0  0
 13 12  1  0  0  0  0
 14 13  2  0  0  0  0
 15 16  1  0  0  0  0
 16 17  1  1  0  0  0
 18 16  1  0  0  0  0
 19 18  1  0  0  0  0
 20 22  1  0  0  0  0
 22 24  1  0  0  0  0
 22 21  2  0  0  0  0
 23 43  1  0  0  0  0
 24 23  2  0  0  0  0
 25 29  1  1  0  0  0
 25 28  1  0  0  0  0
 26 28  1  0  0  0  0
 27 23  1  6  0  0  0
 27 26  1  0  0  0  0
 27 25  1  0  0  0  0
 30 31  2  0  0  0  0
 30 32  1  0  0  0  0
 31 34  1  0  0  0  0
 32 35  2  0  0  0  0
 34 29  1  0  0  0  0
 34 33  2  0  0  0  0
 35 33  1  0  0  0  0
 36 32  1  0  0  0  0
 37 36  1  0  0  0  0
 38 37  1  0  0  0  0
 39 38  1  0  0  0  0
 40 41  1  0  0  0  0
 41 39  1  0  0  0  0
 43 42  1  0  0  0  0
 44 45  1  0  0  0  0
 45 46  2  0  0  0  0
 46 47  1  0  0  0  0
 47 50  1  0  0  0  0
 48 50  1  0  0  0  0
 49 48  2  0  0  0  0
 51 54  1  0  0  0  0
 52 55  1  0  0  0  0
 54 53  1  6  0  0  0
 55 56  1  0  0  0  0
 56 54  1  0  0  0  0
 57 48  1  1  0  0  0
 57 52  1  0  0  0  0
 57 51  1  0  0  0  0
M  END
>  <MODEL>
7

>  <REMARK>
 VINA RESULT:      -5.2      2.435      5.878
  Name = 
  26 active torsions:
  status: ('A' for Active; 'I' for Inactive)
    1  A    between atoms: C_1  and  C_14
    2  A    between atoms: C_2  and  C_38
    3  A    between atoms: C_2  and  C_51
    4  A    between atoms: C_3  and  N_45
    5  A    between atoms: C_4  and  C_39
    6  A    between atoms: C_7  and  C_15
    7  A    between atoms: C_8  and  C_40
    8  A    between atoms: C_8  and  C_47
    9  A    between atoms: C_9  and  C_43
   10  A    between atoms: N_10  and  N_13
   11  A    between atoms: N_10  and  N_33
   12  A    between atoms: C_11  and  C_18
   13  A    between atoms: C_11  and  C_23
   14  A    between atoms: N_13  and  C_23
   15  A    between atoms: C_14  and  C_52
   16  A    between atoms: C_15  and  N_33
   17  A    between atoms: C_18  and  C_19
   18  A    between atoms: C_22  and  C_56
   19  A    between atoms: C_23  and  C_31
   20  A    between atoms: S_24  and  C_37
   21  A    between atoms: S_24  and  C_40
   22  A    between atoms: C_28  and  N_45
   23  A    between atoms: C_34  and  C_39
   24  A    between atoms: C_34  and  N_53
   25  A    between atoms: C_35  and  C_47
   26  A    between atoms: N_36  and  C_43
                            x       y       z     vdW  Elec       q    Type
                         _______ _______ _______ _____ _____    ______ ____

>  <TORSDO>
F 26

$$$$
=
 OpenBabel11042417493D

 57 60  0  0  1  0  0  0  0  0999 V2000
  191.4950  174.7470  142.9220 C   0  0  0  0  0  0  0  0  0  0  0  0
  189.2210  175.4610  143.0320 C   0  0  0  0  0  0  0  0  0  0  0  0
  191.7870  175.4510  144.1130 C   0  0  0  0  0  0  0  0  0  0  0  0
  190.7550  176.1440  144.7500 C   0  0  0  0  0  3  0  0  0  0  0  0
  190.2210  174.7640  142.4340 N   0  0  0  0  0  0  0  0  0  0  0  0
  189.4700  176.1610  144.2100 C   0  0  0  0  0  3  0  0  0  0  0  0
  187.8520  175.4680  142.4390 C   0  0  0  0  0  2  0  0  0  0  0  0
  187.7600  176.4950  141.4090 N   0  0  0  0  0  2  0  0  0  0  0  0
  187.6040  177.7270  142.0600 N   0  0  0  0  0  2  0  0  0  0  0  0
  186.4490  178.3210  141.5350 N   0  0  0  0  0  2  0  0  0  0  0  0
  185.4530  178.3160  142.5960 C   0  0  2  0  0  3  0  0  0  0  0  0
  183.0730  178.5770  142.7110 O   0  0  0  0  0  1  0  0  0  0  0  0
  184.0770  178.2730  142.0110 C   0  0  0  0  0  0  0  0  0  0  0  0
  183.9030  177.8720  140.6930 O   0  0  0  0  0  0  0  0  0  0  0  0
  185.6440  179.5470  143.4760 C   0  0  0  0  0  2  0  0  0  0  0  0
  185.7930  179.1780  144.9500 C   0  0  2  0  0  3  0  0  0  0  0  0
  186.6140  178.0680  145.0750 F   0  0  0  0  0  0  0  0  0  0  0  0
  184.4480  178.9230  145.6300 C   0  0  0  0  0  2  0  0  0  0  0  0
  184.5190  177.7610  146.6110 C   0  0  0  0  0  1  0  0  0  0  0  0
  192.5130  173.8550  142.2710 C   0  0  0  0  0  2  0  0  0  0  0  0
  191.6280  173.8630  140.0600 O   0  0  0  0  0  0  0  0  0  0  0  0
  191.9650  173.1750  141.0610 C   0  0  0  0  0  0  0  0  0  0  0  0
  191.1580  171.0060  140.2140 C   0  0  0  0  0  0  0  0  0  0  0  0
  191.7570  171.7540  141.1020 N   0  0  0  0  0  0  0  0  0  0  0  0
  191.6500  171.2940  137.8170 C   0  0  1  0  0  3  0  0  0  0  0  0
  189.7440  170.6390  138.2350 N   0  0  0  0  0  2  0  0  0  0  0  0
  190.6530  171.5670  138.9000 C   0  0  1  0  0  3  0  0  0  0  0  0
  190.6860  170.3770  137.2210 N   0  0  0  0  0  2  0  0  0  0  0  0
  191.8070  172.5150  136.9260 C   0  0  0  0  0  2  0  0  0  0  0  0
  195.5620  172.6350  137.3930 C   0  0  0  0  0  3  0  0  0  0  0  0
  194.2440  172.1660  137.3530 C   0  0  0  0  0  3  0  0  0  0  0  0
  195.8400  173.9710  137.0810 C   0  0  0  0  0  0  0  0  0  0  0  0
  193.4820  174.3710  136.6900 C   0  0  0  0  0  3  0  0  0  0  0  0
  193.2030  173.0330  137.0020 C   0  0  0  0  0  0  0  0  0  0  0  0
  194.8000  174.8380  136.7280 C   0  0  0  0  0  3  0  0  0  0  0  0
  197.5290  174.5560  137.0830 S   0  0  0  0  0  0  0  0  0  0  0  0
  197.7050  174.3210  138.8790 C   0  0  0  0  0  2  0  0  0  0  0  0
  197.7730  175.6740  139.5500 C   0  0  0  0  0  2  0  0  0  0  0  0
  196.9270  175.6570  140.8110 C   0  0  0  0  0  2  0  0  0  0  0  0
  196.0340  173.4860  141.6050 C   0  0  0  0  0  1  0  0  0  0  0  0
  195.8090  174.6480  140.6570 C   0  0  0  0  0  2  0  0  0  0  0  0
  192.3540  168.9120  140.2520 N   0  0  0  0  0  1  0  0  0  0  0  0
  191.0640  169.5380  140.4900 C   0  0  0  0  0  2  0  0  0  0  0  0
  193.0810  175.4570  144.7300 N   0  0  0  0  0  2  0  0  0  0  0  0
  194.2850  175.8740  144.0840 C   0  0  0  0  0  3  0  0  0  0  0  0
  195.4780  175.6370  144.6170 C   0  0  0  0  0  3  0  0  0  0  0  0
  195.6530  174.9060  145.9140 C   0  0  0  0  0  2  0  0  0  0  0  0
  195.2720  172.4090  145.6150 C   0  0  0  0  0  0  0  0  0  0  0  0
  194.0260  172.5510  145.7540 O   0  0  0  0  0  0  0  0  0  0  0  0
  196.1360  173.5490  145.6780 N   0  0  0  0  0  2  0  0  0  0  0  0
  195.2150  169.9340  146.1320 C   0  0  0  0  0  2  0  0  0  0  0  0
  195.7280  170.7220  143.7890 C   0  0  0  0  0  2  0  0  0  0  0  0
  197.0100  168.4340  147.0170 C   0  0  0  0  0  1  0  0  0  0  0  0
  195.9650  168.6060  145.9310 C   0  0  2  0  0  3  0  0  0  0  0  0
  195.8270  169.2190  143.4850 C   0  0  0  0  0  2  0  0  0  0  0  0
  196.6340  168.4820  144.5550 C   0  0  0  0  0  2  0  0  0  0  0  0
  195.8380  171.0510  145.2890 C   0  0  1  0  0  3  0  0  0  0  0  0
  1  3  1  0  0  0  0
  2  6  2  0  0  0  0
  3 44  1  0  0  0  0
  3  4  2  0  0  0  0
  5  1  2  0  0  0  0
  5  2  1  0  0  0  0
  6  4  1  0  0  0  0
  7  2  1  0  0  0  0
  8  9  1  0  0  0  0
  8  7  1  0  0  0  0
 10  9  1  0  0  0  0
 10 11  1  0  0  0  0
 11 15  1  6  0  0  0
 13 11  1  0  0  0  0
 13 12  1  0  0  0  0
 14 13  2  0  0  0  0
 15 16  1  0  0  0  0
 16 17  1  6  0  0  0
 16 18  1  0  0  0  0
 18 19  1  0  0  0  0
 20  1  1  0  0  0  0
 21 22  2  0  0  0  0
 22 24  1  0  0  0  0
 22 20  1  0  0  0  0
 23 43  1  0  0  0  0
 23 24  2  0  0  0  0
 25 29  1  6  0  0  0
 25 27  1  0  0  0  0
 26 27  1  0  0  0  0
 27 23  1  1  0  0  0
 28 25  1  0  0  0  0
 28 26  1  0  0  0  0
 29 34  1  0  0  0  0
 31 30  1  0  0  0  0
 32 36  1  0  0  0  0
 32 30  2  0  0  0  0
 33 35  2  0  0  0  0
 33 34  1  0  0  0  0
 34 31  2  0  0  0  0
 35 32  1  0  0  0  0
 36 37  1  0  0  0  0
 37 38  1  0  0  0  0
 38 39  1  0  0  0  0
 41 39  1  0  0  0  0
 41 40  1  0  0  0  0
 42 43  1  0  0  0  0
 45 46  2  0  0  0  0
 45 44  1  0  0  0  0
 46 47  1  0  0  0  0
 48 50  1  0  0  0  0
 48 49  2  0  0  0  0
 50 47  1  0  0  0  0
 52 57  1  0  0  0  0
 54 51  1  0  0  0  0
 54 53  1  1  0  0  0
 55 52  1  0  0  0  0
 55 56  1  0  0  0  0
 56 54  1  0  0  0  0
 57 48  1  6  0  0  0
 57 51  1  0  0  0  0
M  END
>  <MODEL>
8

>  <REMARK>
 VINA RESULT:      -5.0      3.759      6.823
  Name = 
  26 active torsions:
  status: ('A' for Active; 'I' for Inactive)
    1  A    between atoms: C_1  and  C_14
    2  A    between atoms: C_2  and  C_38
    3  A    between atoms: C_2  and  C_51
    4  A    between atoms: C_3  and  N_45
    5  A    between atoms: C_4  and  C_39
    6  A    between atoms: C_7  and  C_15
    7  A    between atoms: C_8  and  C_40
    8  A    between atoms: C_8  and  C_47
    9  A    between atoms: C_9  and  C_43
   10  A    between atoms: N_10  and  N_13
   11  A    between atoms: N_10  and  N_33
   12  A    between atoms: C_11  and  C_18
   13  A    between atoms: C_11  and  C_23
   14  A    between atoms: N_13  and  C_23
   15  A    between atoms: C_14  and  C_52
   16  A    between atoms: C_15  and  N_33
   17  A    between atoms: C_18  and  C_19
   18  A    between atoms: C_22  and  C_56
   19  A    between atoms: C_23  and  C_31
   20  A    between atoms: S_24  and  C_37
   21  A    between atoms: S_24  and  C_40
   22  A    between atoms: C_28  and  N_45
   23  A    between atoms: C_34  and  C_39
   24  A    between atoms: C_34  and  N_53
   25  A    between atoms: C_35  and  C_47
   26  A    between atoms: N_36  and  C_43
                            x       y       z     vdW  Elec       q    Type
                         _______ _______ _______ _____ _____    ______ ____

>  <TORSDO>
F 26

$$$$
=
 OpenBabel11042417493D

 57 60  0  0  1  0  0  0  0  0999 V2000
  191.4740  172.9420  138.7140 C   0  0  0  0  0  0  0  0  0  0  0  0
  191.6310  173.0950  136.3370 C   0  0  0  0  0  0  0  0  0  0  0  0
  190.1580  173.4580  138.6730 C   0  0  0  0  0  0  0  0  0  0  0  0
  189.6010  173.7710  137.4310 C   0  0  0  0  0  3  0  0  0  0  0  0
  192.1560  172.7640  137.5460 N   0  0  0  0  0  0  0  0  0  0  0  0
  190.3360  173.6000  136.2580 C   0  0  0  0  0  3  0  0  0  0  0  0
  192.4330  172.9070  135.0930 C   0  0  0  0  0  2  0  0  0  0  0  0
  193.1850  174.1190  134.7960 N   0  0  0  0  0  2  0  0  0  0  0  0
  194.3180  174.1220  135.6230 N   0  0  0  0  0  2  0  0  0  0  0  0
  194.3860  175.3910  136.2140 N   0  0  0  0  0  2  0  0  0  0  0  0
  195.6520  175.4560  136.9290 C   0  0  2  0  0  3  0  0  0  0  0  0
  196.8610  176.4780  135.1290 O   0  0  0  0  0  0  0  0  0  0  0  0
  196.7880  175.5310  135.9590 C   0  0  0  0  0  0  0  0  0  0  0  0
  197.7570  174.5360  135.9570 O   0  0  0  0  0  1  0  0  0  0  0  0
  195.7820  174.2420  137.8420 C   0  0  0  0  0  2  0  0  0  0  0  0
  195.0280  174.4320  139.1560 C   0  0  2  0  0  3  0  0  0  0  0  0
  195.2490  175.7110  139.6420 F   0  0  0  0  0  0  0  0  0  0  0  0
  195.4110  173.3900  140.2080 C   0  0  0  0  0  2  0  0  0  0  0  0
  196.0670  174.0280  141.4240 C   0  0  0  0  0  1  0  0  0  0  0  0
  192.0770  172.4390  139.9940 C   0  0  0  0  0  2  0  0  0  0  0  0
  190.8370  170.4690  140.4970 O   0  0  0  0  0  0  0  0  0  0  0  0
  191.9380  170.9590  140.1310 C   0  0  0  0  0  0  0  0  0  0  0  0
  194.0860  169.9190  140.7460 C   0  0  0  0  0  0  0  0  0  0  0  0
  193.0970  170.1340  139.9210 N   0  0  0  0  0  0  0  0  0  0  0  0
  193.7250  169.4010  143.1270 C   0  0  1  0  0  3  0  0  0  0  0  0
  195.4370  170.4700  142.7270 N   0  0  0  0  0  2  0  0  0  0  0  0
  194.0950  170.4770  142.1540 C   0  0  1  0  0  3  0  0  0  0  0  0
  195.0890  169.4510  143.6360 N   0  0  0  0  0  2  0  0  0  0  0  0
  192.7700  169.9460  144.1780 C   0  0  0  0  0  2  0  0  0  0  0  0
  194.1120  173.2530  145.4400 C   0  0  0  0  0  3  0  0  0  0  0  0
  193.8900  171.8790  145.2970 C   0  0  0  0  0  3  0  0  0  0  0  0
  193.4200  174.1620  144.6310 C   0  0  0  0  0  0  0  0  0  0  0  0
  192.2800  172.3240  143.5390 C   0  0  0  0  0  3  0  0  0  0  0  0
  192.9740  171.4130  144.3480 C   0  0  0  0  0  0  0  0  0  0  0  0
  192.5050  173.6970  143.6800 C   0  0  0  0  0  3  0  0  0  0  0  0
  193.7420  175.9140  144.7790 S   0  0  0  0  0  0  0  0  0  0  0  0
  193.3710  175.9260  146.5600 C   0  0  0  0  0  2  0  0  0  0  0  0
  191.9000  176.2160  146.7560 C   0  0  0  0  0  2  0  0  0  0  0  0
  191.3210  176.7910  145.4750 C   0  0  0  0  0  2  0  0  0  0  0  0
  189.1360  175.6390  145.6710 C   0  0  0  0  0  1  0  0  0  0  0  0
  189.8290  176.9880  145.6390 C   0  0  0  0  0  2  0  0  0  0  0  0
  196.1040  169.7530  139.4350 N   0  0  0  0  0  1  0  0  0  0  0  0
  195.1890  169.0150  140.2890 C   0  0  0  0  0  2  0  0  0  0  0  0
  189.3440  173.6380  139.8380 N   0  0  0  0  0  2  0  0  0  0  0  0
  189.8330  174.0640  141.1110 C   0  0  0  0  0  3  0  0  0  0  0  0
  189.1300  174.8800  141.8890 C   0  0  0  0  0  3  0  0  0  0  0  0
  187.7770  175.3970  141.5040 C   0  0  0  0  0  2  0  0  0  0  0  0
  186.4760  177.1900  142.7550 C   0  0  0  0  0  0  0  0  0  0  0  0
  186.5530  177.9770  141.7720 O   0  0  0  0  0  0  0  0  0  0  0  0
  187.0610  175.8860  142.6780 N   0  0  0  0  0  2  0  0  0  0  0  0
  186.5410  178.3050  145.0250 C   0  0  0  0  0  2  0  0  0  0  0  0
  184.4540  178.4420  143.6100 C   0  0  0  0  0  2  0  0  0  0  0  0
  186.0620  177.3650  147.2910 C   0  0  0  0  0  1  0  0  0  0  0  0
  185.7580  178.5020  146.3340 C   0  0  2  0  0  3  0  0  0  0  0  0
  183.9100  179.2640  144.7890 C   0  0  0  0  0  2  0  0  0  0  0  0
  184.2400  178.6060  146.1310 C   0  0  0  0  0  2  0  0  0  0  0  0
  185.6850  177.5920  143.9720 C   0  0  1  0  0  3  0  0  0  0  0  0
  1 20  1  0  0  0  0
  2  5  1  0  0  0  0
  3  1  1  0  0  0  0
  3 44  1  0  0  0  0
  4  3  2  0  0  0  0
  5  1  2  0  0  0  0
  6  2  2  0  0  0  0
  6  4  1  0  0  0  0
  7  2  1  0  0  0  0
  8  7  1  0  0  0  0
  8  9  1  0  0  0  0
  9 10  1  0  0  0  0
 10 11  1  0  0  0  0
 11 15  1  6  0  0  0
 12 13  2  0  0  0  0
 13 11  1  0  0  0  0
 14 13  1  0  0  0  0
 15 16  1  0  0  0  0
 16 17  1  1  0  0  0
 16 18  1  0  0  0  0
 18 19  1  0  0  0  0
 20 22  1  0  0  0  0
 22 21  2  0  0  0  0
 24 22  1  0  0  0  0
 24 23  2  0  0  0  0
 25 28  1  0  0  0  0
 25 29  1  1  0  0  0
 26 28  1  0  0  0  0
 27 23  1  6  0  0  0
 27 26  1  0  0  0  0
 27 25  1  0  0  0  0
 29 34  1  0  0  0  0
 31 30  1  0  0  0  0
 32 36  1  0  0  0  0
 32 30  2  0  0  0  0
 33 35  2  0  0  0  0
 33 34  1  0  0  0  0
 34 31  2  0  0  0  0
 35 32  1  0  0  0  0
 36 37  1  0  0  0  0
 37 38  1  0  0  0  0
 39 41  1  0  0  0  0
 39 38  1  0  0  0  0
 41 40  1  0  0  0  0
 42 43  1  0  0  0  0
 43 23  1  0  0  0  0
 44 45  1  0  0  0  0
 45 46  2  0  0  0  0
 47 46  1  0  0  0  0
 47 50  1  0  0  0  0
 49 48  2  0  0  0  0
 50 48  1  0  0  0  0
 51 54  1  0  0  0  0
 52 57  1  0  0  0  0
 52 55  1  0  0  0  0
 54 53  1  1  0  0  0
 55 56  1  0  0  0  0
 56 54  1  0  0  0  0
 57 48  1  6  0  0  0
 57 51  1  0  0  0  0
M  END
>  <MODEL>
9

>  <REMARK>
 VINA RESULT:      -4.9      4.179      9.999
  Name = 
  26 active torsions:
  status: ('A' for Active; 'I' for Inactive)
    1  A    between atoms: C_1  and  C_14
    2  A    between atoms: C_2  and  C_38
    3  A    between atoms: C_2  and  C_51
    4  A    between atoms: C_3  and  N_45
    5  A    between atoms: C_4  and  C_39
    6  A    between atoms: C_7  and  C_15
    7  A    between atoms: C_8  and  C_40
    8  A    between atoms: C_8  and  C_47
    9  A    between atoms: C_9  and  C_43
   10  A    between atoms: N_10  and  N_13
   11  A    between atoms: N_10  and  N_33
   12  A    between atoms: C_11  and  C_18
   13  A    between atoms: C_11  and  C_23
   14  A    between atoms: N_13  and  C_23
   15  A    between atoms: C_14  and  C_52
   16  A    between atoms: C_15  and  N_33
   17  A    between atoms: C_18  and  C_19
   18  A    between atoms: C_22  and  C_56
   19  A    between atoms: C_23  and  C_31
   20  A    between atoms: S_24  and  C_37
   21  A    between atoms: S_24  and  C_40
   22  A    between atoms: C_28  and  N_45
   23  A    between atoms: C_34  and  C_39
   24  A    between atoms: C_34  and  N_53
   25  A    between atoms: C_35  and  C_47
   26  A    between atoms: N_36  and  C_43
                            x       y       z     vdW  Elec       q    Type
                         _______ _______ _______ _____ _____    ______ ____

>  <TORSDO>
F 26

$$$$
