=
 OpenBabel11042419093D

 59 68  0  0  1  0  0  0  0  0999 V2000
  184.6450  179.5330  143.4450 N   0  0  0  0  0  2  0  0  0  0  0  0
  184.1120  178.2910  142.9030 C   0  0  0  0  0  2  0  0  0  0  0  0
  187.0250  177.1360  138.9240 C   0  0  0  0  0  1  0  0  0  0  0  0
  185.4490  177.8280  140.7800 C   0  0  0  0  0  3  0  0  0  0  0  0
  185.1660  177.5950  142.1200 C   0  0  0  0  0  0  0  0  0  0  0  0
  187.0770  176.2280  141.2960 C   0  0  0  0  0  0  0  0  0  0  0  0
  186.5230  177.0550  140.3220 C   0  0  0  0  0  0  0  0  0  0  0  0
  186.2350  176.4540  142.7360 S   0  0  0  0  0  0  0  0  0  0  0  0
  188.2550  175.3280  141.1080 C   0  0  1  0  0  3  0  0  0  0  0  0
  189.9470  172.8580  143.6560 N   0  0  0  0  0  2  0  0  0  0  0  0
  190.0400  175.0270  142.6770 N   0  0  0  0  0  0  0  0  0  0  0  0
  189.4230  175.8890  141.7700 N   0  0  0  0  0  2  0  0  0  0  0  0
  189.4260  173.9020  142.8290 C   0  0  0  0  0  0  0  0  0  0  0  0
  187.9430  173.6850  141.8600 S   0  0  0  0  0  0  0  0  0  0  0  0
  191.1430  173.0180  144.4770 C   0  0  0  0  0  2  0  0  0  0  0  0
  192.1090  171.8800  144.1930 C   0  0  0  0  0  2  0  0  0  0  0  0
  191.3780  170.3860  142.3190 C   0  0  0  0  0  3  0  0  0  0  0  0
  192.0990  171.5050  142.7510 C   0  0  0  0  0  0  0  0  0  0  0  0
  191.3530  170.0500  140.9620 C   0  0  0  0  0  3  0  0  0  0  0  0
  192.0390  170.8330  140.0280 C   0  0  0  0  0  0  0  0  0  0  0  0
  192.7600  171.9560  140.4660 C   0  0  0  0  0  3  0  0  0  0  0  0
  192.7920  172.2870  141.8230 C   0  0  0  0  0  3  0  0  0  0  0  0
  191.9820  170.4830  138.6780 O   0  0  0  0  0  0  0  0  0  0  0  0
  191.1400  170.6160  136.4190 C   0  0  0  0  0  2  0  0  0  0  0  0
  190.0960  171.2030  137.3380 C   0  0  2  0  0  0  0  0  0  0  0  0
  191.5680  171.3930  137.6620 C   0  0  1  0  0  3  0  0  0  0  0  0
  189.4170  170.2460  138.1040 O   0  0  0  0  0  1  0  0  0  0  0  0
  189.8730  173.7150  137.4360 C   0  0  0  0  0  2  0  0  0  0  0  0
  189.3560  172.4310  136.8050 C   0  0  0  0  0  3  0  0  0  0  0  0
  188.5820  173.0970  137.9320 C   0  0  0  0  0  2  0  0  0  0  0  0
  184.3920  179.5250  144.8230 N   0  0  0  0  0  2  0  0  0  0  0  0
  187.2860  177.6810  146.3340 C   0  0  0  0  0  0  0  0  0  0  0  0
  185.1750  178.7410  145.7240 C   0  0  0  0  0  0  0  0  0  0  0  0
  186.6830  177.2050  147.5130 C   0  0  0  0  0  3  0  0  0  0  0  0
  186.5210  178.4550  145.4490 C   0  0  0  0  0  3  0  0  0  0  0  0
  185.3440  177.4930  147.7940 C   0  0  0  0  0  3  0  0  0  0  0  0
  184.5900  178.2550  146.8970 C   0  0  0  0  0  3  0  0  0  0  0  0
  193.1200  175.7310  146.3080 C   0  0  0  0  0  0  0  0  0  0  0  0
  194.3410  175.0500  144.7190 C   0  0  0  0  0  0  0  0  0  0  0  0
  188.6960  177.3480  146.0100 C   0  0  0  0  0  0  0  0  0  0  0  0
  189.4940  176.4760  146.9690 C   0  0  0  0  0  2  0  0  0  0  0  0
  194.0260  174.7890  146.0140 N   0  0  0  0  0  2  0  0  0  0  0  0
  191.8170  174.9070  148.1820 O   0  0  0  0  0  0  0  0  0  0  0  0
  193.5420  176.0530  144.1560 C   0  0  0  0  0  3  0  0  0  0  0  0
  191.4270  176.9370  145.3800 C   0  0  0  0  0  0  0  0  0  0  0  0
  189.2540  177.8180  144.8700 C   0  0  0  0  0  3  0  0  0  0  0  0
  190.9130  176.4630  146.6240 N   0  0  0  0  0  0  0  0  0  0  0  0
  192.8080  176.4890  145.2330 C   0  0  0  0  0  0  0  0  0  0  0  0
  190.6590  177.5640  144.4990 C   0  0  0  0  0  3  0  0  0  0  0  0
  191.9480  175.6500  147.1740 C   0  0  0  0  0  0  0  0  0  0  0  0
  196.4390  173.7320  141.8780 C   0  0  0  0  0  2  0  0  0  0  0  0
  197.7220  171.7290  141.7470 O   0  0  0  0  0  1  0  0  0  0  0  0
  196.6760  172.3330  142.4410 C   0  0  1  0  0  3  0  0  0  0  0  0
  197.0390  172.4830  143.9180 C   0  0  1  0  0  3  0  0  0  0  0  0
  195.3120  174.2540  143.9590 C   0  0  0  0  0  0  0  0  0  0  0  0
  195.4610  174.4620  142.6820 N   0  0  0  0  0  0  0  0  0  0  0  0
  196.0460  173.2460  144.6040 O   0  0  0  0  0  0  0  0  0  0  0  0
  196.3040  170.9620  145.6360 O   0  0  0  0  0  1  0  0  0  0  0  0
  197.2270  171.1280  144.5970 C   0  0  0  0  0  2  0  0  0  0  0  0
  1 31  1  0  0  0  0
  2  1  1  0  0  0  0
  3  7  1  0  0  0  0
  4  5  2  0  0  0  0
  5  8  1  0  0  0  0
  5  2  1  0  0  0  0
  6  8  1  0  0  0  0
  7  4  1  0  0  0  0
  7  6  2  0  0  0  0
  9  6  1  1  0  0  0
  9 12  1  0  0  0  0
  9 14  1  0  0  0  0
 10 15  1  0  0  0  0
 11 13  2  0  0  0  0
 12 11  1  0  0  0  0
 13 10  1  0  0  0  0
 14 13  1  0  0  0  0
 16 15  1  0  0  0  0
 17 18  1  0  0  0  0
 18 16  1  0  0  0  0
 19 17  2  0  0  0  0
 20 21  2  0  0  0  0
 20 19  1  0  0  0  0
 21 22  1  0  0  0  0
 22 18  2  0  0  0  0
 23 20  1  0  0  0  0
 24 25  1  0  0  0  0
 24 26  1  0  0  0  0
 25 26  1  0  0  0  0
 25 27  1  1  0  0  0
 26 23  1  1  0  0  0
 28 30  1  0  0  0  0
 29 25  1  0  0  0  0
 29 28  1  0  0  0  0
 29 30  1  0  0  0  0
 31 33  1  0  0  0  0
 32 34  1  0  0  0  0
 33 37  2  0  0  0  0
 34 36  2  0  0  0  0
 35 33  1  0  0  0  0
 35 32  2  0  0  0  0
 37 36  1  0  0  0  0
 38 50  1  0  0  0  0
 39 42  1  0  0  0  0
 40 32  1  0  0  0  0
 40 41  1  0  0  0  0
 42 38  1  0  0  0  0
 44 39  2  0  0  0  0
 44 48  1  0  0  0  0
 45 47  1  0  0  0  0
 46 40  2  0  0  0  0
 47 41  1  0  0  0  0
 47 50  1  0  0  0  0
 48 45  1  0  0  0  0
 48 38  2  0  0  0  0
 49 46  1  0  0  0  0
 49 45  2  0  0  0  0
 50 43  2  0  0  0  0
 51 53  1  0  0  0  0
 51 56  1  0  0  0  0
 53 52  1  6  0  0  0
 53 54  1  0  0  0  0
 54 59  1  1  0  0  0
 54 57  1  0  0  0  0
 55 57  1  0  0  0  0
 55 39  1  0  0  0  0
 56 55  2  0  0  0  0
 59 58  1  0  0  0  0
M  END
>  <MODEL>
1

>  <REMARK>
 VINA RESULT:      -7.8      0.000      0.000
  Name = 
  14 active torsions:
  status: ('A' for Active; 'I' for Inactive)
    1  A    between atoms: C_4  and  C_26
    2  A    between atoms: C_5  and  N_58
    3  A    between atoms: C_9  and  C_22
    4  A    between atoms: C_12  and  C_14
    5  A    between atoms: C_13  and  C_20
    6  A    between atoms: N_16  and  C_45
    7  A    between atoms: N_16  and  N_58
    8  A    between atoms: C_17  and  C_36
    9  A    between atoms: C_22  and  C_46
   10  A    between atoms: C_23  and  O_55
   11  A    between atoms: C_24  and  C_29
   12  A    between atoms: N_28  and  C_46
   13  A    between atoms: C_31  and  C_45
   14  A    between atoms: C_39  and  O_55
                            x       y       z     vdW  Elec       q    Type
                         _______ _______ _______ _____ _____    ______ ____

>  <TORSDO>
F 14

$$$$
=
 OpenBabel11042419093D

 59 68  0  0  1  0  0  0  0  0999 V2000
  184.9050  176.9110  146.4640 N   0  0  0  0  0  2  0  0  0  0  0  0
  184.5200  178.0380  145.6280 C   0  0  0  0  0  2  0  0  0  0  0  0
  184.9010  178.3360  140.5860 C   0  0  0  0  0  1  0  0  0  0  0  0
  184.5050  178.2390  143.0840 C   0  0  0  0  0  3  0  0  0  0  0  0
  185.1240  177.8890  144.2780 C   0  0  0  0  0  0  0  0  0  0  0  0
  186.5880  177.5170  142.2990 C   0  0  0  0  0  0  0  0  0  0  0  0
  185.3330  178.0250  141.9750 C   0  0  0  0  0  0  0  0  0  0  0  0
  186.6790  177.3310  143.9690 S   0  0  0  0  0  0  0  0  0  0  0  0
  187.6900  177.2330  141.3300 C   0  0  1  0  0  3  0  0  0  0  0  0
  189.0760  173.7790  140.0610 N   0  0  0  0  0  2  0  0  0  0  0  0
  189.3880  175.5650  141.6050 N   0  0  0  0  0  0  0  0  0  0  0  0
  188.8780  176.7890  142.0420 N   0  0  0  0  0  2  0  0  0  0  0  0
  188.6740  174.9990  140.6910 C   0  0  0  0  0  0  0  0  0  0  0  0
  187.2130  175.8870  140.1800 S   0  0  0  0  0  0  0  0  0  0  0  0
  190.2520  173.0210  140.4770 C   0  0  0  0  0  2  0  0  0  0  0  0
  191.3730  173.2370  139.4740 C   0  0  0  0  0  2  0  0  0  0  0  0
  193.7950  173.8780  139.4640 C   0  0  0  0  0  3  0  0  0  0  0  0
  192.5530  173.8910  140.1080 C   0  0  0  0  0  0  0  0  0  0  0  0
  194.8940  174.5120  140.0520 C   0  0  0  0  0  3  0  0  0  0  0  0
  194.7580  175.1680  141.2790 C   0  0  0  0  0  0  0  0  0  0  0  0
  193.5090  175.1790  141.9210 C   0  0  0  0  0  3  0  0  0  0  0  0
  192.4120  174.5390  141.3370 C   0  0  0  0  0  3  0  0  0  0  0  0
  195.8690  175.8070  141.8330 O   0  0  0  0  0  0  0  0  0  0  0  0
  197.9400  176.0610  143.0470 C   0  0  0  0  0  2  0  0  0  0  0  0
  197.0400  175.1550  143.8520 C   0  0  2  0  0  0  0  0  0  0  0  0
  196.9970  175.0940  142.3350 C   0  0  1  0  0  3  0  0  0  0  0  0
  195.9740  175.8240  144.4700 O   0  0  0  0  0  1  0  0  0  0  0  0
  196.7730  172.8270  144.7870 C   0  0  0  0  0  2  0  0  0  0  0  0
  197.7300  173.9870  144.5590 C   0  0  0  0  0  3  0  0  0  0  0  0
  197.1030  173.7680  145.9270 C   0  0  0  0  0  2  0  0  0  0  0  0
  185.6400  177.4250  147.5400 N   0  0  0  0  0  2  0  0  0  0  0  0
  189.2400  176.6510  146.8270 C   0  0  0  0  0  0  0  0  0  0  0  0
  187.0630  177.5330  147.4910 C   0  0  0  0  0  0  0  0  0  0  0  0
  189.8500  177.7790  147.4070 C   0  0  0  0  0  3  0  0  0  0  0  0
  187.8410  176.5440  146.8700 C   0  0  0  0  0  3  0  0  0  0  0  0
  189.0780  178.7690  148.0220 C   0  0  0  0  0  3  0  0  0  0  0  0
  187.6870  178.6430  148.0670 C   0  0  0  0  0  3  0  0  0  0  0  0
  191.3260  171.6660  143.8890 C   0  0  0  0  0  0  0  0  0  0  0  0
  193.1030  171.3590  142.7810 C   0  0  0  0  0  0  0  0  0  0  0  0
  190.0530  175.5760  146.2070 C   0  0  0  0  0  0  0  0  0  0  0  0
  189.3630  174.5210  145.3540 C   0  0  0  0  0  2  0  0  0  0  0  0
  191.7730  171.0840  142.7680 N   0  0  0  0  0  0  0  0  0  0  0  0
  188.9510  172.0630  143.5870 O   0  0  0  0  0  0  0  0  0  0  0  0
  193.4690  172.2250  143.8190 C   0  0  0  0  0  3  0  0  0  0  0  0
  191.6780  173.4710  145.2310 C   0  0  0  0  0  0  0  0  0  0  0  0
  191.3920  175.5460  146.4010 C   0  0  0  0  0  3  0  0  0  0  0  0
  190.2650  173.4160  145.0390 N   0  0  0  0  0  0  0  0  0  0  0  0
  192.2990  172.3530  144.5280 C   0  0  1  0  0  3  0  0  0  0  0  0
  192.2610  174.4880  145.8510 C   0  0  0  0  0  3  0  0  0  0  0  0
  190.0490  172.3270  144.1420 C   0  0  0  0  0  0  0  0  0  0  0  0
  196.2480  170.7930  140.7830 C   0  0  0  0  0  2  0  0  0  0  0  0
  196.4990  170.0300  138.5400 O   0  0  0  0  0  1  0  0  0  0  0  0
  195.5850  170.6020  139.4210 C   0  0  1  0  0  3  0  0  0  0  0  0
  194.3860  169.6730  139.6150 C   0  0  1  0  0  3  0  0  0  0  0  0
  194.0190  170.9140  141.7240 C   0  0  0  0  0  0  0  0  0  0  0  0
  195.2790  171.2390  141.7810 N   0  0  0  0  0  0  0  0  0  0  0  0
  193.5250  170.1740  140.6390 O   0  0  0  0  0  0  0  0  0  0  0  0
  192.2380  169.3340  138.5780 O   0  0  0  0  0  1  0  0  0  0  0  0
  193.6060  169.4750  138.3180 C   0  0  0  0  0  2  0  0  0  0  0  0
  1 31  1  0  0  0  0
  2  1  1  0  0  0  0
  3  7  1  0  0  0  0
  4  5  2  0  0  0  0
  5  2  1  0  0  0  0
  6  8  1  0  0  0  0
  7  6  2  0  0  0  0
  7  4  1  0  0  0  0
  8  5  1  0  0  0  0
  9 12  1  0  0  0  0
  9  6  1  1  0  0  0
 10 15  1  0  0  0  0
 10 13  1  0  0  0  0
 11 12  1  0  0  0  0
 13 11  2  0  0  0  0
 14 13  1  0  0  0  0
 14  9  1  0  0  0  0
 16 18  1  0  0  0  0
 16 15  1  0  0  0  0
 17 19  2  0  0  0  0
 17 18  1  0  0  0  0
 18 22  2  0  0  0  0
 19 20  1  0  0  0  0
 20 23  1  0  0  0  0
 20 21  2  0  0  0  0
 22 21  1  0  0  0  0
 24 25  1  0  0  0  0
 25 27  1  1  0  0  0
 25 29  1  0  0  0  0
 26 23  1  6  0  0  0
 26 24  1  0  0  0  0
 26 25  1  0  0  0  0
 28 30  1  0  0  0  0
 29 28  1  0  0  0  0
 29 30  1  0  0  0  0
 32 35  2  0  0  0  0
 32 34  1  0  0  0  0
 33 31  1  0  0  0  0
 33 37  2  0  0  0  0
 34 36  2  0  0  0  0
 35 33  1  0  0  0  0
 36 37  1  0  0  0  0
 38 50  1  0  0  0  0
 38 48  1  0  0  0  0
 39 44  2  0  0  0  0
 40 46  2  0  0  0  0
 40 32  1  0  0  0  0
 41 40  1  0  0  0  0
 42 39  1  0  0  0  0
 42 38  2  0  0  0  0
 43 50  2  0  0  0  0
 45 49  2  0  0  0  0
 47 45  1  0  0  0  0
 47 41  1  0  0  0  0
 48 44  1  6  0  0  0
 48 45  1  0  0  0  0
 49 46  1  0  0  0  0
 50 47  1  0  0  0  0
 51 56  1  0  0  0  0
 53 52  1  6  0  0  0
 53 54  1  0  0  0  0
 53 51  1  0  0  0  0
 54 59  1  6  0  0  0
 54 57  1  0  0  0  0
 55 56  2  0  0  0  0
 55 39  1  0  0  0  0
 57 55  1  0  0  0  0
 59 58  1  0  0  0  0
M  END
>  <MODEL>
2

>  <REMARK>
 VINA RESULT:      -7.3      2.371      5.269
  Name = 
  14 active torsions:
  status: ('A' for Active; 'I' for Inactive)
    1  A    between atoms: C_4  and  C_26
    2  A    between atoms: C_5  and  N_58
    3  A    between atoms: C_9  and  C_22
    4  A    between atoms: C_12  and  C_14
    5  A    between atoms: C_13  and  C_20
    6  A    between atoms: N_16  and  C_45
    7  A    between atoms: N_16  and  N_58
    8  A    between atoms: C_17  and  C_36
    9  A    between atoms: C_22  and  C_46
   10  A    between atoms: C_23  and  O_55
   11  A    between atoms: C_24  and  C_29
   12  A    between atoms: N_28  and  C_46
   13  A    between atoms: C_31  and  C_45
   14  A    between atoms: C_39  and  O_55
                            x       y       z     vdW  Elec       q    Type
                         _______ _______ _______ _____ _____    ______ ____

>  <TORSDO>
F 14

$$$$
=
 OpenBabel11042419093D

 59 68  0  0  1  0  0  0  0  0999 V2000
  187.3640  178.6540  148.6420 N   0  0  0  0  0  2  0  0  0  0  0  0
  186.2940  177.8560  148.0610 C   0  0  0  0  0  2  0  0  0  0  0  0
  185.2080  180.4780  143.8650 C   0  0  0  0  0  1  0  0  0  0  0  0
  185.6420  179.3140  146.0710 C   0  0  0  0  0  3  0  0  0  0  0  0
  186.1830  178.1520  146.6080 C   0  0  0  0  0  0  0  0  0  0  0  0
  186.3010  178.2000  144.1220 C   0  0  0  0  0  0  0  0  0  0  0  0
  185.7100  179.3330  144.6720 C   0  0  0  0  0  0  0  0  0  0  0  0
  186.7460  177.1630  145.3720 S   0  0  0  0  0  0  0  0  0  0  0  0
  186.5460  177.9630  142.6670 C   0  0  1  0  0  3  0  0  0  0  0  0
  188.0760  174.8220  140.8650 N   0  0  0  0  0  2  0  0  0  0  0  0
  188.5270  176.9950  141.7280 N   0  0  0  0  0  0  0  0  0  0  0  0
  187.9650  178.0990  142.3710 N   0  0  0  0  0  2  0  0  0  0  0  0
  187.7080  176.0090  141.5720 C   0  0  0  0  0  0  0  0  0  0  0  0
  186.0540  176.2620  142.1930 S   0  0  0  0  0  0  0  0  0  0  0  0
  189.4280  174.5800  140.3690 C   0  0  0  0  0  2  0  0  0  0  0  0
  190.2500  173.9010  141.4520 C   0  0  0  0  0  2  0  0  0  0  0  0
  191.7350  175.6020  142.5360 C   0  0  0  0  0  3  0  0  0  0  0  0
  191.5770  174.5560  141.6200 C   0  0  0  0  0  0  0  0  0  0  0  0
  192.9880  176.2000  142.7070 C   0  0  0  0  0  3  0  0  0  0  0  0
  194.0900  175.7520  141.9700 C   0  0  0  0  0  0  0  0  0  0  0  0
  193.9270  174.7030  141.0530 C   0  0  0  0  0  3  0  0  0  0  0  0
  192.6730  174.1100  140.8760 C   0  0  0  0  0  3  0  0  0  0  0  0
  195.3320  176.3570  142.1750 O   0  0  0  0  0  0  0  0  0  0  0  0
  197.5990  176.4920  142.9920 C   0  0  0  0  0  2  0  0  0  0  0  0
  196.8710  175.4570  143.8150 C   0  0  2  0  0  0  0  0  0  0  0  0
  196.5350  175.6120  142.3420 C   0  0  1  0  0  3  0  0  0  0  0  0
  195.9470  176.0030  144.7160 O   0  0  0  0  0  1  0  0  0  0  0  0
  196.7890  173.0130  144.4320 C   0  0  0  0  0  2  0  0  0  0  0  0
  197.6840  174.2200  144.1990 C   0  0  0  0  0  3  0  0  0  0  0  0
  197.3310  173.7890  145.6140 C   0  0  0  0  0  2  0  0  0  0  0  0
  188.4030  178.6990  147.7040 N   0  0  0  0  0  2  0  0  0  0  0  0
  191.2720  176.3150  147.3210 C   0  0  0  0  0  0  0  0  0  0  0  0
  189.6430  178.0270  147.9290 C   0  0  0  0  0  0  0  0  0  0  0  0
  192.0820  176.7340  148.3930 C   0  0  0  0  0  3  0  0  0  0  0  0
  190.0560  176.9760  147.0950 C   0  0  0  0  0  3  0  0  0  0  0  0
  191.6780  177.7840  149.2220 C   0  0  0  0  0  3  0  0  0  0  0  0
  190.4580  178.4260  148.9930 C   0  0  0  0  0  3  0  0  0  0  0  0
  191.5350  171.3000  143.7700 C   0  0  0  0  0  0  0  0  0  0  0  0
  192.8330  170.8050  142.1730 C   0  0  0  0  0  0  0  0  0  0  0  0
  191.6750  175.1760  146.4590 C   0  0  0  0  0  0  0  0  0  0  0  0
  190.5980  174.3060  145.8250 C   0  0  0  0  0  2  0  0  0  0  0  0
  191.5310  170.7390  142.5520 N   0  0  0  0  0  0  0  0  0  0  0  0
  189.2780  172.0800  144.2020 O   0  0  0  0  0  0  0  0  0  0  0  0
  193.6270  171.5240  143.0750 C   0  0  0  0  0  3  0  0  0  0  0  0
  192.5640  172.9230  144.9890 C   0  0  0  0  0  0  0  0  0  0  0  0
  192.9880  174.9250  146.2430 C   0  0  0  0  0  3  0  0  0  0  0  0
  191.1680  173.1020  145.2280 N   0  0  0  0  0  0  0  0  0  0  0  0
  192.7540  171.7770  144.1050 C   0  0  1  0  0  3  0  0  0  0  0  0
  193.4650  173.7890  145.4320 C   0  0  0  0  0  3  0  0  0  0  0  0
  190.5190  172.1290  144.4100 C   0  0  0  0  0  0  0  0  0  0  0  0
  194.9800  169.1450  139.5570 C   0  0  0  0  0  2  0  0  0  0  0  0
  194.8470  169.2800  137.1820 O   0  0  0  0  0  1  0  0  0  0  0  0
  194.4660  169.9310  138.3530 C   0  0  1  0  0  3  0  0  0  0  0  0
  192.9420  169.9890  138.4530 C   0  0  1  0  0  3  0  0  0  0  0  0
  193.3120  170.3030  140.8800 C   0  0  0  0  0  0  0  0  0  0  0  0
  194.4660  169.7030  140.8060 N   0  0  0  0  0  0  0  0  0  0  0  0
  192.5430  170.5060  139.7240 O   0  0  0  0  0  0  0  0  0  0  0  0
  191.9900  172.0990  137.7850 O   0  0  0  0  0  1  0  0  0  0  0  0
  192.3310  170.8200  137.3280 C   0  0  0  0  0  2  0  0  0  0  0  0
  2  1  1  0  0  0  0
  3  7  1  0  0  0  0
  4  5  2  0  0  0  0
  5  2  1  0  0  0  0
  6  7  2  0  0  0  0
  6  8  1  0  0  0  0
  7  4  1  0  0  0  0
  8  5  1  0  0  0  0
  9  6  1  1  0  0  0
 10 13  1  0  0  0  0
 11 12  1  0  0  0  0
 12  9  1  0  0  0  0
 13 11  2  0  0  0  0
 13 14  1  0  0  0  0
 14  9  1  0  0  0  0
 15 10  1  0  0  0  0
 15 16  1  0  0  0  0
 16 18  1  0  0  0  0
 17 19  1  0  0  0  0
 18 17  2  0  0  0  0
 20 23  1  0  0  0  0
 20 19  2  0  0  0  0
 21 20  1  0  0  0  0
 22 21  2  0  0  0  0
 22 18  1  0  0  0  0
 24 25  1  0  0  0  0
 25 29  1  0  0  0  0
 25 27  1  1  0  0  0
 26 23  1  1  0  0  0
 26 24  1  0  0  0  0
 26 25  1  0  0  0  0
 28 30  1  0  0  0  0
 29 28  1  0  0  0  0
 29 30  1  0  0  0  0
 31 33  1  0  0  0  0
 31  1  1  0  0  0  0
 32 34  1  0  0  0  0
 33 37  2  0  0  0  0
 34 36  2  0  0  0  0
 35 32  2  0  0  0  0
 35 33  1  0  0  0  0
 37 36  1  0  0  0  0
 38 48  1  0  0  0  0
 38 50  1  0  0  0  0
 39 42  1  0  0  0  0
 39 44  2  0  0  0  0
 40 32  1  0  0  0  0
 41 40  1  0  0  0  0
 42 38  2  0  0  0  0
 43 50  2  0  0  0  0
 45 47  1  0  0  0  0
 45 49  2  0  0  0  0
 46 40  2  0  0  0  0
 47 41  1  0  0  0  0
 48 44  1  6  0  0  0
 48 45  1  0  0  0  0
 49 46  1  0  0  0  0
 50 47  1  0  0  0  0
 51 56  1  0  0  0  0
 53 52  1  6  0  0  0
 53 54  1  0  0  0  0
 53 51  1  0  0  0  0
 54 59  1  6  0  0  0
 54 57  1  0  0  0  0
 55 39  1  0  0  0  0
 56 55  2  0  0  0  0
 57 55  1  0  0  0  0
 59 58  1  0  0  0  0
M  END
>  <MODEL>
3

>  <REMARK>
 VINA RESULT:      -7.1      2.455      6.026
  Name = 
  14 active torsions:
  status: ('A' for Active; 'I' for Inactive)
    1  A    between atoms: C_4  and  C_26
    2  A    between atoms: C_5  and  N_58
    3  A    between atoms: C_9  and  C_22
    4  A    between atoms: C_12  and  C_14
    5  A    between atoms: C_13  and  C_20
    6  A    between atoms: N_16  and  C_45
    7  A    between atoms: N_16  and  N_58
    8  A    between atoms: C_17  and  C_36
    9  A    between atoms: C_22  and  C_46
   10  A    between atoms: C_23  and  O_55
   11  A    between atoms: C_24  and  C_29
   12  A    between atoms: N_28  and  C_46
   13  A    between atoms: C_31  and  C_45
   14  A    between atoms: C_39  and  O_55
                            x       y       z     vdW  Elec       q    Type
                         _______ _______ _______ _____ _____    ______ ____

>  <TORSDO>
F 14

$$$$
=
 OpenBabel11042419093D

 59 68  0  0  1  0  0  0  0  0999 V2000
  194.0860  176.5340  135.9010 N   0  0  0  0  0  2  0  0  0  0  0  0
  193.4620  175.8150  134.8000 C   0  0  0  0  0  2  0  0  0  0  0  0
  188.5220  175.1880  135.7240 C   0  0  0  0  0  1  0  0  0  0  0  0
  190.9470  175.7040  135.2150 C   0  0  0  0  0  3  0  0  0  0  0  0
  192.2200  175.1520  135.2770 C   0  0  0  0  0  0  0  0  0  0  0  0
  190.4660  173.6060  136.1310 C   0  0  0  0  0  0  0  0  0  0  0  0
  189.9650  174.8300  135.6990 C   0  0  0  0  0  0  0  0  0  0  0  0
  192.1350  173.5980  135.9130 S   0  0  0  0  0  0  0  0  0  0  0  0
  189.6520  172.4670  136.6540 C   0  0  1  0  0  3  0  0  0  0  0  0
  190.1130  170.3640  139.9440 N   0  0  0  0  0  2  0  0  0  0  0  0
  190.5290  170.4480  137.6000 N   0  0  0  0  0  0  0  0  0  0  0  0
  190.3570  171.2110  136.4440 N   0  0  0  0  0  2  0  0  0  0  0  0
  190.0970  171.0210  138.6730 C   0  0  0  0  0  0  0  0  0  0  0  0
  189.3760  172.6390  138.4580 S   0  0  0  0  0  0  0  0  0  0  0  0
  190.7190  169.0520  140.1510 C   0  0  0  0  0  2  0  0  0  0  0  0
  190.9620  168.8370  141.6350 C   0  0  0  0  0  2  0  0  0  0  0  0
  193.2010  169.8130  141.0800 C   0  0  0  0  0  3  0  0  0  0  0  0
  192.3180  169.3040  142.0390 C   0  0  0  0  0  0  0  0  0  0  0  0
  194.4650  170.2710  141.4660 C   0  0  0  0  0  3  0  0  0  0  0  0
  194.8500  170.2320  142.8100 C   0  0  0  0  0  0  0  0  0  0  0  0
  193.9600  169.7210  143.7680 C   0  0  0  0  0  3  0  0  0  0  0  0
  192.7000  169.2560  143.3820 C   0  0  0  0  0  3  0  0  0  0  0  0
  196.1120  170.7130  143.1670 O   0  0  0  0  0  0  0  0  0  0  0  0
  197.6550  172.1110  144.3870 C   0  0  0  0  0  2  0  0  0  0  0  0
  196.2970  172.7680  144.4370 C   0  0  2  0  0  0  0  0  0  0  0  0
  196.3950  171.2520  144.4560 C   0  0  1  0  0  3  0  0  0  0  0  0
  195.9040  173.3420  143.2200 O   0  0  0  0  0  1  0  0  0  0  0  0
  194.5120  173.9890  145.7360 C   0  0  0  0  0  2  0  0  0  0  0  0
  195.9300  173.4410  145.7600 C   0  0  0  0  0  3  0  0  0  0  0  0
  195.6850  174.9250  145.5360 C   0  0  0  0  0  2  0  0  0  0  0  0
  195.2300  175.8150  136.2710 N   0  0  0  0  0  2  0  0  0  0  0  0
  194.3300  174.3840  139.6180 C   0  0  0  0  0  0  0  0  0  0  0  0
  195.2600  175.0120  137.4520 C   0  0  0  0  0  0  0  0  0  0  0  0
  195.3450  173.4190  139.7510 C   0  0  0  0  0  3  0  0  0  0  0  0
  194.2940  175.1710  138.4570 C   0  0  0  0  0  3  0  0  0  0  0  0
  196.3050  173.2530  138.7500 C   0  0  0  0  0  3  0  0  0  0  0  0
  196.2650  174.0520  137.6040 C   0  0  0  0  0  3  0  0  0  0  0  0
  191.2020  176.0970  144.6300 C   0  0  0  0  0  0  0  0  0  0  0  0
  189.1260  176.3770  144.9340 C   0  0  0  0  0  0  0  0  0  0  0  0
  193.3280  174.5930  140.6940 C   0  0  0  0  0  0  0  0  0  0  0  0
  193.6050  175.6280  141.7760 C   0  0  0  0  0  2  0  0  0  0  0  0
  190.3340  176.9240  145.2290 N   0  0  0  0  0  2  0  0  0  0  0  0
  193.2490  177.3500  144.2730 O   0  0  0  0  0  0  0  0  0  0  0  0
  189.2190  175.3010  144.0420 C   0  0  0  0  0  3  0  0  0  0  0  0
  191.4360  174.7710  142.7950 C   0  0  0  0  0  0  0  0  0  0  0  0
  192.1850  173.8680  140.7010 C   0  0  0  0  0  3  0  0  0  0  0  0
  192.6480  175.5210  142.8730 N   0  0  0  0  0  0  0  0  0  0  0  0
  190.5770  175.1330  143.9180 C   0  0  0  0  0  0  0  0  0  0  0  0
  191.1630  173.9910  141.7580 C   0  0  0  0  0  3  0  0  0  0  0  0
  192.4740  176.4020  143.9830 C   0  0  0  0  0  0  0  0  0  0  0  0
  186.0320  177.0490  146.9780 C   0  0  0  0  0  2  0  0  0  0  0  0
  184.0840  178.2980  146.4090 O   0  0  0  0  0  1  0  0  0  0  0  0
  185.1790  177.6370  145.8570 C   0  0  1  0  0  3  0  0  0  0  0  0
  186.0510  178.6210  145.0780 C   0  0  1  0  0  3  0  0  0  0  0  0
  187.8560  176.9570  145.3870 C   0  0  0  0  0  0  0  0  0  0  0  0
  187.2740  176.4880  146.4530 N   0  0  0  0  0  0  0  0  0  0  0  0
  187.2570  177.9890  144.6470 O   0  0  0  0  0  0  0  0  0  0  0  0
  186.0780  179.1050  142.7180 O   0  0  0  0  0  1  0  0  0  0  0  0
  185.3100  179.2150  143.8820 C   0  0  0  0  0  2  0  0  0  0  0  0
  1 31  1  0  0  0  0
  2  5  1  0  0  0  0
  2  1  1  0  0  0  0
  4  5  2  0  0  0  0
  4  7  1  0  0  0  0
  5  8  1  0  0  0  0
  7  3  1  0  0  0  0
  7  6  2  0  0  0  0
  8  6  1  0  0  0  0
  9  6  1  1  0  0  0
  9 14  1  0  0  0  0
 10 15  1  0  0  0  0
 11 13  2  0  0  0  0
 12  9  1  0  0  0  0
 12 11  1  0  0  0  0
 13 10  1  0  0  0  0
 14 13  1  0  0  0  0
 15 16  1  0  0  0  0
 16 18  1  0  0  0  0
 17 19  2  0  0  0  0
 17 18  1  0  0  0  0
 18 22  2  0  0  0  0
 19 20  1  0  0  0  0
 20 23  1  0  0  0  0
 20 21  2  0  0  0  0
 22 21  1  0  0  0  0
 24 25  1  0  0  0  0
 24 26  1  0  0  0  0
 25 27  1  6  0  0  0
 25 26  1  0  0  0  0
 25 29  1  0  0  0  0
 26 23  1  6  0  0  0
 28 29  1  0  0  0  0
 30 28  1  0  0  0  0
 30 29  1  0  0  0  0
 31 33  1  0  0  0  0
 32 34  1  0  0  0  0
 32 40  1  0  0  0  0
 33 37  2  0  0  0  0
 33 35  1  0  0  0  0
 35 32  2  0  0  0  0
 36 34  2  0  0  0  0
 37 36  1  0  0  0  0
 38 42  1  0  0  0  0
 39 42  1  0  0  0  0
 39 55  1  0  0  0  0
 40 46  2  0  0  0  0
 40 41  1  0  0  0  0
 41 47  1  0  0  0  0
 44 39  2  0  0  0  0
 45 47  1  0  0  0  0
 45 48  1  0  0  0  0
 46 49  1  0  0  0  0
 47 50  1  0  0  0  0
 48 44  1  0  0  0  0
 48 38  2  0  0  0  0
 49 45  2  0  0  0  0
 50 43  2  0  0  0  0
 50 38  1  0  0  0  0
 53 52  1  1  0  0  0
 53 51  1  0  0  0  0
 54 59  1  6  0  0  0
 54 53  1  0  0  0  0
 55 56  2  0  0  0  0
 56 51  1  0  0  0  0
 57 54  1  0  0  0  0
 57 55  1  0  0  0  0
 58 59  1  0  0  0  0
M  END
>  <MODEL>
4

>  <REMARK>
 VINA RESULT:      -7.0      3.601      8.818
  Name = 
  14 active torsions:
  status: ('A' for Active; 'I' for Inactive)
    1  A    between atoms: C_4  and  C_26
    2  A    between atoms: C_5  and  N_58
    3  A    between atoms: C_9  and  C_22
    4  A    between atoms: C_12  and  C_14
    5  A    between atoms: C_13  and  C_20
    6  A    between atoms: N_16  and  C_45
    7  A    between atoms: N_16  and  N_58
    8  A    between atoms: C_17  and  C_36
    9  A    between atoms: C_22  and  C_46
   10  A    between atoms: C_23  and  O_55
   11  A    between atoms: C_24  and  C_29
   12  A    between atoms: N_28  and  C_46
   13  A    between atoms: C_31  and  C_45
   14  A    between atoms: C_39  and  O_55
                            x       y       z     vdW  Elec       q    Type
                         _______ _______ _______ _____ _____    ______ ____

>  <TORSDO>
F 14

$$$$
=
 OpenBabel11042419093D

 59 68  0  0  1  0  0  0  0  0999 V2000
  188.0260  177.1160  147.3700 N   0  0  0  0  0  2  0  0  0  0  0  0
  186.6530  176.7210  147.0950 C   0  0  0  0  0  2  0  0  0  0  0  0
  183.6620  179.1110  143.7790 C   0  0  0  0  0  1  0  0  0  0  0  0
  184.9910  177.9130  145.5690 C   0  0  0  0  0  3  0  0  0  0  0  0
  186.2170  177.3000  145.7970 C   0  0  0  0  0  0  0  0  0  0  0  0
  186.0040  178.1770  143.4770 C   0  0  0  0  0  0  0  0  0  0  0  0
  184.8770  178.4020  144.2620 C   0  0  0  0  0  0  0  0  0  0  0  0
  187.1540  177.3690  144.4030 S   0  0  0  0  0  0  0  0  0  0  0  0
  186.1840  178.6240  142.0620 C   0  0  1  0  0  3  0  0  0  0  0  0
  186.4460  176.4810  138.7760 N   0  0  0  0  0  2  0  0  0  0  0  0
  187.6690  177.6280  140.4670 N   0  0  0  0  0  0  0  0  0  0  0  0
  187.5540  178.3850  141.6340 N   0  0  0  0  0  2  0  0  0  0  0  0
  186.5400  177.2050  140.0060 C   0  0  0  0  0  0  0  0  0  0  0  0
  185.0920  177.6750  140.9360 S   0  0  0  0  0  0  0  0  0  0  0  0
  187.6160  176.0640  138.0090 C   0  0  0  0  0  2  0  0  0  0  0  0
  187.6310  174.5490  137.8940 C   0  0  0  0  0  2  0  0  0  0  0  0
  188.4410  174.2760  140.2490 C   0  0  0  0  0  3  0  0  0  0  0  0
  188.5480  173.9350  138.8960 C   0  0  0  0  0  0  0  0  0  0  0  0
  189.2880  173.6810  141.1890 C   0  0  0  0  0  3  0  0  0  0  0  0
  190.2400  172.7390  140.7860 C   0  0  0  0  0  0  0  0  0  0  0  0
  190.3420  172.4000  139.4280 C   0  0  0  0  0  3  0  0  0  0  0  0
  189.5010  173.0000  138.4860 C   0  0  0  0  0  3  0  0  0  0  0  0
  191.0600  172.1500  141.7500 O   0  0  0  0  0  0  0  0  0  0  0  0
  191.4220  172.6420  144.0850 C   0  0  0  0  0  2  0  0  0  0  0  0
  192.6770  171.9970  143.5480 C   0  0  2  0  0  0  0  0  0  0  0  0
  191.8630  172.9110  142.6480 C   0  0  1  0  0  3  0  0  0  0  0  0
  192.5450  170.6220  143.3070 O   0  0  0  0  0  1  0  0  0  0  0  0
  194.9640  171.4570  144.4680 C   0  0  0  0  0  2  0  0  0  0  0  0
  193.9960  172.5630  144.0760 C   0  0  0  0  0  3  0  0  0  0  0  0
  194.1740  172.1820  145.5380 C   0  0  0  0  0  2  0  0  0  0  0  0
  188.8600  176.1630  146.7720 N   0  0  0  0  0  2  0  0  0  0  0  0
  192.4370  176.3160  145.6560 C   0  0  0  0  0  0  0  0  0  0  0  0
  190.2820  176.2880  146.8010 C   0  0  0  0  0  0  0  0  0  0  0  0
  193.0680  176.5430  146.8940 C   0  0  0  0  0  3  0  0  0  0  0  0
  191.0390  176.1970  145.6230 C   0  0  0  0  0  3  0  0  0  0  0  0
  192.3170  176.6390  148.0680 C   0  0  0  0  0  3  0  0  0  0  0  0
  190.9270  176.5070  148.0220 C   0  0  0  0  0  3  0  0  0  0  0  0
  196.8300  175.6740  141.3990 C   0  0  0  0  0  0  0  0  0  0  0  0
  196.7920  174.7230  139.5080 C   0  0  0  0  0  0  0  0  0  0  0  0
  193.2290  176.1740  144.4090 C   0  0  0  0  0  0  0  0  0  0  0  0
  194.7190  175.8780  144.5050 C   0  0  0  0  0  2  0  0  0  0  0  0
  197.5710  174.8860  140.6080 N   0  0  0  0  0  0  0  0  0  0  0  0
  197.6080  175.3350  143.6730 O   0  0  0  0  0  0  0  0  0  0  0  0
  195.5160  175.2800  139.6580 C   0  0  0  0  0  3  0  0  0  0  0  0
  194.6700  176.1100  141.9710 C   0  0  0  0  0  0  0  0  0  0  0  0
  192.6220  176.3040  143.2060 C   0  0  0  0  0  3  0  0  0  0  0  0
  195.3760  176.0210  143.2090 N   0  0  0  0  0  0  0  0  0  0  0  0
  195.6100  175.9200  140.8710 C   0  0  1  0  0  3  0  0  0  0  0  0
  193.3490  176.2160  141.9260 C   0  0  0  0  0  3  0  0  0  0  0  0
  196.7150  175.6790  142.8540 C   0  0  0  0  0  0  0  0  0  0  0  0
  197.8150  173.7420  136.0160 C   0  0  0  0  0  2  0  0  0  0  0  0
  197.9320  171.5780  135.0250 O   0  0  0  0  0  1  0  0  0  0  0  0
  197.3580  172.2860  136.0790 C   0  0  1  0  0  3  0  0  0  0  0  0
  197.8240  171.7110  137.4160 C   0  0  1  0  0  3  0  0  0  0  0  0
  197.2010  173.9150  138.3540 C   0  0  0  0  0  0  0  0  0  0  0  0
  197.3690  174.4820  137.1930 N   0  0  0  0  0  0  0  0  0  0  0  0
  197.3730  172.5300  138.4970 O   0  0  0  0  0  0  0  0  0  0  0  0
  197.2890  169.9510  138.9710 O   0  0  0  0  0  1  0  0  0  0  0  0
  197.3520  170.2720  137.6110 C   0  0  0  0  0  2  0  0  0  0  0  0
  2  1  1  0  0  0  0
  3  7  1  0  0  0  0
  4  5  2  0  0  0  0
  5  2  1  0  0  0  0
  6  7  2  0  0  0  0
  6  8  1  0  0  0  0
  7  4  1  0  0  0  0
  8  5  1  0  0  0  0
  9  6  1  1  0  0  0
 10 13  1  0  0  0  0
 11 12  1  0  0  0  0
 12  9  1  0  0  0  0
 13 11  2  0  0  0  0
 13 14  1  0  0  0  0
 14  9  1  0  0  0  0
 15 10  1  0  0  0  0
 16 15  1  0  0  0  0
 16 18  1  0  0  0  0
 17 19  1  0  0  0  0
 18 17  2  0  0  0  0
 20 19  2  0  0  0  0
 20 23  1  0  0  0  0
 21 20  1  0  0  0  0
 22 18  1  0  0  0  0
 22 21  2  0  0  0  0
 25 27  1  6  0  0  0
 25 29  1  0  0  0  0
 25 24  1  0  0  0  0
 26 23  1  6  0  0  0
 26 25  1  0  0  0  0
 26 24  1  0  0  0  0
 28 30  1  0  0  0  0
 29 28  1  0  0  0  0
 29 30  1  0  0  0  0
 31 33  1  0  0  0  0
 31  1  1  0  0  0  0
 32 34  1  0  0  0  0
 33 37  2  0  0  0  0
 34 36  2  0  0  0  0
 35 32  2  0  0  0  0
 35 33  1  0  0  0  0
 37 36  1  0  0  0  0
 38 50  1  0  0  0  0
 39 44  2  0  0  0  0
 39 42  1  0  0  0  0
 40 41  1  0  0  0  0
 40 32  1  0  0  0  0
 42 38  2  0  0  0  0
 45 47  1  0  0  0  0
 46 40  2  0  0  0  0
 47 41  1  0  0  0  0
 48 44  1  1  0  0  0
 48 38  1  0  0  0  0
 48 45  1  0  0  0  0
 49 45  2  0  0  0  0
 49 46  1  0  0  0  0
 50 47  1  0  0  0  0
 50 43  2  0  0  0  0
 51 53  1  0  0  0  0
 51 56  1  0  0  0  0
 53 52  1  6  0  0  0
 53 54  1  0  0  0  0
 54 59  1  1  0  0  0
 54 57  1  0  0  0  0
 55 57  1  0  0  0  0
 55 39  1  0  0  0  0
 56 55  2  0  0  0  0
 59 58  1  0  0  0  0
M  END
>  <MODEL>
5

>  <REMARK>
 VINA RESULT:      -6.6      2.791      5.859
  Name = 
  14 active torsions:
  status: ('A' for Active; 'I' for Inactive)
    1  A    between atoms: C_4  and  C_26
    2  A    between atoms: C_5  and  N_58
    3  A    between atoms: C_9  and  C_22
    4  A    between atoms: C_12  and  C_14
    5  A    between atoms: C_13  and  C_20
    6  A    between atoms: N_16  and  C_45
    7  A    between atoms: N_16  and  N_58
    8  A    between atoms: C_17  and  C_36
    9  A    between atoms: C_22  and  C_46
   10  A    between atoms: C_23  and  O_55
   11  A    between atoms: C_24  and  C_29
   12  A    between atoms: N_28  and  C_46
   13  A    between atoms: C_31  and  C_45
   14  A    between atoms: C_39  and  O_55
                            x       y       z     vdW  Elec       q    Type
                         _______ _______ _______ _____ _____    ______ ____

>  <TORSDO>
F 14

$$$$
=
 OpenBabel11042419093D

 59 68  0  0  1  0  0  0  0  0999 V2000
  185.4920  179.5530  143.8250 N   0  0  0  0  0  2  0  0  0  0  0  0
  184.7250  178.4730  143.2220 C   0  0  0  0  0  2  0  0  0  0  0  0
  186.5330  177.1190  138.6880 C   0  0  0  0  0  1  0  0  0  0  0  0
  185.4720  177.8960  140.8510 C   0  0  0  0  0  3  0  0  0  0  0  0
  185.5680  177.7540  142.2310 C   0  0  0  0  0  0  0  0  0  0  0  0
  187.2590  176.3930  141.0110 C   0  0  0  0  0  0  0  0  0  0  0  0
  186.4250  177.1260  140.1720 C   0  0  0  0  0  0  0  0  0  0  0  0
  186.8190  176.6980  142.6080 S   0  0  0  0  0  0  0  0  0  0  0  0
  188.3890  175.5200  140.5720 C   0  0  1  0  0  3  0  0  0  0  0  0
  189.3230  171.8740  141.7080 N   0  0  0  0  0  2  0  0  0  0  0  0
  189.7660  174.1940  142.0160 N   0  0  0  0  0  0  0  0  0  0  0  0
  189.4180  175.4800  141.6000 N   0  0  0  0  0  2  0  0  0  0  0  0
  189.0630  173.2600  141.4690 C   0  0  0  0  0  0  0  0  0  0  0  0
  187.8170  173.7980  140.3100 S   0  0  0  0  0  0  0  0  0  0  0  0
  190.3190  171.4080  142.6690 C   0  0  0  0  0  2  0  0  0  0  0  0
  191.0570  170.2120  142.0920 C   0  0  0  0  0  2  0  0  0  0  0  0
  192.6590  171.8250  141.0400 C   0  0  0  0  0  3  0  0  0  0  0  0
  191.9600  170.6150  140.9770 C   0  0  0  0  0  0  0  0  0  0  0  0
  193.5230  172.1890  140.0020 C   0  0  0  0  0  3  0  0  0  0  0  0
  193.6980  171.3440  138.9010 C   0  0  0  0  0  0  0  0  0  0  0  0
  192.9950  170.1310  138.8430 C   0  0  0  0  0  3  0  0  0  0  0  0
  192.1260  169.7700  139.8760 C   0  0  0  0  0  3  0  0  0  0  0  0
  194.5800  171.7270  137.8870 O   0  0  0  0  0  0  0  0  0  0  0  0
  196.4900  172.7670  136.8400 C   0  0  0  0  0  2  0  0  0  0  0  0
  195.8370  173.7930  137.7350 C   0  0  2  0  0  0  0  0  0  0  0  0
  195.8430  172.3320  138.1530 C   0  0  1  0  0  3  0  0  0  0  0  0
  194.6220  174.2830  137.2360 O   0  0  0  0  0  1  0  0  0  0  0  0
  197.3110  174.0670  139.7630 C   0  0  0  0  0  2  0  0  0  0  0  0
  196.7900  174.7190  138.4920 C   0  0  0  0  0  3  0  0  0  0  0  0
  196.1920  175.0840  139.8410 C   0  0  0  0  0  2  0  0  0  0  0  0
  185.2190  179.5390  145.1980 N   0  0  0  0  0  2  0  0  0  0  0  0
  187.5830  176.9730  146.5730 C   0  0  0  0  0  0  0  0  0  0  0  0
  185.8150  178.5770  146.0700 C   0  0  0  0  0  0  0  0  0  0  0  0
  186.9580  176.7030  147.8050 C   0  0  0  0  0  3  0  0  0  0  0  0
  187.0030  177.9200  145.7160 C   0  0  0  0  0  3  0  0  0  0  0  0
  185.7780  177.3600  148.1650 C   0  0  0  0  0  3  0  0  0  0  0  0
  185.2050  178.2920  147.2960 C   0  0  0  0  0  3  0  0  0  0  0  0
  193.3450  175.1030  145.5100 C   0  0  0  0  0  0  0  0  0  0  0  0
  194.1640  173.1560  145.3860 C   0  0  0  0  0  0  0  0  0  0  0  0
  188.8140  176.2520  146.1670 C   0  0  0  0  0  0  0  0  0  0  0  0
  190.1670  176.7680  146.6380 C   0  0  0  0  0  2  0  0  0  0  0  0
  194.4210  174.3950  145.8800 N   0  0  0  0  0  2  0  0  0  0  0  0
  193.1890  176.9990  147.0180 O   0  0  0  0  0  0  0  0  0  0  0  0
  192.8810  173.0440  144.8360 C   0  0  0  0  0  3  0  0  0  0  0  0
  191.1020  174.9080  145.1750 C   0  0  0  0  0  0  0  0  0  0  0  0
  188.7250  175.1490  145.3880 C   0  0  0  0  0  3  0  0  0  0  0  0
  191.2650  176.0980  145.9460 N   0  0  0  0  0  0  0  0  0  0  0  0
  192.4160  174.3360  144.8980 C   0  0  0  0  0  0  0  0  0  0  0  0
  189.9050  174.4040  144.9110 C   0  0  0  0  0  3  0  0  0  0  0  0
  192.6630  176.1850  146.2150 C   0  0  0  0  0  0  0  0  0  0  0  0
  197.2820  171.0400  145.2900 C   0  0  0  0  0  2  0  0  0  0  0  0
  197.5330  168.6970  145.6430 O   0  0  0  0  0  1  0  0  0  0  0  0
  196.5960  169.6770  145.3210 C   0  0  1  0  0  3  0  0  0  0  0  0
  195.5020  169.7320  146.3860 C   0  0  1  0  0  3  0  0  0  0  0  0
  195.0840  172.0250  145.5540 C   0  0  0  0  0  0  0  0  0  0  0  0
  196.3070  172.1140  145.1170 N   0  0  0  0  0  0  0  0  0  0  0  0
  194.6300  170.8390  146.1520 O   0  0  0  0  0  0  0  0  0  0  0  0
  194.2710  168.1760  147.7530 O   0  0  0  0  0  1  0  0  0  0  0  0
  194.7020  168.4330  146.4470 C   0  0  0  0  0  2  0  0  0  0  0  0
  1 31  1  0  0  0  0
  2  1  1  0  0  0  0
  3  7  1  0  0  0  0
  4  5  2  0  0  0  0
  5  8  1  0  0  0  0
  5  2  1  0  0  0  0
  6  8  1  0  0  0  0
  7  4  1  0  0  0  0
  7  6  2  0  0  0  0
  9  6  1  1  0  0  0
  9 12  1  0  0  0  0
 10 15  1  0  0  0  0
 12 11  1  0  0  0  0
 13 10  1  0  0  0  0
 13 11  2  0  0  0  0
 14  9  1  0  0  0  0
 14 13  1  0  0  0  0
 16 15  1  0  0  0  0
 18 17  1  0  0  0  0
 18 16  1  0  0  0  0
 19 17  2  0  0  0  0
 20 19  1  0  0  0  0
 21 20  2  0  0  0  0
 21 22  1  0  0  0  0
 22 18  2  0  0  0  0
 23 20  1  0  0  0  0
 24 25  1  0  0  0  0
 24 26  1  0  0  0  0
 25 27  1  6  0  0  0
 25 26  1  0  0  0  0
 25 29  1  0  0  0  0
 26 23  1  6  0  0  0
 28 30  1  0  0  0  0
 29 28  1  0  0  0  0
 29 30  1  0  0  0  0
 31 33  1  0  0  0  0
 32 34  1  0  0  0  0
 33 37  2  0  0  0  0
 34 36  2  0  0  0  0
 35 33  1  0  0  0  0
 35 32  2  0  0  0  0
 37 36  1  0  0  0  0
 38 42  1  0  0  0  0
 38 50  1  0  0  0  0
 39 55  1  0  0  0  0
 39 42  1  0  0  0  0
 40 32  1  0  0  0  0
 40 41  1  0  0  0  0
 44 48  1  0  0  0  0
 44 39  2  0  0  0  0
 45 47  1  0  0  0  0
 46 40  2  0  0  0  0
 47 50  1  0  0  0  0
 47 41  1  0  0  0  0
 48 45  1  0  0  0  0
 48 38  2  0  0  0  0
 49 45  2  0  0  0  0
 49 46  1  0  0  0  0
 50 43  2  0  0  0  0
 51 53  1  0  0  0  0
 53 52  1  1  0  0  0
 53 54  1  0  0  0  0
 54 59  1  6  0  0  0
 55 57  1  0  0  0  0
 56 51  1  0  0  0  0
 56 55  2  0  0  0  0
 57 54  1  0  0  0  0
 59 58  1  0  0  0  0
M  END
>  <MODEL>
6

>  <REMARK>
 VINA RESULT:      -6.4      2.071      3.195
  Name = 
  14 active torsions:
  status: ('A' for Active; 'I' for Inactive)
    1  A    between atoms: C_4  and  C_26
    2  A    between atoms: C_5  and  N_58
    3  A    between atoms: C_9  and  C_22
    4  A    between atoms: C_12  and  C_14
    5  A    between atoms: C_13  and  C_20
    6  A    between atoms: N_16  and  C_45
    7  A    between atoms: N_16  and  N_58
    8  A    between atoms: C_17  and  C_36
    9  A    between atoms: C_22  and  C_46
   10  A    between atoms: C_23  and  O_55
   11  A    between atoms: C_24  and  C_29
   12  A    between atoms: N_28  and  C_46
   13  A    between atoms: C_31  and  C_45
   14  A    between atoms: C_39  and  O_55
                            x       y       z     vdW  Elec       q    Type
                         _______ _______ _______ _____ _____    ______ ____

>  <TORSDO>
F 14

$$$$
=
 OpenBabel11042419093D

 59 68  0  0  1  0  0  0  0  0999 V2000
  184.4660  177.7310  146.5630 N   0  0  0  0  0  2  0  0  0  0  0  0
  183.8260  178.5350  145.5320 C   0  0  0  0  0  2  0  0  0  0  0  0
  184.4830  178.2920  140.5160 C   0  0  0  0  0  1  0  0  0  0  0  0
  183.9450  178.4180  142.9860 C   0  0  0  0  0  3  0  0  0  0  0  0
  184.5390  178.3510  144.2410 C   0  0  0  0  0  0  0  0  0  0  0  0
  186.1790  178.0530  142.3910 C   0  0  0  0  0  0  0  0  0  0  0  0
  184.8730  178.2480  141.9510 C   0  0  0  0  0  0  0  0  0  0  0  0
  186.1910  178.0930  144.0740 S   0  0  0  0  0  0  0  0  0  0  0  0
  187.3790  177.8870  141.5160 C   0  0  1  0  0  3  0  0  0  0  0  0
  190.9140  176.3970  142.3750 N   0  0  0  0  0  2  0  0  0  0  0  0
  189.6360  178.3930  142.1400 N   0  0  0  0  0  0  0  0  0  0  0  0
  188.3730  178.9010  141.8340 N   0  0  0  0  0  2  0  0  0  0  0  0
  189.6890  177.1030  142.1600 C   0  0  0  0  0  0  0  0  0  0  0  0
  188.1640  176.2530  141.7930 S   0  0  0  0  0  0  0  0  0  0  0  0
  192.1700  177.0670  142.7010 C   0  0  0  0  0  2  0  0  0  0  0  0
  192.3810  177.0410  144.2050 C   0  0  0  0  0  2  0  0  0  0  0  0
  193.9660  176.0740  145.8870 C   0  0  0  0  0  3  0  0  0  0  0  0
  193.4440  176.0700  144.5890 C   0  0  0  0  0  0  0  0  0  0  0  0
  194.9480  175.1460  146.2500 C   0  0  0  0  0  3  0  0  0  0  0  0
  195.4080  174.2060  145.3220 C   0  0  0  0  0  0  0  0  0  0  0  0
  194.8810  174.2050  144.0210 C   0  0  0  0  0  3  0  0  0  0  0  0
  193.9050  175.1370  143.6560 C   0  0  0  0  0  3  0  0  0  0  0  0
  196.3770  173.2810  145.7180 O   0  0  0  0  0  0  0  0  0  0  0  0
  197.1820  171.0100  145.8450 C   0  0  0  0  0  2  0  0  0  0  0  0
  195.8010  170.9780  145.2360 C   0  0  2  0  0  0  0  0  0  0  0  0
  196.7250  172.1450  144.9320 C   0  0  1  0  0  3  0  0  0  0  0  0
  194.7750  171.2310  146.1560 O   0  0  0  0  0  1  0  0  0  0  0  0
  194.4800  168.9830  144.4360 C   0  0  0  0  0  2  0  0  0  0  0  0
  195.5940  169.9660  144.1090 C   0  0  0  0  0  3  0  0  0  0  0  0
  195.9260  168.5660  144.6030 C   0  0  0  0  0  2  0  0  0  0  0  0
  185.3160  178.5800  147.2820 N   0  0  0  0  0  2  0  0  0  0  0  0
  188.6700  176.9480  146.8950 C   0  0  0  0  0  0  0  0  0  0  0  0
  186.7090  178.2980  147.4280 C   0  0  0  0  0  0  0  0  0  0  0  0
  189.4410  177.7750  147.7330 C   0  0  0  0  0  3  0  0  0  0  0  0
  187.3030  177.2260  146.7460 C   0  0  0  0  0  3  0  0  0  0  0  0
  188.8550  178.8470  148.4100 C   0  0  0  0  0  3  0  0  0  0  0  0
  187.4890  179.1050  148.2620 C   0  0  0  0  0  3  0  0  0  0  0  0
  189.9590  172.1470  143.2720 C   0  0  0  0  0  0  0  0  0  0  0  0
  191.8070  171.4410  142.5210 C   0  0  0  0  0  0  0  0  0  0  0  0
  189.2770  175.7840  146.2030 C   0  0  0  0  0  0  0  0  0  0  0  0
  188.5810  175.2020  144.9800 C   0  0  0  0  0  2  0  0  0  0  0  0
  190.5150  171.6520  142.1580 N   0  0  0  0  0  0  0  0  0  0  0  0
  187.9900  173.3920  142.5910 O   0  0  0  0  0  0  0  0  0  0  0  0
  192.1000  171.9290  143.8000 C   0  0  0  0  0  3  0  0  0  0  0  0
  190.4260  173.4510  145.0780 C   0  0  0  0  0  0  0  0  0  0  0  0
  190.4360  175.2560  146.6600 C   0  0  0  0  0  3  0  0  0  0  0  0
  189.1730  173.9260  144.5860 N   0  0  0  0  0  0  0  0  0  0  0  0
  190.8660  172.3280  144.2570 C   0  0  1  0  0  3  0  0  0  0  0  0
  191.0780  174.0760  146.0490 C   0  0  0  0  0  3  0  0  0  0  0  0
  188.9120  173.1560  143.4140 C   0  0  0  0  0  0  0  0  0  0  0  0
  193.8350  169.0140  140.4710 C   0  0  0  0  0  2  0  0  0  0  0  0
  195.9150  169.3420  139.3570 O   0  0  0  0  0  1  0  0  0  0  0  0
  195.1030  169.8560  140.3660 C   0  0  1  0  0  3  0  0  0  0  0  0
  194.6840  171.2870  140.0280 C   0  0  1  0  0  3  0  0  0  0  0  0
  192.8140  170.8980  141.6020 C   0  0  0  0  0  0  0  0  0  0  0  0
  192.8830  169.6130  141.4030 N   0  0  0  0  0  0  0  0  0  0  0  0
  193.7230  171.7630  140.9710 O   0  0  0  0  0  0  0  0  0  0  0  0
  196.0190  172.9310  141.1770 O   0  0  0  0  0  1  0  0  0  0  0  0
  195.8820  172.2320  139.9720 C   0  0  0  0  0  2  0  0  0  0  0  0
  1 31  1  0  0  0  0
  2  1  1  0  0  0  0
  3  7  1  0  0  0  0
  4  5  2  0  0  0  0
  5  2  1  0  0  0  0
  6  8  1  0  0  0  0
  7  6  2  0  0  0  0
  7  4  1  0  0  0  0
  8  5  1  0  0  0  0
  9 14  1  0  0  0  0
  9 12  1  0  0  0  0
  9  6  1  1  0  0  0
 10 15  1  0  0  0  0
 11 13  2  0  0  0  0
 12 11  1  0  0  0  0
 13 10  1  0  0  0  0
 14 13  1  0  0  0  0
 15 16  1  0  0  0  0
 16 18  1  0  0  0  0
 17 19  1  0  0  0  0
 18 17  2  0  0  0  0
 20 23  1  0  0  0  0
 20 19  2  0  0  0  0
 21 20  1  0  0  0  0
 22 21  2  0  0  0  0
 22 18  1  0  0  0  0
 25 24  1  0  0  0  0
 25 27  1  1  0  0  0
 26 25  1  0  0  0  0
 26 23  1  1  0  0  0
 26 24  1  0  0  0  0
 28 30  1  0  0  0  0
 29 28  1  0  0  0  0
 29 30  1  0  0  0  0
 29 25  1  0  0  0  0
 31 33  1  0  0  0  0
 32 34  1  0  0  0  0
 33 37  2  0  0  0  0
 34 36  2  0  0  0  0
 35 32  2  0  0  0  0
 35 33  1  0  0  0  0
 37 36  1  0  0  0  0
 38 50  1  0  0  0  0
 38 48  1  0  0  0  0
 39 44  2  0  0  0  0
 40 46  2  0  0  0  0
 40 32  1  0  0  0  0
 41 40  1  0  0  0  0
 42 39  1  0  0  0  0
 42 38  2  0  0  0  0
 43 50  2  0  0  0  0
 45 49  2  0  0  0  0
 47 41  1  0  0  0  0
 47 45  1  0  0  0  0
 48 44  1  6  0  0  0
 48 45  1  0  0  0  0
 49 46  1  0  0  0  0
 50 47  1  0  0  0  0
 51 56  1  0  0  0  0
 53 52  1  6  0  0  0
 53 51  1  0  0  0  0
 54 59  1  1  0  0  0
 54 53  1  0  0  0  0
 54 57  1  0  0  0  0
 55 39  1  0  0  0  0
 56 55  2  0  0  0  0
 57 55  1  0  0  0  0
 59 58  1  0  0  0  0
M  END
>  <MODEL>
7

>  <REMARK>
 VINA RESULT:      -6.4      2.688      5.389
  Name = 
  14 active torsions:
  status: ('A' for Active; 'I' for Inactive)
    1  A    between atoms: C_4  and  C_26
    2  A    between atoms: C_5  and  N_58
    3  A    between atoms: C_9  and  C_22
    4  A    between atoms: C_12  and  C_14
    5  A    between atoms: C_13  and  C_20
    6  A    between atoms: N_16  and  C_45
    7  A    between atoms: N_16  and  N_58
    8  A    between atoms: C_17  and  C_36
    9  A    between atoms: C_22  and  C_46
   10  A    between atoms: C_23  and  O_55
   11  A    between atoms: C_24  and  C_29
   12  A    between atoms: N_28  and  C_46
   13  A    between atoms: C_31  and  C_45
   14  A    between atoms: C_39  and  O_55
                            x       y       z     vdW  Elec       q    Type
                         _______ _______ _______ _____ _____    ______ ____

>  <TORSDO>
F 14

$$$$
=
 OpenBabel11042419093D

 59 68  0  0  1  0  0  0  0  0999 V2000
  186.9730  177.6210  148.2520 N   0  0  0  0  0  2  0  0  0  0  0  0
  186.0960  176.9080  147.3340 C   0  0  0  0  0  2  0  0  0  0  0  0
  185.1980  180.6300  144.0170 C   0  0  0  0  0  1  0  0  0  0  0  0
  185.5280  178.8790  145.8150 C   0  0  0  0  0  3  0  0  0  0  0  0
  186.0640  177.6140  146.0260 C   0  0  0  0  0  0  0  0  0  0  0  0
  186.3280  178.3820  143.6720 C   0  0  0  0  0  0  0  0  0  0  0  0
  185.6790  179.3030  144.4880 C   0  0  0  0  0  0  0  0  0  0  0  0
  186.7230  177.0300  144.5940 S   0  0  0  0  0  0  0  0  0  0  0  0
  186.6640  178.5800  142.2300 C   0  0  1  0  0  3  0  0  0  0  0  0
  186.7530  175.9610  139.2990 N   0  0  0  0  0  2  0  0  0  0  0  0
  188.0510  177.1360  140.9130 N   0  0  0  0  0  0  0  0  0  0  0  0
  187.9970  178.0660  141.9530 N   0  0  0  0  0  2  0  0  0  0  0  0
  186.8960  176.8350  140.4220 C   0  0  0  0  0  0  0  0  0  0  0  0
  185.4950  177.6600  141.1570 S   0  0  0  0  0  0  0  0  0  0  0  0
  187.8790  175.2540  138.6950 C   0  0  0  0  0  2  0  0  0  0  0  0
  188.2070  174.0240  139.5240 C   0  0  0  0  0  2  0  0  0  0  0  0
  190.5160  173.4140  138.7660 C   0  0  0  0  0  3  0  0  0  0  0  0
  189.6730  173.9070  139.7680 C   0  0  0  0  0  0  0  0  0  0  0  0
  191.8940  173.3270  138.9900 C   0  0  0  0  0  3  0  0  0  0  0  0
  192.4370  173.7370  140.2120 C   0  0  0  0  0  0  0  0  0  0  0  0
  191.5870  174.2310  141.2140 C   0  0  0  0  0  3  0  0  0  0  0  0
  190.2090  174.3110  140.9930 C   0  0  0  0  0  3  0  0  0  0  0  0
  193.8180  173.6540  140.4010 O   0  0  0  0  0  0  0  0  0  0  0  0
  195.6450  172.8400  141.7520 C   0  0  0  0  0  2  0  0  0  0  0  0
  195.8330  174.3260  141.5670 C   0  0  2  0  0  0  0  0  0  0  0  0
  194.4280  173.7590  141.6850 C   0  0  1  0  0  3  0  0  0  0  0  0
  196.2430  174.6860  140.2770 O   0  0  0  0  0  1  0  0  0  0  0  0
  195.3140  176.0350  143.3500 C   0  0  0  0  0  2  0  0  0  0  0  0
  196.3610  175.0870  142.7840 C   0  0  0  0  0  3  0  0  0  0  0  0
  196.4270  176.5750  142.4750 C   0  0  0  0  0  2  0  0  0  0  0  0
  188.0500  178.1080  147.5010 N   0  0  0  0  0  2  0  0  0  0  0  0
  190.8270  175.7440  146.6270 C   0  0  0  0  0  0  0  0  0  0  0  0
  189.3190  177.4520  147.5000 C   0  0  0  0  0  0  0  0  0  0  0  0
  191.8180  176.1920  147.5200 C   0  0  0  0  0  3  0  0  0  0  0  0
  189.5810  176.3890  146.6230 C   0  0  0  0  0  3  0  0  0  0  0  0
  191.5640  177.2550  148.3910 C   0  0  0  0  0  3  0  0  0  0  0  0
  190.3140  177.8800  148.3840 C   0  0  0  0  0  3  0  0  0  0  0  0
  190.4250  170.9850  142.7510 C   0  0  0  0  0  0  0  0  0  0  0  0
  191.7610  170.3040  141.2570 C   0  0  0  0  0  0  0  0  0  0  0  0
  191.0750  174.5920  145.7260 C   0  0  0  0  0  0  0  0  0  0  0  0
  189.9170  174.0110  144.9260 C   0  0  0  0  0  2  0  0  0  0  0  0
  190.4400  170.5040  141.5010 N   0  0  0  0  0  0  0  0  0  0  0  0
  188.3490  172.2130  143.0180 O   0  0  0  0  0  0  0  0  0  0  0  0
  192.5820  170.7850  142.2840 C   0  0  0  0  0  3  0  0  0  0  0  0
  191.6290  172.2800  144.1850 C   0  0  0  0  0  0  0  0  0  0  0  0
  192.3210  174.0730  145.6210 C   0  0  0  0  0  3  0  0  0  0  0  0
  190.2840  172.7450  144.2980 N   0  0  0  0  0  0  0  0  0  0  0  0
  191.6720  171.1680  143.2400 C   0  0  1  0  0  3  0  0  0  0  0  0
  192.6370  172.9040  144.7780 C   0  0  0  0  0  3  0  0  0  0  0  0
  189.5410  171.9800  143.3490 C   0  0  0  0  0  0  0  0  0  0  0  0
  194.0660  168.8510  138.6540 C   0  0  0  0  0  2  0  0  0  0  0  0
  193.7850  168.7110  136.2920 O   0  0  0  0  0  1  0  0  0  0  0  0
  193.3390  169.3890  137.4240 C   0  0  1  0  0  3  0  0  0  0  0  0
  191.8430  169.1500  137.6280 C   0  0  1  0  0  3  0  0  0  0  0  0
  192.2660  169.7790  139.9830 C   0  0  0  0  0  0  0  0  0  0  0  0
  193.5130  169.4190  139.8810 N   0  0  0  0  0  0  0  0  0  0  0  0
  191.4120  169.7040  138.8720 O   0  0  0  0  0  0  0  0  0  0  0  0
  191.3970  171.0380  136.2000 O   0  0  0  0  0  1  0  0  0  0  0  0
  191.0150  169.7210  136.4800 C   0  0  0  0  0  2  0  0  0  0  0  0
  2  1  1  0  0  0  0
  3  7  1  0  0  0  0
  4  5  2  0  0  0  0
  5  2  1  0  0  0  0
  6  7  2  0  0  0  0
  6  8  1  0  0  0  0
  7  4  1  0  0  0  0
  8  5  1  0  0  0  0
  9  6  1  1  0  0  0
 10 13  1  0  0  0  0
 11 12  1  0  0  0  0
 12  9  1  0  0  0  0
 13 11  2  0  0  0  0
 13 14  1  0  0  0  0
 14  9  1  0  0  0  0
 15 10  1  0  0  0  0
 15 16  1  0  0  0  0
 16 18  1  0  0  0  0
 17 19  2  0  0  0  0
 17 18  1  0  0  0  0
 18 22  2  0  0  0  0
 19 20  1  0  0  0  0
 20 23  1  0  0  0  0
 20 21  2  0  0  0  0
 22 21  1  0  0  0  0
 25 27  1  6  0  0  0
 25 26  1  0  0  0  0
 25 24  1  0  0  0  0
 25 29  1  0  0  0  0
 26 23  1  6  0  0  0
 26 24  1  0  0  0  0
 29 28  1  0  0  0  0
 30 29  1  0  0  0  0
 30 28  1  0  0  0  0
 31  1  1  0  0  0  0
 32 34  1  0  0  0  0
 33 31  1  0  0  0  0
 33 37  2  0  0  0  0
 34 36  2  0  0  0  0
 35 32  2  0  0  0  0
 35 33  1  0  0  0  0
 37 36  1  0  0  0  0
 38 48  1  0  0  0  0
 38 50  1  0  0  0  0
 39 42  1  0  0  0  0
 39 44  2  0  0  0  0
 40 32  1  0  0  0  0
 41 40  1  0  0  0  0
 42 38  2  0  0  0  0
 43 50  2  0  0  0  0
 45 47  1  0  0  0  0
 45 49  2  0  0  0  0
 46 40  2  0  0  0  0
 47 41  1  0  0  0  0
 48 44  1  6  0  0  0
 48 45  1  0  0  0  0
 49 46  1  0  0  0  0
 50 47  1  0  0  0  0
 51 56  1  0  0  0  0
 53 52  1  6  0  0  0
 53 54  1  0  0  0  0
 53 51  1  0  0  0  0
 54 59  1  6  0  0  0
 54 57  1  0  0  0  0
 55 39  1  0  0  0  0
 56 55  2  0  0  0  0
 57 55  1  0  0  0  0
 58 59  1  0  0  0  0
M  END
>  <MODEL>
8

>  <REMARK>
 VINA RESULT:      -6.3      2.571      5.992
  Name = 
  14 active torsions:
  status: ('A' for Active; 'I' for Inactive)
    1  A    between atoms: C_4  and  C_26
    2  A    between atoms: C_5  and  N_58
    3  A    between atoms: C_9  and  C_22
    4  A    between atoms: C_12  and  C_14
    5  A    between atoms: C_13  and  C_20
    6  A    between atoms: N_16  and  C_45
    7  A    between atoms: N_16  and  N_58
    8  A    between atoms: C_17  and  C_36
    9  A    between atoms: C_22  and  C_46
   10  A    between atoms: C_23  and  O_55
   11  A    between atoms: C_24  and  C_29
   12  A    between atoms: N_28  and  C_46
   13  A    between atoms: C_31  and  C_45
   14  A    between atoms: C_39  and  O_55
                            x       y       z     vdW  Elec       q    Type
                         _______ _______ _______ _____ _____    ______ ____

>  <TORSDO>
F 14

$$$$
=
 OpenBabel11042419093D

 59 68  0  0  1  0  0  0  0  0999 V2000
  196.1810  174.5690  137.2010 N   0  0  0  0  0  2  0  0  0  0  0  0
  196.0910  173.2880  136.5150 C   0  0  0  0  0  2  0  0  0  0  0  0
  191.8060  171.0040  137.9570 C   0  0  0  0  0  1  0  0  0  0  0  0
  193.8270  172.2810  137.1250 C   0  0  0  0  0  3  0  0  0  0  0  0
  195.2050  172.3730  137.2820 C   0  0  0  0  0  0  0  0  0  0  0  0
  194.1920  170.6320  138.7440 C   0  0  0  0  0  0  0  0  0  0  0  0
  193.2640  171.3010  137.9520 C   0  0  0  0  0  0  0  0  0  0  0  0
  195.7230  171.2520  138.4220 S   0  0  0  0  0  0  0  0  0  0  0  0
  193.8880  169.5130  139.6880 C   0  0  1  0  0  3  0  0  0  0  0  0
  194.4830  169.2800  143.5670 N   0  0  0  0  0  2  0  0  0  0  0  0
  195.3410  168.7180  141.4180 N   0  0  0  0  0  0  0  0  0  0  0  0
  195.1130  168.8140  140.0450 N   0  0  0  0  0  2  0  0  0  0  0  0
  194.4630  169.3310  142.1380 C   0  0  0  0  0  0  0  0  0  0  0  0
  193.1570  170.1540  141.2420 S   0  0  0  0  0  0  0  0  0  0  0  0
  195.5510  168.6350  144.3230 C   0  0  0  0  0  2  0  0  0  0  0  0
  195.6950  169.3130  145.6750 C   0  0  0  0  0  2  0  0  0  0  0  0
  194.1810  171.3090  145.6610 C   0  0  0  0  0  3  0  0  0  0  0  0
  195.4740  170.7830  145.5730 C   0  0  0  0  0  0  0  0  0  0  0  0
  193.9800  172.6910  145.5870 C   0  0  0  0  0  3  0  0  0  0  0  0
  195.0690  173.5550  145.4330 C   0  0  0  0  0  0  0  0  0  0  0  0
  196.3650  173.0230  145.3450 C   0  0  0  0  0  3  0  0  0  0  0  0
  196.5660  171.6410  145.4120 C   0  0  0  0  0  3  0  0  0  0  0  0
  194.8390  174.9320  145.3790 O   0  0  0  0  0  0  0  0  0  0  0  0
  194.2290  177.1480  146.1130 C   0  0  0  0  0  2  0  0  0  0  0  0
  193.0420  176.2440  146.3380 C   0  0  2  0  0  0  0  0  0  0  0  0
  194.4460  175.6920  146.5180 C   0  0  1  0  0  3  0  0  0  0  0  0
  192.3840  175.8740  145.1570 O   0  0  0  0  0  1  0  0  0  0  0  0
  191.4160  175.2840  148.0110 C   0  0  0  0  0  2  0  0  0  0  0  0
  192.2430  176.4980  147.6170 C   0  0  0  0  0  3  0  0  0  0  0  0
  190.7540  176.4540  147.3140 C   0  0  0  0  0  2  0  0  0  0  0  0
  197.1540  174.4370  138.2000 N   0  0  0  0  0  2  0  0  0  0  0  0
  195.2500  175.2090  141.3370 C   0  0  0  0  0  0  0  0  0  0  0  0
  196.8430  174.6380  139.5790 C   0  0  0  0  0  0  0  0  0  0  0  0
  196.2670  175.0200  142.2910 C   0  0  0  0  0  3  0  0  0  0  0  0
  195.5510  175.0080  139.9810 C   0  0  0  0  0  3  0  0  0  0  0  0
  197.5540  174.6460  141.8960 C   0  0  0  0  0  3  0  0  0  0  0  0
  197.8430  174.4610  140.5410 C   0  0  0  0  0  3  0  0  0  0  0  0
  189.2630  175.6600  142.6740 C   0  0  0  0  0  0  0  0  0  0  0  0
  188.2580  176.8150  144.1360 C   0  0  0  0  0  0  0  0  0  0  0  0
  193.8910  175.6440  141.7440 C   0  0  0  0  0  0  0  0  0  0  0  0
  192.7730  174.6130  141.8190 C   0  0  0  0  0  2  0  0  0  0  0  0
  188.2650  175.5820  143.5650 N   0  0  0  0  0  2  0  0  0  0  0  0
  190.0030  173.3920  142.2330 O   0  0  0  0  0  0  0  0  0  0  0  0
  189.3270  177.6160  143.7160 C   0  0  0  0  0  3  0  0  0  0  0  0
  191.3010  176.6210  142.3500 C   0  0  0  0  0  0  0  0  0  0  0  0
  193.6600  176.9430  142.0460 C   0  0  0  0  0  3  0  0  0  0  0  0
  191.4700  175.2510  141.9860 N   0  0  0  0  0  0  0  0  0  0  0  0
  189.9130  176.8430  142.7410 C   0  0  0  0  0  0  0  0  0  0  0  0
  192.3280  177.4570  142.4200 C   0  0  0  0  0  3  0  0  0  0  0  0
  190.2110  174.6330  142.2540 C   0  0  0  0  0  0  0  0  0  0  0  0
  186.5240  177.0180  147.4760 C   0  0  0  0  0  2  0  0  0  0  0  0
  184.4020  177.9530  148.0250 O   0  0  0  0  0  1  0  0  0  0  0  0
  185.1580  177.4630  146.9620 C   0  0  1  0  0  3  0  0  0  0  0  0
  185.3870  178.5640  145.9270 C   0  0  1  0  0  3  0  0  0  0  0  0
  187.3140  177.1970  145.1930 C   0  0  0  0  0  0  0  0  0  0  0  0
  187.4060  176.6510  146.3710 N   0  0  0  0  0  0  0  0  0  0  0  0
  186.2940  178.1210  144.9170 O   0  0  0  0  0  0  0  0  0  0  0  0
  184.1800  179.0450  143.8990 O   0  0  0  0  0  1  0  0  0  0  0  0
  184.0780  179.0310  145.2940 C   0  0  0  0  0  2  0  0  0  0  0  0
  1 31  1  0  0  0  0
  2  1  1  0  0  0  0
  2  5  1  0  0  0  0
  4  5  2  0  0  0  0
  4  7  1  0  0  0  0
  5  8  1  0  0  0  0
  7  3  1  0  0  0  0
  7  6  2  0  0  0  0
  8  6  1  0  0  0  0
  9  6  1  6  0  0  0
  9 12  1  0  0  0  0
  9 14  1  0  0  0  0
 10 15  1  0  0  0  0
 11 13  2  0  0  0  0
 12 11  1  0  0  0  0
 13 10  1  0  0  0  0
 14 13  1  0  0  0  0
 15 16  1  0  0  0  0
 18 17  2  0  0  0  0
 18 16  1  0  0  0  0
 19 17  1  0  0  0  0
 20 19  2  0  0  0  0
 21 22  2  0  0  0  0
 21 20  1  0  0  0  0
 22 18  1  0  0  0  0
 23 20  1  0  0  0  0
 24 25  1  0  0  0  0
 24 26  1  0  0  0  0
 25 27  1  6  0  0  0
 25 26  1  0  0  0  0
 25 29  1  0  0  0  0
 26 23  1  6  0  0  0
 29 28  1  0  0  0  0
 30 29  1  0  0  0  0
 30 28  1  0  0  0  0
 31 33  1  0  0  0  0
 32 40  1  0  0  0  0
 32 34  1  0  0  0  0
 33 35  1  0  0  0  0
 33 37  2  0  0  0  0
 35 32  2  0  0  0  0
 36 34  2  0  0  0  0
 37 36  1  0  0  0  0
 38 48  2  0  0  0  0
 38 42  1  0  0  0  0
 39 55  1  0  0  0  0
 40 41  1  0  0  0  0
 40 46  2  0  0  0  0
 41 47  1  0  0  0  0
 42 39  1  0  0  0  0
 43 50  2  0  0  0  0
 44 39  2  0  0  0  0
 45 49  2  0  0  0  0
 45 48  1  0  0  0  0
 46 49  1  0  0  0  0
 47 50  1  0  0  0  0
 47 45  1  0  0  0  0
 48 44  1  0  0  0  0
 50 38  1  0  0  0  0
 53 51  1  0  0  0  0
 53 52  1  1  0  0  0
 54 59  1  6  0  0  0
 54 53  1  0  0  0  0
 55 56  2  0  0  0  0
 56 51  1  0  0  0  0
 57 55  1  0  0  0  0
 57 54  1  0  0  0  0
 58 59  1  0  0  0  0
M  END
>  <MODEL>
9

>  <REMARK>
 VINA RESULT:      -6.3      3.526      9.707
  Name = 
  14 active torsions:
  status: ('A' for Active; 'I' for Inactive)
    1  A    between atoms: C_4  and  C_26
    2  A    between atoms: C_5  and  N_58
    3  A    between atoms: C_9  and  C_22
    4  A    between atoms: C_12  and  C_14
    5  A    between atoms: C_13  and  C_20
    6  A    between atoms: N_16  and  C_45
    7  A    between atoms: N_16  and  N_58
    8  A    between atoms: C_17  and  C_36
    9  A    between atoms: C_22  and  C_46
   10  A    between atoms: C_23  and  O_55
   11  A    between atoms: C_24  and  C_29
   12  A    between atoms: N_28  and  C_46
   13  A    between atoms: C_31  and  C_45
   14  A    between atoms: C_39  and  O_55
                            x       y       z     vdW  Elec       q    Type
                         _______ _______ _______ _____ _____    ______ ____

>  <TORSDO>
F 14

$$$$
