=
 OpenBabel11042416303D

 29 32  0  0  1  0  0  0  0  0999 V2000
  185.9290  177.5120  147.9730 C   0  0  0  0  0  2  0  0  0  0  0  0
  185.5900  177.8530  145.1000 C   0  0  2  0  0  3  0  0  0  0  0  0
  188.7530  178.2990  147.6930 O   0  0  0  0  0  0  0  0  0  0  0  0
  188.8300  177.2490  145.5000 C   0  0  2  0  0  3  0  0  0  0  0  0
  188.1970  177.5950  146.8070 C   0  0  0  0  0  0  0  0  0  0  0  0
  184.4060  178.0970  146.0320 C   0  0  0  0  0  2  0  0  0  0  0  0
  187.6980  176.4460  144.8160 C   0  0  1  0  0  3  0  0  0  0  0  0
  184.9480  178.5440  147.3960 C   0  0  0  0  0  2  0  0  0  0  0  0
  186.8790  177.0930  146.9440 N   0  0  0  0  0  0  0  0  0  0  0  0
  185.2540  177.6710  143.6300 C   0  0  2  0  0  3  0  0  0  0  0  0
  186.5750  177.7420  142.8770 C   0  0  0  0  0  2  0  0  0  0  0  0
  186.4130  176.6780  145.6390 C   0  0  1  0  0  3  0  0  0  0  0  0
  187.5000  176.5930  143.2830 C   0  0  1  0  0  3  0  0  0  0  0  0
  191.9670  175.4550  144.7060 C   0  0  0  0  0  2  0  0  0  0  0  0
  189.7870  174.9470  145.6170 N   0  0  0  0  0  0  0  0  0  0  0  0
  191.1950  176.7340  144.8580 C   0  0  0  0  0  2  0  0  0  0  0  0
  190.9580  174.3570  144.9750 C   0  0  1  0  0  3  0  0  0  0  0  0
  190.0590  176.3710  145.7880 C   0  0  1  0  0  3  0  0  0  0  0  0
  189.7120  174.4110  146.8580 O   0  0  0  0  0  1  0  0  0  0  0  0
  189.5480  172.1270  143.9470 C   0  0  0  0  0  1  0  0  0  0  0  0
  190.4680  173.5820  143.4210 S   0  0  2  0  0  0  0  0  0  0  0  0
  191.7680  172.9920  142.8910 O   0  0  0  0  0  0  0  0  0  0  0  0
  188.8050  176.6670  142.5080 C   0  0  0  0  0  2  0  0  0  0  0  0
  189.0140  178.0610  141.9490 C   0  0  0  0  0  1  0  0  0  0  0  0
  184.3480  178.7910  143.1340 C   0  0  0  0  0  2  0  0  0  0  0  0
  183.1950  178.2570  142.4920 O   0  0  0  0  0  0  0  0  0  0  0  0
  184.0340  178.3390  140.3380 O   0  0  0  0  0  0  0  0  0  0  0  0
  183.0360  178.2760  141.1050 C   0  0  0  0  0  0  0  0  0  0  0  0
  181.6680  178.2180  140.5260 C   0  0  0  0  0  1  0  0  0  0  0  0
  2 12  1  0  0  0  0
  2  6  1  1  0  0  0
  4 18  1  0  0  0  0
  4  5  1  1  0  0  0
  5  9  1  0  0  0  0
  5  3  2  0  0  0  0
  6  8  1  0  0  0  0
  7  4  1  0  0  0  0
  7 12  1  0  0  0  0
  8  1  1  0  0  0  0
  9  1  1  0  0  0  0
 10  2  1  0  0  0  0
 11 13  1  0  0  0  0
 11 10  1  0  0  0  0
 12  9  1  0  0  0  0
 13  7  1  0  0  0  0
 14 16  1  0  0  0  0
 14 17  1  0  0  0  0
 15 18  1  0  0  0  0
 15 19  1  0  0  0  0
 16 18  1  0  0  0  0
 17 15  1  0  0  0  0
 21 20  1  0  0  0  0
 21 17  1  0  0  0  0
 22 21  2  0  0  0  0
 23 13  1  0  0  0  0
 24 23  1  0  0  0  0
 25 10  1  0  0  0  0
 26 25  1  0  0  0  0
 27 28  2  0  0  0  0
 28 26  1  0  0  0  0
 29 28  1  0  0  0  0
M  END
>  <MODEL>
1

>  <REMARK>
 VINA RESULT:      -7.4      0.000      0.000
  Name = 
  6 active torsions:
  status: ('A' for Active; 'I' for Inactive)
    1  A    between atoms: C_8  and  O_10
    2  A    between atoms: C_9  and  C_22
    3  A    between atoms: O_10  and  C_23
    4  A    between atoms: C_11  and  C_29
    5  A    between atoms: C_20  and  C_23
    6  A    between atoms: C_21  and  S_25
                            x       y       z     vdW  Elec       q    Type
                         _______ _______ _______ _____ _____    ______ ____

>  <TORSDO>
F 6

$$$$
=
 OpenBabel11042416303D

 29 32  0  0  1  0  0  0  0  0999 V2000
  189.0140  176.3550  141.9270 C   0  0  0  0  0  2  0  0  0  0  0  0
  186.4170  177.4860  142.6050 C   0  0  2  0  0  3  0  0  0  0  0  0
  188.8120  174.5880  144.2740 O   0  0  0  0  0  0  0  0  0  0  0  0
  187.6040  176.3210  145.4780 C   0  0  2  0  0  3  0  0  0  0  0  0
  188.3820  175.7710  144.3290 C   0  0  0  0  0  0  0  0  0  0  0  0
  186.8540  177.4270  141.1440 C   0  0  0  0  0  2  0  0  0  0  0  0
  187.3000  177.7550  144.9820 C   0  0  1  0  0  3  0  0  0  0  0  0
  187.8160  176.2430  140.9730 C   0  0  0  0  0  2  0  0  0  0  0  0
  188.5560  176.6990  143.2720 N   0  0  0  0  0  0  0  0  0  0  0  0
  185.2570  178.4170  142.9160 C   0  0  2  0  0  3  0  0  0  0  0  0
  184.8160  178.0910  144.3360 C   0  0  0  0  0  2  0  0  0  0  0  0
  187.6380  177.7980  143.4760 C   0  0  1  0  0  3  0  0  0  0  0  0
  185.9300  178.3940  145.3390 C   0  0  1  0  0  3  0  0  0  0  0  0
  190.6410  177.1260  147.4330 C   0  0  0  0  0  2  0  0  0  0  0  0
  189.4000  175.1620  146.7650 N   0  0  0  0  0  0  0  0  0  0  0  0
  189.3970  177.5590  146.7130 C   0  0  0  0  0  2  0  0  0  0  0  0
  190.7050  175.6260  147.2300 C   0  0  1  0  0  3  0  0  0  0  0  0
  188.5220  176.3260  146.7120 C   0  0  1  0  0  3  0  0  0  0  0  0
  188.9120  174.3460  147.7280 O   0  0  0  0  0  1  0  0  0  0  0  0
  193.4700  175.9170  146.6950 C   0  0  0  0  0  1  0  0  0  0  0  0
  191.9620  175.2270  145.9980 S   0  0  2  0  0  0  0  0  0  0  0  0
  191.6490  176.1770  144.8490 O   0  0  0  0  0  0  0  0  0  0  0  0
  185.4660  178.0820  146.7520 C   0  0  0  0  0  2  0  0  0  0  0  0
  186.0050  179.1110  147.7280 C   0  0  0  0  0  1  0  0  0  0  0  0
  184.0880  178.1670  141.9710 C   0  0  0  0  0  2  0  0  0  0  0  0
  182.8600  178.5500  142.5800 O   0  0  0  0  0  0  0  0  0  0  0  0
  180.6730  179.2690  142.3510 O   0  0  0  0  0  0  0  0  0  0  0  0
  181.6770  178.6920  141.8520 C   0  0  0  0  0  0  0  0  0  0  0  0
  181.6020  178.1560  140.4680 C   0  0  0  0  0  1  0  0  0  0  0  0
  1  9  1  0  0  0  0
  2  6  1  6  0  0  0
  2 10  1  0  0  0  0
  2 12  1  0  0  0  0
  3  5  2  0  0  0  0
  4  5  1  6  0  0  0
  4 18  1  0  0  0  0
  7 13  1  0  0  0  0
  7  4  1  0  0  0  0
  8  6  1  0  0  0  0
  8  1  1  0  0  0  0
  9 12  1  0  0  0  0
  9  5  1  0  0  0  0
 10 11  1  0  0  0  0
 11 13  1  0  0  0  0
 12  7  1  0  0  0  0
 13 23  1  0  0  0  0
 15 17  1  0  0  0  0
 15 19  1  0  0  0  0
 16 14  1  0  0  0  0
 17 14  1  0  0  0  0
 18 16  1  0  0  0  0
 18 15  1  0  0  0  0
 21 20  1  0  0  0  0
 21 17  1  0  0  0  0
 22 21  2  0  0  0  0
 23 24  1  0  0  0  0
 25 26  1  0  0  0  0
 25 10  1  0  0  0  0
 28 27  2  0  0  0  0
 28 26  1  0  0  0  0
 29 28  1  0  0  0  0
M  END
>  <MODEL>
2

>  <REMARK>
 VINA RESULT:      -7.0      2.009      3.758
  Name = 
  6 active torsions:
  status: ('A' for Active; 'I' for Inactive)
    1  A    between atoms: C_8  and  O_10
    2  A    between atoms: C_9  and  C_22
    3  A    between atoms: O_10  and  C_23
    4  A    between atoms: C_11  and  C_29
    5  A    between atoms: C_20  and  C_23
    6  A    between atoms: C_21  and  S_25
                            x       y       z     vdW  Elec       q    Type
                         _______ _______ _______ _____ _____    ______ ____

>  <TORSDO>
F 6

$$$$
=
 OpenBabel11042416303D

 29 32  0  0  1  0  0  0  0  0999 V2000
  187.6940  176.8520  141.6840 C   0  0  0  0  0  2  0  0  0  0  0  0
  187.5250  176.5380  144.5750 C   0  0  2  0  0  3  0  0  0  0  0  0
  189.3020  174.3890  141.5500 O   0  0  0  0  0  0  0  0  0  0  0  0
  190.2880  174.9130  143.7100 C   0  0  2  0  0  3  0  0  0  0  0  0
  189.4480  175.1940  142.5080 C   0  0  0  0  0  0  0  0  0  0  0  0
  186.3840  177.2190  143.8230 C   0  0  0  0  0  2  0  0  0  0  0  0
  190.0510  176.1890  144.5530 C   0  0  1  0  0  3  0  0  0  0  0  0
  186.3450  176.6630  142.3930 C   0  0  0  0  0  2  0  0  0  0  0  0
  188.7870  176.4460  142.5650 N   0  0  0  0  0  0  0  0  0  0  0  0
  187.5530  176.7510  146.0780 C   0  0  2  0  0  3  0  0  0  0  0  0
  188.5680  175.7610  146.6310 C   0  0  0  0  0  2  0  0  0  0  0  0
  188.8550  176.9350  143.9240 C   0  0  1  0  0  3  0  0  0  0  0  0
  189.9710  176.0590  146.0980 C   0  0  1  0  0  3  0  0  0  0  0  0
  193.8360  173.8880  143.9390 C   0  0  0  0  0  2  0  0  0  0  0  0
  192.5670  175.9280  143.6770 N   0  0  0  0  0  0  0  0  0  0  0  0
  192.3810  173.5410  143.8100 C   0  0  0  0  0  2  0  0  0  0  0  0
  193.8650  175.3960  144.0820 C   0  0  1  0  0  3  0  0  0  0  0  0
  191.7510  174.7960  143.2500 C   0  0  1  0  0  3  0  0  0  0  0  0
  192.7860  176.6900  142.5790 O   0  0  0  0  0  1  0  0  0  0  0  0
  194.7230  177.5570  145.6980 C   0  0  0  0  0  1  0  0  0  0  0  0
  194.1900  175.8420  145.8010 S   0  0  2  0  0  0  0  0  0  0  0  0
  195.4800  175.1000  146.1240 O   0  0  0  0  0  0  0  0  0  0  0  0
  190.9750  175.0750  146.6760 C   0  0  0  0  0  2  0  0  0  0  0  0
  191.2400  175.3810  148.1370 C   0  0  0  0  0  1  0  0  0  0  0  0
  186.1930  176.4540  146.6970 C   0  0  0  0  0  2  0  0  0  0  0  0
  185.8400  177.4630  147.6380 O   0  0  0  0  0  0  0  0  0  0  0  0
  185.9470  179.7720  147.7270 O   0  0  0  0  0  0  0  0  0  0  0  0
  185.4170  178.7350  147.2460 C   0  0  0  0  0  0  0  0  0  0  0  0
  184.3270  178.8660  146.2440 C   0  0  0  0  0  1  0  0  0  0  0  0
  1  8  1  0  0  0  0
  1  9  1  0  0  0  0
  2  6  1  6  0  0  0
  2 10  1  0  0  0  0
  3  5  2  0  0  0  0
  4  5  1  6  0  0  0
  4  7  1  0  0  0  0
  5  9  1  0  0  0  0
  7 13  1  0  0  0  0
  8  6  1  0  0  0  0
  9 12  1  0  0  0  0
 10 11  1  0  0  0  0
 10 25  1  0  0  0  0
 12  7  1  0  0  0  0
 12  2  1  0  0  0  0
 13 11  1  0  0  0  0
 13 23  1  0  0  0  0
 14 17  1  0  0  0  0
 15 17  1  0  0  0  0
 16 14  1  0  0  0  0
 17 21  1  0  0  0  0
 18 15  1  0  0  0  0
 18  4  1  0  0  0  0
 18 16  1  0  0  0  0
 19 15  1  0  0  0  0
 20 21  1  0  0  0  0
 21 22  2  0  0  0  0
 23 24  1  0  0  0  0
 25 26  1  0  0  0  0
 28 26  1  0  0  0  0
 28 27  2  0  0  0  0
 29 28  1  0  0  0  0
M  END
>  <MODEL>
3

>  <REMARK>
 VINA RESULT:      -7.0      3.047      5.049
  Name = 
  6 active torsions:
  status: ('A' for Active; 'I' for Inactive)
    1  A    between atoms: C_8  and  O_10
    2  A    between atoms: C_9  and  C_22
    3  A    between atoms: O_10  and  C_23
    4  A    between atoms: C_11  and  C_29
    5  A    between atoms: C_20  and  C_23
    6  A    between atoms: C_21  and  S_25
                            x       y       z     vdW  Elec       q    Type
                         _______ _______ _______ _____ _____    ______ ____

>  <TORSDO>
F 6

$$$$
=
 OpenBabel11042416303D

 29 32  0  0  1  0  0  0  0  0999 V2000
  188.0570  176.1190  141.2630 C   0  0  0  0  0  2  0  0  0  0  0  0
  187.7080  176.4860  144.1310 C   0  0  2  0  0  3  0  0  0  0  0  0
  189.0880  173.4080  141.7760 O   0  0  0  0  0  0  0  0  0  0  0  0
  190.0780  174.1770  143.8600 C   0  0  2  0  0  3  0  0  0  0  0  0
  189.3700  174.3550  142.5580 C   0  0  0  0  0  0  0  0  0  0  0  0
  186.7760  177.2070  143.1600 C   0  0  0  0  0  2  0  0  0  0  0  0
  190.0940  175.6270  144.4000 C   0  0  1  0  0  3  0  0  0  0  0  0
  186.6730  176.3720  141.8770 C   0  0  0  0  0  2  0  0  0  0  0  0
  188.9980  175.6980  142.2990 N   0  0  0  0  0  0  0  0  0  0  0  0
  187.7230  177.0130  145.5560 C   0  0  2  0  0  3  0  0  0  0  0  0
  188.4720  175.9800  146.3860 C   0  0  0  0  0  2  0  0  0  0  0  0
  189.1180  176.4480  143.5300 C   0  0  1  0  0  3  0  0  0  0  0  0
  189.9250  175.8580  145.9260 C   0  0  1  0  0  3  0  0  0  0  0  0
  193.4030  172.7650  144.6580 C   0  0  0  0  0  2  0  0  0  0  0  0
  192.4960  174.7270  143.5770 N   0  0  0  0  0  0  0  0  0  0  0  0
  191.9100  172.6320  144.5860 C   0  0  0  0  0  2  0  0  0  0  0  0
  193.6880  174.1890  144.2270 C   0  0  1  0  0  3  0  0  0  0  0  0
  191.4960  173.6630  143.5610 C   0  0  1  0  0  3  0  0  0  0  0  0
  192.8310  174.9690  142.2880 O   0  0  0  0  0  1  0  0  0  0  0  0
  193.5730  176.8500  145.1880 C   0  0  0  0  0  1  0  0  0  0  0  0
  194.0970  175.1960  145.6670 S   0  0  2  0  0  0  0  0  0  0  0  0
  195.6160  175.2900  145.6180 O   0  0  0  0  0  0  0  0  0  0  0  0
  190.6640  174.8380  146.7780 C   0  0  0  0  0  2  0  0  0  0  0  0
  191.2050  175.4880  148.0370 C   0  0  0  0  0  1  0  0  0  0  0  0
  186.3060  177.1460  146.1030 C   0  0  0  0  0  2  0  0  0  0  0  0
  185.9560  178.5170  146.2580 O   0  0  0  0  0  0  0  0  0  0  0  0
  183.7040  178.8450  145.8460 O   0  0  0  0  0  0  0  0  0  0  0  0
  184.9020  179.1030  145.5540 C   0  0  0  0  0  0  0  0  0  0  0  0
  185.2000  180.0480  144.4460 C   0  0  0  0  0  1  0  0  0  0  0  0
  1  8  1  0  0  0  0
  1  9  1  0  0  0  0
  2  6  1  6  0  0  0
  2 10  1  0  0  0  0
  3  5  2  0  0  0  0
  4  5  1  6  0  0  0
  4  7  1  0  0  0  0
  7 13  1  0  0  0  0
  8  6  1  0  0  0  0
  9  5  1  0  0  0  0
  9 12  1  0  0  0  0
 10 25  1  0  0  0  0
 10 11  1  0  0  0  0
 12  2  1  0  0  0  0
 12  7  1  0  0  0  0
 13 11  1  0  0  0  0
 13 23  1  0  0  0  0
 15 17  1  0  0  0  0
 16 14  1  0  0  0  0
 17 14  1  0  0  0  0
 17 21  1  0  0  0  0
 18 15  1  0  0  0  0
 18  4  1  0  0  0  0
 18 16  1  0  0  0  0
 19 15  1  0  0  0  0
 20 21  1  0  0  0  0
 22 21  2  0  0  0  0
 23 24  1  0  0  0  0
 25 26  1  0  0  0  0
 28 27  2  0  0  0  0
 28 26  1  0  0  0  0
 29 28  1  0  0  0  0
M  END
>  <MODEL>
4

>  <REMARK>
 VINA RESULT:      -6.8      2.852      4.842
  Name = 
  6 active torsions:
  status: ('A' for Active; 'I' for Inactive)
    1  A    between atoms: C_8  and  O_10
    2  A    between atoms: C_9  and  C_22
    3  A    between atoms: O_10  and  C_23
    4  A    between atoms: C_11  and  C_29
    5  A    between atoms: C_20  and  C_23
    6  A    between atoms: C_21  and  S_25
                            x       y       z     vdW  Elec       q    Type
                         _______ _______ _______ _____ _____    ______ ____

>  <TORSDO>
F 6

$$$$
=
 OpenBabel11042416303D

 29 32  0  0  1  0  0  0  0  0999 V2000
  186.9100  177.5410  147.1030 C   0  0  0  0  0  2  0  0  0  0  0  0
  185.7280  177.7450  144.4490 C   0  0  2  0  0  3  0  0  0  0  0  0
  189.5730  177.9190  145.9020 O   0  0  0  0  0  0  0  0  0  0  0  0
  188.8430  176.7340  143.9080 C   0  0  2  0  0  3  0  0  0  0  0  0
  188.6940  177.2440  145.3030 C   0  0  0  0  0  0  0  0  0  0  0  0
  184.9300  178.2050  145.6660 C   0  0  0  0  0  2  0  0  0  0  0  0
  187.4730  176.0510  143.6840 C   0  0  1  0  0  3  0  0  0  0  0  0
  185.9170  178.6580  146.7500 C   0  0  0  0  0  2  0  0  0  0  0  0
  187.4380  176.9340  145.8830 N   0  0  0  0  0  0  0  0  0  0  0  0
  184.9300  177.5190  143.1760 C   0  0  2  0  0  3  0  0  0  0  0  0
  185.9480  177.3640  142.0550 C   0  0  0  0  0  2  0  0  0  0  0  0
  186.5440  176.5060  144.8300 C   0  0  1  0  0  3  0  0  0  0  0  0
  186.8220  176.1280  142.2760 C   0  0  1  0  0  3  0  0  0  0  0  0
  191.1650  174.2350  145.3410 C   0  0  0  0  0  2  0  0  0  0  0  0
  191.2940  176.3360  144.1530 N   0  0  0  0  0  0  0  0  0  0  0  0
  189.7780  174.6600  144.9540 C   0  0  0  0  0  2  0  0  0  0  0  0
  192.0410  175.4290  145.0210 C   0  0  1  0  0  3  0  0  0  0  0  0
  189.9970  175.7180  143.8960 C   0  0  1  0  0  3  0  0  0  0  0  0
  191.9520  176.3720  142.9700 O   0  0  0  0  0  1  0  0  0  0  0  0
  194.2890  176.2860  146.5130 C   0  0  0  0  0  1  0  0  0  0  0  0
  192.4900  176.2850  146.5450 S   0  0  2  0  0  0  0  0  0  0  0  0
  192.1670  175.2700  147.6330 O   0  0  0  0  0  0  0  0  0  0  0  0
  187.8180  175.9760  141.1390 C   0  0  0  0  0  2  0  0  0  0  0  0
  188.2070  174.5210  140.9620 C   0  0  0  0  0  1  0  0  0  0  0  0
  184.0420  178.7190  142.8680 C   0  0  0  0  0  2  0  0  0  0  0  0
  182.7740  178.2920  142.3820 O   0  0  0  0  0  0  0  0  0  0  0  0
  183.3590  178.2900  140.1440 O   0  0  0  0  0  0  0  0  0  0  0  0
  182.4550  178.2930  141.0220 C   0  0  0  0  0  0  0  0  0  0  0  0
  181.0290  178.2950  140.6060 C   0  0  0  0  0  1  0  0  0  0  0  0
  2 12  1  0  0  0  0
  2  6  1  1  0  0  0
  4  5  1  1  0  0  0
  5  9  1  0  0  0  0
  5  3  2  0  0  0  0
  6  8  1  0  0  0  0
  7  4  1  0  0  0  0
  7 12  1  0  0  0  0
  8  1  1  0  0  0  0
  9  1  1  0  0  0  0
 10  2  1  0  0  0  0
 11 13  1  0  0  0  0
 11 10  1  0  0  0  0
 12  9  1  0  0  0  0
 13  7  1  0  0  0  0
 15 17  1  0  0  0  0
 16 14  1  0  0  0  0
 17 14  1  0  0  0  0
 17 21  1  0  0  0  0
 18  4  1  0  0  0  0
 18 15  1  0  0  0  0
 18 16  1  0  0  0  0
 19 15  1  0  0  0  0
 20 21  1  0  0  0  0
 21 22  2  0  0  0  0
 23 13  1  0  0  0  0
 24 23  1  0  0  0  0
 25 10  1  0  0  0  0
 26 25  1  0  0  0  0
 27 28  2  0  0  0  0
 28 26  1  0  0  0  0
 29 28  1  0  0  0  0
M  END
>  <MODEL>
5

>  <REMARK>
 VINA RESULT:      -6.7      1.752      2.493
  Name = 
  6 active torsions:
  status: ('A' for Active; 'I' for Inactive)
    1  A    between atoms: C_8  and  O_10
    2  A    between atoms: C_9  and  C_22
    3  A    between atoms: O_10  and  C_23
    4  A    between atoms: C_11  and  C_29
    5  A    between atoms: C_20  and  C_23
    6  A    between atoms: C_21  and  S_25
                            x       y       z     vdW  Elec       q    Type
                         _______ _______ _______ _____ _____    ______ ____

>  <TORSDO>
F 6

$$$$
=
 OpenBabel11042416303D

 29 32  0  0  1  0  0  0  0  0999 V2000
  189.6020  172.7760  141.2050 C   0  0  0  0  0  2  0  0  0  0  0  0
  188.4990  175.4290  141.6890 C   0  0  2  0  0  3  0  0  0  0  0  0
  189.2980  172.1700  144.0710 O   0  0  0  0  0  0  0  0  0  0  0  0
  189.7630  174.4950  144.6140 C   0  0  2  0  0  3  0  0  0  0  0  0
  189.6440  173.3230  143.6970 C   0  0  0  0  0  0  0  0  0  0  0  0
  188.2840  174.7590  140.3340 C   0  0  0  0  0  2  0  0  0  0  0  0
  190.1500  175.6190  143.6230 C   0  0  1  0  0  3  0  0  0  0  0  0
  188.2990  173.2380  140.5370 C   0  0  0  0  0  2  0  0  0  0  0  0
  189.9170  173.6390  142.3430 N   0  0  0  0  0  0  0  0  0  0  0  0
  188.2440  176.9250  141.7410 C   0  0  2  0  0  3  0  0  0  0  0  0
  188.2290  177.3060  143.2140 C   0  0  0  0  0  2  0  0  0  0  0  0
  189.9010  175.0780  142.1990 C   0  0  1  0  0  3  0  0  0  0  0  0
  189.5910  177.0490  143.8600 C   0  0  1  0  0  3  0  0  0  0  0  0
  192.2140  175.2730  147.2740 C   0  0  0  0  0  2  0  0  0  0  0  0
  192.2200  174.3730  145.0310 N   0  0  0  0  0  0  0  0  0  0  0  0
  190.7950  175.1260  146.8060 C   0  0  0  0  0  2  0  0  0  0  0  0
  193.0580  175.0090  146.0430 C   0  0  1  0  0  3  0  0  0  0  0  0
  190.8930  174.2010  145.6140 C   0  0  1  0  0  3  0  0  0  0  0  0
  192.7250  173.1320  144.8320 O   0  0  0  0  0  1  0  0  0  0  0  0
  195.2390  176.0810  144.5900 C   0  0  0  0  0  1  0  0  0  0  0  0
  193.7070  176.5660  145.4000 S   0  0  2  0  0  0  0  0  0  0  0  0
  194.1920  177.2930  146.6460 O   0  0  0  0  0  0  0  0  0  0  0  0
  189.5650  177.4530  145.3250 C   0  0  0  0  0  2  0  0  0  0  0  0
  188.1360  177.5580  145.8230 C   0  0  0  0  0  1  0  0  0  0  0  0
  186.8900  177.2700  141.1320 C   0  0  0  0  0  2  0  0  0  0  0  0
  185.8480  177.0650  142.0800 O   0  0  0  0  0  0  0  0  0  0  0  0
  184.0360  178.1890  141.1840 O   0  0  0  0  0  0  0  0  0  0  0  0
  184.7540  177.9260  142.1860 C   0  0  0  0  0  0  0  0  0  0  0  0
  184.4310  178.5390  143.5000 C   0  0  0  0  0  1  0  0  0  0  0  0
  1  9  1  0  0  0  0
  2  6  1  6  0  0  0
  2 10  1  0  0  0  0
  2 12  1  0  0  0  0
  4  5  1  6  0  0  0
  4 18  1  0  0  0  0
  5  3  2  0  0  0  0
  6  8  1  0  0  0  0
  7 13  1  0  0  0  0
  7  4  1  0  0  0  0
  8  1  1  0  0  0  0
  9  5  1  0  0  0  0
 10 11  1  0  0  0  0
 11 13  1  0  0  0  0
 12  9  1  0  0  0  0
 12  7  1  0  0  0  0
 13 23  1  0  0  0  0
 15 18  1  0  0  0  0
 15 17  1  0  0  0  0
 16 14  1  0  0  0  0
 17 14  1  0  0  0  0
 18 16  1  0  0  0  0
 19 15  1  0  0  0  0
 20 21  1  0  0  0  0
 21 17  1  0  0  0  0
 21 22  2  0  0  0  0
 23 24  1  0  0  0  0
 25 10  1  0  0  0  0
 25 26  1  0  0  0  0
 26 28  1  0  0  0  0
 27 28  2  0  0  0  0
 28 29  1  0  0  0  0
M  END
>  <MODEL>
6

>  <REMARK>
 VINA RESULT:      -6.6      2.621      4.790
  Name = 
  6 active torsions:
  status: ('A' for Active; 'I' for Inactive)
    1  A    between atoms: C_8  and  O_10
    2  A    between atoms: C_9  and  C_22
    3  A    between atoms: O_10  and  C_23
    4  A    between atoms: C_11  and  C_29
    5  A    between atoms: C_20  and  C_23
    6  A    between atoms: C_21  and  S_25
                            x       y       z     vdW  Elec       q    Type
                         _______ _______ _______ _____ _____    ______ ____

>  <TORSDO>
F 6

$$$$
=
 OpenBabel11042416303D

 29 32  0  0  1  0  0  0  0  0999 V2000
  187.4560  176.7410  140.4750 C   0  0  0  0  0  2  0  0  0  0  0  0
  187.0200  177.5580  143.2360 C   0  0  2  0  0  3  0  0  0  0  0  0
  188.1760  174.0490  141.4270 O   0  0  0  0  0  0  0  0  0  0  0  0
  189.1470  175.0170  143.4360 C   0  0  2  0  0  3  0  0  0  0  0  0
  188.5190  175.0690  142.0820 C   0  0  0  0  0  0  0  0  0  0  0  0
  186.2120  178.2150  142.1200 C   0  0  0  0  0  2  0  0  0  0  0  0
  189.2890  176.5220  143.7640 C   0  0  1  0  0  3  0  0  0  0  0  0
  186.0800  177.2140  140.9640 C   0  0  0  0  0  2  0  0  0  0  0  0
  188.3010  176.3890  141.6140 N   0  0  0  0  0  0  0  0  0  0  0  0
  187.0260  178.2840  144.5700 C   0  0  2  0  0  3  0  0  0  0  0  0
  187.6260  177.3180  145.5810 C   0  0  0  0  0  2  0  0  0  0  0  0
  188.4430  177.2960  142.7310 C   0  0  1  0  0  3  0  0  0  0  0  0
  189.0780  176.9900  145.2300 C   0  0  1  0  0  3  0  0  0  0  0  0
  192.2740  173.4350  144.6210 C   0  0  0  0  0  2  0  0  0  0  0  0
  191.6180  175.2840  143.2100 N   0  0  0  0  0  0  0  0  0  0  0  0
  190.7790  173.4350  144.4860 C   0  0  0  0  0  2  0  0  0  0  0  0
  192.7210  174.7420  143.9980 C   0  0  1  0  0  3  0  0  0  0  0  0
  190.5160  174.3300  143.2970 C   0  0  1  0  0  3  0  0  0  0  0  0
  192.0280  175.2910  141.9200 O   0  0  0  0  0  1  0  0  0  0  0  0
  194.9390  176.1530  145.0500 C   0  0  0  0  0  1  0  0  0  0  0  0
  193.1720  175.9150  145.2930 S   0  0  2  0  0  0  0  0  0  0  0  0
  193.1090  175.0830  146.5660 O   0  0  0  0  0  0  0  0  0  0  0  0
  189.6680  176.0400  146.2590 C   0  0  0  0  0  2  0  0  0  0  0  0
  188.5660  175.3570  147.0470 C   0  0  0  0  0  1  0  0  0  0  0  0
  185.6080  178.6330  145.0080 C   0  0  0  0  0  2  0  0  0  0  0  0
  185.6310  179.5070  146.1310 O   0  0  0  0  0  0  0  0  0  0  0  0
  184.6540  178.2930  147.8400 O   0  0  0  0  0  0  0  0  0  0  0  0
  185.5910  179.0370  147.4460 C   0  0  0  0  0  0  0  0  0  0  0  0
  186.6740  179.4170  148.3910 C   0  0  0  0  0  1  0  0  0  0  0  0
  1  8  1  0  0  0  0
  1  9  1  0  0  0  0
  2  6  1  6  0  0  0
  2 10  1  0  0  0  0
  3  5  2  0  0  0  0
  4  5  1  6  0  0  0
  4  7  1  0  0  0  0
  7 13  1  0  0  0  0
  8  6  1  0  0  0  0
  9  5  1  0  0  0  0
  9 12  1  0  0  0  0
 10 25  1  0  0  0  0
 10 11  1  0  0  0  0
 12  2  1  0  0  0  0
 12  7  1  0  0  0  0
 13 11  1  0  0  0  0
 13 23  1  0  0  0  0
 15 18  1  0  0  0  0
 15 17  1  0  0  0  0
 16 14  1  0  0  0  0
 17 14  1  0  0  0  0
 17 21  1  0  0  0  0
 18  4  1  0  0  0  0
 18 16  1  0  0  0  0
 19 15  1  0  0  0  0
 20 21  1  0  0  0  0
 21 22  2  0  0  0  0
 23 24  1  0  0  0  0
 25 26  1  0  0  0  0
 26 28  1  0  0  0  0
 28 27  2  0  0  0  0
 28 29  1  0  0  0  0
M  END
>  <MODEL>
7

>  <REMARK>
 VINA RESULT:      -6.6      2.703      4.947
  Name = 
  6 active torsions:
  status: ('A' for Active; 'I' for Inactive)
    1  A    between atoms: C_8  and  O_10
    2  A    between atoms: C_9  and  C_22
    3  A    between atoms: O_10  and  C_23
    4  A    between atoms: C_11  and  C_29
    5  A    between atoms: C_20  and  C_23
    6  A    between atoms: C_21  and  S_25
                            x       y       z     vdW  Elec       q    Type
                         _______ _______ _______ _____ _____    ______ ____

>  <TORSDO>
F 6

$$$$
=
 OpenBabel11042416303D

 29 32  0  0  1  0  0  0  0  0999 V2000
  186.4850  177.7930  147.8100 C   0  0  0  0  0  2  0  0  0  0  0  0
  185.9700  177.8320  144.9430 C   0  0  2  0  0  3  0  0  0  0  0  0
  189.3700  177.9920  147.2550 O   0  0  0  0  0  0  0  0  0  0  0  0
  189.0720  176.6820  145.2270 C   0  0  2  0  0  3  0  0  0  0  0  0
  188.6240  177.3020  146.5100 C   0  0  0  0  0  0  0  0  0  0  0  0
  184.9330  178.4090  145.9030 C   0  0  0  0  0  2  0  0  0  0  0  0
  187.7600  176.0290  144.7300 C   0  0  1  0  0  3  0  0  0  0  0  0
  185.6590  178.9110  147.1570 C   0  0  0  0  0  2  0  0  0  0  0  0
  187.2540  177.0770  146.7940 N   0  0  0  0  0  0  0  0  0  0  0  0
  185.4840  177.5350  143.5350 C   0  0  2  0  0  3  0  0  0  0  0  0
  186.7280  177.2620  142.7020 C   0  0  0  0  0  2  0  0  0  0  0  0
  186.6120  176.5990  145.5890 C   0  0  1  0  0  3  0  0  0  0  0  0
  187.4620  176.0190  143.2060 C   0  0  1  0  0  3  0  0  0  0  0  0
  192.0280  175.2970  146.9680 C   0  0  0  0  0  2  0  0  0  0  0  0
  191.3200  175.7360  144.7000 N   0  0  0  0  0  0  0  0  0  0  0  0
  190.6080  175.7840  146.9890 C   0  0  0  0  0  2  0  0  0  0  0  0
  192.4910  175.5100  145.5420 C   0  0  1  0  0  3  0  0  0  0  0  0
  190.1440  175.6310  145.5580 C   0  0  1  0  0  3  0  0  0  0  0  0
  191.2620  174.7020  143.8270 O   0  0  0  0  0  1  0  0  0  0  0  0
  194.9570  176.3730  144.4510 C   0  0  0  0  0  1  0  0  0  0  0  0
  193.5810  176.9460  145.4590 S   0  0  2  0  0  0  0  0  0  0  0  0
  194.1840  177.0170  146.8550 O   0  0  0  0  0  0  0  0  0  0  0  0
  188.6890  175.7480  142.3510 C   0  0  0  0  0  2  0  0  0  0  0  0
  188.4580  174.5480  141.4530 C   0  0  0  0  0  1  0  0  0  0  0  0
  184.7540  178.7360  142.9450 C   0  0  0  0  0  2  0  0  0  0  0  0
  183.4430  178.3700  142.5280 O   0  0  0  0  0  0  0  0  0  0  0  0
  183.9630  178.2290  140.2790 O   0  0  0  0  0  0  0  0  0  0  0  0
  183.0850  178.2810  141.1810 C   0  0  0  0  0  0  0  0  0  0  0  0
  181.6470  178.2420  140.8090 C   0  0  0  0  0  1  0  0  0  0  0  0
  2 12  1  0  0  0  0
  2  6  1  1  0  0  0
  4 18  1  0  0  0  0
  4  5  1  1  0  0  0
  5  9  1  0  0  0  0
  5  3  2  0  0  0  0
  6  8  1  0  0  0  0
  7  4  1  0  0  0  0
  7 12  1  0  0  0  0
  8  1  1  0  0  0  0
  9  1  1  0  0  0  0
 10  2  1  0  0  0  0
 11 13  1  0  0  0  0
 11 10  1  0  0  0  0
 12  9  1  0  0  0  0
 13  7  1  0  0  0  0
 14 16  1  0  0  0  0
 15 17  1  0  0  0  0
 15 18  1  0  0  0  0
 17 14  1  0  0  0  0
 18 16  1  0  0  0  0
 19 15  1  0  0  0  0
 20 21  1  0  0  0  0
 21 17  1  0  0  0  0
 21 22  2  0  0  0  0
 23 13  1  0  0  0  0
 24 23  1  0  0  0  0
 25 10  1  0  0  0  0
 26 25  1  0  0  0  0
 27 28  2  0  0  0  0
 28 26  1  0  0  0  0
 29 28  1  0  0  0  0
M  END
>  <MODEL>
8

>  <REMARK>
 VINA RESULT:      -6.6      1.759      2.348
  Name = 
  6 active torsions:
  status: ('A' for Active; 'I' for Inactive)
    1  A    between atoms: C_8  and  O_10
    2  A    between atoms: C_9  and  C_22
    3  A    between atoms: O_10  and  C_23
    4  A    between atoms: C_11  and  C_29
    5  A    between atoms: C_20  and  C_23
    6  A    between atoms: C_21  and  S_25
                            x       y       z     vdW  Elec       q    Type
                         _______ _______ _______ _____ _____    ______ ____

>  <TORSDO>
F 6

$$$$
=
 OpenBabel11042416303D

 29 32  0  0  1  0  0  0  0  0999 V2000
  188.2730  176.5980  141.9440 C   0  0  0  0  0  2  0  0  0  0  0  0
  187.9920  176.6540  144.8430 C   0  0  2  0  0  3  0  0  0  0  0  0
  190.5090  174.7050  142.2370 O   0  0  0  0  0  0  0  0  0  0  0  0
  191.1520  175.7850  144.3200 C   0  0  2  0  0  3  0  0  0  0  0  0
  190.3560  175.6430  143.0640 C   0  0  0  0  0  0  0  0  0  0  0  0
  186.7630  176.8680  143.9630 C   0  0  0  0  0  2  0  0  0  0  0  0
  190.5090  177.0430  144.9490 C   0  0  1  0  0  3  0  0  0  0  0  0
  186.9830  176.1320  142.6350 C   0  0  0  0  0  2  0  0  0  0  0  0
  189.3700  176.6490  142.9090 N   0  0  0  0  0  0  0  0  0  0  0  0
  187.8510  177.0730  146.2960 C   0  0  2  0  0  3  0  0  0  0  0  0
  189.0600  176.5020  147.0240 C   0  0  0  0  0  2  0  0  0  0  0  0
  189.2010  177.3200  144.1780 C   0  0  1  0  0  3  0  0  0  0  0  0
  190.3580  177.1120  146.4930 C   0  0  1  0  0  3  0  0  0  0  0  0
  194.0670  175.9190  142.0440 C   0  0  0  0  0  2  0  0  0  0  0  0
  193.4590  174.8520  144.1250 N   0  0  0  0  0  0  0  0  0  0  0  0
  192.7140  176.4160  142.4670 C   0  0  0  0  0  2  0  0  0  0  0  0
  194.3760  174.7770  142.9910 C   0  0  1  0  0  3  0  0  0  0  0  0
  192.6190  176.0290  143.9250 C   0  0  1  0  0  3  0  0  0  0  0  0
  194.2160  175.0930  145.2220 O   0  0  0  0  0  1  0  0  0  0  0  0
  193.5130  173.6750  140.5300 C   0  0  0  0  0  1  0  0  0  0  0  0
  194.1580  173.2000  142.1420 S   0  0  2  0  0  0  0  0  0  0  0  0
  192.9460  172.5880  142.8300 O   0  0  0  0  0  0  0  0  0  0  0  0
  191.5530  176.5470  147.2440 C   0  0  0  0  0  2  0  0  0  0  0  0
  191.1600  175.2930  148.0020 C   0  0  0  0  0  1  0  0  0  0  0  0
  186.5870  176.4880  146.9140 C   0  0  0  0  0  2  0  0  0  0  0  0
  185.9400  177.4520  147.7390 O   0  0  0  0  0  0  0  0  0  0  0  0
  185.9410  179.7630  147.6380 O   0  0  0  0  0  0  0  0  0  0  0  0
  185.4660  178.6660  147.2380 C   0  0  0  0  0  0  0  0  0  0  0  0
  184.3880  178.6640  146.2150 C   0  0  0  0  0  1  0  0  0  0  0  0
  1  8  1  0  0  0  0
  1  9  1  0  0  0  0
  2  6  1  6  0  0  0
  2 10  1  0  0  0  0
  3  5  2  0  0  0  0
  4  5  1  6  0  0  0
  4  7  1  0  0  0  0
  7 13  1  0  0  0  0
  8  6  1  0  0  0  0
  9  5  1  0  0  0  0
  9 12  1  0  0  0  0
 10 25  1  0  0  0  0
 10 11  1  0  0  0  0
 12  2  1  0  0  0  0
 12  7  1  0  0  0  0
 13 11  1  0  0  0  0
 13 23  1  0  0  0  0
 14 16  1  0  0  0  0
 14 17  1  0  0  0  0
 15 19  1  0  0  0  0
 16 18  1  0  0  0  0
 17 15  1  0  0  0  0
 18 15  1  0  0  0  0
 18  4  1  0  0  0  0
 20 21  1  0  0  0  0
 21 22  2  0  0  0  0
 21 17  1  0  0  0  0
 23 24  1  0  0  0  0
 25 26  1  0  0  0  0
 28 27  2  0  0  0  0
 28 26  1  0  0  0  0
 29 28  1  0  0  0  0
M  END
>  <MODEL>
9

>  <REMARK>
 VINA RESULT:      -6.3      3.121      4.855
  Name = 
  6 active torsions:
  status: ('A' for Active; 'I' for Inactive)
    1  A    between atoms: C_8  and  O_10
    2  A    between atoms: C_9  and  C_22
    3  A    between atoms: O_10  and  C_23
    4  A    between atoms: C_11  and  C_29
    5  A    between atoms: C_20  and  C_23
    6  A    between atoms: C_21  and  S_25
                            x       y       z     vdW  Elec       q    Type
                         _______ _______ _______ _____ _____    ______ ____

>  <TORSDO>
F 6

$$$$
