=
 OpenBabel11042415503D

 50 55  0  0  1  0  0  0  0  0999 V2000
  190.9860  173.7160  141.8900 N   0  0  0  0  0  0  0  0  0  0  0  0
  190.5320  173.6430  144.1960 N   0  0  0  0  0  2  0  0  0  0  0  0
  190.9880  173.0150  142.9910 C   0  0  0  0  0  0  0  0  0  0  0  0
  193.0310  169.9920  144.0810 C   0  0  0  0  0  0  0  0  0  0  0  0
  191.4520  171.6030  143.0860 C   0  0  0  0  0  0  0  0  0  0  0  0
  190.7100  170.4490  142.3640 C   0  0  2  0  0  3  0  0  0  0  0  0
  191.7280  169.5710  142.3890 C   0  0  0  0  0  0  0  0  0  0  0  0
  191.2020  170.0030  141.1670 N   0  0  0  0  0  0  0  0  0  0  0  0
  192.7240  169.0500  143.2220 N   0  0  0  0  0  0  0  0  0  0  0  0
  192.4490  171.3390  143.9310 N   0  0  0  0  0  0  0  0  0  0  0  0
  196.9880  170.4650  146.0120 C   0  0  0  0  0  1  0  0  0  0  0  0
  194.6550  171.0190  145.5740 N   0  0  0  0  0  2  0  0  0  0  0  0
  195.4250  169.3670  144.4240 C   0  0  0  0  0  2  0  0  0  0  0  0
  195.9320  170.6940  144.9460 C   0  0  2  0  0  3  0  0  0  0  0  0
  194.1170  169.7490  145.0900 C   0  0  2  0  0  3  0  0  0  0  0  0
  190.9900  177.4200  144.5710 C   0  0  0  0  0  2  0  0  0  0  0  0
  188.9920  175.2570  145.2610 C   0  0  1  0  0  3  0  0  0  0  0  0
  189.4890  177.7070  144.6790 C   0  0  0  0  0  2  0  0  0  0  0  0
  190.1420  175.0470  144.2610 C   0  0  1  0  0  3  0  0  0  0  0  0
  191.3430  175.9260  144.6200 C   0  0  0  0  0  2  0  0  0  0  0  0
  189.2000  174.5110  146.4240 O   0  0  0  0  0  1  0  0  0  0  0  0
  188.8050  176.7340  145.6450 C   0  0  1  0  0  3  0  0  0  0  0  0
  187.3370  177.0850  145.8740 C   0  0  0  0  0  2  0  0  0  0  0  0
  186.6640  177.7310  144.6580 C   0  0  2  0  0  3  0  0  0  0  0  0
  184.0390  178.4110  145.0490 O   0  0  0  0  0  1  0  0  0  0  0  0
  185.4350  178.9740  145.1780 P   0  0  0  0  0  0  0  0  0  0  0  0
  185.5730  180.3530  144.2090 O   0  0  0  0  0  0  0  0  0  0  0  0
  185.7210  179.3930  146.7920 O   0  0  0  0  0  1  0  0  0  0  0  0
  186.0900  176.7570  143.7230 N   0  0  0  0  0  2  0  0  0  0  0  0
  185.9590  177.3220  142.3810 C   0  0  0  0  0  2  0  0  0  0  0  0
  187.0050  177.4000  140.2490 O   0  0  0  0  0  1  0  0  0  0  0  0
  187.2370  177.0990  141.5890 C   0  0  2  0  0  3  0  0  0  0  0  0
  187.6840  175.6520  141.7060 C   0  0  0  0  0  1  0  0  0  0  0  0
  191.4290  173.3090  140.5640 C   0  0  1  0  0  3  0  0  0  0  0  0
  190.5490  173.8090  139.6000 O   0  0  0  0  0  0  0  0  0  0  0  0
  189.9650  172.6810  139.0240 C   0  0  0  0  0  1  0  0  0  0  0  0
  192.8500  173.8150  140.3090 C   0  0  0  0  0  2  0  0  0  0  0  0
  193.8870  172.6930  140.2750 C   0  0  0  0  0  2  0  0  0  0  0  0
  196.0310  176.4260  142.5250 C   0  0  0  0  0  2  0  0  0  0  0  0
  195.8520  176.5420  144.0270 C   0  0  0  0  0  2  0  0  0  0  0  0
  196.0310  174.1400  144.3110 O   0  0  0  0  0  0  0  0  0  0  0  0
  196.1850  173.9250  142.9190 C   0  0  2  0  0  3  0  0  0  0  0  0
  196.7960  175.1470  142.1910 C   0  0  1  0  0  3  0  0  0  0  0  0
  195.1440  173.1510  140.8390 N   0  0  0  0  0  0  0  0  0  0  0  0
  196.8260  174.9250  140.6770 C   0  0  0  0  0  2  0  0  0  0  0  0
  195.4710  174.4150  140.1780 C   0  0  0  0  0  2  0  0  0  0  0  0
  194.8940  173.4320  142.2510 C   0  0  0  0  0  2  0  0  0  0  0  0
  195.1940  175.2580  144.5330 C   0  0  1  0  0  3  0  0  0  0  0  0
  194.4880  176.6810  146.3320 O   0  0  0  0  0  1  0  0  0  0  0  0
  194.8620  175.3750  146.0130 C   0  0  0  0  0  2  0  0  0  0  0  0
  1  3  2  0  0  0  0
  3  5  1  0  0  0  0
  3  2  1  0  0  0  0
  5 10  2  0  0  0  0
  6  8  1  6  0  0  0
  6  7  1  0  0  0  0
  6  5  1  0  0  0  0
  7  9  1  0  0  0  0
  8  7  2  0  0  0  0
  9  4  2  0  0  0  0
 10  4  1  0  0  0  0
 13 14  1  0  0  0  0
 13 15  1  0  0  0  0
 14 12  1  0  0  0  0
 14 11  1  1  0  0  0
 15  4  1  6  0  0  0
 15 12  1  0  0  0  0
 16 20  1  0  0  0  0
 16 18  1  0  0  0  0
 17 22  1  0  0  0  0
 17 21  1  1  0  0  0
 18 22  1  0  0  0  0
 19  2  1  1  0  0  0
 19 20  1  0  0  0  0
 19 17  1  0  0  0  0
 22 23  1  6  0  0  0
 24 26  1  0  0  0  0
 24 23  1  1  0  0  0
 25 26  1  0  0  0  0
 26 28  1  0  0  0  0
 27 26  2  0  0  0  0
 29 24  1  0  0  0  0
 30 29  1  0  0  0  0
 31 32  1  0  0  0  0
 32 33  1  6  0  0  0
 32 30  1  0  0  0  0
 34 37  1  6  0  0  0
 34  1  1  0  0  0  0
 35 34  1  0  0  0  0
 36 35  1  0  0  0  0
 38 37  1  0  0  0  0
 38 44  1  0  0  0  0
 39 40  1  0  0  0  0
 40 48  1  0  0  0  0
 41 48  1  0  0  0  0
 42 47  1  6  0  0  0
 42 41  1  0  0  0  0
 43 45  1  6  0  0  0
 43 39  1  0  0  0  0
 43 42  1  0  0  0  0
 44 47  1  0  0  0  0
 46 45  1  0  0  0  0
 46 44  1  0  0  0  0
 48 50  1  1  0  0  0
 50 49  1  0  0  0  0
M  END
>  <MODEL>
1

>  <REMARK>
 VINA RESULT:      -6.8      0.000      0.000
  Name = 
  15 active torsions:
  status: ('A' for Active; 'I' for Inactive)
    1  A    between atoms: C_1  and  C_49
    2  A    between atoms: N_4  and  C_33
    3  A    between atoms: C_6  and  C_35
    4  A    between atoms: C_7  and  N_24
    5  A    between atoms: C_7  and  C_42
    6  A    between atoms: C_10  and  C_16
    7  A    between atoms: C_10  and  C_44
    8  A    between atoms: O_15  and  C_33
    9  A    between atoms: C_16  and  P_23
   10  A    between atoms: C_16  and  N_50
   11  A    between atoms: C_21  and  N_27
   12  A    between atoms: C_33  and  C_42
   13  A    between atoms: C_34  and  C_48
   14  A    between atoms: C_36  and  C_38
   15  A    between atoms: C_38  and  N_50
                            x       y       z     vdW  Elec       q    Type
                         _______ _______ _______ _____ _____    ______ ____

>  <TORSDO>
F 15

$$$$
=
 OpenBabel11042415503D

 50 55  0  0  1  0  0  0  0  0999 V2000
  191.3210  173.7750  141.2510 N   0  0  0  0  0  0  0  0  0  0  0  0
  190.9440  173.9020  143.5680 N   0  0  0  0  0  2  0  0  0  0  0  0
  191.2650  173.1470  142.3930 C   0  0  0  0  0  0  0  0  0  0  0  0
  193.0070  169.9380  143.4740 C   0  0  0  0  0  0  0  0  0  0  0  0
  191.5320  171.6910  142.5640 C   0  0  0  0  0  0  0  0  0  0  0  0
  190.5250  170.6140  142.0870 C   0  0  2  0  0  3  0  0  0  0  0  0
  191.3970  169.5920  142.0500 C   0  0  0  0  0  0  0  0  0  0  0  0
  190.7440  170.0020  140.8830 N   0  0  0  0  0  0  0  0  0  0  0  0
  192.4320  168.9890  142.7740 N   0  0  0  0  0  0  0  0  0  0  0  0
  192.6060  171.3430  143.2740 N   0  0  0  0  0  0  0  0  0  0  0  0
  196.6110  170.7180  145.9260 C   0  0  0  0  0  1  0  0  0  0  0  0
  194.2220  170.4600  145.5160 N   0  0  0  0  0  2  0  0  0  0  0  0
  195.4700  170.2220  143.7760 C   0  0  0  0  0  2  0  0  0  0  0  0
  195.4470  171.0810  145.0210 C   0  0  2  0  0  3  0  0  0  0  0  0
  194.1980  169.6090  144.3280 C   0  0  2  0  0  3  0  0  0  0  0  0
  191.9360  177.5920  143.6670 C   0  0  0  0  0  2  0  0  0  0  0  0
  189.6980  175.7780  144.5880 C   0  0  1  0  0  3  0  0  0  0  0  0
  190.4960  178.0940  143.8200 C   0  0  0  0  0  2  0  0  0  0  0  0
  190.7550  175.3480  143.5550 C   0  0  1  0  0  3  0  0  0  0  0  0
  192.0820  176.0700  143.8010 C   0  0  0  0  0  2  0  0  0  0  0  0
  189.8630  175.0820  145.7890 O   0  0  0  0  0  1  0  0  0  0  0  0
  189.7360  177.2870  144.8780 C   0  0  1  0  0  3  0  0  0  0  0  0
  188.3450  177.8550  145.1470 C   0  0  0  0  0  2  0  0  0  0  0  0
  187.2230  177.0880  144.4400 C   0  0  2  0  0  3  0  0  0  0  0  0
  187.4160  178.4550  142.0730 O   0  0  0  0  0  0  0  0  0  0  0  0
  186.4270  178.1240  143.1670 P   0  0  0  0  0  0  0  0  0  0  0  0
  185.8670  179.5570  143.8660 O   0  0  0  0  0  1  0  0  0  0  0  0
  185.1220  177.2770  142.5030 O   0  0  0  0  0  1  0  0  0  0  0  0
  186.2400  176.5090  145.3620 N   0  0  0  0  0  2  0  0  0  0  0  0
  186.4930  176.9250  146.7400 C   0  0  0  0  0  2  0  0  0  0  0  0
  184.2970  177.7370  146.3300 O   0  0  0  0  0  1  0  0  0  0  0  0
  185.3410  177.7740  147.2520 C   0  0  2  0  0  3  0  0  0  0  0  0
  185.7880  179.2120  147.4440 C   0  0  0  0  0  1  0  0  0  0  0  0
  191.6560  173.2330  139.9420 C   0  0  1  0  0  3  0  0  0  0  0  0
  190.7250  173.6760  138.9970 O   0  0  0  0  0  0  0  0  0  0  0  0
  190.3340  172.5270  138.3090 C   0  0  0  0  0  1  0  0  0  0  0  0
  193.0700  173.6600  139.5450 C   0  0  0  0  0  2  0  0  0  0  0  0
  194.1380  172.6500  139.9610 C   0  0  0  0  0  2  0  0  0  0  0  0
  195.8030  176.5080  142.3990 C   0  0  0  0  0  2  0  0  0  0  0  0
  195.9080  176.3970  143.9080 C   0  0  0  0  0  2  0  0  0  0  0  0
  196.6730  174.1000  143.7620 O   0  0  0  0  0  0  0  0  0  0  0  0
  196.5870  174.0970  142.3480 C   0  0  2  0  0  3  0  0  0  0  0  0
  196.7500  175.5100  141.7380 C   0  0  1  0  0  3  0  0  0  0  0  0
  195.3490  173.3380  140.3740 N   0  0  0  0  0  0  0  0  0  0  0  0
  196.5240  175.4830  140.2240 C   0  0  0  0  0  2  0  0  0  0  0  0
  195.2460  174.7120  139.8820 C   0  0  0  0  0  2  0  0  0  0  0  0
  195.3320  173.3790  141.8350 C   0  0  0  0  0  2  0  0  0  0  0  0
  195.6700  174.9400  144.3010 C   0  0  1  0  0  3  0  0  0  0  0  0
  194.7380  175.7160  146.3710 O   0  0  0  0  0  1  0  0  0  0  0  0
  195.6250  174.7940  145.8140 C   0  0  0  0  0  2  0  0  0  0  0  0
  1  3  2  0  0  0  0
  3  5  1  0  0  0  0
  3  2  1  0  0  0  0
  5 10  2  0  0  0  0
  6  8  1  6  0  0  0
  6  5  1  0  0  0  0
  7  6  1  0  0  0  0
  7  9  1  0  0  0  0
  8  7  2  0  0  0  0
  9  4  2  0  0  0  0
 10  4  1  0  0  0  0
 13 15  1  0  0  0  0
 13 14  1  0  0  0  0
 14 12  1  0  0  0  0
 14 11  1  1  0  0  0
 15  4  1  6  0  0  0
 15 12  1  0  0  0  0
 16 20  1  0  0  0  0
 16 18  1  0  0  0  0
 17 22  1  0  0  0  0
 17 21  1  1  0  0  0
 18 22  1  0  0  0  0
 19  2  1  1  0  0  0
 19 20  1  0  0  0  0
 19 17  1  0  0  0  0
 22 23  1  6  0  0  0
 24 23  1  1  0  0  0
 24 29  1  0  0  0  0
 25 26  2  0  0  0  0
 26 27  1  0  0  0  0
 26 24  1  0  0  0  0
 28 26  1  0  0  0  0
 29 30  1  0  0  0  0
 30 32  1  0  0  0  0
 31 32  1  0  0  0  0
 32 33  1  6  0  0  0
 34 37  1  6  0  0  0
 34  1  1  0  0  0  0
 35 34  1  0  0  0  0
 36 35  1  0  0  0  0
 37 38  1  0  0  0  0
 38 44  1  0  0  0  0
 39 40  1  0  0  0  0
 40 48  1  0  0  0  0
 41 48  1  0  0  0  0
 42 47  1  1  0  0  0
 42 41  1  0  0  0  0
 43 45  1  6  0  0  0
 43 42  1  0  0  0  0
 43 39  1  0  0  0  0
 44 47  1  0  0  0  0
 46 45  1  0  0  0  0
 46 44  1  0  0  0  0
 48 50  1  1  0  0  0
 50 49  1  0  0  0  0
M  END
>  <MODEL>
2

>  <REMARK>
 VINA RESULT:      -6.7      1.177      2.142
  Name = 
  15 active torsions:
  status: ('A' for Active; 'I' for Inactive)
    1  A    between atoms: C_1  and  C_49
    2  A    between atoms: N_4  and  C_33
    3  A    between atoms: C_6  and  C_35
    4  A    between atoms: C_7  and  N_24
    5  A    between atoms: C_7  and  C_42
    6  A    between atoms: C_10  and  C_16
    7  A    between atoms: C_10  and  C_44
    8  A    between atoms: O_15  and  C_33
    9  A    between atoms: C_16  and  P_23
   10  A    between atoms: C_16  and  N_50
   11  A    between atoms: C_21  and  N_27
   12  A    between atoms: C_33  and  C_42
   13  A    between atoms: C_34  and  C_48
   14  A    between atoms: C_36  and  C_38
   15  A    between atoms: C_38  and  N_50
                            x       y       z     vdW  Elec       q    Type
                         _______ _______ _______ _____ _____    ______ ____

>  <TORSDO>
F 15

$$$$
=
 OpenBabel11042415503D

 50 55  0  0  1  0  0  0  0  0999 V2000
  192.7210  173.9380  145.0350 N   0  0  0  0  0  0  0  0  0  0  0  0
  192.6660  176.2710  145.3190 N   0  0  0  0  0  2  0  0  0  0  0  0
  193.3450  175.0770  144.9080 C   0  0  0  0  0  0  0  0  0  0  0  0
  196.1150  175.6920  142.3700 C   0  0  0  0  0  0  0  0  0  0  0  0
  194.7150  175.2260  144.3450 C   0  0  0  0  0  0  0  0  0  0  0  0
  195.9780  175.1600  145.2410 C   0  0  2  0  0  3  0  0  0  0  0  0
  196.8530  174.8930  144.2560 C   0  0  0  0  0  0  0  0  0  0  0  0
  196.6750  173.9840  145.3040 N   0  0  0  0  0  0  0  0  0  0  0  0
  197.2100  175.2680  142.9560 N   0  0  0  0  0  0  0  0  0  0  0  0
  194.8180  175.5620  143.0580 N   0  0  0  0  0  0  0  0  0  0  0  0
  196.3140  175.2260  137.9710 C   0  0  0  0  0  1  0  0  0  0  0  0
  195.2060  175.3630  140.1380 N   0  0  0  0  0  2  0  0  0  0  0  0
  197.3530  175.5240  140.2070 C   0  0  0  0  0  2  0  0  0  0  0  0
  196.3190  174.7560  139.4150 C   0  0  2  0  0  3  0  0  0  0  0  0
  196.1660  176.1260  140.9330 C   0  0  2  0  0  3  0  0  0  0  0  0
  189.5320  174.9550  147.0690 C   0  0  0  0  0  2  0  0  0  0  0  0
  190.3070  176.6110  144.6600 C   0  0  1  0  0  3  0  0  0  0  0  0
  188.6200  176.0540  146.5120 C   0  0  0  0  0  2  0  0  0  0  0  0
  191.2880  176.2760  145.7980 C   0  0  1  0  0  3  0  0  0  0  0  0
  190.9340  174.9340  146.4440 C   0  0  0  0  0  2  0  0  0  0  0  0
  190.6610  175.9430  143.4840 O   0  0  0  0  0  1  0  0  0  0  0  0
  188.8530  176.2620  145.0120 C   0  0  1  0  0  3  0  0  0  0  0  0
  187.8620  177.2530  144.4070 C   0  0  0  0  0  2  0  0  0  0  0  0
  186.9950  176.6520  143.2960 C   0  0  2  0  0  3  0  0  0  0  0  0
  187.6980  176.2250  140.6820 O   0  0  0  0  0  0  0  0  0  0  0  0
  187.4490  177.3420  141.6690 P   0  0  0  0  0  0  0  0  0  0  0  0
  188.8480  178.2790  141.8180 O   0  0  0  0  0  1  0  0  0  0  0  0
  186.1820  178.3120  141.1080 O   0  0  0  0  0  1  0  0  0  0  0  0
  185.5550  176.7680  143.5530 N   0  0  0  0  0  2  0  0  0  0  0  0
  185.2900  177.5510  144.7580 C   0  0  0  0  0  2  0  0  0  0  0  0
  183.7420  178.5390  143.2500 O   0  0  0  0  0  1  0  0  0  0  0  0
  184.4670  178.7810  144.4150 C   0  0  2  0  0  3  0  0  0  0  0  0
  185.3740  179.9800  144.1990 C   0  0  0  0  0  1  0  0  0  0  0  0
  193.1880  172.6110  144.6590 C   0  0  1  0  0  3  0  0  0  0  0  0
  193.8610  172.0270  145.7360 O   0  0  0  0  0  0  0  0  0  0  0  0
  194.5810  170.9680  145.1820 C   0  0  0  0  0  1  0  0  0  0  0  0
  192.0060  171.7420  144.2280 C   0  0  0  0  0  2  0  0  0  0  0  0
  190.7160  172.5390  144.0360 C   0  0  0  0  0  2  0  0  0  0  0  0
  189.7220  173.7230  139.4310 C   0  0  0  0  0  2  0  0  0  0  0  0
  190.7680  173.4030  138.3790 C   0  0  0  0  0  2  0  0  0  0  0  0
  191.3070  171.2920  139.4460 O   0  0  0  0  0  0  0  0  0  0  0  0
  190.3690  171.5090  140.4860 C   0  0  2  0  0  3  0  0  0  0  0  0
  189.2020  172.4300  140.0550 C   0  0  1  0  0  3  0  0  0  0  0  0
  190.0230  172.0960  142.8400 N   0  0  0  0  0  0  0  0  0  0  0  0
  188.2840  172.7410  141.2390 C   0  0  0  0  0  2  0  0  0  0  0  0
  189.1020  173.1680  142.4610 C   0  0  0  0  0  2  0  0  0  0  0  0
  191.0310  171.9740  141.7900 C   0  0  0  0  0  2  0  0  0  0  0  0
  191.8450  172.5300  139.0220 C   0  0  1  0  0  3  0  0  0  0  0  0
  194.1690  172.0000  138.7400 O   0  0  0  0  0  1  0  0  0  0  0  0
  192.9920  172.2940  138.0510 C   0  0  0  0  0  2  0  0  0  0  0  0
  3  1  2  0  0  0  0
  3  2  1  0  0  0  0
  4  9  2  0  0  0  0
  4 10  1  0  0  0  0
  5  3  1  0  0  0  0
  5  6  1  0  0  0  0
  6  7  1  6  0  0  0
  6  8  1  0  0  0  0
  7  8  2  0  0  0  0
  9  7  1  0  0  0  0
 10  5  2  0  0  0  0
 12 15  1  0  0  0  0
 13 15  1  0  0  0  0
 14 11  1  6  0  0  0
 14 12  1  0  0  0  0
 14 13  1  0  0  0  0
 15  4  1  1  0  0  0
 17 21  1  6  0  0  0
 17 22  1  0  0  0  0
 17 19  1  0  0  0  0
 18 16  1  0  0  0  0
 19  2  1  6  0  0  0
 19 20  1  0  0  0  0
 20 16  1  0  0  0  0
 22 23  1  1  0  0  0
 22 18  1  0  0  0  0
 24 29  1  0  0  0  0
 24 23  1  1  0  0  0
 25 26  2  0  0  0  0
 26 27  1  0  0  0  0
 26 24  1  0  0  0  0
 28 26  1  0  0  0  0
 29 30  1  0  0  0  0
 31 32  1  0  0  0  0
 32 33  1  6  0  0  0
 32 30  1  0  0  0  0
 34 37  1  1  0  0  0
 34  1  1  0  0  0  0
 34 35  1  0  0  0  0
 36 35  1  0  0  0  0
 38 37  1  0  0  0  0
 40 48  1  0  0  0  0
 40 39  1  0  0  0  0
 41 42  1  0  0  0  0
 42 47  1  1  0  0  0
 43 39  1  1  0  0  0
 43 42  1  0  0  0  0
 43 45  1  0  0  0  0
 44 38  1  0  0  0  0
 45 46  1  0  0  0  0
 46 44  1  0  0  0  0
 47 44  1  0  0  0  0
 48 50  1  6  0  0  0
 48 41  1  0  0  0  0
 50 49  1  0  0  0  0
M  END
>  <MODEL>
3

>  <REMARK>
 VINA RESULT:      -6.6      2.233      5.949
  Name = 
  15 active torsions:
  status: ('A' for Active; 'I' for Inactive)
    1  A    between atoms: C_1  and  C_49
    2  A    between atoms: N_4  and  C_33
    3  A    between atoms: C_6  and  C_35
    4  A    between atoms: C_7  and  N_24
    5  A    between atoms: C_7  and  C_42
    6  A    between atoms: C_10  and  C_16
    7  A    between atoms: C_10  and  C_44
    8  A    between atoms: O_15  and  C_33
    9  A    between atoms: C_16  and  P_23
   10  A    between atoms: C_16  and  N_50
   11  A    between atoms: C_21  and  N_27
   12  A    between atoms: C_33  and  C_42
   13  A    between atoms: C_34  and  C_48
   14  A    between atoms: C_36  and  C_38
   15  A    between atoms: C_38  and  N_50
                            x       y       z     vdW  Elec       q    Type
                         _______ _______ _______ _____ _____    ______ ____

>  <TORSDO>
F 15

$$$$
=
 OpenBabel11042415503D

 50 55  0  0  1  0  0  0  0  0999 V2000
  193.7350  175.9470  144.2290 N   0  0  0  0  0  0  0  0  0  0  0  0
  191.9030  175.3860  142.8680 N   0  0  0  0  0  2  0  0  0  0  0  0
  193.3080  175.6090  143.0440 C   0  0  0  0  0  0  0  0  0  0  0  0
  195.0890  173.8750  140.1600 C   0  0  0  0  0  0  0  0  0  0  0  0
  194.1870  175.4190  141.8570 C   0  0  0  0  0  0  0  0  0  0  0  0
  194.9090  176.6100  141.1760 C   0  0  2  0  0  3  0  0  0  0  0  0
  195.8430  175.8810  140.5410 C   0  0  0  0  0  0  0  0  0  0  0  0
  196.2220  176.8420  141.4840 N   0  0  0  0  0  0  0  0  0  0  0  0
  196.0180  174.7200  139.7800 N   0  0  0  0  0  0  0  0  0  0  0  0
  194.2230  174.2050  141.3070 N   0  0  0  0  0  0  0  0  0  0  0  0
  194.8250  170.8430  136.9430 C   0  0  0  0  0  1  0  0  0  0  0  0
  195.9600  172.4180  138.4170 N   0  0  0  0  0  2  0  0  0  0  0  0
  193.8230  172.3200  138.6710 C   0  0  0  0  0  2  0  0  0  0  0  0
  194.8140  172.2430  137.5300 C   0  0  2  0  0  3  0  0  0  0  0  0
  195.0440  172.5020  139.5520 C   0  0  2  0  0  3  0  0  0  0  0  0
  189.7670  174.0890  145.7610 C   0  0  0  0  0  2  0  0  0  0  0  0
  189.6370  176.1230  143.5270 C   0  0  1  0  0  3  0  0  0  0  0  0
  188.9460  175.3760  145.8840 C   0  0  0  0  0  2  0  0  0  0  0  0
  190.9460  175.4440  143.9670 C   0  0  1  0  0  3  0  0  0  0  0  0
  190.6730  174.0440  144.5220 C   0  0  0  0  0  2  0  0  0  0  0  0
  189.2520  175.6870  142.2570 O   0  0  0  0  0  1  0  0  0  0  0  0
  188.4820  175.8730  144.5110 C   0  0  1  0  0  3  0  0  0  0  0  0
  187.5490  177.0760  144.6180 C   0  0  0  0  0  2  0  0  0  0  0  0
  186.1070  176.7730  144.1970 C   0  0  2  0  0  3  0  0  0  0  0  0
  184.0510  177.9210  142.7960 O   0  0  0  0  0  1  0  0  0  0  0  0
  185.5600  177.9100  142.8800 P   0  0  0  0  0  0  0  0  0  0  0  0
  186.1970  177.4110  141.3950 O   0  0  0  0  0  0  0  0  0  0  0  0
  186.1120  179.4690  143.2320 O   0  0  0  0  0  1  0  0  0  0  0  0
  185.1640  176.7480  145.3210 N   0  0  0  0  0  2  0  0  0  0  0  0
  185.8060  177.1710  146.5640 C   0  0  0  0  0  2  0  0  0  0  0  0
  184.1570  178.8510  146.2360 O   0  0  0  0  0  1  0  0  0  0  0  0
  185.0490  178.3380  147.1750 C   0  0  2  0  0  3  0  0  0  0  0  0
  186.0150  179.4320  147.5960 C   0  0  0  0  0  1  0  0  0  0  0  0
  195.1060  176.1910  144.6550 C   0  0  1  0  0  3  0  0  0  0  0  0
  195.1400  177.2800  145.5310 O   0  0  0  0  0  0  0  0  0  0  0  0
  194.2250  176.9650  146.5350 C   0  0  0  0  0  1  0  0  0  0  0  0
  195.6770  174.9420  145.3270 C   0  0  0  0  0  2  0  0  0  0  0  0
  197.0210  174.5100  144.7440 C   0  0  0  0  0  2  0  0  0  0  0  0
  194.5200  170.4220  145.5360 C   0  0  0  0  0  2  0  0  0  0  0  0
  193.5100  169.9980  144.4860 C   0  0  0  0  0  2  0  0  0  0  0  0
  194.9750  170.6950  142.6840 O   0  0  0  0  0  0  0  0  0  0  0  0
  195.9730  171.1410  143.5860 C   0  0  2  0  0  3  0  0  0  0  0  0
  195.9270  170.3970  144.9420 C   0  0  1  0  0  3  0  0  0  0  0  0
  197.0800  173.0630  144.6280 N   0  0  0  0  0  0  0  0  0  0  0  0
  196.9320  170.9930  145.9300 C   0  0  0  0  0  2  0  0  0  0  0  0
  196.8190  172.5200  145.9620 C   0  0  0  0  0  2  0  0  0  0  0  0
  195.9770  172.6660  143.7550 C   0  0  0  0  0  2  0  0  0  0  0  0
  193.6950  170.8850  143.2550 C   0  0  1  0  0  3  0  0  0  0  0  0
  193.1430  169.8930  141.1410 O   0  0  0  0  0  1  0  0  0  0  0  0
  192.6160  170.5980  142.2230 C   0  0  0  0  0  2  0  0  0  0  0  0
  1 34  1  0  0  0  0
  2  3  1  0  0  0  0
  3  1  2  0  0  0  0
  4 10  1  0  0  0  0
  5  3  1  0  0  0  0
  6  7  1  6  0  0  0
  6  8  1  0  0  0  0
  6  5  1  0  0  0  0
  7  8  2  0  0  0  0
  9  4  2  0  0  0  0
  9  7  1  0  0  0  0
 10  5  2  0  0  0  0
 12 15  1  0  0  0  0
 13 15  1  0  0  0  0
 14 11  1  1  0  0  0
 14 12  1  0  0  0  0
 14 13  1  0  0  0  0
 15  4  1  6  0  0  0
 16 18  1  0  0  0  0
 17 21  1  6  0  0  0
 17 19  1  0  0  0  0
 17 22  1  0  0  0  0
 19  2  1  6  0  0  0
 19 20  1  0  0  0  0
 20 16  1  0  0  0  0
 22 23  1  1  0  0  0
 22 18  1  0  0  0  0
 24 23  1  1  0  0  0
 24 29  1  0  0  0  0
 25 26  1  0  0  0  0
 26 28  1  0  0  0  0
 26 24  1  0  0  0  0
 27 26  2  0  0  0  0
 29 30  1  0  0  0  0
 30 32  1  0  0  0  0
 31 32  1  0  0  0  0
 32 33  1  6  0  0  0
 34 37  1  1  0  0  0
 34 35  1  0  0  0  0
 35 36  1  0  0  0  0
 38 37  1  0  0  0  0
 40 39  1  0  0  0  0
 41 48  1  0  0  0  0
 41 42  1  0  0  0  0
 42 47  1  1  0  0  0
 42 43  1  0  0  0  0
 43 39  1  1  0  0  0
 43 45  1  0  0  0  0
 44 38  1  0  0  0  0
 44 46  1  0  0  0  0
 45 46  1  0  0  0  0
 47 44  1  0  0  0  0
 48 50  1  6  0  0  0
 48 40  1  0  0  0  0
 49 50  1  0  0  0  0
M  END
>  <MODEL>
4

>  <REMARK>
 VINA RESULT:      -6.5      2.305      5.578
  Name = 
  15 active torsions:
  status: ('A' for Active; 'I' for Inactive)
    1  A    between atoms: C_1  and  C_49
    2  A    between atoms: N_4  and  C_33
    3  A    between atoms: C_6  and  C_35
    4  A    between atoms: C_7  and  N_24
    5  A    between atoms: C_7  and  C_42
    6  A    between atoms: C_10  and  C_16
    7  A    between atoms: C_10  and  C_44
    8  A    between atoms: O_15  and  C_33
    9  A    between atoms: C_16  and  P_23
   10  A    between atoms: C_16  and  N_50
   11  A    between atoms: C_21  and  N_27
   12  A    between atoms: C_33  and  C_42
   13  A    between atoms: C_34  and  C_48
   14  A    between atoms: C_36  and  C_38
   15  A    between atoms: C_38  and  N_50
                            x       y       z     vdW  Elec       q    Type
                         _______ _______ _______ _____ _____    ______ ____

>  <TORSDO>
F 15

$$$$
=
 OpenBabel11042415503D

 50 55  0  0  1  0  0  0  0  0999 V2000
  191.9730  174.1470  143.8210 N   0  0  0  0  0  0  0  0  0  0  0  0
  191.3800  176.3350  143.1980 N   0  0  0  0  0  2  0  0  0  0  0  0
  192.3740  175.3430  143.4860 C   0  0  0  0  0  0  0  0  0  0  0  0
  195.7810  175.9880  141.9120 C   0  0  0  0  0  0  0  0  0  0  0  0
  193.8020  175.7470  143.3630 C   0  0  0  0  0  0  0  0  0  0  0  0
  194.5730  176.3920  144.5430 C   0  0  2  0  0  3  0  0  0  0  0  0
  195.8080  176.1280  144.0840 C   0  0  0  0  0  0  0  0  0  0  0  0
  195.3840  175.5980  145.3080 N   0  0  0  0  0  0  0  0  0  0  0  0
  196.5940  176.1610  142.9270 N   0  0  0  0  0  0  0  0  0  0  0  0
  194.3630  175.6660  142.1560 N   0  0  0  0  0  0  0  0  0  0  0  0
  197.1820  174.1110  138.1550 C   0  0  0  0  0  1  0  0  0  0  0  0
  195.5290  175.0420  139.6850 N   0  0  0  0  0  2  0  0  0  0  0  0
  197.5480  175.0180  140.4380 C   0  0  0  0  0  2  0  0  0  0  0  0
  196.6670  174.1330  139.5830 C   0  0  2  0  0  3  0  0  0  0  0  0
  196.3380  175.9280  140.5190 C   0  0  2  0  0  3  0  0  0  0  0  0
  188.0990  174.7990  141.9790 C   0  0  0  0  0  2  0  0  0  0  0  0
  189.1230  177.3420  143.2550 C   0  0  1  0  0  3  0  0  0  0  0  0
  187.2220  175.6530  142.9010 C   0  0  0  0  0  2  0  0  0  0  0  0
  189.9500  176.0470  143.1870 C   0  0  1  0  0  3  0  0  0  0  0  0
  189.5740  175.2250  141.9520 C   0  0  0  0  0  2  0  0  0  0  0  0
  189.6670  178.3260  142.4260 O   0  0  0  0  0  1  0  0  0  0  0  0
  187.6510  177.1240  142.8690 C   0  0  1  0  0  3  0  0  0  0  0  0
  186.7090  178.0170  143.6720 C   0  0  0  0  0  2  0  0  0  0  0  0
  186.4310  177.4990  145.0870 C   0  0  2  0  0  3  0  0  0  0  0  0
  184.0880  177.5580  146.5070 O   0  0  0  0  0  1  0  0  0  0  0  0
  185.1190  178.4770  145.8930 P   0  0  0  0  0  0  0  0  0  0  0  0
  184.3690  179.4740  144.7520 O   0  0  0  0  0  0  0  0  0  0  0  0
  185.8090  179.4330  147.1060 O   0  0  0  0  0  1  0  0  0  0  0  0
  187.6340  177.4100  145.9230 N   0  0  0  0  0  2  0  0  0  0  0  0
  187.6660  176.1590  146.6780 C   0  0  0  0  0  2  0  0  0  0  0  0
  189.9510  176.8070  146.5910 O   0  0  0  0  0  1  0  0  0  0  0  0
  189.0960  175.8080  147.0530 C   0  0  2  0  0  3  0  0  0  0  0  0
  189.4950  174.4810  146.4300 C   0  0  0  0  0  1  0  0  0  0  0  0
  192.7870  172.9790  144.1240 C   0  0  1  0  0  3  0  0  0  0  0  0
  193.2330  173.0450  145.4480 O   0  0  0  0  0  0  0  0  0  0  0  0
  194.2830  172.1320  145.5230 C   0  0  0  0  0  1  0  0  0  0  0  0
  191.9780  171.7020  143.8920 C   0  0  0  0  0  2  0  0  0  0  0  0
  190.9810  171.8270  142.7410 C   0  0  0  0  0  2  0  0  0  0  0  0
  189.8540  170.2350  138.2920 C   0  0  0  0  0  2  0  0  0  0  0  0
  189.7050  171.2680  137.1910 C   0  0  0  0  0  2  0  0  0  0  0  0
  191.5740  172.5580  138.0420 O   0  0  0  0  0  0  0  0  0  0  0  0
  191.7810  171.6620  139.1190 C   0  0  2  0  0  3  0  0  0  0  0  0
  191.2930  170.2270  138.8050 C   0  0  1  0  0  3  0  0  0  0  0  0
  191.5400  171.2640  141.5260 N   0  0  0  0  0  0  0  0  0  0  0  0
  191.4150  169.3240  140.0340 C   0  0  0  0  0  2  0  0  0  0  0  0
  190.8290  170.0110  141.2700 C   0  0  0  0  0  2  0  0  0  0  0  0
  191.2190  172.1930  140.4450 C   0  0  0  0  0  2  0  0  0  0  0  0
  190.1970  172.6130  137.7230 C   0  0  1  0  0  3  0  0  0  0  0  0
  189.6210  173.1740  135.4620 O   0  0  0  0  0  1  0  0  0  0  0  0
  189.9400  173.7160  136.7070 C   0  0  0  0  0  2  0  0  0  0  0  0
  1 34  1  0  0  0  0
  2  3  1  0  0  0  0
  3  1  2  0  0  0  0
  4 10  1  0  0  0  0
  4  9  2  0  0  0  0
  5  3  1  0  0  0  0
  6  5  1  6  0  0  0
  6  8  1  0  0  0  0
  7  6  1  0  0  0  0
  7  8  2  0  0  0  0
  9  7  1  0  0  0  0
 10  5  2  0  0  0  0
 12 15  1  0  0  0  0
 13 15  1  0  0  0  0
 14 11  1  6  0  0  0
 14 12  1  0  0  0  0
 14 13  1  0  0  0  0
 15  4  1  1  0  0  0
 16 18  1  0  0  0  0
 17 21  1  6  0  0  0
 19  2  1  6  0  0  0
 19 17  1  0  0  0  0
 20 16  1  0  0  0  0
 20 19  1  0  0  0  0
 22 18  1  0  0  0  0
 22 17  1  0  0  0  0
 22 23  1  1  0  0  0
 24 23  1  6  0  0  0
 24 26  1  0  0  0  0
 24 29  1  0  0  0  0
 26 25  1  0  0  0  0
 26 28  1  0  0  0  0
 27 26  2  0  0  0  0
 29 30  1  0  0  0  0
 30 32  1  0  0  0  0
 31 32  1  0  0  0  0
 32 33  1  6  0  0  0
 34 37  1  1  0  0  0
 34 35  1  0  0  0  0
 35 36  1  0  0  0  0
 38 37  1  0  0  0  0
 40 48  1  0  0  0  0
 40 39  1  0  0  0  0
 41 42  1  0  0  0  0
 42 47  1  1  0  0  0
 43 39  1  1  0  0  0
 43 42  1  0  0  0  0
 43 45  1  0  0  0  0
 44 38  1  0  0  0  0
 45 46  1  0  0  0  0
 46 44  1  0  0  0  0
 47 44  1  0  0  0  0
 48 50  1  6  0  0  0
 48 41  1  0  0  0  0
 49 50  1  0  0  0  0
M  END
>  <MODEL>
5

>  <REMARK>
 VINA RESULT:      -6.4      2.102      6.181
  Name = 
  15 active torsions:
  status: ('A' for Active; 'I' for Inactive)
    1  A    between atoms: C_1  and  C_49
    2  A    between atoms: N_4  and  C_33
    3  A    between atoms: C_6  and  C_35
    4  A    between atoms: C_7  and  N_24
    5  A    between atoms: C_7  and  C_42
    6  A    between atoms: C_10  and  C_16
    7  A    between atoms: C_10  and  C_44
    8  A    between atoms: O_15  and  C_33
    9  A    between atoms: C_16  and  P_23
   10  A    between atoms: C_16  and  N_50
   11  A    between atoms: C_21  and  N_27
   12  A    between atoms: C_33  and  C_42
   13  A    between atoms: C_34  and  C_48
   14  A    between atoms: C_36  and  C_38
   15  A    between atoms: C_38  and  N_50
                            x       y       z     vdW  Elec       q    Type
                         _______ _______ _______ _____ _____    ______ ____

>  <TORSDO>
F 15

$$$$
=
 OpenBabel11042415503D

 50 55  0  0  1  0  0  0  0  0999 V2000
  192.7010  173.5200  140.4270 N   0  0  0  0  0  0  0  0  0  0  0  0
  190.3700  173.7600  140.2400 N   0  0  0  0  0  2  0  0  0  0  0  0
  191.6460  173.4590  139.6610 C   0  0  0  0  0  0  0  0  0  0  0  0
  191.8900  173.8030  135.8770 C   0  0  0  0  0  0  0  0  0  0  0  0
  191.6730  173.0750  138.2220 C   0  0  0  0  0  0  0  0  0  0  0  0
  191.6220  171.5930  137.7710 C   0  0  2  0  0  3  0  0  0  0  0  0
  191.2240  171.8300  136.5090 C   0  0  0  0  0  0  0  0  0  0  0  0
  190.4210  171.0730  137.3690 N   0  0  0  0  0  0  0  0  0  0  0  0
  191.4630  172.6560  135.4050 N   0  0  0  0  0  0  0  0  0  0  0  0
  191.8880  174.0440  137.3310 N   0  0  0  0  0  0  0  0  0  0  0  0
  193.0800  177.8820  134.6280 C   0  0  0  0  0  1  0  0  0  0  0  0
  193.4590  175.5630  135.2790 N   0  0  0  0  0  2  0  0  0  0  0  0
  191.3930  176.1730  135.2620 C   0  0  0  0  0  2  0  0  0  0  0  0
  192.7310  176.7830  135.6160 C   0  0  2  0  0  3  0  0  0  0  0  0
  192.1920  174.9280  134.9270 C   0  0  2  0  0  3  0  0  0  0  0  0
  189.6970  173.0510  143.9360 C   0  0  0  0  0  2  0  0  0  0  0  0
  189.1700  175.1890  141.8630 C   0  0  1  0  0  3  0  0  0  0  0  0
  189.5580  174.5290  144.3130 C   0  0  0  0  0  2  0  0  0  0  0  0
  190.1900  174.0550  141.6570 C   0  0  1  0  0  3  0  0  0  0  0  0
  189.7700  172.7980  142.4220 C   0  0  0  0  0  2  0  0  0  0  0  0
  188.0710  175.0300  141.0140 O   0  0  0  0  0  1  0  0  0  0  0  0
  188.6690  175.2760  143.3130 C   0  0  1  0  0  3  0  0  0  0  0  0
  188.4040  176.7170  143.7420 C   0  0  0  0  0  2  0  0  0  0  0  0
  186.9420  176.9860  144.1160 C   0  0  2  0  0  3  0  0  0  0  0  0
  187.0920  178.3990  141.7730 O   0  0  0  0  0  0  0  0  0  0  0  0
  186.1800  178.1690  142.9560 P   0  0  0  0  0  0  0  0  0  0  0  0
  185.9040  179.6410  143.7420 O   0  0  0  0  0  1  0  0  0  0  0  0
  184.7070  177.5390  142.4130 O   0  0  0  0  0  1  0  0  0  0  0  0
  186.7640  177.4010  145.5120 N   0  0  0  0  0  2  0  0  0  0  0  0
  185.5020  176.9060  146.0570 C   0  0  0  0  0  2  0  0  0  0  0  0
  183.7880  178.5520  146.0790 O   0  0  0  0  0  1  0  0  0  0  0  0
  184.8070  178.0000  146.8520 C   0  0  2  0  0  3  0  0  0  0  0  0
  185.7960  179.0890  147.2270 C   0  0  0  0  0  1  0  0  0  0  0  0
  194.0840  173.2280  140.0760 C   0  0  1  0  0  3  0  0  0  0  0  0
  194.6400  174.3210  139.4050 O   0  0  0  0  0  0  0  0  0  0  0  0
  194.6290  175.3600  140.3350 C   0  0  0  0  0  1  0  0  0  0  0  0
  194.8860  172.9060  141.3370 C   0  0  0  0  0  2  0  0  0  0  0  0
  194.0230  172.3600  142.4730 C   0  0  0  0  0  2  0  0  0  0  0  0
  194.9390  176.2290  145.2650 C   0  0  0  0  0  2  0  0  0  0  0  0
  193.7940  176.7920  146.0870 C   0  0  0  0  0  2  0  0  0  0  0  0
  192.9630  174.5710  146.5920 O   0  0  0  0  0  0  0  0  0  0  0  0
  193.9820  173.9490  145.8290 C   0  0  2  0  0  3  0  0  0  0  0  0
  195.2630  174.8110  145.7310 C   0  0  1  0  0  3  0  0  0  0  0  0
  194.5590  172.7740  143.7580 N   0  0  0  0  0  0  0  0  0  0  0  0
  196.2890  174.1650  144.7960 C   0  0  0  0  0  2  0  0  0  0  0  0
  195.6280  173.7350  143.4830 C   0  0  0  0  0  2  0  0  0  0  0  0
  193.4860  173.4780  144.4550 C   0  0  0  0  0  2  0  0  0  0  0  0
  192.6220  175.8150  146.0120 C   0  0  1  0  0  3  0  0  0  0  0  0
  190.9640  175.5530  147.7270 O   0  0  0  0  0  1  0  0  0  0  0  0
  191.3970  176.3950  146.7030 C   0  0  0  0  0  2  0  0  0  0  0  0
  3  2  1  0  0  0  0
  3  1  2  0  0  0  0
  4 10  1  0  0  0  0
  5  3  1  0  0  0  0
  6  7  1  6  0  0  0
  6  5  1  0  0  0  0
  7  8  2  0  0  0  0
  8  6  1  0  0  0  0
  9  4  2  0  0  0  0
  9  7  1  0  0  0  0
 10  5  2  0  0  0  0
 12 14  1  0  0  0  0
 13 14  1  0  0  0  0
 14 11  1  6  0  0  0
 15 13  1  0  0  0  0
 15 12  1  0  0  0  0
 15  4  1  1  0  0  0
 16 18  1  0  0  0  0
 17 21  1  6  0  0  0
 17 22  1  0  0  0  0
 19  2  1  6  0  0  0
 19 17  1  0  0  0  0
 19 20  1  0  0  0  0
 20 16  1  0  0  0  0
 22 23  1  1  0  0  0
 22 18  1  0  0  0  0
 24 23  1  6  0  0  0
 24 29  1  0  0  0  0
 25 26  2  0  0  0  0
 26 27  1  0  0  0  0
 26 24  1  0  0  0  0
 28 26  1  0  0  0  0
 29 30  1  0  0  0  0
 30 32  1  0  0  0  0
 31 32  1  0  0  0  0
 32 33  1  6  0  0  0
 34  1  1  0  0  0  0
 34 37  1  1  0  0  0
 35 34  1  0  0  0  0
 35 36  1  0  0  0  0
 37 38  1  0  0  0  0
 38 44  1  0  0  0  0
 39 43  1  0  0  0  0
 39 40  1  0  0  0  0
 42 47  1  6  0  0  0
 42 41  1  0  0  0  0
 43 45  1  6  0  0  0
 43 42  1  0  0  0  0
 44 47  1  0  0  0  0
 46 44  1  0  0  0  0
 46 45  1  0  0  0  0
 48 40  1  0  0  0  0
 48 41  1  0  0  0  0
 48 50  1  1  0  0  0
 50 49  1  0  0  0  0
M  END
>  <MODEL>
6

>  <REMARK>
 VINA RESULT:      -6.2      2.930      5.670
  Name = 
  15 active torsions:
  status: ('A' for Active; 'I' for Inactive)
    1  A    between atoms: C_1  and  C_49
    2  A    between atoms: N_4  and  C_33
    3  A    between atoms: C_6  and  C_35
    4  A    between atoms: C_7  and  N_24
    5  A    between atoms: C_7  and  C_42
    6  A    between atoms: C_10  and  C_16
    7  A    between atoms: C_10  and  C_44
    8  A    between atoms: O_15  and  C_33
    9  A    between atoms: C_16  and  P_23
   10  A    between atoms: C_16  and  N_50
   11  A    between atoms: C_21  and  N_27
   12  A    between atoms: C_33  and  C_42
   13  A    between atoms: C_34  and  C_48
   14  A    between atoms: C_36  and  C_38
   15  A    between atoms: C_38  and  N_50
                            x       y       z     vdW  Elec       q    Type
                         _______ _______ _______ _____ _____    ______ ____

>  <TORSDO>
F 15

$$$$
=
 OpenBabel11042415503D

 50 55  0  0  1  0  0  0  0  0999 V2000
  194.0760  174.4270  144.8520 N   0  0  0  0  0  0  0  0  0  0  0  0
  192.5450  175.9510  143.9250 N   0  0  0  0  0  2  0  0  0  0  0  0
  193.8330  175.3210  143.9340 C   0  0  0  0  0  0  0  0  0  0  0  0
  195.4200  175.6660  140.4900 C   0  0  0  0  0  0  0  0  0  0  0  0
  194.8000  175.7240  142.8750 C   0  0  0  0  0  0  0  0  0  0  0  0
  196.0020  176.6540  143.1780 C   0  0  2  0  0  3  0  0  0  0  0  0
  196.7310  176.3220  142.0990 C   0  0  0  0  0  0  0  0  0  0  0  0
  197.2320  176.0890  143.3840 N   0  0  0  0  0  0  0  0  0  0  0  0
  196.6360  176.1000  140.7210 N   0  0  0  0  0  0  0  0  0  0  0  0
  194.5200  175.3720  141.6200 N   0  0  0  0  0  0  0  0  0  0  0  0
  194.5180  172.9820  137.0850 C   0  0  0  0  0  1  0  0  0  0  0  0
  194.0140  174.2310  139.1170 N   0  0  0  0  0  2  0  0  0  0  0  0
  196.0530  174.3920  138.4370 C   0  0  0  0  0  2  0  0  0  0  0  0
  194.9760  173.3300  138.4900 C   0  0  2  0  0  3  0  0  0  0  0  0
  195.0210  175.2900  139.0910 C   0  0  2  0  0  3  0  0  0  0  0  0
  189.7890  173.7790  145.4420 C   0  0  0  0  0  2  0  0  0  0  0  0
  190.4170  176.6950  144.9420 C   0  0  1  0  0  3  0  0  0  0  0  0
  189.2520  174.8910  146.3480 C   0  0  0  0  0  2  0  0  0  0  0  0
  191.4740  175.5800  144.8440 C   0  0  1  0  0  3  0  0  0  0  0  0
  190.8330  174.2570  144.4220 C   0  0  0  0  0  2  0  0  0  0  0  0
  190.1350  177.2250  143.6800 O   0  0  0  0  0  1  0  0  0  0  0  0
  189.1070  176.2110  145.5830 C   0  0  1  0  0  3  0  0  0  0  0  0
  188.4460  177.2980  146.4260 C   0  0  0  0  0  2  0  0  0  0  0  0
  187.2190  177.9290  145.7600 C   0  0  2  0  0  3  0  0  0  0  0  0
  185.9290  179.4550  147.6350 O   0  0  0  0  0  1  0  0  0  0  0  0
  185.8500  178.1100  146.9520 P   0  0  0  0  0  0  0  0  0  0  0  0
  185.9430  176.8870  148.1160 O   0  0  0  0  0  1  0  0  0  0  0  0
  184.3790  177.9870  146.1260 O   0  0  0  0  0  0  0  0  0  0  0  0
  186.7910  177.2310  144.5420 N   0  0  0  0  0  2  0  0  0  0  0  0
  186.5820  178.1650  143.4380 C   0  0  0  0  0  2  0  0  0  0  0  0
  186.1150  177.7620  141.1430 O   0  0  0  0  0  1  0  0  0  0  0  0
  185.6110  177.5770  142.4290 C   0  0  2  0  0  3  0  0  0  0  0  0
  184.2580  178.2580  142.5380 C   0  0  0  0  0  1  0  0  0  0  0  0
  195.2860  173.6380  145.0390 C   0  0  1  0  0  3  0  0  0  0  0  0
  196.1010  174.2470  145.9980 O   0  0  0  0  0  0  0  0  0  0  0  0
  197.1830  173.3810  146.1550 C   0  0  0  0  0  1  0  0  0  0  0  0
  194.9220  172.2160  145.4680 C   0  0  0  0  0  2  0  0  0  0  0  0
  193.5530  171.7690  144.9580 C   0  0  0  0  0  2  0  0  0  0  0  0
  191.0890  169.2310  141.6290 C   0  0  0  0  0  2  0  0  0  0  0  0
  190.6030  169.9710  140.3960 C   0  0  0  0  0  2  0  0  0  0  0  0
  192.6460  171.2730  140.2780 O   0  0  0  0  0  0  0  0  0  0  0  0
  193.1790  170.6550  141.4360 C   0  0  2  0  0  3  0  0  0  0  0  0
  192.6160  169.2320  141.6660 C   0  0  1  0  0  3  0  0  0  0  0  0
  193.7030  170.8810  143.8190 N   0  0  0  0  0  0  0  0  0  0  0  0
  193.1170  168.6510  142.9900 C   0  0  0  0  0  2  0  0  0  0  0  0
  192.9470  169.6660  144.1240 C   0  0  0  0  0  2  0  0  0  0  0  0
  193.0610  171.5400  142.6840 C   0  0  0  0  0  2  0  0  0  0  0  0
  191.2380  171.3610  140.3870 C   0  0  1  0  0  3  0  0  0  0  0  0
  189.9090  171.4100  138.3900 O   0  0  0  0  0  1  0  0  0  0  0  0
  190.6770  172.1970  139.2480 C   0  0  0  0  0  2  0  0  0  0  0  0
  1 34  1  0  0  0  0
  2  3  1  0  0  0  0
  3  1  2  0  0  0  0
  4  9  2  0  0  0  0
  4 10  1  0  0  0  0
  5  6  1  0  0  0  0
  5  3  1  0  0  0  0
  6  7  1  6  0  0  0
  6  8  1  0  0  0  0
  7  8  2  0  0  0  0
  9  7  1  0  0  0  0
 10  5  2  0  0  0  0
 13 14  1  0  0  0  0
 13 15  1  0  0  0  0
 14 11  1  6  0  0  0
 14 12  1  0  0  0  0
 15 12  1  0  0  0  0
 15  4  1  1  0  0  0
 16 18  1  0  0  0  0
 17 21  1  6  0  0  0
 17 22  1  0  0  0  0
 19  2  1  6  0  0  0
 19 17  1  0  0  0  0
 20 19  1  0  0  0  0
 20 16  1  0  0  0  0
 22 18  1  0  0  0  0
 22 23  1  1  0  0  0
 24 23  1  1  0  0  0
 24 26  1  0  0  0  0
 26 25  1  0  0  0  0
 26 27  1  0  0  0  0
 28 26  2  0  0  0  0
 29 24  1  0  0  0  0
 30 29  1  0  0  0  0
 31 32  1  0  0  0  0
 32 33  1  6  0  0  0
 32 30  1  0  0  0  0
 34 37  1  1  0  0  0
 34 35  1  0  0  0  0
 35 36  1  0  0  0  0
 38 37  1  0  0  0  0
 40 39  1  0  0  0  0
 41 48  1  0  0  0  0
 41 42  1  0  0  0  0
 42 43  1  0  0  0  0
 42 47  1  1  0  0  0
 43 39  1  1  0  0  0
 43 45  1  0  0  0  0
 44 46  1  0  0  0  0
 44 38  1  0  0  0  0
 45 46  1  0  0  0  0
 47 44  1  0  0  0  0
 48 50  1  6  0  0  0
 48 40  1  0  0  0  0
 49 50  1  0  0  0  0
M  END
>  <MODEL>
7

>  <REMARK>
 VINA RESULT:      -6.2      2.015      5.977
  Name = 
  15 active torsions:
  status: ('A' for Active; 'I' for Inactive)
    1  A    between atoms: C_1  and  C_49
    2  A    between atoms: N_4  and  C_33
    3  A    between atoms: C_6  and  C_35
    4  A    between atoms: C_7  and  N_24
    5  A    between atoms: C_7  and  C_42
    6  A    between atoms: C_10  and  C_16
    7  A    between atoms: C_10  and  C_44
    8  A    between atoms: O_15  and  C_33
    9  A    between atoms: C_16  and  P_23
   10  A    between atoms: C_16  and  N_50
   11  A    between atoms: C_21  and  N_27
   12  A    between atoms: C_33  and  C_42
   13  A    between atoms: C_34  and  C_48
   14  A    between atoms: C_36  and  C_38
   15  A    between atoms: C_38  and  N_50
                            x       y       z     vdW  Elec       q    Type
                         _______ _______ _______ _____ _____    ______ ____

>  <TORSDO>
F 15

$$$$
=
 OpenBabel11042415503D

 50 55  0  0  1  0  0  0  0  0999 V2000
  192.6150  173.2560  143.9400 N   0  0  0  0  0  0  0  0  0  0  0  0
  192.2550  175.5570  143.6270 N   0  0  0  0  0  2  0  0  0  0  0  0
  193.1380  174.4450  143.8230 C   0  0  0  0  0  0  0  0  0  0  0  0
  196.7280  174.8560  142.6210 C   0  0  0  0  0  0  0  0  0  0  0  0
  194.6000  174.7280  143.8600 C   0  0  0  0  0  0  0  0  0  0  0  0
  195.2970  175.2570  145.1390 C   0  0  2  0  0  3  0  0  0  0  0  0
  196.5470  174.9050  144.7900 C   0  0  0  0  0  0  0  0  0  0  0  0
  195.9590  174.3650  145.9390 N   0  0  0  0  0  0  0  0  0  0  0  0
  197.4450  174.9170  143.7180 N   0  0  0  0  0  0  0  0  0  0  0  0
  195.2710  174.6480  142.7100 N   0  0  0  0  0  0  0  0  0  0  0  0
  197.1550  175.2500  138.2320 C   0  0  0  0  0  1  0  0  0  0  0  0
  197.1680  176.0350  140.5390 N   0  0  0  0  0  2  0  0  0  0  0  0
  196.6450  173.9590  140.2920 C   0  0  0  0  0  2  0  0  0  0  0  0
  196.4150  175.2620  139.5570 C   0  0  2  0  0  3  0  0  0  0  0  0
  197.4160  174.8050  141.2870 C   0  0  2  0  0  3  0  0  0  0  0  0
  188.9530  174.7620  141.8730 C   0  0  0  0  0  2  0  0  0  0  0  0
  190.0720  176.6820  143.9240 C   0  0  1  0  0  3  0  0  0  0  0  0
  188.0840  175.3550  142.9880 C   0  0  0  0  0  2  0  0  0  0  0  0
  190.8110  175.4080  143.4760 C   0  0  1  0  0  3  0  0  0  0  0  0
  190.4530  175.0500  142.0320 C   0  0  0  0  0  2  0  0  0  0  0  0
  190.7320  177.8260  143.4690 O   0  0  0  0  0  1  0  0  0  0  0  0
  188.6150  176.7200  143.4390 C   0  0  1  0  0  3  0  0  0  0  0  0
  187.6910  177.3920  144.4510 C   0  0  0  0  0  2  0  0  0  0  0  0
  186.2040  177.1280  144.1930 C   0  0  2  0  0  3  0  0  0  0  0  0
  185.6590  179.8110  144.0870 O   0  0  0  0  0  1  0  0  0  0  0  0
  185.4350  178.5310  143.3170 P   0  0  0  0  0  0  0  0  0  0  0  0
  183.7730  178.2600  143.1540 O   0  0  0  0  0  1  0  0  0  0  0  0
  186.1320  178.6720  141.7820 O   0  0  0  0  0  0  0  0  0  0  0  0
  185.4560  176.7680  145.4040 N   0  0  0  0  0  2  0  0  0  0  0  0
  186.1720  177.1730  146.6110 C   0  0  0  0  0  2  0  0  0  0  0  0
  184.0900  178.3030  146.8010 O   0  0  0  0  0  1  0  0  0  0  0  0
  185.3150  178.1170  147.4380 C   0  0  2  0  0  3  0  0  0  0  0  0
  186.0060  179.4610  147.5920 C   0  0  0  0  0  1  0  0  0  0  0  0
  193.3040  171.9840  144.1110 C   0  0  1  0  0  3  0  0  0  0  0  0
  193.6940  171.8360  145.4460 O   0  0  0  0  0  0  0  0  0  0  0  0
  194.7470  170.9210  145.4150 C   0  0  0  0  0  1  0  0  0  0  0  0
  192.3930  170.8330  143.6850 C   0  0  0  0  0  2  0  0  0  0  0  0
  191.4300  171.2160  142.5620 C   0  0  0  0  0  2  0  0  0  0  0  0
  189.7350  169.7790  138.2420 C   0  0  0  0  0  2  0  0  0  0  0  0
  189.7080  170.8000  137.1200 C   0  0  0  0  0  2  0  0  0  0  0  0
  191.8370  171.7330  137.8140 O   0  0  0  0  0  0  0  0  0  0  0  0
  191.9440  170.8340  138.9040 C   0  0  2  0  0  3  0  0  0  0  0  0
  191.1780  169.5110  138.6650 C   0  0  1  0  0  3  0  0  0  0  0  0
  191.7940  170.5350  141.3320 N   0  0  0  0  0  0  0  0  0  0  0  0
  191.2120  168.6240  139.9120 C   0  0  0  0  0  2  0  0  0  0  0  0
  190.8470  169.4330  141.1600 C   0  0  0  0  0  2  0  0  0  0  0  0
  191.5800  171.4870  140.2440 C   0  0  0  0  0  2  0  0  0  0  0  0
  190.4760  172.0390  137.5790 C   0  0  1  0  0  3  0  0  0  0  0  0
  189.5890  174.2020  137.0390 O   0  0  0  0  0  1  0  0  0  0  0  0
  190.3620  173.1500  136.5470 C   0  0  0  0  0  2  0  0  0  0  0  0
  1 34  1  0  0  0  0
  2  3  1  0  0  0  0
  3  5  1  0  0  0  0
  3  1  2  0  0  0  0
  4 10  1  0  0  0  0
  4  9  2  0  0  0  0
  6  5  1  6  0  0  0
  6  8  1  0  0  0  0
  7  6  1  0  0  0  0
  7  8  2  0  0  0  0
  9  7  1  0  0  0  0
 10  5  2  0  0  0  0
 12 15  1  0  0  0  0
 13 15  1  0  0  0  0
 14 11  1  6  0  0  0
 14 13  1  0  0  0  0
 14 12  1  0  0  0  0
 15  4  1  1  0  0  0
 16 20  1  0  0  0  0
 16 18  1  0  0  0  0
 17 21  1  6  0  0  0
 18 22  1  0  0  0  0
 19  2  1  6  0  0  0
 19 17  1  0  0  0  0
 20 19  1  0  0  0  0
 22 17  1  0  0  0  0
 22 23  1  1  0  0  0
 24 23  1  1  0  0  0
 24 29  1  0  0  0  0
 26 25  1  0  0  0  0
 26 24  1  0  0  0  0
 27 26  1  0  0  0  0
 28 26  2  0  0  0  0
 29 30  1  0  0  0  0
 30 32  1  0  0  0  0
 31 32  1  0  0  0  0
 32 33  1  6  0  0  0
 34 37  1  1  0  0  0
 34 35  1  0  0  0  0
 36 35  1  0  0  0  0
 38 37  1  0  0  0  0
 40 48  1  0  0  0  0
 40 39  1  0  0  0  0
 41 42  1  0  0  0  0
 42 47  1  1  0  0  0
 43 39  1  1  0  0  0
 43 42  1  0  0  0  0
 43 45  1  0  0  0  0
 44 38  1  0  0  0  0
 45 46  1  0  0  0  0
 46 44  1  0  0  0  0
 47 44  1  0  0  0  0
 48 50  1  6  0  0  0
 48 41  1  0  0  0  0
 50 49  1  0  0  0  0
M  END
>  <MODEL>
8

>  <REMARK>
 VINA RESULT:      -6.2      2.237      6.221
  Name = 
  15 active torsions:
  status: ('A' for Active; 'I' for Inactive)
    1  A    between atoms: C_1  and  C_49
    2  A    between atoms: N_4  and  C_33
    3  A    between atoms: C_6  and  C_35
    4  A    between atoms: C_7  and  N_24
    5  A    between atoms: C_7  and  C_42
    6  A    between atoms: C_10  and  C_16
    7  A    between atoms: C_10  and  C_44
    8  A    between atoms: O_15  and  C_33
    9  A    between atoms: C_16  and  P_23
   10  A    between atoms: C_16  and  N_50
   11  A    between atoms: C_21  and  N_27
   12  A    between atoms: C_33  and  C_42
   13  A    between atoms: C_34  and  C_48
   14  A    between atoms: C_36  and  C_38
   15  A    between atoms: C_38  and  N_50
                            x       y       z     vdW  Elec       q    Type
                         _______ _______ _______ _____ _____    ______ ____

>  <TORSDO>
F 15

$$$$
=
 OpenBabel11042415503D

 50 55  0  0  1  0  0  0  0  0999 V2000
  194.0450  174.7050  144.7110 N   0  0  0  0  0  0  0  0  0  0  0  0
  193.4500  176.8360  143.9160 N   0  0  0  0  0  2  0  0  0  0  0  0
  194.2850  175.6720  143.8690 C   0  0  0  0  0  0  0  0  0  0  0  0
  196.0560  174.9820  140.5690 C   0  0  0  0  0  0  0  0  0  0  0  0
  195.3630  175.6420  142.8410 C   0  0  0  0  0  0  0  0  0  0  0  0
  196.7290  176.3390  143.0690 C   0  0  2  0  0  3  0  0  0  0  0  0
  197.4100  175.6520  142.1360 C   0  0  0  0  0  0  0  0  0  0  0  0
  197.7900  175.5790  143.4800 N   0  0  0  0  0  0  0  0  0  0  0  0
  197.3270  175.1860  140.8190 N   0  0  0  0  0  0  0  0  0  0  0  0
  195.0650  175.1150  141.6520 N   0  0  0  0  0  0  0  0  0  0  0  0
  193.2840  173.7380  137.3470 C   0  0  0  0  0  1  0  0  0  0  0  0
  194.6640  175.3090  138.6000 N   0  0  0  0  0  2  0  0  0  0  0  0
  194.6410  173.3010  139.3820 C   0  0  0  0  0  2  0  0  0  0  0  0
  193.6650  174.2520  138.7240 C   0  0  2  0  0  3  0  0  0  0  0  0
  195.6430  174.4290  139.2340 C   0  0  2  0  0  3  0  0  0  0  0  0
  191.1320  175.9450  146.8220 C   0  0  0  0  0  2  0  0  0  0  0  0
  190.9890  177.0500  144.0110 C   0  0  1  0  0  3  0  0  0  0  0  0
  190.0240  176.9090  146.3850 C   0  0  0  0  0  2  0  0  0  0  0  0
  192.3010  176.9540  144.8080 C   0  0  1  0  0  3  0  0  0  0  0  0
  192.2570  175.7810  145.7900 C   0  0  0  0  0  2  0  0  0  0  0  0
  190.9860  176.1470  142.9440 O   0  0  0  0  0  1  0  0  0  0  0  0
  189.7490  176.7950  144.8830 C   0  0  1  0  0  3  0  0  0  0  0  0
  188.5580  177.6450  144.4480 C   0  0  0  0  0  2  0  0  0  0  0  0
  187.5770  176.9030  143.5340 C   0  0  2  0  0  3  0  0  0  0  0  0
  186.3410  178.5800  141.7530 O   0  0  0  0  0  1  0  0  0  0  0  0
  187.5330  177.6590  141.8750 P   0  0  0  0  0  0  0  0  0  0  0  0
  187.4250  176.4490  140.6990 O   0  0  0  0  0  0  0  0  0  0  0  0
  188.9530  178.5480  141.6350 O   0  0  0  0  0  1  0  0  0  0  0  0
  186.2320  176.7710  144.1060 N   0  0  0  0  0  2  0  0  0  0  0  0
  185.9980  177.7650  145.1520 C   0  0  0  0  0  2  0  0  0  0  0  0
  184.0640  177.7820  146.5330 O   0  0  0  0  0  1  0  0  0  0  0  0
  185.2780  177.1300  146.3300 C   0  0  2  0  0  3  0  0  0  0  0  0
  186.1230  177.2410  147.5870 C   0  0  0  0  0  1  0  0  0  0  0  0
  194.7290  173.4260  144.8300 C   0  0  1  0  0  3  0  0  0  0  0  0
  195.7500  173.5240  145.7800 O   0  0  0  0  0  0  0  0  0  0  0  0
  196.4640  172.3310  145.6690 C   0  0  0  0  0  1  0  0  0  0  0  0
  193.7340  172.3340  145.2210 C   0  0  0  0  0  2  0  0  0  0  0  0
  193.4330  171.3610  144.0820 C   0  0  0  0  0  2  0  0  0  0  0  0
  189.3870  173.5710  142.5520 C   0  0  0  0  0  2  0  0  0  0  0  0
  189.0820  173.5350  141.0650 C   0  0  0  0  0  2  0  0  0  0  0  0
  189.8650  171.2470  140.8830 O   0  0  0  0  0  0  0  0  0  0  0  0
  190.2030  171.1880  142.2570 C   0  0  2  0  0  3  0  0  0  0  0  0
  189.3580  172.1550  143.1210 C   0  0  1  0  0  3  0  0  0  0  0  0
  191.9990  171.1950  143.9260 N   0  0  0  0  0  0  0  0  0  0  0  0
  189.8390  172.1550  144.5740 C   0  0  0  0  0  2  0  0  0  0  0  0
  191.3620  172.3030  144.6390 C   0  0  0  0  0  2  0  0  0  0  0  0
  191.7100  171.3500  142.5020 C   0  0  0  0  0  2  0  0  0  0  0  0
  190.0550  172.5630  140.3990 C   0  0  1  0  0  3  0  0  0  0  0  0
  188.5380  172.6410  138.5410 O   0  0  0  0  0  1  0  0  0  0  0  0
  189.8880  172.5920  138.8870 C   0  0  0  0  0  2  0  0  0  0  0  0
  1 34  1  0  0  0  0
  3  2  1  0  0  0  0
  3  1  2  0  0  0  0
  4  9  2  0  0  0  0
  4 10  1  0  0  0  0
  5  6  1  0  0  0  0
  5  3  1  0  0  0  0
  6  7  1  6  0  0  0
  6  8  1  0  0  0  0
  7  8  2  0  0  0  0
  9  7  1  0  0  0  0
 10  5  2  0  0  0  0
 12 14  1  0  0  0  0
 12 15  1  0  0  0  0
 14 11  1  6  0  0  0
 14 13  1  0  0  0  0
 15 13  1  0  0  0  0
 15  4  1  1  0  0  0
 17 21  1  6  0  0  0
 17 19  1  0  0  0  0
 17 22  1  0  0  0  0
 18 16  1  0  0  0  0
 19  2  1  6  0  0  0
 19 20  1  0  0  0  0
 20 16  1  0  0  0  0
 22 23  1  6  0  0  0
 22 18  1  0  0  0  0
 24 29  1  0  0  0  0
 24 23  1  1  0  0  0
 25 26  1  0  0  0  0
 26 24  1  0  0  0  0
 27 26  2  0  0  0  0
 28 26  1  0  0  0  0
 29 30  1  0  0  0  0
 30 32  1  0  0  0  0
 32 31  1  0  0  0  0
 32 33  1  1  0  0  0
 34 37  1  1  0  0  0
 34 35  1  0  0  0  0
 36 35  1  0  0  0  0
 38 37  1  0  0  0  0
 40 39  1  0  0  0  0
 41 42  1  0  0  0  0
 42 47  1  6  0  0  0
 42 43  1  0  0  0  0
 43 39  1  6  0  0  0
 43 45  1  0  0  0  0
 44 38  1  0  0  0  0
 44 46  1  0  0  0  0
 45 46  1  0  0  0  0
 47 44  1  0  0  0  0
 48 50  1  6  0  0  0
 48 41  1  0  0  0  0
 48 40  1  0  0  0  0
 49 50  1  0  0  0  0
M  END
>  <MODEL>
9

>  <REMARK>
 VINA RESULT:      -6.1      2.132      6.251
  Name = 
  15 active torsions:
  status: ('A' for Active; 'I' for Inactive)
    1  A    between atoms: C_1  and  C_49
    2  A    between atoms: N_4  and  C_33
    3  A    between atoms: C_6  and  C_35
    4  A    between atoms: C_7  and  N_24
    5  A    between atoms: C_7  and  C_42
    6  A    between atoms: C_10  and  C_16
    7  A    between atoms: C_10  and  C_44
    8  A    between atoms: O_15  and  C_33
    9  A    between atoms: C_16  and  P_23
   10  A    between atoms: C_16  and  N_50
   11  A    between atoms: C_21  and  N_27
   12  A    between atoms: C_33  and  C_42
   13  A    between atoms: C_34  and  C_48
   14  A    between atoms: C_36  and  C_38
   15  A    between atoms: C_38  and  N_50
                            x       y       z     vdW  Elec       q    Type
                         _______ _______ _______ _____ _____    ______ ____

>  <TORSDO>
F 15

$$$$
