=
 OpenBabel11042419533D

 56 68  0  0  1  0  0  0  0  0999 V2000
  191.5400  173.0930  141.0590 C   0  0  2  0  0  3  0  0  0  0  0  0
  190.3600  174.8900  142.5380 C   0  0  0  0  0  2  0  0  0  0  0  0
  191.9510  173.7810  144.7520 C   0  0  0  0  0  3  0  0  0  0  0  0
  190.0140  175.2430  144.0120 C   0  0  2  0  0  3  0  0  0  0  0  0
  191.2830  173.6830  142.4250 C   0  0  1  0  0  0  0  0  0  0  0  0
  190.5490  174.2550  145.0750 C   0  0  2  0  0  3  0  0  0  0  0  0
  190.2500  172.4880  140.5380 C   0  0  2  0  0  3  0  0  0  0  0  0
  190.5760  172.4130  142.0140 C   0  0  1  0  0  3  0  0  0  0  0  0
  192.3000  173.4840  143.4980 C   0  0  0  0  0  3  0  0  0  0  0  0
  187.7730  176.5170  143.2710 C   0  0  2  0  0  0  0  0  0  0  0  0
  188.5840  177.0750  144.4220 C   0  0  2  0  0  3  0  0  0  0  0  0
  187.8070  175.0710  143.0800 N   0  0  0  0  0  2  0  0  0  0  0  0
  186.2600  176.8440  143.4210 C   0  0  1  0  0  3  0  0  0  0  0  0
  188.5270  175.5810  144.2490 C   0  0  2  0  0  0  0  0  0  0  0  0
  186.5680  177.3350  145.8730 C   0  0  0  0  0  0  0  0  0  0  0  0
  185.7620  176.9130  144.7880 N   0  0  0  0  0  2  0  0  0  0  0  0
  187.8840  177.4350  145.7070 C   0  0  0  0  0  3  0  0  0  0  0  0
  185.8020  178.0050  142.6360 N   0  0  0  0  0  0  0  0  0  0  0  0
  184.3510  178.0930  142.7420 C   0  0  0  0  0  2  0  0  0  0  0  0
  186.1240  177.8620  141.2220 C   0  0  0  0  0  2  0  0  0  0  0  0
  184.9520  178.4000  140.4380 C   0  0  0  0  0  2  0  0  0  0  0  0
  183.7710  178.2380  141.3520 C   0  0  0  0  0  2  0  0  0  0  0  0
  185.9150  177.6850  147.1730 C   0  0  0  0  0  3  0  0  0  0  0  0
  184.5160  178.2270  146.9560 C   0  0  0  0  0  1  0  0  0  0  0  0
  186.7370  178.6690  147.9940 C   0  0  0  0  0  1  0  0  0  0  0  0
  190.5340  171.1550  139.8740 C   0  0  0  0  0  2  0  0  0  0  0  0
  191.4670  170.8060  137.7470 C   0  0  0  0  0  2  0  0  0  0  0  0
  190.2650  171.2470  138.4490 N   0  0  0  0  0  0  0  0  0  0  0  0
  189.3440  171.7930  135.8400 O   0  0  0  0  0  0  0  0  0  0  0  0
  190.1010  172.6670  138.1270 C   0  0  1  0  0  3  0  0  0  0  0  0
  190.6030  171.2590  135.4950 C   0  0  0  0  0  2  0  0  0  0  0  0
  191.0720  173.0070  136.9990 C   0  0  2  0  0  3  0  0  0  0  0  0
  189.6010  172.8860  136.6930 C   0  0  1  0  0  0  0  0  0  0  0  0
  191.6160  171.6980  136.5350 C   0  0  1  0  0  3  0  0  0  0  0  0
  187.9160  174.5800  137.1390 C   0  0  0  0  0  3  0  0  0  0  0  0
  187.2680  175.7780  136.8450 C   0  0  0  0  0  0  0  0  0  0  0  0
  187.6690  176.5090  135.7740 N   0  0  0  0  0  0  0  0  0  0  0  0
  188.6880  176.0910  134.9830 C   0  0  0  0  0  3  0  0  0  0  0  0
  190.2670  174.4980  134.5170 O   0  0  0  0  0  0  0  0  0  0  0  0
  185.9400  176.3280  137.8440 Cl  0  0  0  0  0  0  0  0  0  0  0  0
  188.9570  174.1590  136.3650 N   0  0  0  0  0  0  0  0  0  0  0  0
  189.3430  174.8960  135.2750 C   0  0  0  0  0  0  0  0  0  0  0  0
  190.5080  174.9030  146.4600 C   0  0  0  0  0  2  0  0  0  0  0  0
  191.8950  175.0440  147.0620 C   0  0  0  0  0  2  0  0  0  0  0  0
  192.3560  176.4850  146.9470 C   0  0  0  0  0  2  0  0  0  0  0  0
  194.4850  177.5360  146.8490 O   0  0  0  0  0  0  0  0  0  0  0  0
  194.3460  175.4660  145.7770 N   0  0  0  0  0  2  0  0  0  0  0  0
  193.7810  176.5400  146.5290 C   0  0  0  0  0  0  0  0  0  0  0  0
  195.7350  175.4650  143.9170 C   0  0  2  0  0  0  0  0  0  0  0  0
  195.9580  174.2310  144.7560 C   0  0  2  0  0  3  0  0  0  0  0  0
  197.0150  175.6780  143.3160 O   0  0  0  0  0  0  0  0  0  0  0  0
  195.6950  175.4870  145.4070 N   0  0  0  0  0  0  0  0  0  0  0  0
  196.3640  176.8190  143.7130 C   0  0  0  0  0  2  0  0  0  0  0  0
  197.4000  173.8090  145.0730 C   0  0  0  0  0  2  0  0  0  0  0  0
  197.0280  171.8980  143.7790 C   0  0  0  0  0  1  0  0  0  0  0  0
  197.5030  172.3600  145.0720 N   0  0  0  0  0  2  0  0  0  0  0  0
  1  8  1  0  0  0  0
  1  5  1  0  0  0  0
  2  4  1  0  0  0  0
  3  6  1  0  0  0  0
  4 14  1  0  0  0  0
  4  6  1  0  0  0  0
  5  2  1  0  0  0  0
  5  9  1  0  0  0  0
  6 43  1  0  0  0  0
  7  1  1  0  0  0  0
  7  8  1  0  0  0  0
  8  5  1  0  0  0  0
  9  3  2  0  0  0  0
 10 13  1  0  0  0  0
 10 14  1  0  0  0  0
 10 11  1  0  0  0  0
 11 17  1  0  0  0  0
 12 10  1  0  0  0  0
 12 14  1  0  0  0  0
 13 16  1  0  0  0  0
 14 11  1  0  0  0  0
 15 23  1  0  0  0  0
 16 15  1  0  0  0  0
 17 15  2  0  0  0  0
 18 19  1  0  0  0  0
 18 13  1  0  0  0  0
 20 18  1  0  0  0  0
 21 20  1  0  0  0  0
 21 22  1  0  0  0  0
 22 19  1  0  0  0  0
 23 25  1  0  0  0  0
 24 23  1  0  0  0  0
 26  7  1  0  0  0  0
 27 28  1  0  0  0  0
 28 26  1  0  0  0  0
 29 33  1  0  0  0  0
 30 28  1  0  0  0  0
 31 29  1  0  0  0  0
 31 34  1  0  0  0  0
 32 30  1  0  0  0  0
 33 32  1  0  0  0  0
 33 30  1  0  0  0  0
 34 32  1  0  0  0  0
 34 27  1  0  0  0  0
 36 35  2  0  0  0  0
 36 40  1  0  0  0  0
 37 36  1  0  0  0  0
 38 42  1  0  0  0  0
 38 37  2  0  0  0  0
 39 42  2  0  0  0  0
 41 33  1  0  0  0  0
 41 35  1  0  0  0  0
 42 41  1  0  0  0  0
 43 44  1  0  0  0  0
 45 44  1  0  0  0  0
 47 48  1  0  0  0  0
 48 46  2  0  0  0  0
 48 45  1  0  0  0  0
 49 50  1  0  0  0  0
 49 52  1  0  0  0  0
 50 54  1  0  0  0  0
 50 52  1  0  0  0  0
 51 53  1  0  0  0  0
 51 49  1  0  0  0  0
 52 47  1  0  0  0  0
 53 49  1  0  0  0  0
 55 56  1  0  0  0  0
 56 54  1  0  0  0  0
M  END
>  <MODEL>
1

>  <REMARK>
 VINA RESULT:      -8.6      0.000      0.000
  Name = 
  13 active torsions:
  status: ('A' for Active; 'I' for Inactive)
    1  A    between atoms: C_4  and  C_25
    2  A    between atoms: N_6  and  C_13
    3  A    between atoms: N_7  and  C_8
    4  A    between atoms: C_8  and  C_53
    5  A    between atoms: C_19  and  C_27
    6  A    between atoms: C_26  and  C_45
    7  A    between atoms: C_35  and  N_43
    8  A    between atoms: N_36  and  N_38
    9  A    between atoms: C_37  and  C_42
   10  A    between atoms: C_37  and  C_51
   11  A    between atoms: C_42  and  C_52
   12  A    between atoms: C_45  and  N_47
   13  A    between atoms: C_48  and  C_52
                            x       y       z     vdW  Elec       q    Type
                         _______ _______ _______ _____ _____    ______ ____

>  <TORSDO>
F 13

$$$$
=
 OpenBabel11042419533D

 56 68  0  0  1  0  0  0  0  0999 V2000
  188.8390  175.1350  144.6880 C   0  0  2  0  0  3  0  0  0  0  0  0
  191.2580  174.4630  143.9760 C   0  0  0  0  0  2  0  0  0  0  0  0
  190.1470  171.7670  143.5790 C   0  0  0  0  0  3  0  0  0  0  0  0
  192.2010  173.2380  143.8080 C   0  0  2  0  0  3  0  0  0  0  0  0
  189.8230  174.0600  144.2930 C   0  0  1  0  0  0  0  0  0  0  0  0
  191.5630  171.8620  144.1090 C   0  0  2  0  0  3  0  0  0  0  0  0
  189.2540  175.7060  146.0310 C   0  0  2  0  0  3  0  0  0  0  0  0
  189.4490  174.2320  145.7460 C   0  0  1  0  0  3  0  0  0  0  0  0
  189.3070  172.8000  143.6840 C   0  0  0  0  0  3  0  0  0  0  0  0
  194.5360  174.5300  144.0820 C   0  0  2  0  0  0  0  0  0  0  0  0
  194.5150  173.2050  143.3480 C   0  0  2  0  0  3  0  0  0  0  0  0
  193.5500  174.7110  145.1420 N   0  0  0  0  0  2  0  0  0  0  0  0
  195.9000  174.7750  144.7880 C   0  0  1  0  0  3  0  0  0  0  0  0
  193.5700  173.3940  144.5030 C   0  0  2  0  0  0  0  0  0  0  0  0
  196.4670  172.3250  144.6340 C   0  0  0  0  0  0  0  0  0  0  0  0
  196.5830  173.5830  145.2710 N   0  0  0  0  0  2  0  0  0  0  0  0
  195.5190  172.1430  143.7190 C   0  0  0  0  0  3  0  0  0  0  0  0
  196.8270  175.6460  144.0440 N   0  0  0  0  0  0  0  0  0  0  0  0
  196.0520  176.4780  143.1310 C   0  0  0  0  0  2  0  0  0  0  0  0
  197.7620  174.8750  143.2350 C   0  0  0  0  0  2  0  0  0  0  0  0
  197.9390  175.6100  141.9290 C   0  0  0  0  0  2  0  0  0  0  0  0
  196.6690  176.3930  141.7530 C   0  0  0  0  0  2  0  0  0  0  0  0
  197.4320  171.2360  144.9860 C   0  0  0  0  0  3  0  0  0  0  0  0
  197.8390  170.4470  143.7570 C   0  0  0  0  0  1  0  0  0  0  0  0
  196.8910  170.2990  146.0560 C   0  0  0  0  0  1  0  0  0  0  0  0
  188.0340  175.9090  146.9070 C   0  0  0  0  0  2  0  0  0  0  0  0
  186.3430  177.4090  147.5470 C   0  0  0  0  0  2  0  0  0  0  0  0
  187.3550  177.1370  146.5290 N   0  0  0  0  0  0  0  0  0  0  0  0
  186.2270  179.4000  145.2790 O   0  0  0  0  0  0  0  0  0  0  0  0
  186.6240  176.8680  145.2870 C   0  0  1  0  0  3  0  0  0  0  0  0
  185.4240  179.3980  146.4390 C   0  0  0  0  0  2  0  0  0  0  0  0
  185.1630  177.2510  145.5110 C   0  0  2  0  0  3  0  0  0  0  0  0
  186.0380  178.1430  144.6680 C   0  0  1  0  0  0  0  0  0  0  0  0
  185.1340  177.9600  146.8230 C   0  0  1  0  0  3  0  0  0  0  0  0
  184.3800  178.0960  142.8900 C   0  0  0  0  0  3  0  0  0  0  0  0
  184.0190  178.0680  141.5450 C   0  0  0  0  0  0  0  0  0  0  0  0
  184.9870  178.0570  140.5940 N   0  0  0  0  0  0  0  0  0  0  0  0
  186.3010  178.0700  140.9320 C   0  0  0  0  0  3  0  0  0  0  0  0
  187.8890  178.0820  142.5840 O   0  0  0  0  0  0  0  0  0  0  0  0
  182.3300  178.0350  141.0880 Cl  0  0  0  0  0  0  0  0  0  0  0  0
  185.6960  178.1330  143.2440 N   0  0  0  0  0  0  0  0  0  0  0  0
  186.6670  178.1030  142.2770 C   0  0  0  0  0  0  0  0  0  0  0  0
  192.4290  170.7440  143.5270 C   0  0  0  0  0  2  0  0  0  0  0  0
  191.9510  170.3130  142.1510 C   0  0  0  0  0  2  0  0  0  0  0  0
  192.9530  170.7550  141.1020 C   0  0  0  0  0  2  0  0  0  0  0  0
  193.0200  172.2340  139.2420 O   0  0  0  0  0  0  0  0  0  0  0  0
  190.9840  172.1600  140.3840 N   0  0  0  0  0  2  0  0  0  0  0  0
  192.3390  171.7550  140.1890 C   0  0  0  0  0  0  0  0  0  0  0  0
  188.9080  172.8990  139.6540 C   0  0  2  0  0  0  0  0  0  0  0  0
  189.6920  172.2930  138.5180 C   0  0  2  0  0  3  0  0  0  0  0  0
  188.0900  173.8690  138.9940 O   0  0  0  0  0  0  0  0  0  0  0  0
  190.3810  173.0730  139.5120 N   0  0  0  0  0  0  0  0  0  0  0  0
  188.5960  174.2650  140.2070 C   0  0  0  0  0  2  0  0  0  0  0  0
  189.7500  173.0440  137.1800 C   0  0  0  0  0  2  0  0  0  0  0  0
  189.9230  170.8130  136.5060 C   0  0  0  0  0  1  0  0  0  0  0  0
  189.4760  172.1300  136.0860 N   0  0  0  0  0  2  0  0  0  0  0  0
  1  8  1  0  0  0  0
  1  7  1  0  0  0  0
  2  5  1  0  0  0  0
  3  9  2  0  0  0  0
  3  6  1  0  0  0  0
  4  2  1  0  0  0  0
  4  6  1  0  0  0  0
  4 14  1  0  0  0  0
  5  1  1  0  0  0  0
  5  8  1  0  0  0  0
  7 26  1  0  0  0  0
  8  7  1  0  0  0  0
  9  5  1  0  0  0  0
 10 14  1  0  0  0  0
 10 13  1  0  0  0  0
 10 12  1  0  0  0  0
 11 17  1  0  0  0  0
 11 10  1  0  0  0  0
 11 14  1  0  0  0  0
 13 16  1  0  0  0  0
 14 12  1  0  0  0  0
 15 23  1  0  0  0  0
 15 16  1  0  0  0  0
 17 15  2  0  0  0  0
 18 13  1  0  0  0  0
 19 18  1  0  0  0  0
 20 18  1  0  0  0  0
 21 20  1  0  0  0  0
 22 21  1  0  0  0  0
 22 19  1  0  0  0  0
 23 25  1  0  0  0  0
 24 23  1  0  0  0  0
 28 26  1  0  0  0  0
 28 27  1  0  0  0  0
 29 31  1  0  0  0  0
 30 32  1  0  0  0  0
 30 28  1  0  0  0  0
 31 34  1  0  0  0  0
 32 34  1  0  0  0  0
 33 29  1  0  0  0  0
 33 30  1  0  0  0  0
 33 32  1  0  0  0  0
 34 27  1  0  0  0  0
 35 41  1  0  0  0  0
 36 35  2  0  0  0  0
 37 38  2  0  0  0  0
 37 36  1  0  0  0  0
 38 42  1  0  0  0  0
 40 36  1  0  0  0  0
 41 33  1  0  0  0  0
 42 39  2  0  0  0  0
 42 41  1  0  0  0  0
 43  6  1  0  0  0  0
 44 43  1  0  0  0  0
 45 44  1  0  0  0  0
 46 48  2  0  0  0  0
 48 47  1  0  0  0  0
 48 45  1  0  0  0  0
 49 53  1  0  0  0  0
 50 52  1  0  0  0  0
 50 49  1  0  0  0  0
 51 49  1  0  0  0  0
 51 53  1  0  0  0  0
 52 49  1  0  0  0  0
 52 47  1  0  0  0  0
 54 50  1  0  0  0  0
 56 55  1  0  0  0  0
 56 54  1  0  0  0  0
M  END
>  <MODEL>
2

>  <REMARK>
 VINA RESULT:      -8.4      2.557      9.331
  Name = 
  13 active torsions:
  status: ('A' for Active; 'I' for Inactive)
    1  A    between atoms: C_4  and  C_25
    2  A    between atoms: N_6  and  C_13
    3  A    between atoms: N_7  and  C_8
    4  A    between atoms: C_8  and  C_53
    5  A    between atoms: C_19  and  C_27
    6  A    between atoms: C_26  and  C_45
    7  A    between atoms: C_35  and  N_43
    8  A    between atoms: N_36  and  N_38
    9  A    between atoms: C_37  and  C_42
   10  A    between atoms: C_37  and  C_51
   11  A    between atoms: C_42  and  C_52
   12  A    between atoms: C_45  and  N_47
   13  A    between atoms: C_48  and  C_52
                            x       y       z     vdW  Elec       q    Type
                         _______ _______ _______ _____ _____    ______ ____

>  <TORSDO>
F 13

$$$$
=
 OpenBabel11042419533D

 56 68  0  0  1  0  0  0  0  0999 V2000
  188.9940  174.3540  144.8320 C   0  0  2  0  0  3  0  0  0  0  0  0
  189.3910  173.0870  142.5860 C   0  0  0  0  0  2  0  0  0  0  0  0
  191.5110  171.6500  144.0350 C   0  0  0  0  0  3  0  0  0  0  0  0
  190.4440  172.2450  141.8110 C   0  0  2  0  0  3  0  0  0  0  0  0
  189.8110  173.3770  144.0210 C   0  0  1  0  0  0  0  0  0  0  0  0
  191.7600  171.9630  142.5740 C   0  0  2  0  0  3  0  0  0  0  0  0
  189.1500  175.7380  144.2290 C   0  0  2  0  0  3  0  0  0  0  0  0
  190.3240  174.7820  144.2340 C   0  0  1  0  0  3  0  0  0  0  0  0
  190.6030  172.3340  144.7360 C   0  0  0  0  0  3  0  0  0  0  0  0
  189.5610  173.3110  139.5140 C   0  0  2  0  0  0  0  0  0  0  0  0
  189.8300  171.8220  139.5730 C   0  0  2  0  0  3  0  0  0  0  0  0
  190.3820  174.1630  140.3670 N   0  0  0  0  0  2  0  0  0  0  0  0
  189.7840  173.8800  138.0850 C   0  0  1  0  0  3  0  0  0  0  0  0
  190.7150  172.7370  140.3740 C   0  0  2  0  0  0  0  0  0  0  0  0
  191.1340  171.8520  137.4430 C   0  0  0  0  0  0  0  0  0  0  0  0
  190.8210  173.2240  137.2990 N   0  0  0  0  0  2  0  0  0  0  0  0
  190.6590  171.1810  138.4890 C   0  0  0  0  0  3  0  0  0  0  0  0
  188.5530  174.0480  137.2920 N   0  0  0  0  0  0  0  0  0  0  0  0
  188.9100  174.5940  135.9880 C   0  0  0  0  0  2  0  0  0  0  0  0
  187.6320  174.9900  137.9160 C   0  0  0  0  0  2  0  0  0  0  0  0
  187.0120  175.8110  136.8120 C   0  0  0  0  0  2  0  0  0  0  0  0
  188.0210  175.7830  135.6990 C   0  0  0  0  0  2  0  0  0  0  0  0
  191.9700  171.1800  136.3990 C   0  0  0  0  0  3  0  0  0  0  0  0
  191.2520  171.1400  135.0640 C   0  0  0  0  0  1  0  0  0  0  0  0
  192.3990  169.7780  136.8070 C   0  0  0  0  0  1  0  0  0  0  0  0
  189.3130  176.7680  145.3290 C   0  0  0  0  0  2  0  0  0  0  0  0
  187.4410  177.4480  146.5730 C   0  0  0  0  0  2  0  0  0  0  0  0
  188.1750  177.6710  145.3310 N   0  0  0  0  0  0  0  0  0  0  0  0
  186.0410  179.4310  144.7760 O   0  0  0  0  0  0  0  0  0  0  0  0
  187.2830  177.2510  144.2470 C   0  0  1  0  0  3  0  0  0  0  0  0
  185.6290  179.0220  146.0620 C   0  0  0  0  0  2  0  0  0  0  0  0
  185.8950  177.0260  144.8430 C   0  0  2  0  0  3  0  0  0  0  0  0
  186.1470  178.2530  144.0050 C   0  0  1  0  0  0  0  0  0  0  0  0
  185.9700  177.5550  146.2360 C   0  0  1  0  0  3  0  0  0  0  0  0
  184.1020  178.1980  142.6910 C   0  0  0  0  0  3  0  0  0  0  0  0
  183.4210  178.1620  141.4760 C   0  0  0  0  0  0  0  0  0  0  0  0
  184.1260  178.1470  140.3160 N   0  0  0  0  0  0  0  0  0  0  0  0
  185.4830  178.1620  140.3190 C   0  0  0  0  0  3  0  0  0  0  0  0
  187.4280  178.1830  141.5300 O   0  0  0  0  0  0  0  0  0  0  0  0
  181.6720  178.1270  141.4490 Cl  0  0  0  0  0  0  0  0  0  0  0  0
  185.4660  178.2360  142.7090 N   0  0  0  0  0  0  0  0  0  0  0  0
  186.1680  178.2010  141.5330 C   0  0  0  0  0  0  0  0  0  0  0  0
  192.5190  170.8180  141.9030 C   0  0  0  0  0  2  0  0  0  0  0  0
  194.0100  171.0940  141.8220 C   0  0  0  0  0  2  0  0  0  0  0  0
  194.3130  171.8860  140.5640 C   0  0  0  0  0  2  0  0  0  0  0  0
  193.9840  174.1680  139.9850 O   0  0  0  0  0  0  0  0  0  0  0  0
  194.7810  173.7940  142.1480 N   0  0  0  0  0  2  0  0  0  0  0  0
  194.3470  173.3420  140.8650 C   0  0  0  0  0  0  0  0  0  0  0  0
  196.0100  175.4150  143.2660 C   0  0  2  0  0  0  0  0  0  0  0  0
  194.6460  175.2510  143.8880 C   0  0  2  0  0  3  0  0  0  0  0  0
  196.3170  176.7870  143.5300 O   0  0  0  0  0  0  0  0  0  0  0  0
  194.7840  175.1580  142.4580 N   0  0  0  0  0  0  0  0  0  0  0  0
  196.7030  176.3330  142.2930 C   0  0  0  0  0  2  0  0  0  0  0  0
  193.8330  176.5100  144.2200 C   0  0  0  0  0  2  0  0  0  0  0  0
  194.3220  176.2510  146.4910 C   0  0  0  0  0  1  0  0  0  0  0  0
  193.2340  176.3810  145.5360 N   0  0  0  0  0  2  0  0  0  0  0  0
  2  5  1  0  0  0  0
  3  9  2  0  0  0  0
  4  6  1  0  0  0  0
  4  2  1  0  0  0  0
  5  8  1  0  0  0  0
  5  9  1  0  0  0  0
  5  1  1  0  0  0  0
  6  3  1  0  0  0  0
  7  8  1  0  0  0  0
  7  1  1  0  0  0  0
  7 26  1  0  0  0  0
  8  1  1  0  0  0  0
 10 11  1  0  0  0  0
 10 12  1  0  0  0  0
 10 14  1  0  0  0  0
 11 14  1  0  0  0  0
 12 14  1  0  0  0  0
 13 10  1  0  0  0  0
 14  4  1  0  0  0  0
 15 17  2  0  0  0  0
 16 15  1  0  0  0  0
 16 13  1  0  0  0  0
 17 11  1  0  0  0  0
 18 20  1  0  0  0  0
 18 13  1  0  0  0  0
 19 18  1  0  0  0  0
 21 20  1  0  0  0  0
 22 19  1  0  0  0  0
 22 21  1  0  0  0  0
 23 25  1  0  0  0  0
 23 15  1  0  0  0  0
 24 23  1  0  0  0  0
 26 28  1  0  0  0  0
 28 27  1  0  0  0  0
 29 31  1  0  0  0  0
 30 32  1  0  0  0  0
 30 28  1  0  0  0  0
 31 34  1  0  0  0  0
 32 34  1  0  0  0  0
 33 30  1  0  0  0  0
 33 29  1  0  0  0  0
 33 32  1  0  0  0  0
 34 27  1  0  0  0  0
 35 41  1  0  0  0  0
 36 35  2  0  0  0  0
 37 38  2  0  0  0  0
 37 36  1  0  0  0  0
 38 42  1  0  0  0  0
 39 42  2  0  0  0  0
 40 36  1  0  0  0  0
 41 33  1  0  0  0  0
 42 41  1  0  0  0  0
 43  6  1  0  0  0  0
 44 43  1  0  0  0  0
 45 48  1  0  0  0  0
 45 44  1  0  0  0  0
 46 48  2  0  0  0  0
 47 52  1  0  0  0  0
 48 47  1  0  0  0  0
 49 51  1  0  0  0  0
 49 50  1  0  0  0  0
 50 54  1  0  0  0  0
 52 49  1  0  0  0  0
 52 50  1  0  0  0  0
 53 49  1  0  0  0  0
 53 51  1  0  0  0  0
 54 56  1  0  0  0  0
 56 55  1  0  0  0  0
M  END
>  <MODEL>
3

>  <REMARK>
 VINA RESULT:      -8.3      2.521      7.737
  Name = 
  13 active torsions:
  status: ('A' for Active; 'I' for Inactive)
    1  A    between atoms: C_4  and  C_25
    2  A    between atoms: N_6  and  C_13
    3  A    between atoms: N_7  and  C_8
    4  A    between atoms: C_8  and  C_53
    5  A    between atoms: C_19  and  C_27
    6  A    between atoms: C_26  and  C_45
    7  A    between atoms: C_35  and  N_43
    8  A    between atoms: N_36  and  N_38
    9  A    between atoms: C_37  and  C_42
   10  A    between atoms: C_37  and  C_51
   11  A    between atoms: C_42  and  C_52
   12  A    between atoms: C_45  and  N_47
   13  A    between atoms: C_48  and  C_52
                            x       y       z     vdW  Elec       q    Type
                         _______ _______ _______ _____ _____    ______ ____

>  <TORSDO>
F 13

$$$$
=
 OpenBabel11042419533D

 56 68  0  0  1  0  0  0  0  0999 V2000
  189.7300  175.7550  147.3580 C   0  0  2  0  0  3  0  0  0  0  0  0
  190.7580  174.4340  145.3550 C   0  0  0  0  0  2  0  0  0  0  0  0
  193.3590  175.3530  146.3810 C   0  0  0  0  0  3  0  0  0  0  0  0
  192.0370  174.3170  144.4790 C   0  0  2  0  0  3  0  0  0  0  0  0
  190.9410  175.3770  146.5380 C   0  0  1  0  0  0  0  0  0  0  0  0
  193.2030  175.2520  144.8770 C   0  0  2  0  0  3  0  0  0  0  0  0
  188.8010  176.5900  146.4990 C   0  0  2  0  0  3  0  0  0  0  0  0
  190.3000  176.7310  146.3430 C   0  0  1  0  0  3  0  0  0  0  0  0
  192.2890  175.4370  147.1750 C   0  0  0  0  0  3  0  0  0  0  0  0
  190.9140  173.2560  142.2870 C   0  0  2  0  0  0  0  0  0  0  0  0
  192.4000  173.0700  142.5100 C   0  0  2  0  0  3  0  0  0  0  0  0
  190.3170  174.4800  142.8100 N   0  0  0  0  0  2  0  0  0  0  0  0
  190.5570  173.2790  140.7730 C   0  0  1  0  0  3  0  0  0  0  0  0
  191.7690  174.3590  142.9600 C   0  0  2  0  0  0  0  0  0  0  0  0
  192.9580  173.7520  140.1720 C   0  0  0  0  0  0  0  0  0  0  0  0
  191.5730  173.8410  139.8940 N   0  0  0  0  0  2  0  0  0  0  0  0
  193.3560  173.3720  141.3840 C   0  0  0  0  0  3  0  0  0  0  0  0
  190.0540  171.9990  140.2420 N   0  0  0  0  0  0  0  0  0  0  0  0
  190.2870  170.9600  141.2380 C   0  0  0  0  0  2  0  0  0  0  0  0
  190.7590  171.6020  139.0310 C   0  0  0  0  0  2  0  0  0  0  0  0
  190.9610  170.1070  139.0970 C   0  0  0  0  0  2  0  0  0  0  0  0
  190.9600  169.7840  140.5640 C   0  0  0  0  0  2  0  0  0  0  0  0
  193.9420  174.0610  139.0890 C   0  0  0  0  0  3  0  0  0  0  0  0
  194.3990  172.7980  138.3860 C   0  0  0  0  0  1  0  0  0  0  0  0
  195.1450  174.8430  139.5960 C   0  0  0  0  0  1  0  0  0  0  0  0
  188.2500  177.7500  147.3050 C   0  0  0  0  0  2  0  0  0  0  0  0
  185.9210  177.5240  147.5120 C   0  0  0  0  0  2  0  0  0  0  0  0
  186.9790  178.1780  146.7470 N   0  0  0  0  0  0  0  0  0  0  0  0
  184.8170  179.1280  145.2040 O   0  0  0  0  0  0  0  0  0  0  0  0
  186.8950  177.6380  145.3870 C   0  0  1  0  0  3  0  0  0  0  0  0
  184.0720  178.4100  146.1640 C   0  0  0  0  0  2  0  0  0  0  0  0
  185.5930  176.8480  145.2770 C   0  0  2  0  0  3  0  0  0  0  0  0
  185.6950  178.1960  144.6110 C   0  0  1  0  0  0  0  0  0  0  0  0
  184.8370  177.1520  146.5270 C   0  0  1  0  0  3  0  0  0  0  0  0
  184.5330  178.1060  142.4780 C   0  0  0  0  0  3  0  0  0  0  0  0
  184.5190  178.0290  141.0870 C   0  0  0  0  0  0  0  0  0  0  0  0
  185.6940  177.9630  140.4100 N   0  0  0  0  0  0  0  0  0  0  0  0
  186.8820  177.9680  141.0660 C   0  0  0  0  0  3  0  0  0  0  0  0
  188.0060  178.0200  143.0620 O   0  0  0  0  0  0  0  0  0  0  0  0
  182.9990  178.0070  140.2220 Cl  0  0  0  0  0  0  0  0  0  0  0  0
  185.7200  178.1340  143.1490 N   0  0  0  0  0  0  0  0  0  0  0  0
  186.9010  178.0490  142.4580 C   0  0  0  0  0  0  0  0  0  0  0  0
  194.5040  174.7690  144.2350 C   0  0  0  0  0  2  0  0  0  0  0  0
  195.4700  174.2060  145.2630 C   0  0  0  0  0  2  0  0  0  0  0  0
  196.6030  173.4860  144.5550 C   0  0  0  0  0  2  0  0  0  0  0  0
  197.5450  171.4590  145.3640 O   0  0  0  0  0  0  0  0  0  0  0  0
  195.3680  171.2850  144.5360 N   0  0  0  0  0  2  0  0  0  0  0  0
  196.5480  172.0280  144.8430 C   0  0  0  0  0  0  0  0  0  0  0  0
  193.8400  169.5780  144.9100 C   0  0  2  0  0  0  0  0  0  0  0  0
  194.6840  169.8220  146.1360 C   0  0  2  0  0  3  0  0  0  0  0  0
  193.5240  168.1870  145.0130 O   0  0  0  0  0  0  0  0  0  0  0  0
  195.2890  169.9200  144.8340 N   0  0  0  0  0  0  0  0  0  0  0  0
  193.7970  168.6270  143.7430 C   0  0  0  0  0  2  0  0  0  0  0  0
  195.2880  168.6140  146.8670 C   0  0  0  0  0  2  0  0  0  0  0  0
  197.5720  168.1660  147.0820 C   0  0  0  0  0  1  0  0  0  0  0  0
  196.4950  169.0120  147.5680 N   0  0  0  0  0  2  0  0  0  0  0  0
  2  5  1  0  0  0  0
  3  9  2  0  0  0  0
  4  6  1  0  0  0  0
  4  2  1  0  0  0  0
  5  9  1  0  0  0  0
  5  1  1  0  0  0  0
  6  3  1  0  0  0  0
  7 26  1  0  0  0  0
  7  1  1  0  0  0  0
  8  7  1  0  0  0  0
  8  5  1  0  0  0  0
  8  1  1  0  0  0  0
 10 11  1  0  0  0  0
 10 12  1  0  0  0  0
 10 14  1  0  0  0  0
 11 14  1  0  0  0  0
 12 14  1  0  0  0  0
 13 10  1  0  0  0  0
 14  4  1  0  0  0  0
 15 17  2  0  0  0  0
 16 15  1  0  0  0  0
 16 13  1  0  0  0  0
 17 11  1  0  0  0  0
 18 13  1  0  0  0  0
 18 19  1  0  0  0  0
 20 21  1  0  0  0  0
 20 18  1  0  0  0  0
 21 22  1  0  0  0  0
 22 19  1  0  0  0  0
 23 25  1  0  0  0  0
 23 15  1  0  0  0  0
 24 23  1  0  0  0  0
 28 26  1  0  0  0  0
 28 27  1  0  0  0  0
 29 31  1  0  0  0  0
 30 28  1  0  0  0  0
 31 34  1  0  0  0  0
 32 30  1  0  0  0  0
 32 34  1  0  0  0  0
 33 29  1  0  0  0  0
 33 32  1  0  0  0  0
 33 30  1  0  0  0  0
 34 27  1  0  0  0  0
 35 41  1  0  0  0  0
 36 35  2  0  0  0  0
 37 38  2  0  0  0  0
 37 36  1  0  0  0  0
 38 42  1  0  0  0  0
 40 36  1  0  0  0  0
 41 33  1  0  0  0  0
 42 39  2  0  0  0  0
 42 41  1  0  0  0  0
 43  6  1  0  0  0  0
 43 44  1  0  0  0  0
 45 48  1  0  0  0  0
 45 44  1  0  0  0  0
 47 52  1  0  0  0  0
 47 48  1  0  0  0  0
 48 46  2  0  0  0  0
 49 51  1  0  0  0  0
 49 50  1  0  0  0  0
 50 54  1  0  0  0  0
 52 49  1  0  0  0  0
 52 50  1  0  0  0  0
 53 49  1  0  0  0  0
 53 51  1  0  0  0  0
 54 56  1  0  0  0  0
 55 56  1  0  0  0  0
M  END
>  <MODEL>
4

>  <REMARK>
 VINA RESULT:      -8.2      3.216      8.049
  Name = 
  13 active torsions:
  status: ('A' for Active; 'I' for Inactive)
    1  A    between atoms: C_4  and  C_25
    2  A    between atoms: N_6  and  C_13
    3  A    between atoms: N_7  and  C_8
    4  A    between atoms: C_8  and  C_53
    5  A    between atoms: C_19  and  C_27
    6  A    between atoms: C_26  and  C_45
    7  A    between atoms: C_35  and  N_43
    8  A    between atoms: N_36  and  N_38
    9  A    between atoms: C_37  and  C_42
   10  A    between atoms: C_37  and  C_51
   11  A    between atoms: C_42  and  C_52
   12  A    between atoms: C_45  and  N_47
   13  A    between atoms: C_48  and  C_52
                            x       y       z     vdW  Elec       q    Type
                         _______ _______ _______ _____ _____    ______ ____

>  <TORSDO>
F 13

$$$$
=
 OpenBabel11042419533D

 56 68  0  0  1  0  0  0  0  0999 V2000
  188.9520  174.6950  143.8750 C   0  0  2  0  0  3  0  0  0  0  0  0
  191.2080  174.0680  142.7220 C   0  0  0  0  0  2  0  0  0  0  0  0
  190.1150  171.3390  142.5860 C   0  0  0  0  0  3  0  0  0  0  0  0
  192.1350  172.8630  142.3940 C   0  0  2  0  0  3  0  0  0  0  0  0
  189.8720  173.6370  143.3140 C   0  0  1  0  0  0  0  0  0  0  0  0
  191.6040  171.4780  142.8330 C   0  0  2  0  0  3  0  0  0  0  0  0
  189.6000  175.3020  145.1050 C   0  0  2  0  0  3  0  0  0  0  0  0
  189.7770  173.8280  144.8090 C   0  0  1  0  0  3  0  0  0  0  0  0
  189.2830  172.3530  142.8350 C   0  0  0  0  0  3  0  0  0  0  0  0
  193.9660  174.0440  143.9580 C   0  0  2  0  0  0  0  0  0  0  0  0
  193.7970  174.5310  142.5330 C   0  0  2  0  0  3  0  0  0  0  0  0
  193.6920  172.6340  144.2090 N   0  0  0  0  0  2  0  0  0  0  0  0
  195.4230  174.2420  144.4650 C   0  0  1  0  0  3  0  0  0  0  0  0
  193.6060  173.0650  142.8120 C   0  0  2  0  0  0  0  0  0  0  0  0
  196.2560  174.4870  142.1000 C   0  0  0  0  0  0  0  0  0  0  0  0
  196.4640  174.1280  143.4530 N   0  0  0  0  0  2  0  0  0  0  0  0
  195.0170  174.6980  141.6640 C   0  0  0  0  0  3  0  0  0  0  0  0
  195.6260  175.4450  145.2920 N   0  0  0  0  0  0  0  0  0  0  0  0
  194.7320  175.3740  146.4420 C   0  0  0  0  0  2  0  0  0  0  0  0
  195.2960  176.6640  144.5650 C   0  0  0  0  0  2  0  0  0  0  0  0
  194.6030  177.5920  145.5320 C   0  0  0  0  0  2  0  0  0  0  0  0
  193.9870  176.6850  146.5600 C   0  0  0  0  0  2  0  0  0  0  0  0
  197.4390  174.6460  141.1970 C   0  0  0  0  0  3  0  0  0  0  0  0
  197.1370  175.6050  140.0610 C   0  0  0  0  0  1  0  0  0  0  0  0
  197.9360  173.3180  140.6440 C   0  0  0  0  0  1  0  0  0  0  0  0
  188.5650  175.4930  146.1950 C   0  0  0  0  0  2  0  0  0  0  0  0
  186.9570  176.9330  147.1230 C   0  0  0  0  0  2  0  0  0  0  0  0
  187.8500  176.7400  145.9830 N   0  0  0  0  0  0  0  0  0  0  0  0
  186.5930  179.0780  145.0280 O   0  0  0  0  0  0  0  0  0  0  0  0
  186.9860  176.5540  144.8140 C   0  0  1  0  0  3  0  0  0  0  0  0
  185.9240  178.9880  146.2670 C   0  0  0  0  0  2  0  0  0  0  0  0
  185.5590  176.9100  145.2240 C   0  0  2  0  0  3  0  0  0  0  0  0
  186.3350  177.8650  144.3540 C   0  0  1  0  0  0  0  0  0  0  0  0
  185.6760  177.5250  146.5780 C   0  0  1  0  0  3  0  0  0  0  0  0
  184.4900  177.9840  142.7760 C   0  0  0  0  0  3  0  0  0  0  0  0
  183.9810  178.0490  141.4810 C   0  0  0  0  0  0  0  0  0  0  0  0
  184.8370  178.0620  140.4280 N   0  0  0  0  0  0  0  0  0  0  0  0
  186.1800  178.0100  140.6140 C   0  0  0  0  0  3  0  0  0  0  0  0
  187.9400  177.8670  142.0740 O   0  0  0  0  0  0  0  0  0  0  0  0
  182.2530  178.1020  141.2160 Cl  0  0  0  0  0  0  0  0  0  0  0  0
  185.8380  177.9530  142.9800 N   0  0  0  0  0  0  0  0  0  0  0  0
  186.6940  177.9480  141.9090 C   0  0  0  0  0  0  0  0  0  0  0  0
  192.3720  170.3700  142.1120 C   0  0  0  0  0  2  0  0  0  0  0  0
  191.5130  169.6610  141.0800 C   0  0  0  0  0  2  0  0  0  0  0  0
  192.2960  169.5030  139.7890 C   0  0  0  0  0  2  0  0  0  0  0  0
  191.6950  169.8770  137.5200 O   0  0  0  0  0  0  0  0  0  0  0  0
  191.0440  171.5520  139.0110 N   0  0  0  0  0  2  0  0  0  0  0  0
  191.6720  170.3070  138.7050 C   0  0  0  0  0  0  0  0  0  0  0  0
  191.1820  173.5780  137.8860 C   0  0  2  0  0  0  0  0  0  0  0  0
  189.8850  173.4730  138.6480 C   0  0  2  0  0  3  0  0  0  0  0  0
  190.8350  174.4170  136.7810 O   0  0  0  0  0  0  0  0  0  0  0  0
  190.4210  172.3020  138.0070 N   0  0  0  0  0  0  0  0  0  0  0  0
  191.6820  173.3800  136.4780 C   0  0  0  0  0  2  0  0  0  0  0  0
  188.5810  173.8650  137.9380 C   0  0  0  0  0  2  0  0  0  0  0  0
  188.3060  174.6840  140.1100 C   0  0  0  0  0  1  0  0  0  0  0  0
  187.8530  174.8330  138.7370 N   0  0  0  0  0  2  0  0  0  0  0  0
  1  8  1  0  0  0  0
  1  7  1  0  0  0  0
  2  5  1  0  0  0  0
  3  6  1  0  0  0  0
  3  9  2  0  0  0  0
  4  2  1  0  0  0  0
  4 14  1  0  0  0  0
  4  6  1  0  0  0  0
  5  1  1  0  0  0  0
  5  8  1  0  0  0  0
  7 26  1  0  0  0  0
  8  7  1  0  0  0  0
  9  5  1  0  0  0  0
 10 12  1  0  0  0  0
 10 13  1  0  0  0  0
 11 14  1  0  0  0  0
 11 10  1  0  0  0  0
 13 18  1  0  0  0  0
 14 10  1  0  0  0  0
 14 12  1  0  0  0  0
 15 16  1  0  0  0  0
 16 13  1  0  0  0  0
 17 15  2  0  0  0  0
 17 11  1  0  0  0  0
 18 19  1  0  0  0  0
 19 22  1  0  0  0  0
 20 18  1  0  0  0  0
 20 21  1  0  0  0  0
 21 22  1  0  0  0  0
 23 15  1  0  0  0  0
 24 23  1  0  0  0  0
 25 23  1  0  0  0  0
 28 26  1  0  0  0  0
 28 27  1  0  0  0  0
 29 31  1  0  0  0  0
 30 32  1  0  0  0  0
 30 28  1  0  0  0  0
 31 34  1  0  0  0  0
 32 34  1  0  0  0  0
 33 30  1  0  0  0  0
 33 29  1  0  0  0  0
 33 32  1  0  0  0  0
 34 27  1  0  0  0  0
 35 41  1  0  0  0  0
 36 35  2  0  0  0  0
 37 38  2  0  0  0  0
 37 36  1  0  0  0  0
 38 42  1  0  0  0  0
 40 36  1  0  0  0  0
 41 33  1  0  0  0  0
 42 39  2  0  0  0  0
 42 41  1  0  0  0  0
 43  6  1  0  0  0  0
 44 43  1  0  0  0  0
 45 44  1  0  0  0  0
 46 48  2  0  0  0  0
 48 47  1  0  0  0  0
 48 45  1  0  0  0  0
 49 52  1  0  0  0  0
 49 50  1  0  0  0  0
 51 49  1  0  0  0  0
 52 50  1  0  0  0  0
 52 47  1  0  0  0  0
 53 51  1  0  0  0  0
 53 49  1  0  0  0  0
 54 50  1  0  0  0  0
 54 56  1  0  0  0  0
 56 55  1  0  0  0  0
M  END
>  <MODEL>
5

>  <REMARK>
 VINA RESULT:      -8.2      2.522      9.116
  Name = 
  13 active torsions:
  status: ('A' for Active; 'I' for Inactive)
    1  A    between atoms: C_4  and  C_25
    2  A    between atoms: N_6  and  C_13
    3  A    between atoms: N_7  and  C_8
    4  A    between atoms: C_8  and  C_53
    5  A    between atoms: C_19  and  C_27
    6  A    between atoms: C_26  and  C_45
    7  A    between atoms: C_35  and  N_43
    8  A    between atoms: N_36  and  N_38
    9  A    between atoms: C_37  and  C_42
   10  A    between atoms: C_37  and  C_51
   11  A    between atoms: C_42  and  C_52
   12  A    between atoms: C_45  and  N_47
   13  A    between atoms: C_48  and  C_52
                            x       y       z     vdW  Elec       q    Type
                         _______ _______ _______ _____ _____    ______ ____

>  <TORSDO>
F 13

$$$$
=
 OpenBabel11042419533D

 56 68  0  0  1  0  0  0  0  0999 V2000
  195.8930  175.3210  139.2530 C   0  0  2  0  0  3  0  0  0  0  0  0
  194.5300  176.1300  141.3260 C   0  0  0  0  0  2  0  0  0  0  0  0
  196.9200  175.4200  142.8880 C   0  0  0  0  0  3  0  0  0  0  0  0
  194.4550  176.0200  142.8760 C   0  0  2  0  0  3  0  0  0  0  0  0
  195.7810  175.4780  140.7510 C   0  0  1  0  0  0  0  0  0  0  0  0
  195.5720  175.1780  143.5360 C   0  0  2  0  0  3  0  0  0  0  0  0
  194.8440  174.3300  138.7870 C   0  0  2  0  0  3  0  0  0  0  0  0
  195.5310  174.1290  140.1210 C   0  0  1  0  0  3  0  0  0  0  0  0
  197.0310  175.5400  141.5630 C   0  0  0  0  0  3  0  0  0  0  0  0
  191.8230  176.4970  143.0610 C   0  0  2  0  0  0  0  0  0  0  0  0
  192.7150  176.8520  144.2330 C   0  0  2  0  0  3  0  0  0  0  0  0
  192.2340  175.3640  142.2390 N   0  0  0  0  0  2  0  0  0  0  0  0
  190.3850  176.1270  143.5230 C   0  0  1  0  0  3  0  0  0  0  0  0
  193.0620  175.6370  143.4160 C   0  0  2  0  0  0  0  0  0  0  0  0
  191.1960  175.7440  145.8780 C   0  0  0  0  0  0  0  0  0  0  0  0
  190.2870  175.4810  144.8250 N   0  0  0  0  0  2  0  0  0  0  0  0
  192.3220  176.4020  145.6170 C   0  0  0  0  0  3  0  0  0  0  0  0
  189.4020  177.2200  143.4050 N   0  0  0  0  0  0  0  0  0  0  0  0
  188.1090  176.7340  143.8720 C   0  0  0  0  0  2  0  0  0  0  0  0
  189.2300  177.6440  142.0220 C   0  0  0  0  0  2  0  0  0  0  0  0
  187.7620  177.9280  141.8180 C   0  0  0  0  0  2  0  0  0  0  0  0
  187.0610  177.0730  142.8360 C   0  0  0  0  0  2  0  0  0  0  0  0
  190.8540  175.2980  147.2650 C   0  0  0  0  0  3  0  0  0  0  0  0
  189.3920  174.9130  147.3720 C   0  0  0  0  0  1  0  0  0  0  0  0
  191.2010  176.3420  148.3160 C   0  0  0  0  0  1  0  0  0  0  0  0
  195.4360  173.3960  137.7510 C   0  0  0  0  0  2  0  0  0  0  0  0
  194.5550  173.1800  135.5840 C   0  0  0  0  0  2  0  0  0  0  0  0
  194.3720  172.7800  136.9770 N   0  0  0  0  0  0  0  0  0  0  0  0
  192.0390  171.5550  135.9710 O   0  0  0  0  0  0  0  0  0  0  0  0
  193.1100  173.3830  137.4130 C   0  0  1  0  0  3  0  0  0  0  0  0
  192.5360  172.0610  134.7510 C   0  0  0  0  0  2  0  0  0  0  0  0
  192.3990  173.9290  136.1770 C   0  0  2  0  0  3  0  0  0  0  0  0
  191.8870  172.6680  136.8250 C   0  0  1  0  0  0  0  0  0  0  0  0
  193.1740  173.4110  135.0120 C   0  0  1  0  0  3  0  0  0  0  0  0
  189.7620  173.8220  137.0740 C   0  0  0  0  0  3  0  0  0  0  0  0
  188.5330  174.0150  137.7000 C   0  0  0  0  0  0  0  0  0  0  0  0
  188.1830  173.2200  138.7430 N   0  0  0  0  0  0  0  0  0  0  0  0
  189.0120  172.2420  139.1880 C   0  0  0  0  0  3  0  0  0  0  0  0
  191.0190  171.1540  138.9990 O   0  0  0  0  0  0  0  0  0  0  0  0
  187.4560  175.2810  137.1530 Cl  0  0  0  0  0  0  0  0  0  0  0  0
  190.5950  172.8280  137.4950 N   0  0  0  0  0  0  0  0  0  0  0  0
  190.2410  172.0420  138.5610 C   0  0  0  0  0  0  0  0  0  0  0  0
  195.6360  175.4760  145.0340 C   0  0  0  0  0  2  0  0  0  0  0  0
  195.2950  174.2570  145.8720 C   0  0  0  0  0  2  0  0  0  0  0  0
  195.7270  172.9990  145.1410 C   0  0  0  0  0  2  0  0  0  0  0  0
  194.4220  171.2010  145.9850 O   0  0  0  0  0  0  0  0  0  0  0  0
  193.7170  172.0670  143.9340 N   0  0  0  0  0  2  0  0  0  0  0  0
  194.5980  172.0360  145.0570 C   0  0  0  0  0  0  0  0  0  0  0  0
  192.9460  170.1990  142.7910 C   0  0  2  0  0  0  0  0  0  0  0  0
  192.0410  171.3830  142.5590 C   0  0  2  0  0  3  0  0  0  0  0  0
  192.0530  169.0880  142.6750 O   0  0  0  0  0  0  0  0  0  0  0  0
  192.6290  171.1900  143.8580 N   0  0  0  0  0  0  0  0  0  0  0  0
  192.9970  168.9720  143.6640 C   0  0  0  0  0  2  0  0  0  0  0  0
  190.5230  171.1820  142.6740 C   0  0  0  0  0  2  0  0  0  0  0  0
  188.9040  172.8680  142.7240 C   0  0  0  0  0  1  0  0  0  0  0  0
  189.9470  172.2250  143.5050 N   0  0  0  0  0  2  0  0  0  0  0  0
  1  8  1  0  0  0  0
  1  5  1  0  0  0  0
  2  4  1  0  0  0  0
  3  6  1  0  0  0  0
  4 14  1  0  0  0  0
  4  6  1  0  0  0  0
  5  2  1  0  0  0  0
  5  9  1  0  0  0  0
  6 43  1  0  0  0  0
  7  1  1  0  0  0  0
  7  8  1  0  0  0  0
  8  5  1  0  0  0  0
  9  3  2  0  0  0  0
 10 14  1  0  0  0  0
 10 13  1  0  0  0  0
 10 11  1  0  0  0  0
 11 17  1  0  0  0  0
 12 10  1  0  0  0  0
 12 14  1  0  0  0  0
 13 16  1  0  0  0  0
 14 11  1  0  0  0  0
 15 23  1  0  0  0  0
 16 15  1  0  0  0  0
 17 15  2  0  0  0  0
 18 13  1  0  0  0  0
 18 19  1  0  0  0  0
 20 18  1  0  0  0  0
 21 20  1  0  0  0  0
 21 22  1  0  0  0  0
 22 19  1  0  0  0  0
 23 24  1  0  0  0  0
 23 25  1  0  0  0  0
 26  7  1  0  0  0  0
 27 28  1  0  0  0  0
 28 30  1  0  0  0  0
 28 26  1  0  0  0  0
 29 33  1  0  0  0  0
 31 34  1  0  0  0  0
 31 29  1  0  0  0  0
 32 33  1  0  0  0  0
 32 30  1  0  0  0  0
 33 30  1  0  0  0  0
 33 41  1  0  0  0  0
 34 27  1  0  0  0  0
 34 32  1  0  0  0  0
 35 41  1  0  0  0  0
 35 36  2  0  0  0  0
 36 37  1  0  0  0  0
 37 38  2  0  0  0  0
 40 36  1  0  0  0  0
 41 42  1  0  0  0  0
 42 39  2  0  0  0  0
 42 38  1  0  0  0  0
 43 44  1  0  0  0  0
 45 44  1  0  0  0  0
 47 48  1  0  0  0  0
 48 45  1  0  0  0  0
 48 46  2  0  0  0  0
 49 53  1  0  0  0  0
 49 52  1  0  0  0  0
 50 54  1  0  0  0  0
 50 49  1  0  0  0  0
 50 52  1  0  0  0  0
 51 49  1  0  0  0  0
 51 53  1  0  0  0  0
 52 47  1  0  0  0  0
 54 56  1  0  0  0  0
 55 56  1  0  0  0  0
M  END
>  <MODEL>
6

>  <REMARK>
 VINA RESULT:      -8.0      2.898      4.945
  Name = 
  13 active torsions:
  status: ('A' for Active; 'I' for Inactive)
    1  A    between atoms: C_4  and  C_25
    2  A    between atoms: N_6  and  C_13
    3  A    between atoms: N_7  and  C_8
    4  A    between atoms: C_8  and  C_53
    5  A    between atoms: C_19  and  C_27
    6  A    between atoms: C_26  and  C_45
    7  A    between atoms: C_35  and  N_43
    8  A    between atoms: N_36  and  N_38
    9  A    between atoms: C_37  and  C_42
   10  A    between atoms: C_37  and  C_51
   11  A    between atoms: C_42  and  C_52
   12  A    between atoms: C_45  and  N_47
   13  A    between atoms: C_48  and  C_52
                            x       y       z     vdW  Elec       q    Type
                         _______ _______ _______ _____ _____    ______ ____

>  <TORSDO>
F 13

$$$$
=
 OpenBabel11042419533D

 56 68  0  0  1  0  0  0  0  0999 V2000
  189.3250  172.6070  140.3510 C   0  0  2  0  0  3  0  0  0  0  0  0
  191.0890  172.6140  142.2750 C   0  0  0  0  0  2  0  0  0  0  0  0
  189.0370  174.0260  143.8410 C   0  0  0  0  0  3  0  0  0  0  0  0
  191.4640  173.3280  143.6040 C   0  0  2  0  0  3  0  0  0  0  0  0
  189.7340  173.0540  141.7350 C   0  0  1  0  0  0  0  0  0  0  0  0
  190.4800  174.4270  144.0690 C   0  0  2  0  0  3  0  0  0  0  0  0
  190.2400  173.2670  139.3360 C   0  0  2  0  0  3  0  0  0  0  0  0
  189.8240  174.0230  140.5800 C   0  0  1  0  0  3  0  0  0  0  0  0
  188.6700  173.3940  142.7240 C   0  0  0  0  0  3  0  0  0  0  0  0
  193.7780  173.9110  142.3790 C   0  0  2  0  0  0  0  0  0  0  0  0
  193.6640  172.6090  143.1450 C   0  0  2  0  0  3  0  0  0  0  0  0
  192.9850  175.0340  142.8670 N   0  0  0  0  0  2  0  0  0  0  0  0
  195.2360  174.4510  142.3740 C   0  0  1  0  0  3  0  0  0  0  0  0
  192.9280  173.8110  143.6710 C   0  0  2  0  0  0  0  0  0  0  0  0
  195.8310  172.9800  144.3310 C   0  0  0  0  0  0  0  0  0  0  0  0
  196.0230  174.1530  143.5630 N   0  0  0  0  0  2  0  0  0  0  0  0
  194.7440  172.2400  144.1300 C   0  0  0  0  0  3  0  0  0  0  0  0
  195.9980  174.1460  141.1500 N   0  0  0  0  0  0  0  0  0  0  0  0
  197.1070  175.0880  141.0470 C   0  0  0  0  0  2  0  0  0  0  0  0
  195.1850  174.3060  139.9520 C   0  0  0  0  0  2  0  0  0  0  0  0
  196.0610  174.9270  138.8920 C   0  0  0  0  0  2  0  0  0  0  0  0
  197.1110  175.6830  139.6560 C   0  0  0  0  0  2  0  0  0  0  0  0
  196.8690  172.5860  145.3340 C   0  0  0  0  0  3  0  0  0  0  0  0
  196.5180  171.2690  145.9980 C   0  0  0  0  0  1  0  0  0  0  0  0
  197.1010  173.6590  146.3880 C   0  0  0  0  0  1  0  0  0  0  0  0
  189.4330  173.7440  138.1450 C   0  0  0  0  0  2  0  0  0  0  0  0
  190.8130  172.2410  136.9800 C   0  0  0  0  0  2  0  0  0  0  0  0
  190.2040  173.5670  136.9250 N   0  0  0  0  0  0  0  0  0  0  0  0
  191.6960  173.7890  134.5420 O   0  0  0  0  0  0  0  0  0  0  0  0
  191.3100  174.5280  136.9660 C   0  0  1  0  0  3  0  0  0  0  0  0
  192.0590  172.4670  134.8780 C   0  0  0  0  0  2  0  0  0  0  0  0
  192.6110  173.7530  136.7710 C   0  0  2  0  0  3  0  0  0  0  0  0
  192.0760  174.5910  135.6380 C   0  0  1  0  0  0  0  0  0  0  0  0
  192.1970  172.3720  136.3850 C   0  0  1  0  0  3  0  0  0  0  0  0
  194.2290  175.7140  135.5270 C   0  0  0  0  0  3  0  0  0  0  0  0
  195.0220  176.8330  135.2810 C   0  0  0  0  0  0  0  0  0  0  0  0
  194.4360  177.9920  134.8870 N   0  0  0  0  0  0  0  0  0  0  0  0
  193.0910  178.0810  134.7310 C   0  0  0  0  0  3  0  0  0  0  0  0
  191.0440  177.0600  134.8560 O   0  0  0  0  0  0  0  0  0  0  0  0
  196.7570  176.7460  135.4900 Cl  0  0  0  0  0  0  0  0  0  0  0  0
  192.8790  175.7820  135.3520 N   0  0  0  0  0  0  0  0  0  0  0  0
  192.2950  176.9620  134.9710 C   0  0  0  0  0  0  0  0  0  0  0  0
  190.7190  174.7540  145.5430 C   0  0  0  0  0  2  0  0  0  0  0  0
  189.4170  174.9080  146.3100 C   0  0  0  0  0  2  0  0  0  0  0  0
  189.3280  176.3090  146.8860 C   0  0  0  0  0  2  0  0  0  0  0  0
  189.3980  177.9020  145.1230 O   0  0  0  0  0  0  0  0  0  0  0  0
  187.2590  177.3340  145.8680 N   0  0  0  0  0  2  0  0  0  0  0  0
  188.6810  177.2270  145.9110 C   0  0  0  0  0  0  0  0  0  0  0  0
  185.3150  177.5520  144.6180 C   0  0  2  0  0  0  0  0  0  0  0  0
  186.5170  177.4020  143.7200 C   0  0  2  0  0  3  0  0  0  0  0  0
  184.4220  178.3410  143.8260 O   0  0  0  0  0  0  0  0  0  0  0  0
  186.6350  178.1680  144.9330 N   0  0  0  0  0  0  0  0  0  0  0  0
  184.4440  178.6550  145.1620 C   0  0  0  0  0  2  0  0  0  0  0  0
  186.6660  178.3540  142.5250 C   0  0  0  0  0  2  0  0  0  0  0  0
  187.3170  176.7090  140.9970 C   0  0  0  0  0  1  0  0  0  0  0  0
  187.7590  177.9160  141.6750 N   0  0  0  0  0  2  0  0  0  0  0  0
  1  8  1  0  0  0  0
  1  5  1  0  0  0  0
  2  4  1  0  0  0  0
  3  6  1  0  0  0  0
  4 14  1  0  0  0  0
  4  6  1  0  0  0  0
  5  2  1  0  0  0  0
  5  9  1  0  0  0  0
  6 43  1  0  0  0  0
  7  1  1  0  0  0  0
  7  8  1  0  0  0  0
  8  5  1  0  0  0  0
  9  3  2  0  0  0  0
 10 12  1  0  0  0  0
 10 11  1  0  0  0  0
 10 14  1  0  0  0  0
 11 14  1  0  0  0  0
 11 17  1  0  0  0  0
 12 14  1  0  0  0  0
 13 10  1  0  0  0  0
 13 16  1  0  0  0  0
 15 23  1  0  0  0  0
 16 15  1  0  0  0  0
 17 15  2  0  0  0  0
 18 13  1  0  0  0  0
 19 18  1  0  0  0  0
 20 18  1  0  0  0  0
 21 22  1  0  0  0  0
 21 20  1  0  0  0  0
 22 19  1  0  0  0  0
 23 24  1  0  0  0  0
 23 25  1  0  0  0  0
 26  7  1  0  0  0  0
 28 30  1  0  0  0  0
 28 27  1  0  0  0  0
 28 26  1  0  0  0  0
 29 31  1  0  0  0  0
 29 33  1  0  0  0  0
 31 34  1  0  0  0  0
 32 30  1  0  0  0  0
 33 32  1  0  0  0  0
 33 30  1  0  0  0  0
 34 32  1  0  0  0  0
 34 27  1  0  0  0  0
 36 40  1  0  0  0  0
 36 35  2  0  0  0  0
 37 36  1  0  0  0  0
 38 37  2  0  0  0  0
 38 42  1  0  0  0  0
 39 42  2  0  0  0  0
 41 35  1  0  0  0  0
 41 33  1  0  0  0  0
 42 41  1  0  0  0  0
 43 44  1  0  0  0  0
 44 45  1  0  0  0  0
 46 48  2  0  0  0  0
 47 48  1  0  0  0  0
 48 45  1  0  0  0  0
 49 52  1  0  0  0  0
 49 53  1  0  0  0  0
 50 49  1  0  0  0  0
 50 52  1  0  0  0  0
 51 49  1  0  0  0  0
 51 53  1  0  0  0  0
 52 47  1  0  0  0  0
 54 50  1  0  0  0  0
 55 56  1  0  0  0  0
 56 54  1  0  0  0  0
M  END
>  <MODEL>
7

>  <REMARK>
 VINA RESULT:      -7.8      3.340      7.700
  Name = 
  13 active torsions:
  status: ('A' for Active; 'I' for Inactive)
    1  A    between atoms: C_4  and  C_25
    2  A    between atoms: N_6  and  C_13
    3  A    between atoms: N_7  and  C_8
    4  A    between atoms: C_8  and  C_53
    5  A    between atoms: C_19  and  C_27
    6  A    between atoms: C_26  and  C_45
    7  A    between atoms: C_35  and  N_43
    8  A    between atoms: N_36  and  N_38
    9  A    between atoms: C_37  and  C_42
   10  A    between atoms: C_37  and  C_51
   11  A    between atoms: C_42  and  C_52
   12  A    between atoms: C_45  and  N_47
   13  A    between atoms: C_48  and  C_52
                            x       y       z     vdW  Elec       q    Type
                         _______ _______ _______ _____ _____    ______ ____

>  <TORSDO>
F 13

$$$$
=
 OpenBabel11042419533D

 56 68  0  0  1  0  0  0  0  0999 V2000
  194.0910  177.0120  145.3770 C   0  0  2  0  0  3  0  0  0  0  0  0
  195.3270  174.7210  145.1910 C   0  0  0  0  0  2  0  0  0  0  0  0
  196.8560  175.9820  143.0160 C   0  0  0  0  0  3  0  0  0  0  0  0
  196.1860  173.8550  144.2260 C   0  0  2  0  0  3  0  0  0  0  0  0
  195.0770  176.1250  144.6550 C   0  0  1  0  0  0  0  0  0  0  0  0
  196.5220  174.5120  142.8660 C   0  0  2  0  0  3  0  0  0  0  0  0
  192.7020  176.4220  145.2230 C   0  0  2  0  0  3  0  0  0  0  0  0
  193.6940  176.3230  144.0830 C   0  0  1  0  0  3  0  0  0  0  0  0
  196.1580  176.7600  143.8460 C   0  0  0  0  0  3  0  0  0  0  0  0
  194.1630  172.1360  143.8430 C   0  0  2  0  0  0  0  0  0  0  0  0
  194.7550  172.2710  145.2310 C   0  0  2  0  0  3  0  0  0  0  0  0
  195.0640  172.3600  142.7180 N   0  0  0  0  0  2  0  0  0  0  0  0
  193.5970  170.7090  143.5950 C   0  0  1  0  0  3  0  0  0  0  0  0
  195.6740  172.4110  144.0480 C   0  0  2  0  0  0  0  0  0  0  0  0
  194.9370  169.7970  145.5240 C   0  0  0  0  0  0  0  0  0  0  0  0
  194.2950  169.6260  144.2740 N   0  0  0  0  0  2  0  0  0  0  0  0
  195.1380  171.0260  145.9900 C   0  0  0  0  0  3  0  0  0  0  0  0
  192.1390  170.5890  143.7770 N   0  0  0  0  0  0  0  0  0  0  0  0
  191.5400  170.2290  142.4970 C   0  0  0  0  0  2  0  0  0  0  0  0
  191.5400  171.8490  144.1940 C   0  0  0  0  0  2  0  0  0  0  0  0
  190.2210  171.9820  143.4730 C   0  0  0  0  0  2  0  0  0  0  0  0
  190.3830  171.1650  142.2230 C   0  0  0  0  0  2  0  0  0  0  0  0
  195.3500  168.5890  146.3040 C   0  0  0  0  0  3  0  0  0  0  0  0
  194.5880  168.4930  147.6110 C   0  0  0  0  0  1  0  0  0  0  0  0
  196.8490  168.5460  146.5650 C   0  0  0  0  0  1  0  0  0  0  0  0
  191.6990  177.5240  144.9450 C   0  0  0  0  0  2  0  0  0  0  0  0
  190.4440  175.8100  145.9490 C   0  0  0  0  0  2  0  0  0  0  0  0
  190.4470  177.2340  145.6240 N   0  0  0  0  0  0  0  0  0  0  0  0
  187.8360  177.1420  146.6880 O   0  0  0  0  0  0  0  0  0  0  0  0
  189.3680  177.4340  144.6530 C   0  0  1  0  0  3  0  0  0  0  0  0
  188.1830  175.7910  146.9030 C   0  0  0  0  0  2  0  0  0  0  0  0
  188.5380  176.1530  144.6050 C   0  0  2  0  0  3  0  0  0  0  0  0
  187.9790  177.3670  145.3020 C   0  0  1  0  0  0  0  0  0  0  0  0
  189.0300  175.3170  145.7380 C   0  0  1  0  0  3  0  0  0  0  0  0
  186.7750  177.8550  143.2480 C   0  0  0  0  0  3  0  0  0  0  0  0
  185.7260  178.4460  142.5480 C   0  0  0  0  0  0  0  0  0  0  0  0
  184.7950  179.1680  143.2240 N   0  0  0  0  0  0  0  0  0  0  0  0
  184.8720  179.3260  144.5690 C   0  0  0  0  0  3  0  0  0  0  0  0
  186.0010  178.9100  146.5190 O   0  0  0  0  0  0  0  0  0  0  0  0
  185.6150  178.2690  140.8110 Cl  0  0  0  0  0  0  0  0  0  0  0  0
  186.8520  177.9860  144.6030 N   0  0  0  0  0  0  0  0  0  0  0  0
  185.9180  178.7320  145.2740 C   0  0  0  0  0  0  0  0  0  0  0  0
  197.6770  173.7660  142.1970 C   0  0  0  0  0  2  0  0  0  0  0  0
  197.9390  174.2700  140.7890 C   0  0  0  0  0  2  0  0  0  0  0  0
  197.1250  173.4600  139.7980 C   0  0  0  0  0  2  0  0  0  0  0  0
  195.9080  175.4500  139.3410 O   0  0  0  0  0  0  0  0  0  0  0  0
  194.6830  173.4710  139.1630 N   0  0  0  0  0  2  0  0  0  0  0  0
  195.8850  174.1930  139.4270 C   0  0  0  0  0  0  0  0  0  0  0  0
  192.5890  173.1180  138.2230 C   0  0  2  0  0  0  0  0  0  0  0  0
  193.4270  174.0160  137.3470 C   0  0  2  0  0  3  0  0  0  0  0  0
  191.2560  173.5570  137.9460 O   0  0  0  0  0  0  0  0  0  0  0  0
  193.5180  174.1440  138.7780 N   0  0  0  0  0  0  0  0  0  0  0  0
  191.5030  173.2490  139.2600 C   0  0  0  0  0  2  0  0  0  0  0  0
  192.7910  175.2930  136.7810 C   0  0  0  0  0  2  0  0  0  0  0  0
  194.8700  175.4000  135.7160 C   0  0  0  0  0  1  0  0  0  0  0  0
  193.8280  176.2050  136.3310 N   0  0  0  0  0  2  0  0  0  0  0  0
  3  9  2  0  0  0  0
  4  2  1  0  0  0  0
  5  2  1  0  0  0  0
  5  1  1  0  0  0  0
  6  3  1  0  0  0  0
  6  4  1  0  0  0  0
  7  1  1  0  0  0  0
  8  5  1  0  0  0  0
  8  7  1  0  0  0  0
  8  1  1  0  0  0  0
  9  5  1  0  0  0  0
 10 14  1  0  0  0  0
 10 11  1  0  0  0  0
 11 17  1  0  0  0  0
 12 10  1  0  0  0  0
 12 14  1  0  0  0  0
 13 18  1  0  0  0  0
 13 10  1  0  0  0  0
 13 16  1  0  0  0  0
 14  4  1  0  0  0  0
 14 11  1  0  0  0  0
 15 17  2  0  0  0  0
 15 23  1  0  0  0  0
 16 15  1  0  0  0  0
 18 20  1  0  0  0  0
 19 18  1  0  0  0  0
 21 20  1  0  0  0  0
 22 19  1  0  0  0  0
 22 21  1  0  0  0  0
 23 25  1  0  0  0  0
 23 24  1  0  0  0  0
 26  7  1  0  0  0  0
 26 28  1  0  0  0  0
 28 27  1  0  0  0  0
 29 31  1  0  0  0  0
 30 33  1  0  0  0  0
 30 28  1  0  0  0  0
 32 30  1  0  0  0  0
 32 33  1  0  0  0  0
 32 34  1  0  0  0  0
 33 29  1  0  0  0  0
 34 27  1  0  0  0  0
 34 31  1  0  0  0  0
 35 41  1  0  0  0  0
 36 37  1  0  0  0  0
 36 35  2  0  0  0  0
 37 38  2  0  0  0  0
 38 42  1  0  0  0  0
 40 36  1  0  0  0  0
 41 42  1  0  0  0  0
 41 33  1  0  0  0  0
 42 39  2  0  0  0  0
 43  6  1  0  0  0  0
 44 43  1  0  0  0  0
 45 44  1  0  0  0  0
 46 48  2  0  0  0  0
 47 48  1  0  0  0  0
 48 45  1  0  0  0  0
 49 52  1  0  0  0  0
 49 53  1  0  0  0  0
 50 49  1  0  0  0  0
 50 52  1  0  0  0  0
 51 49  1  0  0  0  0
 51 53  1  0  0  0  0
 52 47  1  0  0  0  0
 54 50  1  0  0  0  0
 55 56  1  0  0  0  0
 56 54  1  0  0  0  0
M  END
>  <MODEL>
8

>  <REMARK>
 VINA RESULT:      -7.7      3.255      9.031
  Name = 
  13 active torsions:
  status: ('A' for Active; 'I' for Inactive)
    1  A    between atoms: C_4  and  C_25
    2  A    between atoms: N_6  and  C_13
    3  A    between atoms: N_7  and  C_8
    4  A    between atoms: C_8  and  C_53
    5  A    between atoms: C_19  and  C_27
    6  A    between atoms: C_26  and  C_45
    7  A    between atoms: C_35  and  N_43
    8  A    between atoms: N_36  and  N_38
    9  A    between atoms: C_37  and  C_42
   10  A    between atoms: C_37  and  C_51
   11  A    between atoms: C_42  and  C_52
   12  A    between atoms: C_45  and  N_47
   13  A    between atoms: C_48  and  C_52
                            x       y       z     vdW  Elec       q    Type
                         _______ _______ _______ _____ _____    ______ ____

>  <TORSDO>
F 13

$$$$
=
 OpenBabel11042419533D

 56 68  0  0  1  0  0  0  0  0999 V2000
  189.1720  174.2930  145.0010 C   0  0  2  0  0  3  0  0  0  0  0  0
  189.6810  173.3160  142.6360 C   0  0  0  0  0  2  0  0  0  0  0  0
  192.0290  172.0760  143.9050 C   0  0  0  0  0  3  0  0  0  0  0  0
  190.8220  172.7140  141.7660 C   0  0  2  0  0  3  0  0  0  0  0  0
  190.0980  173.5280  144.0860 C   0  0  1  0  0  0  0  0  0  0  0  0
  192.1870  172.5580  142.4780 C   0  0  2  0  0  3  0  0  0  0  0  0
  189.1080  175.7350  144.5340 C   0  0  2  0  0  3  0  0  0  0  0  0
  190.4070  174.9660  144.4270 C   0  0  1  0  0  3  0  0  0  0  0  0
  191.0530  172.5500  144.6830 C   0  0  0  0  0  3  0  0  0  0  0  0
  189.9630  173.0630  139.2500 C   0  0  2  0  0  0  0  0  0  0  0  0
  191.1620  172.1720  139.4960 C   0  0  2  0  0  3  0  0  0  0  0  0
  189.7640  174.1720  140.1770 N   0  0  0  0  0  2  0  0  0  0  0  0
  190.0290  173.7460  137.8540 C   0  0  1  0  0  3  0  0  0  0  0  0
  190.9750  173.3740  140.3810 C   0  0  2  0  0  0  0  0  0  0  0  0
  192.4980  173.2690  137.6930 C   0  0  0  0  0  0  0  0  0  0  0  0
  191.3660  174.0530  137.3650 N   0  0  0  0  0  2  0  0  0  0  0  0
  192.4080  172.3730  138.6720 C   0  0  0  0  0  3  0  0  0  0  0  0
  189.2280  173.0830  136.8090 N   0  0  0  0  0  0  0  0  0  0  0  0
  189.4100  171.6410  136.9290 C   0  0  0  0  0  2  0  0  0  0  0  0
  189.6640  173.4620  135.4720 C   0  0  0  0  0  2  0  0  0  0  0  0
  189.5950  172.2270  134.6080 C   0  0  0  0  0  2  0  0  0  0  0  0
  189.7500  171.0800  135.5660 C   0  0  0  0  0  2  0  0  0  0  0  0
  193.7620  173.4490  136.9120 C   0  0  0  0  0  3  0  0  0  0  0  0
  194.2250  174.8930  136.9440 C   0  0  0  0  0  1  0  0  0  0  0  0
  193.6340  172.9700  135.4730 C   0  0  0  0  0  1  0  0  0  0  0  0
  189.1530  176.6700  145.7260 C   0  0  0  0  0  2  0  0  0  0  0  0
  187.2170  177.3590  146.8640 C   0  0  0  0  0  2  0  0  0  0  0  0
  188.0300  177.5910  145.6730 N   0  0  0  0  0  0  0  0  0  0  0  0
  185.9610  179.3920  145.0170 O   0  0  0  0  0  0  0  0  0  0  0  0
  187.2000  177.2020  144.5290 C   0  0  1  0  0  3  0  0  0  0  0  0
  185.4630  178.9700  146.2680 C   0  0  0  0  0  2  0  0  0  0  0  0
  185.7760  176.9890  145.0350 C   0  0  2  0  0  3  0  0  0  0  0  0
  186.0960  178.2250  144.2350 C   0  0  1  0  0  0  0  0  0  0  0  0
  185.7720  177.4950  146.4390 C   0  0  1  0  0  3  0  0  0  0  0  0
  184.1390  178.1550  142.7940 C   0  0  0  0  0  2  0  0  0  0  0  0
  183.5350  178.1480  141.5390 C   0  0  0  0  0  0  0  0  0  0  0  0
  184.3090  178.2050  140.4260 N   0  0  0  0  0  0  0  0  0  0  0  0
  185.6620  178.2660  140.5140 C   0  0  0  0  0  2  0  0  0  0  0  0
  187.5280  178.3020  141.8430 O   0  0  0  0  0  0  0  0  0  0  0  0
  181.7940  178.0540  141.4010 Cl  0  0  0  0  0  0  0  0  0  0  0  0
  185.4960  178.2390  142.8990 N   0  0  0  0  0  0  0  0  0  0  0  0
  186.2700  178.2780  141.7690 C   0  0  0  0  0  0  0  0  0  0  0  0
  193.0830  171.6060  141.6860 C   0  0  0  0  0  2  0  0  0  0  0  0
  194.2320  171.0760  142.5260 C   0  0  0  0  0  2  0  0  0  0  0  0
  195.5520  171.4770  141.8940 C   0  0  0  0  0  2  0  0  0  0  0  0
  197.1150  173.2580  142.0740 O   0  0  0  0  0  0  0  0  0  0  0  0
  195.4050  173.2700  143.6640 N   0  0  0  0  0  2  0  0  0  0  0  0
  196.0780  172.7100  142.5360 C   0  0  0  0  0  0  0  0  0  0  0  0
  194.6820  175.1320  144.8460 C   0  0  2  0  0  0  0  0  0  0  0  0
  195.2770  175.5350  143.5200 C   0  0  2  0  0  3  0  0  0  0  0  0
  194.9520  176.2670  145.6740 O   0  0  0  0  0  0  0  0  0  0  0  0
  195.8680  174.4500  144.2570 N   0  0  0  0  0  0  0  0  0  0  0  0
  195.1000  175.0500  146.2910 C   0  0  0  0  0  2  0  0  0  0  0  0
  196.2730  176.7030  143.4850 C   0  0  0  0  0  2  0  0  0  0  0  0
  195.8020  176.5890  141.1980 C   0  0  0  0  0  1  0  0  0  0  0  0
  196.8650  176.8090  142.1630 N   0  0  0  0  0  2  0  0  0  0  0  0
  2  5  1  0  0  0  0
  3  9  2  0  0  0  0
  4  6  1  0  0  0  0
  4  2  1  0  0  0  0
  5  8  1  0  0  0  0
  5  9  1  0  0  0  0
  5  1  1  0  0  0  0
  6  3  1  0  0  0  0
  7  1  1  0  0  0  0
  7 26  1  0  0  0  0
  8  7  1  0  0  0  0
  8  1  1  0  0  0  0
 10 11  1  0  0  0  0
 10 12  1  0  0  0  0
 10 14  1  0  0  0  0
 11 14  1  0  0  0  0
 12 14  1  0  0  0  0
 13 10  1  0  0  0  0
 14  4  1  0  0  0  0
 15 17  2  0  0  0  0
 16 15  1  0  0  0  0
 16 13  1  0  0  0  0
 17 11  1  0  0  0  0
 18 19  1  0  0  0  0
 18 13  1  0  0  0  0
 20 18  1  0  0  0  0
 21 20  1  0  0  0  0
 21 22  1  0  0  0  0
 22 19  1  0  0  0  0
 23 24  1  0  0  0  0
 23 15  1  0  0  0  0
 25 23  1  0  0  0  0
 28 26  1  0  0  0  0
 28 27  1  0  0  0  0
 29 31  1  0  0  0  0
 30 32  1  0  0  0  0
 30 28  1  0  0  0  0
 31 34  1  0  0  0  0
 32 34  1  0  0  0  0
 33 30  1  0  0  0  0
 33 29  1  0  0  0  0
 33 32  1  0  0  0  0
 34 27  1  0  0  0  0
 35 41  1  0  0  0  0
 36 35  1  0  0  0  0
 37 38  1  0  0  0  0
 37 36  2  0  0  0  0
 38 42  1  0  0  0  0
 40 36  1  0  0  0  0
 41 33  1  0  0  0  0
 42 39  2  0  0  0  0
 42 41  1  0  0  0  0
 43  6  1  0  0  0  0
 43 44  1  0  0  0  0
 45 44  1  0  0  0  0
 45 48  1  0  0  0  0
 46 48  2  0  0  0  0
 47 52  1  0  0  0  0
 48 47  1  0  0  0  0
 49 51  1  0  0  0  0
 49 53  1  0  0  0  0
 50 52  1  0  0  0  0
 50 49  1  0  0  0  0
 51 53  1  0  0  0  0
 52 49  1  0  0  0  0
 54 50  1  0  0  0  0
 55 56  1  0  0  0  0
 56 54  1  0  0  0  0
M  END
>  <MODEL>
9

>  <REMARK>
 VINA RESULT:      -7.7      2.586      7.947
  Name = 
  13 active torsions:
  status: ('A' for Active; 'I' for Inactive)
    1  A    between atoms: C_4  and  C_25
    2  A    between atoms: N_6  and  C_13
    3  A    between atoms: N_7  and  C_8
    4  A    between atoms: C_8  and  C_53
    5  A    between atoms: C_19  and  C_27
    6  A    between atoms: C_26  and  C_45
    7  A    between atoms: C_35  and  N_43
    8  A    between atoms: N_36  and  N_38
    9  A    between atoms: C_37  and  C_42
   10  A    between atoms: C_37  and  C_51
   11  A    between atoms: C_42  and  C_52
   12  A    between atoms: C_45  and  N_47
   13  A    between atoms: C_48  and  C_52
                            x       y       z     vdW  Elec       q    Type
                         _______ _______ _______ _____ _____    ______ ____

>  <TORSDO>
F 13

$$$$
