=
 OpenBabel11042417523D

 55 59  0  0  1  0  0  0  0  0999 V2000
  193.5560  171.0880  140.6370 C   0  0  1  0  0  3  0  0  0  0  0  0
  194.6350  170.8820  139.6860 C   0  0  0  0  0  2  0  0  0  0  0  0
  194.4220  171.8020  138.6370 O   0  0  0  0  0  0  0  0  0  0  0  0
  195.6110  172.5740  138.5250 C   0  0  1  0  0  3  0  0  0  0  0  0
  196.6150  171.9890  137.5080 C   0  0  0  0  0  2  0  0  0  0  0  0
  196.0260  171.9060  136.2390 O   0  0  0  0  0  1  0  0  0  0  0  0
  195.3340  173.9340  137.8460 C   0  0  2  0  0  3  0  0  0  0  0  0
  196.5060  174.9040  138.1390 C   0  0  0  0  0  1  0  0  0  0  0  0
  192.8980  174.8470  137.4710 O   0  0  0  0  0  0  0  0  0  0  0  0
  194.0490  174.6730  138.2840 C   0  0  0  0  0  0  0  0  0  0  0  0
  193.9650  175.0990  139.4730 O   0  0  0  0  0  1  0  0  0  0  0  0
  194.1140  171.4340  141.8680 O   0  0  0  0  0  0  0  0  0  0  0  0
  195.5980  169.6490  142.3320 O   0  0  0  0  0  0  0  0  0  0  0  0
  193.3830  171.6940  144.4280 C   0  0  0  0  0  1  0  0  0  0  0  0
  194.6290  170.3840  142.6730 C   0  0  0  0  0  0  0  0  0  0  0  0
  194.3120  170.6410  144.0410 N   0  0  0  0  0  0  0  0  0  0  0  0
  195.1660  169.9950  145.0370 C   0  0  0  0  0  2  0  0  0  0  0  0
  195.8780  170.9810  145.9400 C   0  0  0  0  0  2  0  0  0  0  0  0
  196.8290  171.9760  145.2700 C   0  0  0  0  0  2  0  0  0  0  0  0
  197.0080  173.2360  146.1400 C   0  0  0  0  0  2  0  0  0  0  0  0
  194.4620  176.0950  145.0910 C   0  0  1  0  0  3  0  0  0  0  0  0
  192.1550  176.7690  143.2220 C   0  0  0  0  0  2  0  0  0  0  0  0
  196.0210  174.0560  143.8580 N   0  0  0  0  0  2  0  0  0  0  0  0
  193.5560  176.3380  142.5950 C   0  0  0  0  0  2  0  0  0  0  0  0
  195.0160  174.5620  143.0200 C   0  0  0  0  0  2  0  0  0  0  0  0
  192.0790  176.8430  144.8610 C   0  0  0  0  0  3  0  0  0  0  0  0
  195.3820  175.1330  146.0100 C   0  0  0  0  0  2  0  0  0  0  0  0
  194.2550  175.5100  143.5850 C   0  0  1  0  0  3  0  0  0  0  0  0
  193.0850  176.4550  145.6580 N   0  0  0  0  0  0  0  0  0  0  0  0
  196.4070  174.3660  145.2940 C   0  0  1  0  0  3  0  0  0  0  0  0
  192.2930  171.8200  140.2200 C   0  0  0  0  0  2  0  0  0  0  0  0
  191.3910  170.6110  140.6950 C   0  0  1  0  0  3  0  0  0  0  0  0
  191.7840  169.2010  140.5230 O   0  0  0  0  0  1  0  0  0  0  0  0
  190.5560  170.8050  141.9570 C   0  0  0  0  0  2  0  0  0  0  0  0
  188.5470  175.7140  143.7250 C   0  0  0  0  0  0  0  0  0  0  0  0
  189.6200  173.0730  142.4420 C   0  0  0  0  0  0  0  0  0  0  0  0
  188.9120  172.6020  140.2900 C   0  0  0  0  0  3  0  0  0  0  0  0
  187.8910  176.6380  144.8180 C   0  0  0  0  0  0  0  0  0  0  0  0
  189.4730  174.3160  145.4530 C   0  0  0  0  0  0  0  0  0  0  0  0
  190.3600  172.8490  143.7110 N   0  0  0  0  0  2  0  0  0  0  0  0
  189.1250  174.9200  144.4550 C   0  0  0  0  0  3  0  0  0  0  0  0
  187.3680  176.1550  141.6460 O   0  0  0  0  0  1  0  0  0  0  0  0
  189.9770  172.9520  145.1580 C   0  0  0  0  0  2  0  0  0  0  0  0
  188.3280  173.7270  140.5460 N   0  0  0  0  0  0  0  0  0  0  0  0
  188.1800  176.2250  146.3990 C   0  0  0  0  0  3  0  0  0  0  0  0
  188.1990  175.3240  142.4030 N   0  0  0  0  0  0  0  0  0  0  0  0
  188.7790  174.0770  141.8160 C   0  0  1  0  0  3  0  0  0  0  0  0
  188.8960  175.0270  146.6210 C   0  0  0  0  0  0  0  0  0  0  0  0
  189.8600  172.1110  141.4460 C   0  0  0  0  0  0  0  0  0  0  0  0
  188.9650  174.2260  147.7090 F   0  0  0  0  0  0  0  0  0  0  0  0
  187.6770  178.0830  144.3380 C   0  0  0  0  0  2  0  0  0  0  0  0
  186.1890  178.3300  144.7180 C   0  0  1  0  0  3  0  0  0  0  0  0
  185.8170  179.6960  144.6640 O   0  0  0  0  0  1  0  0  0  0  0  0
  184.0550  178.4630  143.2040 C   0  0  0  0  0  1  0  0  0  0  0  0
  185.1450  177.6080  143.8570 C   0  0  0  0  0  2  0  0  0  0  0  0
  1  2  1  6  0  0  0
  1 12  1  0  0  0  0
  3  2  1  0  0  0  0
  4  5  1  6  0  0  0
  4  3  1  0  0  0  0
  6  5  1  0  0  0  0
  7  8  1  1  0  0  0
  7 10  1  0  0  0  0
  7  4  1  0  0  0  0
  9 10  2  0  0  0  0
 10 11  1  0  0  0  0
 12 15  1  0  0  0  0
 13 15  2  0  0  0  0
 15 16  1  0  0  0  0
 16 14  1  0  0  0  0
 16 17  1  0  0  0  0
 17 18  1  0  0  0  0
 19 18  1  0  0  0  0
 19 20  1  0  0  0  0
 21 29  1  0  0  0  0
 21 27  1  1  0  0  0
 22 26  1  0  0  0  0
 23 30  1  0  0  0  0
 24 22  1  0  0  0  0
 25 28  1  0  0  0  0
 25 23  1  0  0  0  0
 26 29  2  0  0  0  0
 28 24  1  6  0  0  0
 28 21  1  0  0  0  0
 30 27  1  0  0  0  0
 30 20  1  1  0  0  0
 31  1  1  0  0  0  0
 31 32  1  0  0  0  0
 32 33  1  1  0  0  0
 32 34  1  0  0  0  0
 35 41  2  0  0  0  0
 35 38  1  0  0  0  0
 36 40  1  0  0  0  0
 37 44  2  0  0  0  0
 37 49  1  0  0  0  0
 38 45  2  0  0  0  0
 39 48  2  0  0  0  0
 40 43  1  0  0  0  0
 41 39  1  0  0  0  0
 42 46  1  0  0  0  0
 43 39  1  0  0  0  0
 45 48  1  0  0  0  0
 46 35  1  0  0  0  0
 47 44  1  1  0  0  0
 47 46  1  0  0  0  0
 47 36  1  0  0  0  0
 48 50  1  0  0  0  0
 49 34  1  0  0  0  0
 49 36  2  0  0  0  0
 51 52  1  0  0  0  0
 51 38  1  0  0  0  0
 52 53  1  6  0  0  0
 54 55  1  0  0  0  0
 55 52  1  0  0  0  0
M  END
>  <MODEL>
1

>  <REMARK>
 VINA RESULT:      -6.1      0.000      0.000
  Name = 
  20 active torsions:
  status: ('A' for Active; 'I' for Inactive)
    1  A    between atoms: C_8  and  C_39
    2  A    between atoms: C_9  and  C_28
    3  A    between atoms: C_9  and  C_33
    4  A    between atoms: C_10  and  C_29
    5  A    between atoms: C_12  and  C_17
    6  A    between atoms: C_12  and  C_55
    7  A    between atoms: C_15  and  C_39
    8  A    between atoms: C_15  and  C_52
    9  A    between atoms: C_17  and  C_49
   10  A    between atoms: C_18  and  C_44
   11  A    between atoms: O_27  and  C_46
   12  A    between atoms: O_27  and  C_55
   13  A    between atoms: C_28  and  C_31
   14  A    between atoms: C_29  and  C_44
   15  A    between atoms: C_31  and  N_51
   16  A    between atoms: O_32  and  C_36
   17  A    between atoms: O_32  and  C_44
   18  A    between atoms: C_33  and  C_50
   19  A    between atoms: C_36  and  C_55
   20  A    between atoms: C_40  and  C_49
                            x       y       z     vdW  Elec       q    Type
                         _______ _______ _______ _____ _____    ______ ____

>  <TORSDO>
F 20

$$$$
=
 OpenBabel11042417523D

 55 59  0  0  1  0  0  0  0  0999 V2000
  194.0610  171.2910  140.4290 C   0  0  1  0  0  3  0  0  0  0  0  0
  194.7320  171.5080  139.1580 C   0  0  0  0  0  2  0  0  0  0  0  0
  195.9710  172.1110  139.4590 O   0  0  0  0  0  0  0  0  0  0  0  0
  196.2750  172.9800  138.3750 C   0  0  1  0  0  3  0  0  0  0  0  0
  195.7280  172.4720  137.0240 C   0  0  0  0  0  2  0  0  0  0  0  0
  196.7740  171.9810  136.2310 O   0  0  0  0  0  1  0  0  0  0  0  0
  195.4860  174.3040  138.4810 C   0  0  2  0  0  3  0  0  0  0  0  0
  195.6660  175.1160  137.1730 C   0  0  0  0  0  1  0  0  0  0  0  0
  194.9710  175.9600  140.4550 O   0  0  0  0  0  1  0  0  0  0  0  0
  195.8870  175.2550  139.6320 C   0  0  0  0  0  0  0  0  0  0  0  0
  197.1130  175.3740  139.9260 O   0  0  0  0  0  0  0  0  0  0  0  0
  194.0440  169.9210  140.6890 O   0  0  0  0  0  0  0  0  0  0  0  0
  196.1360  169.8180  141.7910 O   0  0  0  0  0  0  0  0  0  0  0  0
  192.7490  168.7400  142.7100 C   0  0  0  0  0  1  0  0  0  0  0  0
  194.9400  169.4290  141.6740 C   0  0  0  0  0  0  0  0  0  0  0  0
  194.1920  168.9240  142.7810 N   0  0  0  0  0  0  0  0  0  0  0  0
  194.8910  168.8640  144.0630 C   0  0  0  0  0  2  0  0  0  0  0  0
  194.4800  169.9690  145.0160 C   0  0  0  0  0  2  0  0  0  0  0  0
  195.5090  170.4000  146.0640 C   0  0  0  0  0  2  0  0  0  0  0  0
  196.9410  170.3100  145.4980 C   0  0  0  0  0  2  0  0  0  0  0  0
  196.6240  174.2670  145.5050 C   0  0  1  0  0  3  0  0  0  0  0  0
  195.9630  176.6840  143.7750 C   0  0  0  0  0  2  0  0  0  0  0  0
  197.5660  172.1960  143.7930 N   0  0  0  0  0  2  0  0  0  0  0  0
  197.1700  175.7350  143.3480 C   0  0  0  0  0  2  0  0  0  0  0  0
  197.3780  173.4170  143.1280 C   0  0  0  0  0  2  0  0  0  0  0  0
  195.1760  176.2860  145.1610 C   0  0  0  0  0  3  0  0  0  0  0  0
  196.5170  172.7270  145.9890 C   0  0  0  0  0  2  0  0  0  0  0  0
  196.9150  174.4030  143.9080 C   0  0  1  0  0  3  0  0  0  0  0  0
  195.4330  175.1670  145.8530 N   0  0  0  0  0  0  0  0  0  0  0  0
  197.3320  171.7700  145.2320 C   0  0  1  0  0  3  0  0  0  0  0  0
  194.3250  172.2160  141.6040 C   0  0  0  0  0  2  0  0  0  0  0  0
  192.8830  172.8520  141.4750 C   0  0  1  0  0  3  0  0  0  0  0  0
  192.4760  173.6910  140.3330 O   0  0  0  0  0  1  0  0  0  0  0  0
  191.7050  172.0540  142.0260 C   0  0  0  0  0  2  0  0  0  0  0  0
  188.6900  176.1680  144.3150 C   0  0  0  0  0  0  0  0  0  0  0  0
  190.5160  173.8340  143.3170 C   0  0  0  0  0  0  0  0  0  0  0  0
  192.4590  173.4520  144.5140 C   0  0  0  0  0  3  0  0  0  0  0  0
  187.8110  177.4700  144.2180 C   0  0  0  0  0  0  0  0  0  0  0  0
  188.0290  175.5470  142.0840 C   0  0  0  0  0  0  0  0  0  0  0  0
  189.5080  173.6080  142.2470 N   0  0  0  0  0  2  0  0  0  0  0  0
  188.4380  175.6750  143.2240 C   0  0  0  0  0  3  0  0  0  0  0  0
  190.2770  176.5360  146.1190 O   0  0  0  0  0  1  0  0  0  0  0  0
  188.7770  174.5250  141.3120 C   0  0  0  0  0  2  0  0  0  0  0  0
  191.9210  174.4440  145.1460 N   0  0  0  0  0  0  0  0  0  0  0  0
  186.9670  177.6830  142.8050 C   0  0  0  0  0  3  0  0  0  0  0  0
  189.9000  175.8230  144.9760 N   0  0  0  0  0  0  0  0  0  0  0  0
  190.7130  174.6660  144.4900 C   0  0  1  0  0  3  0  0  0  0  0  0
  187.1950  176.7360  141.7810 C   0  0  0  0  0  0  0  0  0  0  0  0
  191.5750  172.9100  143.3290 C   0  0  0  0  0  0  0  0  0  0  0  0
  186.9960  176.8120  140.4450 F   0  0  0  0  0  0  0  0  0  0  0  0
  187.3270  177.9770  145.5860 C   0  0  0  0  0  2  0  0  0  0  0  0
  186.4430  176.7940  146.0720 C   0  0  1  0  0  3  0  0  0  0  0  0
  186.8830  176.2320  147.2960 O   0  0  0  0  0  1  0  0  0  0  0  0
  184.6180  178.4340  146.9910 C   0  0  0  0  0  1  0  0  0  0  0  0
  184.9600  177.1100  146.3000 C   0  0  0  0  0  2  0  0  0  0  0  0
  1  2  1  6  0  0  0
  1 12  1  0  0  0  0
  1 31  1  0  0  0  0
  2  3  1  0  0  0  0
  4  5  1  6  0  0  0
  4  7  1  0  0  0  0
  4  3  1  0  0  0  0
  6  5  1  0  0  0  0
  7  8  1  6  0  0  0
  7 10  1  0  0  0  0
 10 11  2  0  0  0  0
 10  9  1  0  0  0  0
 12 15  1  0  0  0  0
 14 16  1  0  0  0  0
 15 13  2  0  0  0  0
 15 16  1  0  0  0  0
 16 17  1  0  0  0  0
 17 18  1  0  0  0  0
 18 19  1  0  0  0  0
 20 19  1  0  0  0  0
 21 29  1  0  0  0  0
 21 27  1  6  0  0  0
 22 26  1  0  0  0  0
 23 30  1  0  0  0  0
 24 22  1  0  0  0  0
 24 28  1  0  0  0  0
 25 23  1  0  0  0  0
 26 29  2  0  0  0  0
 28 25  1  1  0  0  0
 28 21  1  0  0  0  0
 30 20  1  6  0  0  0
 30 27  1  0  0  0  0
 32 33  1  6  0  0  0
 32 31  1  0  0  0  0
 32 34  1  0  0  0  0
 34 49  1  0  0  0  0
 35 46  1  0  0  0  0
 36 49  2  0  0  0  0
 37 44  2  0  0  0  0
 38 35  1  0  0  0  0
 38 51  1  0  0  0  0
 39 41  1  0  0  0  0
 40 36  1  0  0  0  0
 41 35  2  0  0  0  0
 43 39  1  0  0  0  0
 43 40  1  0  0  0  0
 45 38  2  0  0  0  0
 46 42  1  0  0  0  0
 47 36  1  6  0  0  0
 47 46  1  0  0  0  0
 47 44  1  0  0  0  0
 48 39  2  0  0  0  0
 48 45  1  0  0  0  0
 49 37  1  0  0  0  0
 50 48  1  0  0  0  0
 51 52  1  0  0  0  0
 52 55  1  0  0  0  0
 52 53  1  1  0  0  0
 55 54  1  0  0  0  0
M  END
>  <MODEL>
2

>  <REMARK>
 VINA RESULT:      -5.8      2.222      3.109
  Name = 
  20 active torsions:
  status: ('A' for Active; 'I' for Inactive)
    1  A    between atoms: C_8  and  C_39
    2  A    between atoms: C_9  and  C_28
    3  A    between atoms: C_9  and  C_33
    4  A    between atoms: C_10  and  C_29
    5  A    between atoms: C_12  and  C_17
    6  A    between atoms: C_12  and  C_55
    7  A    between atoms: C_15  and  C_39
    8  A    between atoms: C_15  and  C_52
    9  A    between atoms: C_17  and  C_49
   10  A    between atoms: C_18  and  C_44
   11  A    between atoms: O_27  and  C_46
   12  A    between atoms: O_27  and  C_55
   13  A    between atoms: C_28  and  C_31
   14  A    between atoms: C_29  and  C_44
   15  A    between atoms: C_31  and  N_51
   16  A    between atoms: O_32  and  C_36
   17  A    between atoms: O_32  and  C_44
   18  A    between atoms: C_33  and  C_50
   19  A    between atoms: C_36  and  C_55
   20  A    between atoms: C_40  and  C_49
                            x       y       z     vdW  Elec       q    Type
                         _______ _______ _______ _____ _____    ______ ____

>  <TORSDO>
F 20

$$$$
=
 OpenBabel11042417523D

 55 59  0  0  1  0  0  0  0  0999 V2000
  193.5280  174.7720  142.7090 C   0  0  1  0  0  3  0  0  0  0  0  0
  192.2430  175.3460  142.3490 C   0  0  0  0  0  2  0  0  0  0  0  0
  191.3580  174.2630  142.1690 O   0  0  0  0  0  0  0  0  0  0  0  0
  190.0910  174.6860  142.6560 C   0  0  1  0  0  3  0  0  0  0  0  0
  189.1010  175.0440  141.5260 C   0  0  0  0  0  2  0  0  0  0  0  0
  187.8920  175.5030  142.0680 O   0  0  0  0  0  1  0  0  0  0  0  0
  189.3180  173.5150  143.3020 C   0  0  2  0  0  3  0  0  0  0  0  0
  190.2140  172.8310  144.3650 C   0  0  0  0  0  1  0  0  0  0  0  0
  189.7050  171.4140  141.7720 O   0  0  0  0  0  0  0  0  0  0  0  0
  188.8510  172.3900  142.3500 C   0  0  0  0  0  0  0  0  0  0  0  0
  187.6140  172.2660  142.1110 O   0  0  0  0  0  1  0  0  0  0  0  0
  194.2310  175.7080  143.4680 O   0  0  0  0  0  0  0  0  0  0  0  0
  192.4240  177.0470  144.2070 O   0  0  0  0  0  0  0  0  0  0  0  0
  194.9230  175.0000  145.9540 C   0  0  0  0  0  1  0  0  0  0  0  0
  193.5050  176.4370  144.4460 C   0  0  0  0  0  0  0  0  0  0  0  0
  193.8240  175.9330  145.7430 N   0  0  0  0  0  0  0  0  0  0  0  0
  192.8350  176.1720  146.7940 C   0  0  0  0  0  2  0  0  0  0  0  0
  191.6940  175.1760  146.7740 C   0  0  0  0  0  2  0  0  0  0  0  0
  190.4780  175.4960  147.6470 C   0  0  0  0  0  2  0  0  0  0  0  0
  189.1680  175.1370  146.9180 C   0  0  0  0  0  2  0  0  0  0  0  0
  186.3170  177.8810  146.6040 C   0  0  1  0  0  3  0  0  0  0  0  0
  184.4790  179.3040  144.6370 C   0  0  0  0  0  2  0  0  0  0  0  0
  188.6250  177.0160  145.1780 N   0  0  0  0  0  2  0  0  0  0  0  0
  186.0570  179.4110  144.4360 C   0  0  0  0  0  2  0  0  0  0  0  0
  187.7740  177.8240  144.4090 C   0  0  0  0  0  2  0  0  0  0  0  0
  183.9640  178.4380  145.9350 C   0  0  0  0  0  3  0  0  0  0  0  0
  187.1880  176.6440  147.1770 C   0  0  0  0  0  2  0  0  0  0  0  0
  186.6700  178.2290  145.0520 C   0  0  1  0  0  3  0  0  0  0  0  0
  184.7950  177.7500  146.7310 N   0  0  0  0  0  0  0  0  0  0  0  0
  188.5290  176.4950  146.6010 C   0  0  1  0  0  3  0  0  0  0  0  0
  193.6270  173.3190  143.1370 C   0  0  0  0  0  2  0  0  0  0  0  0
  194.8450  173.0750  142.1590 C   0  0  1  0  0  3  0  0  0  0  0  0
  196.2320  172.9080  142.6310 O   0  0  0  0  0  1  0  0  0  0  0  0
  194.5870  172.2590  140.8960 C   0  0  0  0  0  2  0  0  0  0  0  0
  191.3530  174.3430  136.8380 C   0  0  0  0  0  0  0  0  0  0  0  0
  193.3050  173.4600  139.1150 C   0  0  0  0  0  0  0  0  0  0  0  0
  195.2790  174.6510  139.3110 C   0  0  0  0  0  3  0  0  0  0  0  0
  190.3970  174.1810  135.5980 C   0  0  0  0  0  0  0  0  0  0  0  0
  190.7090  172.1610  137.6280 C   0  0  0  0  0  0  0  0  0  0  0  0
  192.3030  172.4180  139.4630 N   0  0  0  0  0  2  0  0  0  0  0  0
  191.1210  173.2860  137.4090 C   0  0  0  0  0  3  0  0  0  0  0  0
  192.9330  176.1020  136.2720 O   0  0  0  0  0  1  0  0  0  0  0  0
  191.5100  171.4400  138.6490 C   0  0  0  0  0  2  0  0  0  0  0  0
  194.6890  175.2320  138.3170 N   0  0  0  0  0  0  0  0  0  0  0  0
  189.5280  172.7700  135.5190 C   0  0  0  0  0  3  0  0  0  0  0  0
  192.5880  175.0080  137.0720 N   0  0  0  0  0  0  0  0  0  0  0  0
  193.4640  174.5800  138.2050 C   0  0  0  0  0  0  0  0  0  0  0  0
  189.8020  171.8000  136.5110 C   0  0  0  0  0  0  0  0  0  0  0  0
  194.4180  173.5120  139.9730 C   0  0  2  0  0  3  0  0  0  0  0  0
  189.5870  170.4650  136.5260 F   0  0  0  0  0  0  0  0  0  0  0  0
  189.8970  175.5240  135.0410 C   0  0  0  0  0  2  0  0  0  0  0  0
  188.3570  175.3850  135.2030 C   0  0  1  0  0  3  0  0  0  0  0  0
  187.9390  175.3170  136.5550 O   0  0  0  0  0  1  0  0  0  0  0  0
  188.1380  177.9030  134.5130 C   0  0  0  0  0  1  0  0  0  0  0  0
  187.5110  176.5080  134.5890 C   0  0  0  0  0  2  0  0  0  0  0  0
  1  2  1  1  0  0  0
  1 31  1  0  0  0  0
  1 12  1  0  0  0  0
  3  2  1  0  0  0  0
  3  4  1  0  0  0  0
  4  5  1  6  0  0  0
  4  7  1  0  0  0  0
  5  6  1  0  0  0  0
  7  8  1  1  0  0  0
  9 10  2  0  0  0  0
 10  7  1  0  0  0  0
 11 10  1  0  0  0  0
 12 15  1  0  0  0  0
 13 15  2  0  0  0  0
 15 16  1  0  0  0  0
 16 14  1  0  0  0  0
 16 17  1  0  0  0  0
 18 17  1  0  0  0  0
 18 19  1  0  0  0  0
 20 19  1  0  0  0  0
 21 29  1  0  0  0  0
 21 27  1  6  0  0  0
 22 26  1  0  0  0  0
 23 30  1  0  0  0  0
 24 22  1  0  0  0  0
 24 28  1  0  0  0  0
 25 23  1  0  0  0  0
 26 29  2  0  0  0  0
 28 25  1  1  0  0  0
 28 21  1  0  0  0  0
 30 20  1  6  0  0  0
 30 27  1  0  0  0  0
 32 33  1  1  0  0  0
 32 31  1  0  0  0  0
 34 32  1  0  0  0  0
 35 46  1  0  0  0  0
 35 41  1  0  0  0  0
 36 40  1  0  0  0  0
 36 49  1  0  0  0  0
 37 49  1  0  0  0  0
 38 35  2  0  0  0  0
 39 43  1  0  0  0  0
 41 39  2  0  0  0  0
 42 46  1  0  0  0  0
 43 40  1  0  0  0  0
 44 37  2  0  0  0  0
 45 38  1  0  0  0  0
 45 48  2  0  0  0  0
 46 47  1  0  0  0  0
 47 44  1  0  0  0  0
 47 36  2  0  0  0  0
 48 50  1  0  0  0  0
 48 39  1  0  0  0  0
 49 34  1  6  0  0  0
 51 52  1  0  0  0  0
 51 38  1  0  0  0  0
 52 53  1  1  0  0  0
 54 55  1  0  0  0  0
 55 52  1  0  0  0  0
M  END
>  <MODEL>
3

>  <REMARK>
 VINA RESULT:      -5.7      3.626      7.714
  Name = 
  20 active torsions:
  status: ('A' for Active; 'I' for Inactive)
    1  A    between atoms: C_8  and  C_39
    2  A    between atoms: C_9  and  C_28
    3  A    between atoms: C_9  and  C_33
    4  A    between atoms: C_10  and  C_29
    5  A    between atoms: C_12  and  C_17
    6  A    between atoms: C_12  and  C_55
    7  A    between atoms: C_15  and  C_39
    8  A    between atoms: C_15  and  C_52
    9  A    between atoms: C_17  and  C_49
   10  A    between atoms: C_18  and  C_44
   11  A    between atoms: O_27  and  C_46
   12  A    between atoms: O_27  and  C_55
   13  A    between atoms: C_28  and  C_31
   14  A    between atoms: C_29  and  C_44
   15  A    between atoms: C_31  and  N_51
   16  A    between atoms: O_32  and  C_36
   17  A    between atoms: O_32  and  C_44
   18  A    between atoms: C_33  and  C_50
   19  A    between atoms: C_36  and  C_55
   20  A    between atoms: C_40  and  C_49
                            x       y       z     vdW  Elec       q    Type
                         _______ _______ _______ _____ _____    ______ ____

>  <TORSDO>
F 20

$$$$
=
 OpenBabel11042417523D

 55 59  0  0  1  0  0  0  0  0999 V2000
  195.9850  173.1310  145.2050 C   0  0  1  0  0  3  0  0  0  0  0  0
  196.8730  172.1240  145.7600 C   0  0  0  0  0  2  0  0  0  0  0  0
  196.1250  170.9300  145.8340 O   0  0  0  0  0  0  0  0  0  0  0  0
  196.9550  169.8960  145.3210 C   0  0  1  0  0  3  0  0  0  0  0  0
  197.6230  169.0540  146.4300 C   0  0  0  0  0  2  0  0  0  0  0  0
  196.8210  169.0440  147.5800 O   0  0  0  0  0  1  0  0  0  0  0  0
  196.1180  168.7900  144.6400 C   0  0  2  0  0  3  0  0  0  0  0  0
  196.3990  168.7950  143.1170 C   0  0  0  0  0  1  0  0  0  0  0  0
  193.8490  168.4670  145.9270 O   0  0  0  0  0  1  0  0  0  0  0  0
  194.5830  168.8980  144.7910 C   0  0  0  0  0  0  0  0  0  0  0  0
  193.9190  169.4750  143.8800 O   0  0  0  0  0  0  0  0  0  0  0  0
  196.6010  173.6890  144.0840 O   0  0  0  0  0  0  0  0  0  0  0  0
  195.7830  172.0480  142.5870 O   0  0  0  0  0  0  0  0  0  0  0  0
  196.0000  175.7110  142.4370 C   0  0  0  0  0  1  0  0  0  0  0  0
  196.1860  173.2250  142.8080 C   0  0  0  0  0  0  0  0  0  0  0  0
  195.7620  174.3360  142.0180 N   0  0  0  0  0  0  0  0  0  0  0  0
  194.8420  174.0380  140.9210 C   0  0  0  0  0  2  0  0  0  0  0  0
  193.3940  174.3250  141.2630 C   0  0  0  0  0  2  0  0  0  0  0  0
  192.4590  173.1210  141.3930 C   0  0  0  0  0  2  0  0  0  0  0  0
  191.0200  173.4970  140.9870 C   0  0  0  0  0  2  0  0  0  0  0  0
  191.1140  169.9690  139.1690 C   0  0  1  0  0  3  0  0  0  0  0  0
  191.9180  168.5470  136.5990 C   0  0  0  0  0  2  0  0  0  0  0  0
  190.5820  172.6930  138.5330 N   0  0  0  0  0  2  0  0  0  0  0  0
  190.8510  169.7290  136.5270 C   0  0  0  0  0  2  0  0  0  0  0  0
  190.8100  171.8980  137.4000 C   0  0  0  0  0  2  0  0  0  0  0  0
  192.4860  168.1660  138.0930 C   0  0  0  0  0  3  0  0  0  0  0  0
  191.2230  171.0910  140.3290 C   0  0  0  0  0  2  0  0  0  0  0  0
  191.0830  170.6150  137.6740 C   0  0  1  0  0  3  0  0  0  0  0  0
  192.1800  168.8680  139.1930 N   0  0  0  0  0  0  0  0  0  0  0  0
  190.5980  172.3820  140.0200 C   0  0  1  0  0  3  0  0  0  0  0  0
  194.4910  172.8750  145.1180 C   0  0  0  0  0  2  0  0  0  0  0  0
  194.1740  174.3310  145.6470 C   0  0  1  0  0  3  0  0  0  0  0  0
  195.1100  175.1010  146.4860 O   0  0  0  0  0  1  0  0  0  0  0  0
  193.3530  175.2490  144.7450 C   0  0  0  0  0  2  0  0  0  0  0  0
  187.9410  176.6470  144.8720 C   0  0  0  0  0  0  0  0  0  0  0  0
  190.9240  175.7340  145.0860 C   0  0  0  0  0  0  0  0  0  0  0  0
  191.7410  175.3470  147.2160 C   0  0  0  0  0  3  0  0  0  0  0  0
  186.7190  177.5240  144.4110 C   0  0  0  0  0  0  0  0  0  0  0  0
  189.0520  177.0810  142.7800 C   0  0  0  0  0  0  0  0  0  0  0  0
  190.9720  175.8130  143.6030 N   0  0  0  0  0  2  0  0  0  0  0  0
  188.6340  176.7240  143.8660 C   0  0  0  0  0  3  0  0  0  0  0  0
  187.7940  176.4720  147.2920 O   0  0  0  0  0  1  0  0  0  0  0  0
  190.5060  176.8360  142.6100 C   0  0  0  0  0  2  0  0  0  0  0  0
  190.5140  175.6950  147.4360 N   0  0  0  0  0  0  0  0  0  0  0  0
  186.8180  178.1800  142.8890 C   0  0  0  0  0  3  0  0  0  0  0  0
  188.5530  176.3610  146.1230 N   0  0  0  0  0  0  0  0  0  0  0  0
  189.9680  175.8780  146.1690 C   0  0  1  0  0  3  0  0  0  0  0  0
  188.0300  177.9810  142.1910 C   0  0  0  0  0  0  0  0  0  0  0  0
  192.1020  175.2590  145.6860 C   0  0  0  0  0  0  0  0  0  0  0  0
  188.5790  178.6630  141.1580 F   0  0  0  0  0  0  0  0  0  0  0  0
  185.3960  177.1190  145.0800 C   0  0  0  0  0  2  0  0  0  0  0  0
  185.0140  178.4150  145.8490 C   0  0  1  0  0  3  0  0  0  0  0  0
  183.6490  178.7690  145.7090 O   0  0  0  0  0  1  0  0  0  0  0  0
  186.0390  179.5700  147.9650 C   0  0  0  0  0  1  0  0  0  0  0  0
  185.2580  178.3980  147.3630 C   0  0  0  0  0  2  0  0  0  0  0  0
  1 31  1  6  0  0  0
  1  2  1  0  0  0  0
  2  3  1  0  0  0  0
  4  3  1  0  0  0  0
  4  5  1  1  0  0  0
  5  6  1  0  0  0  0
  7  8  1  6  0  0  0
  7 10  1  0  0  0  0
  7  4  1  0  0  0  0
 10  9  1  0  0  0  0
 11 10  2  0  0  0  0
 12  1  1  0  0  0  0
 13 15  2  0  0  0  0
 15 12  1  0  0  0  0
 16 14  1  0  0  0  0
 16 15  1  0  0  0  0
 17 18  1  0  0  0  0
 17 16  1  0  0  0  0
 18 19  1  0  0  0  0
 20 19  1  0  0  0  0
 21 29  1  0  0  0  0
 21 27  1  1  0  0  0
 22 26  1  0  0  0  0
 23 30  1  0  0  0  0
 24 22  1  0  0  0  0
 25 28  1  0  0  0  0
 25 23  1  0  0  0  0
 26 29  2  0  0  0  0
 28 24  1  6  0  0  0
 28 21  1  0  0  0  0
 30 27  1  0  0  0  0
 30 20  1  1  0  0  0
 31 32  1  0  0  0  0
 32 33  1  6  0  0  0
 34 32  1  0  0  0  0
 34 49  1  0  0  0  0
 35 46  1  0  0  0  0
 36 49  2  0  0  0  0
 37 44  2  0  0  0  0
 38 35  1  0  0  0  0
 38 51  1  0  0  0  0
 39 41  1  0  0  0  0
 40 36  1  0  0  0  0
 41 35  2  0  0  0  0
 43 39  1  0  0  0  0
 43 40  1  0  0  0  0
 45 38  2  0  0  0  0
 46 47  1  0  0  0  0
 46 42  1  0  0  0  0
 47 36  1  6  0  0  0
 47 44  1  0  0  0  0
 48 39  2  0  0  0  0
 48 45  1  0  0  0  0
 49 37  1  0  0  0  0
 50 48  1  0  0  0  0
 51 52  1  0  0  0  0
 52 53  1  1  0  0  0
 52 55  1  0  0  0  0
 55 54  1  0  0  0  0
M  END
>  <MODEL>
4

>  <REMARK>
 VINA RESULT:      -5.7      2.950      6.757
  Name = 
  20 active torsions:
  status: ('A' for Active; 'I' for Inactive)
    1  A    between atoms: C_8  and  C_39
    2  A    between atoms: C_9  and  C_28
    3  A    between atoms: C_9  and  C_33
    4  A    between atoms: C_10  and  C_29
    5  A    between atoms: C_12  and  C_17
    6  A    between atoms: C_12  and  C_55
    7  A    between atoms: C_15  and  C_39
    8  A    between atoms: C_15  and  C_52
    9  A    between atoms: C_17  and  C_49
   10  A    between atoms: C_18  and  C_44
   11  A    between atoms: O_27  and  C_46
   12  A    between atoms: O_27  and  C_55
   13  A    between atoms: C_28  and  C_31
   14  A    between atoms: C_29  and  C_44
   15  A    between atoms: C_31  and  N_51
   16  A    between atoms: O_32  and  C_36
   17  A    between atoms: O_32  and  C_44
   18  A    between atoms: C_33  and  C_50
   19  A    between atoms: C_36  and  C_55
   20  A    between atoms: C_40  and  C_49
                            x       y       z     vdW  Elec       q    Type
                         _______ _______ _______ _____ _____    ______ ____

>  <TORSDO>
F 20

$$$$
=
 OpenBabel11042417523D

 55 59  0  0  1  0  0  0  0  0999 V2000
  191.8340  171.2820  139.0170 C   0  0  1  0  0  3  0  0  0  0  0  0
  192.1160  172.6010  138.4770 C   0  0  0  0  0  2  0  0  0  0  0  0
  192.7360  172.3960  137.2260 O   0  0  0  0  0  0  0  0  0  0  0  0
  194.0150  173.0120  137.2990 C   0  0  1  0  0  3  0  0  0  0  0  0
  195.1540  172.0950  136.8010 C   0  0  0  0  0  2  0  0  0  0  0  0
  196.1730  172.0240  137.7610 O   0  0  0  0  0  1  0  0  0  0  0  0
  194.1470  174.1540  136.2670 C   0  0  2  0  0  3  0  0  0  0  0  0
  194.6040  173.5690  134.9070 C   0  0  0  0  0  1  0  0  0  0  0  0
  195.5820  176.2820  135.7010 O   0  0  0  0  0  0  0  0  0  0  0  0
  195.1540  175.2770  136.6080 C   0  0  0  0  0  0  0  0  0  0  0  0
  195.5850  175.3710  137.7950 O   0  0  0  0  0  1  0  0  0  0  0  0
  190.4780  171.2200  139.3390 O   0  0  0  0  0  0  0  0  0  0  0  0
  190.8560  171.5900  141.6460 O   0  0  0  0  0  0  0  0  0  0  0  0
  188.3340  172.8180  139.2770 C   0  0  0  0  0  1  0  0  0  0  0  0
  190.0930  171.6360  140.6400 C   0  0  0  0  0  0  0  0  0  0  0  0
  189.0270  172.5810  140.5360 N   0  0  0  0  0  0  0  0  0  0  0  0
  188.8520  173.4890  141.6680 C   0  0  0  0  0  2  0  0  0  0  0  0
  188.7770  174.9460  141.2560 C   0  0  0  0  0  2  0  0  0  0  0  0
  187.5860  175.7540  141.7760 C   0  0  0  0  0  2  0  0  0  0  0  0
  187.6280  177.2000  141.2400 C   0  0  0  0  0  2  0  0  0  0  0  0
  186.6370  178.3650  144.9030 C   0  0  1  0  0  3  0  0  0  0  0  0
  184.4400  178.2540  147.0090 C   0  0  0  0  0  2  0  0  0  0  0  0
  185.4170  178.0590  142.3480 N   0  0  0  0  0  2  0  0  0  0  0  0
  184.1150  178.8960  145.5860 C   0  0  0  0  0  2  0  0  0  0  0  0
  184.4860  178.1830  143.3910 C   0  0  0  0  0  2  0  0  0  0  0  0
  185.9770  177.7210  147.2360 C   0  0  0  0  0  3  0  0  0  0  0  0
  187.5190  177.8170  143.6630 C   0  0  0  0  0  2  0  0  0  0  0  0
  185.0360  178.3080  144.6070 C   0  0  1  0  0  3  0  0  0  0  0  0
  186.8970  177.7020  146.2600 N   0  0  0  0  0  0  0  0  0  0  0  0
  186.9360  178.0260  142.3330 C   0  0  1  0  0  3  0  0  0  0  0  0
  192.4540  170.0460  138.3900 C   0  0  0  0  0  2  0  0  0  0  0  0
  193.0260  169.5780  139.7880 C   0  0  1  0  0  3  0  0  0  0  0  0
  192.7070  168.2690  140.3860 O   0  0  0  0  0  1  0  0  0  0  0  0
  194.4310  170.0350  140.1680 C   0  0  0  0  0  2  0  0  0  0  0  0
  194.5160  174.0430  144.0650 C   0  0  0  0  0  0  0  0  0  0  0  0
  194.3070  171.6250  142.0940 C   0  0  0  0  0  0  0  0  0  0  0  0
  193.9430  169.5440  143.0380 C   0  0  0  0  0  3  0  0  0  0  0  0
  195.1200  175.3450  144.7100 C   0  0  0  0  0  0  0  0  0  0  0  0
  195.3710  174.7030  141.9130 C   0  0  0  0  0  0  0  0  0  0  0  0
  194.5200  172.6040  140.9950 N   0  0  0  0  0  2  0  0  0  0  0  0
  194.8360  174.2300  142.8990 C   0  0  0  0  0  3  0  0  0  0  0  0
  194.1090  172.4900  145.8910 O   0  0  0  0  0  1  0  0  0  0  0  0
  195.4860  173.7340  140.7950 C   0  0  0  0  0  2  0  0  0  0  0  0
  193.9770  170.3270  144.0670 N   0  0  0  0  0  0  0  0  0  0  0  0
  195.9070  176.3800  143.6780 C   0  0  0  0  0  3  0  0  0  0  0  0
  194.2760  172.7180  144.5210 N   0  0  0  0  0  0  0  0  0  0  0  0
  194.1340  171.6030  143.5350 C   0  0  1  0  0  3  0  0  0  0  0  0
  196.0550  175.9490  142.3390 C   0  0  0  0  0  0  0  0  0  0  0  0
  194.0710  170.3070  141.6670 C   0  0  0  0  0  0  0  0  0  0  0  0
  196.9290  176.3280  141.3790 F   0  0  0  0  0  0  0  0  0  0  0  0
  194.3630  175.8060  145.9660 C   0  0  0  0  0  2  0  0  0  0  0  0
  192.8950  175.8570  145.4560 C   0  0  1  0  0  3  0  0  0  0  0  0
  191.9380  175.8210  146.5000 O   0  0  0  0  0  1  0  0  0  0  0  0
  191.7270  176.8440  143.3290 C   0  0  0  0  0  1  0  0  0  0  0  0
  192.5150  177.0860  144.6200 C   0  0  0  0  0  2  0  0  0  0  0  0
  1 31  1  6  0  0  0
  1 12  1  0  0  0  0
  2  1  1  0  0  0  0
  3  4  1  0  0  0  0
  3  2  1  0  0  0  0
  4  5  1  6  0  0  0
  5  6  1  0  0  0  0
  7  8  1  6  0  0  0
  7 10  1  0  0  0  0
  7  4  1  0  0  0  0
  9 10  2  0  0  0  0
 10 11  1  0  0  0  0
 12 15  1  0  0  0  0
 14 16  1  0  0  0  0
 15 13  2  0  0  0  0
 16 15  1  0  0  0  0
 16 17  1  0  0  0  0
 18 17  1  0  0  0  0
 18 19  1  0  0  0  0
 20 19  1  0  0  0  0
 21 27  1  6  0  0  0
 21 29  1  0  0  0  0
 22 26  1  0  0  0  0
 23 25  1  0  0  0  0
 24 22  1  0  0  0  0
 28 25  1  6  0  0  0
 28 21  1  0  0  0  0
 28 24  1  0  0  0  0
 29 26  2  0  0  0  0
 30 20  1  6  0  0  0
 30 23  1  0  0  0  0
 30 27  1  0  0  0  0
 31 32  1  0  0  0  0
 32 34  1  0  0  0  0
 32 33  1  6  0  0  0
 34 49  1  0  0  0  0
 35 46  1  0  0  0  0
 35 38  1  0  0  0  0
 37 44  2  0  0  0  0
 38 51  1  0  0  0  0
 39 48  2  0  0  0  0
 39 41  1  0  0  0  0
 40 36  1  0  0  0  0
 41 35  2  0  0  0  0
 43 40  1  0  0  0  0
 43 39  1  0  0  0  0
 45 38  2  0  0  0  0
 46 42  1  0  0  0  0
 47 36  1  6  0  0  0
 47 44  1  0  0  0  0
 47 46  1  0  0  0  0
 48 45  1  0  0  0  0
 49 36  2  0  0  0  0
 49 37  1  0  0  0  0
 50 48  1  0  0  0  0
 52 51  1  0  0  0  0
 52 53  1  1  0  0  0
 54 55  1  0  0  0  0
 55 52  1  0  0  0  0
M  END
>  <MODEL>
5

>  <REMARK>
 VINA RESULT:      -5.6      2.833      6.889
  Name = 
  20 active torsions:
  status: ('A' for Active; 'I' for Inactive)
    1  A    between atoms: C_8  and  C_39
    2  A    between atoms: C_9  and  C_28
    3  A    between atoms: C_9  and  C_33
    4  A    between atoms: C_10  and  C_29
    5  A    between atoms: C_12  and  C_17
    6  A    between atoms: C_12  and  C_55
    7  A    between atoms: C_15  and  C_39
    8  A    between atoms: C_15  and  C_52
    9  A    between atoms: C_17  and  C_49
   10  A    between atoms: C_18  and  C_44
   11  A    between atoms: O_27  and  C_46
   12  A    between atoms: O_27  and  C_55
   13  A    between atoms: C_28  and  C_31
   14  A    between atoms: C_29  and  C_44
   15  A    between atoms: C_31  and  N_51
   16  A    between atoms: O_32  and  C_36
   17  A    between atoms: O_32  and  C_44
   18  A    between atoms: C_33  and  C_50
   19  A    between atoms: C_36  and  C_55
   20  A    between atoms: C_40  and  C_49
                            x       y       z     vdW  Elec       q    Type
                         _______ _______ _______ _____ _____    ______ ____

>  <TORSDO>
F 20

$$$$
=
 OpenBabel11042417523D

 55 59  0  0  1  0  0  0  0  0999 V2000
  192.0920  175.0450  143.6830 C   0  0  1  0  0  3  0  0  0  0  0  0
  193.0560  174.1360  143.0870 C   0  0  0  0  0  2  0  0  0  0  0  0
  194.3320  174.6080  143.4610 O   0  0  0  0  0  0  0  0  0  0  0  0
  195.1860  173.4720  143.5190 C   0  0  1  0  0  3  0  0  0  0  0  0
  196.6450  173.7950  143.1280 C   0  0  0  0  0  2  0  0  0  0  0  0
  197.0750  172.9360  142.1080 O   0  0  0  0  0  1  0  0  0  0  0  0
  195.4140  173.0160  144.9770 C   0  0  2  0  0  3  0  0  0  0  0  0
  196.8170  173.4760  145.4460 C   0  0  0  0  0  1  0  0  0  0  0  0
  196.4860  170.6690  145.4780 O   0  0  0  0  0  1  0  0  0  0  0  0
  195.3550  171.4930  145.2390 C   0  0  0  0  0  0  0  0  0  0  0  0
  194.2230  170.9320  145.3230 O   0  0  0  0  0  0  0  0  0  0  0  0
  192.7520  175.8270  144.6310 O   0  0  0  0  0  0  0  0  0  0  0  0
  191.3320  177.7200  144.6700 O   0  0  0  0  0  0  0  0  0  0  0  0
  192.2540  175.2100  147.1860 C   0  0  0  0  0  1  0  0  0  0  0  0
  192.0010  176.8410  145.2820 C   0  0  0  0  0  0  0  0  0  0  0  0
  191.6610  176.4040  146.5980 N   0  0  0  0  0  0  0  0  0  0  0  0
  190.4980  177.0400  147.2130 C   0  0  0  0  0  2  0  0  0  0  0  0
  189.1970  176.3260  146.9060 C   0  0  0  0  0  2  0  0  0  0  0  0
  188.1510  177.1020  146.1010 C   0  0  0  0  0  2  0  0  0  0  0  0
  186.7330  176.8410  146.6480 C   0  0  0  0  0  2  0  0  0  0  0  0
  185.8250  176.7560  142.7840 C   0  0  1  0  0  3  0  0  0  0  0  0
  184.8280  178.4440  140.4540 C   0  0  0  0  0  2  0  0  0  0  0  0
  184.8430  177.9180  145.1910 N   0  0  0  0  0  2  0  0  0  0  0  0
  183.9070  178.2890  141.7460 C   0  0  0  0  0  2  0  0  0  0  0  0
  184.3180  178.5180  144.0370 C   0  0  0  0  0  2  0  0  0  0  0  0
  186.2590  177.6370  140.4760 C   0  0  0  0  0  3  0  0  0  0  0  0
  186.6000  176.4750  144.1760 C   0  0  0  0  0  2  0  0  0  0  0  0
  184.7810  178.0010  142.8890 C   0  0  1  0  0  3  0  0  0  0  0  0
  186.7090  176.9750  141.5520 N   0  0  0  0  0  0  0  0  0  0  0  0
  185.8490  176.7990  145.3940 C   0  0  1  0  0  3  0  0  0  0  0  0
  191.0520  175.7360  142.8190 C   0  0  0  0  0  2  0  0  0  0  0  0
  190.0460  174.5290  143.0000 C   0  0  1  0  0  3  0  0  0  0  0  0
  189.3280  174.2660  144.2600 O   0  0  0  0  0  1  0  0  0  0  0  0
  189.2160  174.1110  141.7900 C   0  0  0  0  0  2  0  0  0  0  0  0
  191.0880  170.5280  137.9270 C   0  0  0  0  0  0  0  0  0  0  0  0
  190.1780  172.3450  140.3030 C   0  0  0  0  0  0  0  0  0  0  0  0
  190.0670  171.3480  142.3880 C   0  0  0  0  0  3  0  0  0  0  0  0
  191.0400  169.8720  136.4970 C   0  0  0  0  0  0  0  0  0  0  0  0
  190.0820  172.5320  137.0490 C   0  0  0  0  0  0  0  0  0  0  0  0
  190.0680  173.4490  139.3140 N   0  0  0  0  0  2  0  0  0  0  0  0
  190.6250  171.6290  137.6580 C   0  0  0  0  0  3  0  0  0  0  0  0
  191.3440  168.7080  139.5170 O   0  0  0  0  0  1  0  0  0  0  0  0
  189.4690  173.5460  137.9420 C   0  0  0  0  0  2  0  0  0  0  0  0
  190.4670  170.3820  141.6270 N   0  0  0  0  0  0  0  0  0  0  0  0
  190.4230  170.8130  135.2770 C   0  0  0  0  0  3  0  0  0  0  0  0
  190.9970  170.0380  139.2580 N   0  0  0  0  0  0  0  0  0  0  0  0
  190.6060  170.9600  140.3680 C   0  0  0  0  0  0  0  0  0  0  0  0
  189.9010  172.0720  135.6500 C   0  0  0  0  0  0  0  0  0  0  0  0
  189.9190  172.7210  141.6320 C   0  0  2  0  0  3  0  0  0  0  0  0
  189.0170  172.8840  135.0240 F   0  0  0  0  0  0  0  0  0  0  0  0
  192.1240  168.8030  136.2850 C   0  0  0  0  0  2  0  0  0  0  0  0
  193.3830  169.6730  136.0070 C   0  0  1  0  0  3  0  0  0  0  0  0
  194.3050  169.6850  137.0830 O   0  0  0  0  0  1  0  0  0  0  0  0
  195.7250  169.5490  134.8400 C   0  0  0  0  0  1  0  0  0  0  0  0
  194.2190  169.2780  134.7830 C   0  0  0  0  0  2  0  0  0  0  0  0
  1 31  1  6  0  0  0
  1 12  1  0  0  0  0
  2  3  1  0  0  0  0
  2  1  1  0  0  0  0
  3  4  1  0  0  0  0
  4  5  1  1  0  0  0
  4  7  1  0  0  0  0
  6  5  1  0  0  0  0
  7 10  1  0  0  0  0
  7  8  1  6  0  0  0
 10 11  2  0  0  0  0
 10  9  1  0  0  0  0
 12 15  1  0  0  0  0
 13 15  2  0  0  0  0
 15 16  1  0  0  0  0
 16 14  1  0  0  0  0
 16 17  1  0  0  0  0
 18 17  1  0  0  0  0
 19 20  1  0  0  0  0
 19 18  1  0  0  0  0
 21 28  1  0  0  0  0
 21 27  1  1  0  0  0
 22 26  1  0  0  0  0
 22 24  1  0  0  0  0
 23 30  1  0  0  0  0
 25 23  1  0  0  0  0
 26 29  2  0  0  0  0
 27 30  1  0  0  0  0
 28 24  1  6  0  0  0
 28 25  1  0  0  0  0
 29 21  1  0  0  0  0
 30 20  1  1  0  0  0
 31 32  1  0  0  0  0
 32 33  1  1  0  0  0
 34 32  1  0  0  0  0
 35 46  1  0  0  0  0
 36 47  2  0  0  0  0
 36 49  1  0  0  0  0
 38 35  2  0  0  0  0
 39 41  2  0  0  0  0
 39 43  1  0  0  0  0
 40 36  1  0  0  0  0
 41 35  1  0  0  0  0
 43 40  1  0  0  0  0
 44 37  2  0  0  0  0
 45 48  2  0  0  0  0
 45 38  1  0  0  0  0
 46 42  1  0  0  0  0
 46 47  1  0  0  0  0
 47 44  1  0  0  0  0
 48 39  1  0  0  0  0
 49 34  1  6  0  0  0
 49 37  1  0  0  0  0
 50 48  1  0  0  0  0
 51 38  1  0  0  0  0
 52 51  1  0  0  0  0
 52 53  1  1  0  0  0
 55 54  1  0  0  0  0
 55 52  1  0  0  0  0
M  END
>  <MODEL>
6

>  <REMARK>
 VINA RESULT:      -5.5      3.346      8.813
  Name = 
  20 active torsions:
  status: ('A' for Active; 'I' for Inactive)
    1  A    between atoms: C_8  and  C_39
    2  A    between atoms: C_9  and  C_28
    3  A    between atoms: C_9  and  C_33
    4  A    between atoms: C_10  and  C_29
    5  A    between atoms: C_12  and  C_17
    6  A    between atoms: C_12  and  C_55
    7  A    between atoms: C_15  and  C_39
    8  A    between atoms: C_15  and  C_52
    9  A    between atoms: C_17  and  C_49
   10  A    between atoms: C_18  and  C_44
   11  A    between atoms: O_27  and  C_46
   12  A    between atoms: O_27  and  C_55
   13  A    between atoms: C_28  and  C_31
   14  A    between atoms: C_29  and  C_44
   15  A    between atoms: C_31  and  N_51
   16  A    between atoms: O_32  and  C_36
   17  A    between atoms: O_32  and  C_44
   18  A    between atoms: C_33  and  C_50
   19  A    between atoms: C_36  and  C_55
   20  A    between atoms: C_40  and  C_49
                            x       y       z     vdW  Elec       q    Type
                         _______ _______ _______ _____ _____    ______ ____

>  <TORSDO>
F 20

$$$$
=
 OpenBabel11042417523D

 55 59  0  0  1  0  0  0  0  0999 V2000
  191.3670  173.6710  144.4710 C   0  0  1  0  0  3  0  0  0  0  0  0
  192.6130  173.8220  145.2030 C   0  0  0  0  0  2  0  0  0  0  0  0
  193.6270  173.2900  144.3780 O   0  0  0  0  0  0  0  0  0  0  0  0
  194.7320  173.0010  145.2250 C   0  0  1  0  0  3  0  0  0  0  0  0
  195.1970  171.5320  145.1260 C   0  0  0  0  0  2  0  0  0  0  0  0
  194.6150  170.7690  146.1480 O   0  0  0  0  0  1  0  0  0  0  0  0
  196.0170  173.7020  144.7310 C   0  0  2  0  0  3  0  0  0  0  0  0
  197.2050  173.2970  145.6380 C   0  0  0  0  0  1  0  0  0  0  0  0
  195.2330  176.0530  145.6060 O   0  0  0  0  0  1  0  0  0  0  0  0
  195.9960  175.2480  144.7200 C   0  0  0  0  0  0  0  0  0  0  0  0
  196.7610  175.8630  143.9200 O   0  0  0  0  0  0  0  0  0  0  0  0
  190.5220  174.7240  144.8200 O   0  0  0  0  0  0  0  0  0  0  0  0
  191.6910  176.7380  145.2450 O   0  0  0  0  0  0  0  0  0  0  0  0
  189.3520  174.7160  147.2270 C   0  0  0  0  0  1  0  0  0  0  0  0
  191.0490  175.7350  145.6660 C   0  0  0  0  0  0  0  0  0  0  0  0
  190.3060  175.7630  146.8860 N   0  0  0  0  0  0  0  0  0  0  0  0
  190.3370  177.0180  147.6350 C   0  0  0  0  0  2  0  0  0  0  0  0
  189.1850  177.9420  147.2980 C   0  0  0  0  0  2  0  0  0  0  0  0
  188.1480  177.4240  146.2990 C   0  0  0  0  0  2  0  0  0  0  0  0
  186.7210  177.5670  146.8640 C   0  0  0  0  0  2  0  0  0  0  0  0
  185.7290  176.9600  143.0680 C   0  0  1  0  0  3  0  0  0  0  0  0
  184.6310  178.3060  140.5670 C   0  0  0  0  0  2  0  0  0  0  0  0
  184.7670  178.3960  145.3310 N   0  0  0  0  0  2  0  0  0  0  0  0
  183.7440  178.2940  141.8920 C   0  0  0  0  0  2  0  0  0  0  0  0
  184.1990  178.8280  144.1230 C   0  0  0  0  0  2  0  0  0  0  0  0
  186.0860  177.5470  140.6560 C   0  0  0  0  0  3  0  0  0  0  0  0
  186.5440  176.8820  144.4640 C   0  0  0  0  0  2  0  0  0  0  0  0
  184.6510  178.1800  143.0400 C   0  0  1  0  0  3  0  0  0  0  0  0
  186.5790  177.0420  141.7950 N   0  0  0  0  0  0  0  0  0  0  0  0
  185.8110  177.3400  145.6490 C   0  0  1  0  0  3  0  0  0  0  0  0
  191.3790  173.2470  143.0130 C   0  0  0  0  0  2  0  0  0  0  0  0
  190.2310  172.1900  143.2730 C   0  0  1  0  0  3  0  0  0  0  0  0
  189.6650  171.9340  144.6090 O   0  0  0  0  0  1  0  0  0  0  0  0
  189.1840  172.0000  142.1800 C   0  0  0  0  0  2  0  0  0  0  0  0
  190.8110  172.9380  136.9130 C   0  0  0  0  0  0  0  0  0  0  0  0
  190.1520  172.2220  139.8840 C   0  0  0  0  0  0  0  0  0  0  0  0
  191.0330  170.2420  140.6950 C   0  0  0  0  0  3  0  0  0  0  0  0
  190.5340  173.3790  135.4280 C   0  0  0  0  0  0  0  0  0  0  0  0
  188.9840  174.3110  137.6700 C   0  0  0  0  0  0  0  0  0  0  0  0
  189.3820  173.4930  139.9380 N   0  0  0  0  0  2  0  0  0  0  0  0
  189.9540  173.6010  137.4820 C   0  0  0  0  0  3  0  0  0  0  0  0
  192.1330  170.9010  136.7960 O   0  0  0  0  0  1  0  0  0  0  0  0
  188.3860  174.1320  139.0160 C   0  0  0  0  0  2  0  0  0  0  0  0
  191.4670  170.2740  139.4770 N   0  0  0  0  0  0  0  0  0  0  0  0
  189.2940  174.4580  135.2010 C   0  0  0  0  0  3  0  0  0  0  0  0
  191.3090  171.7590  137.5320 N   0  0  0  0  0  0  0  0  0  0  0  0
  191.0070  171.4860  138.9710 C   0  0  0  0  0  0  0  0  0  0  0  0
  188.5340  174.8000  136.3430 C   0  0  0  0  0  0  0  0  0  0  0  0
  190.2150  171.5240  141.1030 C   0  0  2  0  0  3  0  0  0  0  0  0
  187.2840  175.3070  136.4550 F   0  0  0  0  0  0  0  0  0  0  0  0
  191.7840  173.3150  134.5350 C   0  0  0  0  0  2  0  0  0  0  0  0
  192.7770  174.2310  135.3050 C   0  0  1  0  0  3  0  0  0  0  0  0
  194.1330  173.8620  135.1270 O   0  0  0  0  0  1  0  0  0  0  0  0
  193.3440  176.7040  135.9580 C   0  0  0  0  0  1  0  0  0  0  0  0
  192.7290  175.7230  134.9540 C   0  0  0  0  0  2  0  0  0  0  0  0
  1 31  1  6  0  0  0
  1 12  1  0  0  0  0
  1  2  1  0  0  0  0
  3  2  1  0  0  0  0
  3  4  1  0  0  0  0
  4  5  1  6  0  0  0
  5  6  1  0  0  0  0
  7  4  1  0  0  0  0
  7  8  1  1  0  0  0
 10  7  1  0  0  0  0
 10  9  1  0  0  0  0
 11 10  2  0  0  0  0
 12 15  1  0  0  0  0
 13 15  2  0  0  0  0
 15 16  1  0  0  0  0
 16 14  1  0  0  0  0
 16 17  1  0  0  0  0
 18 17  1  0  0  0  0
 19 20  1  0  0  0  0
 19 18  1  0  0  0  0
 21 27  1  1  0  0  0
 22 26  1  0  0  0  0
 22 24  1  0  0  0  0
 23 30  1  0  0  0  0
 25 23  1  0  0  0  0
 26 29  2  0  0  0  0
 27 30  1  0  0  0  0
 28 24  1  1  0  0  0
 28 21  1  0  0  0  0
 28 25  1  0  0  0  0
 29 21  1  0  0  0  0
 30 20  1  1  0  0  0
 31 32  1  0  0  0  0
 32 33  1  1  0  0  0
 34 32  1  0  0  0  0
 35 41  1  0  0  0  0
 35 46  1  0  0  0  0
 36 40  1  0  0  0  0
 36 49  1  0  0  0  0
 37 49  1  0  0  0  0
 38 35  2  0  0  0  0
 39 43  1  0  0  0  0
 41 39  2  0  0  0  0
 42 46  1  0  0  0  0
 43 40  1  0  0  0  0
 44 37  2  0  0  0  0
 45 38  1  0  0  0  0
 45 48  2  0  0  0  0
 46 47  1  0  0  0  0
 47 44  1  0  0  0  0
 47 36  2  0  0  0  0
 48 50  1  0  0  0  0
 48 39  1  0  0  0  0
 49 34  1  6  0  0  0
 51 52  1  0  0  0  0
 51 38  1  0  0  0  0
 52 53  1  6  0  0  0
 55 52  1  0  0  0  0
 55 54  1  0  0  0  0
M  END
>  <MODEL>
7

>  <REMARK>
 VINA RESULT:      -5.5      3.454      8.373
  Name = 
  20 active torsions:
  status: ('A' for Active; 'I' for Inactive)
    1  A    between atoms: C_8  and  C_39
    2  A    between atoms: C_9  and  C_28
    3  A    between atoms: C_9  and  C_33
    4  A    between atoms: C_10  and  C_29
    5  A    between atoms: C_12  and  C_17
    6  A    between atoms: C_12  and  C_55
    7  A    between atoms: C_15  and  C_39
    8  A    between atoms: C_15  and  C_52
    9  A    between atoms: C_17  and  C_49
   10  A    between atoms: C_18  and  C_44
   11  A    between atoms: O_27  and  C_46
   12  A    between atoms: O_27  and  C_55
   13  A    between atoms: C_28  and  C_31
   14  A    between atoms: C_29  and  C_44
   15  A    between atoms: C_31  and  N_51
   16  A    between atoms: O_32  and  C_36
   17  A    between atoms: O_32  and  C_44
   18  A    between atoms: C_33  and  C_50
   19  A    between atoms: C_36  and  C_55
   20  A    between atoms: C_40  and  C_49
                            x       y       z     vdW  Elec       q    Type
                         _______ _______ _______ _____ _____    ______ ____

>  <TORSDO>
F 20

$$$$
=
 OpenBabel11042417523D

 55 59  0  0  1  0  0  0  0  0999 V2000
  195.1080  173.2290  144.4430 C   0  0  1  0  0  3  0  0  0  0  0  0
  195.2780  172.7590  143.0780 C   0  0  0  0  0  2  0  0  0  0  0  0
  196.3500  173.4950  142.5330 O   0  0  0  0  0  0  0  0  0  0  0  0
  195.8670  174.0970  141.3390 C   0  0  1  0  0  3  0  0  0  0  0  0
  196.7200  175.3010  140.8840 C   0  0  0  0  0  2  0  0  0  0  0  0
  196.2060  176.4890  141.4220 O   0  0  0  0  0  1  0  0  0  0  0  0
  196.0740  173.1710  140.1200 C   0  0  2  0  0  3  0  0  0  0  0  0
  196.9860  173.8780  139.0860 C   0  0  0  0  0  1  0  0  0  0  0  0
  194.7520  171.7340  138.3610 O   0  0  0  0  0  0  0  0  0  0  0  0
  194.8010  172.7520  139.3500 C   0  0  0  0  0  0  0  0  0  0  0  0
  193.6970  173.2910  139.6560 O   0  0  0  0  0  1  0  0  0  0  0  0
  195.1120  174.6240  144.4310 O   0  0  0  0  0  0  0  0  0  0  0  0
  194.4240  175.7740  146.3810 O   0  0  0  0  0  0  0  0  0  0  0  0
  192.9900  175.4370  143.0180 C   0  0  0  0  0  1  0  0  0  0  0  0
  194.1590  175.2890  145.2460 C   0  0  0  0  0  0  0  0  0  0  0  0
  193.1130  175.8060  144.4210 N   0  0  0  0  0  0  0  0  0  0  0  0
  192.3500  176.9260  144.9690 C   0  0  0  0  0  2  0  0  0  0  0  0
  191.8780  177.9000  143.9080 C   0  0  0  0  0  2  0  0  0  0  0  0
  190.3820  178.2240  143.8790 C   0  0  0  0  0  2  0  0  0  0  0  0
  189.6570  177.3770  142.8130 C   0  0  0  0  0  2  0  0  0  0  0  0
  185.9010  177.6440  144.0700 C   0  0  1  0  0  3  0  0  0  0  0  0
  184.1550  178.1550  146.5110 C   0  0  0  0  0  2  0  0  0  0  0  0
  188.3960  176.6140  144.9770 N   0  0  0  0  0  2  0  0  0  0  0  0
  185.1790  176.9330  146.5350 C   0  0  0  0  0  2  0  0  0  0  0  0
  187.4480  176.7400  146.0030 C   0  0  0  0  0  2  0  0  0  0  0  0
  184.1060  179.0400  145.1280 C   0  0  0  0  0  3  0  0  0  0  0  0
  187.2130  177.8020  143.1360 C   0  0  0  0  0  2  0  0  0  0  0  0
  186.2700  177.2420  145.6050 C   0  0  1  0  0  3  0  0  0  0  0  0
  184.9490  178.8440  144.1040 N   0  0  0  0  0  0  0  0  0  0  0  0
  188.3510  176.9500  143.4960 C   0  0  1  0  0  3  0  0  0  0  0  0
  194.1200  172.5470  145.3720 C   0  0  0  0  0  2  0  0  0  0  0  0
  194.2530  171.1870  144.5760 C   0  0  1  0  0  3  0  0  0  0  0  0
  195.4870  170.3810  144.5670 O   0  0  0  0  0  1  0  0  0  0  0  0
  193.0120  170.3050  144.4690 C   0  0  0  0  0  2  0  0  0  0  0  0
  190.6870  171.5250  139.5320 C   0  0  0  0  0  0  0  0  0  0  0  0
  192.2240  170.7100  142.1300 C   0  0  0  0  0  0  0  0  0  0  0  0
  193.7420  168.9740  141.9370 C   0  0  0  0  0  3  0  0  0  0  0  0
  189.4510  171.8820  138.6260 C   0  0  0  0  0  0  0  0  0  0  0  0
  189.5720  172.4780  141.4420 C   0  0  0  0  0  0  0  0  0  0  0  0
  191.4660  171.7850  142.8220 N   0  0  0  0  0  2  0  0  0  0  0  0
  190.2980  171.9920  140.5940 C   0  0  0  0  0  3  0  0  0  0  0  0
  191.9490  169.8200  138.3440 O   0  0  0  0  0  1  0  0  0  0  0  0
  190.0210  172.1870  142.8260 C   0  0  0  0  0  2  0  0  0  0  0  0
  193.2790  169.0880  140.7350 N   0  0  0  0  0  0  0  0  0  0  0  0
  188.1940  172.6660  139.3740 C   0  0  0  0  0  3  0  0  0  0  0  0
  191.6580  170.4860  139.5390 N   0  0  0  0  0  0  0  0  0  0  0  0
  192.4030  170.1680  140.7950 C   0  0  0  0  0  0  0  0  0  0  0  0
  188.3000  172.8460  140.7720 C   0  0  0  0  0  0  0  0  0  0  0  0
  193.1730  170.0530  142.9320 C   0  0  2  0  0  3  0  0  0  0  0  0
  187.3520  173.0730  141.7090 F   0  0  0  0  0  0  0  0  0  0  0  0
  189.8220  172.0820  137.1480 C   0  0  0  0  0  2  0  0  0  0  0  0
  190.7600  173.3200  137.2160 C   0  0  1  0  0  3  0  0  0  0  0  0
  192.0810  173.0470  136.7820 O   0  0  0  0  0  1  0  0  0  0  0  0
  188.8220  174.7510  136.1870 C   0  0  0  0  0  1  0  0  0  0  0  0
  190.3250  174.5420  136.3970 C   0  0  0  0  0  2  0  0  0  0  0  0
  1  2  1  6  0  0  0
  1 31  1  0  0  0  0
  3  2  1  0  0  0  0
  4  5  1  6  0  0  0
  4  3  1  0  0  0  0
  5  6  1  0  0  0  0
  7  8  1  6  0  0  0
  7  4  1  0  0  0  0
  9 10  2  0  0  0  0
 10 11  1  0  0  0  0
 10  7  1  0  0  0  0
 12  1  1  0  0  0  0
 12 15  1  0  0  0  0
 14 16  1  0  0  0  0
 15 13  2  0  0  0  0
 16 17  1  0  0  0  0
 16 15  1  0  0  0  0
 18 17  1  0  0  0  0
 19 18  1  0  0  0  0
 20 19  1  0  0  0  0
 21 27  1  6  0  0  0
 21 29  1  0  0  0  0
 21 28  1  0  0  0  0
 22 24  1  0  0  0  0
 23 25  1  0  0  0  0
 26 22  1  0  0  0  0
 27 30  1  0  0  0  0
 28 25  1  6  0  0  0
 28 24  1  0  0  0  0
 29 26  2  0  0  0  0
 30 20  1  1  0  0  0
 30 23  1  0  0  0  0
 32 33  1  1  0  0  0
 32 31  1  0  0  0  0
 34 32  1  0  0  0  0
 35 46  1  0  0  0  0
 35 41  1  0  0  0  0
 36 40  1  0  0  0  0
 36 49  1  0  0  0  0
 37 49  1  0  0  0  0
 38 45  1  0  0  0  0
 38 35  2  0  0  0  0
 39 43  1  0  0  0  0
 40 43  1  0  0  0  0
 41 39  2  0  0  0  0
 42 46  1  0  0  0  0
 44 47  1  0  0  0  0
 44 37  2  0  0  0  0
 45 48  2  0  0  0  0
 46 47  1  0  0  0  0
 47 36  2  0  0  0  0
 48 39  1  0  0  0  0
 48 50  1  0  0  0  0
 49 34  1  1  0  0  0
 51 52  1  0  0  0  0
 51 38  1  0  0  0  0
 52 53  1  6  0  0  0
 54 55  1  0  0  0  0
 55 52  1  0  0  0  0
M  END
>  <MODEL>
8

>  <REMARK>
 VINA RESULT:      -5.4      2.648      6.780
  Name = 
  20 active torsions:
  status: ('A' for Active; 'I' for Inactive)
    1  A    between atoms: C_8  and  C_39
    2  A    between atoms: C_9  and  C_28
    3  A    between atoms: C_9  and  C_33
    4  A    between atoms: C_10  and  C_29
    5  A    between atoms: C_12  and  C_17
    6  A    between atoms: C_12  and  C_55
    7  A    between atoms: C_15  and  C_39
    8  A    between atoms: C_15  and  C_52
    9  A    between atoms: C_17  and  C_49
   10  A    between atoms: C_18  and  C_44
   11  A    between atoms: O_27  and  C_46
   12  A    between atoms: O_27  and  C_55
   13  A    between atoms: C_28  and  C_31
   14  A    between atoms: C_29  and  C_44
   15  A    between atoms: C_31  and  N_51
   16  A    between atoms: O_32  and  C_36
   17  A    between atoms: O_32  and  C_44
   18  A    between atoms: C_33  and  C_50
   19  A    between atoms: C_36  and  C_55
   20  A    between atoms: C_40  and  C_49
                            x       y       z     vdW  Elec       q    Type
                         _______ _______ _______ _____ _____    ______ ____

>  <TORSDO>
F 20

$$$$
=
 OpenBabel11042417523D

 55 59  0  0  1  0  0  0  0  0999 V2000
  195.1250  173.7690  143.6200 C   0  0  1  0  0  3  0  0  0  0  0  0
  195.8140  172.5190  143.3490 C   0  0  0  0  0  2  0  0  0  0  0  0
  195.2650  171.5620  144.2280 O   0  0  0  0  0  0  0  0  0  0  0  0
  195.6860  170.2870  143.7580 C   0  0  1  0  0  3  0  0  0  0  0  0
  194.7600  169.1400  144.2190 C   0  0  0  0  0  2  0  0  0  0  0  0
  193.7820  169.6300  145.0950 O   0  0  0  0  0  1  0  0  0  0  0  0
  195.4950  170.1620  142.2300 C   0  0  2  0  0  3  0  0  0  0  0  0
  194.2410  169.3000  141.9370 C   0  0  0  0  0  1  0  0  0  0  0  0
  197.7510  170.2170  140.8840 O   0  0  0  0  0  0  0  0  0  0  0  0
  196.6540  169.5100  141.4430 C   0  0  0  0  0  0  0  0  0  0  0  0
  196.6870  168.2480  141.3370 O   0  0  0  0  0  1  0  0  0  0  0  0
  195.1000  174.5210  142.4450 O   0  0  0  0  0  0  0  0  0  0  0  0
  196.7060  173.3240  141.1830 O   0  0  0  0  0  0  0  0  0  0  0  0
  193.1320  174.0180  140.7040 C   0  0  0  0  0  1  0  0  0  0  0  0
  195.5870  173.9050  141.2630 C   0  0  0  0  0  0  0  0  0  0  0  0
  194.4830  173.5490  140.4290 N   0  0  0  0  0  0  0  0  0  0  0  0
  194.7210  172.4800  139.4600 C   0  0  0  0  0  2  0  0  0  0  0  0
  194.0820  172.7450  138.1120 C   0  0  0  0  0  2  0  0  0  0  0  0
  192.7720  172.0130  137.8080 C   0  0  0  0  0  2  0  0  0  0  0  0
  192.5980  170.7910  138.7320 C   0  0  0  0  0  2  0  0  0  0  0  0
  189.2680  172.6940  139.7550 C   0  0  1  0  0  3  0  0  0  0  0  0
  187.8920  174.2010  142.0150 C   0  0  0  0  0  2  0  0  0  0  0  0
  191.1590  170.9090  140.9160 N   0  0  0  0  0  2  0  0  0  0  0  0
  188.3480  172.6920  142.2570 C   0  0  0  0  0  2  0  0  0  0  0  0
  190.3490  171.5470  141.8670 C   0  0  0  0  0  2  0  0  0  0  0  0
  188.1840  174.8210  140.5220 C   0  0  0  0  0  3  0  0  0  0  0  0
  190.5260  172.1860  138.8730 C   0  0  0  0  0  2  0  0  0  0  0  0
  189.4630  172.4080  141.3470 C   0  0  1  0  0  3  0  0  0  0  0  0
  188.8710  174.1630  139.5770 N   0  0  0  0  0  0  0  0  0  0  0  0
  191.2370  171.0170  139.4030 C   0  0  1  0  0  3  0  0  0  0  0  0
  193.8740  173.7850  144.4800 C   0  0  0  0  0  2  0  0  0  0  0  0
  194.4580  174.9530  145.3720 C   0  0  1  0  0  3  0  0  0  0  0  0
  195.8600  174.9920  145.8240 O   0  0  0  0  0  1  0  0  0  0  0  0
  193.9070  176.3580  145.1490 C   0  0  0  0  0  2  0  0  0  0  0  0
  188.3420  176.7710  144.8010 C   0  0  0  0  0  0  0  0  0  0  0  0
  191.4090  176.3920  145.2720 C   0  0  0  0  0  0  0  0  0  0  0  0
  192.0920  176.0670  147.4590 C   0  0  0  0  0  3  0  0  0  0  0  0
  187.0270  177.4370  144.2490 C   0  0  0  0  0  0  0  0  0  0  0  0
  189.5360  177.4810  142.8350 C   0  0  0  0  0  0  0  0  0  0  0  0
  191.5730  176.5390  143.8020 N   0  0  0  0  0  2  0  0  0  0  0  0
  189.0950  177.0100  143.8670 C   0  0  0  0  0  3  0  0  0  0  0  0
  188.0170  176.4740  147.1920 O   0  0  0  0  0  1  0  0  0  0  0  0
  191.0190  177.5040  142.7960 C   0  0  0  0  0  2  0  0  0  0  0  0
  190.8090  176.1840  147.5710 N   0  0  0  0  0  0  0  0  0  0  0  0
  187.1400  178.1620  142.7610 C   0  0  0  0  0  3  0  0  0  0  0  0
  188.8830  176.5460  146.0970 N   0  0  0  0  0  0  0  0  0  0  0  0
  190.3510  176.3200  146.2630 C   0  0  1  0  0  3  0  0  0  0  0  0
  188.4250  178.2100  142.1740 C   0  0  0  0  0  0  0  0  0  0  0  0
  192.5970  176.1080  145.9680 C   0  0  0  0  0  0  0  0  0  0  0  0
  188.9310  179.0190  141.2150 F   0  0  0  0  0  0  0  0  0  0  0  0
  185.7450  176.7760  144.7810 C   0  0  0  0  0  2  0  0  0  0  0  0
  185.0030  177.9840  145.4200 C   0  0  1  0  0  3  0  0  0  0  0  0
  184.1940  177.6230  146.5270 O   0  0  0  0  0  1  0  0  0  0  0  0
  185.9110  179.3650  147.4530 C   0  0  0  0  0  1  0  0  0  0  0  0
  185.8900  179.1220  145.9410 C   0  0  0  0  0  2  0  0  0  0  0  0
  1  2  1  6  0  0  0
  1 31  1  0  0  0  0
  2  3  1  0  0  0  0
  4  5  1  1  0  0  0
  4  3  1  0  0  0  0
  5  6  1  0  0  0  0
  7  8  1  1  0  0  0
  7  4  1  0  0  0  0
  9 10  2  0  0  0  0
 10  7  1  0  0  0  0
 11 10  1  0  0  0  0
 12  1  1  0  0  0  0
 13 15  2  0  0  0  0
 15 12  1  0  0  0  0
 16 14  1  0  0  0  0
 16 15  1  0  0  0  0
 17 16  1  0  0  0  0
 18 17  1  0  0  0  0
 19 18  1  0  0  0  0
 19 20  1  0  0  0  0
 21 27  1  6  0  0  0
 21 28  1  0  0  0  0
 22 24  1  0  0  0  0
 23 25  1  0  0  0  0
 26 22  1  0  0  0  0
 27 30  1  0  0  0  0
 28 25  1  6  0  0  0
 28 24  1  0  0  0  0
 29 21  1  0  0  0  0
 29 26  2  0  0  0  0
 30 20  1  1  0  0  0
 30 23  1  0  0  0  0
 31 32  1  0  0  0  0
 32 33  1  6  0  0  0
 34 32  1  0  0  0  0
 34 49  1  0  0  0  0
 35 46  1  0  0  0  0
 36 49  2  0  0  0  0
 37 44  2  0  0  0  0
 38 51  1  0  0  0  0
 38 35  1  0  0  0  0
 39 41  1  0  0  0  0
 40 36  1  0  0  0  0
 41 35  2  0  0  0  0
 43 39  1  0  0  0  0
 43 40  1  0  0  0  0
 45 38  2  0  0  0  0
 46 47  1  0  0  0  0
 46 42  1  0  0  0  0
 47 36  1  1  0  0  0
 47 44  1  0  0  0  0
 48 45  1  0  0  0  0
 48 39  2  0  0  0  0
 49 37  1  0  0  0  0
 50 48  1  0  0  0  0
 51 52  1  0  0  0  0
 52 55  1  0  0  0  0
 52 53  1  1  0  0  0
 55 54  1  0  0  0  0
M  END
>  <MODEL>
9

>  <REMARK>
 VINA RESULT:      -5.4      2.751      6.087
  Name = 
  20 active torsions:
  status: ('A' for Active; 'I' for Inactive)
    1  A    between atoms: C_8  and  C_39
    2  A    between atoms: C_9  and  C_28
    3  A    between atoms: C_9  and  C_33
    4  A    between atoms: C_10  and  C_29
    5  A    between atoms: C_12  and  C_17
    6  A    between atoms: C_12  and  C_55
    7  A    between atoms: C_15  and  C_39
    8  A    between atoms: C_15  and  C_52
    9  A    between atoms: C_17  and  C_49
   10  A    between atoms: C_18  and  C_44
   11  A    between atoms: O_27  and  C_46
   12  A    between atoms: O_27  and  C_55
   13  A    between atoms: C_28  and  C_31
   14  A    between atoms: C_29  and  C_44
   15  A    between atoms: C_31  and  N_51
   16  A    between atoms: O_32  and  C_36
   17  A    between atoms: O_32  and  C_44
   18  A    between atoms: C_33  and  C_50
   19  A    between atoms: C_36  and  C_55
   20  A    between atoms: C_40  and  C_49
                            x       y       z     vdW  Elec       q    Type
                         _______ _______ _______ _____ _____    ______ ____

>  <TORSDO>
F 20

$$$$
