=
 OpenBabel11042416043D

 58 66  0  0  1  0  0  0  0  0999 V2000
  194.6400  173.2730  142.1490 C   0  0  1  0  0  3  0  0  0  0  0  0
  195.4950  171.4520  143.4490 O   0  0  0  0  0  0  0  0  0  0  0  0
  196.2090  170.2310  143.2390 C   0  0  0  0  0  2  0  0  0  0  0  0
  194.0860  169.4330  142.2980 C   0  0  0  0  0  3  0  0  0  0  0  0
  193.5820  170.8980  142.2700 C   0  0  1  0  0  3  0  0  0  0  0  0
  195.2950  169.1430  142.8030 C   0  0  0  0  0  3  0  0  0  0  0  0
  194.8460  171.7770  142.2580 C   0  0  1  0  0  3  0  0  0  0  0  0
  192.5560  171.2300  141.2560 O   0  0  0  0  0  0  0  0  0  0  0  0
  190.6140  172.7680  139.3150 C   0  0  0  0  0  0  0  0  0  0  0  0
  191.2640  171.6990  141.6050 C   0  0  0  0  0  0  0  0  0  0  0  0
  189.6040  171.9480  143.3740 C   0  0  0  0  0  3  0  0  0  0  0  0
  190.3870  172.4770  140.7040 C   0  0  0  0  0  0  0  0  0  0  0  0
  190.1520  173.8590  137.2440 C   0  0  0  0  0  2  0  0  0  0  0  0
  188.3530  173.8480  140.5430 C   0  0  0  0  0  3  0  0  0  0  0  0
  190.7940  171.4460  142.8770 C   0  0  0  0  0  3  0  0  0  0  0  0
  191.3460  172.3170  136.0200 O   0  0  0  0  0  1  0  0  0  0  0  0
  188.6150  174.1680  139.2290 C   0  0  0  0  0  3  0  0  0  0  0  0
  189.7480  173.6130  138.6440 C   0  0  0  0  0  0  0  0  0  0  0  0
  191.6670  172.3030  138.3900 C   0  0  0  0  0  2  0  0  0  0  0  0
  189.2030  173.0130  141.2640 C   0  0  0  0  0  0  0  0  0  0  0  0
  191.4540  173.1220  137.0950 C   0  0  2  0  0  3  0  0  0  0  0  0
  188.8140  172.7600  142.5810 C   0  0  0  0  0  3  0  0  0  0  0  0
  194.5640  173.9960  143.4620 C   0  0  0  0  0  2  0  0  0  0  0  0
  194.3840  175.4460  143.3320 N   0  0  0  0  0  0  0  0  0  0  0  0
  196.3190  176.4950  142.6420 C   0  0  0  0  0  0  0  0  0  0  0  0
  195.5450  176.2110  143.7760 C   0  0  2  0  0  3  0  0  0  0  0  0
  196.7090  175.5230  143.7330 O   0  0  0  0  0  0  0  0  0  0  0  0
  196.4380  177.0630  141.5100 O   0  0  0  0  0  0  0  0  0  0  0  0
  192.0880  174.7570  143.7050 C   0  0  0  0  0  2  0  0  0  0  0  0
  191.7410  175.8750  142.7930 C   0  0  2  0  0  3  0  0  0  0  0  0
  192.9580  175.9510  143.7970 C   0  0  2  0  0  3  0  0  0  0  0  0
  190.3320  176.2000  143.4100 C   0  0  1  0  0  3  0  0  0  0  0  0
  187.5790  177.0060  144.3720 C   0  0  1  0  0  3  0  0  0  0  0  0
  189.2180  176.3810  142.5520 O   0  0  0  0  0  0  0  0  0  0  0  0
  190.2960  176.1670  146.5560 O   0  0  0  0  0  0  0  0  0  0  0  0
  185.1620  179.9810  144.3090 C   0  0  0  0  0  1  0  0  0  0  0  0
  186.4950  178.0030  144.7840 C   0  0  0  0  0  3  0  0  0  0  0  0
  186.9810  177.5030  142.0380 C   0  0  2  0  0  3  0  0  0  0  0  0
  186.4720  178.7970  142.5130 O   0  0  0  0  0  0  0  0  0  0  0  0
  187.9780  176.9090  143.1000 C   0  0  2  0  0  3  0  0  0  0  0  0
  190.0730  175.3630  144.4280 O   0  0  0  0  0  0  0  0  0  0  0  0
  187.4790  176.3130  146.8160 C   0  0  0  0  0  1  0  0  0  0  0  0
  189.5130  175.9160  145.5570 C   0  0  0  0  0  0  0  0  0  0  0  0
  188.2060  176.3650  145.5430 N   0  0  0  0  0  0  0  0  0  0  0  0
  186.0980  178.8660  143.8480 C   0  0  0  0  0  0  0  0  0  0  0  0
  187.4020  177.5340  140.6210 C   0  0  0  0  0  2  0  0  0  0  0  0
  186.3450  177.1820  139.7720 O   0  0  0  0  0  1  0  0  0  0  0  0
  195.2470  173.9000  140.8760 C   0  0  0  0  0  2  0  0  0  0  0  0
  194.3000  174.1900  139.8030 N   0  0  0  0  0  2  0  0  0  0  0  0
  194.9410  174.1000  138.4890 C   0  0  0  0  0  2  0  0  0  0  0  0
  196.3640  174.6990  138.6260 C   0  0  1  0  0  3  0  0  0  0  0  0
  197.3350  174.1400  137.8520 O   0  0  0  0  0  0  0  0  0  0  0  0
  196.7990  175.3880  137.4900 N   0  0  0  0  0  0  0  0  0  0  0  0
  196.3910  175.1490  136.0680 C   0  0  0  0  0  2  0  0  0  0  0  0
  195.5360  176.2060  135.5380 C   0  0  0  0  0  2  0  0  0  0  0  0
  194.4580  175.6920  134.5820 C   0  0  0  0  0  2  0  0  0  0  0  0
  192.9220  176.3920  136.0130 C   0  0  0  0  0  1  0  0  0  0  0  0
  193.2770  176.4420  134.6750 O   0  0  0  0  0  0  0  0  0  0  0  0
  1 48  1  6  0  0  0
  1 23  1  0  0  0  0
  3  2  1  0  0  0  0
  4  6  2  0  0  0  0
  5  8  1  6  0  0  0
  5  4  1  0  0  0  0
  6  3  1  0  0  0  0
  7  1  1  1  0  0  0
  7  5  1  0  0  0  0
  7  2  1  0  0  0  0
  8 10  1  0  0  0  0
  9 12  1  0  0  0  0
 10 15  1  0  0  0  0
 12 20  1  0  0  0  0
 12 10  2  0  0  0  0
 13 18  1  0  0  0  0
 14 20  1  0  0  0  0
 15 11  2  0  0  0  0
 17 14  2  0  0  0  0
 18 17  1  0  0  0  0
 18  9  2  0  0  0  0
 19  9  1  0  0  0  0
 20 22  2  0  0  0  0
 21 16  1  6  0  0  0
 21 13  1  0  0  0  0
 21 19  1  0  0  0  0
 22 11  1  0  0  0  0
 24 23  1  0  0  0  0
 25 27  1  0  0  0  0
 25 26  1  0  0  0  0
 26 24  1  6  0  0  0
 27 26  1  0  0  0  0
 28 25  2  0  0  0  0
 29 31  1  0  0  0  0
 30 32  1  0  0  0  0
 30 29  1  1  0  0  0
 30 31  1  0  0  0  0
 31 24  1  6  0  0  0
 32 34  1  6  0  0  0
 32 41  1  0  0  0  0
 33 37  1  1  0  0  0
 33 44  1  0  0  0  0
 38 46  1  6  0  0  0
 38 39  1  0  0  0  0
 38 40  1  0  0  0  0
 39 45  1  0  0  0  0
 40 34  1  1  0  0  0
 40 33  1  0  0  0  0
 41 43  1  0  0  0  0
 43 35  2  0  0  0  0
 44 43  1  0  0  0  0
 44 42  1  0  0  0  0
 45 36  1  0  0  0  0
 45 37  2  0  0  0  0
 47 46  1  0  0  0  0
 49 48  1  0  0  0  0
 50 49  1  0  0  0  0
 51 50  1  6  0  0  0
 52 51  1  0  0  0  0
 53 52  1  0  0  0  0
 53 51  1  0  0  0  0
 54 53  1  0  0  0  0
 55 54  1  0  0  0  0
 56 58  1  0  0  0  0
 56 55  1  0  0  0  0
 58 57  1  0  0  0  0
M  END
>  <MODEL>
1

>  <REMARK>
 VINA RESULT:      -6.5      0.000      0.000
  Name = 
  17 active torsions:
  status: ('A' for Active; 'I' for Inactive)
    1  A    between atoms: C_2  and  C_26
    2  A    between atoms: C_3  and  O_14
    3  A    between atoms: C_5  and  C_29
    4  A    between atoms: C_10  and  N_44
    5  A    between atoms: C_13  and  C_49
    6  A    between atoms: O_14  and  C_38
    7  A    between atoms: C_22  and  C_30
    8  A    between atoms: C_22  and  O_45
    9  A    between atoms: C_30  and  C_31
   10  A    between atoms: C_31  and  N_48
   11  A    between atoms: N_32  and  C_36
   12  A    between atoms: N_32  and  C_49
   13  A    between atoms: C_36  and  C_53
   14  A    between atoms: N_44  and  C_51
   15  A    between atoms: N_44  and  C_52
   16  A    between atoms: C_52  and  C_53
   17  A    between atoms: C_53  and  C_58
                            x       y       z     vdW  Elec       q    Type
                         _______ _______ _______ _____ _____    ______ ____

>  <TORSDO>
F 17

$$$$
=
 OpenBabel11042416043D

 58 66  0  0  1  0  0  0  0  0999 V2000
  194.1150  172.5230  142.9410 C   0  0  1  0  0  3  0  0  0  0  0  0
  194.2710  171.0690  144.8370 O   0  0  0  0  0  0  0  0  0  0  0  0
  194.7580  169.7600  145.1440 C   0  0  0  0  0  2  0  0  0  0  0  0
  192.7940  168.9960  143.8840 C   0  0  0  0  0  3  0  0  0  0  0  0
  192.6090  170.4400  143.3540 C   0  0  1  0  0  3  0  0  0  0  0  0
  193.7730  168.7160  144.7580 C   0  0  0  0  0  3  0  0  0  0  0  0
  193.9900  171.1110  143.4720 C   0  0  1  0  0  3  0  0  0  0  0  0
  191.9300  170.5880  142.0460 O   0  0  0  0  0  0  0  0  0  0  0  0
  190.6360  171.3850  139.2910 C   0  0  0  0  0  0  0  0  0  0  0  0
  190.7100  171.2970  141.8980 C   0  0  0  0  0  0  0  0  0  0  0  0
  188.8730  172.4330  143.0280 C   0  0  0  0  0  3  0  0  0  0  0  0
  190.1460  171.7210  140.5990 C   0  0  0  0  0  0  0  0  0  0  0  0
  190.7130  171.5630  136.9130 C   0  0  0  0  0  2  0  0  0  0  0  0
  188.4530  173.1140  139.4850 C   0  0  0  0  0  3  0  0  0  0  0  0
  190.0100  171.6450  143.0330 C   0  0  0  0  0  3  0  0  0  0  0  0
  191.7730  169.5330  136.6680 O   0  0  0  0  0  1  0  0  0  0  0  0
  188.9720  172.8300  138.2390 C   0  0  0  0  0  3  0  0  0  0  0  0
  190.0570  171.9640  138.1760 C   0  0  0  0  0  0  0  0  0  0  0  0
  191.7140  170.4680  138.8690 C   0  0  0  0  0  2  0  0  0  0  0  0
  189.0100  172.5650  140.6380 C   0  0  0  0  0  0  0  0  0  0  0  0
  191.8610  170.6950  137.3460 C   0  0  2  0  0  3  0  0  0  0  0  0
  188.3810  172.9240  141.8310 C   0  0  0  0  0  3  0  0  0  0  0  0
  193.6570  173.5950  143.8880 C   0  0  0  0  0  2  0  0  0  0  0  0
  193.7880  174.9550  143.3530 N   0  0  0  0  0  0  0  0  0  0  0  0
  195.1420  175.6370  145.0920 C   0  0  0  0  0  0  0  0  0  0  0  0
  195.0610  175.5840  143.6930 C   0  0  2  0  0  3  0  0  0  0  0  0
  194.9420  176.8350  144.1930 O   0  0  0  0  0  0  0  0  0  0  0  0
  195.1980  175.0320  146.2100 O   0  0  0  0  0  0  0  0  0  0  0  0
  191.4670  174.8920  144.0560 C   0  0  0  0  0  2  0  0  0  0  0  0
  191.1790  175.4340  142.7060 C   0  0  2  0  0  3  0  0  0  0  0  0
  192.4780  175.8280  143.5140 C   0  0  2  0  0  3  0  0  0  0  0  0
  189.8770  176.2290  143.0880 C   0  0  1  0  0  3  0  0  0  0  0  0
  187.4040  177.6520  144.0940 C   0  0  1  0  0  3  0  0  0  0  0  0
  189.7870  176.8550  144.3570 O   0  0  0  0  0  0  0  0  0  0  0  0
  187.7790  176.4100  140.7510 O   0  0  0  0  0  0  0  0  0  0  0  0
  184.5950  177.2640  146.6750 C   0  0  0  0  0  1  0  0  0  0  0  0
  186.0350  177.7340  144.7720 C   0  0  0  0  0  3  0  0  0  0  0  0
  188.3860  177.6270  146.3490 C   0  0  2  0  0  3  0  0  0  0  0  0
  187.1030  177.0950  146.8300 O   0  0  0  0  0  0  0  0  0  0  0  0
  188.5070  177.3830  144.7990 C   0  0  2  0  0  3  0  0  0  0  0  0
  189.5250  177.0450  142.0810 O   0  0  0  0  0  0  0  0  0  0  0  0
  186.1020  178.3130  142.0130 C   0  0  0  0  0  1  0  0  0  0  0  0
  188.1870  177.1000  141.7670 C   0  0  0  0  0  0  0  0  0  0  0  0
  187.2900  177.7090  142.6250 N   0  0  0  0  0  0  0  0  0  0  0  0
  185.9860  177.3680  146.0530 C   0  0  0  0  0  0  0  0  0  0  0  0
  189.5270  177.2470  147.2100 C   0  0  0  0  0  2  0  0  0  0  0  0
  189.9170  178.3130  148.0300 O   0  0  0  0  0  1  0  0  0  0  0  0
  195.2770  172.7200  141.9440 C   0  0  0  0  0  2  0  0  0  0  0  0
  194.9370  172.5350  140.5360 N   0  0  0  0  0  2  0  0  0  0  0  0
  193.7430  173.3020  140.1720 C   0  0  0  0  0  2  0  0  0  0  0  0
  194.2080  174.7340  139.8020 C   0  0  1  0  0  3  0  0  0  0  0  0
  195.3950  174.8360  139.1440 O   0  0  0  0  0  0  0  0  0  0  0  0
  194.1950  174.9960  138.4290 N   0  0  0  0  0  0  0  0  0  0  0  0
  194.3660  174.0110  137.3140 C   0  0  0  0  0  2  0  0  0  0  0  0
  193.2910  174.0780  136.3290 C   0  0  0  0  0  2  0  0  0  0  0  0
  192.3210  175.2370  136.5680 C   0  0  0  0  0  2  0  0  0  0  0  0
  192.8940  177.1240  135.5640 C   0  0  0  0  0  1  0  0  0  0  0  0
  192.1120  175.9910  135.4050 O   0  0  0  0  0  0  0  0  0  0  0  0
  1 48  1  1  0  0  0
  1 23  1  0  0  0  0
  2  3  1  0  0  0  0
  4  6  2  0  0  0  0
  5  8  1  6  0  0  0
  5  7  1  0  0  0  0
  5  4  1  0  0  0  0
  6  3  1  0  0  0  0
  7  1  1  1  0  0  0
  7  2  1  0  0  0  0
  9 12  1  0  0  0  0
 10  8  1  0  0  0  0
 10 15  1  0  0  0  0
 11 15  2  0  0  0  0
 12 20  1  0  0  0  0
 12 10  2  0  0  0  0
 13 21  1  0  0  0  0
 13 18  1  0  0  0  0
 14 20  1  0  0  0  0
 17 14  2  0  0  0  0
 18 17  1  0  0  0  0
 18  9  2  0  0  0  0
 19  9  1  0  0  0  0
 20 22  2  0  0  0  0
 21 16  1  6  0  0  0
 21 19  1  0  0  0  0
 22 11  1  0  0  0  0
 24 23  1  0  0  0  0
 25 28  2  0  0  0  0
 26 24  1  1  0  0  0
 26 27  1  0  0  0  0
 26 25  1  0  0  0  0
 27 25  1  0  0  0  0
 30 32  1  0  0  0  0
 30 31  1  0  0  0  0
 30 29  1  1  0  0  0
 31 24  1  6  0  0  0
 31 29  1  0  0  0  0
 32 41  1  6  0  0  0
 32 34  1  0  0  0  0
 33 37  1  6  0  0  0
 33 40  1  0  0  0  0
 35 43  2  0  0  0  0
 37 45  2  0  0  0  0
 38 39  1  0  0  0  0
 38 46  1  1  0  0  0
 40 34  1  1  0  0  0
 40 38  1  0  0  0  0
 42 44  1  0  0  0  0
 43 41  1  0  0  0  0
 43 44  1  0  0  0  0
 44 33  1  0  0  0  0
 45 36  1  0  0  0  0
 45 39  1  0  0  0  0
 46 47  1  0  0  0  0
 49 48  1  0  0  0  0
 50 49  1  0  0  0  0
 51 50  1  6  0  0  0
 52 51  1  0  0  0  0
 53 52  1  0  0  0  0
 53 51  1  0  0  0  0
 54 53  1  0  0  0  0
 55 56  1  0  0  0  0
 55 54  1  0  0  0  0
 58 57  1  0  0  0  0
 58 56  1  0  0  0  0
M  END
>  <MODEL>
2

>  <REMARK>
 VINA RESULT:      -6.5      1.752      2.870
  Name = 
  17 active torsions:
  status: ('A' for Active; 'I' for Inactive)
    1  A    between atoms: C_2  and  C_26
    2  A    between atoms: C_3  and  O_14
    3  A    between atoms: C_5  and  C_29
    4  A    between atoms: C_10  and  N_44
    5  A    between atoms: C_13  and  C_49
    6  A    between atoms: O_14  and  C_38
    7  A    between atoms: C_22  and  C_30
    8  A    between atoms: C_22  and  O_45
    9  A    between atoms: C_30  and  C_31
   10  A    between atoms: C_31  and  N_48
   11  A    between atoms: N_32  and  C_36
   12  A    between atoms: N_32  and  C_49
   13  A    between atoms: C_36  and  C_53
   14  A    between atoms: N_44  and  C_51
   15  A    between atoms: N_44  and  C_52
   16  A    between atoms: C_52  and  C_53
   17  A    between atoms: C_53  and  C_58
                            x       y       z     vdW  Elec       q    Type
                         _______ _______ _______ _____ _____    ______ ____

>  <TORSDO>
F 17

$$$$
=
 OpenBabel11042416043D

 58 66  0  0  1  0  0  0  0  0999 V2000
  193.9130  172.8190  143.6630 C   0  0  1  0  0  3  0  0  0  0  0  0
  194.1670  171.1760  145.3870 O   0  0  0  0  0  0  0  0  0  0  0  0
  194.8270  169.9230  145.5800 C   0  0  0  0  0  2  0  0  0  0  0  0
  193.0860  169.0490  144.0860 C   0  0  0  0  0  3  0  0  0  0  0  0
  192.7180  170.5070  143.7110 C   0  0  1  0  0  3  0  0  0  0  0  0
  194.0380  168.8050  144.9990 C   0  0  0  0  0  3  0  0  0  0  0  0
  193.9710  171.3480  144.0170 C   0  0  1  0  0  3  0  0  0  0  0  0
  192.1090  170.7180  142.3780 O   0  0  0  0  0  0  0  0  0  0  0  0
  190.9300  171.6610  139.6170 C   0  0  0  0  0  0  0  0  0  0  0  0
  190.8540  171.3580  142.2080 C   0  0  0  0  0  0  0  0  0  0  0  0
  188.8790  172.2780  143.3020 C   0  0  0  0  0  3  0  0  0  0  0  0
  190.3410  171.8540  140.9130 C   0  0  0  0  0  0  0  0  0  0  0  0
  191.1380  172.0430  137.2710 C   0  0  0  0  0  2  0  0  0  0  0  0
  188.6270  173.2260  139.8050 C   0  0  0  0  0  3  0  0  0  0  0  0
  190.0650  171.5650  143.3190 C   0  0  0  0  0  3  0  0  0  0  0  0
  192.3460  170.1120  136.9340 O   0  0  0  0  0  1  0  0  0  0  0  0
  189.2380  173.0820  138.5780 C   0  0  0  0  0  3  0  0  0  0  0  0
  190.3820  172.2940  138.5160 C   0  0  0  0  0  0  0  0  0  0  0  0
  192.0910  170.8530  139.1950 C   0  0  0  0  0  2  0  0  0  0  0  0
  189.1500  172.6190  140.9450 C   0  0  0  0  0  0  0  0  0  0  0  0
  192.3140  171.2160  137.7070 C   0  0  2  0  0  3  0  0  0  0  0  0
  188.4270  172.8360  142.1200 C   0  0  0  0  0  3  0  0  0  0  0  0
  193.9830  173.7530  144.8370 C   0  0  0  0  0  2  0  0  0  0  0  0
  193.8500  175.1690  144.4770 N   0  0  0  0  0  0  0  0  0  0  0  0
  195.8120  176.1550  143.7680 C   0  0  0  0  0  0  0  0  0  0  0  0
  194.9940  175.9760  144.8930 C   0  0  2  0  0  3  0  0  0  0  0  0
  196.1580  175.2910  144.9590 O   0  0  0  0  0  0  0  0  0  0  0  0
  195.9750  176.6160  142.5930 O   0  0  0  0  0  0  0  0  0  0  0  0
  191.5580  174.5720  144.9980 C   0  0  0  0  0  2  0  0  0  0  0  0
  191.2140  175.3610  143.7900 C   0  0  2  0  0  3  0  0  0  0  0  0
  192.4070  175.7590  144.7470 C   0  0  2  0  0  3  0  0  0  0  0  0
  189.7870  175.8250  144.2580 C   0  0  1  0  0  3  0  0  0  0  0  0
  187.0180  176.8590  144.9050 C   0  0  1  0  0  3  0  0  0  0  0  0
  188.7310  175.8990  143.3140 O   0  0  0  0  0  0  0  0  0  0  0  0
  189.5710  176.3010  147.3600 O   0  0  0  0  0  0  0  0  0  0  0  0
  184.7300  179.8570  144.2180 C   0  0  0  0  0  1  0  0  0  0  0  0
  185.9540  177.9430  145.0850 C   0  0  0  0  0  3  0  0  0  0  0  0
  186.5740  176.9910  142.4890 C   0  0  2  0  0  3  0  0  0  0  0  0
  186.0910  178.3600  142.7190 O   0  0  0  0  0  0  0  0  0  0  0  0
  187.4850  176.5460  143.6920 C   0  0  2  0  0  3  0  0  0  0  0  0
  189.4370  175.1720  145.3780 O   0  0  0  0  0  0  0  0  0  0  0  0
  186.7520  176.5740  147.4170 C   0  0  0  0  0  1  0  0  0  0  0  0
  188.8370  175.9160  146.3670 C   0  0  0  0  0  0  0  0  0  0  0  0
  187.5510  176.3970  146.2000 N   0  0  0  0  0  0  0  0  0  0  0  0
  185.6450  178.6540  144.0000 C   0  0  0  0  0  0  0  0  0  0  0  0
  187.0750  176.7790  141.1140 C   0  0  0  0  0  2  0  0  0  0  0  0
  187.8070  177.8860  140.6670 O   0  0  0  0  0  1  0  0  0  0  0  0
  194.5100  173.1570  142.2810 C   0  0  0  0  0  2  0  0  0  0  0  0
  193.5430  173.5120  141.2460 N   0  0  0  0  0  2  0  0  0  0  0  0
  193.9600  174.7130  140.5180 C   0  0  0  0  0  2  0  0  0  0  0  0
  193.6510  174.4760  139.0170 C   0  0  1  0  0  3  0  0  0  0  0  0
  194.1190  175.4110  138.1460 O   0  0  0  0  0  0  0  0  0  0  0  0
  194.7780  174.1740  138.2480 N   0  0  0  0  0  0  0  0  0  0  0  0
  196.1930  174.5970  138.5020 C   0  0  0  0  0  2  0  0  0  0  0  0
  197.1160  173.4710  138.5810 C   0  0  0  0  0  2  0  0  0  0  0  0
  196.4560  172.1770  139.0620 C   0  0  0  0  0  2  0  0  0  0  0  0
  195.8640  170.2010  138.2610 C   0  0  0  0  0  1  0  0  0  0  0  0
  196.9480  171.0550  138.3820 O   0  0  0  0  0  0  0  0  0  0  0  0
  1 48  1  6  0  0  0
  1 23  1  0  0  0  0
  2  3  1  0  0  0  0
  4  6  2  0  0  0  0
  5  8  1  6  0  0  0
  5  7  1  0  0  0  0
  5  4  1  0  0  0  0
  6  3  1  0  0  0  0
  7  1  1  1  0  0  0
  7  2  1  0  0  0  0
  9 12  1  0  0  0  0
 10  8  1  0  0  0  0
 10 15  1  0  0  0  0
 11 15  2  0  0  0  0
 12 20  1  0  0  0  0
 12 10  2  0  0  0  0
 13 21  1  0  0  0  0
 13 18  1  0  0  0  0
 14 20  1  0  0  0  0
 17 14  2  0  0  0  0
 18 17  1  0  0  0  0
 18  9  2  0  0  0  0
 19  9  1  0  0  0  0
 20 22  2  0  0  0  0
 21 16  1  6  0  0  0
 21 19  1  0  0  0  0
 22 11  1  0  0  0  0
 24 23  1  0  0  0  0
 25 26  1  0  0  0  0
 25 27  1  0  0  0  0
 26 24  1  6  0  0  0
 26 27  1  0  0  0  0
 28 25  2  0  0  0  0
 30 32  1  0  0  0  0
 30 31  1  0  0  0  0
 30 29  1  1  0  0  0
 31 24  1  6  0  0  0
 31 29  1  0  0  0  0
 32 34  1  6  0  0  0
 32 41  1  0  0  0  0
 33 37  1  1  0  0  0
 33 44  1  0  0  0  0
 38 46  1  6  0  0  0
 38 39  1  0  0  0  0
 38 40  1  0  0  0  0
 39 45  1  0  0  0  0
 40 34  1  6  0  0  0
 40 33  1  0  0  0  0
 41 43  1  0  0  0  0
 43 35  2  0  0  0  0
 44 43  1  0  0  0  0
 44 42  1  0  0  0  0
 45 36  1  0  0  0  0
 45 37  2  0  0  0  0
 47 46  1  0  0  0  0
 49 48  1  0  0  0  0
 50 49  1  0  0  0  0
 51 50  1  1  0  0  0
 52 53  1  0  0  0  0
 52 51  1  0  0  0  0
 53 54  1  0  0  0  0
 53 51  1  0  0  0  0
 54 55  1  0  0  0  0
 55 56  1  0  0  0  0
 57 58  1  0  0  0  0
 58 56  1  0  0  0  0
M  END
>  <MODEL>
3

>  <REMARK>
 VINA RESULT:      -6.4      1.685      2.283
  Name = 
  17 active torsions:
  status: ('A' for Active; 'I' for Inactive)
    1  A    between atoms: C_2  and  C_26
    2  A    between atoms: C_3  and  O_14
    3  A    between atoms: C_5  and  C_29
    4  A    between atoms: C_10  and  N_44
    5  A    between atoms: C_13  and  C_49
    6  A    between atoms: O_14  and  C_38
    7  A    between atoms: C_22  and  C_30
    8  A    between atoms: C_22  and  O_45
    9  A    between atoms: C_30  and  C_31
   10  A    between atoms: C_31  and  N_48
   11  A    between atoms: N_32  and  C_36
   12  A    between atoms: N_32  and  C_49
   13  A    between atoms: C_36  and  C_53
   14  A    between atoms: N_44  and  C_51
   15  A    between atoms: N_44  and  C_52
   16  A    between atoms: C_52  and  C_53
   17  A    between atoms: C_53  and  C_58
                            x       y       z     vdW  Elec       q    Type
                         _______ _______ _______ _____ _____    ______ ____

>  <TORSDO>
F 17

$$$$
=
 OpenBabel11042416043D

 58 66  0  0  1  0  0  0  0  0999 V2000
  191.9840  174.8740  144.0850 C   0  0  1  0  0  3  0  0  0  0  0  0
  192.6610  176.2150  145.9490 O   0  0  0  0  0  0  0  0  0  0  0  0
  192.4930  176.2350  147.3690 C   0  0  0  0  0  2  0  0  0  0  0  0
  190.1990  176.9380  146.8460 C   0  0  0  0  0  3  0  0  0  0  0  0
  190.4410  176.5290  145.3710 C   0  0  1  0  0  3  0  0  0  0  0  0
  191.1880  176.8390  147.7470 C   0  0  0  0  0  3  0  0  0  0  0  0
  191.5910  175.5060  145.4030 C   0  0  1  0  0  3  0  0  0  0  0  0
  189.2500  176.1360  144.5850 O   0  0  0  0  0  0  0  0  0  0  0  0
  186.5130  177.5480  145.2300 C   0  0  0  0  0  0  0  0  0  0  0  0
  188.5780  177.0380  143.7190 C   0  0  0  0  0  0  0  0  0  0  0  0
  188.5630  178.1260  141.5370 C   0  0  0  0  0  3  0  0  0  0  0  0
  187.2610  177.6440  144.0070 C   0  0  0  0  0  0  0  0  0  0  0  0
  184.5790  177.8450  146.5960 C   0  0  0  0  0  2  0  0  0  0  0  0
  185.3710  178.9150  143.0820 C   0  0  0  0  0  3  0  0  0  0  0  0
  189.1680  177.3540  142.5140 C   0  0  0  0  0  3  0  0  0  0  0  0
  185.7710  177.6230  148.5530 O   0  0  0  0  0  1  0  0  0  0  0  0
  184.6400  178.7630  144.2400 C   0  0  0  0  0  3  0  0  0  0  0  0
  185.2370  178.0790  145.2930 C   0  0  0  0  0  0  0  0  0  0  0  0
  186.8660  176.9530  146.5340 C   0  0  0  0  0  2  0  0  0  0  0  0
  186.6540  178.3860  142.9650 C   0  0  0  0  0  0  0  0  0  0  0  0
  185.5650  177.0140  147.3690 C   0  0  2  0  0  3  0  0  0  0  0  0
  187.2880  178.6230  141.7440 C   0  0  0  0  0  3  0  0  0  0  0  0
  193.3320  174.2110  144.0790 C   0  0  0  0  0  2  0  0  0  0  0  0
  194.2480  174.7370  143.0600 N   0  0  0  0  0  0  0  0  0  0  0  0
  195.9530  176.2690  142.8060 C   0  0  0  0  0  0  0  0  0  0  0  0
  194.6530  176.1160  143.3100 C   0  0  2  0  0  3  0  0  0  0  0  0
  195.5920  176.2500  144.2740 O   0  0  0  0  0  0  0  0  0  0  0  0
  196.7530  176.2640  141.8170 O   0  0  0  0  0  0  0  0  0  0  0  0
  193.7810  172.8750  141.5760 C   0  0  0  0  0  2  0  0  0  0  0  0
  194.8150  173.4820  140.7020 C   0  0  2  0  0  3  0  0  0  0  0  0
  193.8350  174.3540  141.5810 C   0  0  2  0  0  3  0  0  0  0  0  0
  194.2300  172.9810  139.3310 C   0  0  1  0  0  3  0  0  0  0  0  0
  192.9750  172.2760  136.6690 C   0  0  1  0  0  3  0  0  0  0  0  0
  194.1280  173.8840  138.2420 O   0  0  0  0  0  0  0  0  0  0  0  0
  193.5920  169.9010  139.2840 O   0  0  0  0  0  0  0  0  0  0  0  0
  189.8600  173.0220  134.5630 C   0  0  0  0  0  1  0  0  0  0  0  0
  191.8120  172.1090  135.6910 C   0  0  0  0  0  3  0  0  0  0  0  0
  192.9280  174.6750  136.1310 C   0  0  2  0  0  3  0  0  0  0  0  0
  191.5190  174.4960  135.7530 O   0  0  0  0  0  0  0  0  0  0  0  0
  193.3780  173.4890  137.0610 C   0  0  2  0  0  3  0  0  0  0  0  0
  194.8030  171.8160  138.9870 O   0  0  0  0  0  0  0  0  0  0  0  0
  193.1200  169.7440  136.4950 C   0  0  0  0  0  1  0  0  0  0  0  0
  193.9720  170.8420  138.4820 C   0  0  0  0  0  0  0  0  0  0  0  0
  193.4110  170.9820  137.2260 N   0  0  0  0  0  0  0  0  0  0  0  0
  191.1330  173.2150  135.3840 C   0  0  0  0  0  0  0  0  0  0  0  0
  193.2400  176.0570  136.5560 C   0  0  0  0  0  2  0  0  0  0  0  0
  192.7300  176.9930  135.6470 O   0  0  0  0  0  1  0  0  0  0  0  0
  190.7900  174.3600  143.2530 C   0  0  0  0  0  2  0  0  0  0  0  0
  190.3710  172.9890  143.5310 N   0  0  0  0  0  2  0  0  0  0  0  0
  189.9220  172.3130  142.3120 C   0  0  0  0  0  2  0  0  0  0  0  0
  188.3880  172.5140  142.2100 C   0  0  1  0  0  3  0  0  0  0  0  0
  187.9410  173.8000  142.2400 O   0  0  0  0  0  0  0  0  0  0  0  0
  187.9740  173.1110  141.0150 N   0  0  0  0  0  0  0  0  0  0  0  0
  188.7540  174.0530  140.1500 C   0  0  0  0  0  2  0  0  0  0  0  0
  188.5210  173.8400  138.7260 C   0  0  0  0  0  2  0  0  0  0  0  0
  188.9400  172.4500  138.2430 C   0  0  0  0  0  2  0  0  0  0  0  0
  190.1400  170.6650  138.7610 C   0  0  0  0  0  1  0  0  0  0  0  0
  190.1620  172.0490  138.8010 O   0  0  0  0  0  0  0  0  0  0  0  0
  1 48  1  1  0  0  0
  2  3  1  0  0  0  0
  3  6  1  0  0  0  0
  4  6  2  0  0  0  0
  5  8  1  1  0  0  0
  5  7  1  0  0  0  0
  5  4  1  0  0  0  0
  7  1  1  6  0  0  0
  7  2  1  0  0  0  0
  9 18  1  0  0  0  0
  9 19  1  0  0  0  0
 10 12  1  0  0  0  0
 10  8  1  0  0  0  0
 11 22  2  0  0  0  0
 11 15  1  0  0  0  0
 12  9  2  0  0  0  0
 13 21  1  0  0  0  0
 14 17  1  0  0  0  0
 15 10  2  0  0  0  0
 17 18  2  0  0  0  0
 18 13  1  0  0  0  0
 19 21  1  0  0  0  0
 20 14  2  0  0  0  0
 20 12  1  0  0  0  0
 21 16  1  1  0  0  0
 22 20  1  0  0  0  0
 23  1  1  0  0  0  0
 24 23  1  0  0  0  0
 25 26  1  0  0  0  0
 25 27  1  0  0  0  0
 26 24  1  1  0  0  0
 26 27  1  0  0  0  0
 28 25  2  0  0  0  0
 29 31  1  0  0  0  0
 30 29  1  1  0  0  0
 30 31  1  0  0  0  0
 31 24  1  1  0  0  0
 32 34  1  6  0  0  0
 32 30  1  0  0  0  0
 33 37  1  1  0  0  0
 33 40  1  0  0  0  0
 33 44  1  0  0  0  0
 36 45  1  0  0  0  0
 38 46  1  1  0  0  0
 38 40  1  0  0  0  0
 39 38  1  0  0  0  0
 40 34  1  1  0  0  0
 41 32  1  0  0  0  0
 42 44  1  0  0  0  0
 43 41  1  0  0  0  0
 43 35  2  0  0  0  0
 44 43  1  0  0  0  0
 45 37  2  0  0  0  0
 45 39  1  0  0  0  0
 47 46  1  0  0  0  0
 48 49  1  0  0  0  0
 50 49  1  0  0  0  0
 51 52  1  0  0  0  0
 51 50  1  6  0  0  0
 53 51  1  0  0  0  0
 53 52  1  0  0  0  0
 54 53  1  0  0  0  0
 55 54  1  0  0  0  0
 56 55  1  0  0  0  0
 56 58  1  0  0  0  0
 57 58  1  0  0  0  0
M  END
>  <MODEL>
4

>  <REMARK>
 VINA RESULT:      -6.4      2.273      8.149
  Name = 
  17 active torsions:
  status: ('A' for Active; 'I' for Inactive)
    1  A    between atoms: C_2  and  C_26
    2  A    between atoms: C_3  and  O_14
    3  A    between atoms: C_5  and  C_29
    4  A    between atoms: C_10  and  N_44
    5  A    between atoms: C_13  and  C_49
    6  A    between atoms: O_14  and  C_38
    7  A    between atoms: C_22  and  C_30
    8  A    between atoms: C_22  and  O_45
    9  A    between atoms: C_30  and  C_31
   10  A    between atoms: C_31  and  N_48
   11  A    between atoms: N_32  and  C_36
   12  A    between atoms: N_32  and  C_49
   13  A    between atoms: C_36  and  C_53
   14  A    between atoms: N_44  and  C_51
   15  A    between atoms: N_44  and  C_52
   16  A    between atoms: C_52  and  C_53
   17  A    between atoms: C_53  and  C_58
                            x       y       z     vdW  Elec       q    Type
                         _______ _______ _______ _____ _____    ______ ____

>  <TORSDO>
F 17

$$$$
=
 OpenBabel11042416043D

 58 66  0  0  1  0  0  0  0  0999 V2000
  192.9640  174.1390  144.1160 C   0  0  1  0  0  3  0  0  0  0  0  0
  193.6470  172.4620  145.6830 O   0  0  0  0  0  0  0  0  0  0  0  0
  194.7140  171.5250  145.8490 C   0  0  0  0  0  2  0  0  0  0  0  0
  193.6130  170.3130  144.0210 C   0  0  0  0  0  3  0  0  0  0  0  0
  192.7540  171.5720  143.7420 C   0  0  1  0  0  3  0  0  0  0  0  0
  194.4830  170.2990  145.0420 C   0  0  0  0  0  3  0  0  0  0  0  0
  193.5460  172.7570  144.3240 C   0  0  1  0  0  3  0  0  0  0  0  0
  192.2550  171.7460  142.3590 O   0  0  0  0  0  0  0  0  0  0  0  0
  191.0340  171.8570  139.4610 C   0  0  0  0  0  0  0  0  0  0  0  0
  190.8820  171.9430  142.0650 C   0  0  0  0  0  0  0  0  0  0  0  0
  188.6550  172.3770  142.9600 C   0  0  0  0  0  3  0  0  0  0  0  0
  190.3300  172.0580  140.6970 C   0  0  0  0  0  0  0  0  0  0  0  0
  191.2730  171.9240  137.0880 C   0  0  0  0  0  2  0  0  0  0  0  0
  188.3650  172.6630  139.3500 C   0  0  0  0  0  3  0  0  0  0  0  0
  189.9950  172.0670  143.1140 C   0  0  0  0  0  3  0  0  0  0  0  0
  193.0180  170.4220  137.0940 O   0  0  0  0  0  1  0  0  0  0  0  0
  189.0700  172.5260  138.1740 C   0  0  0  0  0  3  0  0  0  0  0  0
  190.3970  172.1210  138.2620 C   0  0  0  0  0  0  0  0  0  0  0  0
  192.4080  171.3840  139.1970 C   0  0  0  0  0  2  0  0  0  0  0  0
  188.9680  172.4230  140.5830 C   0  0  0  0  0  0  0  0  0  0  0  0
  192.6100  171.5680  137.6740 C   0  0  2  0  0  3  0  0  0  0  0  0
  188.1380  172.5860  141.6940 C   0  0  0  0  0  3  0  0  0  0  0  0
  191.8230  174.4870  145.0290 C   0  0  0  0  0  2  0  0  0  0  0  0
  191.5070  175.9190  145.0670 N   0  0  0  0  0  0  0  0  0  0  0  0
  192.7370  176.4110  146.9560 C   0  0  0  0  0  0  0  0  0  0  0  0
  191.4410  176.4560  146.4220 C   0  0  2  0  0  3  0  0  0  0  0  0
  191.5920  175.5260  147.3930 O   0  0  0  0  0  0  0  0  0  0  0  0
  193.9520  176.7880  146.9180 O   0  0  0  0  0  0  0  0  0  0  0  0
  189.6730  177.4690  144.7240 C   0  0  0  0  0  2  0  0  0  0  0  0
  188.8540  176.2500  144.5130 C   0  0  2  0  0  3  0  0  0  0  0  0
  190.3640  176.3420  144.0580 C   0  0  2  0  0  3  0  0  0  0  0  0
  187.8090  176.8860  143.5250 C   0  0  1  0  0  3  0  0  0  0  0  0
  185.6160  178.1250  141.8490 C   0  0  1  0  0  3  0  0  0  0  0  0
  186.9670  177.9330  143.9760 O   0  0  0  0  0  0  0  0  0  0  0  0
  187.9990  175.7580  140.5940 O   0  0  0  0  0  0  0  0  0  0  0  0
  181.7930  178.2890  141.6090 C   0  0  0  0  0  1  0  0  0  0  0  0
  184.2010  178.2210  141.2750 C   0  0  0  0  0  3  0  0  0  0  0  0
  184.7290  179.1620  143.8950 C   0  0  2  0  0  3  0  0  0  0  0  0
  183.4100  178.6440  143.5070 O   0  0  0  0  0  0  0  0  0  0  0  0
  185.8510  178.3560  143.1440 C   0  0  2  0  0  3  0  0  0  0  0  0
  188.3990  177.1640  142.3510 O   0  0  0  0  0  0  0  0  0  0  0  0
  186.2640  177.6720  139.4330 C   0  0  0  0  0  1  0  0  0  0  0  0
  187.6920  176.8520  141.2130 C   0  0  0  0  0  0  0  0  0  0  0  0
  186.5690  177.5790  140.8640 N   0  0  0  0  0  0  0  0  0  0  0  0
  183.2150  178.3860  142.1570 C   0  0  0  0  0  0  0  0  0  0  0  0
  184.8650  179.3610  145.3540 C   0  0  0  0  0  2  0  0  0  0  0  0
  184.2540  178.3210  146.0650 O   0  0  0  0  0  1  0  0  0  0  0  0
  193.9830  175.1810  143.6070 C   0  0  0  0  0  2  0  0  0  0  0  0
  195.3880  174.8200  143.7710 N   0  0  0  0  0  2  0  0  0  0  0  0
  196.2580  175.9890  143.6230 C   0  0  0  0  0  2  0  0  0  0  0  0
  197.6610  175.4740  143.2110 C   0  0  1  0  0  3  0  0  0  0  0  0
  197.6920  174.3650  142.4220 O   0  0  0  0  0  0  0  0  0  0  0  0
  197.9410  175.6240  141.8490 N   0  0  0  0  0  0  0  0  0  0  0  0
  196.9620  175.6480  140.7160 C   0  0  0  0  0  2  0  0  0  0  0  0
  197.5950  175.4580  139.4160 C   0  0  0  0  0  2  0  0  0  0  0  0
  197.8850  173.9910  139.0900 C   0  0  0  0  0  2  0  0  0  0  0  0
  197.4100  172.5840  137.4500 C   0  0  0  0  0  1  0  0  0  0  0  0
  196.8190  173.3850  138.4130 O   0  0  0  0  0  0  0  0  0  0  0  0
  1 48  1  1  0  0  0
  1 23  1  0  0  0  0
  2  3  1  0  0  0  0
  4  6  2  0  0  0  0
  5  8  1  6  0  0  0
  5  4  1  0  0  0  0
  5  7  1  0  0  0  0
  6  3  1  0  0  0  0
  7  1  1  1  0  0  0
  7  2  1  0  0  0  0
  9 12  1  0  0  0  0
 10  8  1  0  0  0  0
 10 15  1  0  0  0  0
 11 15  2  0  0  0  0
 12 10  2  0  0  0  0
 13 21  1  0  0  0  0
 13 18  1  0  0  0  0
 14 20  1  0  0  0  0
 17 18  1  0  0  0  0
 17 14  2  0  0  0  0
 18  9  2  0  0  0  0
 19  9  1  0  0  0  0
 20 12  1  0  0  0  0
 20 22  2  0  0  0  0
 21 16  1  6  0  0  0
 21 19  1  0  0  0  0
 22 11  1  0  0  0  0
 23 24  1  0  0  0  0
 25 27  1  0  0  0  0
 26 24  1  6  0  0  0
 26 25  1  0  0  0  0
 26 27  1  0  0  0  0
 28 25  2  0  0  0  0
 30 29  1  1  0  0  0
 31 30  1  0  0  0  0
 31 29  1  0  0  0  0
 31 24  1  1  0  0  0
 32 41  1  6  0  0  0
 32 34  1  0  0  0  0
 32 30  1  0  0  0  0
 33 37  1  1  0  0  0
 33 40  1  0  0  0  0
 35 43  2  0  0  0  0
 36 45  1  0  0  0  0
 37 45  2  0  0  0  0
 38 46  1  1  0  0  0
 39 38  1  0  0  0  0
 40 38  1  0  0  0  0
 40 34  1  1  0  0  0
 42 44  1  0  0  0  0
 43 41  1  0  0  0  0
 44 43  1  0  0  0  0
 44 33  1  0  0  0  0
 45 39  1  0  0  0  0
 46 47  1  0  0  0  0
 48 49  1  0  0  0  0
 50 49  1  0  0  0  0
 51 50  1  6  0  0  0
 52 51  1  0  0  0  0
 53 52  1  0  0  0  0
 53 51  1  0  0  0  0
 54 53  1  0  0  0  0
 55 54  1  0  0  0  0
 56 55  1  0  0  0  0
 57 58  1  0  0  0  0
 58 56  1  0  0  0  0
M  END
>  <MODEL>
5

>  <REMARK>
 VINA RESULT:      -6.4      2.342      3.908
  Name = 
  17 active torsions:
  status: ('A' for Active; 'I' for Inactive)
    1  A    between atoms: C_2  and  C_26
    2  A    between atoms: C_3  and  O_14
    3  A    between atoms: C_5  and  C_29
    4  A    between atoms: C_10  and  N_44
    5  A    between atoms: C_13  and  C_49
    6  A    between atoms: O_14  and  C_38
    7  A    between atoms: C_22  and  C_30
    8  A    between atoms: C_22  and  O_45
    9  A    between atoms: C_30  and  C_31
   10  A    between atoms: C_31  and  N_48
   11  A    between atoms: N_32  and  C_36
   12  A    between atoms: N_32  and  C_49
   13  A    between atoms: C_36  and  C_53
   14  A    between atoms: N_44  and  C_51
   15  A    between atoms: N_44  and  C_52
   16  A    between atoms: C_52  and  C_53
   17  A    between atoms: C_53  and  C_58
                            x       y       z     vdW  Elec       q    Type
                         _______ _______ _______ _____ _____    ______ ____

>  <TORSDO>
F 17

$$$$
=
 OpenBabel11042416043D

 58 66  0  0  1  0  0  0  0  0999 V2000
  194.3530  173.6650  141.1070 C   0  0  1  0  0  3  0  0  0  0  0  0
  196.1950  172.1450  141.2820 O   0  0  0  0  0  0  0  0  0  0  0  0
  196.9390  171.2660  140.4350 C   0  0  0  0  0  2  0  0  0  0  0  0
  194.9200  169.8710  140.5140 C   0  0  0  0  0  3  0  0  0  0  0  0
  194.1510  171.0700  141.1230 C   0  0  1  0  0  3  0  0  0  0  0  0
  196.2320  169.9710  140.2510 C   0  0  0  0  0  3  0  0  0  0  0  0
  194.9370  172.3280  140.7070 C   0  0  1  0  0  3  0  0  0  0  0  0
  192.6900  171.1150  140.8840 O   0  0  0  0  0  0  0  0  0  0  0  0
  190.0270  172.7100  140.3680 C   0  0  0  0  0  0  0  0  0  0  0  0
  191.7660  171.4990  141.8900 C   0  0  0  0  0  0  0  0  0  0  0  0
  191.2630  171.5380  144.2760 C   0  0  0  0  0  3  0  0  0  0  0  0
  190.5510  172.3040  141.6420 C   0  0  0  0  0  0  0  0  0  0  0  0
  188.5620  173.9340  138.9380 C   0  0  0  0  0  2  0  0  0  0  0  0
  188.7300  173.5920  142.6760 C   0  0  0  0  0  3  0  0  0  0  0  0
  192.0220  171.1280  143.1940 C   0  0  0  0  0  3  0  0  0  0  0  0
  188.9470  172.5450  137.1420 O   0  0  0  0  0  1  0  0  0  0  0  0
  188.2740  174.0230  141.4490 C   0  0  0  0  0  3  0  0  0  0  0  0
  188.9400  173.5640  140.3180 C   0  0  0  0  0  0  0  0  0  0  0  0
  190.4480  172.3650  138.9960 C   0  0  0  0  0  2  0  0  0  0  0  0
  189.8290  172.7420  142.7780 C   0  0  0  0  0  0  0  0  0  0  0  0
  189.5970  173.2700  138.0740 C   0  0  2  0  0  3  0  0  0  0  0  0
  190.1770  172.3720  144.0790 C   0  0  0  0  0  3  0  0  0  0  0  0
  194.5080  174.0120  142.5600 C   0  0  0  0  0  2  0  0  0  0  0  0
  194.2550  175.4250  142.8640 N   0  0  0  0  0  0  0  0  0  0  0  0
  196.2510  176.4680  142.3610 C   0  0  0  0  0  0  0  0  0  0  0  0
  195.4160  176.1070  143.4280 C   0  0  2  0  0  3  0  0  0  0  0  0
  196.5600  175.3880  143.3720 O   0  0  0  0  0  0  0  0  0  0  0  0
  196.4390  177.1350  141.2940 O   0  0  0  0  0  0  0  0  0  0  0  0
  191.8720  175.6000  142.4440 C   0  0  0  0  0  2  0  0  0  0  0  0
  191.9860  176.9260  143.0990 C   0  0  2  0  0  3  0  0  0  0  0  0
  192.8530  175.6850  143.5490 C   0  0  2  0  0  3  0  0  0  0  0  0
  190.5270  176.9800  143.6840 C   0  0  1  0  0  3  0  0  0  0  0  0
  187.6540  177.2640  144.5880 C   0  0  1  0  0  3  0  0  0  0  0  0
  189.4200  177.0080  142.7990 O   0  0  0  0  0  0  0  0  0  0  0  0
  190.4190  176.8000  146.8230 O   0  0  0  0  0  0  0  0  0  0  0  0
  184.7670  179.7870  144.5670 C   0  0  0  0  0  1  0  0  0  0  0  0
  186.4060  178.0440  145.0050 C   0  0  0  0  0  3  0  0  0  0  0  0
  187.0380  177.7570  142.2590 C   0  0  2  0  0  3  0  0  0  0  0  0
  186.3040  178.9230  142.7690 O   0  0  0  0  0  0  0  0  0  0  0  0
  188.0950  177.2930  143.3270 C   0  0  2  0  0  3  0  0  0  0  0  0
  190.3900  176.0670  144.6590 O   0  0  0  0  0  0  0  0  0  0  0  0
  187.6140  176.4560  146.9980 C   0  0  0  0  0  1  0  0  0  0  0  0
  189.7160  176.4650  145.7900 C   0  0  0  0  0  0  0  0  0  0  0  0
  188.3520  176.6860  145.7520 N   0  0  0  0  0  0  0  0  0  0  0  0
  185.8900  178.8680  144.0930 C   0  0  0  0  0  0  0  0  0  0  0  0
  187.4820  177.9220  140.8580 C   0  0  0  0  0  2  0  0  0  0  0  0
  187.0460  176.8560  140.0610 O   0  0  0  0  0  1  0  0  0  0  0  0
  194.3730  174.7220  139.9820 C   0  0  0  0  0  2  0  0  0  0  0  0
  195.4560  174.5890  139.0120 N   0  0  0  0  0  2  0  0  0  0  0  0
  194.9430  174.5980  137.6390 C   0  0  0  0  0  2  0  0  0  0  0  0
  193.6600  175.4690  137.6300 C   0  0  1  0  0  3  0  0  0  0  0  0
  193.4160  176.1770  136.4930 O   0  0  0  0  0  0  0  0  0  0  0  0
  192.6730  175.0110  136.7520 N   0  0  0  0  0  0  0  0  0  0  0  0
  192.8690  174.2320  135.4880 C   0  0  0  0  0  2  0  0  0  0  0  0
  192.0920  172.9980  135.4570 C   0  0  0  0  0  2  0  0  0  0  0  0
  192.9470  171.7470  135.2450 C   0  0  0  0  0  2  0  0  0  0  0  0
  193.4700  171.0990  137.2960 C   0  0  0  0  0  1  0  0  0  0  0  0
  192.6810  170.7630  136.2080 O   0  0  0  0  0  0  0  0  0  0  0  0
  1 48  1  6  0  0  0
  1 23  1  0  0  0  0
  3  2  1  0  0  0  0
  4  5  1  0  0  0  0
  5  8  1  6  0  0  0
  6  3  1  0  0  0  0
  6  4  2  0  0  0  0
  7  1  1  1  0  0  0
  7  5  1  0  0  0  0
  7  2  1  0  0  0  0
  8 10  1  0  0  0  0
  9 12  1  0  0  0  0
 10 15  1  0  0  0  0
 12 10  2  0  0  0  0
 12 20  1  0  0  0  0
 13 18  1  0  0  0  0
 14 20  1  0  0  0  0
 15 11  2  0  0  0  0
 17 14  2  0  0  0  0
 18  9  2  0  0  0  0
 18 17  1  0  0  0  0
 19  9  1  0  0  0  0
 20 22  2  0  0  0  0
 21 16  1  6  0  0  0
 21 13  1  0  0  0  0
 21 19  1  0  0  0  0
 22 11  1  0  0  0  0
 23 24  1  0  0  0  0
 25 27  1  0  0  0  0
 25 26  1  0  0  0  0
 26 24  1  6  0  0  0
 27 26  1  0  0  0  0
 28 25  2  0  0  0  0
 29 31  1  0  0  0  0
 30 29  1  6  0  0  0
 30 31  1  0  0  0  0
 30 32  1  0  0  0  0
 31 24  1  6  0  0  0
 32 34  1  6  0  0  0
 32 41  1  0  0  0  0
 33 37  1  1  0  0  0
 33 44  1  0  0  0  0
 38 46  1  6  0  0  0
 38 39  1  0  0  0  0
 38 40  1  0  0  0  0
 39 45  1  0  0  0  0
 40 34  1  1  0  0  0
 40 33  1  0  0  0  0
 41 43  1  0  0  0  0
 43 35  2  0  0  0  0
 44 43  1  0  0  0  0
 44 42  1  0  0  0  0
 45 36  1  0  0  0  0
 45 37  2  0  0  0  0
 47 46  1  0  0  0  0
 49 48  1  0  0  0  0
 50 49  1  0  0  0  0
 51 50  1  6  0  0  0
 52 53  1  0  0  0  0
 52 51  1  0  0  0  0
 53 51  1  0  0  0  0
 54 53  1  0  0  0  0
 55 54  1  0  0  0  0
 56 55  1  0  0  0  0
 56 58  1  0  0  0  0
 58 57  1  0  0  0  0
M  END
>  <MODEL>
6

>  <REMARK>
 VINA RESULT:      -6.3      1.370      2.128
  Name = 
  17 active torsions:
  status: ('A' for Active; 'I' for Inactive)
    1  A    between atoms: C_2  and  C_26
    2  A    between atoms: C_3  and  O_14
    3  A    between atoms: C_5  and  C_29
    4  A    between atoms: C_10  and  N_44
    5  A    between atoms: C_13  and  C_49
    6  A    between atoms: O_14  and  C_38
    7  A    between atoms: C_22  and  C_30
    8  A    between atoms: C_22  and  O_45
    9  A    between atoms: C_30  and  C_31
   10  A    between atoms: C_31  and  N_48
   11  A    between atoms: N_32  and  C_36
   12  A    between atoms: N_32  and  C_49
   13  A    between atoms: C_36  and  C_53
   14  A    between atoms: N_44  and  C_51
   15  A    between atoms: N_44  and  C_52
   16  A    between atoms: C_52  and  C_53
   17  A    between atoms: C_53  and  C_58
                            x       y       z     vdW  Elec       q    Type
                         _______ _______ _______ _____ _____    ______ ____

>  <TORSDO>
F 17

$$$$
=
 OpenBabel11042416043D

 58 66  0  0  1  0  0  0  0  0999 V2000
  189.6120  174.9510  143.5660 C   0  0  1  0  0  3  0  0  0  0  0  0
  189.1690  174.9720  145.9190 O   0  0  0  0  0  0  0  0  0  0  0  0
  189.5000  175.7640  147.0630 C   0  0  0  0  0  2  0  0  0  0  0  0
  191.7240  174.7530  146.8180 C   0  0  0  0  0  3  0  0  0  0  0  0
  191.3090  174.2510  145.4120 C   0  0  1  0  0  3  0  0  0  0  0  0
  190.8450  175.4120  147.5880 C   0  0  0  0  0  3  0  0  0  0  0  0
  190.1610  175.1720  144.9590 C   0  0  1  0  0  3  0  0  0  0  0  0
  192.3970  174.0460  144.4290 O   0  0  0  0  0  0  0  0  0  0  0  0
  194.1480  171.4750  144.9050 C   0  0  0  0  0  0  0  0  0  0  0  0
  193.7670  174.0540  144.7970 C   0  0  0  0  0  0  0  0  0  0  0  0
  195.6990  175.4160  145.3960 C   0  0  0  0  0  3  0  0  0  0  0  0
  194.5610  172.8400  145.0810 C   0  0  0  0  0  0  0  0  0  0  0  0
  194.3820  169.1120  145.1370 C   0  0  0  0  0  2  0  0  0  0  0  0
  196.6670  171.9680  146.0020 C   0  0  0  0  0  3  0  0  0  0  0  0
  194.4040  175.2700  144.9320 C   0  0  0  0  0  3  0  0  0  0  0  0
  192.8690  168.6700  143.4590 O   0  0  0  0  0  1  0  0  0  0  0  0
  196.2330  170.6640  145.8840 C   0  0  0  0  0  3  0  0  0  0  0  0
  194.9750  170.4520  145.3320 C   0  0  0  0  0  0  0  0  0  0  0  0
  192.9240  170.9050  144.3090 C   0  0  0  0  0  2  0  0  0  0  0  0
  195.8640  173.0320  145.5990 C   0  0  0  0  0  0  0  0  0  0  0  0
  193.0080  169.3870  144.5920 C   0  0  2  0  0  3  0  0  0  0  0  0
  196.4290  174.2990  145.7610 C   0  0  0  0  0  3  0  0  0  0  0  0
  189.9660  173.6270  142.9520 C   0  0  0  0  0  2  0  0  0  0  0  0
  189.9470  173.6290  141.4840 N   0  0  0  0  0  0  0  0  0  0  0  0
  188.2130  173.4190  139.9780 C   0  0  0  0  0  0  0  0  0  0  0  0
  188.9660  172.7060  140.9220 C   0  0  2  0  0  3  0  0  0  0  0  0
  187.6950  172.9440  141.3170 O   0  0  0  0  0  0  0  0  0  0  0  0
  188.1550  174.0690  138.8870 O   0  0  0  0  0  0  0  0  0  0  0  0
  191.5230  172.3230  140.1810 C   0  0  0  0  0  2  0  0  0  0  0  0
  192.4640  172.5850  141.2980 C   0  0  2  0  0  3  0  0  0  0  0  0
  191.3900  173.6460  140.8330 C   0  0  2  0  0  3  0  0  0  0  0  0
  193.7880  172.5470  140.4500 C   0  0  1  0  0  3  0  0  0  0  0  0
  196.3190  172.7640  138.8070 C   0  0  1  0  0  3  0  0  0  0  0  0
  194.7730  173.5480  140.6450 O   0  0  0  0  0  0  0  0  0  0  0  0
  194.0200  170.0210  138.5890 O   0  0  0  0  0  0  0  0  0  0  0  0
  197.9410  174.9720  136.1260 C   0  0  0  0  0  1  0  0  0  0  0  0
  197.1540  173.2100  137.6060 C   0  0  0  0  0  3  0  0  0  0  0  0
  196.6380  175.0260  139.7180 C   0  0  2  0  0  3  0  0  0  0  0  0
  196.8490  175.4810  138.3370 O   0  0  0  0  0  0  0  0  0  0  0  0
  195.8790  173.6480  139.7070 C   0  0  2  0  0  3  0  0  0  0  0  0
  194.3010  171.3050  140.4580 O   0  0  0  0  0  0  0  0  0  0  0  0
  196.7290  170.4350  137.8730 C   0  0  0  0  0  1  0  0  0  0  0  0
  194.7790  170.8250  139.2600 C   0  0  0  0  0  0  0  0  0  0  0  0
  195.9370  171.3430  138.7090 N   0  0  0  0  0  0  0  0  0  0  0  0
  197.2760  174.5250  137.4250 C   0  0  0  0  0  0  0  0  0  0  0  0
  196.1380  176.0960  140.6080 C   0  0  0  0  0  2  0  0  0  0  0  0
  196.3220  175.7590  141.9550 O   0  0  0  0  0  1  0  0  0  0  0  0
  188.2770  175.6760  143.2930 C   0  0  0  0  0  2  0  0  0  0  0  0
  188.3300  176.7380  142.2920 N   0  0  0  0  0  2  0  0  0  0  0  0
  187.0650  176.8420  141.5610 C   0  0  0  0  0  2  0  0  0  0  0  0
  186.5690  178.3050  141.7000 C   0  0  1  0  0  3  0  0  0  0  0  0
  185.2210  178.4930  141.6850 O   0  0  0  0  0  0  0  0  0  0  0  0
  185.9140  178.5680  142.9060 N   0  0  0  0  0  0  0  0  0  0  0  0
  185.1480  177.6010  143.7560 C   0  0  0  0  0  2  0  0  0  0  0  0
  185.5050  177.6810  145.1680 C   0  0  0  0  0  2  0  0  0  0  0  0
  185.0350  178.9730  145.8390 C   0  0  0  0  0  2  0  0  0  0  0  0
  186.0730  177.8360  147.4290 C   0  0  0  0  0  1  0  0  0  0  0  0
  185.4400  179.0430  147.1790 O   0  0  0  0  0  0  0  0  0  0  0  0
  1 23  1  1  0  0  0
  2  3  1  0  0  0  0
  3  6  1  0  0  0  0
  4  6  2  0  0  0  0
  5  8  1  6  0  0  0
  5  4  1  0  0  0  0
  7  1  1  6  0  0  0
  7  5  1  0  0  0  0
  7  2  1  0  0  0  0
  8 10  1  0  0  0  0
  9 12  2  0  0  0  0
  9 18  1  0  0  0  0
 10 15  2  0  0  0  0
 10 12  1  0  0  0  0
 11 22  2  0  0  0  0
 12 20  1  0  0  0  0
 13 18  1  0  0  0  0
 15 11  1  0  0  0  0
 17 14  1  0  0  0  0
 18 17  2  0  0  0  0
 19 21  1  0  0  0  0
 19  9  1  0  0  0  0
 20 22  1  0  0  0  0
 20 14  2  0  0  0  0
 21 16  1  6  0  0  0
 21 13  1  0  0  0  0
 24 23  1  0  0  0  0
 25 26  1  0  0  0  0
 25 27  1  0  0  0  0
 26 27  1  0  0  0  0
 26 24  1  1  0  0  0
 28 25  2  0  0  0  0
 29 31  1  0  0  0  0
 30 29  1  6  0  0  0
 31 30  1  0  0  0  0
 31 24  1  1  0  0  0
 32 41  1  1  0  0  0
 32 34  1  0  0  0  0
 32 30  1  0  0  0  0
 33 37  1  6  0  0  0
 33 40  1  0  0  0  0
 35 43  2  0  0  0  0
 36 45  1  0  0  0  0
 38 46  1  1  0  0  0
 39 38  1  0  0  0  0
 40 38  1  0  0  0  0
 40 34  1  6  0  0  0
 42 44  1  0  0  0  0
 43 41  1  0  0  0  0
 44 33  1  0  0  0  0
 44 43  1  0  0  0  0
 45 37  2  0  0  0  0
 45 39  1  0  0  0  0
 46 47  1  0  0  0  0
 48  1  1  0  0  0  0
 49 48  1  0  0  0  0
 50 49  1  0  0  0  0
 51 50  1  1  0  0  0
 51 53  1  0  0  0  0
 52 51  1  0  0  0  0
 52 53  1  0  0  0  0
 53 54  1  0  0  0  0
 54 55  1  0  0  0  0
 55 56  1  0  0  0  0
 56 58  1  0  0  0  0
 58 57  1  0  0  0  0
M  END
>  <MODEL>
7

>  <REMARK>
 VINA RESULT:      -6.3      2.439      9.575
  Name = 
  17 active torsions:
  status: ('A' for Active; 'I' for Inactive)
    1  A    between atoms: C_2  and  C_26
    2  A    between atoms: C_3  and  O_14
    3  A    between atoms: C_5  and  C_29
    4  A    between atoms: C_10  and  N_44
    5  A    between atoms: C_13  and  C_49
    6  A    between atoms: O_14  and  C_38
    7  A    between atoms: C_22  and  C_30
    8  A    between atoms: C_22  and  O_45
    9  A    between atoms: C_30  and  C_31
   10  A    between atoms: C_31  and  N_48
   11  A    between atoms: N_32  and  C_36
   12  A    between atoms: N_32  and  C_49
   13  A    between atoms: C_36  and  C_53
   14  A    between atoms: N_44  and  C_51
   15  A    between atoms: N_44  and  C_52
   16  A    between atoms: C_52  and  C_53
   17  A    between atoms: C_53  and  C_58
                            x       y       z     vdW  Elec       q    Type
                         _______ _______ _______ _____ _____    ______ ____

>  <TORSDO>
F 17

$$$$
=
 OpenBabel11042416043D

 58 66  0  0  1  0  0  0  0  0999 V2000
  193.6390  171.4010  143.2860 C   0  0  1  0  0  3  0  0  0  0  0  0
  194.6460  169.2860  143.7790 O   0  0  0  0  0  0  0  0  0  0  0  0
  194.4250  168.1730  144.6490 C   0  0  0  0  0  2  0  0  0  0  0  0
  195.2010  169.7020  146.4070 C   0  0  0  0  0  3  0  0  0  0  0  0
  195.0490  170.8780  145.4100 C   0  0  1  0  0  3  0  0  0  0  0  0
  194.9530  168.4430  146.0120 C   0  0  0  0  0  3  0  0  0  0  0  0
  194.0370  170.4030  144.3510 C   0  0  1  0  0  3  0  0  0  0  0  0
  194.7930  172.2150  145.9920 O   0  0  0  0  0  0  0  0  0  0  0  0
  193.5050  175.0860  145.9230 C   0  0  0  0  0  0  0  0  0  0  0  0
  195.4450  173.3860  145.5260 C   0  0  0  0  0  0  0  0  0  0  0  0
  197.4550  174.3220  144.5120 C   0  0  0  0  0  3  0  0  0  0  0  0
  194.8070  174.7170  145.4390 C   0  0  0  0  0  0  0  0  0  0  0  0
  191.6390  176.5510  146.1680 C   0  0  0  0  0  2  0  0  0  0  0  0
  195.0050  177.0040  144.5580 C   0  0  0  0  0  3  0  0  0  0  0  0
  196.7500  173.2830  145.0950 C   0  0  0  0  0  3  0  0  0  0  0  0
  190.8380  175.4310  148.0120 O   0  0  0  0  0  1  0  0  0  0  0  0
  193.7310  177.3250  144.9760 C   0  0  0  0  0  3  0  0  0  0  0  0
  193.0100  176.3490  145.6550 C   0  0  0  0  0  0  0  0  0  0  0  0
  192.5190  174.3270  146.7170 C   0  0  0  0  0  2  0  0  0  0  0  0
  195.5420  175.7400  144.7930 C   0  0  0  0  0  0  0  0  0  0  0  0
  191.2560  175.2190  146.7490 C   0  0  2  0  0  3  0  0  0  0  0  0
  196.8450  175.5510  144.3300 C   0  0  0  0  0  3  0  0  0  0  0  0
  192.4550  172.2570  143.6350 C   0  0  0  0  0  2  0  0  0  0  0  0
  191.1970  171.8070  143.0280 N   0  0  0  0  0  0  0  0  0  0  0  0
  191.2680  171.4900  140.7440 C   0  0  0  0  0  0  0  0  0  0  0  0
  191.3910  170.8200  141.9700 C   0  0  2  0  0  3  0  0  0  0  0  0
  190.2630  170.5050  141.2950 O   0  0  0  0  0  0  0  0  0  0  0  0
  191.6880  172.3740  139.9310 O   0  0  0  0  0  0  0  0  0  0  0  0
  190.8740  174.2050  143.1940 C   0  0  0  0  0  2  0  0  0  0  0  0
  189.6510  173.8570  143.9580 C   0  0  2  0  0  3  0  0  0  0  0  0
  190.1720  172.9800  142.7520 C   0  0  2  0  0  3  0  0  0  0  0  0
  188.8060  175.1220  143.5600 C   0  0  1  0  0  3  0  0  0  0  0  0
  187.0610  177.5430  143.0600 C   0  0  1  0  0  3  0  0  0  0  0  0
  188.5580  176.1300  144.5260 O   0  0  0  0  0  0  0  0  0  0  0  0
  188.0130  175.2010  140.5170 O   0  0  0  0  0  0  0  0  0  0  0  0
  183.6620  179.0120  144.0530 C   0  0  0  0  0  1  0  0  0  0  0  0
  185.7350  178.3020  142.9970 C   0  0  0  0  0  3  0  0  0  0  0  0
  187.0420  177.9480  145.4860 C   0  0  2  0  0  3  0  0  0  0  0  0
  185.5810  178.0730  145.3870 O   0  0  0  0  0  0  0  0  0  0  0  0
  187.5890  177.1730  144.2310 C   0  0  2  0  0  3  0  0  0  0  0  0
  189.2480  175.6200  142.3930 O   0  0  0  0  0  0  0  0  0  0  0  0
  187.0430  177.8620  140.5380 C   0  0  0  0  0  1  0  0  0  0  0  0
  188.2910  176.0120  141.4850 C   0  0  0  0  0  0  0  0  0  0  0  0
  187.5230  177.1370  141.7190 N   0  0  0  0  0  0  0  0  0  0  0  0
  185.0700  178.4270  144.1460 C   0  0  0  0  0  0  0  0  0  0  0  0
  187.4950  177.5210  146.8270 C   0  0  0  0  0  2  0  0  0  0  0  0
  186.5270  177.7980  147.7990 O   0  0  0  0  0  1  0  0  0  0  0  0
  194.8150  171.9030  142.4220 C   0  0  0  0  0  2  0  0  0  0  0  0
  194.9220  171.3060  141.0950 N   0  0  0  0  0  2  0  0  0  0  0  0
  195.9460  171.9770  140.2900 C   0  0  0  0  0  2  0  0  0  0  0  0
  196.4790  173.1720  141.1230 C   0  0  1  0  0  3  0  0  0  0  0  0
  197.8320  173.2770  141.2370 O   0  0  0  0  0  0  0  0  0  0  0  0
  197.1450  174.1390  140.3640 N   0  0  0  0  0  0  0  0  0  0  0  0
  197.8870  173.9340  139.0790 C   0  0  0  0  0  2  0  0  0  0  0  0
  197.7450  175.0560  138.1580 C   0  0  0  0  0  2  0  0  0  0  0  0
  197.9340  174.6640  136.6910 C   0  0  0  0  0  2  0  0  0  0  0  0
  196.3040  175.9790  135.9740 C   0  0  0  0  0  1  0  0  0  0  0  0
  197.6590  175.7320  135.8250 O   0  0  0  0  0  0  0  0  0  0  0  0
  1 48  1  1  0  0  0
  1 23  1  0  0  0  0
  2  7  1  0  0  0  0
  2  3  1  0  0  0  0
  3  6  1  0  0  0  0
  5  8  1  1  0  0  0
  5  4  1  0  0  0  0
  6  4  2  0  0  0  0
  7  1  1  6  0  0  0
  7  5  1  0  0  0  0
  9 19  1  0  0  0  0
 10  8  1  0  0  0  0
 11 15  1  0  0  0  0
 12 10  1  0  0  0  0
 12  9  2  0  0  0  0
 13 21  1  0  0  0  0
 14 20  2  0  0  0  0
 14 17  1  0  0  0  0
 15 10  2  0  0  0  0
 17 18  2  0  0  0  0
 18  9  1  0  0  0  0
 18 13  1  0  0  0  0
 19 21  1  0  0  0  0
 20 12  1  0  0  0  0
 21 16  1  1  0  0  0
 22 11  2  0  0  0  0
 22 20  1  0  0  0  0
 24 23  1  0  0  0  0
 25 27  1  0  0  0  0
 25 26  1  0  0  0  0
 26 24  1  1  0  0  0
 27 26  1  0  0  0  0
 28 25  2  0  0  0  0
 30 29  1  6  0  0  0
 31 24  1  1  0  0  0
 31 29  1  0  0  0  0
 31 30  1  0  0  0  0
 32 41  1  6  0  0  0
 32 30  1  0  0  0  0
 32 34  1  0  0  0  0
 33 37  1  1  0  0  0
 33 40  1  0  0  0  0
 35 43  2  0  0  0  0
 36 45  1  0  0  0  0
 37 45  2  0  0  0  0
 38 46  1  1  0  0  0
 39 38  1  0  0  0  0
 40 34  1  1  0  0  0
 40 38  1  0  0  0  0
 42 44  1  0  0  0  0
 43 44  1  0  0  0  0
 43 41  1  0  0  0  0
 44 33  1  0  0  0  0
 45 39  1  0  0  0  0
 46 47  1  0  0  0  0
 49 48  1  0  0  0  0
 50 49  1  0  0  0  0
 51 50  1  6  0  0  0
 51 52  1  0  0  0  0
 53 51  1  0  0  0  0
 53 52  1  0  0  0  0
 54 53  1  0  0  0  0
 55 54  1  0  0  0  0
 56 55  1  0  0  0  0
 58 57  1  0  0  0  0
 58 56  1  0  0  0  0
M  END
>  <MODEL>
8

>  <REMARK>
 VINA RESULT:      -6.1      2.369      5.558
  Name = 
  17 active torsions:
  status: ('A' for Active; 'I' for Inactive)
    1  A    between atoms: C_2  and  C_26
    2  A    between atoms: C_3  and  O_14
    3  A    between atoms: C_5  and  C_29
    4  A    between atoms: C_10  and  N_44
    5  A    between atoms: C_13  and  C_49
    6  A    between atoms: O_14  and  C_38
    7  A    between atoms: C_22  and  C_30
    8  A    between atoms: C_22  and  O_45
    9  A    between atoms: C_30  and  C_31
   10  A    between atoms: C_31  and  N_48
   11  A    between atoms: N_32  and  C_36
   12  A    between atoms: N_32  and  C_49
   13  A    between atoms: C_36  and  C_53
   14  A    between atoms: N_44  and  C_51
   15  A    between atoms: N_44  and  C_52
   16  A    between atoms: C_52  and  C_53
   17  A    between atoms: C_53  and  C_58
                            x       y       z     vdW  Elec       q    Type
                         _______ _______ _______ _____ _____    ______ ____

>  <TORSDO>
F 17

$$$$
=
 OpenBabel11042416043D

 58 66  0  0  1  0  0  0  0  0999 V2000
  193.6720  175.5860  143.1280 C   0  0  1  0  0  3  0  0  0  0  0  0
  195.8720  176.4190  143.5770 O   0  0  0  0  0  0  0  0  0  0  0  0
  197.1960  176.2760  143.0580 C   0  0  0  0  0  2  0  0  0  0  0  0
  197.1050  174.0540  144.0990 C   0  0  0  0  0  3  0  0  0  0  0  0
  195.5760  174.2330  144.2760 C   0  0  1  0  0  3  0  0  0  0  0  0
  197.8460  175.0430  143.5750 C   0  0  0  0  0  3  0  0  0  0  0  0
  195.1510  175.2780  143.2280 C   0  0  1  0  0  3  0  0  0  0  0  0
  194.7620  172.9970  144.3220 O   0  0  0  0  0  0  0  0  0  0  0  0
  191.9920  171.8800  143.3300 C   0  0  0  0  0  0  0  0  0  0  0  0
  194.5830  172.1610  143.1910 C   0  0  0  0  0  0  0  0  0  0  0  0
  195.6650  170.9290  141.3860 C   0  0  0  0  0  3  0  0  0  0  0  0
  193.2840  171.5900  142.7730 C   0  0  0  0  0  0  0  0  0  0  0  0
  189.6480  171.5410  143.6110 C   0  0  0  0  0  2  0  0  0  0  0  0
  192.1650  169.9580  141.3140 C   0  0  0  0  0  3  0  0  0  0  0  0
  195.6900  171.8260  142.4390 C   0  0  0  0  0  3  0  0  0  0  0  0
  189.3200  173.6440  144.4890 O   0  0  0  0  0  1  0  0  0  0  0  0
  190.9420  170.2030  141.9000 C   0  0  0  0  0  3  0  0  0  0  0  0
  190.8880  171.1670  142.8990 C   0  0  0  0  0  0  0  0  0  0  0  0
  191.5780  172.8680  144.3460 C   0  0  0  0  0  2  0  0  0  0  0  0
  193.3090  170.6400  141.7230 C   0  0  0  0  0  0  0  0  0  0  0  0
  190.0920  172.5490  144.6340 C   0  0  2  0  0  3  0  0  0  0  0  0
  194.4790  170.3060  141.0390 C   0  0  0  0  0  3  0  0  0  0  0  0
  193.2370  176.8300  143.8490 C   0  0  0  0  0  2  0  0  0  0  0  0
  192.5430  176.5700  145.1150 N   0  0  0  0  0  0  0  0  0  0  0  0
  192.6170  175.6000  147.2070 C   0  0  0  0  0  0  0  0  0  0  0  0
  193.2060  175.5600  145.9350 C   0  0  2  0  0  3  0  0  0  0  0  0
  194.0180  176.0690  146.8890 O   0  0  0  0  0  0  0  0  0  0  0  0
  191.5900  175.4570  147.9450 O   0  0  0  0  0  0  0  0  0  0  0  0
  190.5760  177.7370  144.3070 C   0  0  0  0  0  2  0  0  0  0  0  0
  190.0550  177.5420  145.6830 C   0  0  2  0  0  3  0  0  0  0  0  0
  190.9710  176.4720  144.9670 C   0  0  2  0  0  3  0  0  0  0  0  0
  188.5290  177.4860  145.3070 C   0  0  1  0  0  3  0  0  0  0  0  0
  185.6750  177.3960  144.3060 C   0  0  1  0  0  3  0  0  0  0  0  0
  188.1170  176.7590  144.1620 O   0  0  0  0  0  0  0  0  0  0  0  0
  186.6620  178.8990  147.4080 O   0  0  0  0  0  0  0  0  0  0  0  0
  183.4980  178.6660  141.4170 C   0  0  0  0  0  1  0  0  0  0  0  0
  184.4720  177.9070  143.5130 C   0  0  0  0  0  3  0  0  0  0  0  0
  186.5150  176.4520  142.1960 C   0  0  2  0  0  3  0  0  0  0  0  0
  185.7110  177.4660  141.4990 O   0  0  0  0  0  0  0  0  0  0  0  0
  186.7500  176.9010  143.6850 C   0  0  2  0  0  3  0  0  0  0  0  0
  187.8000  177.1950  146.3970 O   0  0  0  0  0  0  0  0  0  0  0  0
  184.2270  177.9440  146.3220 C   0  0  0  0  0  1  0  0  0  0  0  0
  186.6380  177.9110  146.5740 C   0  0  0  0  0  0  0  0  0  0  0  0
  185.5530  177.7020  145.7440 N   0  0  0  0  0  0  0  0  0  0  0  0
  184.6220  177.9780  142.1900 C   0  0  0  0  0  0  0  0  0  0  0  0
  187.6810  175.9980  141.4070 C   0  0  0  0  0  2  0  0  0  0  0  0
  187.9870  174.6590  141.6820 O   0  0  0  0  0  1  0  0  0  0  0  0
  193.0150  175.0980  141.8190 C   0  0  0  0  0  2  0  0  0  0  0  0
  191.5620  174.9640  141.8560 N   0  0  0  0  0  2  0  0  0  0  0  0
  191.0750  174.1520  140.7380 C   0  0  0  0  0  2  0  0  0  0  0  0
  192.3020  173.7790  139.8670 C   0  0  1  0  0  3  0  0  0  0  0  0
  192.1930  172.6490  139.1150 O   0  0  0  0  0  0  0  0  0  0  0  0
  192.0800  173.9050  138.4920 N   0  0  0  0  0  0  0  0  0  0  0  0
  190.7770  173.7740  137.7660 C   0  0  0  0  0  2  0  0  0  0  0  0
  190.8300  174.3020  136.4070 C   0  0  0  0  0  2  0  0  0  0  0  0
  189.4590  174.3830  135.7330 C   0  0  0  0  0  2  0  0  0  0  0  0
  190.3700  176.2080  134.8750 C   0  0  0  0  0  1  0  0  0  0  0  0
  189.1620  175.6840  135.3070 O   0  0  0  0  0  0  0  0  0  0  0  0
  1 48  1  6  0  0  0
  1 23  1  0  0  0  0
  3  6  1  0  0  0  0
  3  2  1  0  0  0  0
  4  5  1  0  0  0  0
  5  8  1  6  0  0  0
  6  4  2  0  0  0  0
  7  1  1  1  0  0  0
  7  2  1  0  0  0  0
  7  5  1  0  0  0  0
  9 19  1  0  0  0  0
 10  8  1  0  0  0  0
 11 15  1  0  0  0  0
 12 10  1  0  0  0  0
 12  9  2  0  0  0  0
 13 21  1  0  0  0  0
 14 20  2  0  0  0  0
 14 17  1  0  0  0  0
 15 10  2  0  0  0  0
 17 18  2  0  0  0  0
 18  9  1  0  0  0  0
 18 13  1  0  0  0  0
 19 21  1  0  0  0  0
 20 12  1  0  0  0  0
 21 16  1  6  0  0  0
 22 11  2  0  0  0  0
 22 20  1  0  0  0  0
 23 24  1  0  0  0  0
 25 28  2  0  0  0  0
 26 24  1  6  0  0  0
 26 27  1  0  0  0  0
 26 25  1  0  0  0  0
 27 25  1  0  0  0  0
 29 31  1  0  0  0  0
 30 29  1  6  0  0  0
 31 24  1  1  0  0  0
 31 30  1  0  0  0  0
 32 34  1  6  0  0  0
 32 30  1  0  0  0  0
 32 41  1  0  0  0  0
 33 37  1  6  0  0  0
 33 44  1  0  0  0  0
 36 45  1  0  0  0  0
 38 46  1  6  0  0  0
 38 40  1  0  0  0  0
 39 45  1  0  0  0  0
 39 38  1  0  0  0  0
 40 34  1  6  0  0  0
 40 33  1  0  0  0  0
 41 43  1  0  0  0  0
 43 35  2  0  0  0  0
 44 42  1  0  0  0  0
 44 43  1  0  0  0  0
 45 37  2  0  0  0  0
 46 47  1  0  0  0  0
 48 49  1  0  0  0  0
 50 49  1  0  0  0  0
 51 50  1  1  0  0  0
 52 51  1  0  0  0  0
 53 52  1  0  0  0  0
 53 51  1  0  0  0  0
 54 53  1  0  0  0  0
 55 54  1  0  0  0  0
 56 55  1  0  0  0  0
 57 58  1  0  0  0  0
 58 56  1  0  0  0  0
M  END
>  <MODEL>
9

>  <REMARK>
 VINA RESULT:      -6.1      2.457      4.578
  Name = 
  17 active torsions:
  status: ('A' for Active; 'I' for Inactive)
    1  A    between atoms: C_2  and  C_26
    2  A    between atoms: C_3  and  O_14
    3  A    between atoms: C_5  and  C_29
    4  A    between atoms: C_10  and  N_44
    5  A    between atoms: C_13  and  C_49
    6  A    between atoms: O_14  and  C_38
    7  A    between atoms: C_22  and  C_30
    8  A    between atoms: C_22  and  O_45
    9  A    between atoms: C_30  and  C_31
   10  A    between atoms: C_31  and  N_48
   11  A    between atoms: N_32  and  C_36
   12  A    between atoms: N_32  and  C_49
   13  A    between atoms: C_36  and  C_53
   14  A    between atoms: N_44  and  C_51
   15  A    between atoms: N_44  and  C_52
   16  A    between atoms: C_52  and  C_53
   17  A    between atoms: C_53  and  C_58
                            x       y       z     vdW  Elec       q    Type
                         _______ _______ _______ _____ _____    ______ ____

>  <TORSDO>
F 17

$$$$
