=
 OpenBabel11042418243D

 28 29  0  0  1  0  0  0  0  0999 V2000
  184.6720  178.0850  140.8960 C   0  0  0  0  0  3  0  0  0  0  0  0
  185.7250  178.4980  143.4650 C   0  0  0  0  0  0  0  0  0  0  0  0
  186.6010  178.2840  142.3730 C   0  0  0  0  0  0  0  0  0  0  0  0
  183.8080  178.3040  141.9680 C   0  0  0  0  0  0  0  0  0  0  0  0
  186.0530  178.0790  141.0960 C   0  0  0  0  0  3  0  0  0  0  0  0
  184.3430  178.5120  143.2480 C   0  0  0  0  0  3  0  0  0  0  0  0
  182.3950  178.3110  141.7320 N   0  0  0  0  0  0  0  0  0  0  0  0
  180.3970  178.2530  140.3860 C   0  0  0  0  0  1  0  0  0  0  0  0
  181.8740  178.2410  140.5500 C   0  0  0  0  0  3  0  0  0  0  0  0
  186.1870  178.7200  144.8070 N   0  0  0  0  0  2  0  0  0  0  0  0
  186.1660  178.7730  147.2370 C   0  0  0  0  0  1  0  0  0  0  0  0
  185.7280  178.0150  145.9950 C   0  0  2  0  0  3  0  0  0  0  0  0
  186.3200  176.6180  146.0060 C   0  0  0  0  0  2  0  0  0  0  0  0
  187.3890  176.5050  147.0870 C   0  0  0  0  0  2  0  0  0  0  0  0
  188.8000  174.6190  147.5890 O   0  0  0  0  0  1  0  0  0  0  0  0
  188.5580  175.6270  146.6530 C   0  0  2  0  0  3  0  0  0  0  0  0
  189.7110  177.7840  146.1120 O   0  0  0  0  0  0  0  0  0  0  0  0
  190.9210  175.8660  146.4420 O   0  0  0  0  0  1  0  0  0  0  0  0
  189.7960  176.4290  146.4090 C   0  0  0  0  0  0  0  0  0  0  0  0
  187.9910  178.3140  142.5740 O   0  0  0  0  0  0  0  0  0  0  0  0
  190.2000  177.3420  142.7140 N   0  0  0  0  0  0  0  0  0  0  0  0
  190.4910  174.9920  143.0340 C   0  0  0  0  0  0  0  0  0  0  0  0
  189.1050  174.8350  143.0560 C   0  0  0  0  0  3  0  0  0  0  0  0
  188.2760  175.9460  142.9060 C   0  0  0  0  0  3  0  0  0  0  0  0
  191.3150  173.8840  143.1860 O   0  0  0  0  0  1  0  0  0  0  0  0
  188.8440  177.2120  142.7360 C   0  0  0  0  0  0  0  0  0  0  0  0
  192.5040  176.4850  142.8270 C   0  0  0  0  0  1  0  0  0  0  0  0
  191.0310  176.2740  142.8580 C   0  0  0  0  0  0  0  0  0  0  0  0
  1  5  2  0  0  0  0
  1  4  1  0  0  0  0
  2 10  1  0  0  0  0
  3 20  1  0  0  0  0
  3  2  2  0  0  0  0
  4  6  2  0  0  0  0
  5  3  1  0  0  0  0
  6  2  1  0  0  0  0
  7  4  1  0  0  0  0
  8  9  1  0  0  0  0
  9  7  2  0  0  0  0
 10 12  1  0  0  0  0
 12 13  1  0  0  0  0
 12 11  1  1  0  0  0
 13 14  1  0  0  0  0
 16 14  1  0  0  0  0
 16 15  1  1  0  0  0
 17 19  2  0  0  0  0
 19 18  1  0  0  0  0
 19 16  1  0  0  0  0
 20 26  1  0  0  0  0
 21 26  2  0  0  0  0
 21 28  1  0  0  0  0
 22 23  1  0  0  0  0
 22 25  1  0  0  0  0
 24 23  2  0  0  0  0
 26 24  1  0  0  0  0
 27 28  1  0  0  0  0
 28 22  2  0  0  0  0
M  END
>  <MODEL>
1

>  <REMARK>
 VINA RESULT:      -6.5      0.000      0.000
  Name = 
  9 active torsions:
  status: ('A' for Active; 'I' for Inactive)
    1  A    between atoms: C_6  and  N_10
    2  A    between atoms: C_8  and  C_12
    3  A    between atoms: C_8  and  C_27
    4  A    between atoms: N_9  and  C_23
    5  A    between atoms: N_10  and  C_21
    6  A    between atoms: C_12  and  C_14
    7  A    between atoms: C_14  and  C_21
    8  A    between atoms: C_15  and  O_17
    9  A    between atoms: C_16  and  O_17
                            x       y       z     vdW  Elec       q    Type
                         _______ _______ _______ _____ _____    ______ ____

>  <TORSDO>
F 9

$$$$
=
 OpenBabel11042418243D

 28 29  0  0  1  0  0  0  0  0999 V2000
  189.3710  173.9640  143.0490 C   0  0  0  0  0  3  0  0  0  0  0  0
  189.6920  174.5950  145.7660 C   0  0  0  0  0  0  0  0  0  0  0  0
  189.1720  175.5660  144.8760 C   0  0  0  0  0  0  0  0  0  0  0  0
  189.8750  173.0040  143.9250 C   0  0  0  0  0  0  0  0  0  0  0  0
  189.0210  175.2300  143.5200 C   0  0  0  0  0  3  0  0  0  0  0  0
  190.0300  173.3270  145.2810 C   0  0  0  0  0  3  0  0  0  0  0  0
  190.2220  171.7110  143.4150 N   0  0  0  0  0  0  0  0  0  0  0  0
  190.7130  170.0910  141.7000 C   0  0  0  0  0  1  0  0  0  0  0  0
  190.3510  171.4600  142.1520 C   0  0  0  0  0  3  0  0  0  0  0  0
  189.8820  174.8410  147.1680 N   0  0  0  0  0  2  0  0  0  0  0  0
  190.9530  176.8810  147.9410 C   0  0  0  0  0  1  0  0  0  0  0  0
  191.0860  175.3760  147.7850 C   0  0  2  0  0  3  0  0  0  0  0  0
  192.2820  175.0510  146.9090 C   0  0  0  0  0  2  0  0  0  0  0  0
  193.1240  176.3000  146.6770 C   0  0  0  0  0  2  0  0  0  0  0  0
  194.7410  177.3110  145.2060 O   0  0  0  0  0  1  0  0  0  0  0  0
  193.7630  176.3170  145.2920 C   0  0  2  0  0  3  0  0  0  0  0  0
  191.9500  177.6210  144.1580 O   0  0  0  0  0  1  0  0  0  0  0  0
  192.5830  175.5690  143.3610 O   0  0  0  0  0  0  0  0  0  0  0  0
  192.7450  176.4820  144.2110 C   0  0  0  0  0  0  0  0  0  0  0  0
  188.7870  176.8270  145.3620 O   0  0  0  0  0  0  0  0  0  0  0  0
  187.0290  178.3760  144.7680 N   0  0  0  0  0  0  0  0  0  0  0  0
  184.8860  178.2650  145.8190 C   0  0  0  0  0  0  0  0  0  0  0  0
  185.3280  177.1810  146.5790 C   0  0  0  0  0  3  0  0  0  0  0  0
  186.6280  176.7040  146.4200 C   0  0  0  0  0  3  0  0  0  0  0  0
  183.5890  178.7380  145.9780 O   0  0  0  0  0  1  0  0  0  0  0  0
  187.4800  177.3160  145.4960 C   0  0  0  0  0  0  0  0  0  0  0  0
  185.3340  180.0200  144.0760 C   0  0  0  0  0  1  0  0  0  0  0  0
  185.7650  178.8610  144.9040 C   0  0  0  0  0  0  0  0  0  0  0  0
  1  5  2  0  0  0  0
  1  4  1  0  0  0  0
  2 10  1  0  0  0  0
  3 20  1  0  0  0  0
  3  2  2  0  0  0  0
  4  6  2  0  0  0  0
  5  3  1  0  0  0  0
  6  2  1  0  0  0  0
  7  4  1  0  0  0  0
  8  9  1  0  0  0  0
  9  7  2  0  0  0  0
 10 12  1  0  0  0  0
 12 11  1  6  0  0  0
 13 12  1  0  0  0  0
 14 13  1  0  0  0  0
 16 15  1  1  0  0  0
 16 14  1  0  0  0  0
 17 19  1  0  0  0  0
 18 19  2  0  0  0  0
 19 16  1  0  0  0  0
 20 26  1  0  0  0  0
 21 28  1  0  0  0  0
 21 26  2  0  0  0  0
 22 25  1  0  0  0  0
 22 23  1  0  0  0  0
 24 23  2  0  0  0  0
 26 24  1  0  0  0  0
 27 28  1  0  0  0  0
 28 22  2  0  0  0  0
M  END
>  <MODEL>
2

>  <REMARK>
 VINA RESULT:      -6.4      2.871      6.737
  Name = 
  9 active torsions:
  status: ('A' for Active; 'I' for Inactive)
    1  A    between atoms: C_6  and  N_10
    2  A    between atoms: C_8  and  C_12
    3  A    between atoms: C_8  and  C_27
    4  A    between atoms: N_9  and  C_23
    5  A    between atoms: N_10  and  C_21
    6  A    between atoms: C_12  and  C_14
    7  A    between atoms: C_14  and  C_21
    8  A    between atoms: C_15  and  O_17
    9  A    between atoms: C_16  and  O_17
                            x       y       z     vdW  Elec       q    Type
                         _______ _______ _______ _____ _____    ______ ____

>  <TORSDO>
F 9

$$$$
=
 OpenBabel11042418243D

 28 29  0  0  1  0  0  0  0  0999 V2000
  188.3300  175.5310  147.2920 C   0  0  0  0  0  3  0  0  0  0  0  0
  189.1610  175.9170  144.6380 C   0  0  0  0  0  0  0  0  0  0  0  0
  189.9370  175.1120  145.5070 C   0  0  0  0  0  0  0  0  0  0  0  0
  187.5600  176.3170  146.4350 C   0  0  0  0  0  0  0  0  0  0  0  0
  189.5040  174.9330  146.8310 C   0  0  0  0  0  3  0  0  0  0  0  0
  187.9820  176.5020  145.1110 C   0  0  0  0  0  3  0  0  0  0  0  0
  186.3580  176.9150  146.9330 N   0  0  0  0  0  0  0  0  0  0  0  0
  184.2620  178.0920  146.7650 C   0  0  0  0  0  1  0  0  0  0  0  0
  185.4870  177.4950  146.1720 C   0  0  0  0  0  3  0  0  0  0  0  0
  189.5190  176.1580  143.2680 N   0  0  0  0  0  2  0  0  0  0  0  0
  190.8610  178.1240  143.7590 C   0  0  0  0  0  1  0  0  0  0  0  0
  190.0050  177.4170  142.7220 C   0  0  2  0  0  3  0  0  0  0  0  0
  188.8210  178.2890  142.3480 C   0  0  0  0  0  2  0  0  0  0  0  0
  187.9330  177.5710  141.3380 C   0  0  0  0  0  2  0  0  0  0  0  0
  185.9810  176.6940  142.4440 O   0  0  0  0  0  1  0  0  0  0  0  0
  186.4490  177.7430  141.6490 C   0  0  2  0  0  3  0  0  0  0  0  0
  184.4450  178.5930  140.4090 O   0  0  0  0  0  1  0  0  0  0  0  0
  186.0020  177.2850  139.3530 O   0  0  0  0  0  0  0  0  0  0  0  0
  185.6310  177.8680  140.4040 C   0  0  0  0  0  0  0  0  0  0  0  0
  191.0990  174.4820  145.0290 O   0  0  0  0  0  0  0  0  0  0  0  0
  192.8510  175.1880  143.5200 N   0  0  0  0  0  0  0  0  0  0  0  0
  194.8230  176.2580  144.3400 C   0  0  0  0  0  0  0  0  0  0  0  0
  194.3240  176.1580  145.6400 C   0  0  0  0  0  3  0  0  0  0  0  0
  193.0800  175.5680  145.8630 C   0  0  0  0  0  3  0  0  0  0  0  0
  196.0620  176.8480  144.1200 O   0  0  0  0  0  1  0  0  0  0  0  0
  192.3420  175.0830  144.7800 C   0  0  0  0  0  0  0  0  0  0  0  0
  194.5590  175.8450  141.8750 C   0  0  0  0  0  1  0  0  0  0  0  0
  194.0620  175.7600  143.2750 C   0  0  0  0  0  0  0  0  0  0  0  0
  2  6  2  0  0  0  0
  2  3  1  0  0  0  0
  3  5  2  0  0  0  0
  4  7  1  0  0  0  0
  4  1  2  0  0  0  0
  5  1  1  0  0  0  0
  6  4  1  0  0  0  0
  9  8  1  0  0  0  0
  9  7  2  0  0  0  0
 10  2  1  0  0  0  0
 12 10  1  0  0  0  0
 12 11  1  1  0  0  0
 13 12  1  0  0  0  0
 14 16  1  0  0  0  0
 14 13  1  0  0  0  0
 16 15  1  6  0  0  0
 18 19  2  0  0  0  0
 19 17  1  0  0  0  0
 19 16  1  0  0  0  0
 20  3  1  0  0  0  0
 21 26  2  0  0  0  0
 22 23  1  0  0  0  0
 23 24  2  0  0  0  0
 25 22  1  0  0  0  0
 26 20  1  0  0  0  0
 26 24  1  0  0  0  0
 27 28  1  0  0  0  0
 28 21  1  0  0  0  0
 28 22  2  0  0  0  0
M  END
>  <MODEL>
3

>  <REMARK>
 VINA RESULT:      -6.0      2.573      5.909
  Name = 
  9 active torsions:
  status: ('A' for Active; 'I' for Inactive)
    1  A    between atoms: C_6  and  N_10
    2  A    between atoms: C_8  and  C_12
    3  A    between atoms: C_8  and  C_27
    4  A    between atoms: N_9  and  C_23
    5  A    between atoms: N_10  and  C_21
    6  A    between atoms: C_12  and  C_14
    7  A    between atoms: C_14  and  C_21
    8  A    between atoms: C_15  and  O_17
    9  A    between atoms: C_16  and  O_17
                            x       y       z     vdW  Elec       q    Type
                         _______ _______ _______ _____ _____    ______ ____

>  <TORSDO>
F 9

$$$$
=
 OpenBabel11042418243D

 28 29  0  0  1  0  0  0  0  0999 V2000
  188.2720  175.6480  147.3200 C   0  0  0  0  0  3  0  0  0  0  0  0
  189.0200  175.5280  144.6160 C   0  0  0  0  0  0  0  0  0  0  0  0
  189.7060  174.7390  145.5710 C   0  0  0  0  0  0  0  0  0  0  0  0
  187.5890  176.4200  146.3800 C   0  0  0  0  0  0  0  0  0  0  0  0
  189.3160  174.8150  146.9180 C   0  0  0  0  0  3  0  0  0  0  0  0
  187.9680  176.3510  145.0310 C   0  0  0  0  0  3  0  0  0  0  0  0
  186.5170  177.2620  146.8190 N   0  0  0  0  0  0  0  0  0  0  0  0
  184.3170  178.2410  146.7220 C   0  0  0  0  0  1  0  0  0  0  0  0
  185.3820  177.3430  146.2040 C   0  0  0  0  0  3  0  0  0  0  0  0
  189.3420  175.5190  143.2170 N   0  0  0  0  0  2  0  0  0  0  0  0
  189.4260  173.9380  141.3720 C   0  0  0  0  0  1  0  0  0  0  0  0
  188.5520  174.8960  142.1640 C   0  0  2  0  0  3  0  0  0  0  0  0
  188.0050  175.9740  141.2470 C   0  0  0  0  0  2  0  0  0  0  0  0
  186.6800  176.5030  141.7840 C   0  0  0  0  0  2  0  0  0  0  0  0
  187.8770  178.5500  142.2050 O   0  0  0  0  0  1  0  0  0  0  0  0
  186.6400  178.0280  141.8230 C   0  0  2  0  0  3  0  0  0  0  0  0
  184.3240  177.8890  142.7690 O   0  0  0  0  0  0  0  0  0  0  0  0
  185.7450  179.5690  143.4060 O   0  0  0  0  0  1  0  0  0  0  0  0
  185.5540  178.5330  142.7180 C   0  0  0  0  0  0  0  0  0  0  0  0
  190.7340  173.8750  145.1570 O   0  0  0  0  0  0  0  0  0  0  0  0
  192.6310  175.2520  145.7440 N   0  0  0  0  0  0  0  0  0  0  0  0
  194.8590  174.3970  145.6190 C   0  0  0  0  0  0  0  0  0  0  0  0
  194.3510  173.1710  145.1850 C   0  0  0  0  0  3  0  0  0  0  0  0
  192.9750  173.0020  145.0360 C   0  0  0  0  0  3  0  0  0  0  0  0
  196.2300  174.5630  145.7680 O   0  0  0  0  0  1  0  0  0  0  0  0
  192.1140  174.0630  145.3260 C   0  0  0  0  0  0  0  0  0  0  0  0
  194.4700  176.7670  146.3600 C   0  0  0  0  0  1  0  0  0  0  0  0
  193.9700  175.4440  145.8980 C   0  0  0  0  0  0  0  0  0  0  0  0
  2  6  2  0  0  0  0
  2  3  1  0  0  0  0
  3  5  2  0  0  0  0
  4  7  1  0  0  0  0
  4  1  2  0  0  0  0
  5  1  1  0  0  0  0
  6  4  1  0  0  0  0
  9  8  1  0  0  0  0
  9  7  2  0  0  0  0
 10  2  1  0  0  0  0
 12 11  1  6  0  0  0
 12 10  1  0  0  0  0
 13 14  1  0  0  0  0
 13 12  1  0  0  0  0
 14 16  1  0  0  0  0
 16 15  1  1  0  0  0
 16 19  1  0  0  0  0
 19 17  2  0  0  0  0
 19 18  1  0  0  0  0
 20 26  1  0  0  0  0
 20  3  1  0  0  0  0
 21 28  1  0  0  0  0
 22 25  1  0  0  0  0
 22 28  2  0  0  0  0
 23 22  1  0  0  0  0
 24 23  2  0  0  0  0
 24 26  1  0  0  0  0
 26 21  2  0  0  0  0
 28 27  1  0  0  0  0
M  END
>  <MODEL>
4

>  <REMARK>
 VINA RESULT:      -6.0      2.690      5.967
  Name = 
  9 active torsions:
  status: ('A' for Active; 'I' for Inactive)
    1  A    between atoms: C_6  and  N_10
    2  A    between atoms: C_8  and  C_12
    3  A    between atoms: C_8  and  C_27
    4  A    between atoms: N_9  and  C_23
    5  A    between atoms: N_10  and  C_21
    6  A    between atoms: C_12  and  C_14
    7  A    between atoms: C_14  and  C_21
    8  A    between atoms: C_15  and  O_17
    9  A    between atoms: C_16  and  O_17
                            x       y       z     vdW  Elec       q    Type
                         _______ _______ _______ _____ _____    ______ ____

>  <TORSDO>
F 9

$$$$
=
 OpenBabel11042418243D

 28 29  0  0  1  0  0  0  0  0999 V2000
  188.7380  174.3810  141.3600 C   0  0  0  0  0  3  0  0  0  0  0  0
  189.7220  175.3070  143.8210 C   0  0  0  0  0  0  0  0  0  0  0  0
  188.9220  176.1580  143.0190 C   0  0  0  0  0  0  0  0  0  0  0  0
  189.5180  173.5390  142.1520 C   0  0  0  0  0  0  0  0  0  0  0  0
  188.4410  175.6740  141.7920 C   0  0  0  0  0  3  0  0  0  0  0  0
  190.0030  174.0100  143.3810 C   0  0  0  0  0  3  0  0  0  0  0  0
  189.8020  172.2150  141.6870 N   0  0  0  0  0  0  0  0  0  0  0  0
  190.7490  170.0020  141.8150 C   0  0  0  0  0  1  0  0  0  0  0  0
  190.4960  171.3590  142.3660 C   0  0  0  0  0  3  0  0  0  0  0  0
  190.2590  175.7070  145.0920 N   0  0  0  0  0  2  0  0  0  0  0  0
  189.3000  174.8980  147.1730 C   0  0  0  0  0  1  0  0  0  0  0  0
  190.4910  174.8340  146.2330 C   0  0  2  0  0  3  0  0  0  0  0  0
  191.7470  175.2830  146.9570 C   0  0  0  0  0  2  0  0  0  0  0  0
  192.9870  174.7620  146.2390 C   0  0  0  0  0  2  0  0  0  0  0  0
  193.8000  176.9000  146.9940 O   0  0  0  0  0  1  0  0  0  0  0  0
  194.1010  175.8030  146.1840 C   0  0  2  0  0  3  0  0  0  0  0  0
  193.3500  176.3630  143.8600 O   0  0  0  0  0  0  0  0  0  0  0  0
  195.5670  176.4750  144.4280 O   0  0  0  0  0  1  0  0  0  0  0  0
  194.3820  176.2430  144.7830 C   0  0  0  0  0  0  0  0  0  0  0  0
  188.5970  177.4470  143.4750 O   0  0  0  0  0  0  0  0  0  0  0  0
  187.2190  177.5250  145.4590 N   0  0  0  0  0  0  0  0  0  0  0  0
  185.0840  178.5960  145.4330 C   0  0  0  0  0  0  0  0  0  0  0  0
  185.2750  178.9190  144.0880 C   0  0  0  0  0  3  0  0  0  0  0  0
  186.4500  178.5360  143.4420 C   0  0  0  0  0  3  0  0  0  0  0  0
  183.9130  178.9800  146.0760 O   0  0  0  0  0  1  0  0  0  0  0  0
  187.4290  177.8330  144.1480 C   0  0  0  0  0  0  0  0  0  0  0  0
  185.9170  177.5210  147.5470 C   0  0  0  0  0  1  0  0  0  0  0  0
  186.0820  177.8870  146.1140 C   0  0  0  0  0  0  0  0  0  0  0  0
  1  5  2  0  0  0  0
  1  4  1  0  0  0  0
  2 10  1  0  0  0  0
  3 20  1  0  0  0  0
  3  2  2  0  0  0  0
  4  6  2  0  0  0  0
  5  3  1  0  0  0  0
  6  2  1  0  0  0  0
  7  4  1  0  0  0  0
  7  9  2  0  0  0  0
  8  9  1  0  0  0  0
 10 12  1  0  0  0  0
 12 13  1  0  0  0  0
 12 11  1  1  0  0  0
 14 13  1  0  0  0  0
 16 14  1  0  0  0  0
 16 15  1  1  0  0  0
 17 19  2  0  0  0  0
 18 19  1  0  0  0  0
 19 16  1  0  0  0  0
 20 26  1  0  0  0  0
 21 28  1  0  0  0  0
 22 25  1  0  0  0  0
 22 28  2  0  0  0  0
 23 22  1  0  0  0  0
 24 23  2  0  0  0  0
 24 26  1  0  0  0  0
 26 21  2  0  0  0  0
 28 27  1  0  0  0  0
M  END
>  <MODEL>
5

>  <REMARK>
 VINA RESULT:      -6.0      2.802      6.465
  Name = 
  9 active torsions:
  status: ('A' for Active; 'I' for Inactive)
    1  A    between atoms: C_6  and  N_10
    2  A    between atoms: C_8  and  C_12
    3  A    between atoms: C_8  and  C_27
    4  A    between atoms: N_9  and  C_23
    5  A    between atoms: N_10  and  C_21
    6  A    between atoms: C_12  and  C_14
    7  A    between atoms: C_14  and  C_21
    8  A    between atoms: C_15  and  O_17
    9  A    between atoms: C_16  and  O_17
                            x       y       z     vdW  Elec       q    Type
                         _______ _______ _______ _____ _____    ______ ____

>  <TORSDO>
F 9

$$$$
=
 OpenBabel11042418243D

 28 29  0  0  1  0  0  0  0  0999 V2000
  189.0790  174.6980  142.2560 C   0  0  0  0  0  3  0  0  0  0  0  0
  190.7810  175.8220  144.1850 C   0  0  0  0  0  0  0  0  0  0  0  0
  189.3800  175.9920  144.3000 C   0  0  0  0  0  0  0  0  0  0  0  0
  190.4580  174.5230  142.1460 C   0  0  0  0  0  0  0  0  0  0  0  0
  188.5470  175.4220  143.3240 C   0  0  0  0  0  3  0  0  0  0  0  0
  191.3000  175.0860  143.1150 C   0  0  0  0  0  3  0  0  0  0  0  0
  190.9760  173.7700  141.0430 N   0  0  0  0  0  0  0  0  0  0  0  0
  190.8580  172.5990  138.9400 C   0  0  0  0  0  1  0  0  0  0  0  0
  190.2460  173.3760  140.0490 C   0  0  0  0  0  3  0  0  0  0  0  0
  191.7150  176.3640  145.1320 N   0  0  0  0  0  2  0  0  0  0  0  0
  191.7160  175.4240  147.3730 C   0  0  0  0  0  1  0  0  0  0  0  0
  192.5040  175.5980  146.0860 C   0  0  2  0  0  3  0  0  0  0  0  0
  193.8000  176.3360  146.3680 C   0  0  0  0  0  2  0  0  0  0  0  0
  194.9950  175.4560  146.0230 C   0  0  0  0  0  2  0  0  0  0  0  0
  195.7880  173.8500  144.4120 O   0  0  0  0  0  1  0  0  0  0  0  0
  194.9440  174.9500  144.5850 C   0  0  2  0  0  3  0  0  0  0  0  0
  196.3720  176.8560  143.8080 O   0  0  0  0  0  1  0  0  0  0  0  0
  194.5360  176.2070  142.6010 O   0  0  0  0  0  0  0  0  0  0  0  0
  195.2750  176.0280  143.6030 C   0  0  0  0  0  0  0  0  0  0  0  0
  188.8470  176.6920  145.3960 O   0  0  0  0  0  0  0  0  0  0  0  0
  187.1260  178.2710  144.7730 N   0  0  0  0  0  0  0  0  0  0  0  0
  184.9740  178.2160  145.8090 C   0  0  0  0  0  0  0  0  0  0  0  0
  185.3870  177.1310  146.5840 C   0  0  0  0  0  3  0  0  0  0  0  0
  186.6780  176.6250  146.4390 C   0  0  0  0  0  3  0  0  0  0  0  0
  183.6860  178.7180  145.9530 O   0  0  0  0  0  1  0  0  0  0  0  0
  187.5490  177.2090  145.5160 C   0  0  0  0  0  0  0  0  0  0  0  0
  185.4720  179.9430  144.0510 C   0  0  0  0  0  1  0  0  0  0  0  0
  185.8710  178.7830  144.8940 C   0  0  0  0  0  0  0  0  0  0  0  0
  1  5  1  0  0  0  0
  2  3  1  0  0  0  0
  2 10  1  0  0  0  0
  3 20  1  0  0  0  0
  4  1  2  0  0  0  0
  4  6  1  0  0  0  0
  5  3  2  0  0  0  0
  6  2  2  0  0  0  0
  7  4  1  0  0  0  0
  8  9  1  0  0  0  0
  9  7  2  0  0  0  0
 10 12  1  0  0  0  0
 12 13  1  0  0  0  0
 12 11  1  1  0  0  0
 14 13  1  0  0  0  0
 16 15  1  1  0  0  0
 16 14  1  0  0  0  0
 18 19  2  0  0  0  0
 19 17  1  0  0  0  0
 19 16  1  0  0  0  0
 20 26  1  0  0  0  0
 21 28  1  0  0  0  0
 21 26  2  0  0  0  0
 22 25  1  0  0  0  0
 22 23  1  0  0  0  0
 24 23  2  0  0  0  0
 26 24  1  0  0  0  0
 27 28  1  0  0  0  0
 28 22  2  0  0  0  0
M  END
>  <MODEL>
6

>  <REMARK>
 VINA RESULT:      -5.9      2.972      6.917
  Name = 
  9 active torsions:
  status: ('A' for Active; 'I' for Inactive)
    1  A    between atoms: C_6  and  N_10
    2  A    between atoms: C_8  and  C_12
    3  A    between atoms: C_8  and  C_27
    4  A    between atoms: N_9  and  C_23
    5  A    between atoms: N_10  and  C_21
    6  A    between atoms: C_12  and  C_14
    7  A    between atoms: C_14  and  C_21
    8  A    between atoms: C_15  and  O_17
    9  A    between atoms: C_16  and  O_17
                            x       y       z     vdW  Elec       q    Type
                         _______ _______ _______ _____ _____    ______ ____

>  <TORSDO>
F 9

$$$$
=
 OpenBabel11042418243D

 28 29  0  0  1  0  0  0  0  0999 V2000
  188.2370  173.5990  141.3430 C   0  0  0  0  0  3  0  0  0  0  0  0
  190.0980  175.4660  142.3110 C   0  0  0  0  0  0  0  0  0  0  0  0
  188.7700  175.8750  142.0340 C   0  0  0  0  0  0  0  0  0  0  0  0
  189.5410  173.1920  141.6230 C   0  0  0  0  0  0  0  0  0  0  0  0
  187.8560  174.9250  141.5500 C   0  0  0  0  0  3  0  0  0  0  0  0
  190.4630  174.1310  142.1080 C   0  0  0  0  0  3  0  0  0  0  0  0
  189.9040  171.8230  141.4060 N   0  0  0  0  0  0  0  0  0  0  0  0
  190.8500  169.6860  141.9950 C   0  0  0  0  0  1  0  0  0  0  0  0
  190.5060  171.1010  142.2950 C   0  0  0  0  0  3  0  0  0  0  0  0
  191.1040  176.3600  142.8100 N   0  0  0  0  0  2  0  0  0  0  0  0
  191.2610  178.5780  143.7930 C   0  0  0  0  0  1  0  0  0  0  0  0
  191.0440  177.0990  144.0630 C   0  0  2  0  0  3  0  0  0  0  0  0
  192.1190  176.5800  145.0000 C   0  0  0  0  0  2  0  0  0  0  0  0
  191.5140  176.2170  146.3510 C   0  0  0  0  0  2  0  0  0  0  0  0
  189.4060  177.0320  147.1830 O   0  0  0  0  0  1  0  0  0  0  0  0
  189.9920  176.1250  146.2960 C   0  0  2  0  0  3  0  0  0  0  0  0
  189.6970  173.7300  145.6250 O   0  0  0  0  0  0  0  0  0  0  0  0
  188.8960  174.4850  147.6340 O   0  0  0  0  0  1  0  0  0  0  0  0
  189.5080  174.7370  146.5640 C   0  0  0  0  0  0  0  0  0  0  0  0
  188.3820  177.2040  142.2780 O   0  0  0  0  0  0  0  0  0  0  0  0
  187.1400  177.0720  144.3480 N   0  0  0  0  0  0  0  0  0  0  0  0
  185.2840  178.5180  144.7620 C   0  0  0  0  0  0  0  0  0  0  0  0
  185.4810  179.1100  143.5140 C   0  0  0  0  0  3  0  0  0  0  0  0
  186.5180  178.6700  142.6920 C   0  0  0  0  0  3  0  0  0  0  0  0
  184.2510  178.9590  145.5810 O   0  0  0  0  0  1  0  0  0  0  0  0
  187.3540  177.6390  143.1270 C   0  0  0  0  0  0  0  0  0  0  0  0
  185.9590  176.8230  146.4920 C   0  0  0  0  0  1  0  0  0  0  0  0
  186.1360  177.4830  145.1700 C   0  0  0  0  0  0  0  0  0  0  0  0
  1  5  2  0  0  0  0
  1  4  1  0  0  0  0
  2 10  1  0  0  0  0
  3 20  1  0  0  0  0
  3  2  2  0  0  0  0
  4  6  2  0  0  0  0
  5  3  1  0  0  0  0
  6  2  1  0  0  0  0
  7  4  1  0  0  0  0
  7  9  2  0  0  0  0
  8  9  1  0  0  0  0
 10 12  1  0  0  0  0
 12 11  1  6  0  0  0
 12 13  1  0  0  0  0
 13 14  1  0  0  0  0
 16 14  1  0  0  0  0
 16 19  1  0  0  0  0
 16 15  1  1  0  0  0
 17 19  2  0  0  0  0
 19 18  1  0  0  0  0
 20 26  1  0  0  0  0
 21 28  1  0  0  0  0
 22 28  2  0  0  0  0
 22 25  1  0  0  0  0
 23 22  1  0  0  0  0
 24 26  1  0  0  0  0
 24 23  2  0  0  0  0
 26 21  2  0  0  0  0
 28 27  1  0  0  0  0
M  END
>  <MODEL>
7

>  <REMARK>
 VINA RESULT:      -5.8      2.357      6.205
  Name = 
  9 active torsions:
  status: ('A' for Active; 'I' for Inactive)
    1  A    between atoms: C_6  and  N_10
    2  A    between atoms: C_8  and  C_12
    3  A    between atoms: C_8  and  C_27
    4  A    between atoms: N_9  and  C_23
    5  A    between atoms: N_10  and  C_21
    6  A    between atoms: C_12  and  C_14
    7  A    between atoms: C_14  and  C_21
    8  A    between atoms: C_15  and  O_17
    9  A    between atoms: C_16  and  O_17
                            x       y       z     vdW  Elec       q    Type
                         _______ _______ _______ _____ _____    ______ ____

>  <TORSDO>
F 9

$$$$
=
 OpenBabel11042418243D

 28 29  0  0  1  0  0  0  0  0999 V2000
  188.4740  175.2660  141.3590 C   0  0  0  0  0  3  0  0  0  0  0  0
  189.0260  175.7020  144.0770 C   0  0  0  0  0  0  0  0  0  0  0  0
  189.9170  174.9270  143.2950 C   0  0  0  0  0  0  0  0  0  0  0  0
  187.6000  176.0370  142.1260 C   0  0  0  0  0  0  0  0  0  0  0  0
  189.6210  174.7210  141.9370 C   0  0  0  0  0  3  0  0  0  0  0  0
  187.8860  176.2510  143.4820 C   0  0  0  0  0  3  0  0  0  0  0  0
  186.4340  176.5890  141.5050 N   0  0  0  0  0  0  0  0  0  0  0  0
  185.1030  178.3220  140.4900 C   0  0  0  0  0  1  0  0  0  0  0  0
  186.3490  177.8230  141.1270 C   0  0  0  0  0  3  0  0  0  0  0  0
  189.2420  175.9720  145.4710 N   0  0  0  0  0  2  0  0  0  0  0  0
  189.8230  177.5610  147.2160 C   0  0  0  0  0  1  0  0  0  0  0  0
  188.7770  177.1460  146.1950 C   0  0  2  0  0  3  0  0  0  0  0  0
  187.4730  176.8150  146.8970 C   0  0  0  0  0  2  0  0  0  0  0  0
  186.6480  178.0800  147.1050 C   0  0  0  0  0  2  0  0  0  0  0  0
  184.7910  176.6660  146.5110 O   0  0  0  0  0  1  0  0  0  0  0  0
  185.2660  177.9790  146.4680 C   0  0  2  0  0  3  0  0  0  0  0  0
  184.4350  177.9240  144.1050 O   0  0  0  0  0  0  0  0  0  0  0  0
  186.0310  179.4380  144.7460 O   0  0  0  0  0  1  0  0  0  0  0  0
  185.2600  178.4970  145.0660 C   0  0  0  0  0  0  0  0  0  0  0  0
  191.0890  174.4100  143.8730 O   0  0  0  0  0  0  0  0  0  0  0  0
  192.7730  175.7700  144.9480 N   0  0  0  0  0  0  0  0  0  0  0  0
  194.8640  176.2110  143.8790 C   0  0  0  0  0  0  0  0  0  0  0  0
  194.4550  175.4430  142.7880 C   0  0  0  0  0  3  0  0  0  0  0  0
  193.1970  174.8420  142.7930 C   0  0  0  0  0  3  0  0  0  0  0  0
  196.1190  176.8080  143.8730 O   0  0  0  0  0  1  0  0  0  0  0  0
  192.3550  175.0130  143.8950 C   0  0  0  0  0  0  0  0  0  0  0  0
  194.3920  177.1800  146.1510 C   0  0  0  0  0  1  0  0  0  0  0  0
  193.9960  176.3670  144.9680 C   0  0  0  0  0  0  0  0  0  0  0  0
  1  5  2  0  0  0  0
  1  4  1  0  0  0  0
  2 10  1  0  0  0  0
  3 20  1  0  0  0  0
  3  2  2  0  0  0  0
  4  6  2  0  0  0  0
  5  3  1  0  0  0  0
  6  2  1  0  0  0  0
  7  4  1  0  0  0  0
  8  9  1  0  0  0  0
  9  7  2  0  0  0  0
 10 12  1  0  0  0  0
 12 13  1  0  0  0  0
 12 11  1  1  0  0  0
 13 14  1  0  0  0  0
 16 15  1  6  0  0  0
 16 14  1  0  0  0  0
 17 19  2  0  0  0  0
 18 19  1  0  0  0  0
 19 16  1  0  0  0  0
 20 26  1  0  0  0  0
 21 28  1  0  0  0  0
 22 28  2  0  0  0  0
 23 24  2  0  0  0  0
 23 22  1  0  0  0  0
 24 26  1  0  0  0  0
 25 22  1  0  0  0  0
 26 21  2  0  0  0  0
 28 27  1  0  0  0  0
M  END
>  <MODEL>
8

>  <REMARK>
 VINA RESULT:      -5.7      2.495      4.502
  Name = 
  9 active torsions:
  status: ('A' for Active; 'I' for Inactive)
    1  A    between atoms: C_6  and  N_10
    2  A    between atoms: C_8  and  C_12
    3  A    between atoms: C_8  and  C_27
    4  A    between atoms: N_9  and  C_23
    5  A    between atoms: N_10  and  C_21
    6  A    between atoms: C_12  and  C_14
    7  A    between atoms: C_14  and  C_21
    8  A    between atoms: C_15  and  O_17
    9  A    between atoms: C_16  and  O_17
                            x       y       z     vdW  Elec       q    Type
                         _______ _______ _______ _____ _____    ______ ____

>  <TORSDO>
F 9

$$$$
=
 OpenBabel11042418243D

 28 29  0  0  1  0  0  0  0  0999 V2000
  191.9480  176.3480  147.2960 C   0  0  0  0  0  3  0  0  0  0  0  0
  190.3950  174.4130  145.9820 C   0  0  0  0  0  0  0  0  0  0  0  0
  189.7660  175.3750  146.8100 C   0  0  0  0  0  0  0  0  0  0  0  0
  192.5680  175.4070  146.4750 C   0  0  0  0  0  0  0  0  0  0  0  0
  190.5620  176.3340  147.4580 C   0  0  0  0  0  3  0  0  0  0  0  0
  191.7840  174.4450  145.8210 C   0  0  0  0  0  3  0  0  0  0  0  0
  193.9910  175.4480  146.3220 N   0  0  0  0  0  0  0  0  0  0  0  0
  196.1310  174.6990  145.5060 C   0  0  0  0  0  1  0  0  0  0  0  0
  194.6530  174.5900  145.6160 C   0  0  0  0  0  3  0  0  0  0  0  0
  189.6680  173.3950  145.2760 N   0  0  0  0  0  2  0  0  0  0  0  0
  190.6740  172.6360  143.1980 C   0  0  0  0  0  1  0  0  0  0  0  0
  189.4800  173.3270  143.8340 C   0  0  2  0  0  3  0  0  0  0  0  0
  189.3420  174.7330  143.2820 C   0  0  0  0  0  2  0  0  0  0  0  0
  188.1030  174.8350  142.3990 C   0  0  0  0  0  2  0  0  0  0  0  0
  187.5510  176.1660  140.4690 O   0  0  0  0  0  1  0  0  0  0  0  0
  188.4480  175.2160  140.9620 C   0  0  2  0  0  3  0  0  0  0  0  0
  188.0460  172.7850  140.5140 O   0  0  0  0  0  1  0  0  0  0  0  0
  188.9790  174.1280  138.9090 O   0  0  0  0  0  0  0  0  0  0  0  0
  188.4970  174.0210  140.0660 C   0  0  0  0  0  0  0  0  0  0  0  0
  188.3670  175.3790  146.9420 O   0  0  0  0  0  0  0  0  0  0  0  0
  187.5590  176.8840  145.2320 N   0  0  0  0  0  0  0  0  0  0  0  0
  185.7170  178.3460  145.6510 C   0  0  0  0  0  0  0  0  0  0  0  0
  185.6200  177.8350  146.9460 C   0  0  0  0  0  3  0  0  0  0  0  0
  186.5040  176.8430  147.3700 C   0  0  0  0  0  3  0  0  0  0  0  0
  184.8340  179.3330  145.2300 O   0  0  0  0  0  1  0  0  0  0  0  0
  187.4800  176.3670  146.4900 C   0  0  0  0  0  0  0  0  0  0  0  0
  186.8470  178.3710  143.4050 C   0  0  0  0  0  1  0  0  0  0  0  0
  186.7080  177.8510  144.7930 C   0  0  0  0  0  0  0  0  0  0  0  0
  1  5  1  0  0  0  0
  2  3  1  0  0  0  0
  3 20  1  0  0  0  0
  3  5  2  0  0  0  0
  4  1  2  0  0  0  0
  6  2  2  0  0  0  0
  6  4  1  0  0  0  0
  7  4  1  0  0  0  0
  8  9  1  0  0  0  0
  9  7  2  0  0  0  0
 10  2  1  0  0  0  0
 12 11  1  6  0  0  0
 12 10  1  0  0  0  0
 13 12  1  0  0  0  0
 14 13  1  0  0  0  0
 16 15  1  6  0  0  0
 16 14  1  0  0  0  0
 18 19  2  0  0  0  0
 19 17  1  0  0  0  0
 19 16  1  0  0  0  0
 21 26  2  0  0  0  0
 22 23  1  0  0  0  0
 23 24  2  0  0  0  0
 25 22  1  0  0  0  0
 26 20  1  0  0  0  0
 26 24  1  0  0  0  0
 27 28  1  0  0  0  0
 28 21  1  0  0  0  0
 28 22  2  0  0  0  0
M  END
>  <MODEL>
9

>  <REMARK>
 VINA RESULT:      -5.6      3.043      8.095
  Name = 
  9 active torsions:
  status: ('A' for Active; 'I' for Inactive)
    1  A    between atoms: C_6  and  N_10
    2  A    between atoms: C_8  and  C_12
    3  A    between atoms: C_8  and  C_27
    4  A    between atoms: N_9  and  C_23
    5  A    between atoms: N_10  and  C_21
    6  A    between atoms: C_12  and  C_14
    7  A    between atoms: C_14  and  C_21
    8  A    between atoms: C_15  and  O_17
    9  A    between atoms: C_16  and  O_17
                            x       y       z     vdW  Elec       q    Type
                         _______ _______ _______ _____ _____    ______ ____

>  <TORSDO>
F 9

$$$$
