=
 OpenBabel11042414593D

 39 42  0  0  1  0  0  0  0  0999 V2000
  191.3790  176.7540  147.3860 C   0  0  0  0  0  3  0  0  0  0  0  0
  189.1910  177.1040  146.0070 C   0  0  0  0  0  0  0  0  0  0  0  0
  190.2860  176.9310  146.6960 C   0  0  0  0  0  0  0  0  0  0  0  0
  194.4430  175.8220  144.0000 C   0  0  0  0  0  1  0  0  0  0  0  0
  192.3020  174.6650  144.8030 C   0  0  0  0  0  3  0  0  0  0  0  0
  194.3400  176.7930  146.7750 O   0  0  0  0  0  0  0  0  0  0  0  0
  192.2700  175.5880  147.1090 C   0  0  1  0  0  3  0  0  0  0  0  0
  191.5730  174.6040  146.1550 C   0  0  0  0  0  3  0  0  0  0  0  0
  193.4440  176.0280  146.3280 C   0  0  0  0  0  0  0  0  0  0  0  0
  193.4670  175.4950  145.0240 N   0  0  0  0  0  0  0  0  0  0  0  0
  186.4180  178.4130  148.0650 C   0  0  0  0  0  2  0  0  0  0  0  0
  187.9220  177.3800  146.7020 C   0  0  0  0  0  0  0  0  0  0  0  0
  186.8690  176.6530  146.5510 N   0  0  0  0  0  0  0  0  0  0  0  0
  187.7430  178.4380  147.5700 O   0  0  0  0  0  0  0  0  0  0  0  0
  185.7940  177.1960  147.3690 C   0  0  2  0  0  3  0  0  0  0  0  0
  184.6420  177.6270  146.4700 C   0  0  0  0  0  2  0  0  0  0  0  0
  186.0200  178.2620  142.4500 C   0  0  0  0  0  0  0  0  0  0  0  0
  185.4590  179.1340  144.6430 C   0  0  0  0  0  3  0  0  0  0  0  0
  185.1050  177.8510  145.0700 C   0  0  0  0  0  0  0  0  0  0  0  0
  185.2170  176.7690  144.1910 C   0  0  0  0  0  3  0  0  0  0  0  0
  185.6700  176.9720  142.8860 C   0  0  0  0  0  3  0  0  0  0  0  0
  185.9110  179.3390  143.3370 C   0  0  0  0  0  3  0  0  0  0  0  0
  186.4720  178.5000  141.1500 O   0  0  0  0  0  0  0  0  0  0  0  0
  186.6770  177.4580  140.2070 C   0  0  0  0  0  1  0  0  0  0  0  0
  189.2690  177.1180  144.5160 C   0  0  0  0  0  2  0  0  0  0  0  0
  188.8200  175.7780  143.9540 C   0  0  0  0  0  2  0  0  0  0  0  0
  189.1620  175.6760  142.4790 C   0  0  0  0  0  2  0  0  0  0  0  0
  189.0130  174.1940  140.5350 C   0  0  1  0  0  3  0  0  0  0  0  0
  189.0990  174.2330  142.0110 C   0  0  1  0  0  3  0  0  0  0  0  0
  190.2240  173.9620  141.2130 O   0  0  0  0  0  0  0  0  0  0  0  0
  188.4340  172.8630  140.0950 C   0  0  0  0  0  2  0  0  0  0  0  0
  188.7170  172.6120  138.6160 C   0  0  0  0  0  2  0  0  0  0  0  0
  190.2100  172.4980  138.2900 C   0  0  1  0  0  3  0  0  0  0  0  0
  190.6300  171.0600  138.0020 C   0  0  0  0  0  2  0  0  0  0  0  0
  189.5170  170.2210  138.0560 O   0  0  0  0  0  1  0  0  0  0  0  0
  190.5590  173.3630  137.1690 N   0  0  0  0  0  2  0  0  0  0  0  0
  189.6230  172.7720  135.0140 C   0  0  0  0  0  1  0  0  0  0  0  0
  189.1370  174.8450  136.0670 O   0  0  0  0  0  1  0  0  0  0  0  0
  189.3820  173.4940  136.3230 C   0  0  2  0  0  3  0  0  0  0  0  0
  2  3  2  0  0  0  0
  2 12  1  0  0  0  0
  3  1  2  0  0  0  0
  4 10  1  0  0  0  0
  5 10  1  0  0  0  0
  5  8  2  0  0  0  0
  7  1  1  6  0  0  0
  8  7  1  0  0  0  0
  9  6  2  0  0  0  0
  9  7  1  0  0  0  0
 10  9  1  0  0  0  0
 12 14  1  0  0  0  0
 13 12  2  0  0  0  0
 13 15  1  0  0  0  0
 14 11  1  0  0  0  0
 15 16  1  6  0  0  0
 15 11  1  0  0  0  0
 17 21  2  0  0  0  0
 17 22  1  0  0  0  0
 18 19  1  0  0  0  0
 19 16  1  0  0  0  0
 20 19  2  0  0  0  0
 21 20  1  0  0  0  0
 22 18  2  0  0  0  0
 23 17  1  0  0  0  0
 24 23  1  0  0  0  0
 25  2  1  0  0  0  0
 26 25  1  0  0  0  0
 27 26  1  0  0  0  0
 28 31  1  1  0  0  0
 28 30  1  0  0  0  0
 28 29  1  0  0  0  0
 29 27  1  6  0  0  0
 30 29  1  0  0  0  0
 32 31  1  0  0  0  0
 33 34  1  6  0  0  0
 33 32  1  0  0  0  0
 34 35  1  0  0  0  0
 36 33  1  0  0  0  0
 38 39  1  0  0  0  0
 39 37  1  6  0  0  0
 39 36  1  0  0  0  0
M  END
>  <MODEL>
1

>  <REMARK>
 VINA RESULT:      -6.6      0.000      0.000
  Name = 
  15 active torsions:
  status: ('A' for Active; 'I' for Inactive)
    1  A    between atoms: C_1  and  C_24
    2  A    between atoms: C_2  and  C_15
    3  A    between atoms: C_2  and  C_17
    4  A    between atoms: C_4  and  CA_30
    5  A    between atoms: C_4  and  C_32
    6  A    between atoms: C_5  and  O_7
    7  A    between atoms: C_6  and  C_32
    8  A    between atoms: C_8  and  C_21
    9  A    between atoms: C_8  and  C_39
   10  A    between atoms: C_11  and  C_15
   11  A    between atoms: C_11  and  C_35
   12  A    between atoms: C_14  and  CA_30
   13  A    between atoms: C_18  and  C_35
   14  A    between atoms: C_22  and  N_27
   15  A    between atoms: N_27  and  CA_30
                            x       y       z     vdW  Elec       q    Type
                         _______ _______ _______ _____ _____    ______ ____

>  <TORSDO>
F 15

$$$$
=
 OpenBabel11042414593D

 39 42  0  0  1  0  0  0  0  0999 V2000
  193.2880  175.0050  146.1500 C   0  0  0  0  0  3  0  0  0  0  0  0
  191.9860  175.1450  143.8930 C   0  0  0  0  0  0  0  0  0  0  0  0
  192.6350  175.0770  145.0230 C   0  0  0  0  0  0  0  0  0  0  0  0
  196.3230  176.6970  143.0450 C   0  0  0  0  0  1  0  0  0  0  0  0
  196.1280  174.4570  144.2750 C   0  0  0  0  0  3  0  0  0  0  0  0
  194.7670  177.5320  145.3980 O   0  0  0  0  0  0  0  0  0  0  0  0
  194.7610  175.2480  146.1920 C   0  0  1  0  0  3  0  0  0  0  0  0
  195.5130  174.0350  145.6190 C   0  0  0  0  0  3  0  0  0  0  0  0
  195.1160  176.3310  145.2520 C   0  0  0  0  0  0  0  0  0  0  0  0
  195.9020  175.8830  144.1710 N   0  0  0  0  0  0  0  0  0  0  0  0
  189.5690  172.3570  143.7350 C   0  0  0  0  0  2  0  0  0  0  0  0
  191.0580  174.0670  143.5130 C   0  0  0  0  0  0  0  0  0  0  0  0
  190.8150  173.7530  142.2880 N   0  0  0  0  0  0  0  0  0  0  0  0
  190.3630  173.3010  144.4280 O   0  0  0  0  0  0  0  0  0  0  0  0
  189.8570  172.6560  142.2570 C   0  0  2  0  0  3  0  0  0  0  0  0
  188.5880  173.1110  141.5470 C   0  0  0  0  0  2  0  0  0  0  0  0
  189.1590  173.1530  137.2890 C   0  0  0  0  0  0  0  0  0  0  0  0
  188.3230  174.2050  139.3090 C   0  0  0  0  0  3  0  0  0  0  0  0
  188.7710  173.1190  140.0670 C   0  0  0  0  0  0  0  0  0  0  0  0
  189.4240  172.0520  139.4400 C   0  0  0  0  0  3  0  0  0  0  0  0
  189.6150  172.0660  138.0560 C   0  0  0  0  0  3  0  0  0  0  0  0
  188.5130  174.2190  137.9240 C   0  0  0  0  0  3  0  0  0  0  0  0
  189.3310  173.1960  135.9030 O   0  0  0  0  0  0  0  0  0  0  0  0
  189.2380  174.3990  135.1550 C   0  0  0  0  0  1  0  0  0  0  0  0
  192.1240  176.3720  143.0530 C   0  0  0  0  0  2  0  0  0  0  0  0
  191.2180  177.4740  143.5810 C   0  0  0  0  0  2  0  0  0  0  0  0
  190.1190  177.7870  142.5810 C   0  0  0  0  0  2  0  0  0  0  0  0
  187.6730  177.8140  142.6870 C   0  0  1  0  0  3  0  0  0  0  0  0
  188.8740  176.9720  142.8790 C   0  0  1  0  0  3  0  0  0  0  0  0
  188.0920  176.8890  141.7130 O   0  0  0  0  0  0  0  0  0  0  0  0
  186.5090  177.2210  143.4580 C   0  0  0  0  0  2  0  0  0  0  0  0
  185.9430  178.2360  144.4480 C   0  0  0  0  0  2  0  0  0  0  0  0
  186.3940  177.9980  145.8920 C   0  0  1  0  0  3  0  0  0  0  0  0
  185.3590  178.4720  146.9070 C   0  0  0  0  0  2  0  0  0  0  0  0
  185.8900  179.5060  147.6790 O   0  0  0  0  0  1  0  0  0  0  0  0
  186.7090  176.5910  146.1080 N   0  0  0  0  0  2  0  0  0  0  0  0
  188.9370  177.4730  146.4660 C   0  0  0  0  0  1  0  0  0  0  0  0
  188.3820  175.2220  146.9800 O   0  0  0  0  0  1  0  0  0  0  0  0
  187.8740  176.5230  146.9770 C   0  0  2  0  0  3  0  0  0  0  0  0
  2  3  2  0  0  0  0
  3  1  2  0  0  0  0
  4 10  1  0  0  0  0
  5  8  2  0  0  0  0
  7  1  1  6  0  0  0
  8  7  1  0  0  0  0
  9  6  2  0  0  0  0
  9  7  1  0  0  0  0
 10  5  1  0  0  0  0
 10  9  1  0  0  0  0
 11 14  1  0  0  0  0
 12  2  1  0  0  0  0
 12 14  1  0  0  0  0
 13 12  2  0  0  0  0
 15 16  1  6  0  0  0
 15 13  1  0  0  0  0
 15 11  1  0  0  0  0
 17 22  2  0  0  0  0
 17 21  1  0  0  0  0
 18 19  2  0  0  0  0
 19 16  1  0  0  0  0
 20 19  1  0  0  0  0
 21 20  2  0  0  0  0
 22 18  1  0  0  0  0
 23 17  1  0  0  0  0
 24 23  1  0  0  0  0
 25 26  1  0  0  0  0
 25  2  1  0  0  0  0
 27 26  1  0  0  0  0
 28 29  1  0  0  0  0
 28 31  1  1  0  0  0
 29 27  1  6  0  0  0
 30 28  1  0  0  0  0
 30 29  1  0  0  0  0
 31 32  1  0  0  0  0
 33 32  1  6  0  0  0
 33 36  1  0  0  0  0
 33 34  1  0  0  0  0
 34 35  1  0  0  0  0
 36 39  1  0  0  0  0
 39 37  1  6  0  0  0
 39 38  1  0  0  0  0
M  END
>  <MODEL>
2

>  <REMARK>
 VINA RESULT:      -6.6      1.893      7.178
  Name = 
  15 active torsions:
  status: ('A' for Active; 'I' for Inactive)
    1  A    between atoms: C_1  and  C_24
    2  A    between atoms: C_2  and  C_15
    3  A    between atoms: C_2  and  C_17
    4  A    between atoms: C_4  and  CA_30
    5  A    between atoms: C_4  and  C_32
    6  A    between atoms: C_5  and  O_7
    7  A    between atoms: C_6  and  C_32
    8  A    between atoms: C_8  and  C_21
    9  A    between atoms: C_8  and  C_39
   10  A    between atoms: C_11  and  C_15
   11  A    between atoms: C_11  and  C_35
   12  A    between atoms: C_14  and  CA_30
   13  A    between atoms: C_18  and  C_35
   14  A    between atoms: C_22  and  N_27
   15  A    between atoms: N_27  and  CA_30
                            x       y       z     vdW  Elec       q    Type
                         _______ _______ _______ _____ _____    ______ ____

>  <TORSDO>
F 15

$$$$
=
 OpenBabel11042414593D

 39 42  0  0  1  0  0  0  0  0999 V2000
  188.4570  172.8110  140.0950 C   0  0  0  0  0  3  0  0  0  0  0  0
  188.6170  175.1260  141.2900 C   0  0  0  0  0  0  0  0  0  0  0  0
  188.5360  173.9670  140.6950 C   0  0  0  0  0  0  0  0  0  0  0  0
  192.8430  172.4740  141.6340 C   0  0  0  0  0  1  0  0  0  0  0  0
  191.7920  173.4640  139.5170 C   0  0  0  0  0  3  0  0  0  0  0  0
  190.3420  170.9300  141.5290 O   0  0  0  0  0  0  0  0  0  0  0  0
  189.6810  172.1540  139.5500 C   0  0  1  0  0  3  0  0  0  0  0  0
  190.5040  173.1640  138.7320 C   0  0  0  0  0  3  0  0  0  0  0  0
  190.5960  171.8020  140.6550 C   0  0  0  0  0  0  0  0  0  0  0  0
  191.7980  172.5370  140.6280 N   0  0  0  0  0  0  0  0  0  0  0  0
  186.2960  177.4790  139.6430 C   0  0  0  0  0  2  0  0  0  0  0  0
  187.6900  176.2090  140.9200 C   0  0  0  0  0  0  0  0  0  0  0  0
  187.3240  177.1290  141.7440 N   0  0  0  0  0  0  0  0  0  0  0  0
  187.1290  176.3360  139.6650 O   0  0  0  0  0  0  0  0  0  0  0  0
  186.4070  178.0360  141.0680 C   0  0  2  0  0  3  0  0  0  0  0  0
  185.0520  177.9990  141.7640 C   0  0  0  0  0  2  0  0  0  0  0  0
  185.4950  178.7380  145.9730 C   0  0  0  0  0  0  0  0  0  0  0  0
  185.1140  177.1990  144.1380 C   0  0  0  0  0  3  0  0  0  0  0  0
  185.1890  178.2570  143.2260 C   0  0  0  0  0  0  0  0  0  0  0  0
  185.4280  179.5560  143.6860 C   0  0  0  0  0  3  0  0  0  0  0  0
  185.5780  179.7980  145.0530 C   0  0  0  0  0  3  0  0  0  0  0  0
  185.2620  177.4400  145.5060 C   0  0  0  0  0  3  0  0  0  0  0  0
  185.6360  178.9470  147.3480 O   0  0  0  0  0  0  0  0  0  0  0  0
  186.8170  178.6050  148.0580 C   0  0  0  0  0  1  0  0  0  0  0  0
  189.5890  175.2960  142.4110 C   0  0  0  0  0  2  0  0  0  0  0  0
  189.1530  174.4730  143.6140 C   0  0  0  0  0  2  0  0  0  0  0  0
  188.7250  175.3790  144.7540 C   0  0  0  0  0  2  0  0  0  0  0  0
  190.1210  176.2560  146.5640 C   0  0  1  0  0  3  0  0  0  0  0  0
  189.4810  175.0360  146.0250 C   0  0  1  0  0  3  0  0  0  0  0  0
  188.9200  175.7530  147.0970 O   0  0  0  0  0  0  0  0  0  0  0  0
  191.2660  175.8660  147.4790 C   0  0  0  0  0  2  0  0  0  0  0  0
  192.6000  176.3410  146.9100 C   0  0  0  0  0  2  0  0  0  0  0  0
  193.5690  175.1980  146.5870 C   0  0  1  0  0  3  0  0  0  0  0  0
  193.0360  174.2810  145.4920 C   0  0  0  0  0  2  0  0  0  0  0  0
  193.8270  173.1340  145.4070 O   0  0  0  0  0  1  0  0  0  0  0  0
  194.8790  175.7230  146.2190 N   0  0  0  0  0  2  0  0  0  0  0  0
  195.5380  176.4280  143.9960 C   0  0  0  0  0  1  0  0  0  0  0  0
  195.0460  177.9920  145.7140 O   0  0  0  0  0  1  0  0  0  0  0  0
  194.6790  176.7450  145.2030 C   0  0  2  0  0  3  0  0  0  0  0  0
  1  3  2  0  0  0  0
  2 25  1  0  0  0  0
  3  2  2  0  0  0  0
  5 10  1  0  0  0  0
  7  1  1  1  0  0  0
  7  9  1  0  0  0  0
  8  5  2  0  0  0  0
  8  7  1  0  0  0  0
  9  6  2  0  0  0  0
 10  9  1  0  0  0  0
 10  4  1  0  0  0  0
 11 14  1  0  0  0  0
 11 15  1  0  0  0  0
 12  2  1  0  0  0  0
 12 13  2  0  0  0  0
 14 12  1  0  0  0  0
 15 13  1  0  0  0  0
 15 16  1  1  0  0  0
 16 19  1  0  0  0  0
 17 23  1  0  0  0  0
 18 22  2  0  0  0  0
 19 20  2  0  0  0  0
 19 18  1  0  0  0  0
 20 21  1  0  0  0  0
 21 17  2  0  0  0  0
 22 17  1  0  0  0  0
 23 24  1  0  0  0  0
 25 26  1  0  0  0  0
 26 27  1  0  0  0  0
 28 30  1  0  0  0  0
 28 31  1  1  0  0  0
 29 27  1  6  0  0  0
 29 28  1  0  0  0  0
 29 30  1  0  0  0  0
 32 31  1  0  0  0  0
 33 34  1  6  0  0  0
 33 32  1  0  0  0  0
 35 34  1  0  0  0  0
 36 33  1  0  0  0  0
 39 37  1  6  0  0  0
 39 38  1  0  0  0  0
 39 36  1  0  0  0  0
M  END
>  <MODEL>
3

>  <REMARK>
 VINA RESULT:      -6.6      2.017      7.032
  Name = 
  15 active torsions:
  status: ('A' for Active; 'I' for Inactive)
    1  A    between atoms: C_1  and  C_24
    2  A    between atoms: C_2  and  C_15
    3  A    between atoms: C_2  and  C_17
    4  A    between atoms: C_4  and  CA_30
    5  A    between atoms: C_4  and  C_32
    6  A    between atoms: C_5  and  O_7
    7  A    between atoms: C_6  and  C_32
    8  A    between atoms: C_8  and  C_21
    9  A    between atoms: C_8  and  C_39
   10  A    between atoms: C_11  and  C_15
   11  A    between atoms: C_11  and  C_35
   12  A    between atoms: C_14  and  CA_30
   13  A    between atoms: C_18  and  C_35
   14  A    between atoms: C_22  and  N_27
   15  A    between atoms: N_27  and  CA_30
                            x       y       z     vdW  Elec       q    Type
                         _______ _______ _______ _____ _____    ______ ____

>  <TORSDO>
F 15

$$$$
=
 OpenBabel11042414593D

 39 42  0  0  1  0  0  0  0  0999 V2000
  187.5530  175.4950  142.9460 C   0  0  0  0  0  3  0  0  0  0  0  0
  187.9400  176.1370  145.4460 C   0  0  0  0  0  0  0  0  0  0  0  0
  187.7460  175.8140  144.1970 C   0  0  0  0  0  0  0  0  0  0  0  0
  191.8700  173.7750  142.5880 C   0  0  0  0  0  1  0  0  0  0  0  0
  190.9330  176.1530  142.7760 C   0  0  0  0  0  3  0  0  0  0  0  0
  189.1520  173.3440  141.5480 O   0  0  0  0  0  0  0  0  0  0  0  0
  188.6430  175.6750  141.9410 C   0  0  1  0  0  3  0  0  0  0  0  0
  189.5930  176.7990  142.3860 C   0  0  0  0  0  3  0  0  0  0  0  0
  189.5190  174.4860  141.9340 C   0  0  0  0  0  0  0  0  0  0  0  0
  190.8210  174.7610  142.3960 N   0  0  0  0  0  0  0  0  0  0  0  0
  186.0770  178.4060  147.6880 C   0  0  0  0  0  2  0  0  0  0  0  0
  186.9470  176.9630  146.1540 C   0  0  0  0  0  0  0  0  0  0  0  0
  185.7090  177.0210  145.8060 N   0  0  0  0  0  0  0  0  0  0  0  0
  187.2510  177.7510  147.2470 O   0  0  0  0  0  0  0  0  0  0  0  0
  185.0020  177.9260  146.7030 C   0  0  2  0  0  3  0  0  0  0  0  0
  184.4460  179.0980  145.9060 C   0  0  0  0  0  2  0  0  0  0  0  0
  185.1570  178.5420  141.7050 C   0  0  0  0  0  0  0  0  0  0  0  0
  185.9540  179.1780  143.9060 C   0  0  0  0  0  3  0  0  0  0  0  0
  184.6890  178.9210  144.4450 C   0  0  0  0  0  0  0  0  0  0  0  0
  183.6590  178.4640  143.6170 C   0  0  0  0  0  3  0  0  0  0  0  0
  183.8890  178.2770  142.2520 C   0  0  0  0  0  3  0  0  0  0  0  0
  186.1850  178.9920  142.5410 C   0  0  0  0  0  3  0  0  0  0  0  0
  185.4190  178.3690  140.3430 O   0  0  0  0  0  0  0  0  0  0  0  0
  186.4630  177.5350  139.8630 C   0  0  0  0  0  1  0  0  0  0  0  0
  189.1230  175.5750  146.1630 C   0  0  0  0  0  2  0  0  0  0  0  0
  190.2830  176.5570  146.1130 C   0  0  0  0  0  2  0  0  0  0  0  0
  191.2960  176.2420  147.1990 C   0  0  0  0  0  2  0  0  0  0  0  0
  193.1720  176.5430  145.6540 C   0  0  1  0  0  3  0  0  0  0  0  0
  192.5390  175.6030  146.6050 C   0  0  1  0  0  3  0  0  0  0  0  0
  193.6620  176.3700  146.9620 O   0  0  0  0  0  0  0  0  0  0  0  0
  194.0570  175.7730  144.6930 C   0  0  0  0  0  2  0  0  0  0  0  0
  195.4230  176.4420  144.5590 C   0  0  0  0  0  2  0  0  0  0  0  0
  196.2720  175.8760  143.4180 C   0  0  1  0  0  3  0  0  0  0  0  0
  197.3440  174.9120  143.9170 C   0  0  0  0  0  2  0  0  0  0  0  0
  196.9050  173.5960  143.7690 O   0  0  0  0  0  1  0  0  0  0  0  0
  195.4280  175.2250  142.4220 N   0  0  0  0  0  2  0  0  0  0  0  0
  195.1400  175.3330  140.0190 C   0  0  0  0  0  1  0  0  0  0  0  0
  196.4180  176.9470  141.2030 O   0  0  0  0  0  1  0  0  0  0  0  0
  195.2860  176.1350  141.2960 C   0  0  2  0  0  3  0  0  0  0  0  0
  1  3  2  0  0  0  0
  2 12  1  0  0  0  0
  2 25  1  0  0  0  0
  3  2  2  0  0  0  0
  6  9  2  0  0  0  0
  7  8  1  0  0  0  0
  7  1  1  1  0  0  0
  8  5  2  0  0  0  0
  9  7  1  0  0  0  0
  9 10  1  0  0  0  0
 10  4  1  0  0  0  0
 10  5  1  0  0  0  0
 12 14  1  0  0  0  0
 13 12  2  0  0  0  0
 13 15  1  0  0  0  0
 14 11  1  0  0  0  0
 15 16  1  6  0  0  0
 15 11  1  0  0  0  0
 17 21  2  0  0  0  0
 17 22  1  0  0  0  0
 18 19  1  0  0  0  0
 19 16  1  0  0  0  0
 20 19  2  0  0  0  0
 21 20  1  0  0  0  0
 22 18  2  0  0  0  0
 23 17  1  0  0  0  0
 24 23  1  0  0  0  0
 26 25  1  0  0  0  0
 26 27  1  0  0  0  0
 28 31  1  6  0  0  0
 28 29  1  0  0  0  0
 28 30  1  0  0  0  0
 29 30  1  0  0  0  0
 29 27  1  1  0  0  0
 32 31  1  0  0  0  0
 33 34  1  1  0  0  0
 33 32  1  0  0  0  0
 35 34  1  0  0  0  0
 36 33  1  0  0  0  0
 38 39  1  0  0  0  0
 39 37  1  6  0  0  0
 39 36  1  0  0  0  0
M  END
>  <MODEL>
4

>  <REMARK>
 VINA RESULT:      -6.5      2.715      5.421
  Name = 
  15 active torsions:
  status: ('A' for Active; 'I' for Inactive)
    1  A    between atoms: C_1  and  C_24
    2  A    between atoms: C_2  and  C_15
    3  A    between atoms: C_2  and  C_17
    4  A    between atoms: C_4  and  CA_30
    5  A    between atoms: C_4  and  C_32
    6  A    between atoms: C_5  and  O_7
    7  A    between atoms: C_6  and  C_32
    8  A    between atoms: C_8  and  C_21
    9  A    between atoms: C_8  and  C_39
   10  A    between atoms: C_11  and  C_15
   11  A    between atoms: C_11  and  C_35
   12  A    between atoms: C_14  and  CA_30
   13  A    between atoms: C_18  and  C_35
   14  A    between atoms: C_22  and  N_27
   15  A    between atoms: N_27  and  CA_30
                            x       y       z     vdW  Elec       q    Type
                         _______ _______ _______ _____ _____    ______ ____

>  <TORSDO>
F 15

$$$$
=
 OpenBabel11042414593D

 39 42  0  0  1  0  0  0  0  0999 V2000
  194.1420  173.6760  145.6550 C   0  0  0  0  0  3  0  0  0  0  0  0
  191.6140  174.2600  145.3800 C   0  0  0  0  0  0  0  0  0  0  0  0
  192.8780  173.9660  145.5200 C   0  0  0  0  0  0  0  0  0  0  0  0
  196.6160  176.1840  142.6040 C   0  0  0  0  0  1  0  0  0  0  0  0
  197.2600  174.5860  144.5010 C   0  0  0  0  0  3  0  0  0  0  0  0
  194.2020  176.3660  144.2760 O   0  0  0  0  0  0  0  0  0  0  0  0
  195.1570  174.7590  145.8110 C   0  0  1  0  0  3  0  0  0  0  0  0
  196.5740  174.1620  145.8090 C   0  0  0  0  0  3  0  0  0  0  0  0
  195.1610  175.6200  144.6100 C   0  0  0  0  0  0  0  0  0  0  0  0
  196.3590  175.5290  143.8740 N   0  0  0  0  0  0  0  0  0  0  0  0
  189.3090  172.2760  143.2850 C   0  0  0  0  0  2  0  0  0  0  0  0
  190.8280  173.6340  144.3030 C   0  0  0  0  0  0  0  0  0  0  0  0
  190.9720  173.9420  143.0610 N   0  0  0  0  0  0  0  0  0  0  0  0
  189.8670  172.6670  144.5240 O   0  0  0  0  0  0  0  0  0  0  0  0
  190.0480  173.1490  142.2620 C   0  0  2  0  0  3  0  0  0  0  0  0
  189.0740  174.0750  141.5460 C   0  0  0  0  0  2  0  0  0  0  0  0
  189.4110  173.6660  137.2820 C   0  0  0  0  0  0  0  0  0  0  0  0
  190.3460  173.3800  139.5020 C   0  0  0  0  0  3  0  0  0  0  0  0
  189.1980  173.9480  140.0650 C   0  0  0  0  0  0  0  0  0  0  0  0
  188.1510  174.3660  139.2380 C   0  0  0  0  0  3  0  0  0  0  0  0
  188.2560  174.2300  137.8520 C   0  0  0  0  0  3  0  0  0  0  0  0
  190.4530  173.2440  138.1150 C   0  0  0  0  0  3  0  0  0  0  0  0
  189.5490  173.5190  135.8990 O   0  0  0  0  0  0  0  0  0  0  0  0
  190.8060  173.3090  135.2720 C   0  0  0  0  0  1  0  0  0  0  0  0
  190.9640  175.1540  146.3840 C   0  0  0  0  0  2  0  0  0  0  0  0
  190.1340  176.2170  145.6820 C   0  0  0  0  0  2  0  0  0  0  0  0
  188.6530  175.9010  145.7970 C   0  0  0  0  0  2  0  0  0  0  0  0
  186.6020  177.2370  145.8530 C   0  0  1  0  0  3  0  0  0  0  0  0
  187.9170  177.0280  146.4980 C   0  0  1  0  0  3  0  0  0  0  0  0
  186.7310  176.5210  147.0580 O   0  0  0  0  0  0  0  0  0  0  0  0
  186.0990  178.6330  146.1640 C   0  0  0  0  0  2  0  0  0  0  0  0
  185.8110  179.4040  144.8780 C   0  0  0  0  0  2  0  0  0  0  0  0
  185.4610  178.5020  143.6900 C   0  0  1  0  0  3  0  0  0  0  0  0
  184.0090  178.6610  143.2520 C   0  0  0  0  0  2  0  0  0  0  0  0
  183.7830  177.9280  142.0870 O   0  0  0  0  0  1  0  0  0  0  0  0
  186.3610  178.7550  142.5700 N   0  0  0  0  0  2  0  0  0  0  0  0
  188.6280  178.1000  142.0200 C   0  0  0  0  0  1  0  0  0  0  0  0
  186.7630  176.7230  141.5050 O   0  0  0  0  0  1  0  0  0  0  0  0
  187.2600  177.6170  142.4550 C   0  0  2  0  0  3  0  0  0  0  0  0
  2  3  2  0  0  0  0
  2 25  1  0  0  0  0
  3  1  2  0  0  0  0
  4 10  1  0  0  0  0
  5  8  2  0  0  0  0
  6  9  2  0  0  0  0
  7  1  1  6  0  0  0
  8  7  1  0  0  0  0
  9  7  1  0  0  0  0
 10  5  1  0  0  0  0
 10  9  1  0  0  0  0
 11 14  1  0  0  0  0
 12 14  1  0  0  0  0
 12  2  1  0  0  0  0
 13 12  2  0  0  0  0
 15 16  1  1  0  0  0
 15 13  1  0  0  0  0
 15 11  1  0  0  0  0
 17 21  2  0  0  0  0
 17 22  1  0  0  0  0
 18 19  1  0  0  0  0
 19 16  1  0  0  0  0
 20 19  2  0  0  0  0
 21 20  1  0  0  0  0
 22 18  2  0  0  0  0
 23 17  1  0  0  0  0
 24 23  1  0  0  0  0
 26 27  1  0  0  0  0
 26 25  1  0  0  0  0
 28 31  1  1  0  0  0
 28 29  1  0  0  0  0
 28 30  1  0  0  0  0
 29 27  1  6  0  0  0
 29 30  1  0  0  0  0
 32 31  1  0  0  0  0
 33 34  1  6  0  0  0
 33 32  1  0  0  0  0
 35 34  1  0  0  0  0
 36 33  1  0  0  0  0
 38 39  1  0  0  0  0
 39 37  1  6  0  0  0
 39 36  1  0  0  0  0
M  END
>  <MODEL>
5

>  <REMARK>
 VINA RESULT:      -6.5      2.140      6.834
  Name = 
  15 active torsions:
  status: ('A' for Active; 'I' for Inactive)
    1  A    between atoms: C_1  and  C_24
    2  A    between atoms: C_2  and  C_15
    3  A    between atoms: C_2  and  C_17
    4  A    between atoms: C_4  and  CA_30
    5  A    between atoms: C_4  and  C_32
    6  A    between atoms: C_5  and  O_7
    7  A    between atoms: C_6  and  C_32
    8  A    between atoms: C_8  and  C_21
    9  A    between atoms: C_8  and  C_39
   10  A    between atoms: C_11  and  C_15
   11  A    between atoms: C_11  and  C_35
   12  A    between atoms: C_14  and  CA_30
   13  A    between atoms: C_18  and  C_35
   14  A    between atoms: C_22  and  N_27
   15  A    between atoms: N_27  and  CA_30
                            x       y       z     vdW  Elec       q    Type
                         _______ _______ _______ _____ _____    ______ ____

>  <TORSDO>
F 15

$$$$
=
 OpenBabel11042414593D

 39 42  0  0  1  0  0  0  0  0999 V2000
  193.0780  173.3380  143.5700 C   0  0  0  0  0  3  0  0  0  0  0  0
  192.5580  175.8440  144.0820 C   0  0  0  0  0  0  0  0  0  0  0  0
  192.8170  174.5900  143.8290 C   0  0  0  0  0  0  0  0  0  0  0  0
  197.4600  174.1600  144.9270 C   0  0  0  0  0  1  0  0  0  0  0  0
  196.1500  174.6910  142.7890 C   0  0  0  0  0  3  0  0  0  0  0  0
  195.3880  172.0760  145.0580 O   0  0  0  0  0  0  0  0  0  0  0  0
  194.4070  172.9370  143.0220 C   0  0  1  0  0  3  0  0  0  0  0  0
  194.9480  174.0350  142.0910 C   0  0  0  0  0  3  0  0  0  0  0  0
  195.4080  172.9030  144.1080 C   0  0  0  0  0  0  0  0  0  0  0  0
  196.4030  173.8910  143.9690 N   0  0  0  0  0  0  0  0  0  0  0  0
  189.8970  177.9540  142.6300 C   0  0  0  0  0  2  0  0  0  0  0  0
  191.3040  176.4470  143.5990 C   0  0  0  0  0  0  0  0  0  0  0  0
  190.1560  175.8800  143.7380 N   0  0  0  0  0  0  0  0  0  0  0  0
  191.2440  177.6660  142.9540 O   0  0  0  0  0  0  0  0  0  0  0  0
  189.1290  176.7320  143.1530 C   0  0  2  0  0  3  0  0  0  0  0  0
  188.4530  175.9940  142.0040 C   0  0  0  0  0  2  0  0  0  0  0  0
  184.8400  178.0010  140.8320 C   0  0  0  0  0  0  0  0  0  0  0  0
  186.1490  176.8370  142.5100 C   0  0  0  0  0  3  0  0  0  0  0  0
  187.1930  176.6760  141.5930 C   0  0  0  0  0  0  0  0  0  0  0  0
  187.0660  177.1870  140.2970 C   0  0  0  0  0  3  0  0  0  0  0  0
  185.8940  177.8440  139.9150 C   0  0  0  0  0  3  0  0  0  0  0  0
  184.9750  177.4940  142.1290 C   0  0  0  0  0  3  0  0  0  0  0  0
  183.6530  178.6500  140.4810 O   0  0  0  0  0  0  0  0  0  0  0  0
  182.4060  178.3520  141.0910 C   0  0  0  0  0  1  0  0  0  0  0  0
  193.4980  176.6160  144.9470 C   0  0  0  0  0  2  0  0  0  0  0  0
  193.8490  175.8130  146.1900 C   0  0  0  0  0  2  0  0  0  0  0  0
  192.5890  175.3320  146.8880 C   0  0  0  0  0  2  0  0  0  0  0  0
  190.2600  175.9890  147.2600 C   0  0  1  0  0  3  0  0  0  0  0  0
  191.6480  176.4910  147.1580 C   0  0  1  0  0  3  0  0  0  0  0  0
  191.0230  176.2920  148.4020 O   0  0  0  0  0  0  0  0  0  0  0  0
  189.2890  177.1240  147.0030 C   0  0  0  0  0  2  0  0  0  0  0  0
  187.9410  176.5870  146.5290 C   0  0  0  0  0  2  0  0  0  0  0  0
  186.8090  177.6160  146.6130 C   0  0  1  0  0  3  0  0  0  0  0  0
  186.9830  178.5740  147.7860 C   0  0  0  0  0  2  0  0  0  0  0  0
  185.8100  178.6200  148.5400 O   0  0  0  0  0  1  0  0  0  0  0  0
  186.6950  178.3580  145.3620 N   0  0  0  0  0  2  0  0  0  0  0  0
  184.2810  178.4850  145.5270 C   0  0  0  0  0  1  0  0  0  0  0  0
  185.5500  180.1410  144.3930 O   0  0  0  0  0  1  0  0  0  0  0  0
  185.5730  179.2750  145.4880 C   0  0  2  0  0  3  0  0  0  0  0  0
  1  3  2  0  0  0  0
  2 25  1  0  0  0  0
  3  2  2  0  0  0  0
  5 10  1  0  0  0  0
  7  1  1  1  0  0  0
  7  9  1  0  0  0  0
  8  5  2  0  0  0  0
  8  7  1  0  0  0  0
  9  6  2  0  0  0  0
 10  9  1  0  0  0  0
 10  4  1  0  0  0  0
 11 14  1  0  0  0  0
 11 15  1  0  0  0  0
 12 13  2  0  0  0  0
 12  2  1  0  0  0  0
 14 12  1  0  0  0  0
 15 16  1  6  0  0  0
 15 13  1  0  0  0  0
 17 22  1  0  0  0  0
 19 16  1  0  0  0  0
 19 18  1  0  0  0  0
 20 19  2  0  0  0  0
 21 20  1  0  0  0  0
 21 17  2  0  0  0  0
 22 18  2  0  0  0  0
 23 17  1  0  0  0  0
 23 24  1  0  0  0  0
 25 26  1  0  0  0  0
 26 27  1  0  0  0  0
 28 31  1  6  0  0  0
 28 30  1  0  0  0  0
 29 27  1  1  0  0  0
 29 28  1  0  0  0  0
 29 30  1  0  0  0  0
 32 31  1  0  0  0  0
 33 32  1  6  0  0  0
 33 34  1  0  0  0  0
 34 35  1  0  0  0  0
 36 39  1  0  0  0  0
 36 33  1  0  0  0  0
 38 39  1  0  0  0  0
 39 37  1  6  0  0  0
M  END
>  <MODEL>
6

>  <REMARK>
 VINA RESULT:      -6.4      3.543      6.884
  Name = 
  15 active torsions:
  status: ('A' for Active; 'I' for Inactive)
    1  A    between atoms: C_1  and  C_24
    2  A    between atoms: C_2  and  C_15
    3  A    between atoms: C_2  and  C_17
    4  A    between atoms: C_4  and  CA_30
    5  A    between atoms: C_4  and  C_32
    6  A    between atoms: C_5  and  O_7
    7  A    between atoms: C_6  and  C_32
    8  A    between atoms: C_8  and  C_21
    9  A    between atoms: C_8  and  C_39
   10  A    between atoms: C_11  and  C_15
   11  A    between atoms: C_11  and  C_35
   12  A    between atoms: C_14  and  CA_30
   13  A    between atoms: C_18  and  C_35
   14  A    between atoms: C_22  and  N_27
   15  A    between atoms: N_27  and  CA_30
                            x       y       z     vdW  Elec       q    Type
                         _______ _______ _______ _____ _____    ______ ____

>  <TORSDO>
F 15

$$$$
=
 OpenBabel11042414593D

 39 42  0  0  1  0  0  0  0  0999 V2000
  194.1430  172.7690  145.7620 C   0  0  0  0  0  3  0  0  0  0  0  0
  194.0330  175.3220  145.2290 C   0  0  0  0  0  0  0  0  0  0  0  0
  194.0890  174.0460  145.4980 C   0  0  0  0  0  0  0  0  0  0  0  0
  195.5320  168.3490  146.2650 C   0  0  0  0  0  1  0  0  0  0  0  0
  196.7860  170.5680  145.9900 C   0  0  0  0  0  3  0  0  0  0  0  0
  193.4650  169.9480  144.9130 O   0  0  0  0  0  0  0  0  0  0  0  0
  194.9550  171.8520  144.9080 C   0  0  1  0  0  3  0  0  0  0  0  0
  196.4340  171.9100  145.3280 C   0  0  0  0  0  3  0  0  0  0  0  0
  194.5870  170.4500  145.1890 C   0  0  0  0  0  0  0  0  0  0  0  0
  195.6310  169.7190  145.7910 N   0  0  0  0  0  0  0  0  0  0  0  0
  191.1140  177.4720  144.5240 C   0  0  0  0  0  2  0  0  0  0  0  0
  192.7300  176.0060  145.1800 C   0  0  0  0  0  0  0  0  0  0  0  0
  191.7460  175.6940  145.9500 N   0  0  0  0  0  0  0  0  0  0  0  0
  192.4430  177.0370  144.3080 O   0  0  0  0  0  0  0  0  0  0  0  0
  190.6100  176.5530  145.6450 C   0  0  2  0  0  3  0  0  0  0  0  0
  189.4470  175.7010  145.1550 C   0  0  0  0  0  2  0  0  0  0  0  0
  185.6970  177.5570  146.1340 C   0  0  0  0  0  0  0  0  0  0  0  0
  187.6250  176.2390  146.7890 C   0  0  0  0  0  3  0  0  0  0  0  0
  188.1370  176.3310  145.4910 C   0  0  0  0  0  0  0  0  0  0  0  0
  187.4350  177.0450  144.5140 C   0  0  0  0  0  3  0  0  0  0  0  0
  186.2190  177.6540  144.8310 C   0  0  0  0  0  3  0  0  0  0  0  0
  186.4080  176.8470  147.1080 C   0  0  0  0  0  3  0  0  0  0  0  0
  184.4810  178.1510  146.4820 O   0  0  0  0  0  0  0  0  0  0  0  0
  183.7140  178.9210  145.5690 C   0  0  0  0  0  1  0  0  0  0  0  0
  195.3080  176.0850  145.0750 C   0  0  0  0  0  2  0  0  0  0  0  0
  196.1750  175.4480  144.0000 C   0  0  0  0  0  2  0  0  0  0  0  0
  195.6800  175.8320  142.6180 C   0  0  0  0  0  2  0  0  0  0  0  0
  193.5430  175.3130  141.5420 C   0  0  1  0  0  3  0  0  0  0  0  0
  194.8120  174.7330  142.0330 C   0  0  1  0  0  3  0  0  0  0  0  0
  194.5990  174.9960  140.6680 O   0  0  0  0  0  0  0  0  0  0  0  0
  192.4880  174.2270  141.4520 C   0  0  0  0  0  2  0  0  0  0  0  0
  191.1360  174.7420  141.9380 C   0  0  0  0  0  2  0  0  0  0  0  0
  190.0030  173.7230  141.7860 C   0  0  1  0  0  3  0  0  0  0  0  0
  188.8960  174.2220  140.8630 C   0  0  0  0  0  2  0  0  0  0  0  0
  188.0260  175.0520  141.5710 O   0  0  0  0  0  1  0  0  0  0  0  0
  190.5210  172.4440  141.3130 N   0  0  0  0  0  2  0  0  0  0  0  0
  189.4970  172.0620  143.4760 C   0  0  0  0  0  1  0  0  0  0  0  0
  191.1350  170.5910  142.5860 O   0  0  0  0  0  1  0  0  0  0  0  0
  190.0630  171.4120  142.2300 C   0  0  2  0  0  3  0  0  0  0  0  0
  2  3  2  0  0  0  0
  3  1  2  0  0  0  0
  6  9  2  0  0  0  0
  7  9  1  0  0  0  0
  7  8  1  0  0  0  0
  7  1  1  1  0  0  0
  8  5  2  0  0  0  0
  9 10  1  0  0  0  0
 10  5  1  0  0  0  0
 10  4  1  0  0  0  0
 11 15  1  0  0  0  0
 12  2  1  0  0  0  0
 12 13  2  0  0  0  0
 14 11  1  0  0  0  0
 14 12  1  0  0  0  0
 15 16  1  6  0  0  0
 15 13  1  0  0  0  0
 16 19  1  0  0  0  0
 17 23  1  0  0  0  0
 17 22  1  0  0  0  0
 18 22  2  0  0  0  0
 19 18  1  0  0  0  0
 20 21  1  0  0  0  0
 20 19  2  0  0  0  0
 21 17  2  0  0  0  0
 24 23  1  0  0  0  0
 25  2  1  0  0  0  0
 26 25  1  0  0  0  0
 27 26  1  0  0  0  0
 28 31  1  6  0  0  0
 28 29  1  0  0  0  0
 29 27  1  1  0  0  0
 30 28  1  0  0  0  0
 30 29  1  0  0  0  0
 31 32  1  0  0  0  0
 33 34  1  6  0  0  0
 33 32  1  0  0  0  0
 34 35  1  0  0  0  0
 36 33  1  0  0  0  0
 36 39  1  0  0  0  0
 39 38  1  0  0  0  0
 39 37  1  1  0  0  0
M  END
>  <MODEL>
7

>  <REMARK>
 VINA RESULT:      -6.4      3.208      5.553
  Name = 
  15 active torsions:
  status: ('A' for Active; 'I' for Inactive)
    1  A    between atoms: C_1  and  C_24
    2  A    between atoms: C_2  and  C_15
    3  A    between atoms: C_2  and  C_17
    4  A    between atoms: C_4  and  CA_30
    5  A    between atoms: C_4  and  C_32
    6  A    between atoms: C_5  and  O_7
    7  A    between atoms: C_6  and  C_32
    8  A    between atoms: C_8  and  C_21
    9  A    between atoms: C_8  and  C_39
   10  A    between atoms: C_11  and  C_15
   11  A    between atoms: C_11  and  C_35
   12  A    between atoms: C_14  and  CA_30
   13  A    between atoms: C_18  and  C_35
   14  A    between atoms: C_22  and  N_27
   15  A    between atoms: N_27  and  CA_30
                            x       y       z     vdW  Elec       q    Type
                         _______ _______ _______ _____ _____    ______ ____

>  <TORSDO>
F 15

$$$$
=
 OpenBabel11042414593D

 39 42  0  0  1  0  0  0  0  0999 V2000
  187.8470  177.3550  143.3740 C   0  0  0  0  0  3  0  0  0  0  0  0
  189.7660  175.6980  142.7580 C   0  0  0  0  0  0  0  0  0  0  0  0
  188.8040  176.5240  143.0670 C   0  0  0  0  0  0  0  0  0  0  0  0
  183.6820  178.2900  141.5030 C   0  0  0  0  0  1  0  0  0  0  0  0
  185.9420  177.5990  140.5110 C   0  0  0  0  0  3  0  0  0  0  0  0
  185.4870  179.2290  143.6270 O   0  0  0  0  0  0  0  0  0  0  0  0
  187.3770  178.3710  142.3860 C   0  0  1  0  0  3  0  0  0  0  0  0
  187.3990  177.7790  140.9670 C   0  0  0  0  0  3  0  0  0  0  0  0
  185.9440  178.6560  142.6020 C   0  0  0  0  0  0  0  0  0  0  0  0
  185.1320  178.2280  141.5330 N   0  0  0  0  0  0  0  0  0  0  0  0
  192.9220  175.8170  144.6720 C   0  0  0  0  0  2  0  0  0  0  0  0
  190.8930  175.5020  143.6850 C   0  0  0  0  0  0  0  0  0  0  0  0
  190.8950  174.6000  144.6040 N   0  0  0  0  0  0  0  0  0  0  0  0
  192.0430  176.2650  143.6590 O   0  0  0  0  0  0  0  0  0  0  0  0
  192.1480  174.6750  145.3440 C   0  0  2  0  0  3  0  0  0  0  0  0
  191.8560  175.0110  146.8010 C   0  0  0  0  0  2  0  0  0  0  0  0
  188.0990  177.0660  147.1530 C   0  0  0  0  0  0  0  0  0  0  0  0
  190.5150  177.1230  146.9390 C   0  0  0  0  0  3  0  0  0  0  0  0
  190.5540  175.7250  146.9400 C   0  0  0  0  0  0  0  0  0  0  0  0
  189.3650  174.9950  147.0360 C   0  0  0  0  0  3  0  0  0  0  0  0
  188.1420  175.6600  147.1450 C   0  0  0  0  0  3  0  0  0  0  0  0
  189.2920  177.7910  147.0490 C   0  0  0  0  0  3  0  0  0  0  0  0
  186.8920  177.7620  147.2650 O   0  0  0  0  0  0  0  0  0  0  0  0
  185.6380  177.1780  146.9490 C   0  0  0  0  0  1  0  0  0  0  0  0
  189.6500  174.8880  141.5090 C   0  0  0  0  0  2  0  0  0  0  0  0
  188.3800  174.0520  141.5410 C   0  0  0  0  0  2  0  0  0  0  0  0
  188.6850  172.6350  141.9930 C   0  0  0  0  0  2  0  0  0  0  0  0
  190.5600  171.1510  142.5170 C   0  0  1  0  0  3  0  0  0  0  0  0
  190.1100  172.2520  141.6380 C   0  0  1  0  0  3  0  0  0  0  0  0
  190.1290  170.9160  141.1990 O   0  0  0  0  0  0  0  0  0  0  0  0
  192.0760  171.1150  142.5510 C   0  0  0  0  0  2  0  0  0  0  0  0
  192.5830  171.0100  143.9870 C   0  0  0  0  0  2  0  0  0  0  0  0
  194.1040  171.1470  144.1110 C   0  0  1  0  0  3  0  0  0  0  0  0
  194.6990  172.0070  143.0010 C   0  0  0  0  0  2  0  0  0  0  0  0
  195.0440  173.2610  143.5060 O   0  0  0  0  0  1  0  0  0  0  0  0
  194.4680  171.6800  145.4180 N   0  0  0  0  0  2  0  0  0  0  0  0
  196.8090  171.3940  145.9710 C   0  0  0  0  0  1  0  0  0  0  0  0
  195.4440  169.5670  145.3090 O   0  0  0  0  0  1  0  0  0  0  0  0
  195.4300  170.7690  146.0190 C   0  0  2  0  0  3  0  0  0  0  0  0
  2  3  2  0  0  0  0
  2 12  1  0  0  0  0
  3  1  2  0  0  0  0
  4 10  1  0  0  0  0
  5  8  2  0  0  0  0
  5 10  1  0  0  0  0
  7  9  1  0  0  0  0
  7  1  1  1  0  0  0
  8  7  1  0  0  0  0
  9  6  2  0  0  0  0
 10  9  1  0  0  0  0
 11 15  1  0  0  0  0
 12 13  2  0  0  0  0
 13 15  1  0  0  0  0
 14 12  1  0  0  0  0
 14 11  1  0  0  0  0
 15 16  1  1  0  0  0
 16 19  1  0  0  0  0
 17 23  1  0  0  0  0
 18 19  2  0  0  0  0
 18 22  1  0  0  0  0
 19 20  1  0  0  0  0
 20 21  2  0  0  0  0
 21 17  1  0  0  0  0
 22 17  2  0  0  0  0
 24 23  1  0  0  0  0
 25 26  1  0  0  0  0
 25  2  1  0  0  0  0
 26 27  1  0  0  0  0
 28 31  1  6  0  0  0
 29 27  1  1  0  0  0
 29 28  1  0  0  0  0
 30 29  1  0  0  0  0
 30 28  1  0  0  0  0
 31 32  1  0  0  0  0
 32 33  1  0  0  0  0
 33 34  1  6  0  0  0
 33 36  1  0  0  0  0
 34 35  1  0  0  0  0
 36 39  1  0  0  0  0
 38 39  1  0  0  0  0
 39 37  1  6  0  0  0
M  END
>  <MODEL>
8

>  <REMARK>
 VINA RESULT:      -6.4      2.953      7.141
  Name = 
  15 active torsions:
  status: ('A' for Active; 'I' for Inactive)
    1  A    between atoms: C_1  and  C_24
    2  A    between atoms: C_2  and  C_15
    3  A    between atoms: C_2  and  C_17
    4  A    between atoms: C_4  and  CA_30
    5  A    between atoms: C_4  and  C_32
    6  A    between atoms: C_5  and  O_7
    7  A    between atoms: C_6  and  C_32
    8  A    between atoms: C_8  and  C_21
    9  A    between atoms: C_8  and  C_39
   10  A    between atoms: C_11  and  C_15
   11  A    between atoms: C_11  and  C_35
   12  A    between atoms: C_14  and  CA_30
   13  A    between atoms: C_18  and  C_35
   14  A    between atoms: C_22  and  N_27
   15  A    between atoms: N_27  and  CA_30
                            x       y       z     vdW  Elec       q    Type
                         _______ _______ _______ _____ _____    ______ ____

>  <TORSDO>
F 15

$$$$
=
 OpenBabel11042414593D

 39 42  0  0  1  0  0  0  0  0999 V2000
  192.2100  174.8250  147.0140 C   0  0  0  0  0  3  0  0  0  0  0  0
  192.5930  175.7220  144.5930 C   0  0  0  0  0  0  0  0  0  0  0  0
  192.4020  175.2710  145.8030 C   0  0  0  0  0  0  0  0  0  0  0  0
  188.0420  176.6250  145.9630 C   0  0  0  0  0  1  0  0  0  0  0  0
  190.0860  177.5320  147.2170 C   0  0  0  0  0  3  0  0  0  0  0  0
  189.2810  174.1010  146.8270 O   0  0  0  0  0  0  0  0  0  0  0  0
  191.0860  175.3470  147.8460 C   0  0  1  0  0  3  0  0  0  0  0  0
  191.2180  176.8690  148.0190 C   0  0  0  0  0  3  0  0  0  0  0  0
  189.8120  175.2070  147.1110 C   0  0  0  0  0  0  0  0  0  0  0  0
  189.2400  176.4480  146.7650 N   0  0  0  0  0  0  0  0  0  0  0  0
  195.9950  177.1240  144.2640 C   0  0  0  0  0  2  0  0  0  0  0  0
  193.9390  176.1450  144.1710 C   0  0  0  0  0  0  0  0  0  0  0  0
  194.4350  175.8560  143.0180 N   0  0  0  0  0  0  0  0  0  0  0  0
  194.7910  176.8830  144.9690 O   0  0  0  0  0  0  0  0  0  0  0  0
  195.7760  176.4160  142.9200 C   0  0  2  0  0  3  0  0  0  0  0  0
  196.7840  175.2890  142.7390 C   0  0  0  0  0  2  0  0  0  0  0  0
  195.8060  171.9670  145.2830 C   0  0  0  0  0  0  0  0  0  0  0  0
  196.9500  174.0760  144.9250 C   0  0  0  0  0  3  0  0  0  0  0  0
  196.4580  174.1280  143.6170 C   0  0  0  0  0  0  0  0  0  0  0  0
  195.6310  173.1050  143.1430 C   0  0  0  0  0  3  0  0  0  0  0  0
  195.3080  172.0260  143.9690 C   0  0  0  0  0  3  0  0  0  0  0  0
  196.6280  172.9980  145.7540 C   0  0  0  0  0  3  0  0  0  0  0  0
  195.5050  170.9000  146.1340 O   0  0  0  0  0  0  0  0  0  0  0  0
  196.4390  169.8750  146.4390 C   0  0  0  0  0  1  0  0  0  0  0  0
  191.4550  175.7050  143.6260 C   0  0  0  0  0  2  0  0  0  0  0  0
  191.1600  174.2800  143.1870 C   0  0  0  0  0  2  0  0  0  0  0  0
  189.8360  174.2110  142.4490 C   0  0  0  0  0  2  0  0  0  0  0  0
  188.2680  175.8500  141.5270 C   0  0  1  0  0  3  0  0  0  0  0  0
  188.9890  175.4340  142.7500 C   0  0  1  0  0  3  0  0  0  0  0  0
  187.6350  175.1140  142.5450 O   0  0  0  0  0  0  0  0  0  0  0  0
  187.8610  177.3060  141.6470 C   0  0  0  0  0  2  0  0  0  0  0  0
  186.4600  177.5250  141.0820 C   0  0  0  0  0  2  0  0  0  0  0  0
  185.5240  178.2680  142.0400 C   0  0  1  0  0  3  0  0  0  0  0  0
  184.0850  178.2960  141.5370 C   0  0  0  0  0  2  0  0  0  0  0  0
  184.0690  178.2420  140.1420 O   0  0  0  0  0  1  0  0  0  0  0  0
  185.5840  177.6830  143.3750 N   0  0  0  0  0  2  0  0  0  0  0  0
  185.5650  179.7930  144.5650 C   0  0  0  0  0  1  0  0  0  0  0  0
  184.5520  177.8400  145.4590 O   0  0  0  0  0  1  0  0  0  0  0  0
  184.7970  178.5220  144.2650 C   0  0  2  0  0  3  0  0  0  0  0  0
  2  3  2  0  0  0  0
  3  1  2  0  0  0  0
  4 10  1  0  0  0  0
  5  8  2  0  0  0  0
  6  9  2  0  0  0  0
  7  1  1  6  0  0  0
  7  8  1  0  0  0  0
  9  7  1  0  0  0  0
 10  9  1  0  0  0  0
 10  5  1  0  0  0  0
 11 14  1  0  0  0  0
 12  2  1  0  0  0  0
 12 14  1  0  0  0  0
 13 12  2  0  0  0  0
 15 16  1  1  0  0  0
 15 13  1  0  0  0  0
 15 11  1  0  0  0  0
 16 19  1  0  0  0  0
 17 22  1  0  0  0  0
 17 23  1  0  0  0  0
 18 22  2  0  0  0  0
 19 18  1  0  0  0  0
 20 19  2  0  0  0  0
 20 21  1  0  0  0  0
 21 17  2  0  0  0  0
 23 24  1  0  0  0  0
 25  2  1  0  0  0  0
 26 25  1  0  0  0  0
 27 26  1  0  0  0  0
 28 31  1  1  0  0  0
 28 30  1  0  0  0  0
 28 29  1  0  0  0  0
 29 27  1  6  0  0  0
 30 29  1  0  0  0  0
 32 31  1  0  0  0  0
 33 32  1  6  0  0  0
 33 36  1  0  0  0  0
 34 33  1  0  0  0  0
 35 34  1  0  0  0  0
 36 39  1  0  0  0  0
 39 37  1  1  0  0  0
 39 38  1  0  0  0  0
M  END
>  <MODEL>
9

>  <REMARK>
 VINA RESULT:      -6.3      3.254      8.441
  Name = 
  15 active torsions:
  status: ('A' for Active; 'I' for Inactive)
    1  A    between atoms: C_1  and  C_24
    2  A    between atoms: C_2  and  C_15
    3  A    between atoms: C_2  and  C_17
    4  A    between atoms: C_4  and  CA_30
    5  A    between atoms: C_4  and  C_32
    6  A    between atoms: C_5  and  O_7
    7  A    between atoms: C_6  and  C_32
    8  A    between atoms: C_8  and  C_21
    9  A    between atoms: C_8  and  C_39
   10  A    between atoms: C_11  and  C_15
   11  A    between atoms: C_11  and  C_35
   12  A    between atoms: C_14  and  CA_30
   13  A    between atoms: C_18  and  C_35
   14  A    between atoms: C_22  and  N_27
   15  A    between atoms: N_27  and  CA_30
                            x       y       z     vdW  Elec       q    Type
                         _______ _______ _______ _____ _____    ______ ____

>  <TORSDO>
F 15

$$$$
