=
 OpenBabel11042416513D

 29 32  0  0  1  0  0  0  0  0999 V2000
  193.0280  174.8620  146.2270 O   0  0  0  0  0  0  0  0  0  0  0  0
  192.0330  175.1950  145.1500 S   0  0  0  0  0  0  0  0  0  0  0  0
  191.6460  173.9460  144.4100 O   0  0  0  0  0  0  0  0  0  0  0  0
  191.7760  177.2280  143.3230 C   0  0  0  0  0  2  0  0  0  0  0  0
  190.9810  176.7220  146.9680 F   0  0  0  0  0  0  0  0  0  0  0  0
  190.7510  177.8480  144.2670 C   0  0  0  0  0  2  0  0  0  0  0  0
  190.5950  175.9320  145.8980 C   0  0  1  0  0  3  0  0  0  0  0  0
  189.8470  176.7690  144.8570 C   0  0  1  0  0  3  0  0  0  0  0  0
  192.7000  176.3540  144.0420 N   0  0  2  0  0  0  0  0  0  0  0  0
  196.2040  175.4200  140.3460 N   0  0  0  0  0  0  0  0  0  0  0  0
  195.1920  176.5950  144.4660 C   0  0  0  0  0  3  0  0  0  0  0  0
  195.9920  176.0510  142.5540 C   0  0  0  0  0  0  0  0  0  0  0  0
  194.0100  175.5870  141.2700 N   0  0  0  0  0  0  0  0  0  0  0  0
  194.5930  175.9480  142.4330 C   0  0  0  0  0  0  0  0  0  0  0  0
  194.8370  175.3180  140.2140 C   0  0  0  0  0  0  0  0  0  0  0  0
  196.7860  175.7840  141.4980 N   0  0  0  0  0  0  0  0  0  0  0  0
  194.2530  174.9120  138.9090 C   0  0  0  0  0  1  0  0  0  0  0  0
  196.3630  176.4430  143.7840 N   0  0  0  0  0  0  0  0  0  0  0  0
  194.0830  176.2970  143.6580 C   0  0  2  0  0  3  0  0  0  0  0  0
  188.6110  177.4140  145.4610 C   0  0  0  0  0  2  0  0  0  0  0  0
  187.7590  176.3690  146.1620 C   0  0  0  0  0  2  0  0  0  0  0  0
  186.1080  177.6570  145.1240 C   0  0  0  0  0  2  0  0  0  0  0  0
  186.3870  177.7370  147.4920 C   0  0  0  0  0  2  0  0  0  0  0  0
  184.6350  178.0950  145.1480 C   0  0  1  0  0  3  0  0  0  0  0  0
  185.1450  178.6440  147.5670 C   0  0  0  0  0  2  0  0  0  0  0  0
  184.0590  178.2440  146.5660 C   0  0  0  0  0  2  0  0  0  0  0  0
  186.4010  176.8620  146.3120 N   0  0  0  0  0  0  0  0  0  0  0  0
  185.5660  179.8210  143.9570 C   0  0  0  0  0  1  0  0  0  0  0  0
  184.3590  179.1910  144.3010 O   0  0  0  0  0  0  0  0  0  0  0  0
  2  7  1  0  0  0  0
  2  1  2  0  0  0  0
  3  2  2  0  0  0  0
  4  6  1  0  0  0  0
  6  8  1  0  0  0  0
  7  5  1  1  0  0  0
  8 20  1  1  0  0  0
  8  7  1  0  0  0  0
  9  4  1  6  0  0  0
  9  2  1  0  0  0  0
 10 16  1  0  0  0  0
 12 18  1  0  0  0  0
 13 14  2  0  0  0  0
 14 12  1  0  0  0  0
 14 19  1  0  0  0  0
 15 10  2  0  0  0  0
 15 13  1  0  0  0  0
 16 12  2  0  0  0  0
 17 15  1  0  0  0  0
 18 11  2  0  0  0  0
 19  9  1  0  0  0  0
 19 11  1  6  0  0  0
 20 21  1  0  0  0  0
 21 27  1  0  0  0  0
 22 24  1  0  0  0  0
 22 27  1  0  0  0  0
 23 25  1  0  0  0  0
 24 29  1  1  0  0  0
 24 26  1  0  0  0  0
 26 25  1  0  0  0  0
 27 23  1  0  0  0  0
 28 29  1  0  0  0  0
M  END
>  <MODEL>
1

>  <REMARK>
 VINA RESULT:      -7.3      0.000      0.000
  Name = 
  5 active torsions:
  status: ('A' for Active; 'I' for Inactive)
    1  A    between atoms: C_8  and  C_14
    2  A    between atoms: C_8  and  N_26
    3  A    between atoms: C_9  and  O_11
    4  A    between atoms: C_14  and  C_24
    5  A    between atoms: N_27  and  C_29
                            x       y       z     vdW  Elec       q    Type
                         _______ _______ _______ _____ _____    ______ ____

>  <TORSDO>
F 5

$$$$
=
 OpenBabel11042416513D

 29 32  0  0  1  0  0  0  0  0999 V2000
  189.7470  173.6830  145.7360 O   0  0  0  0  0  0  0  0  0  0  0  0
  190.2860  175.0420  146.0820 S   0  0  0  0  0  0  0  0  0  0  0  0
  189.5990  175.5640  147.3120 O   0  0  0  0  0  0  0  0  0  0  0  0
  190.9720  177.2720  144.6340 C   0  0  0  0  0  2  0  0  0  0  0  0
  192.5850  173.9830  145.5030 F   0  0  0  0  0  0  0  0  0  0  0  0
  192.4230  176.8190  144.7620 C   0  0  0  0  0  2  0  0  0  0  0  0
  192.0390  174.9150  146.3700 C   0  0  1  0  0  3  0  0  0  0  0  0
  192.6930  176.2840  146.1660 C   0  0  1  0  0  3  0  0  0  0  0  0
  190.0500  176.1460  144.7610 N   0  0  2  0  0  0  0  0  0  0  0  0
  185.1760  177.7410  144.0510 N   0  0  0  0  0  0  0  0  0  0  0  0
  188.6630  175.3730  142.7800 C   0  0  0  0  0  3  0  0  0  0  0  0
  186.8160  176.3970  143.1440 C   0  0  0  0  0  0  0  0  0  0  0  0
  187.2790  177.6070  145.1720 N   0  0  0  0  0  0  0  0  0  0  0  0
  187.6730  176.7560  144.2010 C   0  0  0  0  0  0  0  0  0  0  0  0
  186.0060  178.1020  145.0890 C   0  0  0  0  0  0  0  0  0  0  0  0
  185.5660  176.9010  143.0820 N   0  0  0  0  0  0  0  0  0  0  0  0
  185.5140  179.0410  146.1310 C   0  0  0  0  0  1  0  0  0  0  0  0
  187.4080  175.5590  142.2780 N   0  0  0  0  0  0  0  0  0  0  0  0
  188.8550  176.1000  143.9650 C   0  0  2  0  0  3  0  0  0  0  0  0
  194.1920  176.2140  146.4050 C   0  0  0  0  0  2  0  0  0  0  0  0
  194.9470  176.4940  145.1160 C   0  0  0  0  0  2  0  0  0  0  0  0
  195.3460  174.6740  143.7050 C   0  0  0  0  0  2  0  0  0  0  0  0
  195.8780  174.5390  146.0270 C   0  0  0  0  0  2  0  0  0  0  0  0
  196.3530  173.5970  143.2740 C   0  0  1  0  0  3  0  0  0  0  0  0
  196.4960  173.1530  145.7630 C   0  0  0  0  0  2  0  0  0  0  0  0
  197.2320  173.0790  144.4250 C   0  0  0  0  0  2  0  0  0  0  0  0
  195.8780  175.4130  144.8460 N   0  0  0  0  0  0  0  0  0  0  0  0
  194.3960  172.5420  142.7100 C   0  0  0  0  0  1  0  0  0  0  0  0
  195.7820  172.5730  142.4860 O   0  0  0  0  0  0  0  0  0  0  0  0
  1  2  2  0  0  0  0
  2  7  1  0  0  0  0
  2  3  2  0  0  0  0
  4  6  1  0  0  0  0
  6  8  1  0  0  0  0
  7  5  1  6  0  0  0
  8  7  1  0  0  0  0
  8 20  1  6  0  0  0
  9  4  1  1  0  0  0
  9  2  1  0  0  0  0
 10 15  2  0  0  0  0
 12 14  1  0  0  0  0
 14 13  2  0  0  0  0
 15 13  1  0  0  0  0
 15 17  1  0  0  0  0
 16 12  2  0  0  0  0
 16 10  1  0  0  0  0
 18 11  2  0  0  0  0
 18 12  1  0  0  0  0
 19 11  1  6  0  0  0
 19 14  1  0  0  0  0
 19  9  1  0  0  0  0
 21 20  1  0  0  0  0
 22 27  1  0  0  0  0
 24 29  1  1  0  0  0
 24 22  1  0  0  0  0
 24 26  1  0  0  0  0
 25 23  1  0  0  0  0
 26 25  1  0  0  0  0
 27 21  1  0  0  0  0
 27 23  1  0  0  0  0
 29 28  1  0  0  0  0
M  END
>  <MODEL>
2

>  <REMARK>
 VINA RESULT:      -7.3      2.753      8.655
  Name = 
  5 active torsions:
  status: ('A' for Active; 'I' for Inactive)
    1  A    between atoms: C_8  and  C_14
    2  A    between atoms: C_8  and  N_26
    3  A    between atoms: C_9  and  O_11
    4  A    between atoms: C_14  and  C_24
    5  A    between atoms: N_27  and  C_29
                            x       y       z     vdW  Elec       q    Type
                         _______ _______ _______ _____ _____    ______ ____

>  <TORSDO>
F 5

$$$$
=
 OpenBabel11042416513D

 29 32  0  0  1  0  0  0  0  0999 V2000
  188.8120  174.5390  143.4400 O   0  0  0  0  0  0  0  0  0  0  0  0
  189.3020  175.6680  144.3040 S   0  0  0  0  0  0  0  0  0  0  0  0
  188.5620  175.6660  145.6120 O   0  0  0  0  0  0  0  0  0  0  0  0
  189.9690  178.2930  143.8530 C   0  0  0  0  0  2  0  0  0  0  0  0
  191.6460  174.9460  143.4530 F   0  0  0  0  0  0  0  0  0  0  0  0
  191.4270  177.8460  143.8540 C   0  0  0  0  0  2  0  0  0  0  0  0
  191.0480  175.4650  144.5890 C   0  0  1  0  0  3  0  0  0  0  0  0
  191.6690  176.8160  144.9530 C   0  0  1  0  0  3  0  0  0  0  0  0
  189.0750  177.1910  143.5010 N   0  0  2  0  0  0  0  0  0  0  0  0
  184.0730  178.5140  143.3180 N   0  0  0  0  0  0  0  0  0  0  0  0
  187.8160  177.3690  141.3030 C   0  0  0  0  0  3  0  0  0  0  0  0
  185.8640  177.9260  141.9890 C   0  0  0  0  0  0  0  0  0  0  0  0
  186.1570  178.0280  144.3760 N   0  0  0  0  0  0  0  0  0  0  0  0
  186.6580  177.7950  143.1440 C   0  0  0  0  0  0  0  0  0  0  0  0
  184.8400  178.3910  144.4550 C   0  0  0  0  0  0  0  0  0  0  0  0
  184.5690  178.2880  142.0930 N   0  0  0  0  0  0  0  0  0  0  0  0
  184.2310  178.6580  145.7840 C   0  0  0  0  0  1  0  0  0  0  0  0
  186.5580  177.6700  140.8690 N   0  0  0  0  0  0  0  0  0  0  0  0
  187.9070  177.4390  142.7020 C   0  0  2  0  0  3  0  0  0  0  0  0
  193.1610  176.6800  145.2050 C   0  0  0  0  0  2  0  0  0  0  0  0
  193.4220  175.6540  146.2960 C   0  0  0  0  0  2  0  0  0  0  0  0
  195.3280  175.6210  144.9440 C   0  0  0  0  0  2  0  0  0  0  0  0
  194.1290  173.6060  145.3860 C   0  0  0  0  0  2  0  0  0  0  0  0
  196.6620  174.9190  144.6450 C   0  0  1  0  0  3  0  0  0  0  0  0
  195.2240  172.8350  144.6260 C   0  0  0  0  0  2  0  0  0  0  0  0
  196.6240  173.3990  144.8730 C   0  0  0  0  0  2  0  0  0  0  0  0
  194.6000  174.8720  145.9630 N   0  0  0  0  0  0  0  0  0  0  0  0
  196.8180  176.6010  143.0930 C   0  0  0  0  0  1  0  0  0  0  0  0
  197.2350  175.2980  143.4110 O   0  0  0  0  0  0  0  0  0  0  0  0
  1  2  2  0  0  0  0
  2  7  1  0  0  0  0
  2  3  2  0  0  0  0
  4  6  1  0  0  0  0
  6  8  1  0  0  0  0
  7  5  1  6  0  0  0
  7  8  1  0  0  0  0
  8 20  1  6  0  0  0
  9  4  1  1  0  0  0
  9  2  1  0  0  0  0
 10 15  2  0  0  0  0
 12 16  2  0  0  0  0
 12 14  1  0  0  0  0
 13 15  1  0  0  0  0
 14 13  2  0  0  0  0
 15 17  1  0  0  0  0
 16 10  1  0  0  0  0
 18 11  2  0  0  0  0
 18 12  1  0  0  0  0
 19 11  1  6  0  0  0
 19 14  1  0  0  0  0
 19  9  1  0  0  0  0
 20 21  1  0  0  0  0
 22 27  1  0  0  0  0
 23 27  1  0  0  0  0
 24 29  1  6  0  0  0
 24 26  1  0  0  0  0
 24 22  1  0  0  0  0
 25 26  1  0  0  0  0
 25 23  1  0  0  0  0
 27 21  1  0  0  0  0
 28 29  1  0  0  0  0
M  END
>  <MODEL>
3

>  <REMARK>
 VINA RESULT:      -7.2      3.164      8.828
  Name = 
  5 active torsions:
  status: ('A' for Active; 'I' for Inactive)
    1  A    between atoms: C_8  and  C_14
    2  A    between atoms: C_8  and  N_26
    3  A    between atoms: C_9  and  O_11
    4  A    between atoms: C_14  and  C_24
    5  A    between atoms: N_27  and  C_29
                            x       y       z     vdW  Elec       q    Type
                         _______ _______ _______ _____ _____    ______ ____

>  <TORSDO>
F 5

$$$$
=
 OpenBabel11042416513D

 29 32  0  0  1  0  0  0  0  0999 V2000
  191.2960  172.3060  143.9810 O   0  0  0  0  0  0  0  0  0  0  0  0
  191.2670  173.7470  144.4060 S   0  0  0  0  0  0  0  0  0  0  0  0
  191.3950  174.6360  143.2020 O   0  0  0  0  0  0  0  0  0  0  0  0
  192.3750  175.1700  146.4770 C   0  0  0  0  0  2  0  0  0  0  0  0
  189.3640  172.9640  145.9890 F   0  0  0  0  0  0  0  0  0  0  0  0
  191.0160  175.0860  147.1650 C   0  0  0  0  0  2  0  0  0  0  0  0
  189.7310  174.0740  145.2460 C   0  0  1  0  0  3  0  0  0  0  0  0
  189.8930  175.2960  146.1540 C   0  0  1  0  0  3  0  0  0  0  0  0
  192.5560  174.0780  145.5230 N   0  0  2  0  0  0  0  0  0  0  0  0
  197.4410  174.5060  143.8590 N   0  0  0  0  0  0  0  0  0  0  0  0
  194.2250  172.1790  145.7630 C   0  0  0  0  0  3  0  0  0  0  0  0
  195.9700  173.0460  144.8710 C   0  0  0  0  0  0  0  0  0  0  0  0
  195.2030  175.2410  144.2480 N   0  0  0  0  0  0  0  0  0  0  0  0
  194.9640  174.0270  144.7890 C   0  0  0  0  0  0  0  0  0  0  0  0
  196.4660  175.4750  143.7750 C   0  0  0  0  0  0  0  0  0  0  0  0
  197.2080  173.3020  144.4010 N   0  0  0  0  0  0  0  0  0  0  0  0
  196.7890  176.7910  143.1650 C   0  0  0  0  0  1  0  0  0  0  0  0
  195.5300  171.9230  145.4610 N   0  0  0  0  0  0  0  0  0  0  0  0
  193.8480  173.4700  145.3610 C   0  0  2  0  0  3  0  0  0  0  0  0
  188.5990  175.6050  146.8880 C   0  0  0  0  0  2  0  0  0  0  0  0
  188.3090  177.0960  146.8430 C   0  0  0  0  0  2  0  0  0  0  0  0
  186.6240  177.7310  145.3520 C   0  0  0  0  0  2  0  0  0  0  0  0
  186.5370  178.4210  147.6340 C   0  0  0  0  0  2  0  0  0  0  0  0
  185.1100  177.8450  145.1200 C   0  0  1  0  0  3  0  0  0  0  0  0
  185.1560  179.0400  147.3520 C   0  0  0  0  0  2  0  0  0  0  0  0
  184.3160  178.2000  146.3880 C   0  0  0  0  0  2  0  0  0  0  0  0
  186.8770  177.3160  146.7280 N   0  0  0  0  0  0  0  0  0  0  0  0
  185.5670  179.7860  143.9840 C   0  0  0  0  0  1  0  0  0  0  0  0
  184.7690  178.6290  143.9950 O   0  0  0  0  0  0  0  0  0  0  0  0
  1  2  2  0  0  0  0
  2  7  1  0  0  0  0
  2  9  1  0  0  0  0
  3  2  2  0  0  0  0
  4  6  1  0  0  0  0
  7  5  1  1  0  0  0
  7  8  1  0  0  0  0
  8 20  1  1  0  0  0
  8  6  1  0  0  0  0
  9  4  1  6  0  0  0
 10 16  1  0  0  0  0
 12 18  1  0  0  0  0
 13 14  2  0  0  0  0
 14 12  1  0  0  0  0
 14 19  1  0  0  0  0
 15 10  2  0  0  0  0
 15 13  1  0  0  0  0
 16 12  2  0  0  0  0
 17 15  1  0  0  0  0
 18 11  2  0  0  0  0
 19  9  1  0  0  0  0
 19 11  1  1  0  0  0
 21 20  1  0  0  0  0
 22 27  1  0  0  0  0
 24 29  1  6  0  0  0
 24 22  1  0  0  0  0
 24 26  1  0  0  0  0
 25 23  1  0  0  0  0
 26 25  1  0  0  0  0
 27 21  1  0  0  0  0
 27 23  1  0  0  0  0
 28 29  1  0  0  0  0
M  END
>  <MODEL>
4

>  <REMARK>
 VINA RESULT:      -7.2      2.447      2.979
  Name = 
  5 active torsions:
  status: ('A' for Active; 'I' for Inactive)
    1  A    between atoms: C_8  and  C_14
    2  A    between atoms: C_8  and  N_26
    3  A    between atoms: C_9  and  O_11
    4  A    between atoms: C_14  and  C_24
    5  A    between atoms: N_27  and  C_29
                            x       y       z     vdW  Elec       q    Type
                         _______ _______ _______ _____ _____    ______ ____

>  <TORSDO>
F 5

$$$$
=
 OpenBabel11042416513D

 29 32  0  0  1  0  0  0  0  0999 V2000
  192.2460  177.0680  144.7950 O   0  0  0  0  0  0  0  0  0  0  0  0
  191.3990  176.5520  145.9250 S   0  0  0  0  0  0  0  0  0  0  0  0
  192.1580  176.6520  147.2170 O   0  0  0  0  0  0  0  0  0  0  0  0
  189.7010  174.4170  146.2450 C   0  0  0  0  0  2  0  0  0  0  0  0
  189.4960  177.8630  144.7410 F   0  0  0  0  0  0  0  0  0  0  0  0
  188.5500  175.3920  146.0140 C   0  0  0  0  0  2  0  0  0  0  0  0
  189.9060  177.5180  146.0180 C   0  0  1  0  0  3  0  0  0  0  0  0
  188.8170  176.7120  146.7310 C   0  0  1  0  0  3  0  0  0  0  0  0
  190.9380  174.9020  145.6370 N   0  0  2  0  0  0  0  0  0  0  0  0
  191.9600  171.6320  141.7550 N   0  0  0  0  0  0  0  0  0  0  0  0
  193.1290  173.6250  145.5020 C   0  0  0  0  0  3  0  0  0  0  0  0
  192.8420  172.5000  143.7010 C   0  0  0  0  0  0  0  0  0  0  0  0
  190.6510  173.1980  142.9920 N   0  0  0  0  0  0  0  0  0  0  0  0
  191.6680  173.2560  143.8780 C   0  0  0  0  0  0  0  0  0  0  0  0
  190.8070  172.3670  141.9160 C   0  0  0  0  0  0  0  0  0  0  0  0
  192.9740  171.6910  142.6300 N   0  0  0  0  0  0  0  0  0  0  0  0
  189.7200  172.2590  140.9080 C   0  0  0  0  0  1  0  0  0  0  0  0
  193.7340  172.7190  144.6810 N   0  0  0  0  0  0  0  0  0  0  0  0
  191.8540  173.9750  145.0310 C   0  0  2  0  0  3  0  0  0  0  0  0
  187.5260  177.5080  146.8300 C   0  0  0  0  0  2  0  0  0  0  0  0
  186.3480  176.6630  146.3750 C   0  0  0  0  0  2  0  0  0  0  0  0
  185.8830  176.9360  144.1000 C   0  0  0  0  0  2  0  0  0  0  0  0
  185.9310  178.8250  145.5570 C   0  0  0  0  0  2  0  0  0  0  0  0
  184.9600  177.5910  143.0620 C   0  0  1  0  0  3  0  0  0  0  0  0
  185.4640  179.6960  144.3750 C   0  0  0  0  0  2  0  0  0  0  0  0
  184.4530  178.9820  143.4780 C   0  0  0  0  0  2  0  0  0  0  0  0
  185.5360  177.4160  145.4350 N   0  0  0  0  0  0  0  0  0  0  0  0
  186.7170  176.9000  141.7590 C   0  0  0  0  0  1  0  0  0  0  0  0
  185.4660  177.5380  141.7440 O   0  0  0  0  0  0  0  0  0  0  0  0
  1  2  2  0  0  0  0
  2  7  1  0  0  0  0
  2  3  2  0  0  0  0
  6  4  1  0  0  0  0
  6  8  1  0  0  0  0
  7  5  1  6  0  0  0
  7  8  1  0  0  0  0
  8 20  1  6  0  0  0
  9  2  1  0  0  0  0
  9  4  1  1  0  0  0
 10 15  2  0  0  0  0
 10 16  1  0  0  0  0
 12 14  1  0  0  0  0
 12 18  1  0  0  0  0
 13 14  2  0  0  0  0
 14 19  1  0  0  0  0
 15 13  1  0  0  0  0
 16 12  2  0  0  0  0
 17 15  1  0  0  0  0
 18 11  2  0  0  0  0
 19 11  1  6  0  0  0
 19  9  1  0  0  0  0
 21 20  1  0  0  0  0
 22 27  1  0  0  0  0
 24 29  1  6  0  0  0
 24 26  1  0  0  0  0
 24 22  1  0  0  0  0
 25 23  1  0  0  0  0
 26 25  1  0  0  0  0
 27 23  1  0  0  0  0
 27 21  1  0  0  0  0
 29 28  1  0  0  0  0
M  END
>  <MODEL>
5

>  <REMARK>
 VINA RESULT:      -7.2      3.215      3.647
  Name = 
  5 active torsions:
  status: ('A' for Active; 'I' for Inactive)
    1  A    between atoms: C_8  and  C_14
    2  A    between atoms: C_8  and  N_26
    3  A    between atoms: C_9  and  O_11
    4  A    between atoms: C_14  and  C_24
    5  A    between atoms: N_27  and  C_29
                            x       y       z     vdW  Elec       q    Type
                         _______ _______ _______ _____ _____    ______ ____

>  <TORSDO>
F 5

$$$$
=
 OpenBabel11042416513D

 29 32  0  0  1  0  0  0  0  0999 V2000
  191.8340  177.5590  142.7600 O   0  0  0  0  0  0  0  0  0  0  0  0
  191.7190  176.8590  144.0850 S   0  0  0  0  0  0  0  0  0  0  0  0
  192.9970  177.0210  144.8590 O   0  0  0  0  0  0  0  0  0  0  0  0
  190.6680  174.4630  144.9170 C   0  0  0  0  0  2  0  0  0  0  0  0
  189.3380  177.8940  144.1220 F   0  0  0  0  0  0  0  0  0  0  0  0
  189.4440  175.2450  145.3830 C   0  0  0  0  0  2  0  0  0  0  0  0
  190.3600  177.5620  144.9960 C   0  0  1  0  0  3  0  0  0  0  0  0
  189.8670  176.5560  146.0400 C   0  0  1  0  0  3  0  0  0  0  0  0
  191.3790  175.1710  143.8550 N   0  0  2  0  0  0  0  0  0  0  0  0
  190.8570  172.9570  139.2050 N   0  0  0  0  0  0  0  0  0  0  0  0
  193.3180  174.0080  142.7000 C   0  0  0  0  0  3  0  0  0  0  0  0
  192.3840  173.3460  140.8890 C   0  0  0  0  0  0  0  0  0  0  0  0
  190.1300  174.1520  141.1380 N   0  0  0  0  0  0  0  0  0  0  0  0
  191.3830  174.0130  141.6200 C   0  0  0  0  0  0  0  0  0  0  0  0
  189.8700  173.6090  139.9090 C   0  0  0  0  0  0  0  0  0  0  0  0
  192.1050  172.8230  139.6780 N   0  0  0  0  0  0  0  0  0  0  0  0
  188.5080  173.7260  139.3280 C   0  0  0  0  0  1  0  0  0  0  0  0
  193.5600  173.3390  141.5360 N   0  0  0  0  0  0  0  0  0  0  0  0
  191.9840  174.4360  142.7790 C   0  0  2  0  0  3  0  0  0  0  0  0
  188.7060  177.1240  146.8380 C   0  0  0  0  0  2  0  0  0  0  0  0
  187.5610  176.1250  146.8900 C   0  0  0  0  0  2  0  0  0  0  0  0
  186.2460  177.2650  145.3290 C   0  0  0  0  0  2  0  0  0  0  0  0
  186.3240  177.9920  147.6000 C   0  0  0  0  0  2  0  0  0  0  0  0
  184.8710  177.8850  145.0370 C   0  0  1  0  0  3  0  0  0  0  0  0
  185.2480  179.0400  147.2590 C   0  0  0  0  0  2  0  0  0  0  0  0
  184.2040  178.5160  146.2710 C   0  0  0  0  0  2  0  0  0  0  0  0
  186.2960  176.8180  146.7180 N   0  0  0  0  0  0  0  0  0  0  0  0
  184.5630  177.9320  142.7640 C   0  0  0  0  0  1  0  0  0  0  0  0
  184.8570  178.7140  143.8940 O   0  0  0  0  0  0  0  0  0  0  0  0
  1  2  2  0  0  0  0
  2  3  2  0  0  0  0
  2  7  1  0  0  0  0
  4  6  1  0  0  0  0
  6  8  1  0  0  0  0
  7  5  1  6  0  0  0
  7  8  1  0  0  0  0
  8 20  1  6  0  0  0
  9  2  1  0  0  0  0
  9  4  1  1  0  0  0
 10 16  1  0  0  0  0
 10 15  2  0  0  0  0
 12 18  1  0  0  0  0
 12 14  1  0  0  0  0
 13 14  2  0  0  0  0
 14 19  1  0  0  0  0
 15 13  1  0  0  0  0
 16 12  2  0  0  0  0
 17 15  1  0  0  0  0
 18 11  2  0  0  0  0
 19 11  1  6  0  0  0
 19  9  1  0  0  0  0
 20 21  1  0  0  0  0
 22 27  1  0  0  0  0
 24 29  1  6  0  0  0
 24 22  1  0  0  0  0
 24 26  1  0  0  0  0
 25 23  1  0  0  0  0
 26 25  1  0  0  0  0
 27 21  1  0  0  0  0
 27 23  1  0  0  0  0
 28 29  1  0  0  0  0
M  END
>  <MODEL>
6

>  <REMARK>
 VINA RESULT:      -7.2      2.686      3.320
  Name = 
  5 active torsions:
  status: ('A' for Active; 'I' for Inactive)
    1  A    between atoms: C_8  and  C_14
    2  A    between atoms: C_8  and  N_26
    3  A    between atoms: C_9  and  O_11
    4  A    between atoms: C_14  and  C_24
    5  A    between atoms: N_27  and  C_29
                            x       y       z     vdW  Elec       q    Type
                         _______ _______ _______ _____ _____    ______ ____

>  <TORSDO>
F 5

$$$$
=
 OpenBabel11042416513D

 29 32  0  0  1  0  0  0  0  0999 V2000
  191.4180  176.2130  143.3090 O   0  0  0  0  0  0  0  0  0  0  0  0
  191.1120  176.2240  144.7810 S   0  0  0  0  0  0  0  0  0  0  0  0
  192.2780  176.7920  145.5390 O   0  0  0  0  0  0  0  0  0  0  0  0
  189.9060  174.4670  146.5130 C   0  0  0  0  0  2  0  0  0  0  0  0
  188.7710  177.0440  144.0140 F   0  0  0  0  0  0  0  0  0  0  0  0
  188.6490  175.3220  146.3880 C   0  0  0  0  0  2  0  0  0  0  0  0
  189.6590  177.2140  145.0630 C   0  0  1  0  0  3  0  0  0  0  0  0
  189.0090  176.8040  146.3880 C   0  0  1  0  0  3  0  0  0  0  0  0
  190.7690  174.6160  145.3430 N   0  0  2  0  0  0  0  0  0  0  0  0
  195.3190  172.2220  144.7400 N   0  0  0  0  0  0  0  0  0  0  0  0
  190.9580  172.3770  144.1620 C   0  0  0  0  0  3  0  0  0  0  0  0
  193.0690  172.0250  144.2770 C   0  0  0  0  0  0  0  0  0  0  0  0
  193.8590  173.9690  145.4560 N   0  0  0  0  0  0  0  0  0  0  0  0
  192.8460  173.2630  144.9090 C   0  0  0  0  0  0  0  0  0  0  0  0
  195.1150  173.4330  145.3630 C   0  0  0  0  0  0  0  0  0  0  0  0
  194.3150  171.5160  144.2020 N   0  0  0  0  0  0  0  0  0  0  0  0
  196.2700  174.1650  145.9430 C   0  0  0  0  0  1  0  0  0  0  0  0
  191.9290  171.4810  143.8220 N   0  0  0  0  0  0  0  0  0  0  0  0
  191.4950  173.4850  144.8350 C   0  0  2  0  0  3  0  0  0  0  0  0
  187.7640  177.6310  146.6630 C   0  0  0  0  0  2  0  0  0  0  0  0
  186.5140  176.7920  146.4520 C   0  0  0  0  0  2  0  0  0  0  0  0
  185.6760  177.0370  144.2840 C   0  0  0  0  0  2  0  0  0  0  0  0
  185.9570  178.9440  145.6910 C   0  0  0  0  0  2  0  0  0  0  0  0
  184.5900  177.6770  143.4070 C   0  0  1  0  0  3  0  0  0  0  0  0
  185.2960  179.7990  144.5940 C   0  0  0  0  0  2  0  0  0  0  0  0
  184.1520  179.0720  143.8860 C   0  0  0  0  0  2  0  0  0  0  0  0
  185.5540  177.5320  145.6520 N   0  0  0  0  0  0  0  0  0  0  0  0
  186.2570  177.5050  141.8410 C   0  0  0  0  0  1  0  0  0  0  0  0
  184.8680  177.6100  142.0240 O   0  0  0  0  0  0  0  0  0  0  0  0
  1  2  2  0  0  0  0
  2  7  1  0  0  0  0
  2  9  1  0  0  0  0
  2  3  2  0  0  0  0
  6  4  1  0  0  0  0
  7  5  1  6  0  0  0
  7  8  1  0  0  0  0
  8  6  1  0  0  0  0
  8 20  1  6  0  0  0
  9  4  1  1  0  0  0
 10 15  2  0  0  0  0
 12 14  1  0  0  0  0
 14 13  2  0  0  0  0
 15 13  1  0  0  0  0
 15 17  1  0  0  0  0
 16 12  2  0  0  0  0
 16 10  1  0  0  0  0
 18 11  2  0  0  0  0
 18 12  1  0  0  0  0
 19 11  1  1  0  0  0
 19 14  1  0  0  0  0
 19  9  1  0  0  0  0
 21 20  1  0  0  0  0
 22 27  1  0  0  0  0
 24 29  1  6  0  0  0
 24 26  1  0  0  0  0
 24 22  1  0  0  0  0
 25 23  1  0  0  0  0
 26 25  1  0  0  0  0
 27 23  1  0  0  0  0
 27 21  1  0  0  0  0
 28 29  1  0  0  0  0
M  END
>  <MODEL>
7

>  <REMARK>
 VINA RESULT:      -7.1      3.152      3.929
  Name = 
  5 active torsions:
  status: ('A' for Active; 'I' for Inactive)
    1  A    between atoms: C_8  and  C_14
    2  A    between atoms: C_8  and  N_26
    3  A    between atoms: C_9  and  O_11
    4  A    between atoms: C_14  and  C_24
    5  A    between atoms: N_27  and  C_29
                            x       y       z     vdW  Elec       q    Type
                         _______ _______ _______ _____ _____    ______ ____

>  <TORSDO>
F 5

$$$$
=
 OpenBabel11042416513D

 29 32  0  0  1  0  0  0  0  0999 V2000
  186.5420  176.3730  146.7080 O   0  0  0  0  0  0  0  0  0  0  0  0
  187.8610  177.0890  146.6270 S   0  0  0  0  0  0  0  0  0  0  0  0
  187.8750  178.2400  147.5920 O   0  0  0  0  0  0  0  0  0  0  0  0
  189.5240  177.8430  144.5760 C   0  0  0  0  0  2  0  0  0  0  0  0
  188.8530  174.6920  146.5240 F   0  0  0  0  0  0  0  0  0  0  0  0
  190.3700  176.6180  144.9100 C   0  0  0  0  0  2  0  0  0  0  0  0
  189.1680  175.9460  147.0210 C   0  0  1  0  0  3  0  0  0  0  0  0
  190.4850  176.4450  146.4210 C   0  0  1  0  0  3  0  0  0  0  0  0
  188.1400  177.6690  145.0140 N   0  0  2  0  0  0  0  0  0  0  0  0
  185.6610  177.7430  140.4690 N   0  0  0  0  0  0  0  0  0  0  0  0
  186.0860  179.1110  144.6320 C   0  0  0  0  0  3  0  0  0  0  0  0
  185.6300  178.6500  142.5890 C   0  0  0  0  0  0  0  0  0  0  0  0
  187.3500  177.0670  142.0140 N   0  0  0  0  0  0  0  0  0  0  0  0
  186.7740  177.8950  142.9120 C   0  0  0  0  0  0  0  0  0  0  0  0
  186.7780  176.9980  140.7730 C   0  0  0  0  0  0  0  0  0  0  0  0
  185.0830  178.5620  141.3600 N   0  0  0  0  0  0  0  0  0  0  0  0
  187.3690  176.1070  139.7410 C   0  0  0  0  0  1  0  0  0  0  0  0
  185.2060  179.3900  143.6270 N   0  0  0  0  0  0  0  0  0  0  0  0
  187.0630  178.1920  144.2190 C   0  0  2  0  0  3  0  0  0  0  0  0
  191.6250  175.4920  146.7390 C   0  0  0  0  0  2  0  0  0  0  0  0
  192.9170  176.2640  146.9480 C   0  0  0  0  0  2  0  0  0  0  0  0
  194.2830  176.2810  145.0510 C   0  0  0  0  0  2  0  0  0  0  0  0
  193.5450  174.2140  145.9890 C   0  0  0  0  0  2  0  0  0  0  0  0
  195.5270  175.6850  144.3770 C   0  0  1  0  0  3  0  0  0  0  0  0
  194.4270  173.4800  144.9610 C   0  0  0  0  0  2  0  0  0  0  0  0
  195.7520  174.1980  144.7000 C   0  0  0  0  0  2  0  0  0  0  0  0
  194.0150  175.5710  146.2980 N   0  0  0  0  0  0  0  0  0  0  0  0
  196.7630  176.7900  142.7910 C   0  0  0  0  0  1  0  0  0  0  0  0
  195.6260  175.9920  143.0020 O   0  0  0  0  0  0  0  0  0  0  0  0
  2  1  2  0  0  0  0
  2  7  1  0  0  0  0
  2  3  2  0  0  0  0
  4  6  1  0  0  0  0
  6  8  1  0  0  0  0
  7  5  1  6  0  0  0
  8 20  1  6  0  0  0
  8  7  1  0  0  0  0
  9  4  1  1  0  0  0
  9  2  1  0  0  0  0
 10 15  2  0  0  0  0
 10 16  1  0  0  0  0
 12 14  1  0  0  0  0
 12 18  1  0  0  0  0
 13 14  2  0  0  0  0
 14 19  1  0  0  0  0
 15 13  1  0  0  0  0
 16 12  2  0  0  0  0
 17 15  1  0  0  0  0
 18 11  2  0  0  0  0
 19 11  1  1  0  0  0
 19  9  1  0  0  0  0
 20 21  1  0  0  0  0
 22 27  1  0  0  0  0
 23 27  1  0  0  0  0
 24 29  1  6  0  0  0
 24 26  1  0  0  0  0
 24 22  1  0  0  0  0
 25 23  1  0  0  0  0
 26 25  1  0  0  0  0
 27 21  1  0  0  0  0
 28 29  1  0  0  0  0
M  END
>  <MODEL>
8

>  <REMARK>
 VINA RESULT:      -7.1      3.281      8.202
  Name = 
  5 active torsions:
  status: ('A' for Active; 'I' for Inactive)
    1  A    between atoms: C_8  and  C_14
    2  A    between atoms: C_8  and  N_26
    3  A    between atoms: C_9  and  O_11
    4  A    between atoms: C_14  and  C_24
    5  A    between atoms: N_27  and  C_29
                            x       y       z     vdW  Elec       q    Type
                         _______ _______ _______ _____ _____    ______ ____

>  <TORSDO>
F 5

$$$$
=
 OpenBabel11042416513D

 29 32  0  0  1  0  0  0  0  0999 V2000
  190.3460  173.7960  144.9130 O   0  0  0  0  0  0  0  0  0  0  0  0
  190.4570  174.6320  143.6680 S   0  0  0  0  0  0  0  0  0  0  0  0
  191.0020  173.7990  142.5430 O   0  0  0  0  0  0  0  0  0  0  0  0
  191.2750  177.1980  143.1330 C   0  0  0  0  0  2  0  0  0  0  0  0
  188.1380  175.5440  144.3970 F   0  0  0  0  0  0  0  0  0  0  0  0
  189.7990  177.5810  143.0900 C   0  0  0  0  0  2  0  0  0  0  0  0
  188.8430  175.2530  143.2410 C   0  0  1  0  0  3  0  0  0  0  0  0
  188.9890  176.5050  142.3730 C   0  0  1  0  0  3  0  0  0  0  0  0
  191.4900  176.0010  143.9430 N   0  0  2  0  0  0  0  0  0  0  0  0
  196.3320  174.2400  144.4550 N   0  0  0  0  0  0  0  0  0  0  0  0
  192.8500  176.4140  146.0470 C   0  0  0  0  0  3  0  0  0  0  0  0
  194.6820  175.4160  145.5580 C   0  0  0  0  0  0  0  0  0  0  0  0
  194.2470  174.5790  143.3440 N   0  0  0  0  0  0  0  0  0  0  0  0
  193.8380  175.2450  144.4440 C   0  0  0  0  0  0  0  0  0  0  0  0
  195.5170  174.0680  143.3590 C   0  0  0  0  0  0  0  0  0  0  0  0
  195.9310  174.9060  145.5470 N   0  0  0  0  0  0  0  0  0  0  0  0
  196.0220  173.3220  142.1770 C   0  0  0  0  0  1  0  0  0  0  0  0
  194.0910  176.1240  146.5340 N   0  0  0  0  0  0  0  0  0  0  0  0
  192.6670  175.8860  144.7590 C   0  0  2  0  0  3  0  0  0  0  0  0
  187.6290  177.0630  141.9880 C   0  0  0  0  0  2  0  0  0  0  0  0
  187.5690  178.5550  142.2720 C   0  0  0  0  0  2  0  0  0  0  0  0
  186.1970  178.2660  144.1420 C   0  0  0  0  0  2  0  0  0  0  0  0
  185.2560  178.3050  141.9490 C   0  0  0  0  0  2  0  0  0  0  0  0
  184.9050  178.7030  144.8490 C   0  0  1  0  0  3  0  0  0  0  0  0
  183.8580  178.2330  142.5920 C   0  0  0  0  0  2  0  0  0  0  0  0
  183.7580  179.0460  143.8840 C   0  0  0  0  0  2  0  0  0  0  0  0
  186.2720  178.8980  142.8280 N   0  0  0  0  0  0  0  0  0  0  0  0
  185.6090  177.0210  146.2420 C   0  0  0  0  0  1  0  0  0  0  0  0
  184.5240  177.8480  145.9070 O   0  0  0  0  0  0  0  0  0  0  0  0
  2  9  1  0  0  0  0
  2  1  2  0  0  0  0
  3  2  2  0  0  0  0
  6  4  1  0  0  0  0
  7  2  1  0  0  0  0
  7  5  1  1  0  0  0
  8 20  1  1  0  0  0
  8  6  1  0  0  0  0
  8  7  1  0  0  0  0
  9  4  1  6  0  0  0
  9 19  1  0  0  0  0
 10 16  1  0  0  0  0
 11 18  2  0  0  0  0
 12 18  1  0  0  0  0
 13 15  1  0  0  0  0
 13 14  2  0  0  0  0
 14 19  1  0  0  0  0
 14 12  1  0  0  0  0
 15 10  2  0  0  0  0
 16 12  2  0  0  0  0
 17 15  1  0  0  0  0
 19 11  1  6  0  0  0
 20 21  1  0  0  0  0
 21 27  1  0  0  0  0
 22 24  1  0  0  0  0
 23 25  1  0  0  0  0
 23 27  1  0  0  0  0
 24 29  1  1  0  0  0
 25 26  1  0  0  0  0
 26 24  1  0  0  0  0
 27 22  1  0  0  0  0
 29 28  1  0  0  0  0
M  END
>  <MODEL>
9

>  <REMARK>
 VINA RESULT:      -7.0      2.422      3.231
  Name = 
  5 active torsions:
  status: ('A' for Active; 'I' for Inactive)
    1  A    between atoms: C_8  and  C_14
    2  A    between atoms: C_8  and  N_26
    3  A    between atoms: C_9  and  O_11
    4  A    between atoms: C_14  and  C_24
    5  A    between atoms: N_27  and  C_29
                            x       y       z     vdW  Elec       q    Type
                         _______ _______ _______ _____ _____    ______ ____

>  <TORSDO>
F 5

$$$$
