=
 OpenBabel11042418233D

 37 41  0  0  1  0  0  0  0  0999 V2000
  187.1730  177.8140  147.4700 C   0  0  0  0  0  2  0  0  0  0  0  0
  195.6740  175.3140  145.5250 O   0  0  0  0  0  0  0  0  0  0  0  0
  194.8270  175.6580  144.6580 C   0  0  0  0  0  0  0  0  0  0  0  0
  186.5290  178.3360  143.1300 C   0  0  0  0  0  0  0  0  0  0  0  0
  185.0950  177.4600  146.2050 C   0  0  0  0  0  3  0  0  0  0  0  0
  191.4340  176.8400  143.3780 S   0  0  0  0  0  0  0  0  0  0  0  0
  185.8940  177.0840  147.2050 C   0  0  0  0  0  3  0  0  0  0  0  0
  193.5080  176.0360  144.9250 C   0  0  0  0  0  0  0  0  0  0  0  0
  189.4430  177.1250  146.8300 C   0  0  0  0  0  3  0  0  0  0  0  0
  190.2790  177.0890  144.5760 C   0  0  0  0  0  0  0  0  0  0  0  0
  190.5010  176.8780  145.9490 C   0  0  0  0  0  0  0  0  0  0  0  0
  193.6630  175.7650  147.1860 O   0  0  0  0  0  0  0  0  0  0  0  0
  193.9720  176.0980  142.7780 C   0  0  0  0  0  0  0  0  0  0  0  0
  191.6570  176.4560  146.5300 N   0  0  0  0  0  2  0  0  0  0  0  0
  195.1200  175.6990  143.3470 N   0  0  0  0  0  0  0  0  0  0  0  0
  189.0320  177.5330  144.1350 C   0  0  0  0  0  3  0  0  0  0  0  0
  184.2400  179.1060  144.5840 C   0  0  0  0  0  1  0  0  0  0  0  0
  185.4770  178.6100  145.3250 C   0  0  2  0  0  3  0  0  0  0  0  0
  186.4080  178.4200  141.8340 C   0  0  0  0  0  3  0  0  0  0  0  0
  188.1910  177.5640  146.3970 C   0  0  0  0  0  0  0  0  0  0  0  0
  192.9930  176.3120  143.7330 C   0  0  0  0  0  0  0  0  0  0  0  0
  192.9300  176.0890  146.2130 C   0  0  0  0  0  0  0  0  0  0  0  0
  186.6540  178.2470  144.4360 C   0  0  0  0  0  0  0  0  0  0  0  0
  187.9660  177.7870  145.0130 C   0  0  0  0  0  0  0  0  0  0  0  0
  186.3080  177.1820  141.0180 C   0  0  0  0  0  2  0  0  0  0  0  0
  187.6870  176.5810  140.8430 C   0  0  0  0  0  2  0  0  0  0  0  0
  188.4900  174.5370  140.6420 C   0  0  0  0  0  1  0  0  0  0  0  0
  187.7450  175.3490  141.4950 O   0  0  0  0  0  0  0  0  0  0  0  0
  193.8300  176.3320  141.3120 C   0  0  0  0  0  2  0  0  0  0  0  0
  194.0230  175.0840  140.5960 N   0  0  0  0  0  2  0  0  0  0  0  0
  192.9460  174.2550  140.9350 N   0  0  0  0  0  2  0  0  0  0  0  0
  193.4700  172.9030  141.0180 C   0  0  0  0  0  2  0  0  0  0  0  0
  192.9040  172.2070  142.2410 C   0  0  2  0  0  3  0  0  0  0  0  0
  192.9390  172.2380  144.5300 N   0  0  0  0  0  2  0  0  0  0  0  0
  191.6910  172.9550  144.3260 C   0  0  0  0  0  2  0  0  0  0  0  0
  191.2410  172.8300  142.5770 S   0  0  0  0  0  0  0  0  0  0  0  0
  193.7350  172.4820  143.4010 N   0  0  0  0  0  2  0  0  0  0  0  0
  3  8  1  0  0  0  0
  3  2  2  0  0  0  0
  4 23  2  0  0  0  0
  5  7  2  0  0  0  0
  6 21  1  0  0  0  0
  6 10  1  0  0  0  0
  7  1  1  0  0  0  0
  8 22  1  0  0  0  0
 10 11  1  0  0  0  0
 11 14  1  0  0  0  0
 11  9  2  0  0  0  0
 13 15  2  0  0  0  0
 13 21  1  0  0  0  0
 15  3  1  0  0  0  0
 16 10  2  0  0  0  0
 16 24  1  0  0  0  0
 18 17  1  6  0  0  0
 18  5  1  0  0  0  0
 19  4  2  0  0  0  0
 20  9  1  0  0  0  0
 20  1  1  0  0  0  0
 21  8  2  0  0  0  0
 22 14  1  0  0  0  0
 22 12  2  0  0  0  0
 23 24  1  0  0  0  0
 23 18  1  0  0  0  0
 24 20  2  0  0  0  0
 25 19  1  0  0  0  0
 26 25  1  0  0  0  0
 26 28  1  0  0  0  0
 27 28  1  0  0  0  0
 29 13  1  0  0  0  0
 30 31  1  0  0  0  0
 30 29  1  0  0  0  0
 31 32  1  0  0  0  0
 33 32  1  6  0  0  0
 33 36  1  0  0  0  0
 33 37  1  0  0  0  0
 35 34  1  0  0  0  0
 36 35  1  0  0  0  0
 37 34  1  0  0  0  0
M  END
>  <MODEL>
1

>  <REMARK>
 VINA RESULT:      -7.4      0.000      0.000
  Name = 
  8 active torsions:
  status: ('A' for Active; 'I' for Inactive)
    1  A    between atoms: C_5  and  C_30
    2  A    between atoms: C_8  and  C_16
    3  A    between atoms: C_8  and  C_29
    4  A    between atoms: N_11  and  C_30
    5  A    between atoms: N_11  and  N_34
    6  A    between atoms: C_16  and  O_33
    7  A    between atoms: C_20  and  C_22
    8  A    between atoms: C_20  and  N_34
                            x       y       z     vdW  Elec       q    Type
                         _______ _______ _______ _____ _____    ______ ____

>  <TORSDO>
F 8

$$$$
=
 OpenBabel11042418233D

 37 41  0  0  1  0  0  0  0  0999 V2000
  187.0450  177.8050  147.3130 C   0  0  0  0  0  2  0  0  0  0  0  0
  195.6270  175.3390  145.7090 O   0  0  0  0  0  0  0  0  0  0  0  0
  194.8120  175.6770  144.8090 C   0  0  0  0  0  0  0  0  0  0  0  0
  186.5680  178.3120  142.9500 C   0  0  0  0  0  0  0  0  0  0  0  0
  185.0200  177.4380  145.9690 C   0  0  0  0  0  3  0  0  0  0  0  0
  191.4670  176.8400  143.3930 S   0  0  0  0  0  0  0  0  0  0  0  0
  185.7800  177.0680  147.0010 C   0  0  0  0  0  3  0  0  0  0  0  0
  193.4820  176.0490  145.0230 C   0  0  0  0  0  0  0  0  0  0  0  0
  189.3410  177.1250  146.7640 C   0  0  0  0  0  3  0  0  0  0  0  0
  190.2650  177.0870  144.5450 C   0  0  0  0  0  0  0  0  0  0  0  0
  190.4340  176.8800  145.9270 C   0  0  0  0  0  0  0  0  0  0  0  0
  193.5500  175.7850  147.2890 O   0  0  0  0  0  0  0  0  0  0  0  0
  194.0300  176.1080  142.8960 C   0  0  0  0  0  0  0  0  0  0  0  0
  191.5680  176.4650  146.5530 N   0  0  0  0  0  2  0  0  0  0  0  0
  195.1560  175.7160  143.5100 N   0  0  0  0  0  0  0  0  0  0  0  0
  189.0330  177.5240  144.0540 C   0  0  0  0  0  3  0  0  0  0  0  0
  184.2210  179.0760  144.3110 C   0  0  0  0  0  1  0  0  0  0  0  0
  185.4300  178.5870  145.1010 C   0  0  2  0  0  3  0  0  0  0  0  0
  186.4980  178.3930  141.6500 C   0  0  0  0  0  3  0  0  0  0  0  0
  188.1050  177.5570  146.2820 C   0  0  0  0  0  0  0  0  0  0  0  0
  193.0130  176.3200  143.8110 C   0  0  0  0  0  0  0  0  0  0  0  0
  192.8540  176.1030  146.2870 C   0  0  0  0  0  0  0  0  0  0  0  0
  186.6430  178.2270  144.2610 C   0  0  0  0  0  0  0  0  0  0  0  0
  187.9330  177.7750  144.8890 C   0  0  0  0  0  0  0  0  0  0  0  0
  186.4350  177.1520  140.8340 C   0  0  0  0  0  2  0  0  0  0  0  0
  187.7980  176.4910  140.8170 C   0  0  0  0  0  2  0  0  0  0  0  0
  187.8070  174.7570  142.1790 C   0  0  0  0  0  1  0  0  0  0  0  0
  187.6450  175.1050  140.8390 O   0  0  0  0  0  0  0  0  0  0  0  0
  193.9440  176.3380  141.4250 C   0  0  0  0  0  2  0  0  0  0  0  0
  194.4450  175.1730  140.7180 N   0  0  0  0  0  2  0  0  0  0  0  0
  193.5990  174.1070  141.0480 N   0  0  0  0  0  2  0  0  0  0  0  0
  192.6560  173.9680  139.9510 C   0  0  0  0  0  2  0  0  0  0  0  0
  191.2680  173.7000  140.4980 C   0  0  2  0  0  3  0  0  0  0  0  0
  189.5610  172.1730  140.4610 N   0  0  0  0  0  2  0  0  0  0  0  0
  190.1650  171.7890  141.7260 C   0  0  0  0  0  2  0  0  0  0  0  0
  191.3940  173.0390  142.1750 S   0  0  0  0  0  0  0  0  0  0  0  0
  190.5880  172.7160  139.6730 N   0  0  0  0  0  2  0  0  0  0  0  0
  3  8  1  0  0  0  0
  3  2  2  0  0  0  0
  4 23  2  0  0  0  0
  5  7  2  0  0  0  0
  6 21  1  0  0  0  0
  6 10  1  0  0  0  0
  7  1  1  0  0  0  0
  8 22  1  0  0  0  0
 10 11  1  0  0  0  0
 11 14  1  0  0  0  0
 11  9  2  0  0  0  0
 13 15  2  0  0  0  0
 13 21  1  0  0  0  0
 15  3  1  0  0  0  0
 16 10  2  0  0  0  0
 16 24  1  0  0  0  0
 18 17  1  6  0  0  0
 18  5  1  0  0  0  0
 19  4  2  0  0  0  0
 20  9  1  0  0  0  0
 20  1  1  0  0  0  0
 21  8  2  0  0  0  0
 22 14  1  0  0  0  0
 22 12  2  0  0  0  0
 23 24  1  0  0  0  0
 23 18  1  0  0  0  0
 24 20  2  0  0  0  0
 25 19  1  0  0  0  0
 26 25  1  0  0  0  0
 26 28  1  0  0  0  0
 28 27  1  0  0  0  0
 29 13  1  0  0  0  0
 30 31  1  0  0  0  0
 30 29  1  0  0  0  0
 32 31  1  0  0  0  0
 33 32  1  6  0  0  0
 33 36  1  0  0  0  0
 34 35  1  0  0  0  0
 35 36  1  0  0  0  0
 37 34  1  0  0  0  0
 37 33  1  0  0  0  0
M  END
>  <MODEL>
2

>  <REMARK>
 VINA RESULT:      -7.4      1.169      1.453
  Name = 
  8 active torsions:
  status: ('A' for Active; 'I' for Inactive)
    1  A    between atoms: C_5  and  C_30
    2  A    between atoms: C_8  and  C_16
    3  A    between atoms: C_8  and  C_29
    4  A    between atoms: N_11  and  C_30
    5  A    between atoms: N_11  and  N_34
    6  A    between atoms: C_16  and  O_33
    7  A    between atoms: C_20  and  C_22
    8  A    between atoms: C_20  and  N_34
                            x       y       z     vdW  Elec       q    Type
                         _______ _______ _______ _____ _____    ______ ____

>  <TORSDO>
F 8

$$$$
=
 OpenBabel11042418233D

 37 41  0  0  1  0  0  0  0  0999 V2000
  185.1250  178.0650  142.9330 C   0  0  0  0  0  2  0  0  0  0  0  0
  190.3760  172.5400  138.0130 O   0  0  0  0  0  0  0  0  0  0  0  0
  190.5610  172.7820  139.2360 C   0  0  0  0  0  0  0  0  0  0  0  0
  187.7690  177.2180  146.3700 C   0  0  0  0  0  0  0  0  0  0  0  0
  185.7170  179.5720  144.7820 C   0  0  0  0  0  3  0  0  0  0  0  0
  189.8400  174.3870  142.6200 S   0  0  0  0  0  0  0  0  0  0  0  0
  185.4420  179.4190  143.4860 C   0  0  0  0  0  3  0  0  0  0  0  0
  189.7790  173.6360  140.0170 C   0  0  0  0  0  0  0  0  0  0  0  0
  186.6280  176.5740  141.6860 C   0  0  0  0  0  3  0  0  0  0  0  0
  188.5070  175.4140  142.6390 C   0  0  0  0  0  0  0  0  0  0  0  0
  187.7040  175.6960  141.5190 C   0  0  0  0  0  0  0  0  0  0  0  0
  188.3530  174.2160  138.3320 O   0  0  0  0  0  0  0  0  0  0  0  0
  191.4180  172.7300  141.1650 C   0  0  0  0  0  0  0  0  0  0  0  0
  187.8570  175.1940  140.2630 N   0  0  0  0  0  2  0  0  0  0  0  0
  191.5640  172.2190  139.9340 N   0  0  0  0  0  0  0  0  0  0  0  0
  188.2130  176.0060  143.8690 C   0  0  0  0  0  3  0  0  0  0  0  0
  185.6190  178.8690  147.1410 C   0  0  0  0  0  1  0  0  0  0  0  0
  185.7250  178.3880  145.6980 C   0  0  2  0  0  3  0  0  0  0  0  0
  188.6230  176.9520  147.3190 C   0  0  0  0  0  3  0  0  0  0  0  0
  186.3310  177.1740  142.9110 C   0  0  0  0  0  0  0  0  0  0  0  0
  190.3310  173.5850  141.2230 C   0  0  0  0  0  0  0  0  0  0  0  0
  188.6580  174.3570  139.5460 C   0  0  0  0  0  0  0  0  0  0  0  0
  186.9120  177.4850  145.4080 C   0  0  0  0  0  0  0  0  0  0  0  0
  187.1340  176.8860  144.0470 C   0  0  0  0  0  0  0  0  0  0  0  0
  189.9750  177.5670  147.2920 C   0  0  0  0  0  2  0  0  0  0  0  0
  191.0230  176.4770  147.2110 C   0  0  0  0  0  2  0  0  0  0  0  0
  191.4100  174.7170  145.9410 C   0  0  0  0  0  1  0  0  0  0  0  0
  191.1960  176.0930  145.8820 O   0  0  0  0  0  0  0  0  0  0  0  0
  192.2940  172.3520  142.3110 C   0  0  0  0  0  2  0  0  0  0  0  0
  193.5960  172.9770  142.1590 N   0  0  0  0  0  2  0  0  0  0  0  0
  193.5380  174.1990  142.8400 N   0  0  0  0  0  2  0  0  0  0  0  0
  194.7310  174.9400  142.4700 C   0  0  0  0  0  2  0  0  0  0  0  0
  195.2580  175.6990  143.6730 C   0  0  2  0  0  3  0  0  0  0  0  0
  194.5890  176.7760  145.5800 N   0  0  0  0  0  2  0  0  0  0  0  0
  194.9760  175.5070  146.1750 C   0  0  0  0  0  2  0  0  0  0  0  0
  195.8380  174.5280  144.9210 S   0  0  0  0  0  0  0  0  0  0  0  0
  194.1980  176.5000  144.2610 N   0  0  0  0  0  2  0  0  0  0  0  0
  1  7  1  0  0  0  0
  2  3  2  0  0  0  0
  3 15  1  0  0  0  0
  3  8  1  0  0  0  0
  4 19  2  0  0  0  0
  5 18  1  0  0  0  0
  6 10  1  0  0  0  0
  7  5  2  0  0  0  0
  8 21  2  0  0  0  0
  9 20  1  0  0  0  0
 10 16  2  0  0  0  0
 11  9  2  0  0  0  0
 11 10  1  0  0  0  0
 12 22  2  0  0  0  0
 13 21  1  0  0  0  0
 13 29  1  0  0  0  0
 14 11  1  0  0  0  0
 15 13  2  0  0  0  0
 16 24  1  0  0  0  0
 18 17  1  1  0  0  0
 20  1  1  0  0  0  0
 20 24  2  0  0  0  0
 21  6  1  0  0  0  0
 22  8  1  0  0  0  0
 22 14  1  0  0  0  0
 23 18  1  0  0  0  0
 23  4  2  0  0  0  0
 24 23  1  0  0  0  0
 25 19  1  0  0  0  0
 26 25  1  0  0  0  0
 28 27  1  0  0  0  0
 28 26  1  0  0  0  0
 30 29  1  0  0  0  0
 30 31  1  0  0  0  0
 32 31  1  0  0  0  0
 33 32  1  6  0  0  0
 33 37  1  0  0  0  0
 33 36  1  0  0  0  0
 34 35  1  0  0  0  0
 36 35  1  0  0  0  0
 37 34  1  0  0  0  0
M  END
>  <MODEL>
3

>  <REMARK>
 VINA RESULT:      -7.1      2.244      5.296
  Name = 
  8 active torsions:
  status: ('A' for Active; 'I' for Inactive)
    1  A    between atoms: C_5  and  C_30
    2  A    between atoms: C_8  and  C_16
    3  A    between atoms: C_8  and  C_29
    4  A    between atoms: N_11  and  C_30
    5  A    between atoms: N_11  and  N_34
    6  A    between atoms: C_16  and  O_33
    7  A    between atoms: C_20  and  C_22
    8  A    between atoms: C_20  and  N_34
                            x       y       z     vdW  Elec       q    Type
                         _______ _______ _______ _____ _____    ______ ____

>  <TORSDO>
F 8

$$$$
=
 OpenBabel11042418233D

 37 41  0  0  1  0  0  0  0  0999 V2000
  187.1000  177.8070  147.2410 C   0  0  0  0  0  2  0  0  0  0  0  0
  195.6650  175.2250  145.7370 O   0  0  0  0  0  0  0  0  0  0  0  0
  194.8620  175.5620  144.8260 C   0  0  0  0  0  0  0  0  0  0  0  0
  186.6660  178.2720  142.8680 C   0  0  0  0  0  0  0  0  0  0  0  0
  185.0820  177.4490  145.8830 C   0  0  0  0  0  3  0  0  0  0  0  0
  191.5430  176.7480  143.3700 S   0  0  0  0  0  0  0  0  0  0  0  0
  185.8290  177.0810  146.9260 C   0  0  0  0  0  3  0  0  0  0  0  0
  193.5350  175.9520  145.0240 C   0  0  0  0  0  0  0  0  0  0  0  0
  189.3930  177.0940  146.7190 C   0  0  0  0  0  3  0  0  0  0  0  0
  190.3350  177.0210  144.5080 C   0  0  0  0  0  0  0  0  0  0  0  0
  190.4890  176.8280  145.8930 C   0  0  0  0  0  0  0  0  0  0  0  0
  193.5810  175.7120  147.2930 O   0  0  0  0  0  0  0  0  0  0  0  0
  194.1010  175.9820  142.9020 C   0  0  0  0  0  0  0  0  0  0  0  0
  191.6130  176.4070  146.5340 N   0  0  0  0  0  2  0  0  0  0  0  0
  195.2180  175.5830  143.5290 N   0  0  0  0  0  0  0  0  0  0  0  0
  189.1120  177.4680  144.0020 C   0  0  0  0  0  3  0  0  0  0  0  0
  184.3170  179.0780  144.2010 C   0  0  0  0  0  1  0  0  0  0  0  0
  185.5130  178.5840  145.0070 C   0  0  2  0  0  3  0  0  0  0  0  0
  186.6070  178.3390  141.5680 C   0  0  0  0  0  3  0  0  0  0  0  0
  188.1660  177.5350  146.2210 C   0  0  0  0  0  0  0  0  0  0  0  0
  193.0800  176.2150  143.8060 C   0  0  0  0  0  0  0  0  0  0  0  0
  192.8980  176.0270  146.2830 C   0  0  0  0  0  0  0  0  0  0  0  0
  186.7290  178.2000  144.1810 C   0  0  0  0  0  0  0  0  0  0  0  0
  188.0080  177.7400  144.8250 C   0  0  0  0  0  0  0  0  0  0  0  0
  186.5370  177.0910  140.7640 C   0  0  0  0  0  2  0  0  0  0  0  0
  187.7730  176.2550  141.0240 C   0  0  0  0  0  2  0  0  0  0  0  0
  188.4640  174.2510  141.6330 C   0  0  0  0  0  1  0  0  0  0  0  0
  187.4440  175.1770  141.8450 O   0  0  0  0  0  0  0  0  0  0  0  0
  194.0300  176.1960  141.4280 C   0  0  0  0  0  2  0  0  0  0  0  0
  195.3080  176.6850  140.9420 N   0  0  0  0  0  2  0  0  0  0  0  0
  195.8910  175.6380  140.2180 N   0  0  0  0  0  2  0  0  0  0  0  0
  194.8890  175.1770  139.2720 C   0  0  0  0  0  2  0  0  0  0  0  0
  195.5590  174.7560  137.9780 C   0  0  2  0  0  3  0  0  0  0  0  0
  195.8730  175.3930  135.8020 N   0  0  0  0  0  2  0  0  0  0  0  0
  197.1420  175.8500  136.3430 C   0  0  0  0  0  2  0  0  0  0  0  0
  197.3080  175.2080  138.0270 S   0  0  0  0  0  0  0  0  0  0  0  0
  194.9450  175.4410  136.8530 N   0  0  0  0  0  2  0  0  0  0  0  0
  3  8  1  0  0  0  0
  3  2  2  0  0  0  0
  4 23  2  0  0  0  0
  5  7  2  0  0  0  0
  6 21  1  0  0  0  0
  6 10  1  0  0  0  0
  7  1  1  0  0  0  0
  8 22  1  0  0  0  0
 10 11  1  0  0  0  0
 11 14  1  0  0  0  0
 11  9  2  0  0  0  0
 13 15  2  0  0  0  0
 13 21  1  0  0  0  0
 15  3  1  0  0  0  0
 16 10  2  0  0  0  0
 16 24  1  0  0  0  0
 18 17  1  6  0  0  0
 18  5  1  0  0  0  0
 19  4  2  0  0  0  0
 20  9  1  0  0  0  0
 20  1  1  0  0  0  0
 21  8  2  0  0  0  0
 22 14  1  0  0  0  0
 22 12  2  0  0  0  0
 23 24  1  0  0  0  0
 23 18  1  0  0  0  0
 24 20  2  0  0  0  0
 25 26  1  0  0  0  0
 25 19  1  0  0  0  0
 26 28  1  0  0  0  0
 27 28  1  0  0  0  0
 29 13  1  0  0  0  0
 30 29  1  0  0  0  0
 31 30  1  0  0  0  0
 32 31  1  0  0  0  0
 33 36  1  0  0  0  0
 33 32  1  1  0  0  0
 34 35  1  0  0  0  0
 34 37  1  0  0  0  0
 35 36  1  0  0  0  0
 37 33  1  0  0  0  0
M  END
>  <MODEL>
4

>  <REMARK>
 VINA RESULT:      -7.1      2.174      3.175
  Name = 
  8 active torsions:
  status: ('A' for Active; 'I' for Inactive)
    1  A    between atoms: C_5  and  C_30
    2  A    between atoms: C_8  and  C_16
    3  A    between atoms: C_8  and  C_29
    4  A    between atoms: N_11  and  C_30
    5  A    between atoms: N_11  and  N_34
    6  A    between atoms: C_16  and  O_33
    7  A    between atoms: C_20  and  C_22
    8  A    between atoms: C_20  and  N_34
                            x       y       z     vdW  Elec       q    Type
                         _______ _______ _______ _____ _____    ______ ____

>  <TORSDO>
F 8

$$$$
=
 OpenBabel11042418233D

 37 41  0  0  1  0  0  0  0  0999 V2000
  190.1690  175.3870  147.3270 C   0  0  0  0  0  2  0  0  0  0  0  0
  183.3710  178.4640  142.1680 O   0  0  0  0  0  0  0  0  0  0  0  0
  184.4800  178.0780  141.7120 C   0  0  0  0  0  0  0  0  0  0  0  0
  192.5140  174.8850  143.6160 C   0  0  0  0  0  0  0  0  0  0  0  0
  192.5990  175.6220  147.0400 C   0  0  0  0  0  3  0  0  0  0  0  0
  188.0300  176.6950  141.8900 S   0  0  0  0  0  0  0  0  0  0  0  0
  191.4810  176.0360  147.6400 C   0  0  0  0  0  3  0  0  0  0  0  0
  185.5500  177.6110  142.4810 C   0  0  0  0  0  0  0  0  0  0  0  0
  188.4040  176.2320  145.8400 C   0  0  0  0  0  3  0  0  0  0  0  0
  188.5740  176.3540  143.4450 C   0  0  0  0  0  0  0  0  0  0  0  0
  187.8180  176.5600  144.6140 C   0  0  0  0  0  0  0  0  0  0  0  0
  184.4920  177.8590  144.4880 O   0  0  0  0  0  0  0  0  0  0  0  0
  186.0080  177.6090  140.3320 C   0  0  0  0  0  0  0  0  0  0  0  0
  186.5500  177.0480  144.6860 N   0  0  0  0  0  2  0  0  0  0  0  0
  184.7510  178.0740  140.3950 N   0  0  0  0  0  0  0  0  0  0  0  0
  189.8670  175.8350  143.5370 C   0  0  0  0  0  3  0  0  0  0  0  0
  193.9560  173.9460  145.8490 C   0  0  0  0  0  1  0  0  0  0  0  0
  192.5530  174.5120  146.0370 C   0  0  2  0  0  3  0  0  0  0  0  0
  193.1530  174.8110  142.4820 C   0  0  0  0  0  3  0  0  0  0  0  0
  189.6980  175.7180  145.9420 C   0  0  0  0  0  0  0  0  0  0  0  0
  186.4940  177.3180  141.5950 C   0  0  0  0  0  0  0  0  0  0  0  0
  185.5420  177.5020  143.8890 C   0  0  0  0  0  0  0  0  0  0  0  0
  191.8670  174.9640  144.7590 C   0  0  0  0  0  0  0  0  0  0  0  0
  190.4610  175.5000  144.7640 C   0  0  0  0  0  0  0  0  0  0  0  0
  193.6470  176.0510  141.8280 C   0  0  0  0  0  2  0  0  0  0  0  0
  195.1490  175.9660  141.6560 C   0  0  0  0  0  2  0  0  0  0  0  0
  196.5130  176.6510  143.2480 C   0  0  0  0  0  1  0  0  0  0  0  0
  195.7350  175.5630  142.8560 O   0  0  0  0  0  0  0  0  0  0  0  0
  186.7290  177.3870  139.0450 C   0  0  0  0  0  2  0  0  0  0  0  0
  186.0220  176.3960  138.2530 N   0  0  0  0  0  2  0  0  0  0  0  0
  186.9860  175.7370  137.4810 N   0  0  0  0  0  2  0  0  0  0  0  0
  187.7930  174.9520  138.4000 C   0  0  0  0  0  2  0  0  0  0  0  0
  188.6070  173.9330  137.6270 C   0  0  2  0  0  3  0  0  0  0  0  0
  190.1670  173.7370  135.9610 N   0  0  0  0  0  2  0  0  0  0  0  0
  191.0590  173.6260  137.1040 C   0  0  0  0  0  2  0  0  0  0  0  0
  190.0530  173.4510  138.5980 S   0  0  0  0  0  0  0  0  0  0  0  0
  189.0730  174.5110  136.3780 N   0  0  0  0  0  2  0  0  0  0  0  0
  1  7  1  0  0  0  0
  3  2  2  0  0  0  0
  3  8  1  0  0  0  0
  4 23  2  0  0  0  0
  5  7  2  0  0  0  0
  6 10  1  0  0  0  0
  8 22  1  0  0  0  0
  9 20  1  0  0  0  0
 10 16  2  0  0  0  0
 10 11  1  0  0  0  0
 11 14  1  0  0  0  0
 11  9  2  0  0  0  0
 13 15  2  0  0  0  0
 13 21  1  0  0  0  0
 15  3  1  0  0  0  0
 16 24  1  0  0  0  0
 18 17  1  6  0  0  0
 18  5  1  0  0  0  0
 19  4  2  0  0  0  0
 20  1  1  0  0  0  0
 21  6  1  0  0  0  0
 21  8  2  0  0  0  0
 22 12  2  0  0  0  0
 22 14  1  0  0  0  0
 23 24  1  0  0  0  0
 23 18  1  0  0  0  0
 24 20  2  0  0  0  0
 25 19  1  0  0  0  0
 26 25  1  0  0  0  0
 26 28  1  0  0  0  0
 28 27  1  0  0  0  0
 29 13  1  0  0  0  0
 30 29  1  0  0  0  0
 31 30  1  0  0  0  0
 31 32  1  0  0  0  0
 33 32  1  1  0  0  0
 33 36  1  0  0  0  0
 34 37  1  0  0  0  0
 34 35  1  0  0  0  0
 35 36  1  0  0  0  0
 37 33  1  0  0  0  0
M  END
>  <MODEL>
5

>  <REMARK>
 VINA RESULT:      -6.7      3.624      7.418
  Name = 
  8 active torsions:
  status: ('A' for Active; 'I' for Inactive)
    1  A    between atoms: C_5  and  C_30
    2  A    between atoms: C_8  and  C_16
    3  A    between atoms: C_8  and  C_29
    4  A    between atoms: N_11  and  C_30
    5  A    between atoms: N_11  and  N_34
    6  A    between atoms: C_16  and  O_33
    7  A    between atoms: C_20  and  C_22
    8  A    between atoms: C_20  and  N_34
                            x       y       z     vdW  Elec       q    Type
                         _______ _______ _______ _____ _____    ______ ____

>  <TORSDO>
F 8

$$$$
=
 OpenBabel11042418233D

 37 41  0  0  1  0  0  0  0  0999 V2000
  187.5610  177.0000  146.5350 C   0  0  0  0  0  2  0  0  0  0  0  0
  192.6920  170.8780  142.2330 O   0  0  0  0  0  0  0  0  0  0  0  0
  191.9420  171.7040  141.6470 C   0  0  0  0  0  0  0  0  0  0  0  0
  186.1300  178.3180  142.5680 C   0  0  0  0  0  0  0  0  0  0  0  0
  185.3440  177.8880  145.9550 C   0  0  0  0  0  3  0  0  0  0  0  0
  189.4340  174.5660  141.3950 S   0  0  0  0  0  0  0  0  0  0  0  0
  186.0730  177.0410  146.6850 C   0  0  0  0  0  3  0  0  0  0  0  0
  191.1320  172.6500  142.2810 C   0  0  0  0  0  0  0  0  0  0  0  0
  188.8880  175.3620  145.2720 C   0  0  0  0  0  3  0  0  0  0  0  0
  188.9430  175.2020  142.8730 C   0  0  0  0  0  0  0  0  0  0  0  0
  189.3870  174.7360  144.1250 C   0  0  0  0  0  0  0  0  0  0  0  0
  191.7310  172.0540  144.4010 O   0  0  0  0  0  0  0  0  0  0  0  0
  190.9630  172.7450  140.0920 C   0  0  0  0  0  0  0  0  0  0  0  0
  190.2710  173.7270  144.3490 N   0  0  0  0  0  2  0  0  0  0  0  0
  191.8480  171.7610  140.3070 N   0  0  0  0  0  0  0  0  0  0  0  0
  188.0330  176.2590  142.8090 C   0  0  0  0  0  3  0  0  0  0  0  0
  185.0510  179.9310  144.6110 C   0  0  0  0  0  1  0  0  0  0  0  0
  186.0050  178.7970  144.9670 C   0  0  2  0  0  3  0  0  0  0  0  0
  185.7250  178.6140  141.3650 C   0  0  0  0  0  3  0  0  0  0  0  0
  187.9740  176.4160  145.2170 C   0  0  0  0  0  0  0  0  0  0  0  0
  190.5310  173.2940  141.2870 C   0  0  0  0  0  0  0  0  0  0  0  0
  191.0360  172.8190  143.6800 C   0  0  0  0  0  0  0  0  0  0  0  0
  186.5400  178.0130  143.7810 C   0  0  0  0  0  0  0  0  0  0  0  0
  187.5300  176.8940  143.9550 C   0  0  0  0  0  0  0  0  0  0  0  0
  184.7900  177.7050  140.6530 C   0  0  0  0  0  2  0  0  0  0  0  0
  183.4390  178.3770  140.5160 C   0  0  0  0  0  2  0  0  0  0  0  0
  181.3850  178.3000  141.3140 C   0  0  0  0  0  1  0  0  0  0  0  0
  182.7220  178.2290  141.7030 O   0  0  0  0  0  0  0  0  0  0  0  0
  190.5700  173.2030  138.7280 C   0  0  0  0  0  2  0  0  0  0  0  0
  189.3890  172.4800  138.2900 N   0  0  0  0  0  2  0  0  0  0  0  0
  188.8070  173.2410  137.2700 N   0  0  0  0  0  2  0  0  0  0  0  0
  189.8230  174.1730  136.8130 C   0  0  0  0  0  2  0  0  0  0  0  0
  189.3970  174.7940  135.4970 C   0  0  2  0  0  3  0  0  0  0  0  0
  188.1390  176.4890  134.6090 N   0  0  0  0  0  2  0  0  0  0  0  0
  189.4460  177.1200  134.5150 C   0  0  0  0  0  2  0  0  0  0  0  0
  190.7080  175.8760  134.8840 S   0  0  0  0  0  0  0  0  0  0  0  0
  188.2000  175.5950  135.6890 N   0  0  0  0  0  2  0  0  0  0  0  0
  1  7  1  0  0  0  0
  3  2  2  0  0  0  0
  3  8  1  0  0  0  0
  4 23  2  0  0  0  0
  5  7  2  0  0  0  0
  6 10  1  0  0  0  0
  8 22  1  0  0  0  0
 10 11  1  0  0  0  0
 11 14  1  0  0  0  0
 11  9  2  0  0  0  0
 13 15  2  0  0  0  0
 13 21  1  0  0  0  0
 15  3  1  0  0  0  0
 16 10  2  0  0  0  0
 16 24  1  0  0  0  0
 18 17  1  6  0  0  0
 18  5  1  0  0  0  0
 19  4  2  0  0  0  0
 20  9  1  0  0  0  0
 20  1  1  0  0  0  0
 21  6  1  0  0  0  0
 21  8  2  0  0  0  0
 22 14  1  0  0  0  0
 22 12  2  0  0  0  0
 23 24  1  0  0  0  0
 23 18  1  0  0  0  0
 24 20  2  0  0  0  0
 25 19  1  0  0  0  0
 26 25  1  0  0  0  0
 26 28  1  0  0  0  0
 27 28  1  0  0  0  0
 29 13  1  0  0  0  0
 30 29  1  0  0  0  0
 31 30  1  0  0  0  0
 32 31  1  0  0  0  0
 33 37  1  0  0  0  0
 33 32  1  1  0  0  0
 34 37  1  0  0  0  0
 35 34  1  0  0  0  0
 35 36  1  0  0  0  0
 36 33  1  0  0  0  0
M  END
>  <MODEL>
6

>  <REMARK>
 VINA RESULT:      -6.4      3.838      5.279
  Name = 
  8 active torsions:
  status: ('A' for Active; 'I' for Inactive)
    1  A    between atoms: C_5  and  C_30
    2  A    between atoms: C_8  and  C_16
    3  A    between atoms: C_8  and  C_29
    4  A    between atoms: N_11  and  C_30
    5  A    between atoms: N_11  and  N_34
    6  A    between atoms: C_16  and  O_33
    7  A    between atoms: C_20  and  C_22
    8  A    between atoms: C_20  and  N_34
                            x       y       z     vdW  Elec       q    Type
                         _______ _______ _______ _____ _____    ______ ____

>  <TORSDO>
F 8

$$$$
=
 OpenBabel11042418233D

 37 41  0  0  1  0  0  0  0  0999 V2000
  188.6360  177.6150  147.0230 C   0  0  0  0  0  2  0  0  0  0  0  0
  196.9460  174.7550  144.7710 O   0  0  0  0  0  0  0  0  0  0  0  0
  196.0430  175.0220  143.9330 C   0  0  0  0  0  0  0  0  0  0  0  0
  187.6890  177.6840  142.7080 C   0  0  0  0  0  0  0  0  0  0  0  0
  186.4690  177.1690  145.9520 C   0  0  0  0  0  3  0  0  0  0  0  0
  192.5820  176.1270  142.7730 S   0  0  0  0  0  0  0  0  0  0  0  0
  187.3320  176.8860  146.9290 C   0  0  0  0  0  3  0  0  0  0  0  0
  194.7510  175.4520  144.2490 C   0  0  0  0  0  0  0  0  0  0  0  0
  190.8460  176.8170  146.3050 C   0  0  0  0  0  3  0  0  0  0  0  0
  191.5190  176.5250  144.0150 C   0  0  0  0  0  0  0  0  0  0  0  0
  191.8350  176.4570  145.3840 C   0  0  0  0  0  0  0  0  0  0  0  0
  195.0640  175.4200  146.5090 O   0  0  0  0  0  0  0  0  0  0  0  0
  195.0610  175.2770  142.0810 C   0  0  0  0  0  0  0  0  0  0  0  0
  193.0250  176.0770  145.9250 N   0  0  0  0  0  2  0  0  0  0  0  0
  196.2420  174.9180  142.6070 N   0  0  0  0  0  0  0  0  0  0  0  0
  190.2480  176.9450  143.6170 C   0  0  0  0  0  3  0  0  0  0  0  0
  185.5200  178.6500  144.2270 C   0  0  0  0  0  1  0  0  0  0  0  0
  186.8000  178.2110  144.9290 C   0  0  2  0  0  3  0  0  0  0  0  0
  187.4770  177.6330  141.4230 C   0  0  0  0  0  3  0  0  0  0  0  0
  189.5720  177.2320  145.9160 C   0  0  0  0  0  0  0  0  0  0  0  0
  194.1560  175.6100  143.0730 C   0  0  0  0  0  0  0  0  0  0  0  0
  194.2680  175.6530  145.5610 C   0  0  0  0  0  0  0  0  0  0  0  0
  187.9070  177.7320  144.0050 C   0  0  0  0  0  0  0  0  0  0  0  0
  189.2500  177.3110  144.5340 C   0  0  0  0  0  0  0  0  0  0  0  0
  187.3040  176.3170  140.7530 C   0  0  0  0  0  2  0  0  0  0  0  0
  188.4230  175.3870  141.1740 C   0  0  0  0  0  2  0  0  0  0  0  0
  188.8840  173.3590  141.9090 C   0  0  0  0  0  1  0  0  0  0  0  0
  187.9010  174.3480  141.9440 O   0  0  0  0  0  0  0  0  0  0  0  0
  194.8170  175.3560  140.6120 C   0  0  0  0  0  2  0  0  0  0  0  0
  196.0730  175.5840  139.9180 N   0  0  0  0  0  2  0  0  0  0  0  0
  195.8890  175.1500  138.6010 N   0  0  0  0  0  2  0  0  0  0  0  0
  196.4200  173.7990  138.5280 C   0  0  0  0  0  2  0  0  0  0  0  0
  196.2290  173.2460  137.1300 C   0  0  2  0  0  3  0  0  0  0  0  0
  197.3640  172.3130  135.3730 N   0  0  0  0  0  2  0  0  0  0  0  0
  196.8350  171.0920  135.9580 C   0  0  0  0  0  2  0  0  0  0  0  0
  195.6270  171.5450  137.2270 S   0  0  0  0  0  0  0  0  0  0  0  0
  197.4970  173.2380  136.4200 N   0  0  0  0  0  2  0  0  0  0  0  0
  3  8  1  0  0  0  0
  3  2  2  0  0  0  0
  4 23  2  0  0  0  0
  5  7  2  0  0  0  0
  6 21  1  0  0  0  0
  6 10  1  0  0  0  0
  7  1  1  0  0  0  0
  8 22  1  0  0  0  0
 10 11  1  0  0  0  0
 11 14  1  0  0  0  0
 11  9  2  0  0  0  0
 13 15  2  0  0  0  0
 13 21  1  0  0  0  0
 15  3  1  0  0  0  0
 16 10  2  0  0  0  0
 16 24  1  0  0  0  0
 18 17  1  6  0  0  0
 18  5  1  0  0  0  0
 19  4  2  0  0  0  0
 20  9  1  0  0  0  0
 20  1  1  0  0  0  0
 21  8  2  0  0  0  0
 22 14  1  0  0  0  0
 22 12  2  0  0  0  0
 23 24  1  0  0  0  0
 23 18  1  0  0  0  0
 24 20  2  0  0  0  0
 25 26  1  0  0  0  0
 25 19  1  0  0  0  0
 26 28  1  0  0  0  0
 27 28  1  0  0  0  0
 29 13  1  0  0  0  0
 30 29  1  0  0  0  0
 31 30  1  0  0  0  0
 32 31  1  0  0  0  0
 33 36  1  0  0  0  0
 33 32  1  1  0  0  0
 34 35  1  0  0  0  0
 34 37  1  0  0  0  0
 35 36  1  0  0  0  0
 37 33  1  0  0  0  0
M  END
>  <MODEL>
7

>  <REMARK>
 VINA RESULT:      -6.2      2.657      3.504
  Name = 
  8 active torsions:
  status: ('A' for Active; 'I' for Inactive)
    1  A    between atoms: C_5  and  C_30
    2  A    between atoms: C_8  and  C_16
    3  A    between atoms: C_8  and  C_29
    4  A    between atoms: N_11  and  C_30
    5  A    between atoms: N_11  and  N_34
    6  A    between atoms: C_16  and  O_33
    7  A    between atoms: C_20  and  C_22
    8  A    between atoms: C_20  and  N_34
                            x       y       z     vdW  Elec       q    Type
                         _______ _______ _______ _____ _____    ______ ____

>  <TORSDO>
F 8

$$$$
=
 OpenBabel11042418233D

 37 41  0  0  1  0  0  0  0  0999 V2000
  185.1120  178.3430  143.0410 C   0  0  0  0  0  2  0  0  0  0  0  0
  189.6930  172.8160  137.4940 O   0  0  0  0  0  0  0  0  0  0  0  0
  189.9410  172.9410  138.7240 C   0  0  0  0  0  0  0  0  0  0  0  0
  187.7900  177.0020  146.2900 C   0  0  0  0  0  0  0  0  0  0  0  0
  185.8960  179.6400  144.9770 C   0  0  0  0  0  3  0  0  0  0  0  0
  189.4770  174.3220  142.2490 S   0  0  0  0  0  0  0  0  0  0  0  0
  185.5640  179.6160  143.6840 C   0  0  0  0  0  3  0  0  0  0  0  0
  189.2620  173.7920  139.6000 C   0  0  0  0  0  0  0  0  0  0  0  0
  186.4370  176.8370  141.6210 C   0  0  0  0  0  3  0  0  0  0  0  0
  188.2400  175.4510  142.4030 C   0  0  0  0  0  0  0  0  0  0  0  0
  187.4260  175.8890  141.3420 C   0  0  0  0  0  0  0  0  0  0  0  0
  187.8350  174.6240  138.0260 O   0  0  0  0  0  0  0  0  0  0  0  0
  190.8550  172.6620  140.6060 C   0  0  0  0  0  0  0  0  0  0  0  0
  187.4920  175.4800  140.0460 N   0  0  0  0  0  2  0  0  0  0  0  0
  190.9140  172.2420  139.3340 N   0  0  0  0  0  0  0  0  0  0  0  0
  188.0410  175.9640  143.6870 C   0  0  0  0  0  3  0  0  0  0  0  0
  185.8180  178.7580  147.2750 C   0  0  0  0  0  1  0  0  0  0  0  0
  185.8320  178.3890  145.7960 C   0  0  2  0  0  3  0  0  0  0  0  0
  188.6490  176.5890  147.1800 C   0  0  0  0  0  3  0  0  0  0  0  0
  186.2350  177.3590  142.9000 C   0  0  0  0  0  0  0  0  0  0  0  0
  189.8490  173.5970  140.7750 C   0  0  0  0  0  0  0  0  0  0  0  0
  188.1920  174.6390  139.2340 C   0  0  0  0  0  0  0  0  0  0  0  0
  186.9260  177.4170  145.3880 C   0  0  0  0  0  0  0  0  0  0  0  0
  187.0480  176.9130  143.9760 C   0  0  0  0  0  0  0  0  0  0  0  0
  190.0480  177.0900  147.1450 C   0  0  0  0  0  2  0  0  0  0  0  0
  190.6620  176.7770  145.7960 C   0  0  0  0  0  2  0  0  0  0  0  0
  192.0350  175.8510  147.2520 C   0  0  0  0  0  1  0  0  0  0  0  0
  191.9900  176.3890  145.9670 O   0  0  0  0  0  0  0  0  0  0  0  0
  191.7350  172.1200  141.6820 C   0  0  0  0  0  2  0  0  0  0  0  0
  191.0170  171.1100  142.4390 N   0  0  0  0  0  2  0  0  0  0  0  0
  191.7980  170.8190  143.5630 N   0  0  0  0  0  2  0  0  0  0  0  0
  192.7300  169.7780  143.1660 C   0  0  0  0  0  2  0  0  0  0  0  0
  194.0680  169.9990  143.8450 C   0  0  2  0  0  3  0  0  0  0  0  0
  195.0810  171.1780  145.5260 N   0  0  0  0  0  2  0  0  0  0  0  0
  194.9010  169.9170  146.2270 C   0  0  0  0  0  2  0  0  0  0  0  0
  194.3730  168.6680  145.0290 S   0  0  0  0  0  0  0  0  0  0  0  0
  194.0560  171.2580  144.5700 N   0  0  0  0  0  2  0  0  0  0  0  0
  1  7  1  0  0  0  0
  2  3  2  0  0  0  0
  3 15  1  0  0  0  0
  3  8  1  0  0  0  0
  4 19  2  0  0  0  0
  5 18  1  0  0  0  0
  6 10  1  0  0  0  0
  7  5  2  0  0  0  0
  8 21  2  0  0  0  0
  9 20  1  0  0  0  0
 10 16  2  0  0  0  0
 11  9  2  0  0  0  0
 11 10  1  0  0  0  0
 12 22  2  0  0  0  0
 13 21  1  0  0  0  0
 13 29  1  0  0  0  0
 14 11  1  0  0  0  0
 15 13  2  0  0  0  0
 16 24  1  0  0  0  0
 18 17  1  1  0  0  0
 20  1  1  0  0  0  0
 20 24  2  0  0  0  0
 21  6  1  0  0  0  0
 22  8  1  0  0  0  0
 22 14  1  0  0  0  0
 23 18  1  0  0  0  0
 23  4  2  0  0  0  0
 24 23  1  0  0  0  0
 25 19  1  0  0  0  0
 26 28  1  0  0  0  0
 26 25  1  0  0  0  0
 28 27  1  0  0  0  0
 29 30  1  0  0  0  0
 30 31  1  0  0  0  0
 32 31  1  0  0  0  0
 33 32  1  1  0  0  0
 33 37  1  0  0  0  0
 33 36  1  0  0  0  0
 34 35  1  0  0  0  0
 36 35  1  0  0  0  0
 37 34  1  0  0  0  0
M  END
>  <MODEL>
8

>  <REMARK>
 VINA RESULT:      -6.2      2.650      5.558
  Name = 
  8 active torsions:
  status: ('A' for Active; 'I' for Inactive)
    1  A    between atoms: C_5  and  C_30
    2  A    between atoms: C_8  and  C_16
    3  A    between atoms: C_8  and  C_29
    4  A    between atoms: N_11  and  C_30
    5  A    between atoms: N_11  and  N_34
    6  A    between atoms: C_16  and  O_33
    7  A    between atoms: C_20  and  C_22
    8  A    between atoms: C_20  and  N_34
                            x       y       z     vdW  Elec       q    Type
                         _______ _______ _______ _____ _____    ______ ____

>  <TORSDO>
F 8

$$$$
=
 OpenBabel11042418233D

 37 41  0  0  1  0  0  0  0  0999 V2000
  187.3550  177.7530  147.1880 C   0  0  0  0  0  2  0  0  0  0  0  0
  195.2430  173.7230  145.2270 O   0  0  0  0  0  0  0  0  0  0  0  0
  194.4480  174.1740  144.3580 C   0  0  0  0  0  0  0  0  0  0  0  0
  186.7100  178.1970  142.8390 C   0  0  0  0  0  0  0  0  0  0  0  0
  185.2180  177.7160  145.9730 C   0  0  0  0  0  3  0  0  0  0  0  0
  191.2840  175.8770  143.0780 S   0  0  0  0  0  0  0  0  0  0  0  0
  185.9620  177.2480  146.9770 C   0  0  0  0  0  3  0  0  0  0  0  0
  193.2220  174.7880  144.6280 C   0  0  0  0  0  0  0  0  0  0  0  0
  189.4550  176.6510  146.5450 C   0  0  0  0  0  3  0  0  0  0  0  0
  190.2190  176.3740  144.2820 C   0  0  0  0  0  0  0  0  0  0  0  0
  190.4320  176.1860  145.6600 C   0  0  0  0  0  0  0  0  0  0  0  0
  193.3800  174.5890  146.8960 O   0  0  0  0  0  0  0  0  0  0  0  0
  193.6400  174.6780  142.4740 C   0  0  0  0  0  0  0  0  0  0  0  0
  191.5110  175.5930  146.2410 N   0  0  0  0  0  2  0  0  0  0  0  0
  194.7130  174.1080  143.0420 N   0  0  0  0  0  0  0  0  0  0  0  0
  189.0580  177.0110  143.8410 C   0  0  0  0  0  3  0  0  0  0  0  0
  184.6260  179.4160  144.2930 C   0  0  0  0  0  1  0  0  0  0  0  0
  185.7730  178.7430  145.0360 C   0  0  2  0  0  3  0  0  0  0  0  0
  186.5760  178.2460  141.5430 C   0  0  0  0  0  3  0  0  0  0  0  0
  188.2880  177.2840  146.1120 C   0  0  0  0  0  0  0  0  0  0  0  0
  192.7360  175.1000  143.4330 C   0  0  0  0  0  0  0  0  0  0  0  0
  192.6930  174.9950  145.9210 C   0  0  0  0  0  0  0  0  0  0  0  0
  186.8490  178.1420  144.1470 C   0  0  0  0  0  0  0  0  0  0  0  0
  188.0730  177.4840  144.7230 C   0  0  0  0  0  0  0  0  0  0  0  0
  186.2430  177.0120  140.7860 C   0  0  0  0  0  2  0  0  0  0  0  0
  186.5280  177.2310  139.3150 C   0  0  0  0  0  2  0  0  0  0  0  0
  186.6400  176.0370  137.4640 C   0  0  0  0  0  1  0  0  0  0  0  0
  187.1100  176.0850  138.7760 O   0  0  0  0  0  0  0  0  0  0  0  0
  193.5060  174.8710  141.0010 C   0  0  0  0  0  2  0  0  0  0  0  0
  193.7450  173.6120  140.3190 N   0  0  0  0  0  2  0  0  0  0  0  0
  193.0500  173.6740  139.1050 N   0  0  0  0  0  2  0  0  0  0  0  0
  191.7180  174.1660  139.4120 C   0  0  0  0  0  2  0  0  0  0  0  0
  190.7270  173.0190  139.3860 C   0  0  2  0  0  3  0  0  0  0  0  0
  188.8220  172.2380  140.3880 N   0  0  0  0  0  2  0  0  0  0  0  0
  188.2160  172.8260  139.2050 C   0  0  0  0  0  2  0  0  0  0  0  0
  189.5360  173.2770  138.0520 S   0  0  0  0  0  0  0  0  0  0  0  0
  189.9970  172.9620  140.6410 N   0  0  0  0  0  2  0  0  0  0  0  0
  3  8  1  0  0  0  0
  3  2  2  0  0  0  0
  4 23  2  0  0  0  0
  5  7  2  0  0  0  0
  6 21  1  0  0  0  0
  6 10  1  0  0  0  0
  7  1  1  0  0  0  0
  8 22  1  0  0  0  0
 10 11  1  0  0  0  0
 11 14  1  0  0  0  0
 11  9  2  0  0  0  0
 13 15  2  0  0  0  0
 13 21  1  0  0  0  0
 15  3  1  0  0  0  0
 16 10  2  0  0  0  0
 16 24  1  0  0  0  0
 18 17  1  6  0  0  0
 18  5  1  0  0  0  0
 19  4  2  0  0  0  0
 20  9  1  0  0  0  0
 20  1  1  0  0  0  0
 21  8  2  0  0  0  0
 22 14  1  0  0  0  0
 22 12  2  0  0  0  0
 23 24  1  0  0  0  0
 23 18  1  0  0  0  0
 24 20  2  0  0  0  0
 25 19  1  0  0  0  0
 26 25  1  0  0  0  0
 27 28  1  0  0  0  0
 28 26  1  0  0  0  0
 29 13  1  0  0  0  0
 30 29  1  0  0  0  0
 31 32  1  0  0  0  0
 31 30  1  0  0  0  0
 33 32  1  1  0  0  0
 33 37  1  0  0  0  0
 34 37  1  0  0  0  0
 35 34  1  0  0  0  0
 36 35  1  0  0  0  0
 36 33  1  0  0  0  0
M  END
>  <MODEL>
9

>  <REMARK>
 VINA RESULT:      -6.2      1.875      2.308
  Name = 
  8 active torsions:
  status: ('A' for Active; 'I' for Inactive)
    1  A    between atoms: C_5  and  C_30
    2  A    between atoms: C_8  and  C_16
    3  A    between atoms: C_8  and  C_29
    4  A    between atoms: N_11  and  C_30
    5  A    between atoms: N_11  and  N_34
    6  A    between atoms: C_16  and  O_33
    7  A    between atoms: C_20  and  C_22
    8  A    between atoms: C_20  and  N_34
                            x       y       z     vdW  Elec       q    Type
                         _______ _______ _______ _____ _____    ______ ____

>  <TORSDO>
F 8

$$$$
