=
 OpenBabel11042416323D

 54 58  0  0  1  0  0  0  0  0999 V2000
  189.5970  174.9890  142.3740 C   0  0  1  0  0  3  0  0  0  0  0  0
  188.7320  172.6440  139.6160 C   0  0  2  0  0  3  0  0  0  0  0  0
  189.2260  174.1060  139.7570 C   0  0  0  0  0  2  0  0  0  0  0  0
  188.7870  172.5200  141.1700 C   0  0  0  0  0  2  0  0  0  0  0  0
  189.2590  173.9330  141.2270 C   0  0  2  0  0  3  0  0  0  0  0  0
  189.6600  171.6670  138.8360 C   0  0  0  0  0  0  0  0  0  0  0  0
  190.9520  169.4220  137.6330 C   0  0  0  0  0  3  0  0  0  0  0  0
  190.2760  170.6270  139.5890 C   0  0  0  0  0  3  0  0  0  0  0  0
  190.9090  169.5300  139.0120 C   0  0  0  0  0  3  0  0  0  0  0  0
  189.7800  171.6010  137.4170 C   0  0  0  0  0  0  0  0  0  0  0  0
  190.3890  170.4530  136.8400 C   0  0  0  0  0  3  0  0  0  0  0  0
  189.3700  172.9380  136.2050 S   0  0  0  0  0  0  0  0  0  0  0  0
  191.1450  173.4480  136.0560 C   0  0  0  0  0  2  0  0  0  0  0  0
  192.0560  173.9050  137.2230 C   0  0  0  0  0  2  0  0  0  0  0  0
  193.2730  172.9510  137.5270 C   0  0  0  0  0  2  0  0  0  0  0  0
  194.0960  173.6380  139.1110 P   0  0  2  0  0  0  0  0  0  0  0  0
  194.1080  175.1240  139.4640 O   0  0  0  0  0  0  0  0  0  0  0  0
  196.8200  174.1900  139.8770 O   0  0  0  0  0  1  0  0  0  0  0  0
  196.1600  173.2590  138.5020 P   0  0  0  0  0  0  0  0  0  0  0  0
  196.6360  171.6370  139.0360 O   0  0  0  0  0  1  0  0  0  0  0  0
  192.9480  173.0860  140.3910 C   0  0  0  0  0  2  0  0  0  0  0  0
  193.5720  172.1410  141.3810 N   0  0  0  0  0  0  0  0  0  0  0  0
  193.7200  170.7820  144.0160 C   0  0  0  0  0  2  0  0  0  0  0  0
  195.9040  170.3500  142.9460 O   0  0  0  0  0  1  0  0  0  0  0  0
  192.4070  171.9350  142.2560 C   0  0  0  0  0  2  0  0  0  0  0  0
  194.6610  172.5050  142.3250 C   0  0  0  0  0  2  0  0  0  0  0  0
  192.5840  170.6050  143.0300 C   0  0  0  0  0  2  0  0  0  0  0  0
  194.9330  171.3710  143.3400 C   0  0  1  0  0  3  0  0  0  0  0  0
  191.0680  175.2230  142.5170 N   0  0  0  0  0  2  0  0  0  0  0  0
  191.5260  175.1160  143.7330 C   0  0  0  0  0  2  0  0  0  0  0  0
  193.4470  174.3260  145.2920 C   0  0  0  0  0  3  0  0  0  0  0  0
  193.8260  176.1070  143.7970 C   0  0  0  0  0  3  0  0  0  0  0  0
  195.1060  176.2840  144.1970 N   0  0  0  0  0  0  0  0  0  0  0  0
  195.5990  175.4320  145.1780 C   0  0  0  0  0  3  0  0  0  0  0  0
  194.8010  174.4730  145.7430 C   0  0  0  0  0  3  0  0  0  0  0  0
  192.9280  175.1530  144.2850 C   0  0  0  0  0  0  0  0  0  0  0  0
  188.8730  176.2190  142.1610 N   0  0  0  0  0  2  0  0  0  0  0  0
  187.4730  175.9640  142.4490 C   0  0  0  0  0  2  0  0  0  0  0  0
  186.6360  176.8670  141.4230 C   0  0  0  0  0  2  0  0  0  0  0  0
  186.2390  178.9230  142.8000 N   0  0  0  0  0  0  0  0  0  0  0  0
  186.8690  178.2820  141.8690 C   0  0  0  0  0  3  0  0  0  0  0  0
  185.1560  178.5820  143.7170 C   0  0  0  0  0  0  0  0  0  0  0  0
  184.1350  178.0520  143.2290 O   0  0  0  0  0  0  0  0  0  0  0  0
  185.3390  179.1150  145.4620 S   0  0  0  0  0  0  0  0  0  0  0  0
  187.6590  177.5440  145.5680 N   0  0  0  0  0  2  0  0  0  0  0  0
  186.1630  177.2810  147.4120 N   0  0  0  0  0  2  0  0  0  0  0  0
  186.4300  177.8340  146.2480 C   0  0  0  0  0  0  0  0  0  0  0  0
  189.7370  174.7040  146.9200 C   0  0  0  0  0  3  0  0  0  0  0  0
  188.7660  176.8360  146.1210 C   0  0  0  0  0  0  0  0  0  0  0  0
  191.0770  176.7800  147.1010 C   0  0  0  0  0  2  0  0  0  0  0  0
  190.6870  175.4630  147.7990 C   0  0  2  0  0  3  0  0  0  0  0  0
  189.8150  177.4980  146.5710 C   0  0  0  0  0  3  0  0  0  0  0  0
  188.7980  175.3510  146.1930 C   0  0  0  0  0  3  0  0  0  0  0  0
  191.7850  174.7100  148.0770 F   0  0  0  0  0  0  0  0  0  0  0  0
  1 37  1  6  0  0  0
  1 29  1  0  0  0  0
  2  6  1  6  0  0  0
  2  3  1  0  0  0  0
  2  4  1  0  0  0  0
  3  5  1  0  0  0  0
  4  5  1  0  0  0  0
  5  1  1  1  0  0  0
  6  8  1  0  0  0  0
  7  9  1  0  0  0  0
  9  8  2  0  0  0  0
 10  6  2  0  0  0  0
 11 10  1  0  0  0  0
 11  7  2  0  0  0  0
 12 10  1  0  0  0  0
 13 12  1  0  0  0  0
 13 14  1  0  0  0  0
 14 15  1  0  0  0  0
 15 16  1  0  0  0  0
 16 17  2  6  0  0  0
 16 21  1  0  0  0  0
 19 20  1  0  0  0  0
 19 16  1  0  0  0  0
 19 18  1  0  0  0  0
 21 22  1  0  0  0  0
 22 25  1  0  0  0  0
 22 26  1  0  0  0  0
 25 27  1  0  0  0  0
 26 28  1  0  0  0  0
 27 23  1  0  0  0  0
 28 24  1  6  0  0  0
 28 23  1  0  0  0  0
 29 30  1  0  0  0  0
 30 36  1  0  0  0  0
 31 35  1  0  0  0  0
 32 33  2  0  0  0  0
 32 36  1  0  0  0  0
 33 34  1  0  0  0  0
 34 35  2  0  0  0  0
 36 31  2  0  0  0  0
 37 38  1  0  0  0  0
 39 41  1  0  0  0  0
 39 38  1  0  0  0  0
 40 42  1  0  0  0  0
 41 40  2  0  0  0  0
 42 44  1  0  0  0  0
 43 42  2  0  0  0  0
 44 47  1  0  0  0  0
 45 49  1  0  0  0  0
 45 47  1  0  0  0  0
 47 46  2  0  0  0  0
 48 51  1  0  0  0  0
 49 53  1  0  0  0  0
 49 52  2  0  0  0  0
 50 51  1  0  0  0  0
 51 54  1  6  0  0  0
 52 50  1  0  0  0  0
 53 48  2  0  0  0  0
M  END
>  <MODEL>
1

>  <REMARK>
 VINA RESULT:      -6.0      0.000      0.000
  Name = 
  20 active torsions:
  status: ('A' for Active; 'I' for Inactive)
    1  A    between atoms: C_3  and  N_5
    2  A    between atoms: C_3  and  P_11
    3  A    between atoms: N_6  and  C_10
    4  A    between atoms: N_8  and  C_13
    5  A    between atoms: C_9  and  C_22
    6  A    between atoms: C_10  and  S_53
    7  A    between atoms: P_11  and  P_25
    8  A    between atoms: P_11  and  C_35
    9  A    between atoms: C_15  and  N_17
   10  A    between atoms: C_15  and  N_29
   11  A    between atoms: C_15  and  C_48
   12  A    between atoms: N_17  and  C_23
   13  A    between atoms: C_20  and  S_33
   14  A    between atoms: C_20  and  C_34
   15  A    between atoms: C_23  and  C_39
   16  A    between atoms: S_33  and  C_37
   17  A    between atoms: C_34  and  C_35
   18  A    between atoms: C_39  and  C_51
   19  A    between atoms: C_42  and  S_53
   20  A    between atoms: C_45  and  C_47
                            x       y       z     vdW  Elec       q    Type
                         _______ _______ _______ _____ _____    ______ ____

>  <TORSDO>
F 20

$$$$
=
 OpenBabel11042416323D

 54 58  0  0  1  0  0  0  0  0999 V2000
  189.7970  174.0320  141.0800 C   0  0  1  0  0  3  0  0  0  0  0  0
  191.4210  175.7740  143.9410 C   0  0  2  0  0  3  0  0  0  0  0  0
  190.5420  174.5170  143.7220 C   0  0  0  0  0  2  0  0  0  0  0  0
  191.3950  176.0100  142.3990 C   0  0  0  0  0  2  0  0  0  0  0  0
  190.5500  174.7880  142.2660 C   0  0  2  0  0  3  0  0  0  0  0  0
  192.8330  175.5380  144.5550 C   0  0  0  0  0  0  0  0  0  0  0  0
  195.1230  175.2680  146.2400 C   0  0  0  0  0  3  0  0  0  0  0  0
  193.4200  176.6320  145.2520 C   0  0  0  0  0  3  0  0  0  0  0  0
  194.5370  176.5100  146.0740 C   0  0  0  0  0  3  0  0  0  0  0  0
  193.4870  174.2760  144.6560 C   0  0  0  0  0  0  0  0  0  0  0  0
  194.5990  174.1560  145.5340 C   0  0  0  0  0  3  0  0  0  0  0  0
  193.1540  172.7690  143.6340 S   0  0  0  0  0  0  0  0  0  0  0  0
  194.1780  173.4080  142.2280 C   0  0  0  0  0  2  0  0  0  0  0  0
  193.7060  173.5550  140.7600 C   0  0  0  0  0  2  0  0  0  0  0  0
  194.1310  174.9010  140.0590 C   0  0  0  0  0  2  0  0  0  0  0  0
  194.9060  174.3990  138.3840 P   0  0  2  0  0  0  0  0  0  0  0  0
  196.1550  175.0670  137.8130 O   0  0  0  0  0  0  0  0  0  0  0  0
  193.9070  174.3250  135.6800 O   0  0  0  0  0  1  0  0  0  0  0  0
  193.3050  175.1890  137.1230 P   0  0  0  0  0  0  0  0  0  0  0  0
  191.8310  174.2420  137.3940 O   0  0  0  0  0  1  0  0  0  0  0  0
  195.6380  172.7980  138.7830 C   0  0  0  0  0  2  0  0  0  0  0  0
  195.4990  171.7890  137.6760 N   0  0  0  0  0  0  0  0  0  0  0  0
  194.1640  169.5110  136.3200 C   0  0  0  0  0  2  0  0  0  0  0  0
  196.3530  169.7330  135.1990 O   0  0  0  0  0  1  0  0  0  0  0  0
  194.0770  171.4540  137.8580 C   0  0  0  0  0  2  0  0  0  0  0  0
  196.1720  170.4650  137.6490 C   0  0  0  0  0  2  0  0  0  0  0  0
  193.5220  170.8660  136.5380 C   0  0  0  0  0  2  0  0  0  0  0  0
  195.6610  169.5920  136.4790 C   0  0  1  0  0  3  0  0  0  0  0  0
  190.2860  172.6300  140.8980 N   0  0  0  0  0  2  0  0  0  0  0  0
  189.9220  172.0620  139.7830 C   0  0  0  0  0  2  0  0  0  0  0  0
  190.0520  170.3440  137.8390 C   0  0  0  0  0  3  0  0  0  0  0  0
  190.8950  169.7600  139.9610 C   0  0  0  0  0  3  0  0  0  0  0  0
  191.2670  168.5200  139.5670 N   0  0  0  0  0  0  0  0  0  0  0  0
  191.0440  168.1700  138.2400 C   0  0  0  0  0  3  0  0  0  0  0  0
  190.4350  169.0410  137.3760 C   0  0  0  0  0  3  0  0  0  0  0  0
  190.2870  170.7360  139.1660 C   0  0  0  0  0  0  0  0  0  0  0  0
  188.3680  174.0850  141.2710 N   0  0  0  0  0  2  0  0  0  0  0  0
  187.9070  175.3820  140.8100 C   0  0  0  0  0  2  0  0  0  0  0  0
  187.2920  176.1180  142.0940 C   0  0  0  0  0  2  0  0  0  0  0  0
  186.7620  178.5640  142.2330 N   0  0  0  0  0  0  0  0  0  0  0  0
  187.5120  177.5830  141.8460 C   0  0  0  0  0  3  0  0  0  0  0  0
  185.5210  178.6560  142.9960 C   0  0  0  0  0  0  0  0  0  0  0  0
  184.4640  178.3220  142.4190 O   0  0  0  0  0  0  0  0  0  0  0  0
  185.6210  179.4080  144.6660 S   0  0  0  0  0  0  0  0  0  0  0  0
  187.7300  177.7180  145.4130 N   0  0  0  0  0  2  0  0  0  0  0  0
  185.7920  177.6110  146.8080 N   0  0  0  0  0  2  0  0  0  0  0  0
  186.3870  178.1010  145.7400 C   0  0  0  0  0  0  0  0  0  0  0  0
  190.6730  176.8780  147.6130 C   0  0  0  0  0  3  0  0  0  0  0  0
  188.6080  176.9720  146.2530 C   0  0  0  0  0  0  0  0  0  0  0  0
  189.3070  174.8280  147.3570 C   0  0  0  0  0  2  0  0  0  0  0  0
  190.7400  175.3930  147.4160 C   0  0  2  0  0  3  0  0  0  0  0  0
  188.4400  175.6710  146.3940 C   0  0  0  0  0  3  0  0  0  0  0  0
  189.7150  177.6170  147.0090 C   0  0  0  0  0  3  0  0  0  0  0  0
  191.4570  174.8110  148.4140 F   0  0  0  0  0  0  0  0  0  0  0  0
  1 29  1  1  0  0  0
  1 37  1  0  0  0  0
  2  6  1  6  0  0  0
  3  2  1  0  0  0  0
  4  2  1  0  0  0  0
  5  1  1  1  0  0  0
  5  4  1  0  0  0  0
  5  3  1  0  0  0  0
  6 10  2  0  0  0  0
  6  8  1  0  0  0  0
  8  9  2  0  0  0  0
  9  7  1  0  0  0  0
 10 11  1  0  0  0  0
 11  7  2  0  0  0  0
 12 10  1  0  0  0  0
 13 12  1  0  0  0  0
 14 13  1  0  0  0  0
 15 14  1  0  0  0  0
 16 17  2  6  0  0  0
 16 21  1  0  0  0  0
 16 15  1  0  0  0  0
 18 19  1  0  0  0  0
 19 20  1  0  0  0  0
 19 16  1  0  0  0  0
 22 25  1  0  0  0  0
 22 21  1  0  0  0  0
 23 28  1  0  0  0  0
 23 27  1  0  0  0  0
 26 22  1  0  0  0  0
 27 25  1  0  0  0  0
 28 24  1  6  0  0  0
 28 26  1  0  0  0  0
 30 29  1  0  0  0  0
 31 36  1  0  0  0  0
 33 32  1  0  0  0  0
 34 33  2  0  0  0  0
 35 31  2  0  0  0  0
 35 34  1  0  0  0  0
 36 30  1  0  0  0  0
 36 32  2  0  0  0  0
 38 37  1  0  0  0  0
 38 39  1  0  0  0  0
 40 42  1  0  0  0  0
 41 39  1  0  0  0  0
 41 40  2  0  0  0  0
 42 44  1  0  0  0  0
 43 42  2  0  0  0  0
 44 47  1  0  0  0  0
 45 47  1  0  0  0  0
 45 49  1  0  0  0  0
 47 46  2  0  0  0  0
 49 52  2  0  0  0  0
 49 53  1  0  0  0  0
 50 51  1  0  0  0  0
 51 48  1  0  0  0  0
 51 54  1  1  0  0  0
 52 50  1  0  0  0  0
 53 48  2  0  0  0  0
M  END
>  <MODEL>
2

>  <REMARK>
 VINA RESULT:      -5.9      2.399      5.718
  Name = 
  20 active torsions:
  status: ('A' for Active; 'I' for Inactive)
    1  A    between atoms: C_3  and  N_5
    2  A    between atoms: C_3  and  P_11
    3  A    between atoms: N_6  and  C_10
    4  A    between atoms: N_8  and  C_13
    5  A    between atoms: C_9  and  C_22
    6  A    between atoms: C_10  and  S_53
    7  A    between atoms: P_11  and  P_25
    8  A    between atoms: P_11  and  C_35
    9  A    between atoms: C_15  and  N_17
   10  A    between atoms: C_15  and  N_29
   11  A    between atoms: C_15  and  C_48
   12  A    between atoms: N_17  and  C_23
   13  A    between atoms: C_20  and  S_33
   14  A    between atoms: C_20  and  C_34
   15  A    between atoms: C_23  and  C_39
   16  A    between atoms: S_33  and  C_37
   17  A    between atoms: C_34  and  C_35
   18  A    between atoms: C_39  and  C_51
   19  A    between atoms: C_42  and  S_53
   20  A    between atoms: C_45  and  C_47
                            x       y       z     vdW  Elec       q    Type
                         _______ _______ _______ _____ _____    ______ ____

>  <TORSDO>
F 20

$$$$
=
 OpenBabel11042416323D

 54 58  0  0  1  0  0  0  0  0999 V2000
  189.6550  174.1070  141.1900 C   0  0  1  0  0  3  0  0  0  0  0  0
  191.4460  175.9340  143.8940 C   0  0  2  0  0  3  0  0  0  0  0  0
  190.4220  174.7750  143.7850 C   0  0  0  0  0  2  0  0  0  0  0  0
  191.4660  176.0080  142.3360 C   0  0  0  0  0  2  0  0  0  0  0  0
  190.4800  174.8890  142.3100 C   0  0  2  0  0  3  0  0  0  0  0  0
  192.8110  175.5970  144.5640 C   0  0  0  0  0  0  0  0  0  0  0  0
  195.0260  175.2200  146.3270 C   0  0  0  0  0  3  0  0  0  0  0  0
  193.5050  176.6750  145.1830 C   0  0  0  0  0  3  0  0  0  0  0  0
  194.5870  176.5010  146.0420 C   0  0  0  0  0  3  0  0  0  0  0  0
  193.3170  174.2840  144.7880 C   0  0  0  0  0  0  0  0  0  0  0  0
  194.3920  174.1170  145.7030 C   0  0  0  0  0  3  0  0  0  0  0  0
  192.8340  172.7410  143.8870 S   0  0  0  0  0  0  0  0  0  0  0  0
  194.3900  172.7540  142.8810 C   0  0  0  0  0  2  0  0  0  0  0  0
  194.7430  173.7820  141.7760 C   0  0  0  0  0  2  0  0  0  0  0  0
  196.2070  173.6620  141.2040 C   0  0  0  0  0  2  0  0  0  0  0  0
  196.0150  173.4480  139.3130 P   0  0  2  0  0  0  0  0  0  0  0  0
  196.2980  172.1310  138.5920 O   0  0  0  0  0  0  0  0  0  0  0  0
  196.7690  175.5730  137.5150 O   0  0  0  0  0  1  0  0  0  0  0  0
  197.7190  174.6950  138.7480 P   0  0  0  0  0  0  0  0  0  0  0  0
  197.8920  176.0100  139.9250 O   0  0  0  0  0  1  0  0  0  0  0  0
  194.2200  173.4570  139.1220 C   0  0  0  0  0  2  0  0  0  0  0  0
  193.7660  174.0100  137.7980 N   0  0  0  0  0  0  0  0  0  0  0  0
  192.0000  174.0590  135.4120 C   0  0  0  0  0  2  0  0  0  0  0  0
  193.9000  175.5280  134.8370 O   0  0  0  0  0  1  0  0  0  0  0  0
  192.3990  173.4650  137.7870 C   0  0  0  0  0  2  0  0  0  0  0  0
  194.3170  173.6040  136.4790 C   0  0  0  0  0  2  0  0  0  0  0  0
  191.5250  174.3100  136.8290 C   0  0  0  0  0  2  0  0  0  0  0  0
  193.4980  174.2050  135.3140 C   0  0  1  0  0  3  0  0  0  0  0  0
  190.0770  172.6770  141.0670 N   0  0  0  0  0  2  0  0  0  0  0  0
  189.8370  172.1320  139.9070 C   0  0  0  0  0  2  0  0  0  0  0  0
  191.0670  169.8440  139.9140 C   0  0  0  0  0  3  0  0  0  0  0  0
  189.6740  170.4050  138.0990 C   0  0  0  0  0  3  0  0  0  0  0  0
  189.9150  169.2460  137.4440 N   0  0  0  0  0  0  0  0  0  0  0  0
  190.7560  168.3230  138.0550 C   0  0  0  0  0  3  0  0  0  0  0  0
  191.3470  168.5990  139.2590 C   0  0  0  0  0  3  0  0  0  0  0  0
  190.2020  170.7850  139.3360 C   0  0  0  0  0  0  0  0  0  0  0  0
  188.2370  174.2340  141.4240 N   0  0  0  0  0  2  0  0  0  0  0  0
  187.8340  175.5600  140.9900 C   0  0  0  0  0  2  0  0  0  0  0  0
  187.1620  176.2600  142.2660 C   0  0  0  0  0  2  0  0  0  0  0  0
  186.3000  178.6090  142.4020 N   0  0  0  0  0  0  0  0  0  0  0  0
  187.1140  177.7220  141.9280 C   0  0  0  0  0  3  0  0  0  0  0  0
  185.2040  178.5730  143.3670 C   0  0  0  0  0  0  0  0  0  0  0  0
  184.1210  178.0760  142.9890 O   0  0  0  0  0  0  0  0  0  0  0  0
  185.4800  179.4070  144.9770 S   0  0  0  0  0  0  0  0  0  0  0  0
  187.5950  177.6730  145.5930 N   0  0  0  0  0  2  0  0  0  0  0  0
  185.8290  177.7420  147.2010 N   0  0  0  0  0  2  0  0  0  0  0  0
  186.3140  178.1370  146.0430 C   0  0  0  0  0  0  0  0  0  0  0  0
  190.6920  176.8780  147.5900 C   0  0  0  0  0  3  0  0  0  0  0  0
  188.5350  176.9430  146.3780 C   0  0  0  0  0  0  0  0  0  0  0  0
  189.3250  174.8170  147.4540 C   0  0  0  0  0  2  0  0  0  0  0  0
  190.7550  175.3900  147.4060 C   0  0  2  0  0  3  0  0  0  0  0  0
  188.3870  175.6430  146.5450 C   0  0  0  0  0  3  0  0  0  0  0  0
  189.6880  177.6030  147.0470 C   0  0  0  0  0  3  0  0  0  0  0  0
  191.5440  174.8240  148.3570 F   0  0  0  0  0  0  0  0  0  0  0  0
  1 29  1  1  0  0  0
  1 37  1  0  0  0  0
  2  6  1  6  0  0  0
  3  2  1  0  0  0  0
  4  2  1  0  0  0  0
  5  1  1  1  0  0  0
  5  4  1  0  0  0  0
  5  3  1  0  0  0  0
  6 10  2  0  0  0  0
  6  8  1  0  0  0  0
  8  9  2  0  0  0  0
  9  7  1  0  0  0  0
 10 11  1  0  0  0  0
 11  7  2  0  0  0  0
 12 10  1  0  0  0  0
 13 12  1  0  0  0  0
 14 13  1  0  0  0  0
 15 14  1  0  0  0  0
 16 17  2  6  0  0  0
 16 15  1  0  0  0  0
 18 19  1  0  0  0  0
 19 16  1  0  0  0  0
 19 20  1  0  0  0  0
 21 16  1  0  0  0  0
 22 21  1  0  0  0  0
 23 27  1  0  0  0  0
 25 22  1  0  0  0  0
 26 22  1  0  0  0  0
 27 25  1  0  0  0  0
 28 24  1  1  0  0  0
 28 23  1  0  0  0  0
 28 26  1  0  0  0  0
 30 29  1  0  0  0  0
 32 36  2  0  0  0  0
 33 34  2  0  0  0  0
 33 32  1  0  0  0  0
 34 35  1  0  0  0  0
 35 31  2  0  0  0  0
 36 30  1  0  0  0  0
 36 31  1  0  0  0  0
 38 37  1  0  0  0  0
 38 39  1  0  0  0  0
 40 42  1  0  0  0  0
 41 39  1  0  0  0  0
 41 40  2  0  0  0  0
 42 44  1  0  0  0  0
 43 42  2  0  0  0  0
 44 47  1  0  0  0  0
 45 47  1  0  0  0  0
 45 49  1  0  0  0  0
 47 46  2  0  0  0  0
 49 52  2  0  0  0  0
 49 53  1  0  0  0  0
 51 50  1  0  0  0  0
 51 48  1  0  0  0  0
 51 54  1  1  0  0  0
 52 50  1  0  0  0  0
 53 48  2  0  0  0  0
M  END
>  <MODEL>
3

>  <REMARK>
 VINA RESULT:      -5.7      2.119      5.858
  Name = 
  20 active torsions:
  status: ('A' for Active; 'I' for Inactive)
    1  A    between atoms: C_3  and  N_5
    2  A    between atoms: C_3  and  P_11
    3  A    between atoms: N_6  and  C_10
    4  A    between atoms: N_8  and  C_13
    5  A    between atoms: C_9  and  C_22
    6  A    between atoms: C_10  and  S_53
    7  A    between atoms: P_11  and  P_25
    8  A    between atoms: P_11  and  C_35
    9  A    between atoms: C_15  and  N_17
   10  A    between atoms: C_15  and  N_29
   11  A    between atoms: C_15  and  C_48
   12  A    between atoms: N_17  and  C_23
   13  A    between atoms: C_20  and  S_33
   14  A    between atoms: C_20  and  C_34
   15  A    between atoms: C_23  and  C_39
   16  A    between atoms: S_33  and  C_37
   17  A    between atoms: C_34  and  C_35
   18  A    between atoms: C_39  and  C_51
   19  A    between atoms: C_42  and  S_53
   20  A    between atoms: C_45  and  C_47
                            x       y       z     vdW  Elec       q    Type
                         _______ _______ _______ _____ _____    ______ ____

>  <TORSDO>
F 20

$$$$
=
 OpenBabel11042416323D

 54 58  0  0  1  0  0  0  0  0999 V2000
  189.4490  174.0380  141.0950 C   0  0  1  0  0  3  0  0  0  0  0  0
  191.0960  172.8230  144.2040 C   0  0  2  0  0  3  0  0  0  0  0  0
  190.1230  172.2630  143.1360 C   0  0  0  0  0  2  0  0  0  0  0  0
  191.1540  174.1550  143.3940 C   0  0  0  0  0  2  0  0  0  0  0  0
  190.2140  173.5490  142.4070 C   0  0  2  0  0  3  0  0  0  0  0  0
  192.4560  172.0800  144.3650 C   0  0  0  0  0  0  0  0  0  0  0  0
  194.7750  170.6940  145.2880 C   0  0  0  0  0  3  0  0  0  0  0  0
  193.3970  172.6530  145.2670 C   0  0  0  0  0  3  0  0  0  0  0  0
  194.5310  171.9850  145.7220 C   0  0  0  0  0  3  0  0  0  0  0  0
  192.7530  170.7850  143.8500 C   0  0  0  0  0  0  0  0  0  0  0  0
  193.8890  170.0970  144.3570 C   0  0  0  0  0  3  0  0  0  0  0  0
  191.9040  169.9270  142.4470 S   0  0  0  0  0  0  0  0  0  0  0  0
  193.4530  169.9010  141.4300 C   0  0  0  0  0  2  0  0  0  0  0  0
  194.0410  171.1020  140.6480 C   0  0  0  0  0  2  0  0  0  0  0  0
  192.9990  172.2280  140.2810 C   0  0  0  0  0  2  0  0  0  0  0  0
  194.0330  173.7310  139.7050 P   0  0  2  0  0  0  0  0  0  0  0  0
  193.6540  174.5860  138.4980 O   0  0  0  0  0  0  0  0  0  0  0  0
  195.2000  172.6850  137.2850 O   0  0  0  0  0  1  0  0  0  0  0  0
  195.7500  172.5890  138.9820 P   0  0  0  0  0  0  0  0  0  0  0  0
  197.1540  173.6640  138.8590 O   0  0  0  0  0  1  0  0  0  0  0  0
  193.6690  174.9420  140.9940 C   0  0  0  0  0  2  0  0  0  0  0  0
  194.8660  175.2920  141.8350 N   0  0  0  0  0  0  0  0  0  0  0  0
  196.7100  174.8730  144.1230 C   0  0  0  0  0  2  0  0  0  0  0  0
  197.2450  177.1280  143.2700 O   0  0  0  0  0  1  0  0  0  0  0  0
  195.0630  173.9900  142.4920 C   0  0  0  0  0  2  0  0  0  0  0  0
  194.8530  176.2580  142.9640 C   0  0  0  0  0  2  0  0  0  0  0  0
  196.5270  173.8880  142.9860 C   0  0  0  0  0  2  0  0  0  0  0  0
  196.1880  176.2360  143.7440 C   0  0  1  0  0  3  0  0  0  0  0  0
  189.5270  173.0370  139.9850 N   0  0  0  0  0  2  0  0  0  0  0  0
  189.9190  173.5180  138.8380 C   0  0  0  0  0  2  0  0  0  0  0  0
  191.0850  173.3510  136.5240 C   0  0  0  0  0  3  0  0  0  0  0  0
  189.6420  171.6250  137.2220 C   0  0  0  0  0  3  0  0  0  0  0  0
  189.8100  170.9070  136.0870 N   0  0  0  0  0  0  0  0  0  0  0  0
  190.6730  171.4180  135.1230 C   0  0  0  0  0  3  0  0  0  0  0  0
  191.2990  172.6220  135.3060 C   0  0  0  0  0  3  0  0  0  0  0  0
  190.2410  172.8500  137.5260 C   0  0  0  0  0  0  0  0  0  0  0  0
  188.0860  174.3940  141.4050 N   0  0  0  0  0  2  0  0  0  0  0  0
  187.9170  175.8040  141.1020 C   0  0  0  0  0  2  0  0  0  0  0  0
  187.0680  176.4210  142.3140 C   0  0  0  0  0  2  0  0  0  0  0  0
  186.1410  178.7390  142.5250 N   0  0  0  0  0  0  0  0  0  0  0  0
  186.9710  177.8890  142.0130 C   0  0  0  0  0  3  0  0  0  0  0  0
  185.0670  178.6470  143.5090 C   0  0  0  0  0  0  0  0  0  0  0  0
  183.9580  178.2290  143.1120 O   0  0  0  0  0  0  0  0  0  0  0  0
  185.4090  179.3090  145.1850 S   0  0  0  0  0  0  0  0  0  0  0  0
  187.6540  177.6790  145.5870 N   0  0  0  0  0  2  0  0  0  0  0  0
  185.8560  177.3370  147.1230 N   0  0  0  0  0  2  0  0  0  0  0  0
  186.3290  177.9550  146.0610 C   0  0  0  0  0  0  0  0  0  0  0  0
  190.7610  176.8280  147.5460 C   0  0  0  0  0  3  0  0  0  0  0  0
  188.6390  176.9100  146.2750 C   0  0  0  0  0  0  0  0  0  0  0  0
  189.5950  174.7090  147.0110 C   0  0  0  0  0  2  0  0  0  0  0  0
  190.9660  175.4050  147.1170 C   0  0  2  0  0  3  0  0  0  0  0  0
  188.6070  175.5930  146.2160 C   0  0  0  0  0  3  0  0  0  0  0  0
  189.7080  177.5450  147.0910 C   0  0  0  0  0  3  0  0  0  0  0  0
  191.7810  174.7570  147.9920 F   0  0  0  0  0  0  0  0  0  0  0  0
  1 29  1  6  0  0  0
  1 37  1  0  0  0  0
  2  6  1  6  0  0  0
  3  2  1  0  0  0  0
  4  2  1  0  0  0  0
  5  1  1  1  0  0  0
  5  3  1  0  0  0  0
  5  4  1  0  0  0  0
  6  8  1  0  0  0  0
  7  9  1  0  0  0  0
  8  9  2  0  0  0  0
 10 11  1  0  0  0  0
 10  6  2  0  0  0  0
 11  7  2  0  0  0  0
 12 10  1  0  0  0  0
 13 12  1  0  0  0  0
 14 13  1  0  0  0  0
 15 14  1  0  0  0  0
 16 17  2  6  0  0  0
 16 15  1  0  0  0  0
 16 21  1  0  0  0  0
 18 19  1  0  0  0  0
 19 16  1  0  0  0  0
 20 19  1  0  0  0  0
 21 22  1  0  0  0  0
 22 25  1  0  0  0  0
 22 26  1  0  0  0  0
 25 27  1  0  0  0  0
 26 28  1  0  0  0  0
 27 23  1  0  0  0  0
 28 24  1  6  0  0  0
 28 23  1  0  0  0  0
 30 29  1  0  0  0  0
 31 36  1  0  0  0  0
 32 36  2  0  0  0  0
 33 32  1  0  0  0  0
 34 35  1  0  0  0  0
 34 33  2  0  0  0  0
 35 31  2  0  0  0  0
 36 30  1  0  0  0  0
 38 37  1  0  0  0  0
 38 39  1  0  0  0  0
 40 42  1  0  0  0  0
 41 39  1  0  0  0  0
 41 40  2  0  0  0  0
 42 44  1  0  0  0  0
 43 42  2  0  0  0  0
 44 47  1  0  0  0  0
 45 47  1  0  0  0  0
 45 49  1  0  0  0  0
 47 46  2  0  0  0  0
 49 53  1  0  0  0  0
 50 51  1  0  0  0  0
 51 48  1  0  0  0  0
 51 54  1  1  0  0  0
 52 49  2  0  0  0  0
 52 50  1  0  0  0  0
 53 48  2  0  0  0  0
M  END
>  <MODEL>
4

>  <REMARK>
 VINA RESULT:      -5.6      2.051      5.110
  Name = 
  20 active torsions:
  status: ('A' for Active; 'I' for Inactive)
    1  A    between atoms: C_3  and  N_5
    2  A    between atoms: C_3  and  P_11
    3  A    between atoms: N_6  and  C_10
    4  A    between atoms: N_8  and  C_13
    5  A    between atoms: C_9  and  C_22
    6  A    between atoms: C_10  and  S_53
    7  A    between atoms: P_11  and  P_25
    8  A    between atoms: P_11  and  C_35
    9  A    between atoms: C_15  and  N_17
   10  A    between atoms: C_15  and  N_29
   11  A    between atoms: C_15  and  C_48
   12  A    between atoms: N_17  and  C_23
   13  A    between atoms: C_20  and  S_33
   14  A    between atoms: C_20  and  C_34
   15  A    between atoms: C_23  and  C_39
   16  A    between atoms: S_33  and  C_37
   17  A    between atoms: C_34  and  C_35
   18  A    between atoms: C_39  and  C_51
   19  A    between atoms: C_42  and  S_53
   20  A    between atoms: C_45  and  C_47
                            x       y       z     vdW  Elec       q    Type
                         _______ _______ _______ _____ _____    ______ ____

>  <TORSDO>
F 20

$$$$
=
 OpenBabel11042416323D

 54 58  0  0  1  0  0  0  0  0999 V2000
  189.8670  173.8150  142.7880 C   0  0  1  0  0  3  0  0  0  0  0  0
  189.7580  172.6570  139.2520 C   0  0  2  0  0  3  0  0  0  0  0  0
  188.8290  172.6220  140.4930 C   0  0  0  0  0  2  0  0  0  0  0  0
  190.7950  173.4530  140.1020 C   0  0  0  0  0  2  0  0  0  0  0  0
  189.8500  173.3790  141.2540 C   0  0  2  0  0  3  0  0  0  0  0  0
  189.2140  173.3990  137.9960 C   0  0  0  0  0  0  0  0  0  0  0  0
  188.3210  175.2950  136.0560 C   0  0  0  0  0  3  0  0  0  0  0  0
  188.0700  174.2260  138.1850 C   0  0  0  0  0  3  0  0  0  0  0  0
  187.6270  175.1520  137.2440 C   0  0  0  0  0  3  0  0  0  0  0  0
  189.8770  173.4840  136.7370 C   0  0  0  0  0  0  0  0  0  0  0  0
  189.4420  174.4640  135.8040 C   0  0  0  0  0  3  0  0  0  0  0  0
  191.1730  172.3330  136.0870 S   0  0  0  0  0  0  0  0  0  0  0  0
  192.5280  173.2540  136.9530 C   0  0  0  0  0  2  0  0  0  0  0  0
  194.0470  173.0180  136.7610 C   0  0  0  0  0  2  0  0  0  0  0  0
  194.8380  172.6780  138.0810 C   0  0  0  0  0  2  0  0  0  0  0  0
  195.0800  174.3430  138.9910 P   0  0  2  0  0  0  0  0  0  0  0  0
  194.1840  175.5580  138.7560 O   0  0  0  0  0  0  0  0  0  0  0  0
  197.7000  175.4270  139.5220 O   0  0  0  0  0  1  0  0  0  0  0  0
  196.9410  174.9030  137.9900 P   0  0  0  0  0  0  0  0  0  0  0  0
  197.9110  173.4470  137.7070 O   0  0  0  0  0  1  0  0  0  0  0  0
  194.5190  173.9370  140.6580 C   0  0  0  0  0  2  0  0  0  0  0  0
  195.3160  174.6200  141.7360 N   0  0  0  0  0  0  0  0  0  0  0  0
  196.3700  174.8640  144.5000 C   0  0  0  0  0  2  0  0  0  0  0  0
  196.8030  177.0570  143.4510 O   0  0  0  0  0  1  0  0  0  0  0  0
  195.4860  173.4750  142.6450 C   0  0  0  0  0  2  0  0  0  0  0  0
  194.7960  175.6970  142.6180 C   0  0  0  0  0  2  0  0  0  0  0  0
  196.7120  173.7290  143.5560 C   0  0  0  0  0  2  0  0  0  0  0  0
  195.7970  176.0380  143.7460 C   0  0  1  0  0  3  0  0  0  0  0  0
  188.9350  174.9520  143.0670 N   0  0  0  0  0  2  0  0  0  0  0  0
  188.2270  175.3450  142.0450 C   0  0  0  0  0  2  0  0  0  0  0  0
  186.0900  176.5750  142.8590 C   0  0  0  0  0  3  0  0  0  0  0  0
  187.0280  177.1390  140.7720 C   0  0  0  0  0  3  0  0  0  0  0  0
  186.0840  178.0690  140.5010 N   0  0  0  0  0  0  0  0  0  0  0  0
  185.0990  178.2870  141.4590 C   0  0  0  0  0  3  0  0  0  0  0  0
  185.0710  177.5560  142.6170 C   0  0  0  0  0  3  0  0  0  0  0  0
  187.1110  176.3510  141.9240 C   0  0  0  0  0  0  0  0  0  0  0  0
  189.6060  172.6810  143.6410 N   0  0  0  0  0  2  0  0  0  0  0  0
  190.8710  172.0150  143.8910 C   0  0  0  0  0  2  0  0  0  0  0  0
  192.0090  173.1200  143.6610 C   0  0  0  0  0  2  0  0  0  0  0  0
  192.5980  174.3460  145.7660 N   0  0  0  0  0  0  0  0  0  0  0  0
  192.6540  173.3010  145.0050 C   0  0  0  0  0  3  0  0  0  0  0  0
  191.9510  175.6500  145.6590 C   0  0  0  0  0  0  0  0  0  0  0  0
  192.0800  176.2690  144.5810 O   0  0  0  0  0  0  0  0  0  0  0  0
  191.1540  176.3150  147.1710 S   0  0  0  0  0  0  0  0  0  0  0  0
  188.5630  177.3860  147.1220 N   0  0  0  0  0  2  0  0  0  0  0  0
  188.7600  175.1520  146.2970 N   0  0  0  0  0  2  0  0  0  0  0  0
  189.3290  176.2050  146.8450 C   0  0  0  0  0  0  0  0  0  0  0  0
  185.6030  179.1420  145.5830 C   0  0  0  0  0  3  0  0  0  0  0  0
  187.2310  177.6340  146.6800 C   0  0  0  0  0  0  0  0  0  0  0  0
  184.8110  176.9860  146.5110 C   0  0  0  0  0  2  0  0  0  0  0  0
  184.4820  178.4810  146.3300 C   0  0  2  0  0  3  0  0  0  0  0  0
  186.2570  176.8160  147.0300 C   0  0  0  0  0  3  0  0  0  0  0  0
  186.8890  178.7870  145.8050 C   0  0  0  0  0  3  0  0  0  0  0  0
  183.3050  178.6490  145.6700 F   0  0  0  0  0  0  0  0  0  0  0  0
  1 29  1  6  0  0  0
  1 37  1  0  0  0  0
  2  6  1  6  0  0  0
  2  4  1  0  0  0  0
  2  3  1  0  0  0  0
  3  5  1  0  0  0  0
  4  5  1  0  0  0  0
  5  1  1  1  0  0  0
  6  8  1  0  0  0  0
  7  9  1  0  0  0  0
  9  8  2  0  0  0  0
 10  6  2  0  0  0  0
 11  7  2  0  0  0  0
 11 10  1  0  0  0  0
 12 10  1  0  0  0  0
 12 13  1  0  0  0  0
 14 13  1  0  0  0  0
 14 15  1  0  0  0  0
 15 16  1  0  0  0  0
 16 17  2  6  0  0  0
 16 21  1  0  0  0  0
 19 16  1  0  0  0  0
 19 18  1  0  0  0  0
 20 19  1  0  0  0  0
 21 22  1  0  0  0  0
 22 26  1  0  0  0  0
 22 25  1  0  0  0  0
 25 27  1  0  0  0  0
 26 28  1  0  0  0  0
 27 23  1  0  0  0  0
 28 24  1  6  0  0  0
 28 23  1  0  0  0  0
 30 29  1  0  0  0  0
 32 36  1  0  0  0  0
 33 32  2  0  0  0  0
 33 34  1  0  0  0  0
 34 35  2  0  0  0  0
 35 31  1  0  0  0  0
 36 30  1  0  0  0  0
 36 31  2  0  0  0  0
 37 38  1  0  0  0  0
 39 38  1  0  0  0  0
 39 41  1  0  0  0  0
 41 40  2  0  0  0  0
 42 40  1  0  0  0  0
 42 44  1  0  0  0  0
 43 42  2  0  0  0  0
 46 47  2  0  0  0  0
 47 45  1  0  0  0  0
 47 44  1  0  0  0  0
 48 53  2  0  0  0  0
 48 51  1  0  0  0  0
 49 52  2  0  0  0  0
 49 45  1  0  0  0  0
 50 52  1  0  0  0  0
 51 54  1  6  0  0  0
 51 50  1  0  0  0  0
 53 49  1  0  0  0  0
M  END
>  <MODEL>
5

>  <REMARK>
 VINA RESULT:      -5.5      2.806      5.339
  Name = 
  20 active torsions:
  status: ('A' for Active; 'I' for Inactive)
    1  A    between atoms: C_3  and  N_5
    2  A    between atoms: C_3  and  P_11
    3  A    between atoms: N_6  and  C_10
    4  A    between atoms: N_8  and  C_13
    5  A    between atoms: C_9  and  C_22
    6  A    between atoms: C_10  and  S_53
    7  A    between atoms: P_11  and  P_25
    8  A    between atoms: P_11  and  C_35
    9  A    between atoms: C_15  and  N_17
   10  A    between atoms: C_15  and  N_29
   11  A    between atoms: C_15  and  C_48
   12  A    between atoms: N_17  and  C_23
   13  A    between atoms: C_20  and  S_33
   14  A    between atoms: C_20  and  C_34
   15  A    between atoms: C_23  and  C_39
   16  A    between atoms: S_33  and  C_37
   17  A    between atoms: C_34  and  C_35
   18  A    between atoms: C_39  and  C_51
   19  A    between atoms: C_42  and  S_53
   20  A    between atoms: C_45  and  C_47
                            x       y       z     vdW  Elec       q    Type
                         _______ _______ _______ _____ _____    ______ ____

>  <TORSDO>
F 20

$$$$
=
 OpenBabel11042416323D

 54 58  0  0  1  0  0  0  0  0999 V2000
  189.3460  174.9270  142.3750 C   0  0  1  0  0  3  0  0  0  0  0  0
  188.2350  173.1010  139.3260 C   0  0  2  0  0  3  0  0  0  0  0  0
  188.6850  174.5380  139.6950 C   0  0  0  0  0  2  0  0  0  0  0  0
  188.4900  172.6860  140.8080 C   0  0  0  0  0  2  0  0  0  0  0  0
  188.9090  174.0900  141.0880 C   0  0  2  0  0  3  0  0  0  0  0  0
  189.0970  172.3520  138.2660 C   0  0  0  0  0  0  0  0  0  0  0  0
  190.2120  170.5230  136.3780 C   0  0  0  0  0  3  0  0  0  0  0  0
  189.5700  171.0580  138.6230 C   0  0  0  0  0  3  0  0  0  0  0  0
  190.1160  170.1600  137.7100 C   0  0  0  0  0  3  0  0  0  0  0  0
  189.2750  172.7600  136.9120 C   0  0  0  0  0  0  0  0  0  0  0  0
  189.7920  171.8180  135.9820 C   0  0  0  0  0  3  0  0  0  0  0  0
  189.0570  174.4670  136.2300 S   0  0  0  0  0  0  0  0  0  0  0  0
  190.7790  174.4910  135.5450 C   0  0  0  0  0  2  0  0  0  0  0  0
  192.0840  174.4560  136.3780 C   0  0  0  0  0  2  0  0  0  0  0  0
  193.3020  173.7480  135.6720 C   0  0  0  0  0  2  0  0  0  0  0  0
  194.8390  174.1660  136.7320 P   0  0  2  0  0  0  0  0  0  0  0  0
  195.4940  175.5450  136.7410 O   0  0  0  0  0  0  0  0  0  0  0  0
  197.5750  173.2570  136.7690 O   0  0  0  0  0  1  0  0  0  0  0  0
  196.2600  172.9520  135.5980 P   0  0  0  0  0  0  0  0  0  0  0  0
  195.9820  171.2400  135.9620 O   0  0  0  0  0  1  0  0  0  0  0  0
  194.1360  174.2120  138.3950 C   0  0  0  0  0  2  0  0  0  0  0  0
  195.0540  174.8370  139.4100 N   0  0  0  0  0  0  0  0  0  0  0  0
  196.9080  174.7300  141.7260 C   0  0  0  0  0  2  0  0  0  0  0  0
  196.3600  177.1220  141.4500 O   0  0  0  0  0  1  0  0  0  0  0  0
  195.8230  173.6380  139.7810 C   0  0  0  0  0  2  0  0  0  0  0  0
  194.6160  175.3930  140.7170 C   0  0  0  0  0  2  0  0  0  0  0  0
  197.1790  174.0740  140.3870 C   0  0  0  0  0  2  0  0  0  0  0  0
  195.8240  175.7710  141.6050 C   0  0  1  0  0  3  0  0  0  0  0  0
  190.8330  175.0070  142.5230 N   0  0  0  0  0  2  0  0  0  0  0  0
  191.2540  175.1640  143.7460 C   0  0  0  0  0  2  0  0  0  0  0  0
  193.2890  174.0890  144.9500 C   0  0  0  0  0  3  0  0  0  0  0  0
  193.3810  176.3580  144.3220 C   0  0  0  0  0  3  0  0  0  0  0  0
  194.6240  176.5360  144.8230 N   0  0  0  0  0  0  0  0  0  0  0  0
  195.2500  175.4370  145.4020 C   0  0  0  0  0  3  0  0  0  0  0  0
  194.6110  174.2290  145.4900 C   0  0  0  0  0  3  0  0  0  0  0  0
  192.6410  175.1720  144.3370 C   0  0  0  0  0  0  0  0  0  0  0  0
  188.7330  176.2330  142.3620 N   0  0  0  0  0  2  0  0  0  0  0  0
  187.3470  176.0750  142.7650 C   0  0  0  0  0  2  0  0  0  0  0  0
  186.4740  176.8520  141.6680 C   0  0  0  0  0  2  0  0  0  0  0  0
  185.9210  179.0440  142.7500 N   0  0  0  0  0  0  0  0  0  0  0  0
  186.6590  178.3090  141.9830 C   0  0  0  0  0  3  0  0  0  0  0  0
  184.7270  178.7980  143.5540 C   0  0  0  0  0  0  0  0  0  0  0  0
  183.6630  178.5550  142.9440 O   0  0  0  0  0  0  0  0  0  0  0  0
  184.8760  179.0330  145.3660 S   0  0  0  0  0  0  0  0  0  0  0  0
  187.3850  177.8880  145.8740 N   0  0  0  0  0  2  0  0  0  0  0  0
  185.5060  176.5450  146.4880 N   0  0  0  0  0  2  0  0  0  0  0  0
  185.9720  177.6500  145.9450 C   0  0  0  0  0  0  0  0  0  0  0  0
  190.5800  177.0100  147.6710 C   0  0  0  0  0  3  0  0  0  0  0  0
  188.3900  177.1120  146.5220 C   0  0  0  0  0  0  0  0  0  0  0  0
  189.3400  174.9070  147.2540 C   0  0  0  0  0  2  0  0  0  0  0  0
  190.7300  175.5730  147.2650 C   0  0  2  0  0  3  0  0  0  0  0  0
  188.3270  175.7950  146.4960 C   0  0  0  0  0  3  0  0  0  0  0  0
  189.5180  177.7400  147.2610 C   0  0  0  0  0  3  0  0  0  0  0  0
  191.5790  174.9260  148.1060 F   0  0  0  0  0  0  0  0  0  0  0  0
  1 37  1  6  0  0  0
  1 29  1  0  0  0  0
  2  6  1  6  0  0  0
  2  3  1  0  0  0  0
  2  4  1  0  0  0  0
  3  5  1  0  0  0  0
  4  5  1  0  0  0  0
  5  1  1  1  0  0  0
  6  8  1  0  0  0  0
  7  9  1  0  0  0  0
  9  8  2  0  0  0  0
 10  6  2  0  0  0  0
 11  7  2  0  0  0  0
 11 10  1  0  0  0  0
 12 10  1  0  0  0  0
 13 12  1  0  0  0  0
 13 14  1  0  0  0  0
 15 14  1  0  0  0  0
 15 16  1  0  0  0  0
 16 17  2  6  0  0  0
 16 21  1  0  0  0  0
 19 20  1  0  0  0  0
 19 16  1  0  0  0  0
 19 18  1  0  0  0  0
 21 22  1  0  0  0  0
 22 25  1  0  0  0  0
 22 26  1  0  0  0  0
 25 27  1  0  0  0  0
 26 28  1  0  0  0  0
 27 23  1  0  0  0  0
 28 24  1  6  0  0  0
 28 23  1  0  0  0  0
 29 30  1  0  0  0  0
 30 36  1  0  0  0  0
 31 35  1  0  0  0  0
 32 36  1  0  0  0  0
 32 33  2  0  0  0  0
 33 34  1  0  0  0  0
 34 35  2  0  0  0  0
 36 31  2  0  0  0  0
 37 38  1  0  0  0  0
 39 41  1  0  0  0  0
 39 38  1  0  0  0  0
 40 42  1  0  0  0  0
 41 40  2  0  0  0  0
 42 44  1  0  0  0  0
 43 42  2  0  0  0  0
 44 47  1  0  0  0  0
 45 47  1  0  0  0  0
 45 49  1  0  0  0  0
 47 46  2  0  0  0  0
 49 53  1  0  0  0  0
 50 51  1  0  0  0  0
 51 48  1  0  0  0  0
 51 54  1  1  0  0  0
 52 49  2  0  0  0  0
 52 50  1  0  0  0  0
 53 48  2  0  0  0  0
M  END
>  <MODEL>
6

>  <REMARK>
 VINA RESULT:      -5.5      1.919      2.343
  Name = 
  20 active torsions:
  status: ('A' for Active; 'I' for Inactive)
    1  A    between atoms: C_3  and  N_5
    2  A    between atoms: C_3  and  P_11
    3  A    between atoms: N_6  and  C_10
    4  A    between atoms: N_8  and  C_13
    5  A    between atoms: C_9  and  C_22
    6  A    between atoms: C_10  and  S_53
    7  A    between atoms: P_11  and  P_25
    8  A    between atoms: P_11  and  C_35
    9  A    between atoms: C_15  and  N_17
   10  A    between atoms: C_15  and  N_29
   11  A    between atoms: C_15  and  C_48
   12  A    between atoms: N_17  and  C_23
   13  A    between atoms: C_20  and  S_33
   14  A    between atoms: C_20  and  C_34
   15  A    between atoms: C_23  and  C_39
   16  A    between atoms: S_33  and  C_37
   17  A    between atoms: C_34  and  C_35
   18  A    between atoms: C_39  and  C_51
   19  A    between atoms: C_42  and  S_53
   20  A    between atoms: C_45  and  C_47
                            x       y       z     vdW  Elec       q    Type
                         _______ _______ _______ _____ _____    ______ ____

>  <TORSDO>
F 20

$$$$
=
 OpenBabel11042416323D

 54 58  0  0  1  0  0  0  0  0999 V2000
  189.2840  176.2890  142.4220 C   0  0  1  0  0  3  0  0  0  0  0  0
  189.7720  172.7210  141.4810 C   0  0  2  0  0  3  0  0  0  0  0  0
  188.5980  173.7300  141.5560 C   0  0  0  0  0  2  0  0  0  0  0  0
  190.7300  173.8650  141.9360 C   0  0  0  0  0  2  0  0  0  0  0  0
  189.5520  174.7780  141.9860 C   0  0  2  0  0  3  0  0  0  0  0  0
  190.0780  172.1110  140.0810 C   0  0  0  0  0  0  0  0  0  0  0  0
  190.6870  171.6210  137.3340 C   0  0  0  0  0  3  0  0  0  0  0  0
  189.2180  172.4950  139.0130 C   0  0  0  0  0  3  0  0  0  0  0  0
  189.5060  172.2580  137.6710 C   0  0  0  0  0  3  0  0  0  0  0  0
  191.2520  171.3780  139.7400 C   0  0  0  0  0  0  0  0  0  0  0  0
  191.5560  171.1830  138.3650 C   0  0  0  0  0  3  0  0  0  0  0  0
  192.3790  170.4850  140.9050 S   0  0  0  0  0  0  0  0  0  0  0  0
  193.8440  170.7400  139.8000 C   0  0  0  0  0  2  0  0  0  0  0  0
  194.9210  171.8410  139.9670 C   0  0  0  0  0  2  0  0  0  0  0  0
  194.4170  173.1610  140.6660 C   0  0  0  0  0  2  0  0  0  0  0  0
  195.9150  173.8410  141.6430 P   0  0  2  0  0  0  0  0  0  0  0  0
  195.7900  174.4540  143.0360 O   0  0  0  0  0  0  0  0  0  0  0  0
  194.5950  175.5690  139.7480 O   0  0  0  0  0  1  0  0  0  0  0  0
  196.2710  175.5820  140.3690 P   0  0  0  0  0  0  0  0  0  0  0  0
  196.1700  177.0530  141.3530 O   0  0  0  0  0  1  0  0  0  0  0  0
  196.7680  172.3220  142.1130 C   0  0  0  0  0  2  0  0  0  0  0  0
  196.3080  171.7670  143.4340 N   0  0  0  0  0  0  0  0  0  0  0  0
  196.2860  169.7220  145.5850 C   0  0  0  0  0  2  0  0  0  0  0  0
  194.3470  171.1750  146.0600 O   0  0  0  0  0  1  0  0  0  0  0  0
  197.4230  170.8390  143.6850 C   0  0  0  0  0  2  0  0  0  0  0  0
  195.0990  170.9240  143.6220 C   0  0  0  0  0  2  0  0  0  0  0  0
  197.5020  170.5410  145.2020 C   0  0  0  0  0  2  0  0  0  0  0  0
  195.0230  170.3530  145.0570 C   0  0  1  0  0  3  0  0  0  0  0  0
  187.8320  176.5640  142.6580 N   0  0  0  0  0  2  0  0  0  0  0  0
  187.2410  177.2420  141.7150 C   0  0  0  0  0  2  0  0  0  0  0  0
  184.8580  177.9050  142.5050 C   0  0  0  0  0  3  0  0  0  0  0  0
  185.2920  177.6760  140.2010 C   0  0  0  0  0  3  0  0  0  0  0  0
  184.0240  177.9790  139.8430 N   0  0  0  0  0  0  0  0  0  0  0  0
  183.1220  178.2820  140.8580 C   0  0  0  0  0  3  0  0  0  0  0  0
  183.5020  178.2380  142.1730 C   0  0  0  0  0  3  0  0  0  0  0  0
  185.7970  177.6200  141.5030 C   0  0  0  0  0  0  0  0  0  0  0  0
  190.0930  176.6390  143.5640 N   0  0  0  0  0  2  0  0  0  0  0  0
  191.1760  177.4840  143.0980 C   0  0  0  0  0  2  0  0  0  0  0  0
  192.5240  176.6470  143.3270 C   0  0  0  0  0  2  0  0  0  0  0  0
  192.7820  176.3920  145.8070 N   0  0  0  0  0  0  0  0  0  0  0  0
  192.9920  177.0310  144.7020 C   0  0  0  0  0  3  0  0  0  0  0  0
  192.0830  175.1580  146.1520 C   0  0  0  0  0  0  0  0  0  0  0  0
  192.2250  174.1820  145.3840 O   0  0  0  0  0  0  0  0  0  0  0  0
  190.9410  175.2170  147.5860 S   0  0  0  0  0  0  0  0  0  0  0  0
  188.4950  176.1970  146.6270 N   0  0  0  0  0  2  0  0  0  0  0  0
  189.9780  177.8470  147.5160 N   0  0  0  0  0  2  0  0  0  0  0  0
  189.7500  176.5890  147.2000 C   0  0  0  0  0  0  0  0  0  0  0  0
  185.0600  177.5890  147.3150 C   0  0  0  0  0  3  0  0  0  0  0  0
  187.3360  177.0200  146.5260 C   0  0  0  0  0  0  0  0  0  0  0  0
  186.0200  178.8430  145.4070 C   0  0  0  0  0  2  0  0  0  0  0  0
  184.7440  178.1950  145.9800 C   0  0  2  0  0  3  0  0  0  0  0  0
  187.2130  177.8660  145.5210 C   0  0  0  0  0  3  0  0  0  0  0  0
  186.2470  176.9810  147.5380 C   0  0  0  0  0  3  0  0  0  0  0  0
  183.7400  179.1050  146.0950 F   0  0  0  0  0  0  0  0  0  0  0  0
  1 29  1  1  0  0  0
  1 37  1  0  0  0  0
  2  6  1  6  0  0  0
  2  3  1  0  0  0  0
  2  4  1  0  0  0  0
  3  5  1  0  0  0  0
  4  5  1  0  0  0  0
  5  1  1  1  0  0  0
  7  9  2  0  0  0  0
  7 11  1  0  0  0  0
  8  6  2  0  0  0  0
  9  8  1  0  0  0  0
 10  6  1  0  0  0  0
 10 12  1  0  0  0  0
 11 10  2  0  0  0  0
 13 14  1  0  0  0  0
 13 12  1  0  0  0  0
 14 15  1  0  0  0  0
 15 16  1  0  0  0  0
 16 21  1  0  0  0  0
 16 17  2  1  0  0  0
 18 19  1  0  0  0  0
 19 20  1  0  0  0  0
 19 16  1  0  0  0  0
 21 22  1  0  0  0  0
 22 26  1  0  0  0  0
 22 25  1  0  0  0  0
 25 27  1  0  0  0  0
 26 28  1  0  0  0  0
 27 23  1  0  0  0  0
 28 23  1  0  0  0  0
 28 24  1  1  0  0  0
 30 29  1  0  0  0  0
 32 36  1  0  0  0  0
 33 32  2  0  0  0  0
 33 34  1  0  0  0  0
 34 35  2  0  0  0  0
 35 31  1  0  0  0  0
 36 30  1  0  0  0  0
 36 31  2  0  0  0  0
 38 39  1  0  0  0  0
 38 37  1  0  0  0  0
 39 41  1  0  0  0  0
 40 42  1  0  0  0  0
 41 40  2  0  0  0  0
 42 44  1  0  0  0  0
 43 42  2  0  0  0  0
 45 47  1  0  0  0  0
 47 46  2  0  0  0  0
 47 44  1  0  0  0  0
 48 53  2  0  0  0  0
 49 45  1  0  0  0  0
 49 53  1  0  0  0  0
 50 52  1  0  0  0  0
 50 51  1  0  0  0  0
 51 54  1  1  0  0  0
 51 48  1  0  0  0  0
 52 49  2  0  0  0  0
M  END
>  <MODEL>
7

>  <REMARK>
 VINA RESULT:      -5.5      2.965      5.658
  Name = 
  20 active torsions:
  status: ('A' for Active; 'I' for Inactive)
    1  A    between atoms: C_3  and  N_5
    2  A    between atoms: C_3  and  P_11
    3  A    between atoms: N_6  and  C_10
    4  A    between atoms: N_8  and  C_13
    5  A    between atoms: C_9  and  C_22
    6  A    between atoms: C_10  and  S_53
    7  A    between atoms: P_11  and  P_25
    8  A    between atoms: P_11  and  C_35
    9  A    between atoms: C_15  and  N_17
   10  A    between atoms: C_15  and  N_29
   11  A    between atoms: C_15  and  C_48
   12  A    between atoms: N_17  and  C_23
   13  A    between atoms: C_20  and  S_33
   14  A    between atoms: C_20  and  C_34
   15  A    between atoms: C_23  and  C_39
   16  A    between atoms: S_33  and  C_37
   17  A    between atoms: C_34  and  C_35
   18  A    between atoms: C_39  and  C_51
   19  A    between atoms: C_42  and  S_53
   20  A    between atoms: C_45  and  C_47
                            x       y       z     vdW  Elec       q    Type
                         _______ _______ _______ _____ _____    ______ ____

>  <TORSDO>
F 20

$$$$
=
 OpenBabel11042416323D

 54 58  0  0  1  0  0  0  0  0999 V2000
  189.4720  175.2480  143.3060 C   0  0  1  0  0  3  0  0  0  0  0  0
  189.8320  171.6340  142.4900 C   0  0  2  0  0  3  0  0  0  0  0  0
  189.9400  172.9880  141.7430 C   0  0  0  0  0  2  0  0  0  0  0  0
  189.5420  172.4280  143.8020 C   0  0  0  0  0  2  0  0  0  0  0  0
  189.6600  173.6910  143.0170 C   0  0  2  0  0  3  0  0  0  0  0  0
  191.1130  170.7490  142.5150 C   0  0  0  0  0  0  0  0  0  0  0  0
  193.1900  168.8780  143.1010 C   0  0  0  0  0  3  0  0  0  0  0  0
  191.9240  170.8270  143.6830 C   0  0  0  0  0  3  0  0  0  0  0  0
  192.9400  169.9200  143.9760 C   0  0  0  0  0  3  0  0  0  0  0  0
  191.4280  169.7280  141.5710 C   0  0  0  0  0  0  0  0  0  0  0  0
  192.4360  168.7830  141.9040 C   0  0  0  0  0  3  0  0  0  0  0  0
  190.7740  169.5720  139.8470 S   0  0  0  0  0  0  0  0  0  0  0  0
  192.4290  169.0620  139.1880 C   0  0  0  0  0  2  0  0  0  0  0  0
  193.2610  169.8370  138.1360 C   0  0  0  0  0  2  0  0  0  0  0  0
  194.1820  170.9730  138.7250 C   0  0  0  0  0  2  0  0  0  0  0  0
  193.8400  172.5280  137.6650 P   0  0  2  0  0  0  0  0  0  0  0  0
  194.7310  172.9530  136.5000 O   0  0  0  0  0  0  0  0  0  0  0  0
  195.1860  172.7830  140.2020 O   0  0  0  0  0  1  0  0  0  0  0  0
  194.3200  173.9930  139.2140 P   0  0  0  0  0  0  0  0  0  0  0  0
  195.7190  174.9510  138.6950 O   0  0  0  0  0  1  0  0  0  0  0  0
  192.4020  172.0090  136.7040 C   0  0  0  0  0  2  0  0  0  0  0  0
  191.3400  173.0700  136.6050 N   0  0  0  0  0  0  0  0  0  0  0  0
  188.6110  174.1400  137.0770 C   0  0  0  0  0  2  0  0  0  0  0  0
  189.6290  175.6770  135.4330 O   0  0  0  0  0  1  0  0  0  0  0  0
  190.4620  172.6070  137.6910 C   0  0  0  0  0  2  0  0  0  0  0  0
  190.4170  173.2370  135.4530 C   0  0  0  0  0  2  0  0  0  0  0  0
  189.5910  173.7910  138.1780 C   0  0  0  0  0  2  0  0  0  0  0  0
  189.3190  174.2840  135.7530 C   0  0  1  0  0  3  0  0  0  0  0  0
  190.7580  175.9180  143.6760 N   0  0  0  0  0  2  0  0  0  0  0  0
  191.7150  175.1080  144.0330 C   0  0  0  0  0  2  0  0  0  0  0  0
  193.8270  174.9830  145.5400 C   0  0  0  0  0  3  0  0  0  0  0  0
  193.9660  176.0320  143.4350 C   0  0  0  0  0  3  0  0  0  0  0  0
  195.2740  176.3450  143.5810 N   0  0  0  0  0  0  0  0  0  0  0  0
  195.9070  175.9440  144.7520 C   0  0  0  0  0  3  0  0  0  0  0  0
  195.2150  175.2880  145.7360 C   0  0  0  0  0  3  0  0  0  0  0  0
  193.1670  175.3520  144.3580 C   0  0  0  0  0  0  0  0  0  0  0  0
  188.8260  175.8970  142.1910 N   0  0  0  0  0  2  0  0  0  0  0  0
  187.3920  175.8100  142.3980 C   0  0  0  0  0  2  0  0  0  0  0  0
  186.7260  176.7830  141.3120 C   0  0  0  0  0  2  0  0  0  0  0  0
  186.4400  178.8640  142.6780 N   0  0  0  0  0  0  0  0  0  0  0  0
  187.0580  178.1720  141.7770 C   0  0  0  0  0  3  0  0  0  0  0  0
  185.2860  178.6170  143.5380 C   0  0  0  0  0  0  0  0  0  0  0  0
  184.3380  177.9610  143.0550 O   0  0  0  0  0  0  0  0  0  0  0  0
  185.2770  179.4340  145.1800 S   0  0  0  0  0  0  0  0  0  0  0  0
  187.3360  177.6100  145.7220 N   0  0  0  0  0  2  0  0  0  0  0  0
  185.9300  178.1440  147.5790 N   0  0  0  0  0  2  0  0  0  0  0  0
  186.2070  178.2810  146.2990 C   0  0  0  0  0  0  0  0  0  0  0  0
  190.6400  176.9130  147.3990 C   0  0  0  0  0  3  0  0  0  0  0  0
  188.3550  176.9260  146.4480 C   0  0  0  0  0  0  0  0  0  0  0  0
  189.2420  174.8780  147.5970 C   0  0  0  0  0  2  0  0  0  0  0  0
  190.6630  175.4150  147.3330 C   0  0  2  0  0  3  0  0  0  0  0  0
  188.2120  175.6470  146.7390 C   0  0  0  0  0  3  0  0  0  0  0  0
  189.5870  177.6130  146.9190 C   0  0  0  0  0  3  0  0  0  0  0  0
  191.5530  174.9110  148.2280 F   0  0  0  0  0  0  0  0  0  0  0  0
  1 37  1  6  0  0  0
  1 29  1  0  0  0  0
  2  6  1  1  0  0  0
  2  4  1  0  0  0  0
  3  2  1  0  0  0  0
  3  5  1  0  0  0  0
  5  1  1  6  0  0  0
  5  4  1  0  0  0  0
  6  8  1  0  0  0  0
  7  9  1  0  0  0  0
  8  9  2  0  0  0  0
 10 11  1  0  0  0  0
 10  6  2  0  0  0  0
 11  7  2  0  0  0  0
 12 10  1  0  0  0  0
 13 12  1  0  0  0  0
 14 15  1  0  0  0  0
 14 13  1  0  0  0  0
 16 17  2  6  0  0  0
 16 15  1  0  0  0  0
 16 19  1  0  0  0  0
 19 18  1  0  0  0  0
 20 19  1  0  0  0  0
 21 16  1  0  0  0  0
 22 21  1  0  0  0  0
 22 25  1  0  0  0  0
 23 27  1  0  0  0  0
 25 27  1  0  0  0  0
 26 28  1  0  0  0  0
 26 22  1  0  0  0  0
 28 24  1  1  0  0  0
 28 23  1  0  0  0  0
 29 30  1  0  0  0  0
 30 36  1  0  0  0  0
 31 35  1  0  0  0  0
 32 33  2  0  0  0  0
 32 36  1  0  0  0  0
 33 34  1  0  0  0  0
 34 35  2  0  0  0  0
 36 31  2  0  0  0  0
 37 38  1  0  0  0  0
 39 41  1  0  0  0  0
 39 38  1  0  0  0  0
 40 42  1  0  0  0  0
 41 40  2  0  0  0  0
 42 44  1  0  0  0  0
 43 42  2  0  0  0  0
 44 47  1  0  0  0  0
 45 47  1  0  0  0  0
 45 49  1  0  0  0  0
 47 46  2  0  0  0  0
 49 52  2  0  0  0  0
 49 53  1  0  0  0  0
 51 48  1  0  0  0  0
 51 50  1  0  0  0  0
 51 54  1  1  0  0  0
 52 50  1  0  0  0  0
 53 48  2  0  0  0  0
M  END
>  <MODEL>
8

>  <REMARK>
 VINA RESULT:      -5.4      1.877      3.902
  Name = 
  20 active torsions:
  status: ('A' for Active; 'I' for Inactive)
    1  A    between atoms: C_3  and  N_5
    2  A    between atoms: C_3  and  P_11
    3  A    between atoms: N_6  and  C_10
    4  A    between atoms: N_8  and  C_13
    5  A    between atoms: C_9  and  C_22
    6  A    between atoms: C_10  and  S_53
    7  A    between atoms: P_11  and  P_25
    8  A    between atoms: P_11  and  C_35
    9  A    between atoms: C_15  and  N_17
   10  A    between atoms: C_15  and  N_29
   11  A    between atoms: C_15  and  C_48
   12  A    between atoms: N_17  and  C_23
   13  A    between atoms: C_20  and  S_33
   14  A    between atoms: C_20  and  C_34
   15  A    between atoms: C_23  and  C_39
   16  A    between atoms: S_33  and  C_37
   17  A    between atoms: C_34  and  C_35
   18  A    between atoms: C_39  and  C_51
   19  A    between atoms: C_42  and  S_53
   20  A    between atoms: C_45  and  C_47
                            x       y       z     vdW  Elec       q    Type
                         _______ _______ _______ _____ _____    ______ ____

>  <TORSDO>
F 20

$$$$
=
 OpenBabel11042416323D

 54 58  0  0  1  0  0  0  0  0999 V2000
  189.4580  174.4440  141.9950 C   0  0  1  0  0  3  0  0  0  0  0  0
  189.1450  173.3010  138.4660 C   0  0  2  0  0  3  0  0  0  0  0  0
  188.2080  173.5240  139.6800 C   0  0  0  0  0  2  0  0  0  0  0  0
  190.3310  173.8170  139.3390 C   0  0  0  0  0  2  0  0  0  0  0  0
  189.3680  174.0050  140.4640 C   0  0  2  0  0  3  0  0  0  0  0  0
  188.8430  174.1400  137.1890 C   0  0  0  0  0  0  0  0  0  0  0  0
  188.2940  176.1800  135.2670 C   0  0  0  0  0  3  0  0  0  0  0  0
  187.6540  174.9240  137.2030 C   0  0  0  0  0  3  0  0  0  0  0  0
  187.3770  175.9190  136.2700 C   0  0  0  0  0  3  0  0  0  0  0  0
  189.7460  174.3490  136.1070 C   0  0  0  0  0  0  0  0  0  0  0  0
  189.4740  175.3980  135.1870 C   0  0  0  0  0  3  0  0  0  0  0  0
  191.1910  173.2870  135.6480 S   0  0  0  0  0  0  0  0  0  0  0  0
  192.4050  174.5740  136.2000 C   0  0  0  0  0  2  0  0  0  0  0  0
  193.9000  174.3280  136.5200 C   0  0  0  0  0  2  0  0  0  0  0  0
  194.4780  175.2010  137.6990 C   0  0  0  0  0  2  0  0  0  0  0  0
  195.6150  174.0370  138.7050 P   0  0  2  0  0  0  0  0  0  0  0  0
  196.6810  173.1540  138.0590 O   0  0  0  0  0  0  0  0  0  0  0  0
  194.8820  171.2620  138.4210 O   0  0  0  0  0  1  0  0  0  0  0  0
  194.0650  172.6040  139.2720 P   0  0  0  0  0  0  0  0  0  0  0  0
  194.3500  172.0670  140.9370 O   0  0  0  0  0  1  0  0  0  0  0  0
  196.7210  175.2120  139.5140 C   0  0  0  0  0  2  0  0  0  0  0  0
  196.6050  175.2010  141.0140 N   0  0  0  0  0  0  0  0  0  0  0  0
  195.8600  176.4030  143.6230 C   0  0  0  0  0  2  0  0  0  0  0  0
  197.2720  174.4590  144.1910 O   0  0  0  0  0  1  0  0  0  0  0  0
  195.5740  176.2400  141.1650 C   0  0  0  0  0  2  0  0  0  0  0  0
  197.6780  175.6300  141.9480 C   0  0  0  0  0  2  0  0  0  0  0  0
  194.8680  176.0580  142.5310 C   0  0  0  0  0  2  0  0  0  0  0  0
  197.1700  175.6890  143.4070 C   0  0  1  0  0  3  0  0  0  0  0  0
  188.1870  175.0630  142.4840 N   0  0  0  0  0  2  0  0  0  0  0  0
  188.1460  176.3640  142.4090 C   0  0  0  0  0  2  0  0  0  0  0  0
  187.1510  178.5560  143.3860 C   0  0  0  0  0  3  0  0  0  0  0  0
  185.7490  177.0670  142.2150 C   0  0  0  0  0  3  0  0  0  0  0  0
  184.6480  177.8340  142.3860 N   0  0  0  0  0  0  0  0  0  0  0  0
  184.7970  179.0340  143.0710 C   0  0  0  0  0  3  0  0  0  0  0  0
  186.0110  179.4040  143.5850 C   0  0  0  0  0  3  0  0  0  0  0  0
  187.0380  177.3510  142.6760 C   0  0  0  0  0  0  0  0  0  0  0  0
  189.8700  173.3330  142.8180 N   0  0  0  0  0  2  0  0  0  0  0  0
  191.3180  173.3620  142.9100 C   0  0  0  0  0  2  0  0  0  0  0  0
  191.6760  174.5690  143.9030 C   0  0  0  0  0  2  0  0  0  0  0  0
  192.1340  174.5100  146.3660 N   0  0  0  0  0  0  0  0  0  0  0  0
  191.7740  173.9390  145.2620 C   0  0  0  0  0  3  0  0  0  0  0  0
  192.5480  175.8640  146.7230 C   0  0  0  0  0  0  0  0  0  0  0  0
  193.6770  176.2400  146.3420 O   0  0  0  0  0  0  0  0  0  0  0  0
  191.4370  176.8120  147.8330 S   0  0  0  0  0  0  0  0  0  0  0  0
  188.6450  176.8870  147.5860 N   0  0  0  0  0  2  0  0  0  0  0  0
  189.8610  177.4490  145.6070 N   0  0  0  0  0  2  0  0  0  0  0  0
  189.8730  177.0520  146.8620 C   0  0  0  0  0  0  0  0  0  0  0  0
  185.5850  179.0310  147.0840 C   0  0  0  0  0  3  0  0  0  0  0  0
  187.3560  177.3030  147.1400 C   0  0  0  0  0  0  0  0  0  0  0  0
  185.1810  176.8560  145.9700 C   0  0  0  0  0  2  0  0  0  0  0  0
  184.5550  177.9710  146.8300 C   0  0  2  0  0  3  0  0  0  0  0  0
  186.5520  176.4400  146.5500 C   0  0  0  0  0  3  0  0  0  0  0  0
  186.8800  178.7030  147.2970 C   0  0  0  0  0  3  0  0  0  0  0  0
  183.4610  178.5050  146.2230 F   0  0  0  0  0  0  0  0  0  0  0  0
  1 29  1  1  0  0  0
  1 37  1  0  0  0  0
  2  6  1  6  0  0  0
  2  4  1  0  0  0  0
  2  3  1  0  0  0  0
  3  5  1  0  0  0  0
  4  5  1  0  0  0  0
  5  1  1  1  0  0  0
  6  8  1  0  0  0  0
  7  9  1  0  0  0  0
  9  8  2  0  0  0  0
 10  6  2  0  0  0  0
 11  7  2  0  0  0  0
 11 10  1  0  0  0  0
 12 10  1  0  0  0  0
 12 13  1  0  0  0  0
 13 14  1  0  0  0  0
 14 15  1  0  0  0  0
 15 16  1  0  0  0  0
 16 17  2  6  0  0  0
 16 19  1  0  0  0  0
 16 21  1  0  0  0  0
 18 19  1  0  0  0  0
 19 20  1  0  0  0  0
 21 22  1  0  0  0  0
 22 25  1  0  0  0  0
 22 26  1  0  0  0  0
 25 27  1  0  0  0  0
 26 28  1  0  0  0  0
 27 23  1  0  0  0  0
 28 23  1  0  0  0  0
 28 24  1  6  0  0  0
 30 29  1  0  0  0  0
 30 36  1  0  0  0  0
 31 35  1  0  0  0  0
 32 33  2  0  0  0  0
 32 36  1  0  0  0  0
 33 34  1  0  0  0  0
 34 35  2  0  0  0  0
 36 31  2  0  0  0  0
 37 38  1  0  0  0  0
 38 39  1  0  0  0  0
 39 41  1  0  0  0  0
 40 42  1  0  0  0  0
 41 40  2  0  0  0  0
 42 44  1  0  0  0  0
 43 42  2  0  0  0  0
 46 47  2  0  0  0  0
 47 45  1  0  0  0  0
 47 44  1  0  0  0  0
 48 53  2  0  0  0  0
 49 53  1  0  0  0  0
 49 45  1  0  0  0  0
 50 52  1  0  0  0  0
 50 51  1  0  0  0  0
 51 54  1  6  0  0  0
 51 48  1  0  0  0  0
 52 49  2  0  0  0  0
M  END
>  <MODEL>
9

>  <REMARK>
 VINA RESULT:      -5.4      3.085      5.621
  Name = 
  20 active torsions:
  status: ('A' for Active; 'I' for Inactive)
    1  A    between atoms: C_3  and  N_5
    2  A    between atoms: C_3  and  P_11
    3  A    between atoms: N_6  and  C_10
    4  A    between atoms: N_8  and  C_13
    5  A    between atoms: C_9  and  C_22
    6  A    between atoms: C_10  and  S_53
    7  A    between atoms: P_11  and  P_25
    8  A    between atoms: P_11  and  C_35
    9  A    between atoms: C_15  and  N_17
   10  A    between atoms: C_15  and  N_29
   11  A    between atoms: C_15  and  C_48
   12  A    between atoms: N_17  and  C_23
   13  A    between atoms: C_20  and  S_33
   14  A    between atoms: C_20  and  C_34
   15  A    between atoms: C_23  and  C_39
   16  A    between atoms: S_33  and  C_37
   17  A    between atoms: C_34  and  C_35
   18  A    between atoms: C_39  and  C_51
   19  A    between atoms: C_42  and  S_53
   20  A    between atoms: C_45  and  C_47
                            x       y       z     vdW  Elec       q    Type
                         _______ _______ _______ _____ _____    ______ ____

>  <TORSDO>
F 20

$$$$
