=
 OpenBabel11042414373D

 46 52  0  0  1  0  0  0  0  0999 V2000
  189.6340  171.2350  138.8790 C   0  0  2  0  0  3  0  0  0  0  0  0
  189.5080  173.6370  139.4060 C   0  0  0  0  0  3  0  0  0  0  0  0
  189.8630  172.6790  138.5420 C   0  0  0  0  0  3  0  0  0  0  0  0
  191.2280  169.5450  138.4560 N   0  0  0  0  0  0  0  0  0  0  0  0
  189.8610  172.6060  141.6680 C   0  0  0  0  0  0  0  0  0  0  0  0
  188.8810  173.2840  140.7270 C   0  0  1  0  0  3  0  0  0  0  0  0
  190.5200  170.8690  140.0560 C   0  0  0  0  0  0  0  0  0  0  0  0
  191.4100  169.9680  139.7720 N   0  0  0  0  0  0  0  0  0  0  0  0
  190.2350  170.3190  137.8620 C   0  0  0  0  0  0  0  0  0  0  0  0
  190.2380  170.3250  136.5370 C   0  0  0  0  0  0  0  0  0  0  0  0
  190.5320  171.5410  141.3230 N   0  0  0  0  0  0  0  0  0  0  0  0
  192.2550  169.0860  137.5480 C   0  0  0  0  0  2  0  0  0  0  0  0
  191.5670  169.3260  135.8600 S   0  0  0  0  0  0  0  0  0  0  0  0
  186.6650  178.4770  142.8900 C   0  0  0  0  0  2  0  0  0  0  0  0
  186.9700  175.6710  142.5410 C   0  0  0  0  0  0  0  0  0  0  0  0
  187.3520  174.4050  142.3080 N   0  0  0  0  0  0  0  0  0  0  0  0
  188.4540  175.7260  140.9210 C   0  0  0  0  0  3  0  0  0  0  0  0
  187.4080  177.9970  141.6340 C   0  0  2  0  0  3  0  0  0  0  0  0
  187.6620  176.5240  141.7190 C   0  0  0  0  0  0  0  0  0  0  0  0
  188.2460  174.4550  141.3270 N   0  0  0  0  0  0  0  0  0  0  0  0
  188.6120  178.6890  141.5160 O   0  0  0  0  0  1  0  0  0  0  0  0
  186.0110  176.1290  143.5940 C   0  0  0  0  0  2  0  0  0  0  0  0
  185.5000  177.5370  143.2530 C   0  0  1  0  0  3  0  0  0  0  0  0
  184.8930  179.4400  144.2040 C   0  0  0  0  0  1  0  0  0  0  0  0
  184.7940  178.0540  144.3420 O   0  0  0  0  0  0  0  0  0  0  0  0
  190.0660  173.1640  143.0510 C   0  0  1  0  0  3  0  0  0  0  0  0
  189.5780  172.2090  144.1290 C   0  0  0  0  0  1  0  0  0  0  0  0
  191.5040  173.6300  143.2890 C   0  0  0  0  0  2  0  0  0  0  0  0
  191.9070  174.7620  142.3510 C   0  0  0  0  0  2  0  0  0  0  0  0
  192.5320  175.9150  143.1220 C   0  0  1  0  0  3  0  0  0  0  0  0
  190.4910  177.1770  143.9260 C   0  0  0  0  0  3  0  0  0  0  0  0
  191.3980  176.1240  147.9800 C   0  0  0  0  0  1  0  0  0  0  0  0
  189.6510  177.6030  144.9590 C   0  0  0  0  0  3  0  0  0  0  0  0
  191.0740  176.5040  146.5770 C   0  0  0  0  0  0  0  0  0  0  0  0
  189.0970  177.7050  147.2980 O   0  0  0  0  0  1  0  0  0  0  0  0
  189.9430  177.2740  146.2860 C   0  0  0  0  0  0  0  0  0  0  0  0
  191.9120  176.0780  145.5410 C   0  0  0  0  0  3  0  0  0  0  0  0
  191.6350  176.4230  144.2160 C   0  0  0  0  0  0  0  0  0  0  0  0
  194.6120  174.8240  142.7030 O   0  0  0  0  0  0  0  0  0  0  0  0
  193.8690  175.4840  143.6970 C   0  0  1  0  0  3  0  0  0  0  0  0
  194.9670  176.1550  142.9760 C   0  0  1  0  0  3  0  0  0  0  0  0
  197.1050  177.1220  143.3380 O   0  0  0  0  0  1  0  0  0  0  0  0
  196.2130  176.1710  143.8320 C   0  0  0  0  0  2  0  0  0  0  0  0
  189.3990  171.1340  135.7080 N   0  0  0  0  0  2  0  0  0  0  0  0
  190.1990  173.2550  134.5130 N   0  0  0  0  0  0  0  0  0  0  0  0
  189.8360  172.2960  135.0520 C   0  0  0  0  0  0  0  0  0  0  0  0
  1  3  1  6  0  0  0
  1  7  1  0  0  0  0
  3  2  2  0  0  0  0
  4  8  1  0  0  0  0
  5 26  1  0  0  0  0
  6  2  1  6  0  0  0
  6 20  1  0  0  0  0
  6  5  1  0  0  0  0
  7 11  1  0  0  0  0
  8  7  2  0  0  0  0
  9  4  1  0  0  0  0
  9  1  1  0  0  0  0
 10  9  2  0  0  0  0
 11  5  2  0  0  0  0
 12  4  1  0  0  0  0
 13 10  1  0  0  0  0
 13 12  1  0  0  0  0
 14 23  1  0  0  0  0
 15 22  1  0  0  0  0
 16 15  2  0  0  0  0
 17 20  1  0  0  0  0
 17 19  2  0  0  0  0
 18 21  1  1  0  0  0
 18 19  1  0  0  0  0
 18 14  1  0  0  0  0
 19 15  1  0  0  0  0
 20 16  1  0  0  0  0
 23 22  1  0  0  0  0
 23 25  1  1  0  0  0
 24 25  1  0  0  0  0
 26 28  1  0  0  0  0
 26 27  1  1  0  0  0
 29 28  1  0  0  0  0
 30 29  1  1  0  0  0
 30 38  1  0  0  0  0
 31 38  2  0  0  0  0
 31 33  1  0  0  0  0
 33 36  2  0  0  0  0
 34 32  1  0  0  0  0
 36 34  1  0  0  0  0
 36 35  1  0  0  0  0
 37 34  2  0  0  0  0
 38 37  1  0  0  0  0
 39 41  1  0  0  0  0
 39 40  1  0  0  0  0
 40 30  1  6  0  0  0
 41 40  1  0  0  0  0
 41 43  1  1  0  0  0
 42 43  1  0  0  0  0
 44 10  1  0  0  0  0
 45 46  3  0  0  0  0
 46 44  1  0  0  0  0
M  END
>  <MODEL>
1

>  <REMARK>
 VINA RESULT:      -7.3      0.000      0.000
  Name = 
  11 active torsions:
  status: ('A' for Active; 'I' for Inactive)
    1  A    between atoms: C_3  and  C_17
    2  A    between atoms: C_3  and  C_42
    3  A    between atoms: C_3  and  C_44
    4  A    between atoms: C_8  and  C_16
    5  A    between atoms: C_8  and  C_28
    6  A    between atoms: C_12  and  C_19
    7  A    between atoms: C_18  and  N_27
    8  A    between atoms: C_28  and  C_44
    9  A    between atoms: C_34  and  N_45
   10  A    between atoms: C_36  and  O_43
   11  A    between atoms: N_45  and  C_46
                            x       y       z     vdW  Elec       q    Type
                         _______ _______ _______ _____ _____    ______ ____

>  <TORSDO>
F 11

$$$$
=
 OpenBabel11042414373D

 46 52  0  0  1  0  0  0  0  0999 V2000
  189.2840  177.6340  144.0850 C   0  0  2  0  0  3  0  0  0  0  0  0
  190.7710  176.0620  142.9100 C   0  0  0  0  0  3  0  0  0  0  0  0
  189.5300  176.5150  143.1150 C   0  0  0  0  0  3  0  0  0  0  0  0
  187.4870  177.6420  145.6160 N   0  0  0  0  0  0  0  0  0  0  0  0
  191.9130  176.3280  145.1300 C   0  0  0  0  0  0  0  0  0  0  0  0
  191.9380  176.6590  143.6480 C   0  0  1  0  0  3  0  0  0  0  0  0
  189.6200  177.1430  145.4820 C   0  0  0  0  0  0  0  0  0  0  0  0
  188.5970  177.1220  146.2810 N   0  0  0  0  0  0  0  0  0  0  0  0
  187.8260  177.8910  144.2890 C   0  0  2  0  0  3  0  0  0  0  0  0
  186.8040  177.9860  143.4510 C   0  0  0  0  0  0  0  0  0  0  0  0
  190.8770  176.5820  145.8820 N   0  0  0  0  0  0  0  0  0  0  0  0
  186.1060  177.2690  145.8230 C   0  0  0  0  0  2  0  0  0  0  0  0
  185.2290  177.7400  144.2770 S   0  0  0  0  0  0  0  0  0  0  0  0
  197.4370  175.4910  141.4230 C   0  0  0  0  0  2  0  0  0  0  0  0
  194.6030  175.4180  141.6490 C   0  0  0  0  0  0  0  0  0  0  0  0
  193.2920  175.6080  141.8730 N   0  0  0  0  0  0  0  0  0  0  0  0
  194.4190  176.5430  143.5280 C   0  0  0  0  0  3  0  0  0  0  0  0
  196.8240  175.9110  142.7670 C   0  0  2  0  0  3  0  0  0  0  0  0
  195.3350  176.0180  142.6420 C   0  0  0  0  0  0  0  0  0  0  0  0
  193.1980  176.2870  143.0110 N   0  0  0  0  0  0  0  0  0  0  0  0
  197.3650  177.1330  143.1610 O   0  0  0  0  0  1  0  0  0  0  0  0
  195.2120  174.7450  140.4600 C   0  0  0  0  0  2  0  0  0  0  0  0
  196.6550  174.3290  140.7820 C   0  0  1  0  0  3  0  0  0  0  0  0
  197.4510  175.0840  138.8600 C   0  0  0  0  0  1  0  0  0  0  0  0
  197.2950  173.9170  139.6100 O   0  0  0  0  0  0  0  0  0  0  0  0
  193.1210  175.6940  145.7670 C   0  0  1  0  0  3  0  0  0  0  0  0
  193.5770  176.4530  147.0040 C   0  0  0  0  0  1  0  0  0  0  0  0
  192.9290  174.2000  146.0340 C   0  0  0  0  0  2  0  0  0  0  0  0
  193.6360  173.3330  144.9990 C   0  0  0  0  0  2  0  0  0  0  0  0
  192.8800  172.0330  144.7660 C   0  0  1  0  0  3  0  0  0  0  0  0
  190.4060  172.1560  144.2470 C   0  0  0  0  0  3  0  0  0  0  0  0
  191.2800  172.9660  140.1300 C   0  0  0  0  0  1  0  0  0  0  0  0
  189.3600  172.3580  143.3410 C   0  0  0  0  0  3  0  0  0  0  0  0
  190.9600  172.6780  141.5560 C   0  0  0  0  0  0  0  0  0  0  0  0
  188.5820  172.8110  141.1100 O   0  0  0  0  0  1  0  0  0  0  0  0
  189.6330  172.6130  141.9940 C   0  0  0  0  0  0  0  0  0  0  0  0
  192.0040  172.4780  142.4640 C   0  0  0  0  0  3  0  0  0  0  0  0
  191.7350  172.2020  143.8070 C   0  0  0  0  0  0  0  0  0  0  0  0
  195.1310  171.2440  144.7280 O   0  0  0  0  0  0  0  0  0  0  0  0
  193.8340  170.9660  144.2610 C   0  0  1  0  0  3  0  0  0  0  0  0
  194.4210  170.2360  145.4010 C   0  0  1  0  0  3  0  0  0  0  0  0
  195.7750  168.3540  145.9130 O   0  0  0  0  0  1  0  0  0  0  0  0
  194.9230  168.8860  144.9450 C   0  0  0  0  0  2  0  0  0  0  0  0
  186.9030  178.1170  142.0300 N   0  0  0  0  0  0  0  0  0  0  0  0
  184.8790  178.2000  140.4610 N   0  0  0  0  0  0  0  0  0  0  0  0
  185.7940  178.1600  141.1710 C   0  0  0  0  0  0  0  0  0  0  0  0
  1  3  1  6  0  0  0
  1  9  1  0  0  0  0
  1  7  1  0  0  0  0
  2  3  2  0  0  0  0
  4 12  1  0  0  0  0
  4  8  1  0  0  0  0
  5 26  1  0  0  0  0
  5 11  2  0  0  0  0
  6  2  1  6  0  0  0
  6  5  1  0  0  0  0
  7 11  1  0  0  0  0
  7  8  2  0  0  0  0
  9 10  1  6  0  0  0
  9  4  1  0  0  0  0
 10 13  1  0  0  0  0
 13 12  1  0  0  0  0
 14 18  1  0  0  0  0
 15 16  2  0  0  0  0
 15 19  1  0  0  0  0
 16 20  1  0  0  0  0
 18 21  1  6  0  0  0
 19 18  1  0  0  0  0
 19 17  2  0  0  0  0
 20 17  1  0  0  0  0
 20  6  1  0  0  0  0
 22 23  1  0  0  0  0
 22 15  1  0  0  0  0
 23 25  1  6  0  0  0
 23 14  1  0  0  0  0
 24 25  1  0  0  0  0
 26 28  1  0  0  0  0
 26 27  1  1  0  0  0
 29 28  1  0  0  0  0
 30 29  1  6  0  0  0
 32 34  1  0  0  0  0
 33 31  2  0  0  0  0
 34 36  2  0  0  0  0
 34 37  1  0  0  0  0
 35 36  1  0  0  0  0
 36 33  1  0  0  0  0
 37 38  2  0  0  0  0
 38 31  1  0  0  0  0
 38 30  1  0  0  0  0
 39 41  1  0  0  0  0
 40 39  1  0  0  0  0
 40 30  1  1  0  0  0
 40 41  1  0  0  0  0
 41 43  1  6  0  0  0
 43 42  1  0  0  0  0
 44 10  2  0  0  0  0
 45 46  3  0  0  0  0
 46 44  1  0  0  0  0
M  END
>  <MODEL>
2

>  <REMARK>
 VINA RESULT:      -7.2      4.173      8.324
  Name = 
  11 active torsions:
  status: ('A' for Active; 'I' for Inactive)
    1  A    between atoms: C_3  and  C_17
    2  A    between atoms: C_3  and  C_42
    3  A    between atoms: C_3  and  C_44
    4  A    between atoms: C_8  and  C_16
    5  A    between atoms: C_8  and  C_28
    6  A    between atoms: C_12  and  C_19
    7  A    between atoms: C_18  and  N_27
    8  A    between atoms: C_28  and  C_44
    9  A    between atoms: C_34  and  N_45
   10  A    between atoms: C_36  and  O_43
   11  A    between atoms: N_45  and  C_46
                            x       y       z     vdW  Elec       q    Type
                         _______ _______ _______ _____ _____    ______ ____

>  <TORSDO>
F 11

$$$$
=
 OpenBabel11042414373D

 46 52  0  0  1  0  0  0  0  0999 V2000
  189.0960  177.3280  144.7000 C   0  0  2  0  0  3  0  0  0  0  0  0
  190.2750  175.6440  143.3440 C   0  0  0  0  0  3  0  0  0  0  0  0
  189.1170  176.1080  143.8260 C   0  0  0  0  0  3  0  0  0  0  0  0
  187.7730  177.4960  146.6470 N   0  0  0  0  0  0  0  0  0  0  0  0
  191.9560  176.1690  145.1340 C   0  0  0  0  0  0  0  0  0  0  0  0
  191.5730  176.3300  143.6730 C   0  0  1  0  0  3  0  0  0  0  0  0
  189.8100  177.0010  145.9990 C   0  0  0  0  0  0  0  0  0  0  0  0
  189.0380  177.0640  147.0420 N   0  0  0  0  0  0  0  0  0  0  0  0
  187.7360  177.5950  145.2600 C   0  0  0  0  0  0  0  0  0  0  0  0
  186.5260  177.5870  144.7220 C   0  0  0  0  0  0  0  0  0  0  0  0
  191.1490  176.5000  146.1050 N   0  0  0  0  0  0  0  0  0  0  0  0
  186.5110  177.1390  147.2570 C   0  0  0  0  0  2  0  0  0  0  0  0
  185.2380  177.4240  145.9620 S   0  0  0  0  0  0  0  0  0  0  0  0
  196.2720  175.0440  140.0910 C   0  0  0  0  0  2  0  0  0  0  0  0
  193.7000  174.7850  141.2810 C   0  0  0  0  0  0  0  0  0  0  0  0
  192.5060  174.9140  141.8800 N   0  0  0  0  0  0  0  0  0  0  0  0
  193.8800  176.4100  142.7500 C   0  0  0  0  0  3  0  0  0  0  0  0
  196.0210  175.7970  141.4070 C   0  0  2  0  0  3  0  0  0  0  0  0
  194.5710  175.7240  141.7730 C   0  0  0  0  0  0  0  0  0  0  0  0
  192.6310  175.8970  142.7640 N   0  0  0  0  0  0  0  0  0  0  0  0
  196.4170  177.1260  141.2620 O   0  0  0  0  0  1  0  0  0  0  0  0
  194.0400  173.8390  140.1730 C   0  0  0  0  0  2  0  0  0  0  0  0
  195.5650  173.6750  140.0800 C   0  0  1  0  0  3  0  0  0  0  0  0
  195.5020  173.8350  137.8740 C   0  0  0  0  0  1  0  0  0  0  0  0
  195.8900  172.9840  138.9100 O   0  0  0  0  0  0  0  0  0  0  0  0
  193.3130  175.6210  145.4870 C   0  0  1  0  0  3  0  0  0  0  0  0
  194.0290  176.4890  146.5110 C   0  0  0  0  0  1  0  0  0  0  0  0
  193.2630  174.1490  145.9000 C   0  0  0  0  0  2  0  0  0  0  0  0
  194.1200  173.2680  144.9980 C   0  0  0  0  0  2  0  0  0  0  0  0
  193.5380  171.8640  144.8940 C   0  0  1  0  0  3  0  0  0  0  0  0
  193.1230  171.1640  142.4980 C   0  0  0  0  0  3  0  0  0  0  0  0
  188.9900  172.2380  142.8700 C   0  0  0  0  0  1  0  0  0  0  0  0
  192.2580  170.9890  141.4130 C   0  0  0  0  0  3  0  0  0  0  0  0
  190.4250  171.8670  142.7230 C   0  0  0  0  0  0  0  0  0  0  0  0
  190.0690  171.1620  140.4320 O   0  0  0  0  0  1  0  0  0  0  0  0
  190.9110  171.3450  141.5200 C   0  0  0  0  0  0  0  0  0  0  0  0
  191.2910  172.0400  143.8070 C   0  0  0  0  0  3  0  0  0  0  0  0
  192.6420  171.7050  143.6980 C   0  0  0  0  0  0  0  0  0  0  0  0
  195.4800  171.0030  145.9800 O   0  0  0  0  0  0  0  0  0  0  0  0
  194.6620  170.8450  144.8480 C   0  0  1  0  0  3  0  0  0  0  0  0
  194.5650  169.9370  146.0070 C   0  0  1  0  0  3  0  0  0  0  0  0
  196.0350  168.2660  146.8340 O   0  0  0  0  0  1  0  0  0  0  0  0
  195.2960  168.6470  145.7150 C   0  0  0  0  0  2  0  0  0  0  0  0
  186.2380  177.5550  143.3210 N   0  0  0  0  0  2  0  0  0  0  0  0
  183.9360  178.0820  142.3270 N   0  0  0  0  0  0  0  0  0  0  0  0
  184.9770  177.8460  142.7760 C   0  0  0  0  0  0  0  0  0  0  0  0
  1  3  1  6  0  0  0
  1  9  1  0  0  0  0
  1  7  1  0  0  0  0
  2  6  1  0  0  0  0
  2  3  2  0  0  0  0
  4  8  1  0  0  0  0
  4 12  1  0  0  0  0
  5 26  1  0  0  0  0
  5 11  2  0  0  0  0
  6 20  1  6  0  0  0
  6  5  1  0  0  0  0
  7 11  1  0  0  0  0
  7  8  2  0  0  0  0
  9  4  1  0  0  0  0
 10  9  2  0  0  0  0
 10 13  1  0  0  0  0
 13 12  1  0  0  0  0
 14 18  1  0  0  0  0
 15 19  1  0  0  0  0
 15 16  2  0  0  0  0
 16 20  1  0  0  0  0
 17 20  1  0  0  0  0
 18 21  1  6  0  0  0
 18 19  1  0  0  0  0
 19 17  2  0  0  0  0
 22 15  1  0  0  0  0
 23 25  1  6  0  0  0
 23 14  1  0  0  0  0
 23 22  1  0  0  0  0
 24 25  1  0  0  0  0
 26 28  1  0  0  0  0
 26 27  1  1  0  0  0
 29 28  1  0  0  0  0
 30 29  1  6  0  0  0
 31 38  1  0  0  0  0
 33 36  1  0  0  0  0
 33 31  2  0  0  0  0
 34 32  1  0  0  0  0
 34 37  1  0  0  0  0
 35 36  1  0  0  0  0
 36 34  2  0  0  0  0
 38 37  2  0  0  0  0
 38 30  1  0  0  0  0
 39 41  1  0  0  0  0
 40 30  1  1  0  0  0
 40 39  1  0  0  0  0
 40 41  1  0  0  0  0
 41 43  1  6  0  0  0
 43 42  1  0  0  0  0
 44 10  1  0  0  0  0
 45 46  3  0  0  0  0
 46 44  1  0  0  0  0
M  END
>  <MODEL>
3

>  <REMARK>
 VINA RESULT:      -7.1      4.480      8.474
  Name = 
  11 active torsions:
  status: ('A' for Active; 'I' for Inactive)
    1  A    between atoms: C_3  and  C_17
    2  A    between atoms: C_3  and  C_42
    3  A    between atoms: C_3  and  C_44
    4  A    between atoms: C_8  and  C_16
    5  A    between atoms: C_8  and  C_28
    6  A    between atoms: C_12  and  C_19
    7  A    between atoms: C_18  and  N_27
    8  A    between atoms: C_28  and  C_44
    9  A    between atoms: C_34  and  N_45
   10  A    between atoms: C_36  and  O_43
   11  A    between atoms: N_45  and  C_46
                            x       y       z     vdW  Elec       q    Type
                         _______ _______ _______ _____ _____    ______ ____

>  <TORSDO>
F 11

$$$$
=
 OpenBabel11042414373D

 46 52  0  0  1  0  0  0  0  0999 V2000
  188.0470  178.0340  145.1720 C   0  0  2  0  0  3  0  0  0  0  0  0
  189.4950  176.7250  143.6710 C   0  0  0  0  0  3  0  0  0  0  0  0
  188.2880  177.2440  143.9190 C   0  0  0  0  0  3  0  0  0  0  0  0
  186.1050  177.7960  146.4920 N   0  0  0  0  0  0  0  0  0  0  0  0
  190.4110  176.1540  145.9380 C   0  0  0  0  0  0  0  0  0  0  0  0
  190.6270  176.9170  144.6430 C   0  0  1  0  0  3  0  0  0  0  0  0
  188.1820  177.1010  146.3620 C   0  0  0  0  0  0  0  0  0  0  0  0
  187.0810  176.9640  147.0370 N   0  0  0  0  0  0  0  0  0  0  0  0
  186.6060  178.3960  145.3410 C   0  0  0  0  0  0  0  0  0  0  0  0
  185.6950  178.8690  144.5040 C   0  0  0  0  0  0  0  0  0  0  0  0
  189.3300  176.2930  146.6550 N   0  0  0  0  0  0  0  0  0  0  0  0
  184.6790  177.5530  146.4700 C   0  0  0  0  0  2  0  0  0  0  0  0
  184.0240  178.5800  145.0930 S   0  0  0  0  0  0  0  0  0  0  0  0
  195.5980  175.3480  141.5780 C   0  0  0  0  0  2  0  0  0  0  0  0
  194.0140  176.4180  143.6860 C   0  0  0  0  0  0  0  0  0  0  0  0
  193.0900  176.7580  144.5980 N   0  0  0  0  0  0  0  0  0  0  0  0
  192.0450  176.1660  142.7430 C   0  0  0  0  0  3  0  0  0  0  0  0
  194.1260  175.6630  141.2680 C   0  0  2  0  0  3  0  0  0  0  0  0
  193.3980  176.0100  142.5300 C   0  0  0  0  0  0  0  0  0  0  0  0
  191.9070  176.6030  144.0130 N   0  0  0  0  0  0  0  0  0  0  0  0
  193.5360  174.5590  140.6570 O   0  0  0  0  0  1  0  0  0  0  0  0
  195.4950  176.3810  143.8930 C   0  0  0  0  0  2  0  0  0  0  0  0
  196.2100  176.3900  142.5340 C   0  0  1  0  0  3  0  0  0  0  0  0
  197.6010  174.9800  143.5200 C   0  0  0  0  0  1  0  0  0  0  0  0
  197.5690  176.1220  142.7190 O   0  0  0  0  0  0  0  0  0  0  0  0
  191.4780  175.2100  146.4270 C   0  0  1  0  0  3  0  0  0  0  0  0
  191.6620  175.2920  147.9350 C   0  0  0  0  0  1  0  0  0  0  0  0
  191.2600  173.7760  145.9420 C   0  0  0  0  0  2  0  0  0  0  0  0
  192.2970  173.3550  144.9060 C   0  0  0  0  0  2  0  0  0  0  0  0
  191.8920  172.0560  144.2240 C   0  0  1  0  0  3  0  0  0  0  0  0
  191.5550  171.8200  141.7270 C   0  0  0  0  0  3  0  0  0  0  0  0
  187.7820  173.8350  142.0160 C   0  0  0  0  0  1  0  0  0  0  0  0
  190.7820  172.0190  140.5790 C   0  0  0  0  0  3  0  0  0  0  0  0
  189.0940  173.1400  141.8990 C   0  0  0  0  0  0  0  0  0  0  0  0
  188.8040  172.8710  139.5080 O   0  0  0  0  0  1  0  0  0  0  0  0
  189.5550  172.6840  140.6590 C   0  0  0  0  0  0  0  0  0  0  0  0
  189.8680  172.9390  143.0460 C   0  0  0  0  0  3  0  0  0  0  0  0
  191.1040  172.2930  142.9670 C   0  0  0  0  0  0  0  0  0  0  0  0
  193.8390  171.0030  145.1120 O   0  0  0  0  0  0  0  0  0  0  0  0
  193.1260  171.2270  143.9210 C   0  0  1  0  0  3  0  0  0  0  0  0
  193.0560  169.9380  144.6360 C   0  0  1  0  0  3  0  0  0  0  0  0
  193.2030  168.1710  143.0580 O   0  0  0  0  0  1  0  0  0  0  0  0
  193.9510  168.9240  143.9620 C   0  0  0  0  0  2  0  0  0  0  0  0
  185.9590  179.4150  143.2090 N   0  0  0  0  0  2  0  0  0  0  0  0
  185.5380  178.1530  141.0190 N   0  0  0  0  0  0  0  0  0  0  0  0
  185.7300  178.7240  142.0080 C   0  0  0  0  0  0  0  0  0  0  0  0
  1  3  1  6  0  0  0
  1  9  1  0  0  0  0
  1  7  1  0  0  0  0
  2  3  2  0  0  0  0
  4  8  1  0  0  0  0
  5 26  1  0  0  0  0
  5 11  2  0  0  0  0
  6  2  1  6  0  0  0
  6  5  1  0  0  0  0
  7 11  1  0  0  0  0
  7  8  2  0  0  0  0
  9  4  1  0  0  0  0
 10 13  1  0  0  0  0
 10  9  2  0  0  0  0
 12  4  1  0  0  0  0
 13 12  1  0  0  0  0
 14 23  1  0  0  0  0
 15 22  1  0  0  0  0
 15 16  2  0  0  0  0
 17 20  1  0  0  0  0
 18 21  1  1  0  0  0
 18 14  1  0  0  0  0
 18 19  1  0  0  0  0
 19 17  2  0  0  0  0
 19 15  1  0  0  0  0
 20 16  1  0  0  0  0
 20  6  1  0  0  0  0
 23 25  1  1  0  0  0
 23 22  1  0  0  0  0
 25 24  1  0  0  0  0
 26 27  1  1  0  0  0
 28 26  1  0  0  0  0
 29 28  1  0  0  0  0
 30 29  1  6  0  0  0
 31 38  1  0  0  0  0
 33 36  1  0  0  0  0
 33 31  2  0  0  0  0
 34 32  1  0  0  0  0
 34 37  1  0  0  0  0
 35 36  1  0  0  0  0
 36 34  2  0  0  0  0
 38 37  2  0  0  0  0
 38 30  1  0  0  0  0
 40 30  1  1  0  0  0
 40 41  1  0  0  0  0
 40 39  1  0  0  0  0
 41 43  1  6  0  0  0
 41 39  1  0  0  0  0
 42 43  1  0  0  0  0
 44 10  1  0  0  0  0
 45 46  3  0  0  0  0
 46 44  1  0  0  0  0
M  END
>  <MODEL>
4

>  <REMARK>
 VINA RESULT:      -6.9      4.558      8.455
  Name = 
  11 active torsions:
  status: ('A' for Active; 'I' for Inactive)
    1  A    between atoms: C_3  and  C_17
    2  A    between atoms: C_3  and  C_42
    3  A    between atoms: C_3  and  C_44
    4  A    between atoms: C_8  and  C_16
    5  A    between atoms: C_8  and  C_28
    6  A    between atoms: C_12  and  C_19
    7  A    between atoms: C_18  and  N_27
    8  A    between atoms: C_28  and  C_44
    9  A    between atoms: C_34  and  N_45
   10  A    between atoms: C_36  and  O_43
   11  A    between atoms: N_45  and  C_46
                            x       y       z     vdW  Elec       q    Type
                         _______ _______ _______ _____ _____    ______ ____

>  <TORSDO>
F 11

$$$$
=
 OpenBabel11042414373D

 46 52  0  0  1  0  0  0  0  0999 V2000
  190.0960  171.2450  138.8240 C   0  0  2  0  0  3  0  0  0  0  0  0
  190.7010  173.3930  139.8640 C   0  0  0  0  0  3  0  0  0  0  0  0
  190.8000  172.5700  138.8150 C   0  0  0  0  0  3  0  0  0  0  0  0
  191.0950  169.2490  138.0540 N   0  0  0  0  0  0  0  0  0  0  0  0
  190.5270  171.8630  141.8480 C   0  0  0  0  0  0  0  0  0  0  0  0
  189.8920  173.0040  141.0710 C   0  0  1  0  0  3  0  0  0  0  0  0
  190.7220  170.3750  139.9000 C   0  0  0  0  0  0  0  0  0  0  0  0
  191.2970  169.3100  139.4320 N   0  0  0  0  0  0  0  0  0  0  0  0
  190.4520  170.4100  137.6360 C   0  0  0  0  0  0  0  0  0  0  0  0
  190.5610  170.6860  136.3450 C   0  0  0  0  0  0  0  0  0  0  0  0
  190.8480  170.7320  141.2830 N   0  0  0  0  0  0  0  0  0  0  0  0
  191.9910  168.6740  137.0760 C   0  0  0  0  0  2  0  0  0  0  0  0
  191.5510  169.4670  135.4760 S   0  0  0  0  0  0  0  0  0  0  0  0
  189.3660  177.9720  144.4770 C   0  0  0  0  0  2  0  0  0  0  0  0
  188.5960  175.5700  143.1630 C   0  0  0  0  0  0  0  0  0  0  0  0
  188.4800  174.3760  142.5600 N   0  0  0  0  0  0  0  0  0  0  0  0
  190.4720  175.2020  142.0780 C   0  0  0  0  0  3  0  0  0  0  0  0
  190.2690  177.4660  143.3410 C   0  0  2  0  0  3  0  0  0  0  0  0
  189.8380  176.0970  142.9130 C   0  0  0  0  0  0  0  0  0  0  0  0
  189.6180  174.1700  141.9080 N   0  0  0  0  0  0  0  0  0  0  0  0
  191.5920  177.4420  143.7780 O   0  0  0  0  0  1  0  0  0  0  0  0
  187.5860  176.2140  144.0590 C   0  0  0  0  0  2  0  0  0  0  0  0
  187.8780  177.7180  144.1730 C   0  0  1  0  0  3  0  0  0  0  0  0
  185.9970  177.4070  145.2960 C   0  0  0  0  0  1  0  0  0  0  0  0
  187.0870  178.2720  145.1820 O   0  0  0  0  0  0  0  0  0  0  0  0
  190.7890  172.0280  143.3210 C   0  0  1  0  0  3  0  0  0  0  0  0
  189.5630  171.6950  144.1590 C   0  0  0  0  0  1  0  0  0  0  0  0
  192.0360  171.2730  143.7840 C   0  0  0  0  0  2  0  0  0  0  0  0
  192.9370  172.1320  144.6640 C   0  0  0  0  0  2  0  0  0  0  0  0
  192.8930  173.5910  144.2320 C   0  0  1  0  0  3  0  0  0  0  0  0
  193.3760  175.4120  145.9200 C   0  0  0  0  0  3  0  0  0  0  0  0
  189.2950  175.3230  147.2290 C   0  0  0  0  0  1  0  0  0  0  0  0
  192.9500  176.2800  146.9310 C   0  0  0  0  0  3  0  0  0  0  0  0
  190.7180  175.3610  146.7900 C   0  0  0  0  0  0  0  0  0  0  0  0
  191.2210  177.1230  148.3750 O   0  0  0  0  0  1  0  0  0  0  0  0
  191.6250  176.2530  147.3720 C   0  0  0  0  0  0  0  0  0  0  0  0
  191.1460  174.4950  145.7780 C   0  0  0  0  0  3  0  0  0  0  0  0
  192.4750  174.5050  145.3490 C   0  0  0  0  0  0  0  0  0  0  0  0
  194.5460  173.2510  142.5460 O   0  0  0  0  0  0  0  0  0  0  0  0
  194.2490  174.0080  143.6920 C   0  0  1  0  0  3  0  0  0  0  0  0
  194.1000  174.5660  142.3350 C   0  0  1  0  0  3  0  0  0  0  0  0
  195.2980  175.7160  140.6370 O   0  0  0  0  0  1  0  0  0  0  0  0
  195.2840  175.4450  142.0060 C   0  0  0  0  0  2  0  0  0  0  0  0
  190.0930  171.8770  135.7060 N   0  0  0  0  0  2  0  0  0  0  0  0
  191.6350  173.6060  134.6120 N   0  0  0  0  0  0  0  0  0  0  0  0
  190.9370  172.8260  135.1080 C   0  0  0  0  0  0  0  0  0  0  0  0
  1  3  1  6  0  0  0
  1  7  1  0  0  0  0
  3  2  2  0  0  0  0
  4  8  1  0  0  0  0
  5 26  1  0  0  0  0
  6  2  1  6  0  0  0
  6  5  1  0  0  0  0
  6 20  1  0  0  0  0
  7 11  1  0  0  0  0
  8  7  2  0  0  0  0
  9  4  1  0  0  0  0
  9  1  1  0  0  0  0
 10  9  2  0  0  0  0
 11  5  2  0  0  0  0
 12  4  1  0  0  0  0
 13 10  1  0  0  0  0
 13 12  1  0  0  0  0
 15 22  1  0  0  0  0
 16 15  2  0  0  0  0
 17 19  2  0  0  0  0
 18 21  1  1  0  0  0
 18 14  1  0  0  0  0
 19 15  1  0  0  0  0
 19 18  1  0  0  0  0
 20 17  1  0  0  0  0
 20 16  1  0  0  0  0
 22 23  1  0  0  0  0
 23 14  1  0  0  0  0
 23 25  1  1  0  0  0
 25 24  1  0  0  0  0
 26 28  1  0  0  0  0
 26 27  1  1  0  0  0
 28 29  1  0  0  0  0
 30 29  1  1  0  0  0
 30 38  1  0  0  0  0
 31 33  1  0  0  0  0
 33 36  2  0  0  0  0
 34 32  1  0  0  0  0
 34 36  1  0  0  0  0
 36 35  1  0  0  0  0
 37 34  2  0  0  0  0
 38 37  1  0  0  0  0
 38 31  2  0  0  0  0
 39 40  1  0  0  0  0
 40 30  1  6  0  0  0
 41 43  1  1  0  0  0
 41 39  1  0  0  0  0
 41 40  1  0  0  0  0
 42 43  1  0  0  0  0
 44 10  1  0  0  0  0
 45 46  3  0  0  0  0
 46 44  1  0  0  0  0
M  END
>  <MODEL>
5

>  <REMARK>
 VINA RESULT:      -6.8      1.665      2.102
  Name = 
  11 active torsions:
  status: ('A' for Active; 'I' for Inactive)
    1  A    between atoms: C_3  and  C_17
    2  A    between atoms: C_3  and  C_42
    3  A    between atoms: C_3  and  C_44
    4  A    between atoms: C_8  and  C_16
    5  A    between atoms: C_8  and  C_28
    6  A    between atoms: C_12  and  C_19
    7  A    between atoms: C_18  and  N_27
    8  A    between atoms: C_28  and  C_44
    9  A    between atoms: C_34  and  N_45
   10  A    between atoms: C_36  and  O_43
   11  A    between atoms: N_45  and  C_46
                            x       y       z     vdW  Elec       q    Type
                         _______ _______ _______ _____ _____    ______ ____

>  <TORSDO>
F 11

$$$$
=
 OpenBabel11042414373D

 46 52  0  0  1  0  0  0  0  0999 V2000
  190.6820  170.9790  139.7390 C   0  0  2  0  0  3  0  0  0  0  0  0
  190.7300  173.3640  140.3470 C   0  0  0  0  0  3  0  0  0  0  0  0
  191.2380  172.3670  139.6150 C   0  0  0  0  0  3  0  0  0  0  0  0
  192.0400  169.0500  139.8280 N   0  0  0  0  0  0  0  0  0  0  0  0
  190.0330  172.2730  142.4990 C   0  0  0  0  0  0  0  0  0  0  0  0
  189.6010  173.1120  141.3090 C   0  0  1  0  0  3  0  0  0  0  0  0
  190.9850  170.4620  141.1340 C   0  0  0  0  0  0  0  0  0  0  0  0
  191.7680  169.4260  141.1420 N   0  0  0  0  0  0  0  0  0  0  0  0
  191.4790  169.9820  138.9610 C   0  0  0  0  0  0  0  0  0  0  0  0
  191.9880  169.9970  137.7380 C   0  0  0  0  0  0  0  0  0  0  0  0
  190.6150  171.1140  142.3570 N   0  0  0  0  0  0  0  0  0  0  0  0
  193.2540  168.4320  139.3420 C   0  0  0  0  0  2  0  0  0  0  0  0
  193.3060  168.7950  137.5400 S   0  0  0  0  0  0  0  0  0  0  0  0
  187.5700  178.5310  143.0620 C   0  0  0  0  0  2  0  0  0  0  0  0
  187.4780  175.8230  142.1940 C   0  0  0  0  0  0  0  0  0  0  0  0
  187.6650  174.5280  141.8920 N   0  0  0  0  0  0  0  0  0  0  0  0
  189.6350  175.5310  141.8840 C   0  0  0  0  0  3  0  0  0  0  0  0
  188.8430  177.9470  142.4310 C   0  0  2  0  0  3  0  0  0  0  0  0
  188.6870  176.4700  142.2330 C   0  0  0  0  0  0  0  0  0  0  0  0
  188.9710  174.3680  141.7070 N   0  0  0  0  0  0  0  0  0  0  0  0
  189.9330  178.2110  143.2580 O   0  0  0  0  0  1  0  0  0  0  0  0
  186.1770  176.4760  142.5370 C   0  0  0  0  0  2  0  0  0  0  0  0
  186.3000  177.9980  142.3710 C   0  0  1  0  0  3  0  0  0  0  0  0
  185.6570  179.3780  143.9760 C   0  0  0  0  0  1  0  0  0  0  0  0
  185.1710  178.6190  142.9100 O   0  0  0  0  0  0  0  0  0  0  0  0
  189.7770  172.7800  143.8930 C   0  0  1  0  0  3  0  0  0  0  0  0
  189.3180  171.6700  144.8270 C   0  0  0  0  0  1  0  0  0  0  0  0
  190.9600  173.5680  144.4580 C   0  0  0  0  0  2  0  0  0  0  0  0
  190.6240  174.2420  145.7830 C   0  0  0  0  0  2  0  0  0  0  0  0
  190.7970  175.7510  145.6880 C   0  0  1  0  0  3  0  0  0  0  0  0
  189.8220  177.5910  147.1260 C   0  0  0  0  0  3  0  0  0  0  0  0
  185.8580  176.4190  145.9900 C   0  0  0  0  0  1  0  0  0  0  0  0
  188.7190  178.2930  147.6220 C   0  0  0  0  0  3  0  0  0  0  0  0
  187.2290  176.8340  146.3990 C   0  0  0  0  0  0  0  0  0  0  0  0
  186.3410  178.6240  147.7700 O   0  0  0  0  0  1  0  0  0  0  0  0
  187.4220  177.9140  147.2670 C   0  0  0  0  0  0  0  0  0  0  0  0
  188.3330  176.1340  145.9020 C   0  0  0  0  0  3  0  0  0  0  0  0
  189.6300  176.4970  146.2720 C   0  0  0  0  0  0  0  0  0  0  0  0
  193.0510  175.1620  146.2010 O   0  0  0  0  0  0  0  0  0  0  0  0
  192.0830  176.1660  146.3780 C   0  0  1  0  0  3  0  0  0  0  0  0
  193.1670  176.3000  145.3860 C   0  0  1  0  0  3  0  0  0  0  0  0
  195.3200  177.2330  145.0270 O   0  0  0  0  0  1  0  0  0  0  0  0
  194.2580  177.1920  145.9300 C   0  0  0  0  0  2  0  0  0  0  0  0
  191.6620  170.9400  136.7130 N   0  0  0  0  0  2  0  0  0  0  0  0
  189.3180  171.2040  135.7130 N   0  0  0  0  0  0  0  0  0  0  0  0
  190.3780  171.0860  136.1640 C   0  0  0  0  0  0  0  0  0  0  0  0
  1  3  1  1  0  0  0
  1  7  1  0  0  0  0
  3  2  2  0  0  0  0
  4  8  1  0  0  0  0
  5 26  1  0  0  0  0
  6  2  1  6  0  0  0
  6 20  1  0  0  0  0
  6  5  1  0  0  0  0
  7  8  2  0  0  0  0
  7 11  1  0  0  0  0
  9  1  1  0  0  0  0
  9  4  1  0  0  0  0
 10  9  2  0  0  0  0
 11  5  2  0  0  0  0
 12  4  1  0  0  0  0
 13 10  1  0  0  0  0
 13 12  1  0  0  0  0
 15 19  1  0  0  0  0
 15 22  1  0  0  0  0
 16 15  2  0  0  0  0
 17 19  2  0  0  0  0
 18 14  1  0  0  0  0
 18 21  1  1  0  0  0
 19 18  1  0  0  0  0
 20 17  1  0  0  0  0
 20 16  1  0  0  0  0
 23 22  1  0  0  0  0
 23 25  1  1  0  0  0
 23 14  1  0  0  0  0
 25 24  1  0  0  0  0
 26 28  1  0  0  0  0
 26 27  1  1  0  0  0
 28 29  1  0  0  0  0
 30 29  1  1  0  0  0
 30 38  1  0  0  0  0
 31 33  1  0  0  0  0
 32 34  1  0  0  0  0
 34 36  1  0  0  0  0
 36 33  2  0  0  0  0
 36 35  1  0  0  0  0
 37 38  1  0  0  0  0
 37 34  2  0  0  0  0
 38 31  2  0  0  0  0
 39 40  1  0  0  0  0
 40 30  1  6  0  0  0
 41 43  1  1  0  0  0
 41 39  1  0  0  0  0
 41 40  1  0  0  0  0
 42 43  1  0  0  0  0
 44 10  1  0  0  0  0
 45 46  3  0  0  0  0
 46 44  1  0  0  0  0
M  END
>  <MODEL>
6

>  <REMARK>
 VINA RESULT:      -6.8      1.699      2.349
  Name = 
  11 active torsions:
  status: ('A' for Active; 'I' for Inactive)
    1  A    between atoms: C_3  and  C_17
    2  A    between atoms: C_3  and  C_42
    3  A    between atoms: C_3  and  C_44
    4  A    between atoms: C_8  and  C_16
    5  A    between atoms: C_8  and  C_28
    6  A    between atoms: C_12  and  C_19
    7  A    between atoms: C_18  and  N_27
    8  A    between atoms: C_28  and  C_44
    9  A    between atoms: C_34  and  N_45
   10  A    between atoms: C_36  and  O_43
   11  A    between atoms: N_45  and  C_46
                            x       y       z     vdW  Elec       q    Type
                         _______ _______ _______ _____ _____    ______ ____

>  <TORSDO>
F 11

$$$$
=
 OpenBabel11042414373D

 46 52  0  0  1  0  0  0  0  0999 V2000
  187.7290  175.1870  142.7730 C   0  0  2  0  0  3  0  0  0  0  0  0
  189.9610  174.8580  143.7580 C   0  0  0  0  0  3  0  0  0  0  0  0
  188.8640  175.6160  143.6550 C   0  0  0  0  0  3  0  0  0  0  0  0
  186.5660  176.6730  141.3530 N   0  0  0  0  0  0  0  0  0  0  0  0
  190.2080  173.7980  141.4950 C   0  0  0  0  0  0  0  0  0  0  0  0
  190.0780  173.5690  142.9910 C   0  0  1  0  0  3  0  0  0  0  0  0
  188.2030  175.2120  141.3310 C   0  0  0  0  0  0  0  0  0  0  0  0
  187.5680  176.0710  140.5930 N   0  0  0  0  0  0  0  0  0  0  0  0
  186.6680  176.2360  142.6710 C   0  0  0  0  0  0  0  0  0  0  0  0
  186.0780  177.0070  143.5710 C   0  0  0  0  0  0  0  0  0  0  0  0
  189.3450  174.5090  140.8230 N   0  0  0  0  0  0  0  0  0  0  0  0
  186.0640  178.0210  141.2050 C   0  0  0  0  0  2  0  0  0  0  0  0
  185.3090  178.4480  142.8270 S   0  0  0  0  0  0  0  0  0  0  0  0
  194.2390  169.6580  144.9780 C   0  0  0  0  0  2  0  0  0  0  0  0
  192.9240  172.1490  144.5780 C   0  0  0  0  0  0  0  0  0  0  0  0
  192.0940  173.1820  144.3610 N   0  0  0  0  0  0  0  0  0  0  0  0
  191.3570  171.4480  143.2050 C   0  0  0  0  0  3  0  0  0  0  0  0
  193.2180  169.7440  143.8330 C   0  0  2  0  0  3  0  0  0  0  0  0
  192.4750  171.0420  143.9020 C   0  0  0  0  0  0  0  0  0  0  0  0
  191.1560  172.7430  143.5290 N   0  0  0  0  0  0  0  0  0  0  0  0
  192.3300  168.6730  143.9240 O   0  0  0  0  0  1  0  0  0  0  0  0
  194.1100  172.1400  145.4890 C   0  0  0  0  0  2  0  0  0  0  0  0
  195.0350  170.9690  145.1260 C   0  0  1  0  0  3  0  0  0  0  0  0
  196.9780  169.9930  145.5380 C   0  0  0  0  0  1  0  0  0  0  0  0
  196.0120  170.8210  146.1130 O   0  0  0  0  0  0  0  0  0  0  0  0
  191.3620  173.1810  140.7510 C   0  0  1  0  0  3  0  0  0  0  0  0
  190.9050  172.4500  139.4970 C   0  0  0  0  0  1  0  0  0  0  0  0
  192.4820  174.1830  140.4680 C   0  0  0  0  0  2  0  0  0  0  0  0
  193.7720  173.8290  141.2000 C   0  0  0  0  0  2  0  0  0  0  0  0
  194.5900  175.0770  141.5010 C   0  0  1  0  0  3  0  0  0  0  0  0
  195.4610  175.2390  143.8720 C   0  0  0  0  0  3  0  0  0  0  0  0
  192.0140  177.5180  145.0130 C   0  0  0  0  0  1  0  0  0  0  0  0
  195.3320  175.6940  145.1880 C   0  0  0  0  0  3  0  0  0  0  0  0
  193.2140  176.7210  144.6330 C   0  0  0  0  0  0  0  0  0  0  0  0
  194.0990  176.8710  146.8840 O   0  0  0  0  0  1  0  0  0  0  0  0
  194.2080  176.4290  145.5740 C   0  0  0  0  0  0  0  0  0  0  0  0
  193.3460  176.2670  143.3170 C   0  0  0  0  0  3  0  0  0  0  0  0
  194.4580  175.5150  142.9330 C   0  0  0  0  0  0  0  0  0  0  0  0
  196.1370  173.7780  140.2310 O   0  0  0  0  0  0  0  0  0  0  0  0
  196.0480  174.8300  141.1600 C   0  0  1  0  0  3  0  0  0  0  0  0
  196.2790  175.0810  139.7250 C   0  0  1  0  0  3  0  0  0  0  0  0
  197.9400  175.6630  138.1320 O   0  0  0  0  0  1  0  0  0  0  0  0
  197.7430  175.3610  139.4790 C   0  0  0  0  0  2  0  0  0  0  0  0
  186.1480  176.8330  144.9890 N   0  0  0  0  0  2  0  0  0  0  0  0
  184.6740  178.1000  146.6580 N   0  0  0  0  0  0  0  0  0  0  0  0
  185.3400  177.5290  145.9030 C   0  0  0  0  0  0  0  0  0  0  0  0
  1  3  1  1  0  0  0
  3  2  2  0  0  0  0
  4  9  1  0  0  0  0
  5  6  1  0  0  0  0
  6 20  1  1  0  0  0
  6  2  1  0  0  0  0
  7  1  1  0  0  0  0
  8  7  2  0  0  0  0
  8  4  1  0  0  0  0
  9  1  1  0  0  0  0
  9 10  2  0  0  0  0
 10 44  1  0  0  0  0
 11  7  1  0  0  0  0
 11  5  2  0  0  0  0
 12  4  1  0  0  0  0
 12 13  1  0  0  0  0
 13 10  1  0  0  0  0
 14 23  1  0  0  0  0
 15 22  1  0  0  0  0
 16 15  2  0  0  0  0
 17 20  1  0  0  0  0
 17 19  2  0  0  0  0
 18 19  1  0  0  0  0
 18 21  1  1  0  0  0
 18 14  1  0  0  0  0
 19 15  1  0  0  0  0
 20 16  1  0  0  0  0
 23 22  1  0  0  0  0
 23 25  1  1  0  0  0
 24 25  1  0  0  0  0
 26 27  1  6  0  0  0
 26  5  1  0  0  0  0
 28 26  1  0  0  0  0
 28 29  1  0  0  0  0
 30 29  1  1  0  0  0
 30 38  1  0  0  0  0
 31 33  1  0  0  0  0
 33 36  2  0  0  0  0
 34 32  1  0  0  0  0
 34 36  1  0  0  0  0
 36 35  1  0  0  0  0
 37 34  2  0  0  0  0
 38 37  1  0  0  0  0
 38 31  2  0  0  0  0
 39 40  1  0  0  0  0
 40 30  1  6  0  0  0
 41 43  1  1  0  0  0
 41 39  1  0  0  0  0
 41 40  1  0  0  0  0
 42 43  1  0  0  0  0
 44 46  1  0  0  0  0
 46 45  3  0  0  0  0
M  END
>  <MODEL>
7

>  <REMARK>
 VINA RESULT:      -6.8      3.828      7.703
  Name = 
  11 active torsions:
  status: ('A' for Active; 'I' for Inactive)
    1  A    between atoms: C_3  and  C_17
    2  A    between atoms: C_3  and  C_42
    3  A    between atoms: C_3  and  C_44
    4  A    between atoms: C_8  and  C_16
    5  A    between atoms: C_8  and  C_28
    6  A    between atoms: C_12  and  C_19
    7  A    between atoms: C_18  and  N_27
    8  A    between atoms: C_28  and  C_44
    9  A    between atoms: C_34  and  N_45
   10  A    between atoms: C_36  and  O_43
   11  A    between atoms: N_45  and  C_46
                            x       y       z     vdW  Elec       q    Type
                         _______ _______ _______ _____ _____    ______ ____

>  <TORSDO>
F 11

$$$$
=
 OpenBabel11042414373D

 46 52  0  0  1  0  0  0  0  0999 V2000
  194.2720  171.5140  145.7760 C   0  0  2  0  0  3  0  0  0  0  0  0
  192.5620  172.6250  144.3970 C   0  0  0  0  0  3  0  0  0  0  0  0
  193.3850  171.5850  144.5680 C   0  0  0  0  0  3  0  0  0  0  0  0
  196.5310  170.8340  145.6780 N   0  0  0  0  0  0  0  0  0  0  0  0
  193.7890  174.5700  145.4050 C   0  0  0  0  0  0  0  0  0  0  0  0
  192.5160  173.7420  145.4040 C   0  0  1  0  0  3  0  0  0  0  0  0
  195.2860  172.6410  145.6950 C   0  0  0  0  0  0  0  0  0  0  0  0
  196.5130  172.2260  145.5990 N   0  0  0  0  0  0  0  0  0  0  0  0
  195.2220  170.3620  145.7090 C   0  0  0  0  0  0  0  0  0  0  0  0
  195.0690  169.0910  145.3700 C   0  0  0  0  0  0  0  0  0  0  0  0
  194.9680  174.0330  145.5570 N   0  0  0  0  0  0  0  0  0  0  0  0
  197.4740  169.9470  145.0340 C   0  0  0  0  0  2  0  0  0  0  0  0
  196.6290  168.3170  144.9330 S   0  0  0  0  0  0  0  0  0  0  0  0
  187.4200  176.9930  145.2430 C   0  0  0  0  0  2  0  0  0  0  0  0
  189.7920  175.7390  144.2960 C   0  0  0  0  0  0  0  0  0  0  0  0
  190.8750  174.9870  144.0440 N   0  0  0  0  0  0  0  0  0  0  0  0
  190.5410  175.0080  146.2290 C   0  0  0  0  0  3  0  0  0  0  0  0
  188.4640  176.5710  146.2890 C   0  0  2  0  0  3  0  0  0  0  0  0
  189.5330  175.7450  145.6440 C   0  0  0  0  0  0  0  0  0  0  0  0
  191.3170  174.5550  145.2200 N   0  0  0  0  0  0  0  0  0  0  0  0
  187.8370  175.8460  147.3010 O   0  0  0  0  0  1  0  0  0  0  0  0
  188.9170  176.4040  143.2810 C   0  0  0  0  0  2  0  0  0  0  0  0
  188.0880  177.5080  143.9540 C   0  0  1  0  0  3  0  0  0  0  0  0
  186.0940  177.0130  143.1330 C   0  0  0  0  0  1  0  0  0  0  0  0
  187.1120  177.9660  143.0650 O   0  0  0  0  0  0  0  0  0  0  0  0
  193.6990  176.0640  145.2370 C   0  0  1  0  0  3  0  0  0  0  0  0
  193.9870  176.8010  146.5350 C   0  0  0  0  0  1  0  0  0  0  0  0
  194.5490  176.5760  144.0720 C   0  0  0  0  0  2  0  0  0  0  0  0
  193.9250  176.2550  142.7190 C   0  0  0  0  0  2  0  0  0  0  0  0
  194.7730  175.2510  141.9500 C   0  0  1  0  0  3  0  0  0  0  0  0
  194.5180  172.8160  141.3100 C   0  0  0  0  0  3  0  0  0  0  0  0
  190.3860  173.4640  140.3730 C   0  0  0  0  0  1  0  0  0  0  0  0
  193.7300  171.7500  140.8650 C   0  0  0  0  0  3  0  0  0  0  0  0
  191.8220  173.2250  140.6880 C   0  0  0  0  0  0  0  0  0  0  0  0
  191.6190  170.8810  140.1080 O   0  0  0  0  0  1  0  0  0  0  0  0
  192.3840  171.9520  140.5470 C   0  0  0  0  0  0  0  0  0  0  0  0
  192.6120  174.2900  141.1340 C   0  0  0  0  0  3  0  0  0  0  0  0
  193.9620  174.0960  141.4330 C   0  0  0  0  0  0  0  0  0  0  0  0
  196.4760  176.7990  141.3210 O   0  0  0  0  0  0  0  0  0  0  0  0
  195.4830  175.9490  140.8040 C   0  0  1  0  0  3  0  0  0  0  0  0
  196.9100  175.5720  140.7920 C   0  0  1  0  0  3  0  0  0  0  0  0
  197.9150  174.5860  138.8810 O   0  0  0  0  0  1  0  0  0  0  0  0
  197.4920  175.8020  139.4170 C   0  0  0  0  0  2  0  0  0  0  0  0
  193.8180  168.4170  145.2110 N   0  0  0  0  0  2  0  0  0  0  0  0
  192.5870  168.2000  142.9740 N   0  0  0  0  0  0  0  0  0  0  0  0
  193.1450  168.2980  143.9840 C   0  0  0  0  0  0  0  0  0  0  0  0
  1  3  1  6  0  0  0
  2  3  2  0  0  0  0
  4  9  1  0  0  0  0
  5 11  2  0  0  0  0
  6  2  1  6  0  0  0
  6  5  1  0  0  0  0
  7  1  1  0  0  0  0
  8  4  1  0  0  0  0
  8  7  2  0  0  0  0
  9  1  1  0  0  0  0
 10  9  2  0  0  0  0
 11  7  1  0  0  0  0
 12  4  1  0  0  0  0
 13 12  1  0  0  0  0
 13 10  1  0  0  0  0
 14 18  1  0  0  0  0
 15 19  1  0  0  0  0
 16 15  2  0  0  0  0
 16 20  1  0  0  0  0
 18 21  1  1  0  0  0
 19 17  2  0  0  0  0
 19 18  1  0  0  0  0
 20  6  1  0  0  0  0
 20 17  1  0  0  0  0
 22 23  1  0  0  0  0
 22 15  1  0  0  0  0
 23 25  1  6  0  0  0
 23 14  1  0  0  0  0
 25 24  1  0  0  0  0
 26  5  1  0  0  0  0
 26 27  1  1  0  0  0
 28 26  1  0  0  0  0
 29 28  1  0  0  0  0
 30 29  1  6  0  0  0
 31 38  1  0  0  0  0
 32 34  1  0  0  0  0
 33 31  2  0  0  0  0
 34 37  1  0  0  0  0
 35 36  1  0  0  0  0
 36 34  2  0  0  0  0
 36 33  1  0  0  0  0
 37 38  2  0  0  0  0
 38 30  1  0  0  0  0
 40 39  1  0  0  0  0
 40 30  1  1  0  0  0
 41 43  1  6  0  0  0
 41 40  1  0  0  0  0
 41 39  1  0  0  0  0
 42 43  1  0  0  0  0
 44 10  1  0  0  0  0
 45 46  3  0  0  0  0
 46 44  1  0  0  0  0
M  END
>  <MODEL>
8

>  <REMARK>
 VINA RESULT:      -6.7      3.981      6.608
  Name = 
  11 active torsions:
  status: ('A' for Active; 'I' for Inactive)
    1  A    between atoms: C_3  and  C_17
    2  A    between atoms: C_3  and  C_42
    3  A    between atoms: C_3  and  C_44
    4  A    between atoms: C_8  and  C_16
    5  A    between atoms: C_8  and  C_28
    6  A    between atoms: C_12  and  C_19
    7  A    between atoms: C_18  and  N_27
    8  A    between atoms: C_28  and  C_44
    9  A    between atoms: C_34  and  N_45
   10  A    between atoms: C_36  and  O_43
   11  A    between atoms: N_45  and  C_46
                            x       y       z     vdW  Elec       q    Type
                         _______ _______ _______ _____ _____    ______ ____

>  <TORSDO>
F 11

$$$$
=
 OpenBabel11042414373D

 46 52  0  0  1  0  0  0  0  0999 V2000
  193.1850  174.7890  140.5930 C   0  0  2  0  0  3  0  0  0  0  0  0
  191.8380  175.5140  142.5230 C   0  0  0  0  0  3  0  0  0  0  0  0
  193.0480  175.2830  142.0040 C   0  0  0  0  0  3  0  0  0  0  0  0
  194.6950  173.0880  139.9630 N   0  0  0  0  0  0  0  0  0  0  0  0
  190.3520  173.8030  141.4400 C   0  0  0  0  0  0  0  0  0  0  0  0
  190.5950  175.2780  141.7080 C   0  0  1  0  0  3  0  0  0  0  0  0
  192.5930  173.3940  140.5120 C   0  0  0  0  0  0  0  0  0  0  0  0
  193.4640  172.4810  140.2050 N   0  0  0  0  0  0  0  0  0  0  0  0
  194.5990  174.4460  140.2510 C   0  0  0  0  0  0  0  0  0  0  0  0
  195.7500  175.0630  140.4690 C   0  0  0  0  0  0  0  0  0  0  0  0
  191.2580  173.0370  140.8970 N   0  0  0  0  0  0  0  0  0  0  0  0
  196.0010  172.5150  140.2020 C   0  0  0  0  0  2  0  0  0  0  0  0
  197.1480  173.9430  140.3500 S   0  0  0  0  0  0  0  0  0  0  0  0
  185.6480  178.1520  143.6630 C   0  0  0  0  0  2  0  0  0  0  0  0
  188.1000  176.7160  143.7920 C   0  0  0  0  0  0  0  0  0  0  0  0
  189.3020  176.1420  143.6250 N   0  0  0  0  0  0  0  0  0  0  0  0
  188.3610  176.3650  141.6380 C   0  0  0  0  0  3  0  0  0  0  0  0
  186.1060  177.4180  142.3930 C   0  0  2  0  0  3  0  0  0  0  0  0
  187.5010  176.9030  142.5720 C   0  0  0  0  0  0  0  0  0  0  0  0
  189.4440  175.9350  142.3200 N   0  0  0  0  0  0  0  0  0  0  0  0
  186.0480  178.2910  141.3080 O   0  0  0  0  0  1  0  0  0  0  0  0
  187.5120  177.1840  145.0860 C   0  0  0  0  0  2  0  0  0  0  0  0
  185.9930  177.3530  144.9340 C   0  0  1  0  0  3  0  0  0  0  0  0
  184.3540  178.6860  145.5920 C   0  0  0  0  0  1  0  0  0  0  0  0
  185.4820  178.0070  146.0580 O   0  0  0  0  0  0  0  0  0  0  0  0
  189.0230  173.1950  141.8000 C   0  0  1  0  0  3  0  0  0  0  0  0
  188.1440  172.9830  140.5770 C   0  0  0  0  0  1  0  0  0  0  0  0
  189.1660  171.9280  142.6450 C   0  0  0  0  0  2  0  0  0  0  0  0
  189.4260  172.2410  144.1140 C   0  0  0  0  0  2  0  0  0  0  0  0
  190.8390  172.7700  144.3180 C   0  0  1  0  0  3  0  0  0  0  0  0
  189.8010  174.0880  146.2120 C   0  0  0  0  0  3  0  0  0  0  0  0
  193.5220  176.1080  146.8850 C   0  0  0  0  0  1  0  0  0  0  0  0
  189.9040  175.0340  147.2370 C   0  0  0  0  0  3  0  0  0  0  0  0
  192.2200  175.4190  146.6590 C   0  0  0  0  0  0  0  0  0  0  0  0
  191.1910  176.6410  148.4810 O   0  0  0  0  0  1  0  0  0  0  0  0
  191.1090  175.7060  147.4590 C   0  0  0  0  0  0  0  0  0  0  0  0
  192.1160  174.4720  145.6360 C   0  0  0  0  0  3  0  0  0  0  0  0
  190.9070  173.8130  145.3980 C   0  0  0  0  0  0  0  0  0  0  0  0
  191.9300  170.8140  143.4970 O   0  0  0  0  0  0  0  0  0  0  0  0
  191.7770  171.6210  144.6380 C   0  0  1  0  0  3  0  0  0  0  0  0
  192.9800  171.7010  143.7860 C   0  0  1  0  0  3  0  0  0  0  0  0
  194.9390  170.4090  143.4300 O   0  0  0  0  0  1  0  0  0  0  0  0
  194.1160  170.9360  144.4240 C   0  0  0  0  0  2  0  0  0  0  0  0
  195.9000  176.4180  140.9000 N   0  0  0  0  0  2  0  0  0  0  0  0
  196.9470  177.0980  143.1370 N   0  0  0  0  0  0  0  0  0  0  0  0
  196.4720  176.7900  142.1270 C   0  0  0  0  0  0  0  0  0  0  0  0
  1  3  1  1  0  0  0
  3  2  2  0  0  0  0
  4 12  1  0  0  0  0
  4  8  1  0  0  0  0
  4  9  1  0  0  0  0
  5  6  1  0  0  0  0
  5 26  1  0  0  0  0
  6 20  1  1  0  0  0
  6  2  1  0  0  0  0
  7  1  1  0  0  0  0
  7 11  1  0  0  0  0
  8  7  2  0  0  0  0
  9 10  2  0  0  0  0
  9  1  1  0  0  0  0
 10 44  1  0  0  0  0
 11  5  2  0  0  0  0
 12 13  1  0  0  0  0
 13 10  1  0  0  0  0
 14 23  1  0  0  0  0
 15 22  1  0  0  0  0
 16 15  2  0  0  0  0
 17 20  1  0  0  0  0
 17 19  2  0  0  0  0
 18 21  1  6  0  0  0
 18 19  1  0  0  0  0
 18 14  1  0  0  0  0
 19 15  1  0  0  0  0
 20 16  1  0  0  0  0
 23 22  1  0  0  0  0
 23 25  1  1  0  0  0
 24 25  1  0  0  0  0
 26 27  1  6  0  0  0
 26 28  1  0  0  0  0
 28 29  1  0  0  0  0
 30 29  1  1  0  0  0
 30 38  1  0  0  0  0
 31 33  1  0  0  0  0
 33 36  2  0  0  0  0
 34 32  1  0  0  0  0
 34 36  1  0  0  0  0
 36 35  1  0  0  0  0
 37 34  2  0  0  0  0
 38 37  1  0  0  0  0
 38 31  2  0  0  0  0
 39 41  1  0  0  0  0
 39 40  1  0  0  0  0
 40 30  1  6  0  0  0
 41 43  1  1  0  0  0
 41 40  1  0  0  0  0
 42 43  1  0  0  0  0
 44 46  1  0  0  0  0
 46 45  3  0  0  0  0
M  END
>  <MODEL>
9

>  <REMARK>
 VINA RESULT:      -6.6      3.191      4.684
  Name = 
  11 active torsions:
  status: ('A' for Active; 'I' for Inactive)
    1  A    between atoms: C_3  and  C_17
    2  A    between atoms: C_3  and  C_42
    3  A    between atoms: C_3  and  C_44
    4  A    between atoms: C_8  and  C_16
    5  A    between atoms: C_8  and  C_28
    6  A    between atoms: C_12  and  C_19
    7  A    between atoms: C_18  and  N_27
    8  A    between atoms: C_28  and  C_44
    9  A    between atoms: C_34  and  N_45
   10  A    between atoms: C_36  and  O_43
   11  A    between atoms: N_45  and  C_46
                            x       y       z     vdW  Elec       q    Type
                         _______ _______ _______ _____ _____    ______ ____

>  <TORSDO>
F 11

$$$$
