=
 OpenBabel11042417193D

 26 29  0  0  1  0  0  0  0  0999 V2000
  184.1140  179.0190  145.1580 C   0  0  0  0  0  3  0  0  0  0  0  0
  186.5910  177.6270  146.4510 C   0  0  0  0  0  0  0  0  0  0  0  0
  185.2430  179.5620  144.3200 C   0  0  0  0  0  2  0  0  0  0  0  0
  184.2700  178.5500  146.4090 C   0  0  0  0  0  3  0  0  0  0  0  0
  188.2090  175.9150  146.5820 C   0  0  0  0  0  3  0  0  0  0  0  0
  188.5140  175.9800  145.2010 C   0  0  0  0  0  0  0  0  0  0  0  0
  187.8110  176.9220  144.4620 C   0  0  0  0  0  0  0  0  0  0  0  0
  186.3050  178.5280  144.1100 C   0  0  0  0  0  0  0  0  0  0  0  0
  187.8080  177.2650  143.1230 C   0  0  0  0  0  3  0  0  0  0  0  0
  187.2860  176.7170  147.1420 O   0  0  0  0  0  0  0  0  0  0  0  0
  185.5910  178.5130  147.1350 C   0  0  0  0  0  2  0  0  0  0  0  0
  186.8510  177.7500  145.0940 C   0  0  0  0  0  0  0  0  0  0  0  0
  186.8880  178.2480  142.9200 N   0  0  0  0  0  0  0  0  0  0  0  0
  189.5420  175.0960  144.5620 C   0  0  1  0  0  3  0  0  0  0  0  0
  192.6970  176.6920  144.7550 C   0  0  0  0  0  0  0  0  0  0  0  0
  191.3050  176.2570  143.1960 N   0  0  0  0  0  0  0  0  0  0  0  0
  191.6910  176.0690  145.3970 N   0  0  0  0  0  0  0  0  0  0  0  0
  190.8410  175.8200  144.3820 C   0  0  0  0  0  0  0  0  0  0  0  0
  192.4810  176.8120  143.4330 N   0  0  0  0  0  2  0  0  0  0  0  0
  194.8310  177.5630  145.9420 N   0  0  0  0  0  0  0  0  0  0  0  0
  193.8790  177.1740  145.4120 C   0  0  0  0  0  0  0  0  0  0  0  0
  189.7150  173.7970  145.3410 C   0  0  0  0  0  2  0  0  0  0  0  0
  190.3220  172.7250  144.4550 C   0  0  0  0  0  2  0  0  0  0  0  0
  189.2640  171.9010  143.9020 N   0  0  0  0  0  2  0  0  0  0  0  0
  189.3300  172.0500  142.4600 C   0  0  0  0  0  2  0  0  0  0  0  0
  188.1450  172.8600  141.9800 C   0  0  0  0  0  1  0  0  0  0  0  0
  1  4  2  0  0  0  0
  2 11  1  0  0  0  0
  2 10  1  0  0  0  0
  3  1  1  0  0  0  0
  4 11  1  0  0  0  0
  5 10  1  0  0  0  0
  6  5  2  0  0  0  0
  7 12  1  0  0  0  0
  7  6  1  0  0  0  0
  8  3  1  0  0  0  0
  8 12  1  0  0  0  0
  9  7  2  0  0  0  0
 12  2  2  0  0  0  0
 13  9  1  0  0  0  0
 13  8  2  0  0  0  0
 14  6  1  0  0  0  0
 14 22  1  1  0  0  0
 15 17  2  0  0  0  0
 15 21  1  0  0  0  0
 16 19  1  0  0  0  0
 16 18  2  0  0  0  0
 18 14  1  0  0  0  0
 18 17  1  0  0  0  0
 19 15  1  0  0  0  0
 21 20  3  0  0  0  0
 23 22  1  0  0  0  0
 24 23  1  0  0  0  0
 25 24  1  0  0  0  0
 26 25  1  0  0  0  0
M  END
>  <MODEL>
1

>  <REMARK>
 VINA RESULT:      -7.0      0.000      0.000
  Name = 
  7 active torsions:
  status: ('A' for Active; 'I' for Inactive)
    1  A    between atoms: C_5  and  C_25
    2  A    between atoms: C_7  and  N_20
    3  A    between atoms: C_8  and  C_16
    4  A    between atoms: C_11  and  C_15
    5  A    between atoms: C_11  and  C_16
    6  A    between atoms: C_15  and  N_20
    7  A    between atoms: C_16  and  C_21
                            x       y       z     vdW  Elec       q    Type
                         _______ _______ _______ _____ _____    ______ ____

>  <TORSDO>
F 7

$$$$
=
 OpenBabel11042417193D

 26 29  0  0  1  0  0  0  0  0999 V2000
  184.3280  178.9060  144.7140 C   0  0  0  0  0  3  0  0  0  0  0  0
  186.5400  177.5510  146.4510 C   0  0  0  0  0  0  0  0  0  0  0  0
  185.5860  179.4420  144.0820 C   0  0  0  0  0  2  0  0  0  0  0  0
  184.2600  178.4580  145.9810 C   0  0  0  0  0  3  0  0  0  0  0  0
  188.1160  175.8520  146.8960 C   0  0  0  0  0  3  0  0  0  0  0  0
  188.6610  175.8970  145.5900 C   0  0  0  0  0  0  0  0  0  0  0  0
  188.0970  176.8220  144.7220 C   0  0  0  0  0  0  0  0  0  0  0  0
  186.6710  178.4130  144.0810 C   0  0  0  0  0  0  0  0  0  0  0  0
  188.3310  177.1440  143.3980 C   0  0  0  0  0  3  0  0  0  0  0  0
  187.1050  176.6570  147.2690 O   0  0  0  0  0  0  0  0  0  0  0  0
  185.4310  178.4410  146.9300 C   0  0  0  0  0  2  0  0  0  0  0  0
  187.0360  177.6540  145.1590 C   0  0  0  0  0  0  0  0  0  0  0  0
  187.4580  178.1170  143.0180 N   0  0  0  0  0  0  0  0  0  0  0  0
  189.7890  175.0090  145.1590 C   0  0  1  0  0  3  0  0  0  0  0  0
  192.9340  176.4300  145.9520 C   0  0  0  0  0  0  0  0  0  0  0  0
  191.5110  175.2140  146.9790 N   0  0  0  0  0  0  0  0  0  0  0  0
  191.9590  176.2490  145.0410 N   0  0  0  0  0  0  0  0  0  0  0  0
  191.0930  175.4790  145.7270 C   0  0  0  0  0  0  0  0  0  0  0  0
  192.6790  175.8160  147.1210 N   0  0  0  0  0  2  0  0  0  0  0  0
  195.0740  177.8240  145.5040 N   0  0  0  0  0  0  0  0  0  0  0  0
  194.1180  177.2010  145.7030 C   0  0  0  0  0  0  0  0  0  0  0  0
  189.5080  173.5510  145.5040 C   0  0  0  0  0  2  0  0  0  0  0  0
  190.0930  172.6350  144.4460 C   0  0  0  0  0  2  0  0  0  0  0  0
  190.0100  173.2790  143.1490 N   0  0  0  0  0  2  0  0  0  0  0  0
  188.9420  172.6180  142.4230 C   0  0  0  0  0  2  0  0  0  0  0  0
  187.9340  173.6470  141.9580 C   0  0  0  0  0  1  0  0  0  0  0  0
  1  4  2  0  0  0  0
  2 11  1  0  0  0  0
  2 10  1  0  0  0  0
  3  1  1  0  0  0  0
  4 11  1  0  0  0  0
  5 10  1  0  0  0  0
  6  5  2  0  0  0  0
  7 12  1  0  0  0  0
  7  6  1  0  0  0  0
  8  3  1  0  0  0  0
  8 12  1  0  0  0  0
  9  7  2  0  0  0  0
 12  2  2  0  0  0  0
 13  9  1  0  0  0  0
 13  8  2  0  0  0  0
 14 22  1  1  0  0  0
 14  6  1  0  0  0  0
 14 18  1  0  0  0  0
 15 19  1  0  0  0  0
 16 19  1  0  0  0  0
 17 18  1  0  0  0  0
 17 15  2  0  0  0  0
 18 16  2  0  0  0  0
 20 21  3  0  0  0  0
 21 15  1  0  0  0  0
 23 22  1  0  0  0  0
 24 23  1  0  0  0  0
 25 24  1  0  0  0  0
 26 25  1  0  0  0  0
M  END
>  <MODEL>
2

>  <REMARK>
 VINA RESULT:      -6.8      0.842      1.259
  Name = 
  7 active torsions:
  status: ('A' for Active; 'I' for Inactive)
    1  A    between atoms: C_5  and  C_25
    2  A    between atoms: C_7  and  N_20
    3  A    between atoms: C_8  and  C_16
    4  A    between atoms: C_11  and  C_15
    5  A    between atoms: C_11  and  C_16
    6  A    between atoms: C_15  and  N_20
    7  A    between atoms: C_16  and  C_21
                            x       y       z     vdW  Elec       q    Type
                         _______ _______ _______ _____ _____    ______ ____

>  <TORSDO>
F 7

$$$$
=
 OpenBabel11042417193D

 26 29  0  0  1  0  0  0  0  0999 V2000
  184.2890  178.9870  145.7320 C   0  0  0  0  0  3  0  0  0  0  0  0
  186.1290  177.3760  143.7930 C   0  0  0  0  0  0  0  0  0  0  0  0
  184.4580  177.6890  146.4780 C   0  0  0  0  0  2  0  0  0  0  0  0
  184.4360  179.1100  144.4010 C   0  0  0  0  0  3  0  0  0  0  0  0
  188.2300  176.6110  143.0400 C   0  0  0  0  0  3  0  0  0  0  0  0
  188.6500  176.2270  144.3360 C   0  0  0  0  0  0  0  0  0  0  0  0
  187.7410  176.4390  145.3640 C   0  0  0  0  0  0  0  0  0  0  0  0
  185.8340  177.1330  146.2880 C   0  0  0  0  0  0  0  0  0  0  0  0
  187.7860  176.2230  146.7290 C   0  0  0  0  0  3  0  0  0  0  0  0
  187.0200  177.1560  142.8210 O   0  0  0  0  0  0  0  0  0  0  0  0
  184.7830  177.9640  143.4850 C   0  0  0  0  0  2  0  0  0  0  0  0
  186.4750  177.0110  145.0860 C   0  0  0  0  0  0  0  0  0  0  0  0
  186.6170  176.6480  147.2830 N   0  0  0  0  0  0  0  0  0  0  0  0
  189.9940  175.6160  144.5980 C   0  0  1  0  0  3  0  0  0  0  0  0
  190.1410  172.2530  143.4960 C   0  0  0  0  0  0  0  0  0  0  0  0
  189.6670  173.2330  145.3320 N   0  0  0  0  0  0  0  0  0  0  0  0
  190.2760  173.5600  143.1990 N   0  0  0  0  0  0  0  0  0  0  0  0
  189.9660  174.1340  144.3770 C   0  0  0  0  0  0  0  0  0  0  0  0
  189.7770  172.0410  144.7730 N   0  0  0  0  0  2  0  0  0  0  0  0
  190.5480  170.3470  141.7860 N   0  0  0  0  0  0  0  0  0  0  0  0
  190.3660  171.1980  142.5500 C   0  0  0  0  0  0  0  0  0  0  0  0
  191.0800  176.2950  143.7720 C   0  0  0  0  0  2  0  0  0  0  0  0
  192.1220  176.9210  144.6800 C   0  0  0  0  0  2  0  0  0  0  0  0
  191.8570  176.5370  146.0540 N   0  0  0  0  0  2  0  0  0  0  0  0
  193.0840  175.9550  146.5680 C   0  0  0  0  0  2  0  0  0  0  0  0
  194.2360  176.9040  146.3200 C   0  0  0  0  0  1  0  0  0  0  0  0
  1  3  1  0  0  0  0
  2 12  2  0  0  0  0
  4  1  2  0  0  0  0
  5  6  2  0  0  0  0
  6 14  1  0  0  0  0
  6  7  1  0  0  0  0
  7  9  2  0  0  0  0
  8  3  1  0  0  0  0
  8 13  2  0  0  0  0
  9 13  1  0  0  0  0
 10  5  1  0  0  0  0
 10  2  1  0  0  0  0
 11  2  1  0  0  0  0
 11  4  1  0  0  0  0
 12  7  1  0  0  0  0
 12  8  1  0  0  0  0
 14 22  1  6  0  0  0
 15 19  1  0  0  0  0
 17 15  2  0  0  0  0
 17 18  1  0  0  0  0
 18 14  1  0  0  0  0
 18 16  2  0  0  0  0
 19 16  1  0  0  0  0
 20 21  3  0  0  0  0
 21 15  1  0  0  0  0
 22 23  1  0  0  0  0
 23 24  1  0  0  0  0
 24 25  1  0  0  0  0
 26 25  1  0  0  0  0
M  END
>  <MODEL>
3

>  <REMARK>
 VINA RESULT:      -6.6      1.873      4.525
  Name = 
  7 active torsions:
  status: ('A' for Active; 'I' for Inactive)
    1  A    between atoms: C_5  and  C_25
    2  A    between atoms: C_7  and  N_20
    3  A    between atoms: C_8  and  C_16
    4  A    between atoms: C_11  and  C_15
    5  A    between atoms: C_11  and  C_16
    6  A    between atoms: C_15  and  N_20
    7  A    between atoms: C_16  and  C_21
                            x       y       z     vdW  Elec       q    Type
                         _______ _______ _______ _____ _____    ______ ____

>  <TORSDO>
F 7

$$$$
=
 OpenBabel11042417193D

 26 29  0  0  1  0  0  0  0  0999 V2000
  194.4890  176.8690  145.6620 C   0  0  0  0  0  3  0  0  0  0  0  0
  191.5800  176.0200  146.4120 C   0  0  0  0  0  0  0  0  0  0  0  0
  193.9020  176.5600  144.3100 C   0  0  0  0  0  2  0  0  0  0  0  0
  194.0240  176.3570  146.8150 C   0  0  0  0  0  3  0  0  0  0  0  0
  189.2830  176.4490  146.7300 C   0  0  0  0  0  3  0  0  0  0  0  0
  189.1510  177.1290  145.4960 C   0  0  0  0  0  0  0  0  0  0  0  0
  190.3020  177.2280  144.7250 C   0  0  0  0  0  0  0  0  0  0  0  0
  192.4620  176.9620  144.2420 C   0  0  0  0  0  0  0  0  0  0  0  0
  190.5770  177.8190  143.5050 C   0  0  0  0  0  3  0  0  0  0  0  0
  190.4580  175.9340  147.1330 O   0  0  0  0  0  0  0  0  0  0  0  0
  192.8590  175.4030  146.9010 C   0  0  0  0  0  2  0  0  0  0  0  0
  191.5180  176.6650  145.1860 C   0  0  0  0  0  0  0  0  0  0  0  0
  191.8970  177.6480  143.2190 N   0  0  0  0  0  0  0  0  0  0  0  0
  187.8490  177.7070  145.0310 C   0  0  1  0  0  3  0  0  0  0  0  0
  186.9560  176.9790  141.6820 C   0  0  0  0  0  0  0  0  0  0  0  0
  187.2970  175.8310  143.4500 N   0  0  0  0  0  0  0  0  0  0  0  0
  187.2520  177.9090  142.6090 N   0  0  0  0  0  0  0  0  0  0  0  0
  187.4530  177.1450  143.7000 C   0  0  0  0  0  0  0  0  0  0  0  0
  186.9800  175.7260  142.1720 N   0  0  0  0  0  2  0  0  0  0  0  0
  186.4060  177.5400  139.2110 N   0  0  0  0  0  0  0  0  0  0  0  0
  186.6520  177.2900  140.3150 C   0  0  0  0  0  0  0  0  0  0  0  0
  186.7560  177.5200  146.0770 C   0  0  0  0  0  2  0  0  0  0  0  0
  185.8610  178.7440  146.1330 C   0  0  0  0  0  2  0  0  0  0  0  0
  184.5090  178.3710  145.7630 N   0  0  0  0  0  2  0  0  0  0  0  0
  184.2540  178.9660  144.4640 C   0  0  0  0  0  2  0  0  0  0  0  0
  185.1590  180.1640  144.2690 C   0  0  0  0  0  1  0  0  0  0  0  0
  1  4  2  0  0  0  0
  2 11  1  0  0  0  0
  2 10  1  0  0  0  0
  3  1  1  0  0  0  0
  4 11  1  0  0  0  0
  5 10  1  0  0  0  0
  6  5  2  0  0  0  0
  7 12  1  0  0  0  0
  7  6  1  0  0  0  0
  8  3  1  0  0  0  0
  8 12  1  0  0  0  0
  9  7  2  0  0  0  0
 12  2  2  0  0  0  0
 13  9  1  0  0  0  0
 13  8  2  0  0  0  0
 14  6  1  0  0  0  0
 14 22  1  1  0  0  0
 15 19  1  0  0  0  0
 15 17  2  0  0  0  0
 16 18  2  0  0  0  0
 17 18  1  0  0  0  0
 18 14  1  0  0  0  0
 19 16  1  0  0  0  0
 20 21  3  0  0  0  0
 21 15  1  0  0  0  0
 22 23  1  0  0  0  0
 24 23  1  0  0  0  0
 25 24  1  0  0  0  0
 26 25  1  0  0  0  0
M  END
>  <MODEL>
4

>  <REMARK>
 VINA RESULT:      -6.4      2.428      6.621
  Name = 
  7 active torsions:
  status: ('A' for Active; 'I' for Inactive)
    1  A    between atoms: C_5  and  C_25
    2  A    between atoms: C_7  and  N_20
    3  A    between atoms: C_8  and  C_16
    4  A    between atoms: C_11  and  C_15
    5  A    between atoms: C_11  and  C_16
    6  A    between atoms: C_15  and  N_20
    7  A    between atoms: C_16  and  C_21
                            x       y       z     vdW  Elec       q    Type
                         _______ _______ _______ _____ _____    ______ ____

>  <TORSDO>
F 7

$$$$
=
 OpenBabel11042417193D

 26 29  0  0  1  0  0  0  0  0999 V2000
  184.0760  178.8080  145.2890 C   0  0  0  0  0  3  0  0  0  0  0  0
  186.7750  177.5260  146.1910 C   0  0  0  0  0  0  0  0  0  0  0  0
  185.0750  179.6110  144.4970 C   0  0  0  0  0  2  0  0  0  0  0  0
  184.3710  178.1630  146.4310 C   0  0  0  0  0  3  0  0  0  0  0  0
  188.5730  176.0200  145.9400 C   0  0  0  0  0  3  0  0  0  0  0  0
  188.7680  176.3460  144.5760 C   0  0  0  0  0  0  0  0  0  0  0  0
  187.9150  177.3060  144.0480 C   0  0  0  0  0  0  0  0  0  0  0  0
  186.2240  178.7580  144.0570 C   0  0  0  0  0  0  0  0  0  0  0  0
  187.7790  177.8610  142.7890 C   0  0  0  0  0  3  0  0  0  0  0  0
  187.6120  176.6040  146.6770 O   0  0  0  0  0  0  0  0  0  0  0  0
  185.7380  178.1640  147.0680 C   0  0  0  0  0  2  0  0  0  0  0  0
  186.9200  177.9000  144.8630 C   0  0  0  0  0  0  0  0  0  0  0  0
  186.7450  178.7480  142.8060 N   0  0  0  0  0  0  0  0  0  0  0  0
  189.8360  175.7060  143.7410 C   0  0  1  0  0  3  0  0  0  0  0  0
  188.6500  174.1160  140.8080 C   0  0  0  0  0  0  0  0  0  0  0  0
  188.6700  173.6470  142.8900 N   0  0  0  0  0  0  0  0  0  0  0  0
  189.2530  175.1830  141.3640 N   0  0  0  0  0  0  0  0  0  0  0  0
  189.2400  174.8460  142.6680 C   0  0  0  0  0  0  0  0  0  0  0  0
  188.2940  173.1840  141.7110 N   0  0  0  0  0  2  0  0  0  0  0  0
  188.2230  173.8790  138.2610 N   0  0  0  0  0  0  0  0  0  0  0  0
  188.4130  173.9840  139.3980 C   0  0  0  0  0  0  0  0  0  0  0  0
  190.7920  176.7480  143.1720 C   0  0  0  0  0  2  0  0  0  0  0  0
  191.6550  177.3320  144.2750 C   0  0  0  0  0  2  0  0  0  0  0  0
  192.7500  176.4260  144.5620 N   0  0  0  0  0  2  0  0  0  0  0  0
  192.7550  176.2190  145.9990 C   0  0  0  0  0  2  0  0  0  0  0  0
  194.0520  176.7390  146.5800 C   0  0  0  0  0  1  0  0  0  0  0  0
  1  4  2  0  0  0  0
  2 10  1  0  0  0  0
  2 11  1  0  0  0  0
  3  1  1  0  0  0  0
  4 11  1  0  0  0  0
  5 10  1  0  0  0  0
  6  5  2  0  0  0  0
  7  6  1  0  0  0  0
  7 12  1  0  0  0  0
  8  3  1  0  0  0  0
  8 12  1  0  0  0  0
  9 13  1  0  0  0  0
  9  7  2  0  0  0  0
 12  2  2  0  0  0  0
 13  8  2  0  0  0  0
 14 22  1  6  0  0  0
 14  6  1  0  0  0  0
 15 17  2  0  0  0  0
 15 19  1  0  0  0  0
 17 18  1  0  0  0  0
 18 16  2  0  0  0  0
 18 14  1  0  0  0  0
 19 16  1  0  0  0  0
 20 21  3  0  0  0  0
 21 15  1  0  0  0  0
 22 23  1  0  0  0  0
 23 24  1  0  0  0  0
 24 25  1  0  0  0  0
 25 26  1  0  0  0  0
M  END
>  <MODEL>
5

>  <REMARK>
 VINA RESULT:      -6.4      1.814      4.367
  Name = 
  7 active torsions:
  status: ('A' for Active; 'I' for Inactive)
    1  A    between atoms: C_5  and  C_25
    2  A    between atoms: C_7  and  N_20
    3  A    between atoms: C_8  and  C_16
    4  A    between atoms: C_11  and  C_15
    5  A    between atoms: C_11  and  C_16
    6  A    between atoms: C_15  and  N_20
    7  A    between atoms: C_16  and  C_21
                            x       y       z     vdW  Elec       q    Type
                         _______ _______ _______ _____ _____    ______ ____

>  <TORSDO>
F 7

$$$$
=
 OpenBabel11042417193D

 26 29  0  0  1  0  0  0  0  0999 V2000
  185.0740  179.3040  145.4670 C   0  0  0  0  0  3  0  0  0  0  0  0
  187.0420  178.1290  143.3470 C   0  0  0  0  0  0  0  0  0  0  0  0
  185.0670  177.8390  145.8210 C   0  0  0  0  0  2  0  0  0  0  0  0
  185.3950  179.7780  144.2510 C   0  0  0  0  0  3  0  0  0  0  0  0
  189.1690  177.4080  142.6280 C   0  0  0  0  0  3  0  0  0  0  0  0
  189.3980  176.6400  143.7950 C   0  0  0  0  0  0  0  0  0  0  0  0
  188.3810  176.6430  144.7400 C   0  0  0  0  0  0  0  0  0  0  0  0
  186.4190  177.2300  145.6230 C   0  0  0  0  0  0  0  0  0  0  0  0
  188.2400  176.0520  145.9820 C   0  0  0  0  0  3  0  0  0  0  0  0
  188.0330  178.1050  142.4510 O   0  0  0  0  0  0  0  0  0  0  0  0
  185.7840  178.9050  143.0840 C   0  0  0  0  0  2  0  0  0  0  0  0
  187.1980  177.3880  144.5090 C   0  0  0  0  0  0  0  0  0  0  0  0
  187.0390  176.4150  146.5110 N   0  0  0  0  0  0  0  0  0  0  0  0
  190.6580  175.8550  144.0070 C   0  0  1  0  0  3  0  0  0  0  0  0
  190.8140  173.5760  141.3010 C   0  0  0  0  0  0  0  0  0  0  0  0
  192.0690  175.1290  142.0570 N   0  0  0  0  0  0  0  0  0  0  0  0
  190.1410  174.0290  142.3750 N   0  0  0  0  0  0  0  0  0  0  0  0
  190.9660  174.9970  142.8180 C   0  0  0  0  0  0  0  0  0  0  0  0
  191.9730  174.2260  141.0960 N   0  0  0  0  0  2  0  0  0  0  0  0
  189.9630  171.6540  139.7830 N   0  0  0  0  0  0  0  0  0  0  0  0
  190.3430  172.5120  140.4610 C   0  0  0  0  0  0  0  0  0  0  0  0
  191.8230  176.7680  144.3700 C   0  0  0  0  0  2  0  0  0  0  0  0
  192.1680  176.6270  145.8410 C   0  0  0  0  0  2  0  0  0  0  0  0
  191.9460  175.2560  146.2580 N   0  0  0  0  0  2  0  0  0  0  0  0
  191.4660  175.3100  147.6270 C   0  0  0  0  0  2  0  0  0  0  0  0
  191.3230  176.7540  148.0560 C   0  0  0  0  0  1  0  0  0  0  0  0
  1  3  1  0  0  0  0
  2 12  2  0  0  0  0
  4  1  2  0  0  0  0
  5  6  2  0  0  0  0
  6 14  1  0  0  0  0
  6  7  1  0  0  0  0
  7  9  2  0  0  0  0
  8  3  1  0  0  0  0
  8 13  2  0  0  0  0
  9 13  1  0  0  0  0
 10  5  1  0  0  0  0
 10  2  1  0  0  0  0
 11  2  1  0  0  0  0
 11  4  1  0  0  0  0
 12  7  1  0  0  0  0
 12  8  1  0  0  0  0
 14 22  1  6  0  0  0
 15 17  2  0  0  0  0
 16 18  2  0  0  0  0
 17 18  1  0  0  0  0
 18 14  1  0  0  0  0
 19 15  1  0  0  0  0
 19 16  1  0  0  0  0
 20 21  3  0  0  0  0
 21 15  1  0  0  0  0
 22 23  1  0  0  0  0
 23 24  1  0  0  0  0
 24 25  1  0  0  0  0
 25 26  1  0  0  0  0
M  END
>  <MODEL>
6

>  <REMARK>
 VINA RESULT:      -6.4      2.249      4.376
  Name = 
  7 active torsions:
  status: ('A' for Active; 'I' for Inactive)
    1  A    between atoms: C_5  and  C_25
    2  A    between atoms: C_7  and  N_20
    3  A    between atoms: C_8  and  C_16
    4  A    between atoms: C_11  and  C_15
    5  A    between atoms: C_11  and  C_16
    6  A    between atoms: C_15  and  N_20
    7  A    between atoms: C_16  and  C_21
                            x       y       z     vdW  Elec       q    Type
                         _______ _______ _______ _____ _____    ______ ____

>  <TORSDO>
F 7

$$$$
=
 OpenBabel11042417193D

 26 29  0  0  1  0  0  0  0  0999 V2000
  184.4200  178.5080  143.7420 C   0  0  0  0  0  3  0  0  0  0  0  0
  186.7550  178.1840  145.7890 C   0  0  0  0  0  0  0  0  0  0  0  0
  185.5950  179.0240  142.9510 C   0  0  0  0  0  2  0  0  0  0  0  0
  184.3760  178.4840  145.0860 C   0  0  0  0  0  3  0  0  0  0  0  0
  188.5750  177.0170  146.7330 C   0  0  0  0  0  3  0  0  0  0  0  0
  189.1590  176.7360  145.4750 C   0  0  0  0  0  0  0  0  0  0  0  0
  188.4830  177.2230  144.3630 C   0  0  0  0  0  0  0  0  0  0  0  0
  186.8380  178.2530  143.2660 C   0  0  0  0  0  0  0  0  0  0  0  0
  188.7150  177.1400  143.0030 C   0  0  0  0  0  3  0  0  0  0  0  0
  187.4280  177.7100  146.8420 O   0  0  0  0  0  0  0  0  0  0  0  0
  185.4920  178.9740  145.9730 C   0  0  0  0  0  2  0  0  0  0  0  0
  187.2800  177.9540  144.5260 C   0  0  0  0  0  0  0  0  0  0  0  0
  187.7060  177.7740  142.3430 N   0  0  0  0  0  0  0  0  0  0  0  0
  190.4370  175.9670  145.3350 C   0  0  1  0  0  3  0  0  0  0  0  0
  190.0850  172.7780  143.8370 C   0  0  0  0  0  0  0  0  0  0  0  0
  189.6650  173.6120  145.7570 N   0  0  0  0  0  0  0  0  0  0  0  0
  190.4590  174.0650  143.7090 N   0  0  0  0  0  0  0  0  0  0  0  0
  190.1730  174.5480  144.9330 C   0  0  0  0  0  0  0  0  0  0  0  0
  189.6070  172.4900  145.0610 N   0  0  0  0  0  2  0  0  0  0  0  0
  190.2720  171.0340  141.9270 N   0  0  0  0  0  0  0  0  0  0  0  0
  190.1890  171.8130  142.7800 C   0  0  0  0  0  0  0  0  0  0  0  0
  191.3990  176.6620  144.3780 C   0  0  0  0  0  2  0  0  0  0  0  0
  192.8020  176.6770  144.9550 C   0  0  0  0  0  2  0  0  0  0  0  0
  193.6580  175.8120  144.1660 N   0  0  0  0  0  2  0  0  0  0  0  0
  194.4770  175.0660  145.1040 C   0  0  0  0  0  2  0  0  0  0  0  0
  193.6820  173.8990  145.6500 C   0  0  0  0  0  1  0  0  0  0  0  0
  1  4  2  0  0  0  0
  2 11  1  0  0  0  0
  2 10  1  0  0  0  0
  3  8  1  0  0  0  0
  3  1  1  0  0  0  0
  4 11  1  0  0  0  0
  5 10  1  0  0  0  0
  6  5  2  0  0  0  0
  7 12  1  0  0  0  0
  7  6  1  0  0  0  0
  8 12  1  0  0  0  0
  9  7  2  0  0  0  0
 12  2  2  0  0  0  0
 13  9  1  0  0  0  0
 13  8  2  0  0  0  0
 14 22  1  6  0  0  0
 14  6  1  0  0  0  0
 15 19  1  0  0  0  0
 17 15  2  0  0  0  0
 17 18  1  0  0  0  0
 18 14  1  0  0  0  0
 18 16  2  0  0  0  0
 19 16  1  0  0  0  0
 20 21  3  0  0  0  0
 21 15  1  0  0  0  0
 22 23  1  0  0  0  0
 24 23  1  0  0  0  0
 24 25  1  0  0  0  0
 25 26  1  0  0  0  0
M  END
>  <MODEL>
7

>  <REMARK>
 VINA RESULT:      -5.9      1.469      3.841
  Name = 
  7 active torsions:
  status: ('A' for Active; 'I' for Inactive)
    1  A    between atoms: C_5  and  C_25
    2  A    between atoms: C_7  and  N_20
    3  A    between atoms: C_8  and  C_16
    4  A    between atoms: C_11  and  C_15
    5  A    between atoms: C_11  and  C_16
    6  A    between atoms: C_15  and  N_20
    7  A    between atoms: C_16  and  C_21
                            x       y       z     vdW  Elec       q    Type
                         _______ _______ _______ _____ _____    ______ ____

>  <TORSDO>
F 7

$$$$
=
 OpenBabel11042417193D

 26 29  0  0  1  0  0  0  0  0999 V2000
  192.1840  174.1890  143.1730 C   0  0  0  0  0  3  0  0  0  0  0  0
  189.2460  174.6460  142.2200 C   0  0  0  0  0  0  0  0  0  0  0  0
  192.2750  175.5540  142.5420 C   0  0  0  0  0  2  0  0  0  0  0  0
  191.2400  173.2830  142.8630 C   0  0  0  0  0  3  0  0  0  0  0  0
  187.0600  175.4910  142.4820 C   0  0  0  0  0  3  0  0  0  0  0  0
  187.5100  176.7710  142.8830 C   0  0  0  0  0  0  0  0  0  0  0  0
  188.8870  176.9490  142.9330 C   0  0  0  0  0  0  0  0  0  0  0  0
  191.0280  176.3440  142.7820 C   0  0  0  0  0  0  0  0  0  0  0  0
  189.6920  178.0150  143.2880 C   0  0  0  0  0  3  0  0  0  0  0  0
  187.9180  174.5020  142.1740 O   0  0  0  0  0  0  0  0  0  0  0  0
  190.1570  173.5140  141.8400 C   0  0  0  0  0  2  0  0  0  0  0  0
  189.7540  175.8810  142.5940 C   0  0  0  0  0  0  0  0  0  0  0  0
  190.9960  177.6360  143.1900 N   0  0  0  0  0  0  0  0  0  0  0  0
  186.5670  177.8840  143.2280 C   0  0  1  0  0  3  0  0  0  0  0  0
  183.6710  178.2370  141.2220 C   0  0  0  0  0  0  0  0  0  0  0  0
  185.7770  178.2630  140.8720 N   0  0  0  0  0  0  0  0  0  0  0  0
  184.1950  178.0260  142.4430 N   0  0  0  0  0  0  0  0  0  0  0  0
  185.5150  178.0460  142.1740 C   0  0  0  0  0  0  0  0  0  0  0  0
  184.6070  178.3820  140.2670 N   0  0  0  0  0  2  0  0  0  0  0  0
  181.1230  178.3590  140.7580 N   0  0  0  0  0  0  0  0  0  0  0  0
  182.2600  178.3040  140.9650 C   0  0  0  0  0  0  0  0  0  0  0  0
  185.9630  177.6870  144.6140 C   0  0  0  0  0  2  0  0  0  0  0  0
  185.9400  179.0010  145.3730 C   0  0  0  0  0  2  0  0  0  0  0  0
  184.8390  178.9930  146.3170 N   0  0  0  0  0  2  0  0  0  0  0  0
  185.3270  178.3470  147.5210 C   0  0  0  0  0  2  0  0  0  0  0  0
  186.5790  179.0510  148.0000 C   0  0  0  0  0  1  0  0  0  0  0  0
  2 12  2  0  0  0  0
  3  8  1  0  0  0  0
  3  1  1  0  0  0  0
  4  1  2  0  0  0  0
  5  6  2  0  0  0  0
  6  7  1  0  0  0  0
  6 14  1  0  0  0  0
  7  9  2  0  0  0  0
  8 13  2  0  0  0  0
 10  2  1  0  0  0  0
 10  5  1  0  0  0  0
 11  2  1  0  0  0  0
 11  4  1  0  0  0  0
 12  8  1  0  0  0  0
 12  7  1  0  0  0  0
 13  9  1  0  0  0  0
 14 22  1  1  0  0  0
 15 17  2  0  0  0  0
 16 18  2  0  0  0  0
 18 17  1  0  0  0  0
 18 14  1  0  0  0  0
 19 16  1  0  0  0  0
 19 15  1  0  0  0  0
 20 21  3  0  0  0  0
 21 15  1  0  0  0  0
 22 23  1  0  0  0  0
 23 24  1  0  0  0  0
 24 25  1  0  0  0  0
 25 26  1  0  0  0  0
M  END
>  <MODEL>
8

>  <REMARK>
 VINA RESULT:      -5.9      2.758      7.635
  Name = 
  7 active torsions:
  status: ('A' for Active; 'I' for Inactive)
    1  A    between atoms: C_5  and  C_25
    2  A    between atoms: C_7  and  N_20
    3  A    between atoms: C_8  and  C_16
    4  A    between atoms: C_11  and  C_15
    5  A    between atoms: C_11  and  C_16
    6  A    between atoms: C_15  and  N_20
    7  A    between atoms: C_16  and  C_21
                            x       y       z     vdW  Elec       q    Type
                         _______ _______ _______ _____ _____    ______ ____

>  <TORSDO>
F 7

$$$$
=
 OpenBabel11042417193D

 26 29  0  0  1  0  0  0  0  0999 V2000
  185.9020  178.6730  147.5560 C   0  0  0  0  0  3  0  0  0  0  0  0
  186.5050  178.0700  144.5530 C   0  0  0  0  0  0  0  0  0  0  0  0
  186.0580  177.1750  147.5700 C   0  0  0  0  0  2  0  0  0  0  0  0
  185.5670  179.3800  146.4630 C   0  0  0  0  0  3  0  0  0  0  0  0
  187.9630  177.6780  142.7410 C   0  0  0  0  0  3  0  0  0  0  0  0
  188.7430  176.7410  143.4590 C   0  0  0  0  0  0  0  0  0  0  0  0
  188.3470  176.4870  144.7660 C   0  0  0  0  0  0  0  0  0  0  0  0
  187.1140  176.7330  146.6070 C   0  0  0  0  0  0  0  0  0  0  0  0
  188.8500  175.6780  145.7680 C   0  0  0  0  0  3  0  0  0  0  0  0
  186.9030  178.2910  143.2970 O   0  0  0  0  0  0  0  0  0  0  0  0
  185.2980  178.7640  145.1130 C   0  0  0  0  0  2  0  0  0  0  0  0
  187.2200  177.1520  145.3090 C   0  0  0  0  0  0  0  0  0  0  0  0
  188.0880  175.8330  146.8860 N   0  0  0  0  0  0  0  0  0  0  0  0
  189.9260  176.0470  142.8540 C   0  0  1  0  0  3  0  0  0  0  0  0
  192.9660  176.0570  144.6700 C   0  0  0  0  0  0  0  0  0  0  0  0
  191.5970  177.5460  143.9850 N   0  0  0  0  0  0  0  0  0  0  0  0
  192.0080  175.3420  144.0500 N   0  0  0  0  0  0  0  0  0  0  0  0
  191.1710  176.3160  143.6410 C   0  0  0  0  0  0  0  0  0  0  0  0
  192.7340  177.3820  144.6390 N   0  0  0  0  0  2  0  0  0  0  0  0
  195.0430  174.9940  145.8000 N   0  0  0  0  0  0  0  0  0  0  0  0
  194.1150  175.4680  145.2950 C   0  0  0  0  0  0  0  0  0  0  0  0
  189.6660  174.5530  142.6890 C   0  0  0  0  0  2  0  0  0  0  0  0
  189.7320  174.1630  141.2240 C   0  0  0  0  0  2  0  0  0  0  0  0
  188.4240  174.3300  140.6210 N   0  0  0  0  0  2  0  0  0  0  0  0
  188.5670  173.9950  139.2160 C   0  0  0  0  0  2  0  0  0  0  0  0
  189.9440  173.4150  138.9720 C   0  0  0  0  0  1  0  0  0  0  0  0
  1  3  1  0  0  0  0
  2 11  1  0  0  0  0
  2 12  2  0  0  0  0
  4  1  2  0  0  0  0
  5 10  1  0  0  0  0
  5  6  2  0  0  0  0
  6  7  1  0  0  0  0
  7 12  1  0  0  0  0
  7  9  2  0  0  0  0
  8 13  2  0  0  0  0
  8  3  1  0  0  0  0
  9 13  1  0  0  0  0
 10  2  1  0  0  0  0
 11  4  1  0  0  0  0
 12  8  1  0  0  0  0
 14 22  1  1  0  0  0
 14  6  1  0  0  0  0
 14 18  1  0  0  0  0
 15 21  1  0  0  0  0
 16 19  1  0  0  0  0
 17 15  2  0  0  0  0
 18 16  2  0  0  0  0
 18 17  1  0  0  0  0
 19 15  1  0  0  0  0
 21 20  3  0  0  0  0
 23 22  1  0  0  0  0
 24 23  1  0  0  0  0
 25 24  1  0  0  0  0
 26 25  1  0  0  0  0
M  END
>  <MODEL>
9

>  <REMARK>
 VINA RESULT:      -5.9      2.051      2.823
  Name = 
  7 active torsions:
  status: ('A' for Active; 'I' for Inactive)
    1  A    between atoms: C_5  and  C_25
    2  A    between atoms: C_7  and  N_20
    3  A    between atoms: C_8  and  C_16
    4  A    between atoms: C_11  and  C_15
    5  A    between atoms: C_11  and  C_16
    6  A    between atoms: C_15  and  N_20
    7  A    between atoms: C_16  and  C_21
                            x       y       z     vdW  Elec       q    Type
                         _______ _______ _______ _____ _____    ______ ____

>  <TORSDO>
F 7

$$$$
