=
 OpenBabel11042419313D

 32 37  0  0  1  0  0  0  0  0999 V2000
  183.4630  178.1830  141.4070 C   0  0  0  0  0  0  0  0  0  0  0  0
  187.2650  178.0200  142.5650 C   0  0  0  0  0  0  0  0  0  0  0  0
  189.0440  176.5540  143.0390 C   0  0  0  0  0  2  0  0  0  0  0  0
  187.6770  176.1810  140.9810 C   0  0  0  0  0  3  0  0  0  0  0  0
  183.7650  178.6330  142.7950 C   0  0  0  0  0  3  0  0  0  0  0  0
  185.0270  178.8530  143.2270 C   0  0  0  0  0  0  0  0  0  0  0  0
  186.9700  177.2980  141.3880 C   0  0  1  0  0  0  0  0  0  0  0  0
  185.7870  178.1090  141.0970 N   0  0  0  0  0  0  0  0  0  0  0  0
  186.1690  178.8760  142.2290 C   0  0  2  0  0  0  0  0  0  0  0  0
  188.7430  175.8080  141.8480 C   0  0  0  0  0  0  0  0  0  0  0  0
  184.4810  177.8760  140.5840 C   0  0  0  0  0  3  0  0  0  0  0  0
  188.3010  177.6990  143.4240 C   0  0  0  0  0  3  0  0  0  0  0  0
  186.1330  177.0380  147.9580 C   0  0  0  0  0  2  0  0  0  0  0  0
  186.5600  176.5390  146.5770 C   0  0  0  0  0  2  0  0  0  0  0  0
  185.6100  177.0910  145.5130 C   0  0  0  0  0  2  0  0  0  0  0  0
  185.7430  179.2160  146.9510 C   0  0  0  0  0  3  0  0  0  0  0  0
  185.5130  178.5890  145.6360 C   0  0  0  0  0  0  0  0  0  0  0  0
  185.2410  179.3730  144.5880 C   0  0  0  0  0  3  0  0  0  0  0  0
  186.0600  178.5000  147.9920 N   0  0  0  0  0  0  0  0  0  0  0  0
  181.0790  179.4460  142.6160 O   0  0  0  0  0  0  0  0  0  0  0  0
  180.9490  178.6390  141.6560 C   0  0  0  0  0  0  0  0  0  0  0  0
  182.0910  178.0660  141.0040 N   0  0  0  0  0  2  0  0  0  0  0  0
  179.5830  178.2070  141.2240 C   0  0  0  0  0  2  0  0  0  0  0  0
  178.1140  177.5930  143.0850 N   0  0  0  0  0  1  0  0  0  0  0  0
  178.4960  178.6740  142.1880 C   0  0  0  0  0  2  0  0  0  0  0  0
  189.5830  174.6650  141.4920 C   0  0  0  0  0  0  0  0  0  0  0  0
  190.7320  174.5440  142.0080 O   0  0  0  0  0  0  0  0  0  0  0  0
  189.1110  173.7320  140.5660 O   0  0  0  0  0  0  0  0  0  0  0  0
  189.7060  173.5760  139.2830 C   0  0  0  0  0  2  0  0  0  0  0  0
  188.6280  173.3150  138.2460 C   0  0  2  0  0  3  0  0  0  0  0  0
  188.9130  174.0600  137.0010 C   0  0  0  0  0  2  0  0  0  0  0  0
  187.9810  174.5290  137.9450 O   0  0  0  0  0  0  0  0  0  0  0  0
  1  5  1  0  0  0  0
  2 12  2  0  0  0  0
  3 12  1  0  0  0  0
  4 10  2  0  0  0  0
  5  6  2  0  0  0  0
  6 18  1  0  0  0  0
  7  4  1  6  0  0  0
  7  9  1  0  0  0  0
  7  2  1  0  0  0  0
  8  7  1  0  0  0  0
  8  9  1  0  0  0  0
  9  2  1  6  0  0  0
  9  6  1  0  0  0  0
 10  3  1  0  0  0  0
 11  8  1  0  0  0  0
 11  1  2  0  0  0  0
 13 19  1  0  0  0  0
 14 13  1  0  0  0  0
 15 17  1  0  0  0  0
 15 14  1  0  0  0  0
 16 19  2  0  0  0  0
 17 16  1  0  0  0  0
 18 17  2  0  0  0  0
 21 20  2  0  0  0  0
 22  1  1  0  0  0  0
 22 21  1  0  0  0  0
 23 21  1  0  0  0  0
 23 25  1  0  0  0  0
 25 24  1  0  0  0  0
 26 10  1  0  0  0  0
 26 27  2  0  0  0  0
 28 26  1  0  0  0  0
 29 28  1  0  0  0  0
 30 29  1  1  0  0  0
 31 32  1  0  0  0  0
 31 30  1  0  0  0  0
 32 30  1  0  0  0  0
M  END
>  <MODEL>
1

>  <REMARK>
 VINA RESULT:      -7.7      0.000      0.000
  Name = 
  8 active torsions:
  status: ('A' for Active; 'I' for Inactive)
    1  A    between atoms: C_1  and  N_28
    2  A    between atoms: C_3  and  C_13
    3  A    between atoms: C_5  and  C_9
    4  A    between atoms: C_8  and  O_10
    5  A    between atoms: C_8  and  C_25
    6  A    between atoms: C_9  and  C_27
    7  A    between atoms: O_10  and  C_13
    8  A    between atoms: C_18  and  C_20
                            x       y       z     vdW  Elec       q    Type
                         _______ _______ _______ _____ _____    ______ ____

>  <TORSDO>
F 8

$$$$
=
 OpenBabel11042419313D

 32 37  0  0  1  0  0  0  0  0999 V2000
  182.9880  178.1100  141.5890 C   0  0  0  0  0  0  0  0  0  0  0  0
  186.8700  178.1270  142.4610 C   0  0  0  0  0  0  0  0  0  0  0  0
  188.7470  176.7480  142.7960 C   0  0  0  0  0  2  0  0  0  0  0  0
  187.2500  176.3110  140.8440 C   0  0  0  0  0  3  0  0  0  0  0  0
  183.3720  178.5730  142.9530 C   0  0  0  0  0  3  0  0  0  0  0  0
  184.6510  178.8530  143.2910 C   0  0  0  0  0  0  0  0  0  0  0  0
  186.5220  177.3920  141.3060 C   0  0  1  0  0  0  0  0  0  0  0  0
  185.2840  178.1460  141.1070 N   0  0  0  0  0  0  0  0  0  0  0  0
  185.7120  178.9300  142.2100 C   0  0  2  0  0  0  0  0  0  0  0  0
  188.3930  175.9890  141.6280 C   0  0  0  0  0  0  0  0  0  0  0  0
  183.9560  177.8510  140.6920 C   0  0  0  0  0  3  0  0  0  0  0  0
  187.9810  177.8560  143.2400 C   0  0  0  0  0  3  0  0  0  0  0  0
  186.1730  177.0900  147.9240 C   0  0  0  0  0  2  0  0  0  0  0  0
  186.5200  176.6090  146.5140 C   0  0  0  0  0  2  0  0  0  0  0  0
  185.4730  177.1190  145.5230 C   0  0  0  0  0  2  0  0  0  0  0  0
  185.6190  179.2480  146.9540 C   0  0  0  0  0  3  0  0  0  0  0  0
  185.3210  178.6120  145.6570 C   0  0  0  0  0  0  0  0  0  0  0  0
  184.9400  179.3820  144.6340 C   0  0  0  0  0  3  0  0  0  0  0  0
  186.0400  178.5480  147.9670 N   0  0  0  0  0  0  0  0  0  0  0  0
  181.0340  180.1170  140.6470 O   0  0  0  0  0  0  0  0  0  0  0  0
  180.6600  178.9400  140.8970 C   0  0  0  0  0  0  0  0  0  0  0  0
  181.5980  177.9270  141.2890 N   0  0  0  0  0  2  0  0  0  0  0  0
  179.2040  178.5960  140.8610 C   0  0  0  0  0  2  0  0  0  0  0  0
  178.5790  178.6020  143.2290 N   0  0  0  0  0  1  0  0  0  0  0  0
  178.7780  177.7550  142.0620 C   0  0  0  0  0  2  0  0  0  0  0  0
  189.2580  174.8870  141.2060 C   0  0  0  0  0  0  0  0  0  0  0  0
  188.8430  174.0540  140.3500 O   0  0  0  0  0  0  0  0  0  0  0  0
  190.5280  174.7590  141.7740 O   0  0  0  0  0  0  0  0  0  0  0  0
  190.9440  173.5660  142.4290 C   0  0  0  0  0  2  0  0  0  0  0  0
  190.0630  173.3120  143.6390 C   0  0  2  0  0  3  0  0  0  0  0  0
  190.5450  172.1350  144.3950 C   0  0  0  0  0  2  0  0  0  0  0  0
  189.4580  172.0460  143.5050 O   0  0  0  0  0  0  0  0  0  0  0  0
  1  5  1  0  0  0  0
  2 12  2  0  0  0  0
  3 12  1  0  0  0  0
  4 10  2  0  0  0  0
  5  6  2  0  0  0  0
  6 18  1  0  0  0  0
  7  4  1  6  0  0  0
  7  9  1  0  0  0  0
  7  2  1  0  0  0  0
  8  7  1  0  0  0  0
  8  9  1  0  0  0  0
  9  2  1  6  0  0  0
  9  6  1  0  0  0  0
 10  3  1  0  0  0  0
 11  8  1  0  0  0  0
 11  1  2  0  0  0  0
 13 19  1  0  0  0  0
 14 13  1  0  0  0  0
 15 17  1  0  0  0  0
 15 14  1  0  0  0  0
 16 19  2  0  0  0  0
 17 16  1  0  0  0  0
 18 17  2  0  0  0  0
 20 21  2  0  0  0  0
 21 22  1  0  0  0  0
 22  1  1  0  0  0  0
 23 21  1  0  0  0  0
 23 25  1  0  0  0  0
 25 24  1  0  0  0  0
 26 10  1  0  0  0  0
 26 28  1  0  0  0  0
 27 26  2  0  0  0  0
 28 29  1  0  0  0  0
 30 29  1  6  0  0  0
 30 31  1  0  0  0  0
 32 30  1  0  0  0  0
 32 31  1  0  0  0  0
M  END
>  <MODEL>
2

>  <REMARK>
 VINA RESULT:      -7.5      1.297      2.270
  Name = 
  8 active torsions:
  status: ('A' for Active; 'I' for Inactive)
    1  A    between atoms: C_1  and  N_28
    2  A    between atoms: C_3  and  C_13
    3  A    between atoms: C_5  and  C_9
    4  A    between atoms: C_8  and  O_10
    5  A    between atoms: C_8  and  C_25
    6  A    between atoms: C_9  and  C_27
    7  A    between atoms: O_10  and  C_13
    8  A    between atoms: C_18  and  C_20
                            x       y       z     vdW  Elec       q    Type
                         _______ _______ _______ _____ _____    ______ ____

>  <TORSDO>
F 8

$$$$
=
 OpenBabel11042419313D

 32 37  0  0  1  0  0  0  0  0999 V2000
  188.6780  175.5180  141.8970 C   0  0  0  0  0  0  0  0  0  0  0  0
  190.0970  177.0640  145.2770 C   0  0  0  0  0  0  0  0  0  0  0  0
  191.6980  176.7660  146.9760 C   0  0  0  0  0  2  0  0  0  0  0  0
  192.3880  176.4800  144.5920 C   0  0  0  0  0  3  0  0  0  0  0  0
  187.7640  175.5200  143.0740 C   0  0  0  0  0  3  0  0  0  0  0  0
  188.0310  176.2230  144.1980 C   0  0  0  0  0  0  0  0  0  0  0  0
  191.0720  176.7840  144.2940 C   0  0  1  0  0  0  0  0  0  0  0  0
  190.1010  176.8510  143.2020 N   0  0  0  0  0  0  0  0  0  0  0  0
  189.1660  177.2280  144.2020 C   0  0  2  0  0  0  0  0  0  0  0  0
  192.6920  176.4700  145.9820 C   0  0  0  0  0  0  0  0  0  0  0  0
  189.8640  176.1430  141.9910 C   0  0  0  0  0  3  0  0  0  0  0  0
  190.3570  177.0810  146.6350 C   0  0  0  0  0  3  0  0  0  0  0  0
  183.8990  178.9930  145.6620 C   0  0  0  0  0  2  0  0  0  0  0  0
  184.4260  178.6560  144.2660 C   0  0  0  0  0  2  0  0  0  0  0  0
  185.8960  178.2440  144.3560 C   0  0  0  0  0  2  0  0  0  0  0  0
  185.1010  177.0490  146.4880 C   0  0  0  0  0  3  0  0  0  0  0  0
  186.0610  177.1430  145.3720 C   0  0  0  0  0  0  0  0  0  0  0  0
  187.0410  176.2380  145.2870 C   0  0  0  0  0  3  0  0  0  0  0  0
  184.1010  177.8760  146.5870 N   0  0  0  0  0  0  0  0  0  0  0  0
  189.1600  172.6940  141.1690 O   0  0  0  0  0  0  0  0  0  0  0  0
  188.5820  173.4650  140.3570 C   0  0  0  0  0  0  0  0  0  0  0  0
  188.2720  174.8210  140.7100 N   0  0  0  0  0  2  0  0  0  0  0  0
  188.2730  172.9950  138.9710 C   0  0  0  0  0  2  0  0  0  0  0  0
  189.3770  174.0640  137.0650 N   0  0  0  0  0  1  0  0  0  0  0  0
  188.2360  174.1420  137.9650 C   0  0  0  0  0  2  0  0  0  0  0  0
  194.0660  176.2000  146.4080 C   0  0  0  0  0  0  0  0  0  0  0  0
  194.7500  177.1190  146.9440 O   0  0  0  0  0  0  0  0  0  0  0  0
  194.6100  174.9310  146.1950 O   0  0  0  0  0  0  0  0  0  0  0  0
  195.7960  174.7390  145.4320 C   0  0  0  0  0  2  0  0  0  0  0  0
  196.6870  173.7180  146.1170 C   0  0  2  0  0  3  0  0  0  0  0  0
  197.3020  172.8140  145.1210 C   0  0  0  0  0  2  0  0  0  0  0  0
  196.1750  172.4290  145.8720 O   0  0  0  0  0  0  0  0  0  0  0  0
  1 11  2  0  0  0  0
  1  5  1  0  0  0  0
  2 12  2  0  0  0  0
  4 10  2  0  0  0  0
  5  6  2  0  0  0  0
  6 18  1  0  0  0  0
  7  4  1  6  0  0  0
  7  2  1  0  0  0  0
  8  9  1  0  0  0  0
  8  7  1  0  0  0  0
  9  6  1  1  0  0  0
  9  7  1  0  0  0  0
  9  2  1  0  0  0  0
 10 26  1  0  0  0  0
 10  3  1  0  0  0  0
 11  8  1  0  0  0  0
 12  3  1  0  0  0  0
 13 19  1  0  0  0  0
 14 15  1  0  0  0  0
 14 13  1  0  0  0  0
 15 17  1  0  0  0  0
 16 19  2  0  0  0  0
 17 16  1  0  0  0  0
 18 17  2  0  0  0  0
 21 22  1  0  0  0  0
 21 20  2  0  0  0  0
 22  1  1  0  0  0  0
 23 21  1  0  0  0  0
 24 25  1  0  0  0  0
 25 23  1  0  0  0  0
 26 27  2  0  0  0  0
 28 26  1  0  0  0  0
 29 28  1  0  0  0  0
 30 29  1  6  0  0  0
 31 32  1  0  0  0  0
 31 30  1  0  0  0  0
 32 30  1  0  0  0  0
M  END
>  <MODEL>
3

>  <REMARK>
 VINA RESULT:      -6.9      4.220      7.193
  Name = 
  8 active torsions:
  status: ('A' for Active; 'I' for Inactive)
    1  A    between atoms: C_1  and  N_28
    2  A    between atoms: C_3  and  C_13
    3  A    between atoms: C_5  and  C_9
    4  A    between atoms: C_8  and  O_10
    5  A    between atoms: C_8  and  C_25
    6  A    between atoms: C_9  and  C_27
    7  A    between atoms: O_10  and  C_13
    8  A    between atoms: C_18  and  C_20
                            x       y       z     vdW  Elec       q    Type
                         _______ _______ _______ _____ _____    ______ ____

>  <TORSDO>
F 8

$$$$
=
 OpenBabel11042419313D

 32 37  0  0  1  0  0  0  0  0999 V2000
  193.5530  175.2600  145.3060 C   0  0  0  0  0  0  0  0  0  0  0  0
  190.3230  176.9860  143.7510 C   0  0  0  0  0  0  0  0  0  0  0  0
  187.9950  177.2310  143.9990 C   0  0  0  0  0  2  0  0  0  0  0  0
  189.4610  177.4310  146.0130 C   0  0  0  0  0  3  0  0  0  0  0  0
  193.1290  174.8030  143.9510 C   0  0  0  0  0  3  0  0  0  0  0  0
  192.2060  175.4660  143.2190 C   0  0  0  0  0  0  0  0  0  0  0  0
  190.5040  177.1990  145.1350 C   0  0  1  0  0  0  0  0  0  0  0  0
  191.9440  176.9510  145.0620 N   0  0  0  0  0  0  0  0  0  0  0  0
  191.7440  176.8410  143.6600 C   0  0  2  0  0  0  0  0  0  0  0  0
  188.1720  177.4390  145.4100 C   0  0  0  0  0  0  0  0  0  0  0  0
  192.9190  176.3030  145.8700 C   0  0  0  0  0  3  0  0  0  0  0  0
  189.0890  177.0020  143.1250 C   0  0  0  0  0  3  0  0  0  0  0  0
  188.7860  172.3720  140.8470 C   0  0  0  0  0  2  0  0  0  0  0  0
  188.6310  173.2660  142.0790 C   0  0  0  0  0  2  0  0  0  0  0  0
  190.0090  173.5880  142.6580 C   0  0  0  0  0  2  0  0  0  0  0  0
  190.6570  173.7720  140.1790 C   0  0  0  0  0  3  0  0  0  0  0  0
  190.9010  174.1510  141.5820 C   0  0  0  0  0  0  0  0  0  0  0  0
  191.8990  174.9980  141.8570 C   0  0  0  0  0  3  0  0  0  0  0  0
  189.6680  172.9890  139.8550 N   0  0  0  0  0  0  0  0  0  0  0  0
  196.4310  175.1920  144.6370 O   0  0  0  0  0  0  0  0  0  0  0  0
  195.9850  174.4870  145.5820 C   0  0  0  0  0  0  0  0  0  0  0  0
  194.6060  174.5520  145.9740 N   0  0  0  0  0  2  0  0  0  0  0  0
  196.8810  173.5040  146.2680 C   0  0  0  0  0  2  0  0  0  0  0  0
  196.1710  171.6020  144.8990 N   0  0  0  0  0  1  0  0  0  0  0  0
  197.3230  172.3760  145.3390 C   0  0  0  0  0  2  0  0  0  0  0  0
  187.0000  177.7150  146.2410 C   0  0  0  0  0  0  0  0  0  0  0  0
  186.8270  177.0750  147.3180 O   0  0  0  0  0  0  0  0  0  0  0  0
  186.0730  178.6710  145.8190 O   0  0  0  0  0  0  0  0  0  0  0  0
  184.7380  178.3220  145.4700 C   0  0  0  0  0  2  0  0  0  0  0  0
  184.2740  179.1740  144.3010 C   0  0  2  0  0  3  0  0  0  0  0  0
  184.1480  178.3530  143.0770 C   0  0  0  0  0  2  0  0  0  0  0  0
  185.2730  179.1680  143.3080 O   0  0  0  0  0  0  0  0  0  0  0  0
  1 11  2  0  0  0  0
  1 22  1  0  0  0  0
  2  7  1  0  0  0  0
  3 10  1  0  0  0  0
  5  1  1  0  0  0  0
  6  5  2  0  0  0  0
  7  4  1  6  0  0  0
  8  7  1  0  0  0  0
  8 11  1  0  0  0  0
  9  6  1  1  0  0  0
  9  2  1  0  0  0  0
  9  8  1  0  0  0  0
  9  7  1  0  0  0  0
 10  4  2  0  0  0  0
 10 26  1  0  0  0  0
 12  2  2  0  0  0  0
 12  3  1  0  0  0  0
 13 14  1  0  0  0  0
 14 15  1  0  0  0  0
 16 17  1  0  0  0  0
 17 18  2  0  0  0  0
 17 15  1  0  0  0  0
 18  6  1  0  0  0  0
 19 16  2  0  0  0  0
 19 13  1  0  0  0  0
 20 21  2  0  0  0  0
 21 22  1  0  0  0  0
 21 23  1  0  0  0  0
 24 25  1  0  0  0  0
 25 23  1  0  0  0  0
 26 27  2  0  0  0  0
 28 26  1  0  0  0  0
 29 28  1  0  0  0  0
 30 29  1  1  0  0  0
 31 32  1  0  0  0  0
 31 30  1  0  0  0  0
 32 30  1  0  0  0  0
M  END
>  <MODEL>
4

>  <REMARK>
 VINA RESULT:      -6.9      5.100     10.248
  Name = 
  8 active torsions:
  status: ('A' for Active; 'I' for Inactive)
    1  A    between atoms: C_1  and  N_28
    2  A    between atoms: C_3  and  C_13
    3  A    between atoms: C_5  and  C_9
    4  A    between atoms: C_8  and  O_10
    5  A    between atoms: C_8  and  C_25
    6  A    between atoms: C_9  and  C_27
    7  A    between atoms: O_10  and  C_13
    8  A    between atoms: C_18  and  C_20
                            x       y       z     vdW  Elec       q    Type
                         _______ _______ _______ _____ _____    ______ ____

>  <TORSDO>
F 8

$$$$
=
 OpenBabel11042419313D

 32 37  0  0  1  0  0  0  0  0999 V2000
  188.8020  176.8180  142.3910 C   0  0  0  0  0  0  0  0  0  0  0  0
  190.9360  176.5530  145.7380 C   0  0  0  0  0  0  0  0  0  0  0  0
  192.4880  175.2190  146.9000 C   0  0  0  0  0  2  0  0  0  0  0  0
  192.8390  175.6510  144.4640 C   0  0  0  0  0  3  0  0  0  0  0  0
  188.0440  176.6400  143.6630 C   0  0  0  0  0  3  0  0  0  0  0  0
  188.6230  176.7760  144.8770 C   0  0  0  0  0  0  0  0  0  0  0  0
  191.6760  176.3950  144.5460 C   0  0  1  0  0  0  0  0  0  0  0  0
  190.6910  177.1260  143.7480 N   0  0  0  0  0  0  0  0  0  0  0  0
  190.0220  177.3520  144.9800 C   0  0  2  0  0  0  0  0  0  0  0  0
  193.2410  175.0460  145.6880 C   0  0  0  0  0  0  0  0  0  0  0  0
  190.1310  177.0090  142.4460 C   0  0  0  0  0  3  0  0  0  0  0  0
  191.3020  175.9950  146.9500 C   0  0  0  0  0  3  0  0  0  0  0  0
  184.4410  179.0370  146.9470 C   0  0  0  0  0  2  0  0  0  0  0  0
  184.8120  178.7820  145.4850 C   0  0  0  0  0  2  0  0  0  0  0  0
  186.3170  178.5380  145.3710 C   0  0  0  0  0  2  0  0  0  0  0  0
  185.9490  177.2300  147.5520 C   0  0  0  0  0  3  0  0  0  0  0  0
  186.7370  177.4490  146.3240 C   0  0  0  0  0  0  0  0  0  0  0  0
  187.7910  176.6630  146.0860 C   0  0  0  0  0  3  0  0  0  0  0  0
  184.8860  177.9370  147.8050 N   0  0  0  0  0  0  0  0  0  0  0  0
  186.5710  178.5180  141.4580 O   0  0  0  0  0  0  0  0  0  0  0  0
  186.9640  177.5480  140.7540 C   0  0  0  0  0  0  0  0  0  0  0  0
  188.0890  176.7490  141.1480 N   0  0  0  0  0  2  0  0  0  0  0  0
  186.2080  177.1660  139.5210 C   0  0  0  0  0  2  0  0  0  0  0  0
  186.3100  176.0420  137.3480 N   0  0  0  0  0  1  0  0  0  0  0  0
  187.0260  176.2700  138.5950 C   0  0  0  0  0  2  0  0  0  0  0  0
  194.4800  174.2690  145.7240 C   0  0  0  0  0  0  0  0  0  0  0  0
  194.4290  173.0050  145.7180 O   0  0  0  0  0  0  0  0  0  0  0  0
  195.7040  174.9370  145.7870 O   0  0  0  0  0  0  0  0  0  0  0  0
  196.7280  174.7260  144.8220 C   0  0  0  0  0  2  0  0  0  0  0  0
  196.3610  175.4220  143.5240 C   0  0  2  0  0  3  0  0  0  0  0  0
  197.4140  176.3850  143.1340 C   0  0  0  0  0  2  0  0  0  0  0  0
  196.2290  176.8030  143.7680 O   0  0  0  0  0  0  0  0  0  0  0  0
  1 11  2  0  0  0  0
  1  5  1  0  0  0  0
  2 12  2  0  0  0  0
  3 12  1  0  0  0  0
  4 10  2  0  0  0  0
  5  6  2  0  0  0  0
  6 18  1  0  0  0  0
  7  4  1  1  0  0  0
  7  9  1  0  0  0  0
  7  2  1  0  0  0  0
  8  7  1  0  0  0  0
  8  9  1  0  0  0  0
  9  6  1  6  0  0  0
  9  2  1  0  0  0  0
 10 26  1  0  0  0  0
 10  3  1  0  0  0  0
 11  8  1  0  0  0  0
 13 19  1  0  0  0  0
 14 13  1  0  0  0  0
 15 14  1  0  0  0  0
 15 17  1  0  0  0  0
 16 19  2  0  0  0  0
 17 16  1  0  0  0  0
 18 17  2  0  0  0  0
 21 22  1  0  0  0  0
 21 20  2  0  0  0  0
 22  1  1  0  0  0  0
 23 21  1  0  0  0  0
 24 25  1  0  0  0  0
 25 23  1  0  0  0  0
 26 28  1  0  0  0  0
 27 26  2  0  0  0  0
 29 28  1  0  0  0  0
 30 32  1  0  0  0  0
 30 29  1  1  0  0  0
 31 30  1  0  0  0  0
 31 32  1  0  0  0  0
M  END
>  <MODEL>
5

>  <REMARK>
 VINA RESULT:      -6.7      4.186      6.346
  Name = 
  8 active torsions:
  status: ('A' for Active; 'I' for Inactive)
    1  A    between atoms: C_1  and  N_28
    2  A    between atoms: C_3  and  C_13
    3  A    between atoms: C_5  and  C_9
    4  A    between atoms: C_8  and  O_10
    5  A    between atoms: C_8  and  C_25
    6  A    between atoms: C_9  and  C_27
    7  A    between atoms: O_10  and  C_13
    8  A    between atoms: C_18  and  C_20
                            x       y       z     vdW  Elec       q    Type
                         _______ _______ _______ _____ _____    ______ ____

>  <TORSDO>
F 8

$$$$
=
 OpenBabel11042419313D

 32 37  0  0  1  0  0  0  0  0999 V2000
  189.1160  176.3990  145.3860 C   0  0  0  0  0  0  0  0  0  0  0  0
  191.8640  173.5470  145.0080 C   0  0  0  0  0  0  0  0  0  0  0  0
  194.1190  173.1420  144.4710 C   0  0  0  0  0  2  0  0  0  0  0  0
  193.5550  175.0320  146.0050 C   0  0  0  0  0  3  0  0  0  0  0  0
  188.9160  175.4100  144.2890 C   0  0  0  0  0  3  0  0  0  0  0  0
  189.6340  174.2670  144.2030 C   0  0  0  0  0  0  0  0  0  0  0  0
  192.2420  174.6330  145.8270 C   0  0  1  0  0  0  0  0  0  0  0  0
  190.8550  175.0000  146.1120 N   0  0  0  0  0  0  0  0  0  0  0  0
  190.5100  173.8430  145.3660 C   0  0  2  0  0  0  0  0  0  0  0  0
  194.5110  174.2530  145.2940 C   0  0  0  0  0  0  0  0  0  0  0  0
  190.1200  176.2090  146.2600 C   0  0  0  0  0  3  0  0  0  0  0  0
  192.7630  172.7560  144.3150 C   0  0  0  0  0  3  0  0  0  0  0  0
  191.1130  173.2300  139.3420 C   0  0  0  0  0  2  0  0  0  0  0  0
  191.9060  173.7890  140.5250 C   0  0  0  0  0  2  0  0  0  0  0  0
  190.9430  174.3580  141.5680 C   0  0  0  0  0  2  0  0  0  0  0  0
  189.5520  172.2880  140.9490 C   0  0  0  0  0  3  0  0  0  0  0  0
  189.9120  173.3230  141.9360 C   0  0  0  0  0  0  0  0  0  0  0  0
  189.3230  173.3020  143.1360 C   0  0  0  0  0  3  0  0  0  0  0  0
  190.1330  172.2370  139.7850 N   0  0  0  0  0  0  0  0  0  0  0  0
  186.4670  176.6110  146.6810 O   0  0  0  0  0  0  0  0  0  0  0  0
  186.9350  177.5870  146.0340 C   0  0  0  0  0  0  0  0  0  0  0  0
  188.2470  177.5380  145.4550 N   0  0  0  0  0  2  0  0  0  0  0  0
  186.0890  178.7980  145.7960 C   0  0  0  0  0  2  0  0  0  0  0  0
  184.0710  178.7210  144.4110 N   0  0  0  0  0  1  0  0  0  0  0  0
  184.6010  178.4640  145.7420 C   0  0  0  0  0  2  0  0  0  0  0  0
  195.9330  174.5620  145.4440 C   0  0  0  0  0  0  0  0  0  0  0  0
  196.5580  174.1640  146.4690 O   0  0  0  0  0  0  0  0  0  0  0  0
  196.5770  175.3130  144.4580 O   0  0  0  0  0  0  0  0  0  0  0  0
  195.9210  176.3740  143.7710 C   0  0  0  0  0  2  0  0  0  0  0  0
  196.1550  176.2390  142.2770 C   0  0  2  0  0  3  0  0  0  0  0  0
  194.8850  176.4010  141.5360 C   0  0  0  0  0  2  0  0  0  0  0  0
  195.4290  175.1300  141.8000 O   0  0  0  0  0  0  0  0  0  0  0  0
  1 22  1  0  0  0  0
  1 11  2  0  0  0  0
  2  9  1  0  0  0  0
  2  7  1  0  0  0  0
  3 10  1  0  0  0  0
  5  1  1  0  0  0  0
  6  5  2  0  0  0  0
  7  4  1  1  0  0  0
  7  8  1  0  0  0  0
  8 11  1  0  0  0  0
  9  6  1  6  0  0  0
  9  7  1  0  0  0  0
  9  8  1  0  0  0  0
 10 26  1  0  0  0  0
 10  4  2  0  0  0  0
 12  3  1  0  0  0  0
 12  2  2  0  0  0  0
 13 19  1  0  0  0  0
 13 14  1  0  0  0  0
 14 15  1  0  0  0  0
 15 17  1  0  0  0  0
 16 17  1  0  0  0  0
 17 18  2  0  0  0  0
 18  6  1  0  0  0  0
 19 16  2  0  0  0  0
 21 20  2  0  0  0  0
 22 21  1  0  0  0  0
 23 21  1  0  0  0  0
 24 25  1  0  0  0  0
 25 23  1  0  0  0  0
 26 27  2  0  0  0  0
 28 26  1  0  0  0  0
 29 28  1  0  0  0  0
 30 29  1  1  0  0  0
 31 32  1  0  0  0  0
 31 30  1  0  0  0  0
 32 30  1  0  0  0  0
M  END
>  <MODEL>
6

>  <REMARK>
 VINA RESULT:      -6.7      4.656      7.844
  Name = 
  8 active torsions:
  status: ('A' for Active; 'I' for Inactive)
    1  A    between atoms: C_1  and  N_28
    2  A    between atoms: C_3  and  C_13
    3  A    between atoms: C_5  and  C_9
    4  A    between atoms: C_8  and  O_10
    5  A    between atoms: C_8  and  C_25
    6  A    between atoms: C_9  and  C_27
    7  A    between atoms: O_10  and  C_13
    8  A    between atoms: C_18  and  C_20
                            x       y       z     vdW  Elec       q    Type
                         _______ _______ _______ _____ _____    ______ ____

>  <TORSDO>
F 8

$$$$
=
 OpenBabel11042419313D

 32 37  0  0  1  0  0  0  0  0999 V2000
  190.1120  173.5370  141.4110 C   0  0  0  0  0  0  0  0  0  0  0  0
  188.6770  176.4060  143.7640 C   0  0  0  0  0  0  0  0  0  0  0  0
  187.2260  178.2580  143.8310 C   0  0  0  0  0  2  0  0  0  0  0  0
  186.4550  176.1480  142.7370 C   0  0  0  0  0  3  0  0  0  0  0  0
  191.0790  174.5670  141.8860 C   0  0  0  0  0  3  0  0  0  0  0  0
  190.7780  175.4450  142.8690 C   0  0  0  0  0  0  0  0  0  0  0  0
  187.6990  175.6500  143.0820 C   0  0  1  0  0  0  0  0  0  0  0  0
  188.5910  174.5040  142.9140 N   0  0  0  0  0  0  0  0  0  0  0  0
  189.5180  175.2500  143.6890 C   0  0  2  0  0  0  0  0  0  0  0  0
  186.2300  177.4990  143.1280 C   0  0  0  0  0  0  0  0  0  0  0  0
  188.8580  173.5480  141.8950 C   0  0  0  0  0  3  0  0  0  0  0  0
  188.4910  177.7140  144.1750 C   0  0  0  0  0  3  0  0  0  0  0  0
  194.4630  175.6670  146.5120 C   0  0  0  0  0  2  0  0  0  0  0  0
  193.9190  174.4770  145.7190 C   0  0  0  0  0  2  0  0  0  0  0  0
  192.5470  174.8270  145.1400 C   0  0  0  0  0  2  0  0  0  0  0  0
  193.6570  177.1080  144.7290 C   0  0  0  0  0  3  0  0  0  0  0  0
  192.6310  176.1150  144.3620 C   0  0  0  0  0  0  0  0  0  0  0  0
  191.8140  176.3810  143.3380 C   0  0  0  0  0  3  0  0  0  0  0  0
  194.5070  176.8750  145.6870 N   0  0  0  0  0  0  0  0  0  0  0  0
  190.1550  173.8220  138.4690 O   0  0  0  0  0  0  0  0  0  0  0  0
  190.4900  172.7300  139.0030 C   0  0  0  0  0  0  0  0  0  0  0  0
  190.5450  172.5840  140.4300 N   0  0  0  0  0  2  0  0  0  0  0  0
  190.7650  171.5340  138.1480 C   0  0  0  0  0  2  0  0  0  0  0  0
  190.2610  169.1390  138.2340 N   0  0  0  0  0  1  0  0  0  0  0  0
  189.6760  170.4720  138.2690 C   0  0  0  0  0  2  0  0  0  0  0  0
  184.9320  178.1130  142.8500 C   0  0  0  0  0  0  0  0  0  0  0  0
  184.6530  178.4900  141.6750 O   0  0  0  0  0  0  0  0  0  0  0  0
  184.0240  178.2950  143.8950 O   0  0  0  0  0  0  0  0  0  0  0  0
  184.3370  179.0850  145.0360 C   0  0  0  0  0  2  0  0  0  0  0  0
  184.0710  178.2890  146.3010 C   0  0  2  0  0  3  0  0  0  0  0  0
  185.2050  178.4120  147.2420 C   0  0  0  0  0  2  0  0  0  0  0  0
  185.0470  177.2810  146.4200 O   0  0  0  0  0  0  0  0  0  0  0  0
  1  5  1  0  0  0  0
  1 11  2  0  0  0  0
  2 12  2  0  0  0  0
  3 12  1  0  0  0  0
  4 10  2  0  0  0  0
  5  6  2  0  0  0  0
  6 18  1  0  0  0  0
  7  4  1  1  0  0  0
  7  9  1  0  0  0  0
  7  2  1  0  0  0  0
  8  7  1  0  0  0  0
  8  9  1  0  0  0  0
  9  6  1  6  0  0  0
  9  2  1  0  0  0  0
 10  3  1  0  0  0  0
 11  8  1  0  0  0  0
 14 13  1  0  0  0  0
 15 14  1  0  0  0  0
 16 19  2  0  0  0  0
 17 16  1  0  0  0  0
 17 15  1  0  0  0  0
 18 17  2  0  0  0  0
 19 13  1  0  0  0  0
 20 21  2  0  0  0  0
 21 22  1  0  0  0  0
 22  1  1  0  0  0  0
 23 25  1  0  0  0  0
 23 21  1  0  0  0  0
 24 25  1  0  0  0  0
 26 10  1  0  0  0  0
 26 28  1  0  0  0  0
 27 26  2  0  0  0  0
 28 29  1  0  0  0  0
 30 29  1  6  0  0  0
 30 32  1  0  0  0  0
 30 31  1  0  0  0  0
 32 31  1  0  0  0  0
M  END
>  <MODEL>
7

>  <REMARK>
 VINA RESULT:      -6.6      4.039      8.524
  Name = 
  8 active torsions:
  status: ('A' for Active; 'I' for Inactive)
    1  A    between atoms: C_1  and  N_28
    2  A    between atoms: C_3  and  C_13
    3  A    between atoms: C_5  and  C_9
    4  A    between atoms: C_8  and  O_10
    5  A    between atoms: C_8  and  C_25
    6  A    between atoms: C_9  and  C_27
    7  A    between atoms: O_10  and  C_13
    8  A    between atoms: C_18  and  C_20
                            x       y       z     vdW  Elec       q    Type
                         _______ _______ _______ _____ _____    ______ ____

>  <TORSDO>
F 8

$$$$
=
 OpenBabel11042419313D

 32 37  0  0  1  0  0  0  0  0999 V2000
  189.8260  174.5380  142.2220 C   0  0  0  0  0  0  0  0  0  0  0  0
  190.1450  176.1080  145.8640 C   0  0  0  0  0  0  0  0  0  0  0  0
  189.2970  177.7740  147.2940 C   0  0  0  0  0  2  0  0  0  0  0  0
  187.7010  176.3810  145.9690 C   0  0  0  0  0  3  0  0  0  0  0  0
  191.1050  175.2310  142.5490 C   0  0  0  0  0  3  0  0  0  0  0  0
  191.4320  175.5920  143.8100 C   0  0  0  0  0  0  0  0  0  0  0  0
  188.8330  175.7540  145.4800 C   0  0  1  0  0  0  0  0  0  0  0  0
  189.3020  174.7780  144.4960 N   0  0  0  0  0  0  0  0  0  0  0  0
  190.6030  175.0850  144.9740 C   0  0  2  0  0  0  0  0  0  0  0  0
  187.9590  177.4250  146.9010 C   0  0  0  0  0  0  0  0  0  0  0  0
  188.9130  174.3630  143.1930 C   0  0  0  0  0  3  0  0  0  0  0  0
  190.4360  177.1050  146.7780 C   0  0  0  0  0  3  0  0  0  0  0  0
  196.1970  174.1150  145.2280 C   0  0  0  0  0  2  0  0  0  0  0  0
  195.1360  173.3890  144.3970 C   0  0  0  0  0  2  0  0  0  0  0  0
  193.7630  174.0080  144.6610 C   0  0  0  0  0  2  0  0  0  0  0  0
  195.1000  176.2020  144.6400 C   0  0  0  0  0  3  0  0  0  0  0  0
  193.8190  175.4980  144.4440 C   0  0  0  0  0  0  0  0  0  0  0  0
  192.7480  176.2010  144.0640 C   0  0  0  0  0  3  0  0  0  0  0  0
  196.1820  175.5540  144.9620 N   0  0  0  0  0  0  0  0  0  0  0  0
  187.8010  175.5050  140.2980 O   0  0  0  0  0  0  0  0  0  0  0  0
  188.5640  174.5510  139.9870 C   0  0  0  0  0  0  0  0  0  0  0  0
  189.6020  174.1060  140.8730 N   0  0  0  0  0  2  0  0  0  0  0  0
  188.3470  173.8100  138.7050 C   0  0  0  0  0  2  0  0  0  0  0  0
  189.4560  171.8770  137.6880 N   0  0  0  0  0  1  0  0  0  0  0  0
  188.6750  172.3240  138.8330 C   0  0  0  0  0  2  0  0  0  0  0  0
  186.8320  178.1290  147.5120 C   0  0  0  0  0  0  0  0  0  0  0  0
  187.0450  179.0330  148.3710 O   0  0  0  0  0  0  0  0  0  0  0  0
  185.5290  177.7750  147.1520 O   0  0  0  0  0  0  0  0  0  0  0  0
  184.6790  178.6630  146.4340 C   0  0  0  0  0  2  0  0  0  0  0  0
  184.8440  178.4360  144.9420 C   0  0  2  0  0  3  0  0  0  0  0  0
  185.4450  179.6250  144.2990 C   0  0  0  0  0  2  0  0  0  0  0  0
  184.0600  179.3790  144.2480 O   0  0  0  0  0  0  0  0  0  0  0  0
  1  5  1  0  0  0  0
  1 11  2  0  0  0  0
  2 12  2  0  0  0  0
  4 10  2  0  0  0  0
  5  6  2  0  0  0  0
  6 18  1  0  0  0  0
  7  2  1  0  0  0  0
  7  4  1  1  0  0  0
  8  9  1  0  0  0  0
  8  7  1  0  0  0  0
  9  6  1  6  0  0  0
  9  7  1  0  0  0  0
  9  2  1  0  0  0  0
 10  3  1  0  0  0  0
 10 26  1  0  0  0  0
 11  8  1  0  0  0  0
 12  3  1  0  0  0  0
 14 15  1  0  0  0  0
 14 13  1  0  0  0  0
 16 19  2  0  0  0  0
 17 16  1  0  0  0  0
 17 15  1  0  0  0  0
 18 17  2  0  0  0  0
 19 13  1  0  0  0  0
 21 20  2  0  0  0  0
 21 22  1  0  0  0  0
 22  1  1  0  0  0  0
 23 25  1  0  0  0  0
 23 21  1  0  0  0  0
 24 25  1  0  0  0  0
 26 27  2  0  0  0  0
 28 26  1  0  0  0  0
 29 28  1  0  0  0  0
 30 29  1  1  0  0  0
 31 30  1  0  0  0  0
 32 31  1  0  0  0  0
 32 30  1  0  0  0  0
M  END
>  <MODEL>
8

>  <REMARK>
 VINA RESULT:      -6.6      4.552      8.482
  Name = 
  8 active torsions:
  status: ('A' for Active; 'I' for Inactive)
    1  A    between atoms: C_1  and  N_28
    2  A    between atoms: C_3  and  C_13
    3  A    between atoms: C_5  and  C_9
    4  A    between atoms: C_8  and  O_10
    5  A    between atoms: C_8  and  C_25
    6  A    between atoms: C_9  and  C_27
    7  A    between atoms: O_10  and  C_13
    8  A    between atoms: C_18  and  C_20
                            x       y       z     vdW  Elec       q    Type
                         _______ _______ _______ _____ _____    ______ ____

>  <TORSDO>
F 8

$$$$
=
 OpenBabel11042419313D

 32 37  0  0  1  0  0  0  0  0999 V2000
  187.9280  175.5150  143.0400 C   0  0  0  0  0  0  0  0  0  0  0  0
  191.1540  173.7530  144.5630 C   0  0  0  0  0  0  0  0  0  0  0  0
  193.4790  173.9750  144.8550 C   0  0  0  0  0  2  0  0  0  0  0  0
  192.0030  175.9390  145.3130 C   0  0  0  0  0  3  0  0  0  0  0  0
  188.3610  174.2350  142.4080 C   0  0  0  0  0  3  0  0  0  0  0  0
  189.2820  173.4240  142.9730 C   0  0  0  0  0  0  0  0  0  0  0  0
  190.9650  175.0960  144.9590 C   0  0  1  0  0  0  0  0  0  0  0  0
  189.5270  175.0510  144.6930 N   0  0  0  0  0  0  0  0  0  0  0  0
  189.7340  173.6780  144.3980 C   0  0  2  0  0  0  0  0  0  0  0  0
  193.2950  175.3450  145.2490 C   0  0  0  0  0  0  0  0  0  0  0  0
  188.5530  175.9360  144.1530 C   0  0  0  0  0  3  0  0  0  0  0  0
  192.3900  173.1360  144.5040 C   0  0  0  0  0  3  0  0  0  0  0  0
  192.5650  171.5560  139.4190 C   0  0  0  0  0  2  0  0  0  0  0  0
  192.7410  172.6800  140.4410 C   0  0  0  0  0  2  0  0  0  0  0  0
  191.3700  173.1670  140.9130 C   0  0  0  0  0  2  0  0  0  0  0  0
  190.8080  170.6610  140.8380 C   0  0  0  0  0  3  0  0  0  0  0  0
  190.5470  172.0010  141.3960 C   0  0  0  0  0  0  0  0  0  0  0  0
  189.5990  172.1390  142.3280 C   0  0  0  0  0  3  0  0  0  0  0  0
  191.7530  170.4670  139.9650 N   0  0  0  0  0  0  0  0  0  0  0  0
  188.1460  177.9580  141.3900 O   0  0  0  0  0  0  0  0  0  0  0  0
  187.0120  177.4910  141.6810 C   0  0  0  0  0  0  0  0  0  0  0  0
  186.8760  176.2680  142.4200 N   0  0  0  0  0  2  0  0  0  0  0  0
  185.7760  178.2520  141.3190 C   0  0  0  0  0  2  0  0  0  0  0  0
  185.6730  179.4060  143.4770 N   0  0  0  0  0  1  0  0  0  0  0  0
  184.9220  178.5840  142.5390 C   0  0  0  0  0  2  0  0  0  0  0  0
  194.4610  176.1350  145.6430 C   0  0  0  0  0  0  0  0  0  0  0  0
  194.3470  177.0230  146.5360 O   0  0  0  0  0  0  0  0  0  0  0  0
  195.6850  175.9100  145.0070 O   0  0  0  0  0  0  0  0  0  0  0  0
  196.1040  176.6820  143.8870 C   0  0  0  0  0  2  0  0  0  0  0  0
  195.9770  175.8580  142.6190 C   0  0  2  0  0  3  0  0  0  0  0  0
  195.7980  176.7370  141.4430 C   0  0  0  0  0  2  0  0  0  0  0  0
  194.7080  176.0860  142.0510 O   0  0  0  0  0  0  0  0  0  0  0  0
  1 11  2  0  0  0  0
  2  7  1  0  0  0  0
  3 10  1  0  0  0  0
  5  6  2  0  0  0  0
  5  1  1  0  0  0  0
  7  4  1  1  0  0  0
  8  7  1  0  0  0  0
  9  6  1  6  0  0  0
  9  2  1  0  0  0  0
  9  8  1  0  0  0  0
  9  7  1  0  0  0  0
 10  4  2  0  0  0  0
 10 26  1  0  0  0  0
 11  8  1  0  0  0  0
 12  2  2  0  0  0  0
 12  3  1  0  0  0  0
 13 19  1  0  0  0  0
 13 14  1  0  0  0  0
 14 15  1  0  0  0  0
 15 17  1  0  0  0  0
 16 17  1  0  0  0  0
 17 18  2  0  0  0  0
 18  6  1  0  0  0  0
 19 16  2  0  0  0  0
 20 21  2  0  0  0  0
 21 22  1  0  0  0  0
 22  1  1  0  0  0  0
 23 21  1  0  0  0  0
 23 25  1  0  0  0  0
 25 24  1  0  0  0  0
 26 27  2  0  0  0  0
 28 26  1  0  0  0  0
 29 28  1  0  0  0  0
 30 29  1  1  0  0  0
 31 32  1  0  0  0  0
 31 30  1  0  0  0  0
 32 30  1  0  0  0  0
M  END
>  <MODEL>
9

>  <REMARK>
 VINA RESULT:      -6.5      4.381      7.721
  Name = 
  8 active torsions:
  status: ('A' for Active; 'I' for Inactive)
    1  A    between atoms: C_1  and  N_28
    2  A    between atoms: C_3  and  C_13
    3  A    between atoms: C_5  and  C_9
    4  A    between atoms: C_8  and  O_10
    5  A    between atoms: C_8  and  C_25
    6  A    between atoms: C_9  and  C_27
    7  A    between atoms: O_10  and  C_13
    8  A    between atoms: C_18  and  C_20
                            x       y       z     vdW  Elec       q    Type
                         _______ _______ _______ _____ _____    ______ ____

>  <TORSDO>
F 8

$$$$
