=
 OpenBabel11042417573D

 55 64  0  0  1  0  0  0  0  0999 V2000
  194.8610  171.9650  142.9270 C   0  0  0  0  0  2  0  0  0  0  0  0
  193.8530  173.0300  142.8890 N   0  0  0  0  0  0  0  0  0  0  0  0
  191.0500  172.1850  140.5230 C   0  0  0  0  0  0  0  0  0  0  0  0
  194.0090  175.5320  145.6910 C   0  0  2  0  0  3  0  0  0  0  0  0
  190.7310  174.3490  141.7170 C   0  0  0  0  0  0  0  0  0  0  0  0
  191.9730  174.1030  142.3250 C   0  0  0  0  0  0  0  0  0  0  0  0
  188.8260  173.7790  139.8130 Cl  0  0  0  0  0  0  0  0  0  0  0  0
  192.2440  171.9870  141.2390 C   0  0  0  0  0  3  0  0  0  0  0  0
  195.2780  174.6790  145.6520 C   0  0  1  0  0  3  0  0  0  0  0  0
  193.9780  174.1640  144.9720 C   0  0  2  0  0  3  0  0  0  0  0  0
  192.7340  174.8980  143.1660 O   0  0  0  0  0  0  0  0  0  0  0  0
  190.2870  173.3920  140.7490 C   0  0  0  0  0  0  0  0  0  0  0  0
  194.0670  176.7900  144.8310 C   0  0  0  0  0  1  0  0  0  0  0  0
  196.4060  174.8440  144.6540 C   0  0  1  0  0  3  0  0  0  0  0  0
  197.9410  173.3620  143.4600 C   0  0  0  0  0  2  0  0  0  0  0  0
  193.9500  174.3070  143.5060 N   0  0  2  0  0  0  0  0  0  0  0  0
  196.0470  172.2680  142.0650 C   0  0  2  0  0  3  0  0  0  0  0  0
  197.3060  173.8530  144.6800 C   0  0  0  0  0  2  0  0  0  0  0  0
  192.6650  172.9670  142.1240 C   0  0  0  0  0  0  0  0  0  0  0  0
  197.0760  172.8040  142.6580 C   0  0  0  0  0  2  0  0  0  0  0  0
  189.4170  175.7040  147.1570 C   0  0  0  0  0  3  0  0  0  0  0  0
  188.7370  175.0590  146.0650 N   0  0  0  0  0  0  0  0  0  0  0  0
  189.1000  175.2480  144.8280 C   0  0  0  0  0  0  0  0  0  0  0  0
  190.4090  176.5650  143.0820 C   0  0  0  0  0  2  0  0  0  0  0  0
  190.4980  177.1980  145.5240 C   0  0  0  0  0  2  0  0  0  0  0  0
  189.8550  175.5530  142.0610 C   0  0  2  0  0  3  0  0  0  0  0  0
  190.3430  176.0520  144.5230 C   0  0  1  0  0  3  0  0  0  0  0  0
  188.4280  175.1310  142.4480 C   0  0  1  0  0  3  0  0  0  0  0  0
  190.3040  176.6840  146.9240 C   0  0  0  0  0  0  0  0  0  0  0  0
  188.3590  174.6630  143.7960 O   0  0  0  0  0  0  0  0  0  0  0  0
  186.7360  177.0010  143.2110 C   0  0  0  0  0  0  0  0  0  0  0  0
  184.8920  177.3340  144.2140 C   0  0  0  0  0  3  0  0  0  0  0  0
  184.9400  178.2300  143.2010 N   0  0  0  0  0  0  0  0  0  0  0  0
  185.9770  176.5200  144.2150 N   0  0  0  0  0  0  0  0  0  0  0  0
  186.3690  177.9320  141.1180 C   0  0  0  0  0  3  0  0  0  0  0  0
  186.1100  178.0140  142.5850 C   0  0  2  0  0  3  0  0  0  0  0  0
  187.2880  176.7890  141.0290 N   0  0  0  0  0  0  0  0  0  0  0  0
  187.4570  176.2520  142.2030 C   0  0  0  0  0  0  0  0  0  0  0  0
  183.8670  179.1120  142.7750 C   0  0  0  0  0  2  0  0  0  0  0  0
  182.9900  178.3150  140.6610 N   0  0  0  0  0  1  0  0  0  0  0  0
  182.7830  178.3010  142.0940 C   0  0  0  0  0  2  0  0  0  0  0  0
  191.6000  177.7740  148.9500 C   0  0  0  0  0  3  0  0  0  0  0  0
  191.0100  177.2830  148.0200 C   0  0  0  0  0  0  0  0  0  0  0  0
  190.7260  171.0440  139.5710 C   0  0  0  0  0  3  0  0  0  0  0  0
  191.0930  171.2930  138.1200 C   0  0  0  0  0  2  0  0  0  0  0  0
  191.9570  170.3860  138.9820 C   0  0  0  0  0  2  0  0  0  0  0  0
  196.3670  175.8050  143.4890 C   0  0  0  0  0  2  0  0  0  0  0  0
  197.6220  176.6660  143.4610 C   0  0  0  0  0  1  0  0  0  0  0  0
  196.0060  172.0250  140.5820 C   0  0  0  0  0  2  0  0  0  0  0  0
  194.6720  174.1460  137.6460 C   0  0  0  0  0  2  0  0  0  0  0  0
  195.6960  173.2810  139.7590 C   0  0  0  0  0  3  0  0  0  0  0  0
  194.6420  173.0290  138.6790 C   0  0  0  0  0  2  0  0  0  0  0  0
  196.0170  174.1890  136.9070 C   0  0  0  0  0  2  0  0  0  0  0  0
  196.9750  173.9660  139.2470 C   0  0  0  0  0  2  0  0  0  0  0  0
  197.2010  173.7130  137.7590 C   0  0  0  0  0  2  0  0  0  0  0  0
  2  1  1  0  0  0  0
  2 16  1  0  0  0  0
  3 12  2  0  0  0  0
  3  8  1  0  0  0  0
  4 13  1  6  0  0  0
  5 26  1  0  0  0  0
  5  6  2  0  0  0  0
  6 11  1  0  0  0  0
  7 12  1  0  0  0  0
  8 19  2  0  0  0  0
  9  4  1  0  0  0  0
 10  9  1  0  0  0  0
 10  4  1  0  0  0  0
 11 16  1  0  0  0  0
 12  5  1  0  0  0  0
 14 18  1  0  0  0  0
 14  9  1  0  0  0  0
 15 18  1  0  0  0  0
 16 10  1  0  0  0  0
 17 20  1  0  0  0  0
 17  1  1  0  0  0  0
 19  6  1  0  0  0  0
 19  2  1  0  0  0  0
 20 15  1  0  0  0  0
 22 21  1  0  0  0  0
 23 22  2  0  0  0  0
 24 27  1  0  0  0  0
 25 29  1  0  0  0  0
 26 28  1  0  0  0  0
 26 24  1  0  0  0  0
 27 23  1  0  0  0  0
 27 25  1  0  0  0  0
 28 30  1  0  0  0  0
 29 21  2  0  0  0  0
 29 43  1  0  0  0  0
 30 23  1  0  0  0  0
 31 34  1  0  0  0  0
 32 34  2  0  0  0  0
 33 32  1  0  0  0  0
 35 36  1  0  0  0  0
 36 33  1  0  0  0  0
 36 31  1  0  0  0  0
 37 35  2  0  0  0  0
 37 38  1  0  0  0  0
 38 28  1  0  0  0  0
 38 31  2  0  0  0  0
 39 33  1  0  0  0  0
 40 41  1  0  0  0  0
 41 39  1  0  0  0  0
 43 42  3  0  0  0  0
 44  3  1  0  0  0  0
 45 46  1  0  0  0  0
 45 44  1  0  0  0  0
 46 44  1  0  0  0  0
 47 14  1  0  0  0  0
 48 47  1  0  0  0  0
 49 17  1  0  0  0  0
 50 52  1  0  0  0  0
 51 49  1  0  0  0  0
 52 51  1  0  0  0  0
 53 50  1  0  0  0  0
 53 55  1  0  0  0  0
 54 51  1  0  0  0  0
 55 54  1  0  0  0  0
M  END
>  <MODEL>
1

>  <REMARK>
 VINA RESULT:      -7.3      0.000      0.000
  Name = 
  9 active torsions:
  status: ('A' for Active; 'I' for Inactive)
    1  A    between atoms: C_4  and  C_8
    2  A    between atoms: C_11  and  C_51
    3  A    between atoms: N_13  and  C_36
    4  A    between atoms: C_14  and  C_28
    5  A    between atoms: C_15  and  C_45
    6  A    between atoms: C_33  and  C_36
    7  A    between atoms: C_39  and  C_46
    8  A    between atoms: C_41  and  C_54
    9  A    between atoms: C_49  and  C_51
                            x       y       z     vdW  Elec       q    Type
                         _______ _______ _______ _____ _____    ______ ____

>  <TORSDO>
F 9

$$$$
=
 OpenBabel11042417573D

 55 64  0  0  1  0  0  0  0  0999 V2000
  189.9020  177.7060  144.6720 C   0  0  0  0  0  2  0  0  0  0  0  0
  190.3670  176.5210  143.9430 N   0  0  0  0  0  0  0  0  0  0  0  0
  188.0820  175.6920  141.0680 C   0  0  0  0  0  0  0  0  0  0  0  0
  193.9110  175.4670  144.6240 C   0  0  2  0  0  3  0  0  0  0  0  0
  190.0580  174.1820  141.2420 C   0  0  0  0  0  0  0  0  0  0  0  0
  190.4210  174.9220  142.3790 C   0  0  0  0  0  0  0  0  0  0  0  0
  188.2350  173.4950  139.2960 Cl  0  0  0  0  0  0  0  0  0  0  0  0
  188.5670  176.4220  142.1690 C   0  0  0  0  0  3  0  0  0  0  0  0
  193.4400  176.4900  145.6580 C   0  0  1  0  0  3  0  0  0  0  0  0
  192.7130  176.3830  144.2870 C   0  0  2  0  0  3  0  0  0  0  0  0
  191.4470  174.7260  143.2870 O   0  0  0  0  0  0  0  0  0  0  0  0
  188.8260  174.5410  140.6050 C   0  0  0  0  0  0  0  0  0  0  0  0
  193.6190  174.0160  144.9930 C   0  0  0  0  0  1  0  0  0  0  0  0
  192.5060  176.1920  146.8140 C   0  0  1  0  0  3  0  0  0  0  0  0
  190.7090  177.3670  147.9820 C   0  0  0  0  0  2  0  0  0  0  0  0
  191.4310  175.6580  144.3240 N   0  0  2  0  0  0  0  0  0  0  0  0
  189.1430  177.3530  145.9140 C   0  0  2  0  0  3  0  0  0  0  0  0
  192.0680  177.2820  147.4550 C   0  0  0  0  0  2  0  0  0  0  0  0
  189.7330  176.0030  142.7890 C   0  0  0  0  0  0  0  0  0  0  0  0
  189.8190  177.3460  147.0270 C   0  0  0  0  0  2  0  0  0  0  0  0
  195.6840  174.8650  140.2270 C   0  0  0  0  0  3  0  0  0  0  0  0
  194.4880  174.8550  139.4260 N   0  0  0  0  0  0  0  0  0  0  0  0
  193.3980  174.2720  139.8350 C   0  0  0  0  0  0  0  0  0  0  0  0
  192.2010  172.6840  141.4300 C   0  0  0  0  0  2  0  0  0  0  0  0
  194.6800  173.1150  141.6400 C   0  0  0  0  0  2  0  0  0  0  0  0
  190.9180  173.0570  140.6660 C   0  0  2  0  0  3  0  0  0  0  0  0
  193.3280  173.7020  141.2330 C   0  0  1  0  0  3  0  0  0  0  0  0
  191.2270  173.2800  139.1770 C   0  0  1  0  0  3  0  0  0  0  0  0
  195.7790  174.0900  141.3180 C   0  0  0  0  0  0  0  0  0  0  0  0
  192.2860  174.2200  138.9880 O   0  0  0  0  0  0  0  0  0  0  0  0
  192.5380  171.7380  137.4890 C   0  0  0  0  0  0  0  0  0  0  0  0
  192.9860  171.4450  135.4320 C   0  0  0  0  0  3  0  0  0  0  0  0
  192.8540  170.2110  135.9710 N   0  0  0  0  0  0  0  0  0  0  0  0
  192.7440  172.4190  136.3450 N   0  0  0  0  0  0  0  0  0  0  0  0
  191.5480  169.7310  138.1000 C   0  0  0  0  0  3  0  0  0  0  0  0
  192.5810  170.4120  137.2670 C   0  0  0  0  0  0  0  0  0  0  0  0
  190.9860  170.8480  138.8720 N   0  0  0  0  0  0  0  0  0  0  0  0
  191.5220  171.9730  138.4940 C   0  0  1  0  0  3  0  0  0  0  0  0
  192.8380  168.9500  135.2500 C   0  0  0  0  0  2  0  0  0  0  0  0
  195.1200  168.3010  135.7470 N   0  0  0  0  0  1  0  0  0  0  0  0
  194.2150  168.6730  134.6800 C   0  0  0  0  0  2  0  0  0  0  0  0
  197.9400  174.1920  142.8320 C   0  0  0  0  0  3  0  0  0  0  0  0
  196.9580  174.1480  142.1340 C   0  0  0  0  0  0  0  0  0  0  0  0
  186.7830  176.2480  140.5050 C   0  0  0  0  0  3  0  0  0  0  0  0
  186.2980  177.5320  141.1530 C   0  0  0  0  0  2  0  0  0  0  0  0
  186.9590  177.5680  139.7840 C   0  0  0  0  0  2  0  0  0  0  0  0
  191.8250  174.8600  147.0240 C   0  0  0  0  0  2  0  0  0  0  0  0
  191.4850  174.6580  148.4940 C   0  0  0  0  0  1  0  0  0  0  0  0
  187.6930  176.9610  145.8470 C   0  0  0  0  0  2  0  0  0  0  0  0
  184.4730  178.7220  147.0420 C   0  0  0  0  0  2  0  0  0  0  0  0
  186.7270  178.1150  146.1420 C   0  0  0  0  0  3  0  0  0  0  0  0
  185.6110  177.7120  147.1070 C   0  0  0  0  0  2  0  0  0  0  0  0
  183.8260  178.7490  145.6510 C   0  0  0  0  0  2  0  0  0  0  0  0
  186.2360  178.8010  144.8560 C   0  0  0  0  0  2  0  0  0  0  0  0
  184.8000  178.4110  144.5150 C   0  0  0  0  0  2  0  0  0  0  0  0
  1 17  1  0  0  0  0
  2 16  1  0  0  0  0
  2  1  1  0  0  0  0
  3  8  1  0  0  0  0
  4 13  1  1  0  0  0
  4  9  1  0  0  0  0
  5  6  2  0  0  0  0
  6 19  1  0  0  0  0
  6 11  1  0  0  0  0
  7 12  1  0  0  0  0
  8 19  2  0  0  0  0
  9 14  1  0  0  0  0
 10 16  1  0  0  0  0
 10  4  1  0  0  0  0
 10  9  1  0  0  0  0
 11 16  1  0  0  0  0
 12  3  2  0  0  0  0
 12  5  1  0  0  0  0
 14 47  1  0  0  0  0
 14 18  1  0  0  0  0
 17 20  1  0  0  0  0
 18 15  1  0  0  0  0
 19  2  1  0  0  0  0
 20 15  1  0  0  0  0
 21 29  2  0  0  0  0
 22 23  2  0  0  0  0
 22 21  1  0  0  0  0
 23 27  1  0  0  0  0
 26  5  1  0  0  0  0
 26 24  1  0  0  0  0
 27 24  1  0  0  0  0
 27 25  1  0  0  0  0
 28 26  1  0  0  0  0
 29 25  1  0  0  0  0
 29 43  1  0  0  0  0
 30 28  1  0  0  0  0
 30 23  1  0  0  0  0
 31 38  1  0  0  0  0
 32 33  1  0  0  0  0
 32 34  2  0  0  0  0
 33 36  1  0  0  0  0
 34 31  1  0  0  0  0
 35 37  2  0  0  0  0
 36 31  2  0  0  0  0
 36 35  1  0  0  0  0
 38 37  1  0  0  0  0
 38 28  1  0  0  0  0
 39 33  1  0  0  0  0
 41 39  1  0  0  0  0
 41 40  1  0  0  0  0
 43 42  3  0  0  0  0
 44  3  1  0  0  0  0
 44 45  1  0  0  0  0
 46 44  1  0  0  0  0
 46 45  1  0  0  0  0
 47 48  1  0  0  0  0
 49 17  1  0  0  0  0
 49 51  1  0  0  0  0
 50 52  1  0  0  0  0
 51 52  1  0  0  0  0
 53 50  1  0  0  0  0
 54 51  1  0  0  0  0
 55 54  1  0  0  0  0
 55 53  1  0  0  0  0
M  END
>  <MODEL>
2

>  <REMARK>
 VINA RESULT:      -6.9      2.795      8.980
  Name = 
  9 active torsions:
  status: ('A' for Active; 'I' for Inactive)
    1  A    between atoms: C_4  and  C_8
    2  A    between atoms: C_11  and  C_51
    3  A    between atoms: N_13  and  C_36
    4  A    between atoms: C_14  and  C_28
    5  A    between atoms: C_15  and  C_45
    6  A    between atoms: C_33  and  C_36
    7  A    between atoms: C_39  and  C_46
    8  A    between atoms: C_41  and  C_54
    9  A    between atoms: C_49  and  C_51
                            x       y       z     vdW  Elec       q    Type
                         _______ _______ _______ _____ _____    ______ ____

>  <TORSDO>
F 9

$$$$
=
 OpenBabel11042417573D

 55 64  0  0  1  0  0  0  0  0999 V2000
  194.8780  171.1800  140.3300 C   0  0  0  0  0  2  0  0  0  0  0  0
  193.9410  172.2340  140.7320 N   0  0  0  0  0  0  0  0  0  0  0  0
  190.4380  171.4650  139.5900 C   0  0  0  0  0  0  0  0  0  0  0  0
  195.1810  174.6090  143.3700 C   0  0  2  0  0  3  0  0  0  0  0  0
  190.6180  173.5690  140.9130 C   0  0  0  0  0  0  0  0  0  0  0  0
  191.9960  173.3110  140.9840 C   0  0  0  0  0  0  0  0  0  0  0  0
  188.1230  173.0640  139.8630 Cl  0  0  0  0  0  0  0  0  0  0  0  0
  191.8140  171.2490  139.7810 C   0  0  0  0  0  3  0  0  0  0  0  0
  196.3310  173.7730  142.8070 C   0  0  1  0  0  3  0  0  0  0  0  0
  194.8660  173.2750  142.6560 C   0  0  2  0  0  3  0  0  0  0  0  0
  193.0270  174.0750  141.5030 O   0  0  0  0  0  0  0  0  0  0  0  0
  189.8280  172.6520  140.1460 C   0  0  0  0  0  0  0  0  0  0  0  0
  194.9120  175.9050  142.6120 C   0  0  0  0  0  1  0  0  0  0  0  0
  196.9900  173.9960  141.4600 C   0  0  1  0  0  3  0  0  0  0  0  0
  197.9370  172.5860  139.7010 C   0  0  0  0  0  2  0  0  0  0  0  0
  194.2770  173.4830  141.3220 N   0  0  2  0  0  0  0  0  0  0  0  0
  195.6440  171.5350  139.0930 C   0  0  2  0  0  3  0  0  0  0  0  0
  197.8230  173.0140  141.0930 C   0  0  0  0  0  2  0  0  0  0  0  0
  192.5500  172.1920  140.4800 C   0  0  0  0  0  0  0  0  0  0  0  0
  196.8260  172.0550  139.2680 C   0  0  0  0  0  2  0  0  0  0  0  0
  191.9920  175.0540  146.3030 C   0  0  0  0  0  3  0  0  0  0  0  0
  190.9080  174.3440  145.6770 N   0  0  0  0  0  0  0  0  0  0  0  0
  190.6260  174.5050  144.4160 C   0  0  0  0  0  0  0  0  0  0  0  0
  190.8700  175.8150  142.2420 C   0  0  0  0  0  2  0  0  0  0  0  0
  192.0800  176.5350  144.3370 C   0  0  0  0  0  2  0  0  0  0  0  0
  189.9500  174.7470  141.6220 C   0  0  2  0  0  3  0  0  0  0  0  0
  191.5280  175.3500  143.5440 C   0  0  1  0  0  3  0  0  0  0  0  0
  188.9060  174.2790  142.6490 C   0  0  1  0  0  3  0  0  0  0  0  0
  192.6060  176.0610  145.6650 C   0  0  0  0  0  0  0  0  0  0  0  0
  189.5140  173.8550  143.8700 O   0  0  0  0  0  0  0  0  0  0  0  0
  187.7690  176.1910  144.0600 C   0  0  0  0  0  0  0  0  0  0  0  0
  186.7520  176.6010  145.8810 C   0  0  0  0  0  3  0  0  0  0  0  0
  186.1730  177.3810  144.9390 N   0  0  0  0  0  0  0  0  0  0  0  0
  187.7190  175.8100  145.3510 N   0  0  0  0  0  0  0  0  0  0  0  0
  186.2530  176.8820  142.4460 C   0  0  0  0  0  3  0  0  0  0  0  0
  186.8290  177.1190  143.8010 C   0  0  2  0  0  3  0  0  0  0  0  0
  187.0570  175.7520  141.9610 N   0  0  0  0  0  0  0  0  0  0  0  0
  187.8780  175.3500  142.8870 C   0  0  0  0  0  0  0  0  0  0  0  0
  184.9790  178.1920  145.1030 C   0  0  0  0  0  2  0  0  0  0  0  0
  185.7050  179.2680  147.1500 N   0  0  0  0  0  1  0  0  0  0  0  0
  184.7010  178.3950  146.5790 C   0  0  0  0  0  2  0  0  0  0  0  0
  194.6450  177.2830  146.8160 C   0  0  0  0  0  3  0  0  0  0  0  0
  193.7170  176.7260  146.2830 C   0  0  0  0  0  0  0  0  0  0  0  0
  189.7640  170.3650  138.7840 C   0  0  0  0  0  3  0  0  0  0  0  0
  189.7570  170.5790  137.2820 C   0  0  0  0  0  2  0  0  0  0  0  0
  190.7260  169.5880  137.9080 C   0  0  0  0  0  2  0  0  0  0  0  0
  196.5110  175.0070  140.4450 C   0  0  0  0  0  2  0  0  0  0  0  0
  197.6490  175.9290  140.0290 C   0  0  0  0  0  1  0  0  0  0  0  0
  195.0340  171.3580  137.7300 C   0  0  0  0  0  2  0  0  0  0  0  0
  193.9260  175.0370  137.3610 C   0  0  0  0  0  2  0  0  0  0  0  0
  194.6960  172.6800  137.0290 C   0  0  0  0  0  3  0  0  0  0  0  0
  194.6560  173.8630  137.9980 C   0  0  0  0  0  2  0  0  0  0  0  0
  192.4590  174.6930  137.0700 C   0  0  0  0  0  2  0  0  0  0  0  0
  193.4540  172.5560  136.1300 C   0  0  0  0  0  2  0  0  0  0  0  0
  192.2270  173.2090  136.7600 C   0  0  0  0  0  2  0  0  0  0  0  0
  1  2  1  0  0  0  0
  2 16  1  0  0  0  0
  3  8  2  0  0  0  0
  3 12  1  0  0  0  0
  4 13  1  6  0  0  0
  5  6  1  0  0  0  0
  5 26  1  0  0  0  0
  6 11  1  0  0  0  0
  7 12  1  0  0  0  0
  8 19  1  0  0  0  0
  9  4  1  0  0  0  0
 10  9  1  0  0  0  0
 10  4  1  0  0  0  0
 12  5  2  0  0  0  0
 14  9  1  0  0  0  0
 15 18  1  0  0  0  0
 16 11  1  0  0  0  0
 16 10  1  0  0  0  0
 17 20  1  0  0  0  0
 17  1  1  0  0  0  0
 18 14  1  0  0  0  0
 19  2  1  0  0  0  0
 19  6  2  0  0  0  0
 20 15  1  0  0  0  0
 22 21  1  0  0  0  0
 23 22  2  0  0  0  0
 24 27  1  0  0  0  0
 25 29  1  0  0  0  0
 26 24  1  0  0  0  0
 26 28  1  0  0  0  0
 27 25  1  0  0  0  0
 27 23  1  0  0  0  0
 28 38  1  0  0  0  0
 28 30  1  0  0  0  0
 29 43  1  0  0  0  0
 29 21  2  0  0  0  0
 30 23  1  0  0  0  0
 31 34  1  0  0  0  0
 33 39  1  0  0  0  0
 33 32  1  0  0  0  0
 34 32  2  0  0  0  0
 35 36  1  0  0  0  0
 36 31  1  0  0  0  0
 36 33  1  0  0  0  0
 37 35  2  0  0  0  0
 37 38  1  0  0  0  0
 38 31  2  0  0  0  0
 39 41  1  0  0  0  0
 41 40  1  0  0  0  0
 43 42  3  0  0  0  0
 44  3  1  0  0  0  0
 45 46  1  0  0  0  0
 45 44  1  0  0  0  0
 46 44  1  0  0  0  0
 47 14  1  0  0  0  0
 48 47  1  0  0  0  0
 49 17  1  0  0  0  0
 50 52  1  0  0  0  0
 51 49  1  0  0  0  0
 51 52  1  0  0  0  0
 53 50  1  0  0  0  0
 54 55  1  0  0  0  0
 54 51  1  0  0  0  0
 55 53  1  0  0  0  0
M  END
>  <MODEL>
3

>  <REMARK>
 VINA RESULT:      -6.8      1.901      2.741
  Name = 
  9 active torsions:
  status: ('A' for Active; 'I' for Inactive)
    1  A    between atoms: C_4  and  C_8
    2  A    between atoms: C_11  and  C_51
    3  A    between atoms: N_13  and  C_36
    4  A    between atoms: C_14  and  C_28
    5  A    between atoms: C_15  and  C_45
    6  A    between atoms: C_33  and  C_36
    7  A    between atoms: C_39  and  C_46
    8  A    between atoms: C_41  and  C_54
    9  A    between atoms: C_49  and  C_51
                            x       y       z     vdW  Elec       q    Type
                         _______ _______ _______ _____ _____    ______ ____

>  <TORSDO>
F 9

$$$$
=
 OpenBabel11042417573D

 55 64  0  0  1  0  0  0  0  0999 V2000
  194.9090  171.2950  139.9910 C   0  0  0  0  0  2  0  0  0  0  0  0
  193.9010  172.2060  140.5420 N   0  0  0  0  0  0  0  0  0  0  0  0
  195.4740  174.8190  142.7490 C   0  0  0  0  0  0  0  0  0  0  0  0
  190.5360  172.1310  138.8690 C   0  0  2  0  0  3  0  0  0  0  0  0
  193.0090  175.0830  142.4900 C   0  0  0  0  0  0  0  0  0  0  0  0
  193.0520  173.9300  141.6880 C   0  0  0  0  0  0  0  0  0  0  0  0
  194.1850  176.8280  144.2640 Cl  0  0  0  0  0  0  0  0  0  0  0  0
  195.4300  173.7210  141.8720 C   0  0  0  0  0  3  0  0  0  0  0  0
  191.3850  170.9360  138.4350 C   0  0  1  0  0  3  0  0  0  0  0  0
  192.0710  172.1990  139.0290 C   0  0  2  0  0  3  0  0  0  0  0  0
  192.0270  173.1960  141.1150 O   0  0  0  0  0  0  0  0  0  0  0  0
  194.2440  175.5030  143.0820 C   0  0  0  0  0  0  0  0  0  0  0  0
  189.6970  171.8880  140.1200 C   0  0  0  0  0  1  0  0  0  0  0  0
  191.6490  169.7050  139.2780 C   0  0  1  0  0  3  0  0  0  0  0  0
  193.5270  168.1810  139.6420 C   0  0  0  0  0  2  0  0  0  0  0  0
  192.4900  172.0700  140.4350 N   0  0  2  0  0  0  0  0  0  0  0  0
  194.9970  170.0080  140.7530 C   0  0  2  0  0  3  0  0  0  0  0  0
  192.5900  168.8940  138.7780 C   0  0  0  0  0  2  0  0  0  0  0  0
  194.2050  173.3140  141.3690 C   0  0  0  0  0  0  0  0  0  0  0  0
  194.3150  169.0040  140.2800 C   0  0  0  0  0  2  0  0  0  0  0  0
  190.5170  175.3960  147.6700 C   0  0  0  0  0  3  0  0  0  0  0  0
  190.2690  174.6700  146.4520 N   0  0  0  0  0  0  0  0  0  0  0  0
  190.7260  175.0860  145.3060 C   0  0  0  0  0  0  0  0  0  0  0  0
  191.7480  176.9240  143.8660 C   0  0  0  0  0  2  0  0  0  0  0  0
  191.2500  177.3130  146.3090 C   0  0  0  0  0  2  0  0  0  0  0  0
  191.7330  175.8900  142.7250 C   0  0  2  0  0  3  0  0  0  0  0  0
  191.6480  176.2830  145.2520 C   0  0  1  0  0  3  0  0  0  0  0  0
  190.4970  174.9830  142.8430 C   0  0  1  0  0  3  0  0  0  0  0  0
  191.0380  176.6320  147.6340 C   0  0  0  0  0  0  0  0  0  0  0  0
  190.3920  174.3910  144.1390 O   0  0  0  0  0  0  0  0  0  0  0  0
  188.7030  176.8840  143.1740 C   0  0  0  0  0  0  0  0  0  0  0  0
  187.2280  177.6330  144.5100 C   0  0  0  0  0  3  0  0  0  0  0  0
  186.7410  177.8220  143.2620 N   0  0  0  0  0  0  0  0  0  0  0  0
  188.4300  177.0040  144.4880 N   0  0  0  0  0  0  0  0  0  0  0  0
  187.4980  176.4890  141.2320 C   0  0  0  0  0  3  0  0  0  0  0  0
  187.6830  177.3540  142.4330 C   0  0  0  0  0  0  0  0  0  0  0  0
  188.6020  175.5300  141.3670 N   0  0  0  0  0  0  0  0  0  0  0  0
  189.2480  175.7380  142.4780 C   0  0  1  0  0  3  0  0  0  0  0  0
  185.4040  178.2730  142.9150 C   0  0  0  0  0  2  0  0  0  0  0  0
  183.9600  178.9540  144.7390 N   0  0  0  0  0  1  0  0  0  0  0  0
  184.9960  179.4070  143.8340 C   0  0  0  0  0  2  0  0  0  0  0  0
  191.5620  177.9160  149.8800 C   0  0  0  0  0  3  0  0  0  0  0  0
  191.3250  177.3220  148.8580 C   0  0  0  0  0  0  0  0  0  0  0  0
  196.8770  175.1370  143.2430 C   0  0  0  0  0  3  0  0  0  0  0  0
  197.2380  174.5320  144.5880 C   0  0  0  0  0  2  0  0  0  0  0  0
  197.7800  173.9210  143.3050 C   0  0  0  0  0  2  0  0  0  0  0  0
  191.1980  169.5530  140.7120 C   0  0  0  0  0  2  0  0  0  0  0  0
  190.4370  168.2480  140.8990 C   0  0  0  0  0  1  0  0  0  0  0  0
  195.7790  169.9210  142.0340 C   0  0  0  0  0  2  0  0  0  0  0  0
  195.0070  170.9680  145.6680 C   0  0  0  0  0  2  0  0  0  0  0  0
  194.9410  170.1970  143.2890 C   0  0  0  0  0  3  0  0  0  0  0  0
  195.6800  171.0680  144.3060 C   0  0  0  0  0  2  0  0  0  0  0  0
  195.0760  169.5390  146.2220 C   0  0  0  0  0  2  0  0  0  0  0  0
  194.3410  168.9080  143.8760 C   0  0  0  0  0  2  0  0  0  0  0  0
  195.0800  168.4580  145.1340 C   0  0  0  0  0  2  0  0  0  0  0  0
  1  2  1  0  0  0  0
  1 17  1  0  0  0  0
  2 19  1  0  0  0  0
  3 12  1  0  0  0  0
  3 44  1  0  0  0  0
  4 10  1  0  0  0  0
  4 13  1  1  0  0  0
  5 26  1  0  0  0  0
  5 12  2  0  0  0  0
  6  5  1  0  0  0  0
  8  3  2  0  0  0  0
  9  4  1  0  0  0  0
  9 10  1  0  0  0  0
  9 14  1  0  0  0  0
 10 16  1  0  0  0  0
 11  6  1  0  0  0  0
 12  7  1  0  0  0  0
 14 47  1  0  0  0  0
 15 20  1  0  0  0  0
 16  2  1  0  0  0  0
 16 11  1  0  0  0  0
 17 49  1  0  0  0  0
 18 14  1  0  0  0  0
 18 15  1  0  0  0  0
 19  6  2  0  0  0  0
 19  8  1  0  0  0  0
 20 17  1  0  0  0  0
 22 21  1  0  0  0  0
 23 22  2  0  0  0  0
 24 27  1  0  0  0  0
 25 29  1  0  0  0  0
 26 28  1  0  0  0  0
 26 24  1  0  0  0  0
 27 23  1  0  0  0  0
 27 25  1  0  0  0  0
 28 30  1  0  0  0  0
 29 21  2  0  0  0  0
 29 43  1  0  0  0  0
 30 23  1  0  0  0  0
 31 34  1  0  0  0  0
 33 32  1  0  0  0  0
 34 32  2  0  0  0  0
 35 37  2  0  0  0  0
 35 36  1  0  0  0  0
 36 31  2  0  0  0  0
 36 33  1  0  0  0  0
 37 38  1  0  0  0  0
 38 28  1  0  0  0  0
 38 31  1  0  0  0  0
 39 33  1  0  0  0  0
 39 41  1  0  0  0  0
 41 40  1  0  0  0  0
 43 42  3  0  0  0  0
 44 46  1  0  0  0  0
 44 45  1  0  0  0  0
 46 45  1  0  0  0  0
 47 48  1  0  0  0  0
 49 51  1  0  0  0  0
 50 53  1  0  0  0  0
 51 54  1  0  0  0  0
 51 52  1  0  0  0  0
 52 50  1  0  0  0  0
 54 55  1  0  0  0  0
 55 53  1  0  0  0  0
M  END
>  <MODEL>
4

>  <REMARK>
 VINA RESULT:      -6.0      2.223      5.397
  Name = 
  9 active torsions:
  status: ('A' for Active; 'I' for Inactive)
    1  A    between atoms: C_4  and  C_8
    2  A    between atoms: C_11  and  C_51
    3  A    between atoms: N_13  and  C_36
    4  A    between atoms: C_14  and  C_28
    5  A    between atoms: C_15  and  C_45
    6  A    between atoms: C_33  and  C_36
    7  A    between atoms: C_39  and  C_46
    8  A    between atoms: C_41  and  C_54
    9  A    between atoms: C_49  and  C_51
                            x       y       z     vdW  Elec       q    Type
                         _______ _______ _______ _____ _____    ______ ____

>  <TORSDO>
F 9

$$$$
=
 OpenBabel11042417573D

 55 64  0  0  1  0  0  0  0  0999 V2000
  190.1580  173.7030  145.7770 C   0  0  0  0  0  2  0  0  0  0  0  0
  190.8020  173.7000  144.4590 N   0  0  0  0  0  0  0  0  0  0  0  0
  194.1710  172.0250  144.5830 C   0  0  0  0  0  0  0  0  0  0  0  0
  188.5610  174.4580  141.5380 C   0  0  2  0  0  3  0  0  0  0  0  0
  193.5160  172.7830  142.3010 C   0  0  0  0  0  0  0  0  0  0  0  0
  192.3410  173.2780  142.8910 C   0  0  0  0  0  0  0  0  0  0  0  0
  196.0590  171.7490  142.4970 Cl  0  0  0  0  0  0  0  0  0  0  0  0
  192.9340  172.4820  145.0700 C   0  0  0  0  0  3  0  0  0  0  0  0
  187.8690  174.8020  142.8570 C   0  0  1  0  0  3  0  0  0  0  0  0
  189.0630  173.8060  142.8460 C   0  0  2  0  0  3  0  0  0  0  0  0
  191.3110  174.0270  142.3490 O   0  0  0  0  0  0  0  0  0  0  0  0
  194.4800  172.1930  143.1800 C   0  0  0  0  0  0  0  0  0  0  0  0
  189.3870  175.5930  140.9430 C   0  0  0  0  0  1  0  0  0  0  0  0
  188.1670  176.0250  143.7010 C   0  0  1  0  0  3  0  0  0  0  0  0
  188.2700  176.5430  146.0890 C   0  0  0  0  0  2  0  0  0  0  0  0
  190.3460  174.3740  143.2940 N   0  0  2  0  0  0  0  0  0  0  0  0
  190.3230  175.0080  146.4930 C   0  0  2  0  0  3  0  0  0  0  0  0
  187.5940  176.0040  144.9110 C   0  0  0  0  0  2  0  0  0  0  0  0
  192.0550  173.0990  144.1940 C   0  0  0  0  0  0  0  0  0  0  0  0
  189.3430  175.8600  146.3830 C   0  0  0  0  0  2  0  0  0  0  0  0
  189.3170  171.9740  138.4450 C   0  0  0  0  0  3  0  0  0  0  0  0
  190.3910  171.1780  138.9780 N   0  0  0  0  0  0  0  0  0  0  0  0
  191.4400  171.7250  139.5230 C   0  0  0  0  0  0  0  0  0  0  0  0
  192.8990  173.7710  139.9510 C   0  0  0  0  0  2  0  0  0  0  0  0
  190.7910  173.9430  138.5740 C   0  0  0  0  0  2  0  0  0  0  0  0
  193.7800  172.8320  140.7960 C   0  0  2  0  0  3  0  0  0  0  0  0
  191.4870  173.2220  139.7280 C   0  0  1  0  0  3  0  0  0  0  0  0
  193.8090  171.4250  140.1760 C   0  0  1  0  0  3  0  0  0  0  0  0
  189.4590  173.3000  138.2970 C   0  0  0  0  0  0  0  0  0  0  0  0
  192.4940  170.9130  139.9550 O   0  0  0  0  0  0  0  0  0  0  0  0
  196.0120  171.8110  138.7820 C   0  0  0  0  0  0  0  0  0  0  0  0
  197.4030  173.2900  138.1530 C   0  0  0  0  0  3  0  0  0  0  0  0
  197.2710  172.4290  137.1180 N   0  0  0  0  0  0  0  0  0  0  0  0
  196.5910  172.9570  139.1880 N   0  0  0  0  0  0  0  0  0  0  0  0
  195.2460  170.9260  136.7780 C   0  0  0  0  0  3  0  0  0  0  0  0
  196.3990  171.4990  137.5320 C   0  0  0  0  0  0  0  0  0  0  0  0
  194.1950  170.8870  137.8040 N   0  0  0  0  0  0  0  0  0  0  0  0
  194.6240  171.4190  138.9110 C   0  0  1  0  0  3  0  0  0  0  0  0
  197.8250  172.5880  135.7840 C   0  0  0  0  0  2  0  0  0  0  0  0
  196.0650  173.9750  134.8600 N   0  0  0  0  0  1  0  0  0  0  0  0
  197.4610  173.9570  135.2430 C   0  0  0  0  0  2  0  0  0  0  0  0
  187.4410  174.7560  137.4150 C   0  0  0  0  0  3  0  0  0  0  0  0
  188.3620  174.0860  137.8110 C   0  0  0  0  0  0  0  0  0  0  0  0
  195.0430  171.3950  145.6580 C   0  0  0  0  0  3  0  0  0  0  0  0
  194.5660  170.0460  146.1640 C   0  0  0  0  0  2  0  0  0  0  0  0
  195.7390  170.1290  145.2000 C   0  0  0  0  0  2  0  0  0  0  0  0
  189.2760  177.0060  143.4020 C   0  0  0  0  0  2  0  0  0  0  0  0
  188.7110  178.2910  142.8120 C   0  0  0  0  0  1  0  0  0  0  0  0
  191.5900  175.3270  147.2350 C   0  0  0  0  0  2  0  0  0  0  0  0
  193.3440  177.1490  144.3190 C   0  0  0  0  0  2  0  0  0  0  0  0
  192.4760  176.3610  146.5290 C   0  0  0  0  0  3  0  0  0  0  0  0
  192.1950  176.4450  145.0280 C   0  0  0  0  0  2  0  0  0  0  0  0
  194.6520  176.3560  144.4500 C   0  0  0  0  0  2  0  0  0  0  0  0
  193.9620  176.1900  146.8870 C   0  0  0  0  0  2  0  0  0  0  0  0
  194.7510  175.5470  145.7500 C   0  0  0  0  0  2  0  0  0  0  0  0
  1 17  1  0  0  0  0
  2  1  1  0  0  0  0
  3  8  1  0  0  0  0
  3 44  1  0  0  0  0
  4 13  1  1  0  0  0
  4 10  1  0  0  0  0
  4  9  1  0  0  0  0
  5  6  2  0  0  0  0
  5 12  1  0  0  0  0
  6 19  1  0  0  0  0
  7 12  1  0  0  0  0
  9 14  1  0  0  0  0
 10  9  1  0  0  0  0
 10 16  1  0  0  0  0
 11  6  1  0  0  0  0
 11 16  1  0  0  0  0
 12  3  2  0  0  0  0
 14 18  1  0  0  0  0
 15 20  1  0  0  0  0
 16  2  1  0  0  0  0
 17 49  1  0  0  0  0
 18 15  1  0  0  0  0
 19  2  1  0  0  0  0
 19  8  2  0  0  0  0
 20 17  1  0  0  0  0
 21 22  1  0  0  0  0
 22 23  2  0  0  0  0
 23 27  1  0  0  0  0
 23 30  1  0  0  0  0
 24 26  1  0  0  0  0
 25 27  1  0  0  0  0
 26  5  1  0  0  0  0
 27 24  1  0  0  0  0
 28 26  1  0  0  0  0
 29 21  2  0  0  0  0
 29 25  1  0  0  0  0
 30 28  1  0  0  0  0
 31 38  1  0  0  0  0
 31 34  1  0  0  0  0
 32 34  2  0  0  0  0
 33 36  1  0  0  0  0
 33 32  1  0  0  0  0
 35 36  1  0  0  0  0
 35 37  2  0  0  0  0
 36 31  2  0  0  0  0
 37 38  1  0  0  0  0
 38 28  1  0  0  0  0
 39 33  1  0  0  0  0
 40 41  1  0  0  0  0
 41 39  1  0  0  0  0
 42 43  3  0  0  0  0
 43 29  1  0  0  0  0
 44 45  1  0  0  0  0
 46 44  1  0  0  0  0
 46 45  1  0  0  0  0
 47 14  1  0  0  0  0
 48 47  1  0  0  0  0
 50 53  1  0  0  0  0
 50 52  1  0  0  0  0
 51 54  1  0  0  0  0
 51 49  1  0  0  0  0
 52 51  1  0  0  0  0
 53 55  1  0  0  0  0
 55 54  1  0  0  0  0
M  END
>  <MODEL>
5

>  <REMARK>
 VINA RESULT:      -5.4      3.008      8.948
  Name = 
  9 active torsions:
  status: ('A' for Active; 'I' for Inactive)
    1  A    between atoms: C_4  and  C_8
    2  A    between atoms: C_11  and  C_51
    3  A    between atoms: N_13  and  C_36
    4  A    between atoms: C_14  and  C_28
    5  A    between atoms: C_15  and  C_45
    6  A    between atoms: C_33  and  C_36
    7  A    between atoms: C_39  and  C_46
    8  A    between atoms: C_41  and  C_54
    9  A    between atoms: C_49  and  C_51
                            x       y       z     vdW  Elec       q    Type
                         _______ _______ _______ _____ _____    ______ ____

>  <TORSDO>
F 9

$$$$
=
 OpenBabel11042417573D

 55 64  0  0  1  0  0  0  0  0999 V2000
  190.9210  174.4980  146.0600 C   0  0  0  0  0  2  0  0  0  0  0  0
  191.2140  173.9360  144.7370 N   0  0  0  0  0  0  0  0  0  0  0  0
  194.4150  171.9560  144.7640 C   0  0  0  0  0  0  0  0  0  0  0  0
  188.3540  173.9150  142.2970 C   0  0  2  0  0  3  0  0  0  0  0  0
  193.2490  171.9380  142.5620 C   0  0  0  0  0  0  0  0  0  0  0  0
  192.2870  172.7710  143.1570 C   0  0  0  0  0  0  0  0  0  0  0  0
  195.7030  170.6920  142.5890 Cl  0  0  0  0  0  0  0  0  0  0  0  0
  193.3650  172.7260  145.2940 C   0  0  0  0  0  3  0  0  0  0  0  0
  188.0340  174.8000  143.5020 C   0  0  1  0  0  3  0  0  0  0  0  0
  189.1330  173.7060  143.6150 C   0  0  2  0  0  3  0  0  0  0  0  0
  191.1930  173.4160  142.6040 O   0  0  0  0  0  0  0  0  0  0  0  0
  194.3710  171.5690  143.3720 C   0  0  0  0  0  0  0  0  0  0  0  0
  189.0620  174.6360  141.1550 C   0  0  0  0  0  1  0  0  0  0  0  0
  188.5960  176.1880  143.7350 C   0  0  1  0  0  3  0  0  0  0  0  0
  189.3210  177.5000  145.6670 C   0  0  0  0  0  2  0  0  0  0  0  0
  190.5160  174.2090  143.5290 N   0  0  2  0  0  0  0  0  0  0  0  0
  191.3280  175.9350  146.1750 C   0  0  2  0  0  3  0  0  0  0  0  0
  188.3450  176.6800  144.9550 C   0  0  0  0  0  2  0  0  0  0  0  0
  192.3280  173.1090  144.4590 C   0  0  0  0  0  0  0  0  0  0  0  0
  190.3970  176.8220  145.9610 C   0  0  0  0  0  2  0  0  0  0  0  0
  194.6150  175.1720  137.9990 C   0  0  0  0  0  3  0  0  0  0  0  0
  193.3940  174.7640  138.6410 N   0  0  0  0  0  0  0  0  0  0  0  0
  193.3420  173.7050  139.3980 C   0  0  0  0  0  0  0  0  0  0  0  0
  194.3700  171.5250  140.2280 C   0  0  0  0  0  2  0  0  0  0  0  0
  195.5640  172.9620  138.5310 C   0  0  0  0  0  2  0  0  0  0  0  0
  193.1290  171.4110  141.1330 C   0  0  2  0  0  3  0  0  0  0  0  0
  194.6110  172.9510  139.7260 C   0  0  1  0  0  3  0  0  0  0  0  0
  191.8920  171.9760  140.4160 C   0  0  1  0  0  3  0  0  0  0  0  0
  195.6820  174.3580  137.9830 C   0  0  0  0  0  0  0  0  0  0  0  0
  192.1150  173.3030  139.9360 O   0  0  0  0  0  0  0  0  0  0  0  0
  192.1920  169.9300  138.7840 C   0  0  0  0  0  0  0  0  0  0  0  0
  193.3930  169.1580  137.2090 C   0  0  0  0  0  3  0  0  0  0  0  0
  192.1200  168.7940  136.9290 N   0  0  0  0  0  0  0  0  0  0  0  0
  193.4620  169.9110  138.3360 N   0  0  0  0  0  0  0  0  0  0  0  0
  190.0730  169.9960  137.8420 C   0  0  0  0  0  3  0  0  0  0  0  0
  191.3780  169.2790  137.9330 C   0  0  0  0  0  0  0  0  0  0  0  0
  190.2460  171.0800  138.8180 N   0  0  0  0  0  0  0  0  0  0  0  0
  191.4500  171.0560  139.3120 C   0  0  1  0  0  3  0  0  0  0  0  0
  191.6500  168.1660  135.7060 C   0  0  0  0  0  2  0  0  0  0  0  0
  191.2420  170.2790  134.5910 N   0  0  0  0  0  1  0  0  0  0  0  0
  191.9930  169.0440  134.5190 C   0  0  0  0  0  2  0  0  0  0  0  0
  197.9410  175.1560  136.8740 C   0  0  0  0  0  3  0  0  0  0  0  0
  196.9080  174.8000  137.3820 C   0  0  0  0  0  0  0  0  0  0  0  0
  195.4950  171.6320  145.7860 C   0  0  0  0  0  3  0  0  0  0  0  0
  196.8730  171.3720  145.2050 C   0  0  0  0  0  2  0  0  0  0  0  0
  196.5670  172.6990  145.8830 C   0  0  0  0  0  2  0  0  0  0  0  0
  189.6440  176.8310  142.8570 C   0  0  0  0  0  2  0  0  0  0  0  0
  189.0820  178.0660  142.1670 C   0  0  0  0  0  1  0  0  0  0  0  0
  192.7560  176.3140  146.4520 C   0  0  0  0  0  2  0  0  0  0  0  0
  193.8430  176.6200  142.7610 C   0  0  0  0  0  2  0  0  0  0  0  0
  193.4980  176.8630  145.2270 C   0  0  0  0  0  3  0  0  0  0  0  0
  192.8640  176.4140  143.9090 C   0  0  0  0  0  2  0  0  0  0  0  0
  195.0970  175.7520  142.9320 C   0  0  0  0  0  2  0  0  0  0  0  0
  195.0150  176.6220  145.3150 C   0  0  0  0  0  2  0  0  0  0  0  0
  195.4660  175.4890  144.3980 C   0  0  0  0  0  2  0  0  0  0  0  0
  1 17  1  0  0  0  0
  2  1  1  0  0  0  0
  3  8  1  0  0  0  0
  3 44  1  0  0  0  0
  4 13  1  6  0  0  0
  4  9  1  0  0  0  0
  4 10  1  0  0  0  0
  5  6  2  0  0  0  0
  5 12  1  0  0  0  0
  6 19  1  0  0  0  0
  7 12  1  0  0  0  0
  9 10  1  0  0  0  0
  9 14  1  0  0  0  0
 11  6  1  0  0  0  0
 11 16  1  0  0  0  0
 12  3  2  0  0  0  0
 14 18  1  0  0  0  0
 15 20  1  0  0  0  0
 16 10  1  0  0  0  0
 16  2  1  0  0  0  0
 17 49  1  0  0  0  0
 18 15  1  0  0  0  0
 19  2  1  0  0  0  0
 19  8  2  0  0  0  0
 20 17  1  0  0  0  0
 21 22  1  0  0  0  0
 22 23  2  0  0  0  0
 23 27  1  0  0  0  0
 23 30  1  0  0  0  0
 24 26  1  0  0  0  0
 25 27  1  0  0  0  0
 26  5  1  0  0  0  0
 27 24  1  0  0  0  0
 28 26  1  0  0  0  0
 29 21  2  0  0  0  0
 29 25  1  0  0  0  0
 30 28  1  0  0  0  0
 31 38  1  0  0  0  0
 32 34  2  0  0  0  0
 33 32  1  0  0  0  0
 33 36  1  0  0  0  0
 34 31  1  0  0  0  0
 35 36  1  0  0  0  0
 35 37  2  0  0  0  0
 36 31  2  0  0  0  0
 37 38  1  0  0  0  0
 38 28  1  0  0  0  0
 39 33  1  0  0  0  0
 41 40  1  0  0  0  0
 41 39  1  0  0  0  0
 42 43  3  0  0  0  0
 43 29  1  0  0  0  0
 44 46  1  0  0  0  0
 45 44  1  0  0  0  0
 45 46  1  0  0  0  0
 47 14  1  0  0  0  0
 48 47  1  0  0  0  0
 50 53  1  0  0  0  0
 50 52  1  0  0  0  0
 51 54  1  0  0  0  0
 51 49  1  0  0  0  0
 52 51  1  0  0  0  0
 53 55  1  0  0  0  0
 55 54  1  0  0  0  0
M  END
>  <MODEL>
6

>  <REMARK>
 VINA RESULT:      -5.4      2.998      8.472
  Name = 
  9 active torsions:
  status: ('A' for Active; 'I' for Inactive)
    1  A    between atoms: C_4  and  C_8
    2  A    between atoms: C_11  and  C_51
    3  A    between atoms: N_13  and  C_36
    4  A    between atoms: C_14  and  C_28
    5  A    between atoms: C_15  and  C_45
    6  A    between atoms: C_33  and  C_36
    7  A    between atoms: C_39  and  C_46
    8  A    between atoms: C_41  and  C_54
    9  A    between atoms: C_49  and  C_51
                            x       y       z     vdW  Elec       q    Type
                         _______ _______ _______ _____ _____    ______ ____

>  <TORSDO>
F 9

$$$$
=
 OpenBabel11042417573D

 55 64  0  0  1  0  0  0  0  0999 V2000
  194.3350  173.0020  141.0980 C   0  0  0  0  0  2  0  0  0  0  0  0
  193.0820  173.7510  141.2360 N   0  0  0  0  0  0  0  0  0  0  0  0
  193.3600  176.4170  143.8790 C   0  0  0  0  0  0  0  0  0  0  0  0
  190.6180  173.3510  138.4250 C   0  0  2  0  0  3  0  0  0  0  0  0
  191.1550  176.3880  142.7170 C   0  0  0  0  0  0  0  0  0  0  0  0
  191.6460  175.2940  141.9860 C   0  0  0  0  0  0  0  0  0  0  0  0
  191.3450  178.1680  144.8080 Cl  0  0  0  0  0  0  0  0  0  0  0  0
  193.7920  175.3700  143.0460 C   0  0  0  0  0  3  0  0  0  0  0  0
  191.7200  172.2950  138.3360 C   0  0  1  0  0  3  0  0  0  0  0  0
  191.9610  173.5990  139.1470 C   0  0  2  0  0  3  0  0  0  0  0  0
  191.0150  174.4710  141.0690 O   0  0  0  0  0  0  0  0  0  0  0  0
  192.0140  176.9250  143.7300 C   0  0  0  0  0  0  0  0  0  0  0  0
  189.4170  172.9400  139.2710 C   0  0  0  0  0  1  0  0  0  0  0  0
  191.8160  171.0620  139.2130 C   0  0  1  0  0  3  0  0  0  0  0  0
  193.6110  169.7650  140.2480 C   0  0  0  0  0  2  0  0  0  0  0  0
  191.8430  173.4480  140.6080 N   0  0  2  0  0  0  0  0  0  0  0  0
  194.3060  171.6970  141.8340 C   0  0  2  0  0  3  0  0  0  0  0  0
  192.9750  170.4010  139.0980 C   0  0  0  0  0  2  0  0  0  0  0  0
  192.9070  174.8430  142.1190 C   0  0  0  0  0  0  0  0  0  0  0  0
  193.9890  170.6430  141.1360 C   0  0  0  0  0  2  0  0  0  0  0  0
  187.0320  176.4510  146.7350 C   0  0  0  0  0  3  0  0  0  0  0  0
  187.3030  175.6770  145.5520 N   0  0  0  0  0  0  0  0  0  0  0  0
  188.0680  176.1310  144.6010 C   0  0  0  0  0  0  0  0  0  0  0  0
  189.2870  178.0650  143.4740 C   0  0  0  0  0  2  0  0  0  0  0  0
  187.9440  178.4260  145.5800 C   0  0  0  0  0  2  0  0  0  0  0  0
  189.7860  177.0180  142.4610 C   0  0  2  0  0  3  0  0  0  0  0  0
  188.8000  177.4410  144.7840 C   0  0  1  0  0  3  0  0  0  0  0  0
  188.7040  175.9540  142.2150 C   0  0  1  0  0  3  0  0  0  0  0  0
  187.3790  177.7450  146.7970 C   0  0  0  0  0  0  0  0  0  0  0  0
  188.2390  175.3760  143.4350 O   0  0  0  0  0  0  0  0  0  0  0  0
  186.5810  177.4740  141.8680 C   0  0  0  0  0  0  0  0  0  0  0  0
  184.5850  177.8030  142.5220 C   0  0  0  0  0  3  0  0  0  0  0  0
  184.5940  178.0510  141.1920 N   0  0  0  0  0  0  0  0  0  0  0  0
  185.8010  177.3920  142.9630 N   0  0  0  0  0  0  0  0  0  0  0  0
  186.3320  177.1110  139.5900 C   0  0  0  0  0  3  0  0  0  0  0  0
  185.8570  177.8490  140.7970 C   0  0  0  0  0  0  0  0  0  0  0  0
  187.4650  176.3420  140.1220 N   0  0  0  0  0  0  0  0  0  0  0  0
  187.5720  176.5250  141.4070 C   0  0  1  0  0  3  0  0  0  0  0  0
  183.4360  178.3080  140.3530 C   0  0  0  0  0  2  0  0  0  0  0  0
  181.1040  178.9080  140.6330 N   0  0  0  0  0  1  0  0  0  0  0  0
  182.1680  178.0730  141.1500 C   0  0  0  0  0  2  0  0  0  0  0  0
  186.9590  179.1270  149.0080 C   0  0  0  0  0  3  0  0  0  0  0  0
  187.1460  178.4900  148.0010 C   0  0  0  0  0  0  0  0  0  0  0  0
  194.4240  176.8790  144.8630 C   0  0  0  0  0  3  0  0  0  0  0  0
  194.2070  176.4370  146.2990 C   0  0  0  0  0  2  0  0  0  0  0  0
  195.2460  175.7410  145.4340 C   0  0  0  0  0  2  0  0  0  0  0  0
  190.8910  170.7800  140.3730 C   0  0  0  0  0  2  0  0  0  0  0  0
  190.3550  169.3560  140.2980 C   0  0  0  0  0  1  0  0  0  0  0  0
  194.5630  171.6400  143.3140 C   0  0  0  0  0  2  0  0  0  0  0  0
  190.8130  171.7410  144.2240 C   0  0  0  0  0  2  0  0  0  0  0  0
  193.2950  171.4340  144.1520 C   0  0  0  0  0  3  0  0  0  0  0  0
  192.0180  171.5330  143.3170 C   0  0  0  0  0  2  0  0  0  0  0  0
  190.9100  173.0690  144.9870 C   0  0  0  0  0  2  0  0  0  0  0  0
  193.2930  172.3080  145.4180 C   0  0  0  0  0  2  0  0  0  0  0  0
  192.3520  173.5020  145.2850 C   0  0  0  0  0  2  0  0  0  0  0  0
  1  2  1  0  0  0  0
  1 17  1  0  0  0  0
  2 19  1  0  0  0  0
  3 44  1  0  0  0  0
  4 10  1  0  0  0  0
  4 13  1  1  0  0  0
  5 12  2  0  0  0  0
  6 19  2  0  0  0  0
  6  5  1  0  0  0  0
  8  3  2  0  0  0  0
  9  4  1  0  0  0  0
  9 10  1  0  0  0  0
  9 14  1  0  0  0  0
 10 16  1  0  0  0  0
 11  6  1  0  0  0  0
 12  3  1  0  0  0  0
 12  7  1  0  0  0  0
 14 47  1  0  0  0  0
 15 20  1  0  0  0  0
 16 11  1  0  0  0  0
 16  2  1  0  0  0  0
 17 49  1  0  0  0  0
 18 14  1  0  0  0  0
 18 15  1  0  0  0  0
 19  8  1  0  0  0  0
 20 17  1  0  0  0  0
 21 29  2  0  0  0  0
 22 21  1  0  0  0  0
 23 27  1  0  0  0  0
 23 22  2  0  0  0  0
 24 27  1  0  0  0  0
 25 29  1  0  0  0  0
 26  5  1  0  0  0  0
 26 24  1  0  0  0  0
 27 25  1  0  0  0  0
 28 26  1  0  0  0  0
 28 30  1  0  0  0  0
 29 43  1  0  0  0  0
 30 23  1  0  0  0  0
 31 34  1  0  0  0  0
 32 34  2  0  0  0  0
 33 32  1  0  0  0  0
 35 37  2  0  0  0  0
 35 36  1  0  0  0  0
 36 33  1  0  0  0  0
 36 31  2  0  0  0  0
 37 38  1  0  0  0  0
 38 31  1  0  0  0  0
 38 28  1  0  0  0  0
 39 41  1  0  0  0  0
 39 33  1  0  0  0  0
 40 41  1  0  0  0  0
 43 42  3  0  0  0  0
 44 46  1  0  0  0  0
 44 45  1  0  0  0  0
 46 45  1  0  0  0  0
 48 47  1  0  0  0  0
 49 51  1  0  0  0  0
 50 53  1  0  0  0  0
 51 54  1  0  0  0  0
 52 51  1  0  0  0  0
 52 50  1  0  0  0  0
 53 55  1  0  0  0  0
 55 54  1  0  0  0  0
M  END
>  <MODEL>
7

>  <REMARK>
 VINA RESULT:      -5.4      2.336      5.249
  Name = 
  9 active torsions:
  status: ('A' for Active; 'I' for Inactive)
    1  A    between atoms: C_4  and  C_8
    2  A    between atoms: C_11  and  C_51
    3  A    between atoms: N_13  and  C_36
    4  A    between atoms: C_14  and  C_28
    5  A    between atoms: C_15  and  C_45
    6  A    between atoms: C_33  and  C_36
    7  A    between atoms: C_39  and  C_46
    8  A    between atoms: C_41  and  C_54
    9  A    between atoms: C_49  and  C_51
                            x       y       z     vdW  Elec       q    Type
                         _______ _______ _______ _____ _____    ______ ____

>  <TORSDO>
F 9

$$$$
=
 OpenBabel11042417573D

 55 64  0  0  1  0  0  0  0  0999 V2000
  189.1070  171.4610  137.5380 C   0  0  0  0  0  2  0  0  0  0  0  0
  189.8620  171.3520  138.7910 N   0  0  0  0  0  0  0  0  0  0  0  0
  188.5900  173.7760  141.3760 C   0  0  0  0  0  0  0  0  0  0  0  0
  191.9630  168.2580  139.1740 C   0  0  2  0  0  3  0  0  0  0  0  0
  190.4330  172.3140  142.1990 C   0  0  0  0  0  0  0  0  0  0  0  0
  190.4560  171.7560  140.9100 C   0  0  0  0  0  0  0  0  0  0  0  0
  189.6080  174.2540  143.9690 Cl  0  0  0  0  0  0  0  0  0  0  0  0
  188.6330  173.1040  140.1410 C   0  0  0  0  0  3  0  0  0  0  0  0
  191.4890  168.4180  137.7290 C   0  0  1  0  0  3  0  0  0  0  0  0
  190.7320  169.1440  138.8770 C   0  0  2  0  0  3  0  0  0  0  0  0
  191.3180  170.8290  140.3490 O   0  0  0  0  0  0  0  0  0  0  0  0
  189.5150  173.3910  142.4180 C   0  0  0  0  0  0  0  0  0  0  0  0
  193.2840  168.9530  139.4860 C   0  0  0  0  0  1  0  0  0  0  0  0
  192.0670  169.4000  136.7290 C   0  0  1  0  0  3  0  0  0  0  0  0
  191.2000  170.7880  134.9130 C   0  0  0  0  0  2  0  0  0  0  0  0
  191.0360  170.5800  139.0060 N   0  0  2  0  0  0  0  0  0  0  0  0
  189.8150  172.2910  136.5120 C   0  0  2  0  0  3  0  0  0  0  0  0
  191.3550  169.5090  135.6000 C   0  0  0  0  0  2  0  0  0  0  0  0
  189.5770  172.1070  139.9530 C   0  0  0  0  0  0  0  0  0  0  0  0
  190.5310  171.6460  135.6350 C   0  0  0  0  0  2  0  0  0  0  0  0
  195.1240  175.1730  143.9210 C   0  0  0  0  0  3  0  0  0  0  0  0
  194.8680  174.0060  143.1190 N   0  0  0  0  0  0  0  0  0  0  0  0
  193.7560  173.3350  143.2250 C   0  0  0  0  0  0  0  0  0  0  0  0
  191.6110  172.7930  144.4910 C   0  0  0  0  0  2  0  0  0  0  0  0
  193.2240  174.5340  145.3510 C   0  0  0  0  0  2  0  0  0  0  0  0
  191.3110  171.8110  143.3440 C   0  0  2  0  0  3  0  0  0  0  0  0
  192.6450  173.8550  144.1100 C   0  0  1  0  0  3  0  0  0  0  0  0
  192.6130  171.1750  142.8290 C   0  0  1  0  0  3  0  0  0  0  0  0
  194.3240  175.4800  144.9530 C   0  0  0  0  0  0  0  0  0  0  0  0
  193.5860  172.1630  142.4820 O   0  0  0  0  0  0  0  0  0  0  0  0
  194.0770  170.4840  144.9070 C   0  0  0  0  0  0  0  0  0  0  0  0
  196.0700  170.3760  145.6370 C   0  0  0  0  0  3  0  0  0  0  0  0
  195.4300  169.2870  146.1210 N   0  0  0  0  0  0  0  0  0  0  0  0
  195.2640  171.1160  144.8350 N   0  0  0  0  0  0  0  0  0  0  0  0
  193.3420  168.2890  145.0630 C   0  0  0  0  0  3  0  0  0  0  0  0
  194.1750  169.3730  145.6610 C   0  0  2  0  0  3  0  0  0  0  0  0
  192.7090  168.9740  143.9290 N   0  0  0  0  0  0  0  0  0  0  0  0
  193.1560  170.1920  143.8290 C   0  0  0  0  0  0  0  0  0  0  0  0
  196.0330  168.1760  146.8370 C   0  0  0  0  0  2  0  0  0  0  0  0
  197.2100  168.3070  148.9520 N   0  0  0  0  0  1  0  0  0  0  0  0
  197.2860  168.6490  147.5470 C   0  0  0  0  0  2  0  0  0  0  0  0
  194.7520  177.6820  146.3450 C   0  0  0  0  0  3  0  0  0  0  0  0
  194.5630  176.6730  145.7120 C   0  0  0  0  0  0  0  0  0  0  0  0
  187.5260  174.8610  141.4300 C   0  0  0  0  0  3  0  0  0  0  0  0
  188.0080  176.2110  141.9310 C   0  0  0  0  0  2  0  0  0  0  0  0
  187.7670  175.9880  140.4460 C   0  0  0  0  0  2  0  0  0  0  0  0
  193.1140  170.4340  137.0710 C   0  0  0  0  0  2  0  0  0  0  0  0
  194.2640  170.3820  136.0750 C   0  0  0  0  0  1  0  0  0  0  0  0
  189.7480  173.7920  136.5540 C   0  0  0  0  0  2  0  0  0  0  0  0
  192.4880  176.1600  135.2160 C   0  0  0  0  0  2  0  0  0  0  0  0
  190.6610  174.4790  135.5300 C   0  0  0  0  0  3  0  0  0  0  0  0
  191.8610  175.1650  136.1840 C   0  0  0  0  0  2  0  0  0  0  0  0
  191.5100  177.2880  134.8620 C   0  0  0  0  0  2  0  0  0  0  0  0
  189.8710  175.3740  134.5600 C   0  0  0  0  0  2  0  0  0  0  0  0
  190.0380  176.8550  134.8870 C   0  0  0  0  0  2  0  0  0  0  0  0
  1  2  1  0  0  0  0
  2 16  1  0  0  0  0
  2 19  1  0  0  0  0
  3 44  1  0  0  0  0
  3 12  1  0  0  0  0
  4 13  1  6  0  0  0
  5 12  2  0  0  0  0
  5 26  1  0  0  0  0
  6  5  1  0  0  0  0
  8  3  2  0  0  0  0
  9 10  1  0  0  0  0
  9  4  1  0  0  0  0
 10 16  1  0  0  0  0
 10  4  1  0  0  0  0
 11  6  1  0  0  0  0
 12  7  1  0  0  0  0
 14 47  1  0  0  0  0
 14  9  1  0  0  0  0
 15 18  1  0  0  0  0
 15 20  1  0  0  0  0
 16 11  1  0  0  0  0
 17 49  1  0  0  0  0
 17  1  1  0  0  0  0
 18 14  1  0  0  0  0
 19  8  1  0  0  0  0
 19  6  2  0  0  0  0
 20 17  1  0  0  0  0
 21 29  2  0  0  0  0
 22 23  2  0  0  0  0
 22 21  1  0  0  0  0
 23 27  1  0  0  0  0
 26 24  1  0  0  0  0
 27 24  1  0  0  0  0
 27 25  1  0  0  0  0
 28 26  1  0  0  0  0
 28 38  1  0  0  0  0
 29 25  1  0  0  0  0
 29 43  1  0  0  0  0
 30 28  1  0  0  0  0
 30 23  1  0  0  0  0
 31 36  1  0  0  0  0
 32 33  1  0  0  0  0
 33 39  1  0  0  0  0
 34 31  1  0  0  0  0
 34 32  2  0  0  0  0
 35 36  1  0  0  0  0
 36 33  1  0  0  0  0
 37 35  2  0  0  0  0
 38 37  1  0  0  0  0
 38 31  2  0  0  0  0
 39 41  1  0  0  0  0
 41 40  1  0  0  0  0
 43 42  3  0  0  0  0
 44 45  1  0  0  0  0
 46 44  1  0  0  0  0
 46 45  1  0  0  0  0
 48 47  1  0  0  0  0
 50 52  1  0  0  0  0
 51 52  1  0  0  0  0
 51 49  1  0  0  0  0
 53 55  1  0  0  0  0
 53 50  1  0  0  0  0
 54 55  1  0  0  0  0
 54 51  1  0  0  0  0
M  END
>  <MODEL>
8

>  <REMARK>
 VINA RESULT:      -5.0      3.875      8.681
  Name = 
  9 active torsions:
  status: ('A' for Active; 'I' for Inactive)
    1  A    between atoms: C_4  and  C_8
    2  A    between atoms: C_11  and  C_51
    3  A    between atoms: N_13  and  C_36
    4  A    between atoms: C_14  and  C_28
    5  A    between atoms: C_15  and  C_45
    6  A    between atoms: C_33  and  C_36
    7  A    between atoms: C_39  and  C_46
    8  A    between atoms: C_41  and  C_54
    9  A    between atoms: C_49  and  C_51
                            x       y       z     vdW  Elec       q    Type
                         _______ _______ _______ _____ _____    ______ ____

>  <TORSDO>
F 9

$$$$
=
 OpenBabel11042417573D

 55 64  0  0  1  0  0  0  0  0999 V2000
  190.6410  174.4030  143.6400 C   0  0  0  0  0  2  0  0  0  0  0  0
  191.2880  174.1110  142.3570 N   0  0  0  0  0  0  0  0  0  0  0  0
  195.0100  174.6450  142.5430 C   0  0  0  0  0  0  0  0  0  0  0  0
  189.2230  172.1700  139.8870 C   0  0  2  0  0  3  0  0  0  0  0  0
  194.2310  173.8010  140.3310 C   0  0  0  0  0  0  0  0  0  0  0  0
  192.9320  173.8460  140.8630 C   0  0  0  0  0  0  0  0  0  0  0  0
  196.9110  174.4190  140.4630 Cl  0  0  0  0  0  0  0  0  0  0  0  0
  193.6860  174.5820  143.0130 C   0  0  0  0  0  3  0  0  0  0  0  0
  188.3540  172.6890  141.0330 C   0  0  1  0  0  3  0  0  0  0  0  0
  189.8920  172.5590  141.2240 C   0  0  2  0  0  3  0  0  0  0  0  0
  191.7070  173.6180  140.2590 O   0  0  0  0  0  0  0  0  0  0  0  0
  195.2900  174.2670  141.1750 C   0  0  0  0  0  0  0  0  0  0  0  0
  189.3610  173.1330  138.7120 C   0  0  0  0  0  1  0  0  0  0  0  0
  187.8880  174.1220  141.1900 C   0  0  1  0  0  3  0  0  0  0  0  0
  187.5130  175.6650  143.0490 C   0  0  0  0  0  2  0  0  0  0  0  0
  190.6350  173.8270  141.1260 N   0  0  2  0  0  0  0  0  0  0  0  0
  190.0290  175.7700  143.6750 C   0  0  2  0  0  3  0  0  0  0  0  0
  187.3220  174.3840  142.3750 C   0  0  0  0  0  2  0  0  0  0  0  0
  192.6850  174.1790  142.1430 C   0  0  0  0  0  0  0  0  0  0  0  0
  188.7580  175.8460  143.3970 C   0  0  0  0  0  2  0  0  0  0  0  0
  193.3640  176.9590  135.5960 C   0  0  0  0  0  3  0  0  0  0  0  0
  192.6740  175.8800  136.2530 N   0  0  0  0  0  0  0  0  0  0  0  0
  193.2900  175.0740  137.0690 C   0  0  0  0  0  0  0  0  0  0  0  0
  195.4510  174.1250  138.0330 C   0  0  0  0  0  2  0  0  0  0  0  0
  195.4970  175.9240  136.2630 C   0  0  0  0  0  2  0  0  0  0  0  0
  194.5450  173.2660  138.9340 C   0  0  2  0  0  3  0  0  0  0  0  0
  194.7290  175.3420  137.4500 C   0  0  1  0  0  3  0  0  0  0  0  0
  193.2700  172.8600  138.1780 C   0  0  1  0  0  3  0  0  0  0  0  0
  194.7020  177.0370  135.6350 C   0  0  0  0  0  0  0  0  0  0  0  0
  192.5980  173.9910  137.6220 O   0  0  0  0  0  0  0  0  0  0  0  0
  194.0940  170.4970  137.3550 C   0  0  0  0  0  0  0  0  0  0  0  0
  195.7700  169.1910  137.3030 C   0  0  0  0  0  3  0  0  0  0  0  0
  195.1280  169.0300  136.1230 N   0  0  0  0  0  0  0  0  0  0  0  0
  195.1750  170.1370  138.0730 N   0  0  0  0  0  0  0  0  0  0  0  0
  193.5760  170.7730  135.1110 C   0  0  0  0  0  3  0  0  0  0  0  0
  194.0710  169.8520  136.1740 C   0  0  0  0  0  0  0  0  0  0  0  0
  193.2520  171.9840  135.8760 N   0  0  0  0  0  0  0  0  0  0  0  0
  193.5800  171.8310  137.1260 C   0  0  1  0  0  3  0  0  0  0  0  0
  195.5950  168.2610  134.9820 C   0  0  0  0  0  2  0  0  0  0  0  0
  197.5320  169.7130  134.8620 N   0  0  0  0  0  1  0  0  0  0  0  0
  197.1070  168.3290  134.9080 C   0  0  0  0  0  2  0  0  0  0  0  0
  195.9370  179.0840  134.5130 C   0  0  0  0  0  3  0  0  0  0  0  0
  195.3720  178.1460  135.0180 C   0  0  0  0  0  0  0  0  0  0  0  0
  195.9970  175.1270  143.5950 C   0  0  0  0  0  3  0  0  0  0  0  0
  196.5770  176.5070  143.3490 C   0  0  0  0  0  2  0  0  0  0  0  0
  195.4910  176.3110  144.3950 C   0  0  0  0  0  2  0  0  0  0  0  0
  188.3230  175.2540  140.2890 C   0  0  0  0  0  2  0  0  0  0  0  0
  187.1150  176.0170  139.7640 C   0  0  0  0  0  1  0  0  0  0  0  0
  190.8700  176.9860  143.9470 C   0  0  0  0  0  2  0  0  0  0  0  0
  192.2800  176.7090  147.5300 C   0  0  0  0  0  2  0  0  0  0  0  0
  191.0380  177.2990  145.4390 C   0  0  0  0  0  3  0  0  0  0  0  0
  192.3460  176.7490  146.0090 C   0  0  0  0  0  2  0  0  0  0  0  0
  191.1840  175.7520  148.0170 C   0  0  0  0  0  2  0  0  0  0  0  0
  189.7860  176.9240  146.2520 C   0  0  0  0  0  2  0  0  0  0  0  0
  189.9920  175.6440  147.0570 C   0  0  0  0  0  2  0  0  0  0  0  0
  1 17  1  0  0  0  0
  2  1  1  0  0  0  0
  3  8  1  0  0  0  0
  3 44  1  0  0  0  0
  4 13  1  6  0  0  0
  4  9  1  0  0  0  0
  4 10  1  0  0  0  0
  5  6  2  0  0  0  0
  5 12  1  0  0  0  0
  6 19  1  0  0  0  0
  7 12  1  0  0  0  0
  9 14  1  0  0  0  0
  9 10  1  0  0  0  0
 11  6  1  0  0  0  0
 11 16  1  0  0  0  0
 12  3  2  0  0  0  0
 14 18  1  0  0  0  0
 15 20  1  0  0  0  0
 16 10  1  0  0  0  0
 16  2  1  0  0  0  0
 17 49  1  0  0  0  0
 18 15  1  0  0  0  0
 19  2  1  0  0  0  0
 19  8  2  0  0  0  0
 20 17  1  0  0  0  0
 21 29  2  0  0  0  0
 21 22  1  0  0  0  0
 22 23  2  0  0  0  0
 23 27  1  0  0  0  0
 23 30  1  0  0  0  0
 24 26  1  0  0  0  0
 25 27  1  0  0  0  0
 26  5  1  0  0  0  0
 27 24  1  0  0  0  0
 28 26  1  0  0  0  0
 29 25  1  0  0  0  0
 30 28  1  0  0  0  0
 31 34  1  0  0  0  0
 32 34  2  0  0  0  0
 33 36  1  0  0  0  0
 33 32  1  0  0  0  0
 35 37  2  0  0  0  0
 35 36  1  0  0  0  0
 36 31  2  0  0  0  0
 37 38  1  0  0  0  0
 38 31  1  0  0  0  0
 38 28  1  0  0  0  0
 39 33  1  0  0  0  0
 40 41  1  0  0  0  0
 41 39  1  0  0  0  0
 42 43  3  0  0  0  0
 43 29  1  0  0  0  0
 44 46  1  0  0  0  0
 45 44  1  0  0  0  0
 45 46  1  0  0  0  0
 47 14  1  0  0  0  0
 48 47  1  0  0  0  0
 49 51  1  0  0  0  0
 50 53  1  0  0  0  0
 51 52  1  0  0  0  0
 51 54  1  0  0  0  0
 52 50  1  0  0  0  0
 54 55  1  0  0  0  0
 55 53  1  0  0  0  0
M  END
>  <MODEL>
9

>  <REMARK>
 VINA RESULT:      -4.9      3.572     10.044
  Name = 
  9 active torsions:
  status: ('A' for Active; 'I' for Inactive)
    1  A    between atoms: C_4  and  C_8
    2  A    between atoms: C_11  and  C_51
    3  A    between atoms: N_13  and  C_36
    4  A    between atoms: C_14  and  C_28
    5  A    between atoms: C_15  and  C_45
    6  A    between atoms: C_33  and  C_36
    7  A    between atoms: C_39  and  C_46
    8  A    between atoms: C_41  and  C_54
    9  A    between atoms: C_49  and  C_51
                            x       y       z     vdW  Elec       q    Type
                         _______ _______ _______ _____ _____    ______ ____

>  <TORSDO>
F 9

$$$$
