=
 OpenBabel11042413493D

 25 28  0  0  1  0  0  0  0  0999 V2000
  187.2150  175.5780  142.6760 C   0  0  0  0  0  2  0  0  0  0  0  0
  188.1400  176.6770  142.2000 C   0  0  1  0  0  3  0  0  0  0  0  0
  186.4850  177.6920  143.3670 C   0  0  1  0  0  3  0  0  0  0  0  0
  185.9690  176.3120  143.0390 C   0  0  0  0  0  2  0  0  0  0  0  0
  187.6290  177.9330  142.5840 O   0  0  0  0  0  0  0  0  0  0  0  0
  189.5310  176.4630  142.7300 C   0  0  0  0  0  0  0  0  0  0  0  0
  190.2830  175.5810  142.1760 N   0  0  0  0  0  2  0  0  0  0  0  0
  190.4210  175.2750  147.5520 C   0  0  0  0  0  3  0  0  0  0  0  0
  190.0530  177.3010  143.8670 C   0  0  2  0  0  3  0  0  0  0  0  0
  189.1160  175.4030  147.0440 C   0  0  0  0  0  3  0  0  0  0  0  0
  191.4820  175.7880  146.8640 N   0  0  0  0  0  0  0  0  0  0  0  0
  191.5410  177.6420  143.6670 C   0  0  0  0  0  3  0  0  0  0  0  0
  191.2790  176.4240  145.6810 C   0  0  0  0  0  0  0  0  0  0  0  0
  192.3280  177.0370  144.8420 C   0  0  0  0  0  3  0  0  0  0  0  0
  190.0270  176.5610  145.1500 C   0  0  0  0  0  0  0  0  0  0  0  0
  188.9130  176.0610  145.8230 C   0  0  0  0  0  3  0  0  0  0  0  0
  185.4160  178.7540  143.1070 C   0  0  2  0  0  3  0  0  0  0  0  0
  183.8210  179.0750  144.8990 O   0  0  0  0  0  0  0  0  0  0  0  0
  185.0670  179.4980  144.4030 C   0  0  1  0  0  3  0  0  0  0  0  0
  184.4310  178.5250  146.0370 C   0  0  0  0  0  2  0  0  0  0  0  0
  185.8060  178.9240  145.5820 C   0  0  0  0  0  2  0  0  0  0  0  0
  184.2440  178.1300  142.5890 O   0  0  0  0  0  0  0  0  0  0  0  0
  183.8520  178.2720  141.2560 C   0  0  0  0  0  0  0  0  0  0  0  0
  184.6940  178.5480  140.3610 O   0  0  0  0  0  0  0  0  0  0  0  0
  182.5180  178.1000  140.9120 O   0  0  0  0  0  1  0  0  0  0  0  0
  1  4  1  0  0  0  0
  2  5  1  0  0  0  0
  2  1  1  0  0  0  0
  2  6  1  1  0  0  0
  3 17  1  6  0  0  0
  4  3  1  0  0  0  0
  5  3  1  0  0  0  0
  7  6  2  0  0  0  0
  9  6  1  6  0  0  0
  9 15  1  0  0  0  0
 10  8  1  0  0  0  0
 11  8  2  0  0  0  0
 12  9  1  0  0  0  0
 12 14  2  0  0  0  0
 13 11  1  0  0  0  0
 14 13  1  0  0  0  0
 15 13  2  0  0  0  0
 15 16  1  0  0  0  0
 16 10  2  0  0  0  0
 17 22  1  1  0  0  0
 18 20  1  0  0  0  0
 19 17  1  6  0  0  0
 19 18  1  0  0  0  0
 19 21  1  0  0  0  0
 21 20  1  0  0  0  0
 23 22  1  0  0  0  0
 24 23  2  0  0  0  0
 25 23  1  0  0  0  0
M  END
>  <MODEL>
1

>  <REMARK>
 VINA RESULT:      -6.9      0.000      0.000
  Name = 
  6 active torsions:
  status: ('A' for Active; 'I' for Inactive)
    1  A    between atoms: O_1  and  C_2
    2  A    between atoms: O_1  and  C_13
    3  A    between atoms: C_5  and  C_17
    4  A    between atoms: C_7  and  C_13
    5  A    between atoms: C_8  and  C_17
    6  A    between atoms: C_10  and  C_13
                            x       y       z     vdW  Elec       q    Type
                         _______ _______ _______ _____ _____    ______ ____

>  <TORSDO>
F 6

$$$$
=
 OpenBabel11042413493D

 25 28  0  0  1  0  0  0  0  0999 V2000
  189.4180  174.9230  146.6030 C   0  0  0  0  0  2  0  0  0  0  0  0
  189.7990  175.1570  145.1570 C   0  0  1  0  0  3  0  0  0  0  0  0
  188.4200  176.8570  145.7430 C   0  0  1  0  0  3  0  0  0  0  0  0
  188.2170  175.7860  146.7860 C   0  0  0  0  0  2  0  0  0  0  0  0
  189.1260  176.2940  144.6640 O   0  0  0  0  0  0  0  0  0  0  0  0
  191.2890  175.2960  145.0190 C   0  0  0  0  0  0  0  0  0  0  0  0
  191.7900  175.5500  143.8640 N   0  0  0  0  0  2  0  0  0  0  0  0
  195.9450  173.4100  145.5000 C   0  0  0  0  0  3  0  0  0  0  0  0
  192.1830  175.1820  146.2270 C   0  0  2  0  0  3  0  0  0  0  0  0
  194.8230  172.5860  145.2980 C   0  0  0  0  0  3  0  0  0  0  0  0
  195.7860  174.7030  145.9060 N   0  0  0  0  0  0  0  0  0  0  0  0
  192.6870  176.5660  146.6750 C   0  0  0  0  0  3  0  0  0  0  0  0
  194.5390  175.1990  146.1140 C   0  0  0  0  0  0  0  0  0  0  0  0
  194.2220  176.5680  146.5670 C   0  0  0  0  0  3  0  0  0  0  0  0
  193.4240  174.4330  145.9210 C   0  0  0  0  0  0  0  0  0  0  0  0
  193.5390  173.1030  145.5160 C   0  0  0  0  0  3  0  0  0  0  0  0
  187.0810  177.4290  145.2750 C   0  0  2  0  0  3  0  0  0  0  0  0
  185.6920  179.1560  146.2480 O   0  0  0  0  0  0  0  0  0  0  0  0
  186.2370  177.8790  146.4750 C   0  0  1  0  0  3  0  0  0  0  0  0
  184.3910  178.6280  146.2430 C   0  0  0  0  0  2  0  0  0  0  0  0
  184.8810  177.2260  146.4700 C   0  0  0  0  0  2  0  0  0  0  0  0
  186.3710  176.4340  144.5420 O   0  0  0  0  0  0  0  0  0  0  0  0
  186.0440  176.5930  143.1940 C   0  0  0  0  0  0  0  0  0  0  0  0
  186.7100  176.0140  142.2950 O   0  0  0  0  0  0  0  0  0  0  0  0
  184.9660  177.3930  142.8410 O   0  0  0  0  0  1  0  0  0  0  0  0
  1  4  1  0  0  0  0
  2  6  1  1  0  0  0
  2  1  1  0  0  0  0
  3 17  1  6  0  0  0
  3  4  1  0  0  0  0
  5  2  1  0  0  0  0
  5  3  1  0  0  0  0
  7  6  2  0  0  0  0
  8 11  1  0  0  0  0
  9  6  1  6  0  0  0
  9 12  1  0  0  0  0
 10  8  2  0  0  0  0
 10 16  1  0  0  0  0
 11 13  2  0  0  0  0
 13 14  1  0  0  0  0
 14 12  2  0  0  0  0
 15 13  1  0  0  0  0
 15  9  1  0  0  0  0
 16 15  2  0  0  0  0
 17 22  1  1  0  0  0
 18 19  1  0  0  0  0
 19 17  1  6  0  0  0
 20 18  1  0  0  0  0
 20 21  1  0  0  0  0
 21 19  1  0  0  0  0
 23 22  1  0  0  0  0
 24 23  2  0  0  0  0
 25 23  1  0  0  0  0
M  END
>  <MODEL>
2

>  <REMARK>
 VINA RESULT:      -6.7      2.594      3.779
  Name = 
  6 active torsions:
  status: ('A' for Active; 'I' for Inactive)
    1  A    between atoms: O_1  and  C_2
    2  A    between atoms: O_1  and  C_13
    3  A    between atoms: C_5  and  C_17
    4  A    between atoms: C_7  and  C_13
    5  A    between atoms: C_8  and  C_17
    6  A    between atoms: C_10  and  C_13
                            x       y       z     vdW  Elec       q    Type
                         _______ _______ _______ _____ _____    ______ ____

>  <TORSDO>
F 6

$$$$
=
 OpenBabel11042413493D

 25 28  0  0  1  0  0  0  0  0999 V2000
  189.3100  175.2660  142.5990 C   0  0  0  0  0  2  0  0  0  0  0  0
  188.4340  175.8990  143.6590 C   0  0  1  0  0  3  0  0  0  0  0  0
  190.5740  176.3950  144.2130 C   0  0  1  0  0  3  0  0  0  0  0  0
  190.6590  175.2500  143.2340 C   0  0  0  0  0  2  0  0  0  0  0  0
  189.2390  176.5120  144.6410 O   0  0  0  0  0  0  0  0  0  0  0  0
  187.4790  176.8800  143.0380 C   0  0  0  0  0  0  0  0  0  0  0  0
  187.9460  177.8490  142.3360 N   0  0  0  0  0  2  0  0  0  0  0  0
  184.3670  178.4080  146.7050 C   0  0  0  0  0  3  0  0  0  0  0  0
  185.9910  176.7060  143.1990 C   0  0  2  0  0  3  0  0  0  0  0  0
  185.2850  177.3590  146.8940 C   0  0  0  0  0  3  0  0  0  0  0  0
  184.0470  178.8250  145.4450 N   0  0  0  0  0  0  0  0  0  0  0  0
  185.2200  177.5600  142.1760 C   0  0  0  0  0  3  0  0  0  0  0  0
  184.6180  178.2270  144.3680 C   0  0  0  0  0  0  0  0  0  0  0  0
  184.3530  178.5640  142.9550 C   0  0  0  0  0  3  0  0  0  0  0  0
  185.5200  177.2100  144.5100 C   0  0  0  0  0  0  0  0  0  0  0  0
  185.8700  176.7450  145.7780 C   0  0  0  0  0  3  0  0  0  0  0  0
  191.5070  176.1690  145.4050 C   0  0  2  0  0  3  0  0  0  0  0  0
  193.6800  177.1950  145.1180 O   0  0  0  0  0  0  0  0  0  0  0  0
  192.9570  176.0030  144.9300 C   0  0  1  0  0  3  0  0  0  0  0  0
  194.5080  176.5760  146.0660 C   0  0  0  0  0  2  0  0  0  0  0  0
  193.7870  175.2630  145.9460 C   0  0  0  0  0  2  0  0  0  0  0  0
  191.1010  174.9970  146.1080 O   0  0  0  0  0  0  0  0  0  0  0  0
  190.5220  175.0540  147.3770 C   0  0  0  0  0  0  0  0  0  0  0  0
  191.1910  175.4320  148.3760 O   0  0  0  0  0  1  0  0  0  0  0  0
  189.1900  174.6990  147.5390 O   0  0  0  0  0  0  0  0  0  0  0  0
  1  4  1  0  0  0  0
  1  2  1  0  0  0  0
  2  6  1  6  0  0  0
  2  5  1  0  0  0  0
  3  5  1  0  0  0  0
  3 17  1  1  0  0  0
  4  3  1  0  0  0  0
  7  6  2  0  0  0  0
  8 10  1  0  0  0  0
  9  6  1  1  0  0  0
  9 15  1  0  0  0  0
 11  8  2  0  0  0  0
 12 14  2  0  0  0  0
 12  9  1  0  0  0  0
 13 15  2  0  0  0  0
 13 11  1  0  0  0  0
 14 13  1  0  0  0  0
 15 16  1  0  0  0  0
 16 10  2  0  0  0  0
 17 22  1  6  0  0  0
 18 20  1  0  0  0  0
 19 18  1  0  0  0  0
 19 17  1  1  0  0  0
 19 21  1  0  0  0  0
 21 20  1  0  0  0  0
 22 23  1  0  0  0  0
 23 25  2  0  0  0  0
 23 24  1  0  0  0  0
M  END
>  <MODEL>
3

>  <REMARK>
 VINA RESULT:      -6.6      3.384      6.928
  Name = 
  6 active torsions:
  status: ('A' for Active; 'I' for Inactive)
    1  A    between atoms: O_1  and  C_2
    2  A    between atoms: O_1  and  C_13
    3  A    between atoms: C_5  and  C_17
    4  A    between atoms: C_7  and  C_13
    5  A    between atoms: C_8  and  C_17
    6  A    between atoms: C_10  and  C_13
                            x       y       z     vdW  Elec       q    Type
                         _______ _______ _______ _____ _____    ______ ____

>  <TORSDO>
F 6

$$$$
=
 OpenBabel11042413493D

 25 28  0  0  1  0  0  0  0  0999 V2000
  188.1630  175.6830  147.1930 C   0  0  0  0  0  2  0  0  0  0  0  0
  188.2040  176.9840  146.4210 C   0  0  1  0  0  3  0  0  0  0  0  0
  189.6980  175.6000  145.4280 C   0  0  1  0  0  3  0  0  0  0  0  0
  189.4270  175.0040  146.7870 C   0  0  0  0  0  2  0  0  0  0  0  0
  189.1840  176.9090  145.4100 O   0  0  0  0  0  0  0  0  0  0  0  0
  186.8490  177.3030  145.8520 C   0  0  0  0  0  0  0  0  0  0  0  0
  185.8650  176.5150  146.0980 N   0  0  0  0  0  2  0  0  0  0  0  0
  185.6160  177.9010  140.9960 C   0  0  0  0  0  3  0  0  0  0  0  0
  186.6350  178.5540  145.0400 C   0  0  2  0  0  3  0  0  0  0  0  0
  186.8890  177.4550  141.3920 C   0  0  0  0  0  3  0  0  0  0  0  0
  184.7860  178.5050  141.8950 N   0  0  0  0  0  0  0  0  0  0  0  0
  185.3450  179.2780  145.4660 C   0  0  0  0  0  3  0  0  0  0  0  0
  185.1880  178.6740  143.1810 C   0  0  0  0  0  0  0  0  0  0  0  0
  184.4020  179.3200  144.2510 C   0  0  0  0  0  3  0  0  0  0  0  0
  186.4140  178.2460  143.6080 C   0  0  0  0  0  0  0  0  0  0  0  0
  187.2990  177.6330  142.7210 C   0  0  0  0  0  3  0  0  0  0  0  0
  191.1950  175.6010  145.1170 C   0  0  2  0  0  3  0  0  0  0  0  0
  193.0560  174.3970  146.0910 O   0  0  0  0  0  0  0  0  0  0  0  0
  192.0080  175.2900  146.3810 C   0  0  1  0  0  3  0  0  0  0  0  0
  194.0120  175.3790  146.3930 C   0  0  0  0  0  2  0  0  0  0  0  0
  192.9630  176.4070  146.7100 C   0  0  0  0  0  2  0  0  0  0  0  0
  191.5730  176.8790  144.6130 O   0  0  0  0  0  0  0  0  0  0  0  0
  191.7450  177.1190  143.2480 C   0  0  0  0  0  0  0  0  0  0  0  0
  192.7410  176.6560  142.6310 O   0  0  0  0  0  1  0  0  0  0  0  0
  190.8030  177.8710  142.5610 O   0  0  0  0  0  0  0  0  0  0  0  0
  2  6  1  6  0  0  0
  2  1  1  0  0  0  0
  3 17  1  1  0  0  0
  3  4  1  0  0  0  0
  4  1  1  0  0  0  0
  5  3  1  0  0  0  0
  5  2  1  0  0  0  0
  6  7  2  0  0  0  0
  8 10  2  0  0  0  0
  8 11  1  0  0  0  0
  9 12  1  0  0  0  0
  9  6  1  1  0  0  0
 10 16  1  0  0  0  0
 11 13  2  0  0  0  0
 13 15  1  0  0  0  0
 13 14  1  0  0  0  0
 14 12  2  0  0  0  0
 15  9  1  0  0  0  0
 16 15  2  0  0  0  0
 17 22  1  1  0  0  0
 18 19  1  0  0  0  0
 18 20  1  0  0  0  0
 19 17  1  6  0  0  0
 19 21  1  0  0  0  0
 20 21  1  0  0  0  0
 23 22  1  0  0  0  0
 24 23  1  0  0  0  0
 25 23  2  0  0  0  0
M  END
>  <MODEL>
4

>  <REMARK>
 VINA RESULT:      -6.6      3.395      6.953
  Name = 
  6 active torsions:
  status: ('A' for Active; 'I' for Inactive)
    1  A    between atoms: O_1  and  C_2
    2  A    between atoms: O_1  and  C_13
    3  A    between atoms: C_5  and  C_17
    4  A    between atoms: C_7  and  C_13
    5  A    between atoms: C_8  and  C_17
    6  A    between atoms: C_10  and  C_13
                            x       y       z     vdW  Elec       q    Type
                         _______ _______ _______ _____ _____    ______ ____

>  <TORSDO>
F 6

$$$$
=
 OpenBabel11042413493D

 25 28  0  0  1  0  0  0  0  0999 V2000
  189.5700  174.8510  146.8990 C   0  0  0  0  0  2  0  0  0  0  0  0
  189.8710  174.9070  145.4160 C   0  0  1  0  0  3  0  0  0  0  0  0
  188.3350  176.5230  145.8230 C   0  0  1  0  0  3  0  0  0  0  0  0
  188.2880  175.6020  147.0180 C   0  0  0  0  0  2  0  0  0  0  0  0
  189.0600  175.8830  144.8010 O   0  0  0  0  0  0  0  0  0  0  0  0
  191.3310  175.1780  145.1830 C   0  0  0  0  0  0  0  0  0  0  0  0
  191.7270  175.5070  144.0070 N   0  0  0  0  0  2  0  0  0  0  0  0
  196.0270  173.3400  145.3700 C   0  0  0  0  0  3  0  0  0  0  0  0
  192.3130  175.1070  146.3240 C   0  0  2  0  0  3  0  0  0  0  0  0
  194.9010  172.5030  145.2780 C   0  0  0  0  0  3  0  0  0  0  0  0
  195.8870  174.6440  145.7490 N   0  0  0  0  0  0  0  0  0  0  0  0
  192.8370  176.5080  146.6920 C   0  0  0  0  0  3  0  0  0  0  0  0
  194.6540  175.1380  146.0350 C   0  0  0  0  0  0  0  0  0  0  0  0
  194.3590  176.5170  146.4690 C   0  0  0  0  0  3  0  0  0  0  0  0
  193.5350  174.3580  145.9480 C   0  0  0  0  0  0  0  0  0  0  0  0
  193.6320  173.0170  145.5750 C   0  0  0  0  0  3  0  0  0  0  0  0
  186.9250  176.8770  145.3470 C   0  0  2  0  0  3  0  0  0  0  0  0
  185.8540  176.3180  143.2500 O   0  0  0  0  0  0  0  0  0  0  0  0
  186.9010  177.0620  143.8240 C   0  0  1  0  0  3  0  0  0  0  0  0
  185.2060  177.4930  142.8420 C   0  0  0  0  0  2  0  0  0  0  0  0
  186.2680  178.3720  143.4390 C   0  0  0  0  0  2  0  0  0  0  0  0
  186.5010  178.0830  145.9780 O   0  0  0  0  0  0  0  0  0  0  0  0
  185.5190  178.0970  146.9700 C   0  0  0  0  0  0  0  0  0  0  0  0
  185.8200  177.9170  148.1800 O   0  0  0  0  0  1  0  0  0  0  0  0
  184.1950  178.3230  146.6210 O   0  0  0  0  0  0  0  0  0  0  0  0
  1  4  1  0  0  0  0
  2  6  1  1  0  0  0
  2  1  1  0  0  0  0
  3 17  1  6  0  0  0
  3  4  1  0  0  0  0
  5  2  1  0  0  0  0
  5  3  1  0  0  0  0
  7  6  2  0  0  0  0
  8 11  1  0  0  0  0
  9  6  1  6  0  0  0
  9 12  1  0  0  0  0
 10  8  2  0  0  0  0
 10 16  1  0  0  0  0
 11 13  2  0  0  0  0
 13 14  1  0  0  0  0
 14 12  2  0  0  0  0
 15 13  1  0  0  0  0
 15  9  1  0  0  0  0
 16 15  2  0  0  0  0
 17 22  1  1  0  0  0
 18 19  1  0  0  0  0
 19 17  1  1  0  0  0
 20 18  1  0  0  0  0
 20 21  1  0  0  0  0
 21 19  1  0  0  0  0
 22 23  1  0  0  0  0
 23 24  1  0  0  0  0
 25 23  2  0  0  0  0
M  END
>  <MODEL>
5

>  <REMARK>
 VINA RESULT:      -6.6      2.797      4.504
  Name = 
  6 active torsions:
  status: ('A' for Active; 'I' for Inactive)
    1  A    between atoms: O_1  and  C_2
    2  A    between atoms: O_1  and  C_13
    3  A    between atoms: C_5  and  C_17
    4  A    between atoms: C_7  and  C_13
    5  A    between atoms: C_8  and  C_17
    6  A    between atoms: C_10  and  C_13
                            x       y       z     vdW  Elec       q    Type
                         _______ _______ _______ _____ _____    ______ ____

>  <TORSDO>
F 6

$$$$
=
 OpenBabel11042413493D

 25 28  0  0  1  0  0  0  0  0999 V2000
  189.6450  177.8390  142.8640 C   0  0  0  0  0  2  0  0  0  0  0  0
  189.9840  177.9160  144.3370 C   0  0  1  0  0  3  0  0  0  0  0  0
  187.8780  177.0910  144.2040 C   0  0  1  0  0  3  0  0  0  0  0  0
  188.1590  177.7160  142.8600 C   0  0  0  0  0  2  0  0  0  0  0  0
  188.8720  177.5160  145.1050 O   0  0  0  0  0  0  0  0  0  0  0  0
  191.1950  177.0790  144.6440 C   0  0  0  0  0  0  0  0  0  0  0  0
  192.3220  177.3900  144.1120 N   0  0  0  0  0  2  0  0  0  0  0  0
  191.2480  172.1070  143.7870 C   0  0  0  0  0  3  0  0  0  0  0  0
  191.1000  175.9170  145.5980 C   0  0  2  0  0  3  0  0  0  0  0  0
  190.1450  172.9100  143.4490 C   0  0  0  0  0  3  0  0  0  0  0  0
  192.1960  172.5670  144.6540 N   0  0  0  0  0  0  0  0  0  0  0  0
  192.3760  175.7940  146.4500 C   0  0  0  0  0  3  0  0  0  0  0  0
  192.0770  173.8090  145.1920 C   0  0  0  0  0  0  0  0  0  0  0  0
  193.0150  174.4270  146.1490 C   0  0  0  0  0  3  0  0  0  0  0  0
  191.0240  174.6240  144.8800 C   0  0  0  0  0  0  0  0  0  0  0  0
  190.0270  174.1910  144.0060 C   0  0  0  0  0  3  0  0  0  0  0  0
  186.4870  177.4770  144.7100 C   0  0  2  0  0  3  0  0  0  0  0  0
  184.4380  177.9430  143.5090 O   0  0  0  0  0  0  0  0  0  0  0  0
  185.7680  178.3650  143.6850 C   0  0  1  0  0  3  0  0  0  0  0  0
  183.9570  179.1440  144.0540 C   0  0  0  0  0  2  0  0  0  0  0  0
  185.3420  179.6740  144.2940 C   0  0  0  0  0  2  0  0  0  0  0  0
  186.6100  178.1800  145.9430 O   0  0  0  0  0  0  0  0  0  0  0  0
  185.9560  177.7650  147.1050 C   0  0  0  0  0  0  0  0  0  0  0  0
  186.3220  176.7260  147.7160 O   0  0  0  0  0  1  0  0  0  0  0  0
  184.8950  178.5120  147.5980 O   0  0  0  0  0  0  0  0  0  0  0  0
  1  2  1  0  0  0  0
  2  6  1  6  0  0  0
  2  5  1  0  0  0  0
  3 17  1  1  0  0  0
  3  5  1  0  0  0  0
  4  1  1  0  0  0  0
  4  3  1  0  0  0  0
  7  6  2  0  0  0  0
  8 11  1  0  0  0  0
  9  6  1  6  0  0  0
  9 12  1  0  0  0  0
 10  8  2  0  0  0  0
 10 16  1  0  0  0  0
 11 13  2  0  0  0  0
 13 14  1  0  0  0  0
 14 12  2  0  0  0  0
 15 13  1  0  0  0  0
 15  9  1  0  0  0  0
 16 15  2  0  0  0  0
 17 22  1  1  0  0  0
 18 19  1  0  0  0  0
 18 20  1  0  0  0  0
 19 21  1  0  0  0  0
 19 17  1  1  0  0  0
 20 21  1  0  0  0  0
 22 23  1  0  0  0  0
 23 25  2  0  0  0  0
 23 24  1  0  0  0  0
M  END
>  <MODEL>
6

>  <REMARK>
 VINA RESULT:      -6.4      2.477      3.738
  Name = 
  6 active torsions:
  status: ('A' for Active; 'I' for Inactive)
    1  A    between atoms: O_1  and  C_2
    2  A    between atoms: O_1  and  C_13
    3  A    between atoms: C_5  and  C_17
    4  A    between atoms: C_7  and  C_13
    5  A    between atoms: C_8  and  C_17
    6  A    between atoms: C_10  and  C_13
                            x       y       z     vdW  Elec       q    Type
                         _______ _______ _______ _____ _____    ______ ____

>  <TORSDO>
F 6

$$$$
=
 OpenBabel11042413493D

 25 28  0  0  1  0  0  0  0  0999 V2000
  190.1690  177.9140  143.0450 C   0  0  0  0  0  2  0  0  0  0  0  0
  189.5340  176.5430  143.1280 C   0  0  1  0  0  3  0  0  0  0  0  0
  191.4830  176.4190  144.2770 C   0  0  1  0  0  3  0  0  0  0  0  0
  191.5880  177.6580  143.4220 C   0  0  0  0  0  2  0  0  0  0  0  0
  190.3870  175.6620  143.8230 O   0  0  0  0  0  0  0  0  0  0  0  0
  188.1800  176.6250  143.7780 C   0  0  0  0  0  0  0  0  0  0  0  0
  187.2160  175.9190  143.3080 N   0  0  0  0  0  2  0  0  0  0  0  0
  184.0620  179.0400  145.4120 C   0  0  0  0  0  3  0  0  0  0  0  0
  187.9670  177.4920  144.9920 C   0  0  2  0  0  3  0  0  0  0  0  0
  184.7810  179.4710  144.2830 C   0  0  0  0  0  3  0  0  0  0  0  0
  184.6280  178.1710  146.2990 N   0  0  0  0  0  0  0  0  0  0  0  0
  187.9990  176.6530  146.2830 C   0  0  0  0  0  3  0  0  0  0  0  0
  185.8910  177.7150  146.0890 C   0  0  0  0  0  0  0  0  0  0  0  0
  186.6280  176.7870  146.9680 C   0  0  0  0  0  3  0  0  0  0  0  0
  186.6170  178.1030  144.9980 C   0  0  0  0  0  0  0  0  0  0  0  0
  186.0830  178.9980  144.0720 C   0  0  0  0  0  3  0  0  0  0  0  0
  192.7720  175.5990  144.2160 C   0  0  2  0  0  3  0  0  0  0  0  0
  194.4710  176.0350  145.8840 O   0  0  0  0  0  0  0  0  0  0  0  0
  193.2940  175.3080  145.6300 C   0  0  1  0  0  3  0  0  0  0  0  0
  193.8260  176.7840  146.8790 C   0  0  0  0  0  2  0  0  0  0  0  0
  192.5190  176.0730  146.6700 C   0  0  0  0  0  2  0  0  0  0  0  0
  193.7590  176.3210  143.4850 O   0  0  0  0  0  0  0  0  0  0  0  0
  194.4470  175.7590  142.4080 C   0  0  0  0  0  0  0  0  0  0  0  0
  194.6120  176.4050  141.3390 O   0  0  0  0  0  0  0  0  0  0  0  0
  194.9640  174.4750  142.5200 O   0  0  0  0  0  1  0  0  0  0  0  0
  1  2  1  0  0  0  0
  1  4  1  0  0  0  0
  2  6  1  1  0  0  0
  2  5  1  0  0  0  0
  3 17  1  6  0  0  0
  4  3  1  0  0  0  0
  5  3  1  0  0  0  0
  7  6  2  0  0  0  0
  8 11  1  0  0  0  0
  9  6  1  6  0  0  0
  9 15  1  0  0  0  0
  9 12  1  0  0  0  0
 10  8  2  0  0  0  0
 12 14  2  0  0  0  0
 13 11  2  0  0  0  0
 13 14  1  0  0  0  0
 15 13  1  0  0  0  0
 16 10  1  0  0  0  0
 16 15  2  0  0  0  0
 17 22  1  6  0  0  0
 18 20  1  0  0  0  0
 19 17  1  6  0  0  0
 19 18  1  0  0  0  0
 19 21  1  0  0  0  0
 21 20  1  0  0  0  0
 23 25  1  0  0  0  0
 23 22  1  0  0  0  0
 24 23  2  0  0  0  0
M  END
>  <MODEL>
7

>  <REMARK>
 VINA RESULT:      -6.4      3.742      7.211
  Name = 
  6 active torsions:
  status: ('A' for Active; 'I' for Inactive)
    1  A    between atoms: O_1  and  C_2
    2  A    between atoms: O_1  and  C_13
    3  A    between atoms: C_5  and  C_17
    4  A    between atoms: C_7  and  C_13
    5  A    between atoms: C_8  and  C_17
    6  A    between atoms: C_10  and  C_13
                            x       y       z     vdW  Elec       q    Type
                         _______ _______ _______ _____ _____    ______ ____

>  <TORSDO>
F 6

$$$$
=
 OpenBabel11042413493D

 25 28  0  0  1  0  0  0  0  0999 V2000
  188.8310  175.5130  147.0250 C   0  0  0  0  0  2  0  0  0  0  0  0
  188.5290  176.9720  146.7600 C   0  0  1  0  0  3  0  0  0  0  0  0
  189.8920  176.2840  145.0860 C   0  0  1  0  0  3  0  0  0  0  0  0
  190.0300  175.2520  146.1780 C   0  0  0  0  0  2  0  0  0  0  0  0
  189.2370  177.4080  145.6220 O   0  0  0  0  0  0  0  0  0  0  0  0
  187.0490  177.1850  146.6030 C   0  0  0  0  0  0  0  0  0  0  0  0
  186.2370  176.3130  147.0820 N   0  0  0  0  0  2  0  0  0  0  0  0
  184.7350  177.7930  142.1600 C   0  0  0  0  0  3  0  0  0  0  0  0
  186.5220  178.4270  145.9320 C   0  0  2  0  0  3  0  0  0  0  0  0
  186.1070  177.4970  142.2530 C   0  0  0  0  0  3  0  0  0  0  0  0
  184.0550  178.2550  143.2490 N   0  0  0  0  0  0  0  0  0  0  0  0
  185.2790  178.9670  146.6640 C   0  0  0  0  0  3  0  0  0  0  0  0
  184.7030  178.4280  144.4300 C   0  0  0  0  0  0  0  0  0  0  0  0
  184.0980  178.9320  145.6790 C   0  0  0  0  0  3  0  0  0  0  0  0
  186.0340  178.1440  144.5630 C   0  0  0  0  0  0  0  0  0  0  0  0
  186.7710  177.6790  143.4740 C   0  0  0  0  0  3  0  0  0  0  0  0
  191.2590  176.6710  144.5210 C   0  0  2  0  0  3  0  0  0  0  0  0
  192.1370  175.4930  142.5980 O   0  0  0  0  0  0  0  0  0  0  0  0
  191.2710  176.5280  142.9930 C   0  0  1  0  0  3  0  0  0  0  0  0
  191.0590  174.7440  142.1010 C   0  0  0  0  0  2  0  0  0  0  0  0
  190.0560  175.7880  142.5000 C   0  0  0  0  0  2  0  0  0  0  0  0
  192.2610  175.8280  145.0840 O   0  0  0  0  0  0  0  0  0  0  0  0
  193.4330  176.3380  145.6450 C   0  0  0  0  0  0  0  0  0  0  0  0
  193.4710  176.6930  146.8530 O   0  0  0  0  0  1  0  0  0  0  0  0
  194.5750  176.4480  144.8630 O   0  0  0  0  0  0  0  0  0  0  0  0
  2  6  1  6  0  0  0
  2  1  1  0  0  0  0
  3 17  1  1  0  0  0
  3  5  1  0  0  0  0
  3  4  1  0  0  0  0
  4  1  1  0  0  0  0
  5  2  1  0  0  0  0
  6  7  2  0  0  0  0
  8 10  2  0  0  0  0
  8 11  1  0  0  0  0
  9  6  1  1  0  0  0
  9 12  1  0  0  0  0
 10 16  1  0  0  0  0
 11 13  2  0  0  0  0
 13 15  1  0  0  0  0
 13 14  1  0  0  0  0
 14 12  2  0  0  0  0
 15  9  1  0  0  0  0
 16 15  2  0  0  0  0
 17 22  1  1  0  0  0
 18 19  1  0  0  0  0
 19 17  1  1  0  0  0
 20 21  1  0  0  0  0
 20 18  1  0  0  0  0
 21 19  1  0  0  0  0
 22 23  1  0  0  0  0
 23 24  1  0  0  0  0
 25 23  2  0  0  0  0
M  END
>  <MODEL>
8

>  <REMARK>
 VINA RESULT:      -6.4      3.438      7.281
  Name = 
  6 active torsions:
  status: ('A' for Active; 'I' for Inactive)
    1  A    between atoms: O_1  and  C_2
    2  A    between atoms: O_1  and  C_13
    3  A    between atoms: C_5  and  C_17
    4  A    between atoms: C_7  and  C_13
    5  A    between atoms: C_8  and  C_17
    6  A    between atoms: C_10  and  C_13
                            x       y       z     vdW  Elec       q    Type
                         _______ _______ _______ _____ _____    ______ ____

>  <TORSDO>
F 6

$$$$
=
 OpenBabel11042413493D

 25 28  0  0  1  0  0  0  0  0999 V2000
  189.8930  177.1310  143.2330 C   0  0  0  0  0  2  0  0  0  0  0  0
  189.5480  176.5400  144.5840 C   0  0  1  0  0  3  0  0  0  0  0  0
  187.5830  177.1100  143.6110 C   0  0  1  0  0  3  0  0  0  0  0  0
  188.6490  177.8590  142.8510 C   0  0  0  0  0  2  0  0  0  0  0  0
  188.1560  176.6050  144.7930 O   0  0  0  0  0  0  0  0  0  0  0  0
  190.0550  175.1280  144.6860 C   0  0  0  0  0  0  0  0  0  0  0  0
  189.6850  174.2640  143.8110 N   0  0  0  0  0  2  0  0  0  0  0  0
  194.5900  176.9910  145.8820 C   0  0  0  0  0  3  0  0  0  0  0  0
  191.0210  174.7390  145.7760 C   0  0  2  0  0  3  0  0  0  0  0  0
  194.3840  176.2120  144.7290 C   0  0  0  0  0  3  0  0  0  0  0  0
  193.6660  176.9940  146.8860 N   0  0  0  0  0  0  0  0  0  0  0  0
  190.4810  175.1380  147.1620 C   0  0  0  0  0  3  0  0  0  0  0  0
  192.5390  176.2440  146.7730 C   0  0  0  0  0  0  0  0  0  0  0  0
  191.4680  176.1410  147.7840 C   0  0  0  0  0  3  0  0  0  0  0  0
  192.2990  175.4800  145.6650 C   0  0  0  0  0  0  0  0  0  0  0  0
  193.2200  175.4390  144.6180 C   0  0  0  0  0  3  0  0  0  0  0  0
  186.3940  178.0180  143.9300 C   0  0  2  0  0  3  0  0  0  0  0  0
  185.5630  179.3880  145.7440 O   0  0  0  0  0  0  0  0  0  0  0  0
  186.2390  178.1910  145.4470 C   0  0  1  0  0  3  0  0  0  0  0  0
  184.4790  178.6750  146.2770 C   0  0  0  0  0  2  0  0  0  0  0  0
  185.1160  177.3460  145.9850 C   0  0  0  0  0  2  0  0  0  0  0  0
  185.2040  177.4460  143.3930 O   0  0  0  0  0  0  0  0  0  0  0  0
  184.5320  178.0090  142.3070 C   0  0  0  0  0  0  0  0  0  0  0  0
  183.3040  178.2840  142.3780 O   0  0  0  0  0  1  0  0  0  0  0  0
  185.2270  178.2790  141.1360 O   0  0  0  0  0  0  0  0  0  0  0  0
  1  2  1  0  0  0  0
  2  6  1  6  0  0  0
  2  5  1  0  0  0  0
  3 17  1  1  0  0  0
  3  5  1  0  0  0  0
  4  1  1  0  0  0  0
  4  3  1  0  0  0  0
  7  6  2  0  0  0  0
  8 11  1  0  0  0  0
  9  6  1  6  0  0  0
  9 12  1  0  0  0  0
 10  8  2  0  0  0  0
 12 14  2  0  0  0  0
 13 11  2  0  0  0  0
 13 14  1  0  0  0  0
 15  9  1  0  0  0  0
 15 13  1  0  0  0  0
 16 10  1  0  0  0  0
 16 15  2  0  0  0  0
 17 22  1  1  0  0  0
 18 20  1  0  0  0  0
 19 17  1  6  0  0  0
 19 18  1  0  0  0  0
 19 21  1  0  0  0  0
 21 20  1  0  0  0  0
 23 24  1  0  0  0  0
 23 22  1  0  0  0  0
 25 23  2  0  0  0  0
M  END
>  <MODEL>
9

>  <REMARK>
 VINA RESULT:      -6.4      1.571      2.904
  Name = 
  6 active torsions:
  status: ('A' for Active; 'I' for Inactive)
    1  A    between atoms: O_1  and  C_2
    2  A    between atoms: O_1  and  C_13
    3  A    between atoms: C_5  and  C_17
    4  A    between atoms: C_7  and  C_13
    5  A    between atoms: C_8  and  C_17
    6  A    between atoms: C_10  and  C_13
                            x       y       z     vdW  Elec       q    Type
                         _______ _______ _______ _____ _____    ______ ____

>  <TORSDO>
F 6

$$$$
