=
 OpenBabel11042417393D

 54 59  0  0  1  0  0  0  0  0999 V2000
  194.9540  174.2170  142.8140 C   0  0  0  0  0  0  0  0  0  0  0  0
  195.4590  174.1010  141.5100 C   0  0  0  0  0  3  0  0  0  0  0  0
  193.9020  176.3070  142.1700 C   0  0  0  0  0  3  0  0  0  0  0  0
  194.1540  175.3260  143.1420 C   0  0  0  0  0  0  0  0  0  0  0  0
  195.1710  175.0610  140.5310 C   0  0  0  0  0  0  0  0  0  0  0  0
  194.4030  176.1730  140.8740 C   0  0  0  0  0  3  0  0  0  0  0  0
  195.7610  174.9840  139.1540 C   0  0  0  0  0  2  0  0  0  0  0  0
  193.4670  171.3630  136.4140 N   0  0  0  0  0  0  0  0  0  0  0  0
  194.7350  173.0220  137.7930 C   0  0  0  0  0  0  0  0  0  0  0  0
  193.0050  174.8630  136.4930 C   0  0  0  0  0  3  0  0  0  0  0  0
  194.1500  172.6510  136.4620 C   0  0  2  0  0  3  0  0  0  0  0  0
  193.0530  173.5870  136.1090 C   0  0  1  0  0  3  0  0  0  0  0  0
  194.0090  175.3390  137.4720 C   0  0  0  0  0  3  0  0  0  0  0  0
  195.2750  172.1550  138.5290 O   0  0  0  0  0  0  0  0  0  0  0  0
  192.3100  171.5470  135.8520 C   0  0  0  0  0  0  0  0  0  0  0  0
  194.8000  174.4680  138.1290 C   0  0  2  0  0  3  0  0  0  0  0  0
  192.0000  172.8760  135.5760 O   0  0  0  0  0  0  0  0  0  0  0  0
  191.0200  169.6190  136.6340 C   0  0  0  0  0  1  0  0  0  0  0  0
  191.4380  170.4910  135.5990 O   0  0  0  0  0  0  0  0  0  0  0  0
  195.2390  173.2630  143.8050 O   0  0  0  0  0  0  0  0  0  0  0  0
  194.1650  172.0020  145.4340 O   0  0  0  0  0  0  0  0  0  0  0  0
  194.4030  172.2130  144.2130 C   0  0  0  0  0  0  0  0  0  0  0  0
  193.8130  171.3520  143.1720 C   0  0  0  0  0  3  0  0  0  0  0  0
  192.5780  171.4510  142.6690 C   0  0  0  0  0  3  0  0  0  0  0  0
  190.6420  172.9640  142.0900 C   0  0  2  0  0  3  0  0  0  0  0  0
  188.2770  172.2910  142.7680 O   0  0  0  0  0  0  0  0  0  0  0  0
  190.5120  171.8440  143.8650 N   0  0  0  0  0  2  0  0  0  0  0  0
  191.5630  172.4750  143.1000 C   0  0  1  0  0  3  0  0  0  0  0  0
  189.5290  172.3470  142.8810 C   0  0  0  0  0  0  0  0  0  0  0  0
  192.0200  173.1830  139.7930 O   0  0  0  0  0  1  0  0  0  0  0  0
  190.7360  172.1790  140.3840 P   0  0  2  0  0  0  0  0  0  0  0  0
  189.1820  173.3160  139.4880 S   0  0  0  0  0  0  0  0  0  0  0  0
  187.9360  172.4810  139.3930 O   0  0  0  0  0  0  0  0  0  0  0  0
  188.9000  174.5260  140.3360 O   0  0  0  0  0  0  0  0  0  0  0  0
  188.4660  174.4120  137.1230 C   0  0  0  0  0  1  0  0  0  0  0  0
  189.6610  173.8340  137.8540 C   0  0  0  0  0  2  0  0  0  0  0  0
  193.6760  175.5070  144.5600 C   0  0  2  0  0  3  0  0  0  0  0  0
  191.1030  176.2200  144.7260 C   0  0  0  0  0  0  0  0  0  0  0  0
  192.2630  175.9080  144.6310 C   0  0  0  0  0  0  0  0  0  0  0  0
  189.6930  176.5830  144.8820 C   0  0  0  0  0  2  0  0  0  0  0  0
  185.4310  177.1690  144.8900 O   0  0  0  0  0  0  0  0  0  0  0  0
  187.4830  178.1370  143.0250 C   0  0  2  0  0  3  0  0  0  0  0  0
  185.2910  178.6520  144.0460 P   0  0  2  0  0  0  0  0  0  0  0  0
  186.6960  175.7550  142.7200 C   0  0  0  0  0  1  0  0  0  0  0  0
  188.9460  176.3260  143.5720 C   0  0  2  0  0  3  0  0  0  0  0  0
  185.7770  179.7900  144.9130 O   0  0  0  0  0  1  0  0  0  0  0  0
  183.6710  178.9130  143.6430 O   0  0  0  0  0  0  0  0  0  0  0  0
  186.8040  176.8340  144.9830 C   0  0  0  0  0  2  0  0  0  0  0  0
  186.2140  178.5660  142.6120 O   0  0  0  0  0  0  0  0  0  0  0  0
  188.5110  178.1100  141.9200 C   0  0  0  0  0  2  0  0  0  0  0  0
  189.5770  177.1510  142.4380 C   0  0  0  0  0  2  0  0  0  0  0  0
  187.4720  176.7340  143.6010 C   0  0  1  0  0  0  0  0  0  0  0  0
  194.4080  176.1230  146.5620 C   0  0  0  0  0  1  0  0  0  0  0  0
  194.4670  176.4590  145.2060 O   0  0  0  0  0  0  0  0  0  0  0  0
  1  4  1  0  0  0  0
  1 20  1  0  0  0  0
  2  1  2  0  0  0  0
  3  4  2  0  0  0  0
  4 37  1  0  0  0  0
  5  6  2  0  0  0  0
  5  2  1  0  0  0  0
  6  3  1  0  0  0  0
  7  5  1  0  0  0  0
  9 16  1  0  0  0  0
  9 14  2  0  0  0  0
 10 13  2  0  0  0  0
 11  8  1  1  0  0  0
 11  9  1  0  0  0  0
 12 11  1  0  0  0  0
 12 10  1  1  0  0  0
 13 16  1  0  0  0  0
 15  8  2  0  0  0  0
 16  7  1  6  0  0  0
 17 15  1  0  0  0  0
 17 12  1  0  0  0  0
 19 15  1  0  0  0  0
 19 18  1  0  0  0  0
 20 22  1  0  0  0  0
 22 21  2  0  0  0  0
 23 22  1  0  0  0  0
 24 23  2  0  0  0  0
 25 31  1  6  0  0  0
 25 29  1  0  0  0  0
 25 28  1  0  0  0  0
 26 29  2  0  0  0  0
 28 24  1  6  0  0  0
 28 27  1  0  0  0  0
 29 27  1  0  0  0  0
 31 30  1  6  0  0  0
 32 34  2  0  0  0  0
 32 31  1  0  0  0  0
 33 32  2  0  0  0  0
 35 36  1  0  0  0  0
 36 32  1  0  0  0  0
 37 39  1  6  0  0  0
 37 54  1  0  0  0  0
 38 40  1  0  0  0  0
 39 38  3  0  0  0  0
 41 48  1  0  0  0  0
 42 50  1  6  0  0  0
 42 52  1  0  0  0  0
 43 47  2  6  0  0  0
 43 41  1  0  0  0  0
 43 46  1  0  0  0  0
 45 52  1  0  0  0  0
 45 40  1  1  0  0  0
 49 42  1  0  0  0  0
 49 43  1  0  0  0  0
 50 51  1  0  0  0  0
 51 45  1  0  0  0  0
 52 44  1  6  0  0  0
 52 48  1  0  0  0  0
 54 53  1  0  0  0  0
M  END
>  <MODEL>
1

>  <REMARK>
 VINA RESULT:      -6.3      0.000      0.000
  Name = 
  15 active torsions:
  status: ('A' for Active; 'I' for Inactive)
    1  A    between atoms: C_2  and  C_9
    2  A    between atoms: C_7  and  P_23
    3  A    between atoms: C_9  and  C_22
    4  A    between atoms: C_14  and  O_21
    5  A    between atoms: C_17  and  C_37
    6  A    between atoms: C_17  and  C_51
    7  A    between atoms: C_19  and  C_44
    8  A    between atoms: O_21  and  C_35
    9  A    between atoms: P_23  and  S_27
   10  A    between atoms: C_24  and  C_44
   11  A    between atoms: S_27  and  C_36
   12  A    between atoms: C_32  and  C_35
   13  A    between atoms: O_42  and  C_44
   14  A    between atoms: C_43  and  O_45
   15  A    between atoms: C_46  and  C_47
                            x       y       z     vdW  Elec       q    Type
                         _______ _______ _______ _____ _____    ______ ____

>  <TORSDO>
F 15

$$$$
=
 OpenBabel11042417393D

 54 59  0  0  1  0  0  0  0  0999 V2000
  189.7450  173.8740  143.1050 C   0  0  0  0  0  0  0  0  0  0  0  0
  189.7500  172.8490  142.1480 C   0  0  0  0  0  3  0  0  0  0  0  0
  191.3840  172.6220  144.3860 C   0  0  0  0  0  3  0  0  0  0  0  0
  190.5840  173.7660  144.2290 C   0  0  0  0  0  0  0  0  0  0  0  0
  190.5810  171.7290  142.2870 C   0  0  0  0  0  0  0  0  0  0  0  0
  191.3850  171.6150  143.4200 C   0  0  0  0  0  3  0  0  0  0  0  0
  190.5440  170.5940  141.3070 C   0  0  0  0  0  2  0  0  0  0  0  0
  190.5720  172.0620  136.4350 N   0  0  0  0  0  0  0  0  0  0  0  0
  190.3760  171.2950  138.8090 C   0  0  0  0  0  0  0  0  0  0  0  0
  193.2110  171.2240  138.6260 C   0  0  0  0  0  3  0  0  0  0  0  0
  191.0120  171.1220  137.4610 C   0  0  2  0  0  3  0  0  0  0  0  0
  192.4640  171.4210  137.5390 C   0  0  1  0  0  3  0  0  0  0  0  0
  192.5310  170.8470  139.8860 C   0  0  0  0  0  3  0  0  0  0  0  0
  189.1620  171.6040  138.9190 O   0  0  0  0  0  0  0  0  0  0  0  0
  191.6310  172.5530  135.8650 C   0  0  0  0  0  0  0  0  0  0  0  0
  191.1900  170.9260  139.9960 C   0  0  2  0  0  3  0  0  0  0  0  0
  192.8370  172.1650  136.4420 O   0  0  0  0  0  0  0  0  0  0  0  0
  190.7790  174.6250  134.8790 C   0  0  0  0  0  1  0  0  0  0  0  0
  191.5470  173.4370  134.7930 O   0  0  0  0  0  0  0  0  0  0  0  0
  188.9140  175.0000  142.9790 O   0  0  0  0  0  0  0  0  0  0  0  0
  188.3030  174.9580  140.7390 O   0  0  0  0  0  0  0  0  0  0  0  0
  188.5410  175.6270  141.7820 C   0  0  0  0  0  0  0  0  0  0  0  0
  188.4400  177.0980  141.7710 C   0  0  0  0  0  3  0  0  0  0  0  0
  187.3250  177.8160  141.9390 C   0  0  0  0  0  3  0  0  0  0  0  0
  185.3600  177.4120  143.4720 C   0  0  2  0  0  3  0  0  0  0  0  0
  183.2460  178.8130  143.1980 O   0  0  0  0  0  0  0  0  0  0  0  0
  184.9550  178.0330  141.5040 N   0  0  0  0  0  2  0  0  0  0  0  0
  185.9590  177.2280  142.1620 C   0  0  1  0  0  3  0  0  0  0  0  0
  184.2890  178.2240  142.8110 C   0  0  0  0  0  0  0  0  0  0  0  0
  187.5700  177.3220  145.0000 O   0  0  0  0  0  1  0  0  0  0  0  0
  186.3020  178.4700  144.7090 P   0  0  2  0  0  0  0  0  0  0  0  0
  185.1700  177.9360  146.4240 S   0  0  0  0  0  0  0  0  0  0  0  0
  183.8840  178.7150  146.4420 O   0  0  0  0  0  0  0  0  0  0  0  0
  184.8550  176.4660  146.3730 O   0  0  0  0  0  0  0  0  0  0  0  0
  186.3470  179.7860  148.0050 C   0  0  0  0  0  1  0  0  0  0  0  0
  186.0880  178.2960  147.9060 C   0  0  0  0  0  2  0  0  0  0  0  0
  190.5250  174.8180  145.3070 C   0  0  2  0  0  3  0  0  0  0  0  0
  192.9240  175.9180  145.7420 C   0  0  0  0  0  0  0  0  0  0  0  0
  191.8360  175.4350  145.5630 C   0  0  0  0  0  0  0  0  0  0  0  0
  194.2630  176.4840  145.9240 C   0  0  0  0  0  2  0  0  0  0  0  0
  196.8350  173.0400  146.0990 O   0  0  0  0  0  0  0  0  0  0  0  0
  194.9360  173.8950  144.0280 C   0  0  2  0  0  3  0  0  0  0  0  0
  195.9900  171.9330  145.1040 P   0  0  2  0  0  0  0  0  0  0  0  0
  197.2000  175.0190  144.0340 C   0  0  0  0  0  1  0  0  0  0  0  0
  195.1210  176.1840  144.6930 C   0  0  2  0  0  3  0  0  0  0  0  0
  194.7460  171.4460  145.8110 O   0  0  0  0  0  1  0  0  0  0  0  0
  196.9880  170.6140  144.7630 O   0  0  0  0  0  0  0  0  0  0  0  0
  196.0990  174.2480  146.1530 C   0  0  0  0  0  2  0  0  0  0  0  0
  195.5720  172.7070  143.6390 O   0  0  0  0  0  0  0  0  0  0  0  0
  194.3640  174.6880  142.8790 C   0  0  0  0  0  2  0  0  0  0  0  0
  194.2320  176.1000  143.4410 C   0  0  0  0  0  2  0  0  0  0  0  0
  195.8640  174.8480  144.7570 C   0  0  1  0  0  0  0  0  0  0  0  0
  189.0290  175.1300  146.9150 C   0  0  0  0  0  1  0  0  0  0  0  0
  190.0340  174.2570  146.4870 O   0  0  0  0  0  0  0  0  0  0  0  0
  1  4  1  0  0  0  0
  2  5  1  0  0  0  0
  2  1  2  0  0  0  0
  4  3  2  0  0  0  0
  4 37  1  0  0  0  0
  5  6  2  0  0  0  0
  6  3  1  0  0  0  0
  7  5  1  0  0  0  0
  9 14  2  0  0  0  0
  9 16  1  0  0  0  0
 10 13  2  0  0  0  0
 11  8  1  6  0  0  0
 11 12  1  0  0  0  0
 11  9  1  0  0  0  0
 12 10  1  1  0  0  0
 13 16  1  0  0  0  0
 15  8  2  0  0  0  0
 15 17  1  0  0  0  0
 16  7  1  6  0  0  0
 17 12  1  0  0  0  0
 19 18  1  0  0  0  0
 19 15  1  0  0  0  0
 20  1  1  0  0  0  0
 21 22  2  0  0  0  0
 22 20  1  0  0  0  0
 23 22  1  0  0  0  0
 23 24  2  0  0  0  0
 25 31  1  1  0  0  0
 27 28  1  0  0  0  0
 27 29  1  0  0  0  0
 28 24  1  1  0  0  0
 28 25  1  0  0  0  0
 29 26  2  0  0  0  0
 29 25  1  0  0  0  0
 31 30  1  1  0  0  0
 31 32  1  0  0  0  0
 32 33  2  0  0  0  0
 32 36  1  0  0  0  0
 34 32  2  0  0  0  0
 36 35  1  0  0  0  0
 37 39  1  1  0  0  0
 37 54  1  0  0  0  0
 38 40  1  0  0  0  0
 39 38  3  0  0  0  0
 41 48  1  0  0  0  0
 42 50  1  6  0  0  0
 42 52  1  0  0  0  0
 43 47  2  6  0  0  0
 43 46  1  0  0  0  0
 43 41  1  0  0  0  0
 45 52  1  0  0  0  0
 45 40  1  1  0  0  0
 49 42  1  0  0  0  0
 49 43  1  0  0  0  0
 50 51  1  0  0  0  0
 51 45  1  0  0  0  0
 52 44  1  6  0  0  0
 52 48  1  0  0  0  0
 54 53  1  0  0  0  0
M  END
>  <MODEL>
2

>  <REMARK>
 VINA RESULT:      -6.3      2.865      7.578
  Name = 
  15 active torsions:
  status: ('A' for Active; 'I' for Inactive)
    1  A    between atoms: C_2  and  C_9
    2  A    between atoms: C_7  and  P_23
    3  A    between atoms: C_9  and  C_22
    4  A    between atoms: C_14  and  O_21
    5  A    between atoms: C_17  and  C_37
    6  A    between atoms: C_17  and  C_51
    7  A    between atoms: C_19  and  C_44
    8  A    between atoms: O_21  and  C_35
    9  A    between atoms: P_23  and  S_27
   10  A    between atoms: C_24  and  C_44
   11  A    between atoms: S_27  and  C_36
   12  A    between atoms: C_32  and  C_35
   13  A    between atoms: O_42  and  C_44
   14  A    between atoms: C_43  and  O_45
   15  A    between atoms: C_46  and  C_47
                            x       y       z     vdW  Elec       q    Type
                         _______ _______ _______ _____ _____    ______ ____

>  <TORSDO>
F 15

$$$$
=
 OpenBabel11042417393D

 54 59  0  0  1  0  0  0  0  0999 V2000
  191.0230  174.9810  145.2210 C   0  0  0  0  0  0  0  0  0  0  0  0
  190.1430  174.0440  144.6600 C   0  0  0  0  0  3  0  0  0  0  0  0
  192.3350  174.8990  143.1790 C   0  0  0  0  0  3  0  0  0  0  0  0
  192.1230  175.4250  144.4650 C   0  0  0  0  0  0  0  0  0  0  0  0
  190.3330  173.5540  143.3610 C   0  0  0  0  0  0  0  0  0  0  0  0
  191.4440  173.9750  142.6320 C   0  0  0  0  0  3  0  0  0  0  0  0
  189.4390  172.5010  142.7770 C   0  0  0  0  0  2  0  0  0  0  0  0
  188.2690  174.1410  138.1050 N   0  0  0  0  0  0  0  0  0  0  0  0
  188.6940  173.4290  140.4660 C   0  0  0  0  0  0  0  0  0  0  0  0
  190.3060  171.4680  139.1890 C   0  0  0  0  0  3  0  0  0  0  0  0
  188.3770  173.0370  139.0530 C   0  0  2  0  0  3  0  0  0  0  0  0
  189.4980  172.2530  138.4760 C   0  0  1  0  0  3  0  0  0  0  0  0
  190.1980  171.5050  140.6650 C   0  0  0  0  0  3  0  0  0  0  0  0
  188.2000  174.4660  140.9790 O   0  0  0  0  0  0  0  0  0  0  0  0
  188.9900  173.8440  137.0650 C   0  0  0  0  0  0  0  0  0  0  0  0
  189.4750  172.4610  141.2800 C   0  0  2  0  0  3  0  0  0  0  0  0
  189.7300  172.6710  137.1840 O   0  0  0  0  0  0  0  0  0  0  0  0
  188.0570  175.6610  135.7160 C   0  0  0  0  0  1  0  0  0  0  0  0
  189.0450  174.6710  135.9470 O   0  0  0  0  0  0  0  0  0  0  0  0
  190.8450  175.4770  146.5230 O   0  0  0  0  0  0  0  0  0  0  0  0
  189.9620  177.4770  147.3090 O   0  0  0  0  0  0  0  0  0  0  0  0
  189.7820  176.2750  146.9700 C   0  0  0  0  0  0  0  0  0  0  0  0
  188.4400  175.6670  147.0410 C   0  0  0  0  0  3  0  0  0  0  0  0
  187.2740  176.3010  146.8770 C   0  0  0  0  0  3  0  0  0  0  0  0
  186.7130  178.1600  145.2650 C   0  0  2  0  0  3  0  0  0  0  0  0
  184.4630  179.3470  145.4520 O   0  0  0  0  0  0  0  0  0  0  0  0
  185.9360  178.2870  147.2150 N   0  0  0  0  0  2  0  0  0  0  0  0
  187.1370  177.7720  146.5980 C   0  0  1  0  0  3  0  0  0  0  0  0
  185.4730  178.7310  145.8820 C   0  0  0  0  0  0  0  0  0  0  0  0
  187.8920  176.3960  143.6150 O   0  0  0  0  0  1  0  0  0  0  0  0
  186.2630  176.7810  144.0690 P   0  0  2  0  0  0  0  0  0  0  0  0
  185.8860  178.0140  142.3810 S   0  0  0  0  0  0  0  0  0  0  0  0
  184.4730  177.8070  141.9110 O   0  0  0  0  0  0  0  0  0  0  0  0
  186.0720  179.4550  142.7670 O   0  0  0  0  0  0  0  0  0  0  0  0
  186.2610  177.6040  139.7350 C   0  0  0  0  0  1  0  0  0  0  0  0
  187.0030  177.6040  141.0560 C   0  0  0  0  0  2  0  0  0  0  0  0
  193.1240  176.3650  145.0860 C   0  0  2  0  0  3  0  0  0  0  0  0
  195.4360  176.3920  143.7400 C   0  0  0  0  0  0  0  0  0  0  0  0
  194.3960  176.4020  144.3470 C   0  0  0  0  0  0  0  0  0  0  0  0
  196.6970  176.3350  142.9980 C   0  0  0  0  0  2  0  0  0  0  0  0
  197.9390  173.0600  140.5010 O   0  0  0  0  0  0  0  0  0  0  0  0
  195.3710  174.4760  140.6440 C   0  0  2  0  0  3  0  0  0  0  0  0
  196.4420  172.2990  140.1670 P   0  0  2  0  0  0  0  0  0  0  0  0
  197.2150  175.5880  139.3210 C   0  0  0  0  0  1  0  0  0  0  0  0
  196.4180  176.4500  141.4980 C   0  0  2  0  0  3  0  0  0  0  0  0
  195.9340  171.5920  141.4030 O   0  0  0  0  0  1  0  0  0  0  0  0
  196.6530  171.1710  138.9290 O   0  0  0  0  0  0  0  0  0  0  0  0
  197.7000  174.1760  141.3380 C   0  0  0  0  0  2  0  0  0  0  0  0
  195.3180  173.4810  139.6590 O   0  0  0  0  0  0  0  0  0  0  0  0
  194.3540  175.5760  140.4600 C   0  0  0  0  0  2  0  0  0  0  0  0
  194.9260  176.7400  141.2620 C   0  0  0  0  0  2  0  0  0  0  0  0
  196.7160  175.1750  140.7060 C   0  0  1  0  0  0  0  0  0  0  0  0
  193.6200  177.1900  147.0850 C   0  0  0  0  0  1  0  0  0  0  0  0
  193.3630  175.9920  146.4100 O   0  0  0  0  0  0  0  0  0  0  0  0
  1 20  1  0  0  0  0
  2  1  1  0  0  0  0
  3  4  1  0  0  0  0
  4 37  1  0  0  0  0
  4  1  2  0  0  0  0
  5  2  2  0  0  0  0
  6  3  2  0  0  0  0
  6  5  1  0  0  0  0
  7  5  1  0  0  0  0
  9 14  2  0  0  0  0
  9 16  1  0  0  0  0
 10 13  2  0  0  0  0
 11  8  1  6  0  0  0
 11  9  1  0  0  0  0
 12 11  1  0  0  0  0
 12 10  1  1  0  0  0
 13 16  1  0  0  0  0
 15 17  1  0  0  0  0
 15  8  2  0  0  0  0
 16  7  1  1  0  0  0
 17 12  1  0  0  0  0
 18 19  1  0  0  0  0
 19 15  1  0  0  0  0
 20 22  1  0  0  0  0
 22 23  1  0  0  0  0
 22 21  2  0  0  0  0
 24 23  2  0  0  0  0
 25 31  1  6  0  0  0
 25 29  1  0  0  0  0
 25 28  1  0  0  0  0
 26 29  2  0  0  0  0
 28 24  1  6  0  0  0
 28 27  1  0  0  0  0
 29 27  1  0  0  0  0
 31 30  1  6  0  0  0
 32 34  2  0  0  0  0
 32 31  1  0  0  0  0
 33 32  2  0  0  0  0
 35 36  1  0  0  0  0
 36 32  1  0  0  0  0
 37 39  1  6  0  0  0
 37 54  1  0  0  0  0
 38 39  3  0  0  0  0
 40 38  1  0  0  0  0
 41 48  1  0  0  0  0
 42 50  1  6  0  0  0
 42 52  1  0  0  0  0
 43 47  2  6  0  0  0
 43 41  1  0  0  0  0
 43 46  1  0  0  0  0
 45 40  1  1  0  0  0
 49 43  1  0  0  0  0
 49 42  1  0  0  0  0
 50 51  1  0  0  0  0
 51 45  1  0  0  0  0
 52 44  1  6  0  0  0
 52 48  1  0  0  0  0
 52 45  1  0  0  0  0
 54 53  1  0  0  0  0
M  END
>  <MODEL>
3

>  <REMARK>
 VINA RESULT:      -6.1      2.917      7.485
  Name = 
  15 active torsions:
  status: ('A' for Active; 'I' for Inactive)
    1  A    between atoms: C_2  and  C_9
    2  A    between atoms: C_7  and  P_23
    3  A    between atoms: C_9  and  C_22
    4  A    between atoms: C_14  and  O_21
    5  A    between atoms: C_17  and  C_37
    6  A    between atoms: C_17  and  C_51
    7  A    between atoms: C_19  and  C_44
    8  A    between atoms: O_21  and  C_35
    9  A    between atoms: P_23  and  S_27
   10  A    between atoms: C_24  and  C_44
   11  A    between atoms: S_27  and  C_36
   12  A    between atoms: C_32  and  C_35
   13  A    between atoms: O_42  and  C_44
   14  A    between atoms: C_43  and  O_45
   15  A    between atoms: C_46  and  C_47
                            x       y       z     vdW  Elec       q    Type
                         _______ _______ _______ _____ _____    ______ ____

>  <TORSDO>
F 15

$$$$
=
 OpenBabel11042417393D

 54 59  0  0  1  0  0  0  0  0999 V2000
  191.4350  175.0620  144.8460 C   0  0  0  0  0  0  0  0  0  0  0  0
  190.3630  174.3310  144.3110 C   0  0  0  0  0  3  0  0  0  0  0  0
  192.6070  174.7930  142.7370 C   0  0  0  0  0  3  0  0  0  0  0  0
  192.5630  175.3080  144.0440 C   0  0  0  0  0  0  0  0  0  0  0  0
  190.3930  173.8550  142.9940 C   0  0  0  0  0  0  0  0  0  0  0  0
  191.5290  174.0770  142.2170 C   0  0  0  0  0  3  0  0  0  0  0  0
  189.2840  173.0140  142.4340 C   0  0  0  0  0  2  0  0  0  0  0  0
  188.3040  174.5040  137.6690 N   0  0  0  0  0  0  0  0  0  0  0  0
  188.6430  173.8810  140.0680 C   0  0  0  0  0  0  0  0  0  0  0  0
  190.0960  171.7290  138.9150 C   0  0  0  0  0  3  0  0  0  0  0  0
  188.3080  173.4450  138.6730 C   0  0  2  0  0  3  0  0  0  0  0  0
  189.3640  172.5410  138.1520 C   0  0  1  0  0  3  0  0  0  0  0  0
  189.9760  171.8500  140.3860 C   0  0  0  0  0  3  0  0  0  0  0  0
  188.2340  174.9810  140.5210 O   0  0  0  0  0  0  0  0  0  0  0  0
  189.0070  174.0940  136.6550 C   0  0  0  0  0  0  0  0  0  0  0  0
  189.3320  172.8950  140.9410 C   0  0  2  0  0  3  0  0  0  0  0  0
  189.6440  172.8700  136.8440 O   0  0  0  0  0  0  0  0  0  0  0  0
  188.3230  175.9880  135.2630 C   0  0  0  0  0  1  0  0  0  0  0  0
  189.1420  174.8550  135.4980 O   0  0  0  0  0  0  0  0  0  0  0  0
  191.4180  175.5410  146.1670 O   0  0  0  0  0  0  0  0  0  0  0  0
  190.4660  177.3100  147.3320 O   0  0  0  0  0  0  0  0  0  0  0  0
  190.3410  176.1690  146.8090 C   0  0  0  0  0  0  0  0  0  0  0  0
  189.0530  175.4540  146.8630 C   0  0  0  0  0  3  0  0  0  0  0  0
  187.8370  176.0100  146.8430 C   0  0  0  0  0  3  0  0  0  0  0  0
  186.8940  177.9900  145.5920 C   0  0  2  0  0  3  0  0  0  0  0  0
  184.6650  178.9910  146.3250 O   0  0  0  0  0  0  0  0  0  0  0  0
  186.4920  177.8520  147.6520 N   0  0  0  0  0  2  0  0  0  0  0  0
  187.5800  177.4900  146.7710 C   0  0  1  0  0  3  0  0  0  0  0  0
  185.7670  178.4040  146.4880 C   0  0  0  0  0  0  0  0  0  0  0  0
  187.7980  176.5760  143.4930 O   0  0  0  0  0  1  0  0  0  0  0  0
  186.2930  176.7200  144.3420 P   0  0  2  0  0  0  0  0  0  0  0  0
  185.4340  178.0930  142.9690 S   0  0  0  0  0  0  0  0  0  0  0  0
  183.9460  178.1500  143.1760 O   0  0  0  0  0  0  0  0  0  0  0  0
  186.0170  179.4600  143.2030 O   0  0  0  0  0  0  0  0  0  0  0  0
  184.8990  178.3650  140.3320 C   0  0  0  0  0  1  0  0  0  0  0  0
  185.7690  177.5830  141.2960 C   0  0  0  0  0  2  0  0  0  0  0  0
  193.7560  176.0160  144.6330 C   0  0  2  0  0  3  0  0  0  0  0  0
  195.5840  174.2920  145.5510 C   0  0  0  0  0  0  0  0  0  0  0  0
  194.7770  175.0800  145.1290 C   0  0  0  0  0  0  0  0  0  0  0  0
  196.5310  173.3070  146.0790 C   0  0  0  0  0  2  0  0  0  0  0  0
  194.1980  169.7450  145.4640 O   0  0  0  0  0  0  0  0  0  0  0  0
  195.1380  171.7600  143.5460 C   0  0  2  0  0  3  0  0  0  0  0  0
  193.3310  170.1480  144.0440 P   0  0  2  0  0  0  0  0  0  0  0  0
  196.8030  169.9980  144.2580 C   0  0  0  0  0  1  0  0  0  0  0  0
  196.9710  172.3630  144.9570 C   0  0  2  0  0  3  0  0  0  0  0  0
  192.2720  171.1800  144.3580 O   0  0  0  0  0  1  0  0  0  0  0  0
  192.5890  168.7600  143.4310 O   0  0  0  0  0  0  0  0  0  0  0  0
  195.0240  170.8410  145.8120 C   0  0  0  0  0  2  0  0  0  0  0  0
  194.4210  170.7560  142.8790 O   0  0  0  0  0  0  0  0  0  0  0  0
  196.0850  172.5290  142.6580 C   0  0  0  0  0  2  0  0  0  0  0  0
  197.0860  173.1380  143.6350 C   0  0  0  0  0  2  0  0  0  0  0  0
  195.9910  171.2220  144.6790 C   0  0  1  0  0  0  0  0  0  0  0  0
  194.5210  177.4030  146.1860 C   0  0  0  0  0  1  0  0  0  0  0  0
  193.3430  176.8520  145.6710 O   0  0  0  0  0  0  0  0  0  0  0  0
  1 20  1  0  0  0  0
  2  1  1  0  0  0  0
  3  4  1  0  0  0  0
  4 37  1  0  0  0  0
  4  1  2  0  0  0  0
  5  2  2  0  0  0  0
  6  3  2  0  0  0  0
  6  5  1  0  0  0  0
  7  5  1  0  0  0  0
  9 14  2  0  0  0  0
  9 16  1  0  0  0  0
 10 13  2  0  0  0  0
 11  8  1  6  0  0  0
 11  9  1  0  0  0  0
 12 11  1  0  0  0  0
 12 10  1  1  0  0  0
 13 16  1  0  0  0  0
 15 17  1  0  0  0  0
 15  8  2  0  0  0  0
 16  7  1  1  0  0  0
 17 12  1  0  0  0  0
 18 19  1  0  0  0  0
 19 15  1  0  0  0  0
 20 22  1  0  0  0  0
 22 23  1  0  0  0  0
 22 21  2  0  0  0  0
 24 23  2  0  0  0  0
 25 31  1  6  0  0  0
 25 29  1  0  0  0  0
 25 28  1  0  0  0  0
 26 29  2  0  0  0  0
 28 24  1  6  0  0  0
 28 27  1  0  0  0  0
 29 27  1  0  0  0  0
 31 30  1  6  0  0  0
 32 33  2  0  0  0  0
 32 34  2  0  0  0  0
 32 31  1  0  0  0  0
 35 36  1  0  0  0  0
 36 32  1  0  0  0  0
 37 39  1  1  0  0  0
 37 54  1  0  0  0  0
 38 40  1  0  0  0  0
 39 38  3  0  0  0  0
 41 48  1  0  0  0  0
 42 50  1  6  0  0  0
 42 52  1  0  0  0  0
 43 47  2  6  0  0  0
 43 46  1  0  0  0  0
 43 41  1  0  0  0  0
 45 40  1  1  0  0  0
 49 42  1  0  0  0  0
 49 43  1  0  0  0  0
 50 51  1  0  0  0  0
 51 45  1  0  0  0  0
 52 44  1  6  0  0  0
 52 45  1  0  0  0  0
 52 48  1  0  0  0  0
 54 53  1  0  0  0  0
M  END
>  <MODEL>
4

>  <REMARK>
 VINA RESULT:      -6.1      3.202      7.335
  Name = 
  15 active torsions:
  status: ('A' for Active; 'I' for Inactive)
    1  A    between atoms: C_2  and  C_9
    2  A    between atoms: C_7  and  P_23
    3  A    between atoms: C_9  and  C_22
    4  A    between atoms: C_14  and  O_21
    5  A    between atoms: C_17  and  C_37
    6  A    between atoms: C_17  and  C_51
    7  A    between atoms: C_19  and  C_44
    8  A    between atoms: O_21  and  C_35
    9  A    between atoms: P_23  and  S_27
   10  A    between atoms: C_24  and  C_44
   11  A    between atoms: S_27  and  C_36
   12  A    between atoms: C_32  and  C_35
   13  A    between atoms: O_42  and  C_44
   14  A    between atoms: C_43  and  O_45
   15  A    between atoms: C_46  and  C_47
                            x       y       z     vdW  Elec       q    Type
                         _______ _______ _______ _____ _____    ______ ____

>  <TORSDO>
F 15

$$$$
=
 OpenBabel11042417393D

 54 59  0  0  1  0  0  0  0  0999 V2000
  193.5910  173.9580  143.2800 C   0  0  0  0  0  0  0  0  0  0  0  0
  194.2170  173.2800  142.2230 C   0  0  0  0  0  3  0  0  0  0  0  0
  194.8860  175.9330  142.7180 C   0  0  0  0  0  3  0  0  0  0  0  0
  193.9190  175.3040  143.5190 C   0  0  0  0  0  0  0  0  0  0  0  0
  195.1500  173.9230  141.3990 C   0  0  0  0  0  0  0  0  0  0  0  0
  195.4930  175.2480  141.6640 C   0  0  0  0  0  3  0  0  0  0  0  0
  195.8770  173.1910  140.3100 C   0  0  0  0  0  2  0  0  0  0  0  0
  194.2620  175.2550  135.9490 N   0  0  0  0  0  0  0  0  0  0  0  0
  194.9130  174.1170  138.0800 C   0  0  0  0  0  0  0  0  0  0  0  0
  197.3800  175.4410  137.5950 C   0  0  0  0  0  3  0  0  0  0  0  0
  195.2720  174.4890  136.6720 C   0  0  2  0  0  3  0  0  0  0  0  0
  196.4210  175.4290  136.6690 C   0  0  1  0  0  3  0  0  0  0  0  0
  197.2090  174.5880  138.7930 C   0  0  0  0  0  3  0  0  0  0  0  0
  193.7380  173.7860  138.3850 O   0  0  0  0  0  0  0  0  0  0  0  0
  194.8510  176.2770  135.4050 C   0  0  0  0  0  0  0  0  0  0  0  0
  196.0270  173.9970  139.0560 C   0  0  2  0  0  3  0  0  0  0  0  0
  196.1930  176.4260  135.7460 O   0  0  0  0  0  0  0  0  0  0  0  0
  193.4740  178.2820  135.1320 C   0  0  0  0  0  1  0  0  0  0  0  0
  194.1670  177.1730  134.5880 O   0  0  0  0  0  0  0  0  0  0  0  0
  192.6560  173.3230  144.1150 O   0  0  0  0  0  0  0  0  0  0  0  0
  190.4280  173.9400  144.3280 O   0  0  0  0  0  0  0  0  0  0  0  0
  191.2900  173.1510  143.8530 C   0  0  0  0  0  0  0  0  0  0  0  0
  190.8830  172.0130  143.0080 C   0  0  0  0  0  3  0  0  0  0  0  0
  190.5450  172.0670  141.7160 C   0  0  0  0  0  3  0  0  0  0  0  0
  190.4670  173.1830  139.4520 C   0  0  2  0  0  3  0  0  0  0  0  0
  188.2710  174.1750  138.6170 O   0  0  0  0  0  0  0  0  0  0  0  0
  189.2020  173.9310  140.9560 N   0  0  0  0  0  2  0  0  0  0  0  0
  190.5150  173.3290  140.8960 C   0  0  1  0  0  3  0  0  0  0  0  0
  189.1190  173.8350  139.4830 C   0  0  0  0  0  0  0  0  0  0  0  0
  191.9940  171.0180  138.9970 O   0  0  0  0  0  1  0  0  0  0  0  0
  190.3270  171.4380  138.7660 P   0  0  2  0  0  0  0  0  0  0  0  0
  190.5450  171.9470  136.7160 S   0  0  0  0  0  0  0  0  0  0  0  0
  189.2240  171.7930  136.0150 O   0  0  0  0  0  0  0  0  0  0  0  0
  190.9990  173.3760  136.6040 O   0  0  0  0  0  0  0  0  0  0  0  0
  193.0050  171.6580  135.6320 C   0  0  0  0  0  1  0  0  0  0  0  0
  191.7410  170.8800  135.9400 C   0  0  0  0  0  2  0  0  0  0  0  0
  193.3190  176.0180  144.7040 C   0  0  2  0  0  3  0  0  0  0  0  0
  191.2720  177.5810  143.9840 C   0  0  0  0  0  0  0  0  0  0  0  0
  192.1970  176.8910  144.3260 C   0  0  0  0  0  0  0  0  0  0  0  0
  190.1370  178.3920  143.5360 C   0  0  0  0  0  2  0  0  0  0  0  0
  187.0630  176.9710  146.1890 O   0  0  0  0  0  0  0  0  0  0  0  0
  186.8630  178.2190  143.5380 C   0  0  2  0  0  3  0  0  0  0  0  0
  185.7340  177.9430  145.7210 P   0  0  2  0  0  0  0  0  0  0  0  0
  187.4200  175.7550  143.6000 C   0  0  0  0  0  1  0  0  0  0  0  0
  189.0590  177.4850  142.9400 C   0  0  2  0  0  3  0  0  0  0  0  0
  185.9390  179.3640  146.1930 O   0  0  0  0  0  0  0  0  0  0  0  0
  184.3220  177.3270  146.4120 O   0  0  0  0  0  1  0  0  0  0  0  0
  188.1820  177.3290  145.3990 C   0  0  0  0  0  2  0  0  0  0  0  0
  185.5850  177.9010  144.0200 O   0  0  0  0  0  0  0  0  0  0  0  0
  186.9340  178.3630  142.0380 C   0  0  0  0  0  2  0  0  0  0  0  0
  188.4130  178.1660  141.7230 C   0  0  0  0  0  2  0  0  0  0  0  0
  187.9040  177.1740  143.8940 C   0  0  1  0  0  0  0  0  0  0  0  0
  194.7500  175.9630  146.3980 C   0  0  0  0  0  1  0  0  0  0  0  0
  194.3020  176.7710  145.3480 O   0  0  0  0  0  0  0  0  0  0  0  0
  1  4  1  0  0  0  0
  1 20  1  0  0  0  0
  2  1  2  0  0  0  0
  3  4  2  0  0  0  0
  4 37  1  0  0  0  0
  5  6  2  0  0  0  0
  5  2  1  0  0  0  0
  6  3  1  0  0  0  0
  7  5  1  0  0  0  0
  9 14  2  0  0  0  0
  9 16  1  0  0  0  0
 10 13  2  0  0  0  0
 11  8  1  1  0  0  0
 11  9  1  0  0  0  0
 12 11  1  0  0  0  0
 12 10  1  1  0  0  0
 13 16  1  0  0  0  0
 15 17  1  0  0  0  0
 15  8  2  0  0  0  0
 16  7  1  6  0  0  0
 17 12  1  0  0  0  0
 19 18  1  0  0  0  0
 19 15  1  0  0  0  0
 22 20  1  0  0  0  0
 22 21  2  0  0  0  0
 23 22  1  0  0  0  0
 24 23  2  0  0  0  0
 25 31  1  1  0  0  0
 25 29  1  0  0  0  0
 25 28  1  0  0  0  0
 26 29  2  0  0  0  0
 28 27  1  0  0  0  0
 28 24  1  1  0  0  0
 29 27  1  0  0  0  0
 31 30  1  1  0  0  0
 32 31  1  0  0  0  0
 33 32  2  0  0  0  0
 34 32  2  0  0  0  0
 35 36  1  0  0  0  0
 36 32  1  0  0  0  0
 37 39  1  6  0  0  0
 37 54  1  0  0  0  0
 38 39  3  0  0  0  0
 40 38  1  0  0  0  0
 42 50  1  6  0  0  0
 42 52  1  0  0  0  0
 42 49  1  0  0  0  0
 43 41  1  0  0  0  0
 43 46  2  1  0  0  0
 43 47  1  0  0  0  0
 45 40  1  1  0  0  0
 45 52  1  0  0  0  0
 48 41  1  0  0  0  0
 49 43  1  0  0  0  0
 51 50  1  0  0  0  0
 51 45  1  0  0  0  0
 52 44  1  6  0  0  0
 52 48  1  0  0  0  0
 54 53  1  0  0  0  0
M  END
>  <MODEL>
5

>  <REMARK>
 VINA RESULT:      -6.1      2.022      3.186
  Name = 
  15 active torsions:
  status: ('A' for Active; 'I' for Inactive)
    1  A    between atoms: C_2  and  C_9
    2  A    between atoms: C_7  and  P_23
    3  A    between atoms: C_9  and  C_22
    4  A    between atoms: C_14  and  O_21
    5  A    between atoms: C_17  and  C_37
    6  A    between atoms: C_17  and  C_51
    7  A    between atoms: C_19  and  C_44
    8  A    between atoms: O_21  and  C_35
    9  A    between atoms: P_23  and  S_27
   10  A    between atoms: C_24  and  C_44
   11  A    between atoms: S_27  and  C_36
   12  A    between atoms: C_32  and  C_35
   13  A    between atoms: O_42  and  C_44
   14  A    between atoms: C_43  and  O_45
   15  A    between atoms: C_46  and  C_47
                            x       y       z     vdW  Elec       q    Type
                         _______ _______ _______ _____ _____    ______ ____

>  <TORSDO>
F 15

$$$$
=
 OpenBabel11042417393D

 54 59  0  0  1  0  0  0  0  0999 V2000
  189.7220  174.0300  144.4210 C   0  0  0  0  0  0  0  0  0  0  0  0
  189.0150  175.1250  144.9410 C   0  0  0  0  0  3  0  0  0  0  0  0
  191.5420  174.5440  145.9420 C   0  0  0  0  0  3  0  0  0  0  0  0
  190.9940  173.7280  144.9390 C   0  0  0  0  0  0  0  0  0  0  0  0
  189.5470  175.9100  145.9710 C   0  0  0  0  0  0  0  0  0  0  0  0
  190.8220  175.6230  146.4570 C   0  0  0  0  0  3  0  0  0  0  0  0
  188.8320  177.1240  146.4880 C   0  0  0  0  0  2  0  0  0  0  0  0
  185.9850  178.7450  142.5950 N   0  0  0  0  0  0  0  0  0  0  0  0
  187.5250  178.0550  144.4420 C   0  0  0  0  0  0  0  0  0  0  0  0
  185.0880  177.2720  145.6760 C   0  0  0  0  0  3  0  0  0  0  0  0
  186.2530  178.7330  144.0290 C   0  0  2  0  0  3  0  0  0  0  0  0
  185.0820  177.9820  144.5470 C   0  0  1  0  0  3  0  0  0  0  0  0
  186.3800  177.0740  146.3730 C   0  0  0  0  0  3  0  0  0  0  0  0
  188.5720  178.1600  143.7510 O   0  0  0  0  0  0  0  0  0  0  0  0
  184.7630  178.3430  142.4150 C   0  0  0  0  0  0  0  0  0  0  0  0
  187.5430  177.3960  145.7740 C   0  0  2  0  0  3  0  0  0  0  0  0
  184.1140  177.9130  143.5700 O   0  0  0  0  0  0  0  0  0  0  0  0
  182.7700  178.2940  140.9930 C   0  0  0  0  0  1  0  0  0  0  0  0
  184.1790  178.3050  141.1520 O   0  0  0  0  0  0  0  0  0  0  0  0
  189.2000  173.2370  143.3850 O   0  0  0  0  0  0  0  0  0  0  0  0
  188.4940  174.9340  141.9660 O   0  0  0  0  0  0  0  0  0  0  0  0
  188.5900  173.7000  142.2110 C   0  0  0  0  0  0  0  0  0  0  0  0
  188.0520  172.7030  141.2680 C   0  0  0  0  0  3  0  0  0  0  0  0
  188.2490  172.6760  139.9460 C   0  0  0  0  0  3  0  0  0  0  0  0
  189.9920  173.1850  138.1920 C   0  0  2  0  0  3  0  0  0  0  0  0
  189.2570  174.0330  135.9010 O   0  0  0  0  0  0  0  0  0  0  0  0
  188.2380  174.3460  138.1950 N   0  0  0  0  0  2  0  0  0  0  0  0
  189.0600  173.6890  139.1860 C   0  0  1  0  0  3  0  0  0  0  0  0
  189.1760  173.8840  137.1490 C   0  0  0  0  0  0  0  0  0  0  0  0
  190.9600  170.9150  139.2560 O   0  0  0  0  0  1  0  0  0  0  0  0
  189.9960  171.3320  137.8760 P   0  0  2  0  0  0  0  0  0  0  0  0
  191.6150  171.3060  136.5020 S   0  0  0  0  0  0  0  0  0  0  0  0
  192.1980  172.6860  136.3830 O   0  0  0  0  0  0  0  0  0  0  0  0
  192.6760  170.3640  137.0030 O   0  0  0  0  0  0  0  0  0  0  0  0
  191.5620  169.3720  134.6130 C   0  0  0  0  0  1  0  0  0  0  0  0
  191.0540  170.7710  134.8990 C   0  0  0  0  0  2  0  0  0  0  0  0
  191.8000  172.6090  144.3310 C   0  0  2  0  0  3  0  0  0  0  0  0
  194.3170  172.5050  145.2310 C   0  0  0  0  0  0  0  0  0  0  0  0
  193.1800  172.5700  144.8380 C   0  0  0  0  0  0  0  0  0  0  0  0
  195.7070  172.3950  145.6780 C   0  0  0  0  0  2  0  0  0  0  0  0
  196.8600  173.5050  141.6840 O   0  0  0  0  0  0  0  0  0  0  0  0
  195.4250  175.0280  143.7440 C   0  0  2  0  0  3  0  0  0  0  0  0
  195.6850  174.6910  141.3080 P   0  0  2  0  0  0  0  0  0  0  0  0
  197.9410  174.9190  143.9510 C   0  0  0  0  0  1  0  0  0  0  0  0
  196.4150  173.7390  145.4980 C   0  0  2  0  0  3  0  0  0  0  0  0
  194.3400  174.0370  141.0880 O   0  0  0  0  0  1  0  0  0  0  0  0
  196.1430  175.5050  139.9010 O   0  0  0  0  0  0  0  0  0  0  0  0
  196.6090  173.0220  142.9910 C   0  0  0  0  0  2  0  0  0  0  0  0
  195.5930  175.8120  142.5940 O   0  0  0  0  0  0  0  0  0  0  0  0
  195.1930  175.8280  145.0030 C   0  0  0  0  0  2  0  0  0  0  0  0
  195.5710  174.8630  146.1220 C   0  0  0  0  0  2  0  0  0  0  0  0
  196.6240  174.1480  144.0390 C   0  0  1  0  0  0  0  0  0  0  0  0
  192.1240  171.4650  142.4580 C   0  0  0  0  0  1  0  0  0  0  0  0
  191.8150  172.7410  142.9410 O   0  0  0  0  0  0  0  0  0  0  0  0
  1  4  2  0  0  0  0
  1  2  1  0  0  0  0
  2  5  2  0  0  0  0
  3  6  2  0  0  0  0
  4  3  1  0  0  0  0
  5  6  1  0  0  0  0
  5  7  1  0  0  0  0
  9 16  1  0  0  0  0
 10 13  2  0  0  0  0
 11  8  1  6  0  0  0
 11  9  1  0  0  0  0
 11 12  1  0  0  0  0
 12 10  1  6  0  0  0
 14  9  2  0  0  0  0
 15  8  2  0  0  0  0
 15 17  1  0  0  0  0
 16 13  1  0  0  0  0
 16  7  1  1  0  0  0
 17 12  1  0  0  0  0
 18 19  1  0  0  0  0
 19 15  1  0  0  0  0
 20  1  1  0  0  0  0
 21 22  2  0  0  0  0
 22 20  1  0  0  0  0
 23 22  1  0  0  0  0
 24 23  2  0  0  0  0
 25 31  1  6  0  0  0
 25 28  1  0  0  0  0
 26 29  2  0  0  0  0
 27 28  1  0  0  0  0
 28 24  1  6  0  0  0
 29 25  1  0  0  0  0
 29 27  1  0  0  0  0
 31 30  1  1  0  0  0
 32 34  2  0  0  0  0
 32 31  1  0  0  0  0
 33 32  2  0  0  0  0
 35 36  1  0  0  0  0
 36 32  1  0  0  0  0
 37 39  1  1  0  0  0
 37  4  1  0  0  0  0
 38 40  1  0  0  0  0
 39 38  3  0  0  0  0
 41 48  1  0  0  0  0
 42 52  1  0  0  0  0
 42 50  1  1  0  0  0
 43 47  2  6  0  0  0
 43 41  1  0  0  0  0
 43 49  1  0  0  0  0
 45 40  1  6  0  0  0
 45 51  1  0  0  0  0
 46 43  1  0  0  0  0
 48 52  1  0  0  0  0
 49 42  1  0  0  0  0
 50 51  1  0  0  0  0
 52 44  1  6  0  0  0
 52 45  1  0  0  0  0
 53 54  1  0  0  0  0
 54 37  1  0  0  0  0
M  END
>  <MODEL>
6

>  <REMARK>
 VINA RESULT:      -5.9      3.186      8.622
  Name = 
  15 active torsions:
  status: ('A' for Active; 'I' for Inactive)
    1  A    between atoms: C_2  and  C_9
    2  A    between atoms: C_7  and  P_23
    3  A    between atoms: C_9  and  C_22
    4  A    between atoms: C_14  and  O_21
    5  A    between atoms: C_17  and  C_37
    6  A    between atoms: C_17  and  C_51
    7  A    between atoms: C_19  and  C_44
    8  A    between atoms: O_21  and  C_35
    9  A    between atoms: P_23  and  S_27
   10  A    between atoms: C_24  and  C_44
   11  A    between atoms: S_27  and  C_36
   12  A    between atoms: C_32  and  C_35
   13  A    between atoms: O_42  and  C_44
   14  A    between atoms: C_43  and  O_45
   15  A    between atoms: C_46  and  C_47
                            x       y       z     vdW  Elec       q    Type
                         _______ _______ _______ _____ _____    ______ ____

>  <TORSDO>
F 15

$$$$
=
 OpenBabel11042417393D

 54 59  0  0  1  0  0  0  0  0999 V2000
  189.5840  175.4160  144.4060 C   0  0  0  0  0  0  0  0  0  0  0  0
  189.2430  174.6020  143.3150 C   0  0  0  0  0  3  0  0  0  0  0  0
  189.6880  173.4270  145.7950 C   0  0  0  0  0  3  0  0  0  0  0  0
  189.8240  174.8180  145.6560 C   0  0  0  0  0  0  0  0  0  0  0  0
  189.1500  173.2110  143.4470 C   0  0  0  0  0  0  0  0  0  0  0  0
  189.3580  172.6310  144.6970 C   0  0  0  0  0  3  0  0  0  0  0  0
  188.7190  172.3380  142.3060 C   0  0  0  0  0  2  0  0  0  0  0  0
  192.5750  172.5930  138.9960 N   0  0  0  0  0  0  0  0  0  0  0  0
  190.8070  172.4430  140.7600 C   0  0  0  0  0  0  0  0  0  0  0  0
  189.2170  173.6530  138.7400 C   0  0  0  0  0  3  0  0  0  0  0  0
  191.4820  173.2580  139.6970 C   0  0  2  0  0  3  0  0  0  0  0  0
  190.5360  173.5330  138.5860 C   0  0  1  0  0  3  0  0  0  0  0  0
  188.6310  173.3250  140.0600 C   0  0  0  0  0  3  0  0  0  0  0  0
  191.4670  171.6720  141.5050 O   0  0  0  0  0  0  0  0  0  0  0  0
  192.3850  172.7510  137.7200 C   0  0  0  0  0  0  0  0  0  0  0  0
  189.3650  172.7070  141.0050 C   0  0  2  0  0  3  0  0  0  0  0  0
  191.1860  173.3730  137.3830 O   0  0  0  0  0  0  0  0  0  0  0  0
  192.9300  171.3000  135.8260 C   0  0  0  0  0  1  0  0  0  0  0  0
  193.2960  172.2850  136.7770 O   0  0  0  0  0  0  0  0  0  0  0  0
  189.6770  176.8130  144.2870 O   0  0  0  0  0  0  0  0  0  0  0  0
  190.2160  178.0720  142.4120 O   0  0  0  0  0  0  0  0  0  0  0  0
  190.5840  177.5190  143.4840 C   0  0  0  0  0  0  0  0  0  0  0  0
  191.9890  177.5930  143.9240 C   0  0  0  0  0  3  0  0  0  0  0  0
  192.9640  176.7340  143.6070 C   0  0  0  0  0  3  0  0  0  0  0  0
  193.9530  175.0050  142.0560 C   0  0  2  0  0  3  0  0  0  0  0  0
  194.4260  172.6570  142.9330 O   0  0  0  0  0  0  0  0  0  0  0  0
  192.6410  174.3370  143.5580 N   0  0  0  0  0  2  0  0  0  0  0  0
  192.7790  175.5200  142.7390 C   0  0  1  0  0  3  0  0  0  0  0  0
  193.8130  173.7550  142.8690 C   0  0  0  0  0  0  0  0  0  0  0  0
  195.4240  177.1100  141.2620 O   0  0  0  0  0  1  0  0  0  0  0  0
  195.5980  175.8360  142.4260 P   0  0  2  0  0  0  0  0  0  0  0  0
  196.7980  174.6060  141.1780 S   0  0  0  0  0  0  0  0  0  0  0  0
  197.9300  175.4150  140.6100 O   0  0  0  0  0  0  0  0  0  0  0  0
  197.3610  173.4730  141.9910 O   0  0  0  0  0  0  0  0  0  0  0  0
  196.1790  172.4950  139.6060 C   0  0  0  0  0  1  0  0  0  0  0  0
  195.8240  173.9500  139.8400 C   0  0  0  0  0  2  0  0  0  0  0  0
  190.1050  175.6870  146.8560 C   0  0  2  0  0  3  0  0  0  0  0  0
  188.3220  177.6690  147.0800 C   0  0  0  0  0  0  0  0  0  0  0  0
  189.1390  176.7880  146.9920 C   0  0  0  0  0  0  0  0  0  0  0  0
  187.3010  178.7140  147.1650 C   0  0  0  0  0  2  0  0  0  0  0  0
  185.3410  179.9380  143.5350 O   0  0  0  0  0  0  0  0  0  0  0  0
  185.7930  177.2560  144.6440 C   0  0  2  0  0  3  0  0  0  0  0  0
  185.5510  178.5510  142.5520 P   0  0  2  0  0  0  0  0  0  0  0  0
  183.8570  178.5730  145.5950 C   0  0  0  0  0  1  0  0  0  0  0  0
  185.9240  178.1140  146.8720 C   0  0  2  0  0  3  0  0  0  0  0  0
  186.9940  178.4360  142.1190 O   0  0  0  0  0  1  0  0  0  0  0  0
  184.5700  178.6850  141.1840 O   0  0  0  0  0  0  0  0  0  0  0  0
  185.9510  179.6950  144.7890 C   0  0  0  0  0  2  0  0  0  0  0  0
  185.0860  177.1660  143.4360 O   0  0  0  0  0  0  0  0  0  0  0  0
  185.6280  176.0550  145.5420 C   0  0  0  0  0  2  0  0  0  0  0  0
  185.9980  176.5800  146.9250 C   0  0  0  0  0  2  0  0  0  0  0  0
  185.3760  178.4490  145.4830 C   0  0  1  0  0  0  0  0  0  0  0  0
  192.1370  175.5080  147.7290 C   0  0  0  0  0  1  0  0  0  0  0  0
  191.3980  176.2070  146.7680 O   0  0  0  0  0  0  0  0  0  0  0  0
  1  4  1  0  0  0  0
  2  5  1  0  0  0  0
  2  1  2  0  0  0  0
  4  3  2  0  0  0  0
  4 37  1  0  0  0  0
  5  6  2  0  0  0  0
  6  3  1  0  0  0  0
  7  5  1  0  0  0  0
  9 16  1  0  0  0  0
  9 14  2  0  0  0  0
 10 13  2  0  0  0  0
 11  8  1  6  0  0  0
 11  9  1  0  0  0  0
 12 10  1  6  0  0  0
 12 11  1  0  0  0  0
 13 16  1  0  0  0  0
 15  8  2  0  0  0  0
 16  7  1  1  0  0  0
 17 15  1  0  0  0  0
 17 12  1  0  0  0  0
 18 19  1  0  0  0  0
 19 15  1  0  0  0  0
 20  1  1  0  0  0  0
 21 22  2  0  0  0  0
 22 23  1  0  0  0  0
 22 20  1  0  0  0  0
 24 23  2  0  0  0  0
 25 31  1  1  0  0  0
 25 28  1  0  0  0  0
 25 29  1  0  0  0  0
 28 27  1  0  0  0  0
 28 24  1  1  0  0  0
 29 26  2  0  0  0  0
 29 27  1  0  0  0  0
 31 30  1  6  0  0  0
 32 34  2  0  0  0  0
 32 31  1  0  0  0  0
 33 32  2  0  0  0  0
 35 36  1  0  0  0  0
 36 32  1  0  0  0  0
 37 39  1  6  0  0  0
 38 40  1  0  0  0  0
 39 38  3  0  0  0  0
 41 48  1  0  0  0  0
 42 52  1  0  0  0  0
 42 50  1  1  0  0  0
 43 47  2  6  0  0  0
 43 49  1  0  0  0  0
 43 41  1  0  0  0  0
 45 51  1  0  0  0  0
 45 40  1  6  0  0  0
 46 43  1  0  0  0  0
 48 52  1  0  0  0  0
 49 42  1  0  0  0  0
 50 51  1  0  0  0  0
 52 44  1  1  0  0  0
 52 45  1  0  0  0  0
 54 37  1  0  0  0  0
 54 53  1  0  0  0  0
M  END
>  <MODEL>
7

>  <REMARK>
 VINA RESULT:      -5.8      2.663      5.297
  Name = 
  15 active torsions:
  status: ('A' for Active; 'I' for Inactive)
    1  A    between atoms: C_2  and  C_9
    2  A    between atoms: C_7  and  P_23
    3  A    between atoms: C_9  and  C_22
    4  A    between atoms: C_14  and  O_21
    5  A    between atoms: C_17  and  C_37
    6  A    between atoms: C_17  and  C_51
    7  A    between atoms: C_19  and  C_44
    8  A    between atoms: O_21  and  C_35
    9  A    between atoms: P_23  and  S_27
   10  A    between atoms: C_24  and  C_44
   11  A    between atoms: S_27  and  C_36
   12  A    between atoms: C_32  and  C_35
   13  A    between atoms: O_42  and  C_44
   14  A    between atoms: C_43  and  O_45
   15  A    between atoms: C_46  and  C_47
                            x       y       z     vdW  Elec       q    Type
                         _______ _______ _______ _____ _____    ______ ____

>  <TORSDO>
F 15

$$$$
=
 OpenBabel11042417393D

 54 59  0  0  1  0  0  0  0  0999 V2000
  190.1220  173.9300  144.1150 C   0  0  0  0  0  0  0  0  0  0  0  0
  189.5810  173.1110  143.1130 C   0  0  0  0  0  3  0  0  0  0  0  0
  188.6380  175.7110  143.3940 C   0  0  0  0  0  3  0  0  0  0  0  0
  189.6330  175.2400  144.2660 C   0  0  0  0  0  0  0  0  0  0  0  0
  188.5580  173.5700  142.2730 C   0  0  0  0  0  0  0  0  0  0  0  0
  188.1020  174.8800  142.4090 C   0  0  0  0  0  3  0  0  0  0  0  0
  188.0200  172.7280  141.1530 C   0  0  0  0  0  2  0  0  0  0  0  0
  191.5650  171.9790  137.5810 N   0  0  0  0  0  0  0  0  0  0  0  0
  189.9380  172.2650  139.4610 C   0  0  0  0  0  0  0  0  0  0  0  0
  188.7970  174.1690  137.6870 C   0  0  0  0  0  3  0  0  0  0  0  0
  190.8120  172.9040  138.4220 C   0  0  2  0  0  3  0  0  0  0  0  0
  189.9790  173.6120  137.4190 C   0  0  1  0  0  3  0  0  0  0  0  0
  188.1910  173.9240  139.0160 C   0  0  0  0  0  3  0  0  0  0  0  0
  190.3120  171.2360  140.0810 O   0  0  0  0  0  0  0  0  0  0  0  0
  191.3880  172.3330  136.3440 C   0  0  0  0  0  0  0  0  0  0  0  0
  188.6970  172.9880  139.8430 C   0  0  2  0  0  3  0  0  0  0  0  0
  190.4760  173.3680  136.1580 O   0  0  0  0  0  0  0  0  0  0  0  0
  192.9440  170.6270  135.5320 C   0  0  0  0  0  1  0  0  0  0  0  0
  192.0310  171.6840  135.2930 O   0  0  0  0  0  0  0  0  0  0  0  0
  191.1500  173.4820  144.9610 O   0  0  0  0  0  0  0  0  0  0  0  0
  192.2930  171.4970  144.5760 O   0  0  0  0  0  0  0  0  0  0  0  0
  192.2880  172.7590  144.5760 C   0  0  0  0  0  0  0  0  0  0  0  0
  193.4880  173.5150  144.1750 C   0  0  0  0  0  3  0  0  0  0  0  0
  193.9100  173.7260  142.9240 C   0  0  0  0  0  3  0  0  0  0  0  0
  193.8530  173.4640  140.4130 C   0  0  2  0  0  3  0  0  0  0  0  0
  194.5010  171.2290  139.3690 O   0  0  0  0  0  0  0  0  0  0  0  0
  193.4070  171.7750  141.5830 N   0  0  0  0  0  2  0  0  0  0  0  0
  193.2190  173.2040  141.6930 C   0  0  1  0  0  3  0  0  0  0  0  0
  194.0310  171.9850  140.2590 C   0  0  0  0  0  0  0  0  0  0  0  0
  194.9070  175.9350  140.5230 O   0  0  0  0  0  1  0  0  0  0  0  0
  195.5280  174.3180  140.4390 P   0  0  2  0  0  0  0  0  0  0  0  0
  195.8380  174.3460  138.3380 S   0  0  0  0  0  0  0  0  0  0  0  0
  196.5060  175.6330  137.9440 O   0  0  0  0  0  0  0  0  0  0  0  0
  196.7220  173.1930  137.9510 O   0  0  0  0  0  0  0  0  0  0  0  0
  193.7470  175.5970  137.1650 C   0  0  0  0  0  1  0  0  0  0  0  0
  194.2810  174.2150  137.4840 C   0  0  0  0  0  2  0  0  0  0  0  0
  190.2650  176.1580  145.2810 C   0  0  2  0  0  3  0  0  0  0  0  0
  188.4990  177.7350  146.5270 C   0  0  0  0  0  0  0  0  0  0  0  0
  189.2770  177.0130  145.9580 C   0  0  0  0  0  0  0  0  0  0  0  0
  187.5860  178.6400  147.2290 C   0  0  0  0  0  2  0  0  0  0  0  0
  185.2140  179.9110  143.8720 O   0  0  0  0  0  0  0  0  0  0  0  0
  185.6850  177.2250  144.9620 C   0  0  2  0  0  3  0  0  0  0  0  0
  185.2240  178.5040  142.8970 P   0  0  2  0  0  0  0  0  0  0  0  0
  183.9590  178.6470  146.1380 C   0  0  0  0  0  1  0  0  0  0  0  0
  186.1560  178.1040  147.1350 C   0  0  2  0  0  3  0  0  0  0  0  0
  186.5880  178.3130  142.2760 O   0  0  0  0  0  1  0  0  0  0  0  0
  184.0740  178.6680  141.6700 O   0  0  0  0  0  0  0  0  0  0  0  0
  185.9760  179.6550  145.0370 C   0  0  0  0  0  2  0  0  0  0  0  0
  184.8190  177.1550  143.8620 O   0  0  0  0  0  0  0  0  0  0  0  0
  185.5870  176.0450  145.8960 C   0  0  0  0  0  2  0  0  0  0  0  0
  186.1650  176.5680  147.2070 C   0  0  0  0  0  2  0  0  0  0  0  0
  185.4420  178.4480  145.8270 C   0  0  1  0  0  0  0  0  0  0  0  0
  192.3870  176.7900  145.4240 C   0  0  0  0  0  1  0  0  0  0  0  0
  191.2270  176.9560  144.6600 O   0  0  0  0  0  0  0  0  0  0  0  0
  1  4  1  0  0  0  0
  1 20  1  0  0  0  0
  2  1  2  0  0  0  0
  3  4  2  0  0  0  0
  4 37  1  0  0  0  0
  5  6  2  0  0  0  0
  5  2  1  0  0  0  0
  6  3  1  0  0  0  0
  7  5  1  0  0  0  0
  9 16  1  0  0  0  0
  9 14  2  0  0  0  0
 10 13  2  0  0  0  0
 11  8  1  6  0  0  0
 11  9  1  0  0  0  0
 12 10  1  6  0  0  0
 12 11  1  0  0  0  0
 13 16  1  0  0  0  0
 15  8  2  0  0  0  0
 16  7  1  1  0  0  0
 17 15  1  0  0  0  0
 17 12  1  0  0  0  0
 19 18  1  0  0  0  0
 19 15  1  0  0  0  0
 22 21  2  0  0  0  0
 22 20  1  0  0  0  0
 23 22  1  0  0  0  0
 24 23  2  0  0  0  0
 25 31  1  1  0  0  0
 25 28  1  0  0  0  0
 26 29  2  0  0  0  0
 27 28  1  0  0  0  0
 28 24  1  1  0  0  0
 29 25  1  0  0  0  0
 29 27  1  0  0  0  0
 31 30  1  6  0  0  0
 32 31  1  0  0  0  0
 33 32  2  0  0  0  0
 34 32  2  0  0  0  0
 35 36  1  0  0  0  0
 36 32  1  0  0  0  0
 37 39  1  6  0  0  0
 38 40  1  0  0  0  0
 39 38  3  0  0  0  0
 41 48  1  0  0  0  0
 42 52  1  0  0  0  0
 42 50  1  1  0  0  0
 43 47  2  6  0  0  0
 43 49  1  0  0  0  0
 43 41  1  0  0  0  0
 45 51  1  0  0  0  0
 45 40  1  6  0  0  0
 46 43  1  0  0  0  0
 48 52  1  0  0  0  0
 49 42  1  0  0  0  0
 50 51  1  0  0  0  0
 52 44  1  1  0  0  0
 52 45  1  0  0  0  0
 54 37  1  0  0  0  0
 54 53  1  0  0  0  0
M  END
>  <MODEL>
8

>  <REMARK>
 VINA RESULT:      -5.8      2.358      4.639
  Name = 
  15 active torsions:
  status: ('A' for Active; 'I' for Inactive)
    1  A    between atoms: C_2  and  C_9
    2  A    between atoms: C_7  and  P_23
    3  A    between atoms: C_9  and  C_22
    4  A    between atoms: C_14  and  O_21
    5  A    between atoms: C_17  and  C_37
    6  A    between atoms: C_17  and  C_51
    7  A    between atoms: C_19  and  C_44
    8  A    between atoms: O_21  and  C_35
    9  A    between atoms: P_23  and  S_27
   10  A    between atoms: C_24  and  C_44
   11  A    between atoms: S_27  and  C_36
   12  A    between atoms: C_32  and  C_35
   13  A    between atoms: O_42  and  C_44
   14  A    between atoms: C_43  and  O_45
   15  A    between atoms: C_46  and  C_47
                            x       y       z     vdW  Elec       q    Type
                         _______ _______ _______ _____ _____    ______ ____

>  <TORSDO>
F 15

$$$$
=
 OpenBabel11042417393D

 54 59  0  0  1  0  0  0  0  0999 V2000
  189.8840  175.3220  143.7770 C   0  0  0  0  0  0  0  0  0  0  0  0
  191.0960  175.6040  144.4230 C   0  0  0  0  0  3  0  0  0  0  0  0
  190.1560  177.3590  142.4830 C   0  0  0  0  0  3  0  0  0  0  0  0
  189.4160  176.2030  142.7850 C   0  0  0  0  0  0  0  0  0  0  0  0
  191.8520  176.7350  144.0900 C   0  0  0  0  0  0  0  0  0  0  0  0
  191.3660  177.6190  143.1280 C   0  0  0  0  0  3  0  0  0  0  0  0
  193.1150  177.0840  144.8210 C   0  0  0  0  0  2  0  0  0  0  0  0
  196.5640  173.5310  145.9910 N   0  0  0  0  0  0  0  0  0  0  0  0
  194.8580  175.3190  145.5990 C   0  0  0  0  0  0  0  0  0  0  0  0
  195.8130  175.1250  142.9310 C   0  0  0  0  0  3  0  0  0  0  0  0
  196.2490  174.8100  145.3620 C   0  0  2  0  0  3  0  0  0  0  0  0
  196.4380  174.4930  143.9240 C   0  0  1  0  0  3  0  0  0  0  0  0
  194.7370  176.0820  143.2750 C   0  0  0  0  0  3  0  0  0  0  0  0
  194.2930  175.1700  146.7140 O   0  0  0  0  0  0  0  0  0  0  0  0
  197.1070  172.7680  145.0890 C   0  0  0  0  0  0  0  0  0  0  0  0
  194.2440  176.1450  144.5270 C   0  0  2  0  0  3  0  0  0  0  0  0
  197.1250  173.3050  143.8050 O   0  0  0  0  0  0  0  0  0  0  0  0
  196.7990  170.5740  146.1310 C   0  0  0  0  0  1  0  0  0  0  0  0
  197.5830  171.4950  145.3920 O   0  0  0  0  0  0  0  0  0  0  0  0
  189.1150  174.1930  144.1050 O   0  0  0  0  0  0  0  0  0  0  0  0
  189.8280  172.1810  145.0190 O   0  0  0  0  0  0  0  0  0  0  0  0
  189.5190  172.8540  143.9990 C   0  0  0  0  0  0  0  0  0  0  0  0
  189.5800  172.2530  142.6540 C   0  0  0  0  0  3  0  0  0  0  0  0
  190.6370  172.2490  141.8360 C   0  0  0  0  0  3  0  0  0  0  0  0
  193.1380  172.0300  142.1040 C   0  0  2  0  0  3  0  0  0  0  0  0
  194.6780  172.8980  140.2650 O   0  0  0  0  0  0  0  0  0  0  0  0
  192.4090  173.6960  141.0480 N   0  0  0  0  0  2  0  0  0  0  0  0
  191.9640  172.8820  142.1560 C   0  0  1  0  0  3  0  0  0  0  0  0
  193.6390  172.8770  140.9750 C   0  0  0  0  0  0  0  0  0  0  0  0
  192.3170  169.6480  143.0410 O   0  0  0  0  0  1  0  0  0  0  0  0
  192.8920  170.2590  141.5230 P   0  0  2  0  0  0  0  0  0  0  0  0
  194.8940  169.6110  141.8080 S   0  0  0  0  0  0  0  0  0  0  0  0
  195.5970  170.5440  142.7530 O   0  0  0  0  0  0  0  0  0  0  0  0
  194.8890  168.2260  142.3950 O   0  0  0  0  0  0  0  0  0  0  0  0
  194.7820  169.4120  139.1130 C   0  0  0  0  0  1  0  0  0  0  0  0
  195.7640  169.5940  140.2540 C   0  0  0  0  0  2  0  0  0  0  0  0
  188.0740  175.9590  142.1440 C   0  0  2  0  0  3  0  0  0  0  0  0
  188.2730  174.4730  139.9290 C   0  0  0  0  0  0  0  0  0  0  0  0
  188.1750  175.1580  140.9140 C   0  0  0  0  0  0  0  0  0  0  0  0
  188.4040  173.6040  138.7570 C   0  0  0  0  0  2  0  0  0  0  0  0
  191.8790  171.1530  138.1060 O   0  0  0  0  0  0  0  0  0  0  0  0
  190.1410  172.5400  136.1880 C   0  0  2  0  0  3  0  0  0  0  0  0
  191.5880  170.5630  136.5250 P   0  0  2  0  0  0  0  0  0  0  0  0
  191.9030  173.9330  137.3460 C   0  0  0  0  0  1  0  0  0  0  0  0
  189.4880  174.1540  137.8270 C   0  0  2  0  0  3  0  0  0  0  0  0
  190.4710  169.5450  136.5490 O   0  0  0  0  0  1  0  0  0  0  0  0
  192.9920  169.8340  135.9350 O   0  0  0  0  0  0  0  0  0  0  0  0
  190.7980  171.9870  138.4800 C   0  0  0  0  0  2  0  0  0  0  0  0
  191.1720  171.8720  135.5100 O   0  0  0  0  0  0  0  0  0  0  0  0
  189.5270  173.6740  135.4040 C   0  0  0  0  0  2  0  0  0  0  0  0
  188.8710  174.5420  136.4730 C   0  0  0  0  0  2  0  0  0  0  0  0
  190.5970  173.1530  137.4980 C   0  0  1  0  0  0  0  0  0  0  0  0
  186.1680  177.0680  142.3870 C   0  0  0  0  0  1  0  0  0  0  0  0
  187.4580  177.1790  141.8600 O   0  0  0  0  0  0  0  0  0  0  0  0
  1 20  1  0  0  0  0
  1  2  1  0  0  0  0
  3  4  1  0  0  0  0
  3  6  2  0  0  0  0
  4  1  2  0  0  0  0
  5  2  2  0  0  0  0
  5  7  1  0  0  0  0
  6  5  1  0  0  0  0
  9 14  2  0  0  0  0
 10 13  2  0  0  0  0
 11  9  1  6  0  0  0
 11  8  1  0  0  0  0
 12 10  1  6  0  0  0
 12 11  1  0  0  0  0
 13 16  1  0  0  0  0
 15 19  1  0  0  0  0
 15  8  2  0  0  0  0
 16  7  1  1  0  0  0
 16  9  1  0  0  0  0
 17 12  1  0  0  0  0
 17 15  1  0  0  0  0
 19 18  1  0  0  0  0
 22 20  1  0  0  0  0
 22 21  2  0  0  0  0
 23 22  1  0  0  0  0
 24 23  2  0  0  0  0
 25 31  1  6  0  0  0
 25 28  1  0  0  0  0
 26 29  2  0  0  0  0
 27 28  1  0  0  0  0
 28 24  1  6  0  0  0
 29 27  1  0  0  0  0
 29 25  1  0  0  0  0
 31 32  1  0  0  0  0
 31 30  1  1  0  0  0
 32 34  2  0  0  0  0
 32 33  2  0  0  0  0
 35 36  1  0  0  0  0
 36 32  1  0  0  0  0
 37 39  1  6  0  0  0
 37  4  1  0  0  0  0
 38 39  3  0  0  0  0
 40 38  1  0  0  0  0
 41 48  1  0  0  0  0
 42 50  1  6  0  0  0
 42 52  1  0  0  0  0
 43 47  2  6  0  0  0
 43 46  1  0  0  0  0
 43 41  1  0  0  0  0
 45 40  1  1  0  0  0
 49 42  1  0  0  0  0
 49 43  1  0  0  0  0
 50 51  1  0  0  0  0
 51 45  1  0  0  0  0
 52 44  1  6  0  0  0
 52 45  1  0  0  0  0
 52 48  1  0  0  0  0
 54 37  1  0  0  0  0
 54 53  1  0  0  0  0
M  END
>  <MODEL>
9

>  <REMARK>
 VINA RESULT:      -5.7      3.012      7.828
  Name = 
  15 active torsions:
  status: ('A' for Active; 'I' for Inactive)
    1  A    between atoms: C_2  and  C_9
    2  A    between atoms: C_7  and  P_23
    3  A    between atoms: C_9  and  C_22
    4  A    between atoms: C_14  and  O_21
    5  A    between atoms: C_17  and  C_37
    6  A    between atoms: C_17  and  C_51
    7  A    between atoms: C_19  and  C_44
    8  A    between atoms: O_21  and  C_35
    9  A    between atoms: P_23  and  S_27
   10  A    between atoms: C_24  and  C_44
   11  A    between atoms: S_27  and  C_36
   12  A    between atoms: C_32  and  C_35
   13  A    between atoms: O_42  and  C_44
   14  A    between atoms: C_43  and  O_45
   15  A    between atoms: C_46  and  C_47
                            x       y       z     vdW  Elec       q    Type
                         _______ _______ _______ _____ _____    ______ ____

>  <TORSDO>
F 15

$$$$
