=
 OpenBabel11042418353D

 37 43  0  0  1  0  0  0  0  0999 V2000
  189.7950  174.7510  146.3020 C   0  0  0  0  0  2  0  0  0  0  0  0
  185.1830  178.5790  146.4020 C   0  0  0  0  0  2  0  0  0  0  0  0
  187.3160  176.7770  142.7720 C   0  0  0  0  0  0  0  0  0  0  0  0
  190.9140  175.3400  147.1810 C   0  0  1  0  0  3  0  0  0  0  0  0
  189.8110  173.9140  142.5680 O   0  0  0  0  0  0  0  0  0  0  0  0
  186.1630  178.5370  144.0840 C   0  0  0  0  0  0  0  0  0  0  0  0
  188.3750  175.7900  142.9740 C   0  0  0  0  0  0  0  0  0  0  0  0
  187.0700  177.3790  143.9840 C   0  0  0  0  0  0  0  0  0  0  0  0
  188.9150  174.8660  142.0700 C   0  0  0  0  0  0  0  0  0  0  0  0
  185.6080  178.9910  143.0010 N   0  0  0  0  0  0  0  0  0  0  0  0
  192.1190  175.8750  146.3860 C   0  0  0  0  0  2  0  0  0  0  0  0
  187.9300  176.8510  144.9370 C   0  0  0  0  0  0  0  0  0  0  0  0
  186.9080  176.9510  147.1780 C   0  0  0  0  0  2  0  0  0  0  0  0
  186.9060  176.6590  140.3600 C   0  0  0  0  0  3  0  0  0  0  0  0
  185.7290  178.3720  141.6710 C   0  0  0  0  0  2  0  0  0  0  0  0
  188.1010  177.3470  146.3320 C   0  0  0  0  0  2  0  0  0  0  0  0
  192.3610  175.0870  145.1040 C   0  0  2  0  0  3  0  0  0  0  0  0
  191.1230  174.2390  143.0130 C   0  0  0  0  0  2  0  0  0  0  0  0
  186.7050  177.2190  141.6080 C   0  0  0  0  0  0  0  0  0  0  0  0
  188.7150  175.8810  144.3240 C   0  0  0  0  0  0  0  0  0  0  0  0
  185.9240  179.2110  145.3210 N   0  0  0  0  0  2  0  0  0  0  0  0
  188.5840  174.7760  140.7050 C   0  0  0  0  0  0  0  0  0  0  0  0
  186.1090  178.1890  147.5400 C   0  0  0  0  0  2  0  0  0  0  0  0
  191.1280  175.2270  144.1840 C   0  0  1  0  0  3  0  0  0  0  0  0
  189.8590  175.2480  144.9250 N   0  0  0  0  0  0  0  0  0  0  0  0
  187.7120  175.5940  139.9820 C   0  0  0  0  0  3  0  0  0  0  0  0
  188.5360  172.5920  139.5130 C   0  0  0  0  0  3  0  0  0  0  0  0
  189.2450  173.7400  139.8990 C   0  0  0  0  0  0  0  0  0  0  0  0
  190.5870  173.8880  139.5280 C   0  0  0  0  0  3  0  0  0  0  0  0
  192.5460  173.0410  138.4100 O   0  0  0  0  0  1  0  0  0  0  0  0
  190.5090  171.7500  138.3930 C   0  0  0  0  0  3  0  0  0  0  0  0
  191.2170  172.8940  138.7750 C   0  0  0  0  0  0  0  0  0  0  0  0
  189.1680  171.5990  138.7620 C   0  0  0  0  0  3  0  0  0  0  0  0
  192.7270  173.6370  145.4290 C   0  0  0  0  0  2  0  0  0  0  0  0
  194.0620  173.5560  145.8190 O   0  0  0  0  0  1  0  0  0  0  0  0
  191.5170  177.0990  148.3830 C   0  0  0  0  0  1  0  0  0  0  0  0
  190.4030  176.3480  147.9970 O   0  0  0  0  0  0  0  0  0  0  0  0
  1  4  1  0  0  0  0
  2 23  1  0  0  0  0
  3  7  1  0  0  0  0
  3  8  2  0  0  0  0
  4 37  1  6  0  0  0
  5 18  1  0  0  0  0
  6 21  1  0  0  0  0
  7 20  1  0  0  0  0
  8  6  1  0  0  0  0
  8 12  1  0  0  0  0
  9  5  1  0  0  0  0
  9  7  2  0  0  0  0
 10  6  2  0  0  0  0
 11  4  1  0  0  0  0
 12 16  1  0  0  0  0
 13 23  1  0  0  0  0
 14 19  2  0  0  0  0
 15 10  1  0  0  0  0
 16 13  1  0  0  0  0
 17 34  1  1  0  0  0
 17 11  1  0  0  0  0
 19 15  1  0  0  0  0
 19  3  1  0  0  0  0
 20 25  1  0  0  0  0
 20 12  2  0  0  0  0
 21  2  1  0  0  0  0
 22  9  1  0  0  0  0
 24 18  1  6  0  0  0
 24 25  1  0  0  0  0
 24 17  1  0  0  0  0
 25  1  1  0  0  0  0
 26 14  1  0  0  0  0
 26 22  2  0  0  0  0
 27 28  1  0  0  0  0
 28 22  1  0  0  0  0
 29 28  2  0  0  0  0
 30 32  1  0  0  0  0
 31 33  1  0  0  0  0
 31 32  2  0  0  0  0
 32 29  1  0  0  0  0
 33 27  2  0  0  0  0
 34 35  1  0  0  0  0
 37 36  1  0  0  0  0
M  END
>  <MODEL>
1

>  <REMARK>
 VINA RESULT:      -8.7      0.000      0.000
  Name = 
  3 active torsions:
  status: ('A' for Active; 'I' for Inactive)
    1  A    between atoms: C_5  and  O_23
    2  A    between atoms: C_6  and  C_31
    3  A    between atoms: C_11  and  C_26
                            x       y       z     vdW  Elec       q    Type
                         _______ _______ _______ _____ _____    ______ ____

>  <TORSDO>
F 3

$$$$
=
 OpenBabel11042418353D

 37 43  0  0  1  0  0  0  0  0999 V2000
  190.4960  171.9400  142.2690 C   0  0  0  0  0  2  0  0  0  0  0  0
  195.4740  172.2120  145.5980 C   0  0  0  0  0  2  0  0  0  0  0  0
  192.0310  175.2230  145.3630 C   0  0  0  0  0  0  0  0  0  0  0  0
  190.9190  171.6910  140.8090 C   0  0  1  0  0  3  0  0  0  0  0  0
  188.5870  174.8900  143.7860 O   0  0  0  0  0  0  0  0  0  0  0  0
  194.3900  174.4830  145.5570 C   0  0  0  0  0  0  0  0  0  0  0  0
  190.8620  174.9200  144.5400 C   0  0  0  0  0  0  0  0  0  0  0  0
  193.0260  174.3370  145.0190 C   0  0  0  0  0  0  0  0  0  0  0  0
  189.5790  175.4810  144.5760 C   0  0  0  0  0  0  0  0  0  0  0  0
  194.6440  175.4760  146.3560 N   0  0  0  0  0  0  0  0  0  0  0  0
  190.7470  172.9140  139.8890 C   0  0  0  0  0  2  0  0  0  0  0  0
  192.5640  173.5080  144.0070 C   0  0  0  0  0  0  0  0  0  0  0  0
  193.6890  171.3170  144.1000 C   0  0  0  0  0  2  0  0  0  0  0  0
  191.3150  177.1910  146.6350 C   0  0  0  0  0  3  0  0  0  0  0  0
  193.6400  176.4260  146.8610 C   0  0  0  0  0  2  0  0  0  0  0  0
  193.3820  172.5250  143.2390 C   0  0  0  0  0  2  0  0  0  0  0  0
  189.5660  173.7860  140.3030 C   0  0  2  0  0  3  0  0  0  0  0  0
  188.5770  174.9650  142.3650 C   0  0  0  0  0  2  0  0  0  0  0  0
  192.2680  176.2680  146.2450 C   0  0  0  0  0  0  0  0  0  0  0  0
  191.2480  173.8570  143.7230 C   0  0  0  0  0  0  0  0  0  0  0  0
  195.4540  173.6060  145.1820 N   0  0  0  0  0  2  0  0  0  0  0  0
  189.1870  176.5600  145.3900 C   0  0  0  0  0  0  0  0  0  0  0  0
  195.1700  171.2920  144.4280 C   0  0  0  0  0  2  0  0  0  0  0  0
  189.8170  174.3340  141.7250 C   0  0  1  0  0  3  0  0  0  0  0  0
  190.4900  173.3680  142.6030 N   0  0  0  0  0  0  0  0  0  0  0  0
  189.9810  177.3010  146.2680 C   0  0  0  0  0  3  0  0  0  0  0  0
  186.8340  176.5250  146.2000 C   0  0  0  0  0  3  0  0  0  0  0  0
  187.7930  177.0200  145.3040 C   0  0  0  0  0  0  0  0  0  0  0  0
  187.4170  177.9420  144.3190 C   0  0  0  0  0  3  0  0  0  0  0  0
  185.7180  179.2770  143.2530 O   0  0  0  0  0  1  0  0  0  0  0  0
  185.1340  177.8690  145.1230 C   0  0  0  0  0  3  0  0  0  0  0  0
  186.0890  178.3660  144.2300 C   0  0  0  0  0  0  0  0  0  0  0  0
  185.5070  176.9490  146.1090 C   0  0  0  0  0  3  0  0  0  0  0  0
  188.2550  173.0110  140.1640 C   0  0  0  0  0  2  0  0  0  0  0  0
  188.0730  172.6110  138.8410 O   0  0  0  0  0  1  0  0  0  0  0  0
  192.7730  171.8260  139.6050 C   0  0  0  0  0  1  0  0  0  0  0  0
  192.2400  171.2490  140.7620 O   0  0  0  0  0  0  0  0  0  0  0  0
  1 25  1  0  0  0  0
  3 19  2  0  0  0  0
  4 37  1  1  0  0  0
  4  1  1  0  0  0  0
  5  9  1  0  0  0  0
  6 10  2  0  0  0  0
  7  9  1  0  0  0  0
  7  3  1  0  0  0  0
  8  3  1  0  0  0  0
  8  6  1  0  0  0  0
  9 22  2  0  0  0  0
 10 15  1  0  0  0  0
 11 17  1  0  0  0  0
 11  4  1  0  0  0  0
 12  8  2  0  0  0  0
 13 23  1  0  0  0  0
 16 12  1  0  0  0  0
 16 13  1  0  0  0  0
 17 34  1  1  0  0  0
 17 24  1  0  0  0  0
 18  5  1  0  0  0  0
 19 14  1  0  0  0  0
 19 15  1  0  0  0  0
 20 12  1  0  0  0  0
 20  7  2  0  0  0  0
 21  6  1  0  0  0  0
 21  2  1  0  0  0  0
 22 26  1  0  0  0  0
 23  2  1  0  0  0  0
 24 18  1  1  0  0  0
 24 25  1  0  0  0  0
 25 20  1  0  0  0  0
 26 14  2  0  0  0  0
 28 22  1  0  0  0  0
 28 27  2  0  0  0  0
 29 28  1  0  0  0  0
 30 32  1  0  0  0  0
 31 33  2  0  0  0  0
 32 29  2  0  0  0  0
 32 31  1  0  0  0  0
 33 27  1  0  0  0  0
 35 34  1  0  0  0  0
 36 37  1  0  0  0  0
M  END
>  <MODEL>
2

>  <REMARK>
 VINA RESULT:      -8.6      2.705      7.776
  Name = 
  3 active torsions:
  status: ('A' for Active; 'I' for Inactive)
    1  A    between atoms: C_5  and  O_23
    2  A    between atoms: C_6  and  C_31
    3  A    between atoms: C_11  and  C_26
                            x       y       z     vdW  Elec       q    Type
                         _______ _______ _______ _____ _____    ______ ____

>  <TORSDO>
F 3

$$$$
=
 OpenBabel11042418353D

 37 43  0  0  1  0  0  0  0  0999 V2000
  193.1930  177.0050  144.7740 C   0  0  0  0  0  2  0  0  0  0  0  0
  193.7300  174.0950  139.5620 C   0  0  0  0  0  2  0  0  0  0  0  0
  189.9280  174.9780  141.9570 C   0  0  0  0  0  0  0  0  0  0  0  0
  194.1650  176.3560  145.7780 C   0  0  1  0  0  3  0  0  0  0  0  0
  189.3800  177.3030  144.9160 O   0  0  0  0  0  0  0  0  0  0  0  0
  191.4470  173.6450  140.5200 C   0  0  0  0  0  0  0  0  0  0  0  0
  190.0130  175.7820  143.1740 C   0  0  0  0  0  0  0  0  0  0  0  0
  191.2070  174.6010  141.6160 C   0  0  0  0  0  0  0  0  0  0  0  0
  189.0010  176.4640  143.8630 C   0  0  0  0  0  0  0  0  0  0  0  0
  190.4260  173.1490  139.8870 N   0  0  0  0  0  0  0  0  0  0  0  0
  193.4730  175.5140  146.8650 C   0  0  0  0  0  2  0  0  0  0  0  0
  192.0940  175.0960  142.5610 C   0  0  0  0  0  0  0  0  0  0  0  0
  194.3080  175.4870  141.5510 C   0  0  0  0  0  2  0  0  0  0  0  0
  187.5160  174.8320  141.5590 C   0  0  0  0  0  3  0  0  0  0  0  0
  189.0270  173.5480  140.1070 C   0  0  0  0  0  2  0  0  0  0  0  0
  193.5470  174.7750  142.6510 C   0  0  0  0  0  2  0  0  0  0  0  0
  192.1000  176.0630  147.2340 C   0  0  2  0  0  3  0  0  0  0  0  0
  189.8900  176.8180  146.1530 C   0  0  0  0  0  2  0  0  0  0  0  0
  188.8250  174.4930  141.2710 C   0  0  0  0  0  0  0  0  0  0  0  0
  191.3690  175.8200  143.5010 C   0  0  0  0  0  0  0  0  0  0  0  0
  192.7600  173.1990  140.1730 N   0  0  0  0  0  2  0  0  0  0  0  0
  187.6310  176.4200  143.5440 C   0  0  0  0  0  0  0  0  0  0  0  0
  194.8210  174.4700  140.5490 C   0  0  0  0  0  2  0  0  0  0  0  0
  191.1850  176.0160  145.9900 C   0  0  1  0  0  3  0  0  0  0  0  0
  191.8980  176.3190  144.7420 N   0  0  0  0  0  0  0  0  0  0  0  0
  187.0110  175.6770  142.5380 C   0  0  0  0  0  3  0  0  0  0  0  0
  186.1570  176.6430  145.5370 C   0  0  0  0  0  3  0  0  0  0  0  0
  186.7030  177.2040  144.3730 C   0  0  0  0  0  0  0  0  0  0  0  0
  186.3530  178.5070  143.9960 C   0  0  0  0  0  3  0  0  0  0  0  0
  185.1120  180.5320  144.4010 O   0  0  0  0  0  1  0  0  0  0  0  0
  184.9140  178.6810  145.9360 C   0  0  0  0  0  3  0  0  0  0  0  0
  185.4600  179.2430  144.7770 C   0  0  0  0  0  0  0  0  0  0  0  0
  185.2640  177.3810  146.3170 C   0  0  0  0  0  3  0  0  0  0  0  0
  192.2300  177.4570  147.8510 C   0  0  0  0  0  2  0  0  0  0  0  0
  191.6380  177.4800  149.1130 O   0  0  0  0  0  1  0  0  0  0  0  0
  195.3900  174.5220  145.9750 C   0  0  0  0  0  1  0  0  0  0  0  0
  195.1010  175.5760  145.1020 O   0  0  0  0  0  0  0  0  0  0  0  0
  1  4  1  0  0  0  0
  2 21  1  0  0  0  0
  2 23  1  0  0  0  0
  3  7  1  0  0  0  0
  4 37  1  6  0  0  0
  4 11  1  0  0  0  0
  5 18  1  0  0  0  0
  6  8  1  0  0  0  0
  7 20  1  0  0  0  0
  7  9  2  0  0  0  0
  8  3  2  0  0  0  0
  8 12  1  0  0  0  0
  9  5  1  0  0  0  0
 10 15  1  0  0  0  0
 10  6  2  0  0  0  0
 11 17  1  0  0  0  0
 12 16  1  0  0  0  0
 12 20  2  0  0  0  0
 13 16  1  0  0  0  0
 14 26  1  0  0  0  0
 15 19  1  0  0  0  0
 17 34  1  6  0  0  0
 19 14  2  0  0  0  0
 19  3  1  0  0  0  0
 20 25  1  0  0  0  0
 21  6  1  0  0  0  0
 22  9  1  0  0  0  0
 22 28  1  0  0  0  0
 23 13  1  0  0  0  0
 24 18  1  1  0  0  0
 24 17  1  0  0  0  0
 25  1  1  0  0  0  0
 25 24  1  0  0  0  0
 26 22  2  0  0  0  0
 27 33  1  0  0  0  0
 28 27  2  0  0  0  0
 29 28  1  0  0  0  0
 29 32  2  0  0  0  0
 30 32  1  0  0  0  0
 31 33  2  0  0  0  0
 32 31  1  0  0  0  0
 34 35  1  0  0  0  0
 37 36  1  0  0  0  0
M  END
>  <MODEL>
3

>  <REMARK>
 VINA RESULT:      -8.4      2.641      6.708
  Name = 
  3 active torsions:
  status: ('A' for Active; 'I' for Inactive)
    1  A    between atoms: C_5  and  O_23
    2  A    between atoms: C_6  and  C_31
    3  A    between atoms: C_11  and  C_26
                            x       y       z     vdW  Elec       q    Type
                         _______ _______ _______ _____ _____    ______ ____

>  <TORSDO>
F 3

$$$$
=
 OpenBabel11042418353D

 37 43  0  0  1  0  0  0  0  0999 V2000
  193.3040  176.6940  144.4670 C   0  0  0  0  0  2  0  0  0  0  0  0
  193.1580  173.8320  139.2010 C   0  0  0  0  0  2  0  0  0  0  0  0
  189.6580  174.9750  141.9250 C   0  0  0  0  0  0  0  0  0  0  0  0
  194.3030  175.9540  145.3770 C   0  0  1  0  0  3  0  0  0  0  0  0
  189.5540  177.2900  144.9410 O   0  0  0  0  0  0  0  0  0  0  0  0
  190.9370  173.5490  140.3500 C   0  0  0  0  0  0  0  0  0  0  0  0
  189.9110  175.7510  143.1380 C   0  0  0  0  0  0  0  0  0  0  0  0
  190.8690  174.5040  141.4710 C   0  0  0  0  0  0  0  0  0  0  0  0
  189.0200  176.5000  143.9170 C   0  0  0  0  0  0  0  0  0  0  0  0
  189.8290  173.1460  139.8030 N   0  0  0  0  0  0  0  0  0  0  0  0
  193.6420  175.1520  146.5120 C   0  0  0  0  0  2  0  0  0  0  0  0
  191.8700  174.9130  142.3400 C   0  0  0  0  0  0  0  0  0  0  0  0
  194.0140  175.1430  141.1450 C   0  0  0  0  0  2  0  0  0  0  0  0
  187.2170  175.0270  141.7370 C   0  0  0  0  0  3  0  0  0  0  0  0
  188.4900  173.6510  140.1480 C   0  0  0  0  0  2  0  0  0  0  0  0
  193.2950  174.4760  142.3010 C   0  0  0  0  0  2  0  0  0  0  0  0
  192.3540  175.8020  147.0040 C   0  0  2  0  0  3  0  0  0  0  0  0
  190.1270  176.7460  146.1240 C   0  0  0  0  0  2  0  0  0  0  0  0
  188.4650  174.5900  141.3330 C   0  0  0  0  0  0  0  0  0  0  0  0
  191.2880  175.6760  143.3460 C   0  0  0  0  0  0  0  0  0  0  0  0
  192.1760  173.0070  139.8870 N   0  0  0  0  0  2  0  0  0  0  0  0
  187.6280  176.5700  143.7180 C   0  0  0  0  0  0  0  0  0  0  0  0
  194.3560  174.1040  140.0940 C   0  0  0  0  0  2  0  0  0  0  0  0
  191.3350  175.8470  145.8430 C   0  0  1  0  0  3  0  0  0  0  0  0
  191.9610  176.1120  144.5400 N   0  0  0  0  0  0  0  0  0  0  0  0
  186.8670  175.8930  142.7620 C   0  0  0  0  0  3  0  0  0  0  0  0
  186.3120  178.6300  144.1810 C   0  0  0  0  0  3  0  0  0  0  0  0
  186.8410  177.4110  144.6310 C   0  0  0  0  0  0  0  0  0  0  0  0
  186.6290  177.0060  145.9550 C   0  0  0  0  0  3  0  0  0  0  0  0
  185.6880  177.4120  148.1340 O   0  0  0  0  0  1  0  0  0  0  0  0
  185.3690  179.0300  146.3740 C   0  0  0  0  0  3  0  0  0  0  0  0
  185.8940  177.8150  146.8240 C   0  0  0  0  0  0  0  0  0  0  0  0
  185.5770  179.4380  145.0510 C   0  0  0  0  0  3  0  0  0  0  0  0
  192.6480  177.1710  147.6190 C   0  0  0  0  0  2  0  0  0  0  0  0
  191.9040  177.3420  148.7860 O   0  0  0  0  0  1  0  0  0  0  0  0
  196.0030  174.5420  145.5300 C   0  0  0  0  0  1  0  0  0  0  0  0
  195.1130  175.1130  144.6160 O   0  0  0  0  0  0  0  0  0  0  0  0
  1 25  1  0  0  0  0
  1  4  1  0  0  0  0
  2 21  1  0  0  0  0
  2 23  1  0  0  0  0
  3  7  1  0  0  0  0
  4 37  1  6  0  0  0
  4 11  1  0  0  0  0
  5 18  1  0  0  0  0
  6  8  1  0  0  0  0
  7 20  1  0  0  0  0
  7  9  2  0  0  0  0
  8  3  2  0  0  0  0
  8 12  1  0  0  0  0
  9  5  1  0  0  0  0
 10 15  1  0  0  0  0
 10  6  2  0  0  0  0
 11 17  1  0  0  0  0
 12 20  2  0  0  0  0
 13 16  1  0  0  0  0
 14 26  1  0  0  0  0
 15 19  1  0  0  0  0
 16 12  1  0  0  0  0
 17 34  1  6  0  0  0
 19 14  2  0  0  0  0
 19  3  1  0  0  0  0
 20 25  1  0  0  0  0
 21  6  1  0  0  0  0
 22  9  1  0  0  0  0
 22 28  1  0  0  0  0
 23 13  1  0  0  0  0
 24 18  1  1  0  0  0
 24 17  1  0  0  0  0
 25 24  1  0  0  0  0
 26 22  2  0  0  0  0
 27 28  2  0  0  0  0
 27 33  1  0  0  0  0
 28 29  1  0  0  0  0
 29 32  2  0  0  0  0
 31 32  1  0  0  0  0
 32 30  1  0  0  0  0
 33 31  2  0  0  0  0
 34 35  1  0  0  0  0
 37 36  1  0  0  0  0
M  END
>  <MODEL>
4

>  <REMARK>
 VINA RESULT:      -8.3      2.572      6.790
  Name = 
  3 active torsions:
  status: ('A' for Active; 'I' for Inactive)
    1  A    between atoms: C_5  and  O_23
    2  A    between atoms: C_6  and  C_31
    3  A    between atoms: C_11  and  C_26
                            x       y       z     vdW  Elec       q    Type
                         _______ _______ _______ _____ _____    ______ ____

>  <TORSDO>
F 3

$$$$
=
 OpenBabel11042418353D

 37 43  0  0  1  0  0  0  0  0999 V2000
  190.3450  174.1580  140.3730 C   0  0  0  0  0  2  0  0  0  0  0  0
  186.4060  177.7920  143.0580 C   0  0  0  0  0  2  0  0  0  0  0  0
  189.9150  175.5130  144.9210 C   0  0  0  0  0  0  0  0  0  0  0  0
  189.5480  173.1030  139.5820 C   0  0  1  0  0  3  0  0  0  0  0  0
  192.8110  173.6910  143.2610 O   0  0  0  0  0  0  0  0  0  0  0  0
  187.6280  176.4670  144.8150 C   0  0  0  0  0  0  0  0  0  0  0  0
  190.8100  174.7400  144.0620 C   0  0  0  0  0  0  0  0  0  0  0  0
  188.7960  175.8260  144.1840 C   0  0  0  0  0  0  0  0  0  0  0  0
  192.1030  174.2660  144.3220 C   0  0  0  0  0  0  0  0  0  0  0  0
  187.6670  176.7210  146.0890 N   0  0  0  0  0  0  0  0  0  0  0  0
  189.5840  171.6950  140.2030 C   0  0  0  0  0  2  0  0  0  0  0  0
  188.9170  175.2720  142.9170 C   0  0  0  0  0  0  0  0  0  0  0  0
  187.6750  176.6120  141.2630 C   0  0  0  0  0  2  0  0  0  0  0  0
  191.0880  175.5270  147.0710 C   0  0  0  0  0  3  0  0  0  0  0  0
  188.8410  176.5130  146.9520 C   0  0  0  0  0  2  0  0  0  0  0  0
  187.8550  175.2360  141.8720 C   0  0  0  0  0  2  0  0  0  0  0  0
  190.8980  171.4150  140.9240 C   0  0  2  0  0  3  0  0  0  0  0  0
  192.4690  172.4340  142.6880 C   0  0  0  0  0  2  0  0  0  0  0  0
  189.9950  175.8100  146.2740 C   0  0  0  0  0  0  0  0  0  0  0  0
  190.1440  174.6210  142.8430 C   0  0  0  0  0  0  0  0  0  0  0  0
  186.4350  176.7610  144.0850 N   0  0  0  0  0  2  0  0  0  0  0  0
  192.7750  174.3730  145.5530 C   0  0  0  0  0  0  0  0  0  0  0  0
  186.3280  177.1760  141.6730 C   0  0  0  0  0  2  0  0  0  0  0  0
  191.0600  172.4160  142.0880 C   0  0  1  0  0  3  0  0  0  0  0  0
  190.5520  173.7570  141.7670 N   0  0  0  0  0  0  0  0  0  0  0  0
  192.2920  174.9160  146.7460 C   0  0  0  0  0  3  0  0  0  0  0  0
  195.2400  174.6880  145.6870 C   0  0  0  0  0  3  0  0  0  0  0  0
  194.1350  173.8230  145.6490 C   0  0  0  0  0  0  0  0  0  0  0  0
  194.3320  172.4380  145.6880 C   0  0  0  0  0  3  0  0  0  0  0  0
  195.8190  170.5450  145.7990 O   0  0  0  0  0  1  0  0  0  0  0  0
  196.7260  172.7800  145.7980 C   0  0  0  0  0  3  0  0  0  0  0  0
  195.6260  171.9180  145.7630 C   0  0  0  0  0  0  0  0  0  0  0  0
  196.5340  174.1660  145.7610 C   0  0  0  0  0  3  0  0  0  0  0  0
  192.0630  171.4280  139.9320 C   0  0  0  0  0  2  0  0  0  0  0  0
  191.8730  170.4530  138.9550 O   0  0  0  0  0  1  0  0  0  0  0  0
  188.1910  174.1660  138.1910 C   0  0  0  0  0  1  0  0  0  0  0  0
  188.2260  173.5160  139.4280 O   0  0  0  0  0  0  0  0  0  0  0  0
  1 25  1  0  0  0  0
  2 21  1  0  0  0  0
  3 19  2  0  0  0  0
  4 37  1  1  0  0  0
  4 11  1  0  0  0  0
  4  1  1  0  0  0  0
  5  9  1  0  0  0  0
  6 10  2  0  0  0  0
  7  9  1  0  0  0  0
  7  3  1  0  0  0  0
  8  6  1  0  0  0  0
  8  3  1  0  0  0  0
  9 22  2  0  0  0  0
 10 15  1  0  0  0  0
 11 17  1  0  0  0  0
 12  8  2  0  0  0  0
 13 23  1  0  0  0  0
 13 16  1  0  0  0  0
 16 12  1  0  0  0  0
 17 34  1  6  0  0  0
 17 24  1  0  0  0  0
 18  5  1  0  0  0  0
 19 15  1  0  0  0  0
 19 14  1  0  0  0  0
 20 12  1  0  0  0  0
 20  7  2  0  0  0  0
 21  6  1  0  0  0  0
 22 28  1  0  0  0  0
 22 26  1  0  0  0  0
 23  2  1  0  0  0  0
 24 18  1  6  0  0  0
 25 24  1  0  0  0  0
 25 20  1  0  0  0  0
 26 14  2  0  0  0  0
 27 33  1  0  0  0  0
 28 27  2  0  0  0  0
 28 29  1  0  0  0  0
 29 32  2  0  0  0  0
 32 31  1  0  0  0  0
 32 30  1  0  0  0  0
 33 31  2  0  0  0  0
 35 34  1  0  0  0  0
 36 37  1  0  0  0  0
M  END
>  <MODEL>
5

>  <REMARK>
 VINA RESULT:      -8.2      2.128      6.434
  Name = 
  3 active torsions:
  status: ('A' for Active; 'I' for Inactive)
    1  A    between atoms: C_5  and  O_23
    2  A    between atoms: C_6  and  C_31
    3  A    between atoms: C_11  and  C_26
                            x       y       z     vdW  Elec       q    Type
                         _______ _______ _______ _____ _____    ______ ____

>  <TORSDO>
F 3

$$$$
=
 OpenBabel11042418353D

 37 43  0  0  1  0  0  0  0  0999 V2000
  194.0070  176.3250  142.7180 C   0  0  0  0  0  2  0  0  0  0  0  0
  192.8390  173.0450  137.8390 C   0  0  0  0  0  2  0  0  0  0  0  0
  190.0080  174.1880  141.2530 C   0  0  0  0  0  0  0  0  0  0  0  0
  195.2490  175.7240  143.4030 C   0  0  1  0  0  3  0  0  0  0  0  0
  190.4420  176.7280  144.0500 O   0  0  0  0  0  0  0  0  0  0  0  0
  190.9840  172.7200  139.5080 C   0  0  0  0  0  0  0  0  0  0  0  0
  190.4800  175.0730  142.3160 C   0  0  0  0  0  0  0  0  0  0  0  0
  191.1090  173.7560  140.5490 C   0  0  0  0  0  0  0  0  0  0  0  0
  189.7440  175.8270  143.2390 C   0  0  0  0  0  0  0  0  0  0  0  0
  189.8130  172.2070  139.2740 N   0  0  0  0  0  0  0  0  0  0  0  0
  194.9420  174.9770  144.7150 C   0  0  0  0  0  2  0  0  0  0  0  0
  192.2530  174.2940  141.1210 C   0  0  0  0  0  0  0  0  0  0  0  0
  194.0260  174.5570  139.4300 C   0  0  0  0  0  2  0  0  0  0  0  0
  187.5950  174.0760  141.6600 C   0  0  0  0  0  3  0  0  0  0  0  0
  188.5580  172.6560  139.9000 C   0  0  0  0  0  2  0  0  0  0  0  0
  193.6580  173.9430  140.7650 C   0  0  0  0  0  2  0  0  0  0  0  0
  193.7600  175.5850  145.4620 C   0  0  2  0  0  3  0  0  0  0  0  0
  191.3210  176.3180  145.0910 C   0  0  0  0  0  2  0  0  0  0  0  0
  188.7420  173.6840  140.9940 C   0  0  0  0  0  0  0  0  0  0  0  0
  191.8690  175.1000  142.1880 C   0  0  0  0  0  0  0  0  0  0  0  0
  192.1150  172.2190  138.7940 N   0  0  0  0  0  2  0  0  0  0  0  0
  188.3440  175.7960  143.3800 C   0  0  0  0  0  0  0  0  0  0  0  0
  194.1900  173.4600  138.3950 C   0  0  0  0  0  2  0  0  0  0  0  0
  192.4940  175.4740  144.5830 C   0  0  1  0  0  3  0  0  0  0  0  0
  192.7690  175.6710  143.1530 N   0  0  0  0  0  0  0  0  0  0  0  0
  187.4320  174.9990  142.6830 C   0  0  0  0  0  3  0  0  0  0  0  0
  187.8100  176.3050  145.7570 C   0  0  0  0  0  3  0  0  0  0  0  0
  187.7320  176.6590  144.4010 C   0  0  0  0  0  0  0  0  0  0  0  0
  187.0600  177.8280  144.0230 C   0  0  0  0  0  3  0  0  0  0  0  0
  185.8000  179.7930  144.6170 O   0  0  0  0  0  1  0  0  0  0  0  0
  186.5440  178.2820  146.3450 C   0  0  0  0  0  3  0  0  0  0  0  0
  186.4670  178.6380  144.9940 C   0  0  0  0  0  0  0  0  0  0  0  0
  187.2160  177.1160  146.7260 C   0  0  0  0  0  3  0  0  0  0  0  0
  194.0830  177.0150  145.8990 C   0  0  0  0  0  2  0  0  0  0  0  0
  193.8450  177.1640  147.2640 O   0  0  0  0  0  1  0  0  0  0  0  0
  196.4250  173.8490  143.3280 C   0  0  0  0  0  1  0  0  0  0  0  0
  195.9170  174.8740  142.5240 O   0  0  0  0  0  0  0  0  0  0  0  0
  1 25  1  0  0  0  0
  1  4  1  0  0  0  0
  2 23  1  0  0  0  0
  2 21  1  0  0  0  0
  3  7  1  0  0  0  0
  4 37  1  6  0  0  0
  4 11  1  0  0  0  0
  5 18  1  0  0  0  0
  6  8  1  0  0  0  0
  7  9  1  0  0  0  0
  8 12  2  0  0  0  0
  8  3  1  0  0  0  0
  9 22  2  0  0  0  0
  9  5  1  0  0  0  0
 10  6  2  0  0  0  0
 10 15  1  0  0  0  0
 11 17  1  0  0  0  0
 12 20  1  0  0  0  0
 13 16  1  0  0  0  0
 14 26  2  0  0  0  0
 15 19  1  0  0  0  0
 16 12  1  0  0  0  0
 17 34  1  6  0  0  0
 19  3  2  0  0  0  0
 19 14  1  0  0  0  0
 20  7  2  0  0  0  0
 20 25  1  0  0  0  0
 21  6  1  0  0  0  0
 22 28  1  0  0  0  0
 23 13  1  0  0  0  0
 24 18  1  1  0  0  0
 24 17  1  0  0  0  0
 25 24  1  0  0  0  0
 26 22  1  0  0  0  0
 27 33  1  0  0  0  0
 28 27  2  0  0  0  0
 29 28  1  0  0  0  0
 29 32  2  0  0  0  0
 30 32  1  0  0  0  0
 31 33  2  0  0  0  0
 32 31  1  0  0  0  0
 34 35  1  0  0  0  0
 37 36  1  0  0  0  0
M  END
>  <MODEL>
6

>  <REMARK>
 VINA RESULT:      -7.8      2.872      7.082
  Name = 
  3 active torsions:
  status: ('A' for Active; 'I' for Inactive)
    1  A    between atoms: C_5  and  O_23
    2  A    between atoms: C_6  and  C_31
    3  A    between atoms: C_11  and  C_26
                            x       y       z     vdW  Elec       q    Type
                         _______ _______ _______ _____ _____    ______ ____

>  <TORSDO>
F 3

$$$$
=
 OpenBabel11042418353D

 37 43  0  0  1  0  0  0  0  0999 V2000
  190.2170  174.3400  140.9960 C   0  0  0  0  0  2  0  0  0  0  0  0
  186.7150  177.8700  144.3440 C   0  0  0  0  0  2  0  0  0  0  0  0
  190.8360  176.1510  145.3600 C   0  0  0  0  0  0  0  0  0  0  0  0
  189.3740  173.1340  140.5420 C   0  0  1  0  0  3  0  0  0  0  0  0
  193.3930  174.4320  143.1300 O   0  0  0  0  0  0  0  0  0  0  0  0
  188.5040  176.8700  145.8030 C   0  0  0  0  0  0  0  0  0  0  0  0
  191.5610  175.3730  144.3570 C   0  0  0  0  0  0  0  0  0  0  0  0
  189.5340  176.2730  144.9330 C   0  0  0  0  0  0  0  0  0  0  0  0
  192.9230  175.0540  144.2920 C   0  0  0  0  0  0  0  0  0  0  0  0
  188.8450  177.2670  146.9930 N   0  0  0  0  0  0  0  0  0  0  0  0
  189.7390  171.8130  141.2450 C   0  0  0  0  0  2  0  0  0  0  0  0
  189.3840  175.5950  143.7320 C   0  0  0  0  0  0  0  0  0  0  0  0
  187.6000  176.6190  142.3740 C   0  0  0  0  0  2  0  0  0  0  0  0
  192.5220  176.5140  147.0990 C   0  0  0  0  0  3  0  0  0  0  0  0
  190.2200  177.2680  147.5170 C   0  0  0  0  0  2  0  0  0  0  0  0
  188.0970  175.3430  143.0230 C   0  0  0  0  0  2  0  0  0  0  0  0
  191.2210  171.7400  141.6000 C   0  0  2  0  0  3  0  0  0  0  0  0
  193.0650  173.0930  142.7770 C   0  0  0  0  0  2  0  0  0  0  0  0
  191.2320  176.6040  146.6100 C   0  0  0  0  0  0  0  0  0  0  0  0
  190.6170  175.0560  143.3790 C   0  0  0  0  0  0  0  0  0  0  0  0
  187.1350  176.9680  145.4050 N   0  0  0  0  0  2  0  0  0  0  0  0
  193.8780  175.3610  145.2800 C   0  0  0  0  0  0  0  0  0  0  0  0
  186.3500  177.0980  143.0880 C   0  0  0  0  0  2  0  0  0  0  0  0
  191.5610  172.8760  142.5890 C   0  0  1  0  0  3  0  0  0  0  0  0
  190.8300  174.1200  142.3090 N   0  0  0  0  0  0  0  0  0  0  0  0
  193.6620  175.9860  146.5100 C   0  0  0  0  0  3  0  0  0  0  0  0
  195.9340  174.1500  145.9850 C   0  0  0  0  0  3  0  0  0  0  0  0
  195.2710  174.9540  145.0460 C   0  0  0  0  0  0  0  0  0  0  0  0
  195.9430  175.3780  143.8930 C   0  0  0  0  0  3  0  0  0  0  0  0
  197.9350  175.4260  142.5400 O   0  0  0  0  0  1  0  0  0  0  0  0
  197.9310  174.2030  144.6190 C   0  0  0  0  0  3  0  0  0  0  0  0
  197.2710  175.0030  143.6810 C   0  0  0  0  0  0  0  0  0  0  0  0
  197.2620  173.7760  145.7710 C   0  0  0  0  0  3  0  0  0  0  0  0
  192.0750  171.7510  140.3310 C   0  0  0  0  0  2  0  0  0  0  0  0
  191.7440  170.6650  139.5220 O   0  0  0  0  0  1  0  0  0  0  0  0
  187.5880  172.4730  141.6740 C   0  0  0  0  0  1  0  0  0  0  0  0
  188.0180  173.4020  140.7220 O   0  0  0  0  0  0  0  0  0  0  0  0
  1 25  1  0  0  0  0
  2 21  1  0  0  0  0
  3 19  2  0  0  0  0
  4 37  1  1  0  0  0
  4  1  1  0  0  0  0
  4 11  1  0  0  0  0
  5  9  1  0  0  0  0
  6 10  2  0  0  0  0
  7  3  1  0  0  0  0
  8  3  1  0  0  0  0
  8  6  1  0  0  0  0
  9  7  1  0  0  0  0
  9 22  2  0  0  0  0
 10 15  1  0  0  0  0
 11 17  1  0  0  0  0
 12  8  2  0  0  0  0
 13 16  1  0  0  0  0
 13 23  1  0  0  0  0
 16 12  1  0  0  0  0
 17 34  1  6  0  0  0
 17 24  1  0  0  0  0
 18  5  1  0  0  0  0
 19 14  1  0  0  0  0
 19 15  1  0  0  0  0
 20 12  1  0  0  0  0
 20  7  2  0  0  0  0
 21  6  1  0  0  0  0
 22 26  1  0  0  0  0
 23  2  1  0  0  0  0
 24 18  1  6  0  0  0
 25 24  1  0  0  0  0
 25 20  1  0  0  0  0
 26 14  2  0  0  0  0
 28 22  1  0  0  0  0
 28 27  2  0  0  0  0
 29 28  1  0  0  0  0
 30 32  1  0  0  0  0
 31 33  2  0  0  0  0
 32 29  2  0  0  0  0
 32 31  1  0  0  0  0
 33 27  1  0  0  0  0
 35 34  1  0  0  0  0
 37 36  1  0  0  0  0
M  END
>  <MODEL>
7

>  <REMARK>
 VINA RESULT:      -7.7      2.537      6.286
  Name = 
  3 active torsions:
  status: ('A' for Active; 'I' for Inactive)
    1  A    between atoms: C_5  and  O_23
    2  A    between atoms: C_6  and  C_31
    3  A    between atoms: C_11  and  C_26
                            x       y       z     vdW  Elec       q    Type
                         _______ _______ _______ _____ _____    ______ ____

>  <TORSDO>
F 3

$$$$
=
 OpenBabel11042418353D

 37 43  0  0  1  0  0  0  0  0999 V2000
  189.4850  175.5680  146.1710 C   0  0  0  0  0  2  0  0  0  0  0  0
  184.6740  178.7220  144.4870 C   0  0  0  0  0  2  0  0  0  0  0  0
  187.5750  176.3310  141.8720 C   0  0  0  0  0  0  0  0  0  0  0  0
  190.3740  176.4880  147.0290 C   0  0  1  0  0  3  0  0  0  0  0  0
  190.2630  173.8260  142.8530 O   0  0  0  0  0  0  0  0  0  0  0  0
  186.0720  178.2150  142.4570 C   0  0  0  0  0  0  0  0  0  0  0  0
  188.6450  175.5600  142.5010 C   0  0  0  0  0  0  0  0  0  0  0  0
  187.0620  177.1850  142.8210 C   0  0  0  0  0  0  0  0  0  0  0  0
  189.4100  174.5090  141.9790 C   0  0  0  0  0  0  0  0  0  0  0  0
  185.6990  178.3130  141.2160 N   0  0  0  0  0  0  0  0  0  0  0  0
  191.6650  176.9450  146.3260 C   0  0  0  0  0  2  0  0  0  0  0  0
  187.7630  177.0200  144.0070 C   0  0  0  0  0  0  0  0  0  0  0  0
  186.3340  177.5590  145.9420 C   0  0  0  0  0  2  0  0  0  0  0  0
  187.6340  175.5620  139.5470 C   0  0  0  0  0  3  0  0  0  0  0  0
  186.1120  177.3980  140.1400 C   0  0  0  0  0  2  0  0  0  0  0  0
  187.6340  177.8680  145.2260 C   0  0  0  0  0  2  0  0  0  0  0  0
  192.2000  175.8940  145.3590 C   0  0  2  0  0  3  0  0  0  0  0  0
  191.4410  174.4070  143.4020 C   0  0  0  0  0  2  0  0  0  0  0  0
  187.1630  176.3910  140.5490 C   0  0  0  0  0  0  0  0  0  0  0  0
  188.7180  176.0270  143.8130 C   0  0  0  0  0  0  0  0  0  0  0  0
  185.5570  179.1460  143.4120 N   0  0  0  0  0  2  0  0  0  0  0  0
  189.3490  174.0400  140.6530 C   0  0  0  0  0  0  0  0  0  0  0  0
  185.3950  178.7440  145.8230 C   0  0  0  0  0  2  0  0  0  0  0  0
  191.1540  175.6500  144.2490 C   0  0  1  0  0  3  0  0  0  0  0  0
  189.7710  175.7070  144.7400 N   0  0  0  0  0  0  0  0  0  0  0  0
  188.5710  174.5400  139.6060 C   0  0  0  0  0  3  0  0  0  0  0  0
  191.3540  173.1520  139.4780 C   0  0  0  0  0  3  0  0  0  0  0  0
  190.2220  172.9200  140.2750 C   0  0  0  0  0  0  0  0  0  0  0  0
  189.9200  171.6190  140.6960 C   0  0  0  0  0  3  0  0  0  0  0  0
  190.4410  169.2680  140.7380 O   0  0  0  0  0  1  0  0  0  0  0  0
  191.8700  170.7870  139.5260 C   0  0  0  0  0  3  0  0  0  0  0  0
  190.7440  170.5550  140.3220 C   0  0  0  0  0  0  0  0  0  0  0  0
  192.1760  172.0860  139.1050 C   0  0  0  0  0  3  0  0  0  0  0  0
  192.6010  174.6270  146.1170 C   0  0  0  0  0  2  0  0  0  0  0  0
  193.9350  174.3170  145.8610 O   0  0  0  0  0  1  0  0  0  0  0  0
  190.4300  178.1870  148.4480 C   0  0  0  0  0  1  0  0  0  0  0  0
  189.6480  177.6010  147.4490 O   0  0  0  0  0  0  0  0  0  0  0  0
  1  4  1  0  0  0  0
  2 23  1  0  0  0  0
  3  7  1  0  0  0  0
  3  8  2  0  0  0  0
  4 37  1  6  0  0  0
  5 18  1  0  0  0  0
  6  8  1  0  0  0  0
  6 21  1  0  0  0  0
  7 20  1  0  0  0  0
  8 12  1  0  0  0  0
  9  7  2  0  0  0  0
  9  5  1  0  0  0  0
 10  6  2  0  0  0  0
 11  4  1  0  0  0  0
 12 16  1  0  0  0  0
 14 26  1  0  0  0  0
 14 19  2  0  0  0  0
 15 19  1  0  0  0  0
 15 10  1  0  0  0  0
 16 13  1  0  0  0  0
 17 34  1  1  0  0  0
 17 11  1  0  0  0  0
 19  3  1  0  0  0  0
 20 12  2  0  0  0  0
 20 25  1  0  0  0  0
 21  2  1  0  0  0  0
 22  9  1  0  0  0  0
 23 13  1  0  0  0  0
 24 18  1  1  0  0  0
 24 25  1  0  0  0  0
 24 17  1  0  0  0  0
 25  1  1  0  0  0  0
 26 22  2  0  0  0  0
 27 28  1  0  0  0  0
 28 22  1  0  0  0  0
 28 29  2  0  0  0  0
 31 32  2  0  0  0  0
 32 29  1  0  0  0  0
 32 30  1  0  0  0  0
 33 27  2  0  0  0  0
 33 31  1  0  0  0  0
 35 34  1  0  0  0  0
 37 36  1  0  0  0  0
M  END
>  <MODEL>
8

>  <REMARK>
 VINA RESULT:      -7.6      1.385      1.742
  Name = 
  3 active torsions:
  status: ('A' for Active; 'I' for Inactive)
    1  A    between atoms: C_5  and  O_23
    2  A    between atoms: C_6  and  C_31
    3  A    between atoms: C_11  and  C_26
                            x       y       z     vdW  Elec       q    Type
                         _______ _______ _______ _____ _____    ______ ____

>  <TORSDO>
F 3

$$$$
=
 OpenBabel11042418353D

 37 43  0  0  1  0  0  0  0  0999 V2000
  193.3120  174.3100  145.8700 C   0  0  0  0  0  2  0  0  0  0  0  0
  188.1950  177.3510  146.5800 C   0  0  0  0  0  2  0  0  0  0  0  0
  189.3620  174.4770  143.2100 C   0  0  0  0  0  0  0  0  0  0  0  0
  194.4740  175.3160  145.9680 C   0  0  1  0  0  3  0  0  0  0  0  0
  192.2800  172.0510  142.9580 O   0  0  0  0  0  0  0  0  0  0  0  0
  188.3130  176.4850  144.2200 C   0  0  0  0  0  0  0  0  0  0  0  0
  190.6400  173.7710  143.2740 C   0  0  0  0  0  0  0  0  0  0  0  0
  189.3940  175.4860  144.1450 C   0  0  0  0  0  0  0  0  0  0  0  0
  191.0580  172.6240  142.5880 C   0  0  0  0  0  0  0  0  0  0  0  0
  187.3290  176.4050  143.3750 N   0  0  0  0  0  0  0  0  0  0  0  0
  195.1640  175.6100  144.6230 C   0  0  0  0  0  2  0  0  0  0  0  0
  190.6290  175.4780  144.7780 C   0  0  0  0  0  0  0  0  0  0  0  0
  190.4330  176.3610  147.0710 C   0  0  0  0  0  2  0  0  0  0  0  0
  188.2060  173.3580  141.3630 C   0  0  0  0  0  3  0  0  0  0  0  0
  187.1470  175.3210  142.3960 C   0  0  0  0  0  2  0  0  0  0  0  0
  191.1300  176.5080  145.7330 C   0  0  0  0  0  2  0  0  0  0  0  0
  195.1500  174.4030  143.6910 C   0  0  2  0  0  3  0  0  0  0  0  0
  193.5370  172.6640  142.6950 C   0  0  0  0  0  2  0  0  0  0  0  0
  188.3030  174.3480  142.3230 C   0  0  0  0  0  0  0  0  0  0  0  0
  191.3800  174.4310  144.2550 C   0  0  0  0  0  0  0  0  0  0  0  0
  188.3430  177.5700  145.1490 N   0  0  0  0  0  2  0  0  0  0  0  0
  190.3200  171.9600  141.5900 C   0  0  0  0  0  0  0  0  0  0  0  0
  189.5180  177.5500  147.2990 C   0  0  0  0  0  2  0  0  0  0  0  0
  193.6860  174.0320  143.3660 C   0  0  1  0  0  3  0  0  0  0  0  0
  192.7800  174.2170  144.5070 N   0  0  0  0  0  0  0  0  0  0  0  0
  189.0790  172.3220  141.0620 C   0  0  0  0  0  3  0  0  0  0  0  0
  190.8210  169.5230  141.6260 C   0  0  0  0  0  3  0  0  0  0  0  0
  190.9110  170.7620  140.9740 C   0  0  0  0  0  0  0  0  0  0  0  0
  191.5750  170.8580  139.7450 C   0  0  0  0  0  3  0  0  0  0  0  0
  192.8070  169.8190  137.9550 O   0  0  0  0  0  1  0  0  0  0  0  0
  192.0600  168.4870  139.8230 C   0  0  0  0  0  3  0  0  0  0  0  0
  192.1480  169.7210  139.1710 C   0  0  0  0  0  0  0  0  0  0  0  0
  191.3960  168.3870  141.0500 C   0  0  0  0  0  3  0  0  0  0  0  0
  195.9580  173.2530  144.2950 C   0  0  0  0  0  2  0  0  0  0  0  0
  197.3190  173.4580  144.0770 O   0  0  0  0  0  1  0  0  0  0  0  0
  194.6160  177.5170  145.7690 C   0  0  0  0  0  1  0  0  0  0  0  0
  194.0310  176.5070  146.5390 O   0  0  0  0  0  0  0  0  0  0  0  0
  1  4  1  0  0  0  0
  2 23  1  0  0  0  0
  3  7  1  0  0  0  0
  3  8  2  0  0  0  0
  4 37  1  6  0  0  0
  6 21  1  0  0  0  0
  7 20  1  0  0  0  0
  8  6  1  0  0  0  0
  8 12  1  0  0  0  0
  9  5  1  0  0  0  0
  9  7  2  0  0  0  0
 10  6  2  0  0  0  0
 11  4  1  0  0  0  0
 12 16  1  0  0  0  0
 13 23  1  0  0  0  0
 14 19  2  0  0  0  0
 15 10  1  0  0  0  0
 16 13  1  0  0  0  0
 17 34  1  1  0  0  0
 17 11  1  0  0  0  0
 18  5  1  0  0  0  0
 19 15  1  0  0  0  0
 19  3  1  0  0  0  0
 20 25  1  0  0  0  0
 20 12  2  0  0  0  0
 21  2  1  0  0  0  0
 22  9  1  0  0  0  0
 24 18  1  1  0  0  0
 24 17  1  0  0  0  0
 24 25  1  0  0  0  0
 25  1  1  0  0  0  0
 26 14  1  0  0  0  0
 26 22  2  0  0  0  0
 28 22  1  0  0  0  0
 28 27  2  0  0  0  0
 29 28  1  0  0  0  0
 30 32  1  0  0  0  0
 31 33  2  0  0  0  0
 32 29  2  0  0  0  0
 32 31  1  0  0  0  0
 33 27  1  0  0  0  0
 35 34  1  0  0  0  0
 36 37  1  0  0  0  0
M  END
>  <MODEL>
9

>  <REMARK>
 VINA RESULT:      -7.4      2.477      3.427
  Name = 
  3 active torsions:
  status: ('A' for Active; 'I' for Inactive)
    1  A    between atoms: C_5  and  O_23
    2  A    between atoms: C_6  and  C_31
    3  A    between atoms: C_11  and  C_26
                            x       y       z     vdW  Elec       q    Type
                         _______ _______ _______ _____ _____    ______ ____

>  <TORSDO>
F 3

$$$$
