=
 OpenBabel11042414413D

 28 30  0  0  1  0  0  0  0  0999 V2000
  186.8630  177.0160  140.3530 S   0  0  0  0  0  0  0  0  0  0  0  0
  187.5920  176.1950  141.6320 C   0  0  0  0  0  0  0  0  0  0  0  0
  185.7290  177.7560  141.3490 C   0  0  0  0  0  0  0  0  0  0  0  0
  186.9820  176.4640  142.8090 N   0  0  0  0  0  0  0  0  0  0  0  0
  185.9390  177.3200  142.6540 C   0  0  0  0  0  0  0  0  0  0  0  0
  189.7460  175.2800  142.5220 N   0  0  0  0  0  2  0  0  0  0  0  0
  188.8360  174.5300  140.5070 O   0  0  0  0  0  0  0  0  0  0  0  0
  188.7400  175.2920  141.5060 C   0  0  0  0  0  0  0  0  0  0  0  0
  190.8820  174.3700  142.4940 C   0  0  0  0  0  2  0  0  0  0  0  0
  192.1270  175.1230  142.4190 N   0  0  0  0  0  2  0  0  0  0  0  0
  193.0710  175.1830  143.4910 C   0  0  0  0  0  0  0  0  0  0  0  0
  195.1930  176.0010  144.3700 C   0  0  2  0  0  3  0  0  0  0  0  0
  192.7890  174.5070  144.8040 C   0  0  0  0  0  2  0  0  0  0  0  0
  196.4890  176.1480  143.7290 N   0  0  0  0  0  1  0  0  0  0  0  0
  195.1870  174.8210  145.3320 C   0  0  0  0  0  0  0  0  0  0  0  0
  194.1730  175.8520  143.3270 N   0  0  0  0  0  0  0  0  0  0  0  0
  194.0630  174.1200  145.4930 C   0  0  0  0  0  3  0  0  0  0  0  0
  196.8670  173.1590  146.0950 C   0  0  0  0  0  1  0  0  0  0  0  0
  196.2970  174.4590  146.1040 O   0  0  0  0  0  0  0  0  0  0  0  0
  185.1240  177.7770  143.8150 C   0  0  0  0  0  2  0  0  0  0  0  0
  185.9090  178.5790  144.6540 O   0  0  0  0  0  0  0  0  0  0  0  0
  186.3700  176.7180  146.2920 C   0  0  0  0  0  1  0  0  0  0  0  0
  185.4420  179.0490  147.0580 C   0  0  0  0  0  2  0  0  0  0  0  0
  185.7580  178.0650  145.9490 C   0  0  0  0  0  0  0  0  0  0  0  0
  184.3370  178.2000  146.4430 C   0  0  0  0  0  2  0  0  0  0  0  0
  184.6440  178.6630  140.8810 C   0  0  0  0  0  2  0  0  0  0  0  0
  183.7190  177.9410  140.1290 O   0  0  0  0  0  0  0  0  0  0  0  0
  182.5590  178.0540  140.8170 N   0  0  0  0  0  1  0  0  0  0  0  0
  1  3  1  0  0  0  0
  1  2  1  0  0  0  0
  2  4  2  0  0  0  0
  3  5  2  0  0  0  0
  5  4  1  0  0  0  0
  5 20  1  0  0  0  0
  7  8  2  0  0  0  0
  8  2  1  0  0  0  0
  8  6  1  0  0  0  0
  9  6  1  0  0  0  0
 10  9  1  0  0  0  0
 10 11  1  0  0  0  0
 11 13  1  0  0  0  0
 12 14  1  6  0  0  0
 12 15  1  0  0  0  0
 13 17  1  0  0  0  0
 15 17  2  0  0  0  0
 15 19  1  0  0  0  0
 16 11  2  0  0  0  0
 16 12  1  0  0  0  0
 18 19  1  0  0  0  0
 20 21  1  0  0  0  0
 21 24  1  0  0  0  0
 24 22  1  0  0  0  0
 24 25  1  0  0  0  0
 24 23  1  0  0  0  0
 25 23  1  0  0  0  0
 26  3  1  0  0  0  0
 27 28  1  0  0  0  0
 27 26  1  0  0  0  0
M  END
>  <MODEL>
1

>  <REMARK>
 VINA RESULT:      -6.2      0.000      0.000
  Name = 
  9 active torsions:
  status: ('A' for Active; 'I' for Inactive)
    1  A    between atoms: N_2  and  C_22
    2  A    between atoms: O_4  and  C_13
    3  A    between atoms: O_4  and  C_15
    4  A    between atoms: O_9  and  C_17
    5  A    between atoms: C_10  and  C_25
    6  A    between atoms: N_12  and  C_22
    7  A    between atoms: C_13  and  C_24
    8  A    between atoms: C_14  and  C_17
    9  A    between atoms: C_19  and  O_28
                            x       y       z     vdW  Elec       q    Type
                         _______ _______ _______ _____ _____    ______ ____

>  <TORSDO>
F 9

$$$$
=
 OpenBabel11042414413D

 28 30  0  0  1  0  0  0  0  0999 V2000
  190.2360  176.8030  143.0670 S   0  0  0  0  0  0  0  0  0  0  0  0
  190.4260  176.7790  144.7420 C   0  0  0  0  0  0  0  0  0  0  0  0
  188.5660  176.9590  143.1630 C   0  0  0  0  0  0  0  0  0  0  0  0
  189.2380  176.8780  145.3800 N   0  0  0  0  0  0  0  0  0  0  0  0
  188.2010  176.9640  144.5070 C   0  0  0  0  0  0  0  0  0  0  0  0
  192.9160  177.0410  144.7760 N   0  0  0  0  0  2  0  0  0  0  0  0
  191.7440  176.2280  146.6250 O   0  0  0  0  0  0  0  0  0  0  0  0
  191.7090  176.6610  145.4410 C   0  0  0  0  0  0  0  0  0  0  0  0
  194.2180  177.0060  145.4280 C   0  0  0  0  0  2  0  0  0  0  0  0
  195.2340  176.5400  144.4930 N   0  0  0  0  0  2  0  0  0  0  0  0
  195.9630  175.3220  144.6710 C   0  0  0  0  0  0  0  0  0  0  0  0
  197.6480  173.7530  143.8710 C   0  0  2  0  0  3  0  0  0  0  0  0
  195.7570  174.4750  145.8960 C   0  0  0  0  0  2  0  0  0  0  0  0
  197.9410  173.2830  142.5270 N   0  0  0  0  0  1  0  0  0  0  0  0
  196.9550  172.6750  144.6910 C   0  0  0  0  0  0  0  0  0  0  0  0
  196.8280  174.9650  143.7700 N   0  0  0  0  0  0  0  0  0  0  0  0
  196.0530  173.0340  145.6070 C   0  0  0  0  0  3  0  0  0  0  0  0
  197.2650  170.4120  145.6680 C   0  0  0  0  0  1  0  0  0  0  0  0
  197.2540  171.3130  144.5700 O   0  0  0  0  0  0  0  0  0  0  0  0
  186.7930  177.0990  144.9760 C   0  0  0  0  0  2  0  0  0  0  0  0
  186.5100  178.4470  145.2350 O   0  0  0  0  0  0  0  0  0  0  0  0
  186.2610  178.8820  147.7070 C   0  0  0  0  0  1  0  0  0  0  0  0
  184.1870  178.5640  146.1330 C   0  0  0  0  0  2  0  0  0  0  0  0
  185.6810  178.4670  146.3650 C   0  0  0  0  0  0  0  0  0  0  0  0
  184.8300  177.2230  146.4590 C   0  0  0  0  0  2  0  0  0  0  0  0
  187.6440  177.0060  141.9940 C   0  0  0  0  0  2  0  0  0  0  0  0
  187.3190  178.3300  141.7050 O   0  0  0  0  0  0  0  0  0  0  0  0
  185.9690  178.3320  141.5960 N   0  0  0  0  0  1  0  0  0  0  0  0
  1  3  1  0  0  0  0
  1  2  1  0  0  0  0
  2  4  2  0  0  0  0
  2  8  1  0  0  0  0
  3  5  2  0  0  0  0
  5 20  1  0  0  0  0
  5  4  1  0  0  0  0
  6  9  1  0  0  0  0
  6  8  1  0  0  0  0
  8  7  2  0  0  0  0
 10 11  1  0  0  0  0
 10  9  1  0  0  0  0
 11 13  1  0  0  0  0
 12 14  1  6  0  0  0
 12 15  1  0  0  0  0
 15 17  2  0  0  0  0
 16 12  1  0  0  0  0
 16 11  2  0  0  0  0
 17 13  1  0  0  0  0
 19 15  1  0  0  0  0
 19 18  1  0  0  0  0
 20 21  1  0  0  0  0
 21 24  1  0  0  0  0
 23 24  1  0  0  0  0
 23 25  1  0  0  0  0
 24 25  1  0  0  0  0
 24 22  1  0  0  0  0
 26  3  1  0  0  0  0
 27 26  1  0  0  0  0
 28 27  1  0  0  0  0
M  END
>  <MODEL>
2

>  <REMARK>
 VINA RESULT:      -6.1      2.504      3.523
  Name = 
  9 active torsions:
  status: ('A' for Active; 'I' for Inactive)
    1  A    between atoms: N_2  and  C_22
    2  A    between atoms: O_4  and  C_13
    3  A    between atoms: O_4  and  C_15
    4  A    between atoms: O_9  and  C_17
    5  A    between atoms: C_10  and  C_25
    6  A    between atoms: N_12  and  C_22
    7  A    between atoms: C_13  and  C_24
    8  A    between atoms: C_14  and  C_17
    9  A    between atoms: C_19  and  O_28
                            x       y       z     vdW  Elec       q    Type
                         _______ _______ _______ _____ _____    ______ ____

>  <TORSDO>
F 9

$$$$
=
 OpenBabel11042414413D

 28 30  0  0  1  0  0  0  0  0999 V2000
  189.5860  175.7430  142.7610 S   0  0  0  0  0  0  0  0  0  0  0  0
  189.2570  175.7910  144.4130 C   0  0  0  0  0  0  0  0  0  0  0  0
  188.0380  176.2430  142.3410 C   0  0  0  0  0  0  0  0  0  0  0  0
  187.9820  176.1720  144.6570 N   0  0  0  0  0  0  0  0  0  0  0  0
  187.2980  176.4110  143.5080 C   0  0  0  0  0  0  0  0  0  0  0  0
  191.1770  176.4330  145.8870 N   0  0  0  0  0  2  0  0  0  0  0  0
  190.1890  174.3210  146.0120 O   0  0  0  0  0  0  0  0  0  0  0  0
  190.2160  175.4600  145.4710 C   0  0  0  0  0  0  0  0  0  0  0  0
  192.1200  176.1950  146.9710 C   0  0  0  0  0  2  0  0  0  0  0  0
  193.4860  176.3650  146.4930 N   0  0  0  0  0  2  0  0  0  0  0  0
  194.2510  175.3060  145.9110 C   0  0  0  0  0  0  0  0  0  0  0  0
  196.3290  174.5350  144.8960 C   0  0  2  0  0  3  0  0  0  0  0  0
  193.6910  173.9130  145.8210 C   0  0  0  0  0  2  0  0  0  0  0  0
  197.2110  175.1820  143.9390 N   0  0  0  0  0  1  0  0  0  0  0  0
  195.5300  173.4190  144.2390 C   0  0  0  0  0  0  0  0  0  0  0  0
  195.4510  175.5550  145.4810 N   0  0  0  0  0  0  0  0  0  0  0  0
  194.2900  173.1680  144.6660 C   0  0  0  0  0  3  0  0  0  0  0  0
  195.5090  172.5210  141.9230 C   0  0  0  0  0  1  0  0  0  0  0  0
  196.0510  172.5970  143.2330 O   0  0  0  0  0  0  0  0  0  0  0  0
  185.8770  176.8610  143.5250 C   0  0  0  0  0  2  0  0  0  0  0  0
  185.4590  177.0480  144.8490 O   0  0  0  0  0  0  0  0  0  0  0  0
  185.3300  179.3360  143.7930 C   0  0  0  0  0  1  0  0  0  0  0  0
  184.0140  178.7360  145.9810 C   0  0  0  0  0  2  0  0  0  0  0  0
  185.0770  178.3930  144.9570 C   0  0  0  0  0  0  0  0  0  0  0  0
  185.4850  178.9860  146.2850 C   0  0  0  0  0  2  0  0  0  0  0  0
  187.5390  176.4000  140.9460 C   0  0  0  0  0  2  0  0  0  0  0  0
  187.3900  177.7540  140.6500 O   0  0  0  0  0  0  0  0  0  0  0  0
  186.1540  177.8480  140.1050 N   0  0  0  0  0  1  0  0  0  0  0  0
  1  2  1  0  0  0  0
  2  4  2  0  0  0  0
  2  8  1  0  0  0  0
  3  1  1  0  0  0  0
  3  5  2  0  0  0  0
  5 20  1  0  0  0  0
  5  4  1  0  0  0  0
  6  9  1  0  0  0  0
  8  6  1  0  0  0  0
  8  7  2  0  0  0  0
 10  9  1  0  0  0  0
 11 10  1  0  0  0  0
 12 14  1  6  0  0  0
 12 16  1  0  0  0  0
 13 11  1  0  0  0  0
 15 17  2  0  0  0  0
 15 12  1  0  0  0  0
 16 11  2  0  0  0  0
 17 13  1  0  0  0  0
 18 19  1  0  0  0  0
 19 15  1  0  0  0  0
 20 21  1  0  0  0  0
 21 24  1  0  0  0  0
 22 24  1  0  0  0  0
 23 25  1  0  0  0  0
 24 23  1  0  0  0  0
 24 25  1  0  0  0  0
 26  3  1  0  0  0  0
 27 26  1  0  0  0  0
 28 27  1  0  0  0  0
M  END
>  <MODEL>
3

>  <REMARK>
 VINA RESULT:      -6.0      2.525      3.134
  Name = 
  9 active torsions:
  status: ('A' for Active; 'I' for Inactive)
    1  A    between atoms: N_2  and  C_22
    2  A    between atoms: O_4  and  C_13
    3  A    between atoms: O_4  and  C_15
    4  A    between atoms: O_9  and  C_17
    5  A    between atoms: C_10  and  C_25
    6  A    between atoms: N_12  and  C_22
    7  A    between atoms: C_13  and  C_24
    8  A    between atoms: C_14  and  C_17
    9  A    between atoms: C_19  and  O_28
                            x       y       z     vdW  Elec       q    Type
                         _______ _______ _______ _____ _____    ______ ____

>  <TORSDO>
F 9

$$$$
=
 OpenBabel11042414413D

 28 30  0  0  1  0  0  0  0  0999 V2000
  186.2360  177.8830  142.7090 S   0  0  0  0  0  0  0  0  0  0  0  0
  185.1630  178.1170  143.9880 C   0  0  0  0  0  0  0  0  0  0  0  0
  185.0350  178.0510  141.5450 C   0  0  0  0  0  0  0  0  0  0  0  0
  183.8980  178.3120  143.5480 N   0  0  0  0  0  0  0  0  0  0  0  0
  183.8210  178.2620  142.1930 C   0  0  0  0  0  0  0  0  0  0  0  0
  186.8070  177.6040  145.8050 N   0  0  0  0  0  2  0  0  0  0  0  0
  184.7230  178.5480  146.2690 O   0  0  0  0  0  0  0  0  0  0  0  0
  185.5300  178.1090  145.4070 C   0  0  0  0  0  0  0  0  0  0  0  0
  187.2630  177.6190  147.1880 C   0  0  0  0  0  2  0  0  0  0  0  0
  188.7150  177.7250  147.2370 N   0  0  0  0  0  2  0  0  0  0  0  0
  189.5890  176.6150  147.0120 C   0  0  0  0  0  0  0  0  0  0  0  0
  191.8570  175.7330  146.8550 C   0  0  2  0  0  3  0  0  0  0  0  0
  189.0380  175.2370  146.7740 C   0  0  0  0  0  2  0  0  0  0  0  0
  193.0550  176.3050  146.2640 N   0  0  0  0  0  1  0  0  0  0  0  0
  191.3010  174.6100  145.9920 C   0  0  0  0  0  0  0  0  0  0  0  0
  190.8740  176.8060  147.0420 N   0  0  0  0  0  0  0  0  0  0  0  0
  189.9810  174.4180  145.9450 C   0  0  0  0  0  3  0  0  0  0  0  0
  191.6560  172.9570  144.1720 C   0  0  0  0  0  1  0  0  0  0  0  0
  192.1140  173.7230  145.2760 O   0  0  0  0  0  0  0  0  0  0  0  0
  182.5310  178.4660  141.4760 C   0  0  0  0  0  2  0  0  0  0  0  0
  181.5820  179.0000  142.3580 O   0  0  0  0  0  0  0  0  0  0  0  0
  180.1680  180.1020  140.5820 C   0  0  0  0  0  1  0  0  0  0  0  0
  179.5300  177.7830  141.6310 C   0  0  0  0  0  2  0  0  0  0  0  0
  180.3700  179.0450  141.6550 C   0  0  0  0  0  0  0  0  0  0  0  0
  179.1820  178.9220  142.5800 C   0  0  0  0  0  2  0  0  0  0  0  0
  185.2450  177.9160  140.0760 C   0  0  0  0  0  2  0  0  0  0  0  0
  186.5650  177.5470  139.8220 O   0  0  0  0  0  0  0  0  0  0  0  0
  186.5060  176.8610  138.6560 N   0  0  0  0  0  1  0  0  0  0  0  0
  1  2  1  0  0  0  0
  2  8  1  0  0  0  0
  3  5  2  0  0  0  0
  3  1  1  0  0  0  0
  4  2  2  0  0  0  0
  5  4  1  0  0  0  0
  6  9  1  0  0  0  0
  8  6  1  0  0  0  0
  8  7  2  0  0  0  0
  9 10  1  0  0  0  0
 11 16  2  0  0  0  0
 11 10  1  0  0  0  0
 12 14  1  6  0  0  0
 12 16  1  0  0  0  0
 13 11  1  0  0  0  0
 15 12  1  0  0  0  0
 17 15  2  0  0  0  0
 17 13  1  0  0  0  0
 18 19  1  0  0  0  0
 19 15  1  0  0  0  0
 20  5  1  0  0  0  0
 20 21  1  0  0  0  0
 22 24  1  0  0  0  0
 23 24  1  0  0  0  0
 23 25  1  0  0  0  0
 24 21  1  0  0  0  0
 24 25  1  0  0  0  0
 26  3  1  0  0  0  0
 27 26  1  0  0  0  0
 28 27  1  0  0  0  0
M  END
>  <MODEL>
4

>  <REMARK>
 VINA RESULT:      -6.0      3.284      5.173
  Name = 
  9 active torsions:
  status: ('A' for Active; 'I' for Inactive)
    1  A    between atoms: N_2  and  C_22
    2  A    between atoms: O_4  and  C_13
    3  A    between atoms: O_4  and  C_15
    4  A    between atoms: O_9  and  C_17
    5  A    between atoms: C_10  and  C_25
    6  A    between atoms: N_12  and  C_22
    7  A    between atoms: C_13  and  C_24
    8  A    between atoms: C_14  and  C_17
    9  A    between atoms: C_19  and  O_28
                            x       y       z     vdW  Elec       q    Type
                         _______ _______ _______ _____ _____    ______ ____

>  <TORSDO>
F 9

$$$$
=
 OpenBabel11042414413D

 28 30  0  0  1  0  0  0  0  0999 V2000
  187.4480  176.6130  140.7890 S   0  0  0  0  0  0  0  0  0  0  0  0
  187.8570  175.7130  142.1540 C   0  0  0  0  0  0  0  0  0  0  0  0
  186.2380  177.4590  141.5920 C   0  0  0  0  0  0  0  0  0  0  0  0
  187.0820  176.0360  143.2150 N   0  0  0  0  0  0  0  0  0  0  0  0
  186.1730  176.9950  142.9030 C   0  0  0  0  0  0  0  0  0  0  0  0
  189.1870  174.0230  143.4370 N   0  0  0  0  0  2  0  0  0  0  0  0
  189.5740  174.4220  141.1690 O   0  0  0  0  0  0  0  0  0  0  0  0
  188.9130  174.6980  142.2060 C   0  0  0  0  0  0  0  0  0  0  0  0
  190.1800  172.9640  143.5490 C   0  0  0  0  0  2  0  0  0  0  0  0
  191.1510  173.2940  144.5850 N   0  0  0  0  0  2  0  0  0  0  0  0
  192.4250  173.8790  144.3050 C   0  0  0  0  0  0  0  0  0  0  0  0
  194.5550  174.7470  145.1150 C   0  0  2  0  0  3  0  0  0  0  0  0
  192.8630  174.1290  142.8890 C   0  0  0  0  0  2  0  0  0  0  0  0
  194.8630  175.5640  146.2770 N   0  0  0  0  0  1  0  0  0  0  0  0
  194.6490  175.5610  143.8320 C   0  0  0  0  0  0  0  0  0  0  0  0
  193.2170  174.1730  145.2930 N   0  0  0  0  0  0  0  0  0  0  0  0
  193.8280  175.2750  142.8190 C   0  0  0  0  0  3  0  0  0  0  0  0
  196.9470  176.3210  143.2770 C   0  0  0  0  0  1  0  0  0  0  0  0
  195.5970  176.5710  143.6360 O   0  0  0  0  0  0  0  0  0  0  0  0
  185.2180  177.5260  143.9170 C   0  0  0  0  0  2  0  0  0  0  0  0
  185.2780  176.7400  145.0750 O   0  0  0  0  0  0  0  0  0  0  0  0
  186.5910  177.1400  147.1920 C   0  0  0  0  0  1  0  0  0  0  0  0
  185.4030  179.0900  145.9000 C   0  0  0  0  0  2  0  0  0  0  0  0
  185.6150  177.6060  146.1250 C   0  0  0  0  0  0  0  0  0  0  0  0
  184.3960  178.2820  146.7070 C   0  0  0  0  0  2  0  0  0  0  0  0
  185.3470  178.4760  140.9660 C   0  0  0  0  0  2  0  0  0  0  0  0
  184.4390  177.8460  140.1170 O   0  0  0  0  0  0  0  0  0  0  0  0
  183.2250  178.1500  140.6340 N   0  0  0  0  0  1  0  0  0  0  0  0
  1  3  1  0  0  0  0
  1  2  1  0  0  0  0
  2  8  1  0  0  0  0
  2  4  2  0  0  0  0
  3  5  2  0  0  0  0
  5  4  1  0  0  0  0
  5 20  1  0  0  0  0
  6  9  1  0  0  0  0
  7  8  2  0  0  0  0
  8  6  1  0  0  0  0
  9 10  1  0  0  0  0
 11 10  1  0  0  0  0
 11 16  2  0  0  0  0
 12 16  1  0  0  0  0
 12 14  1  1  0  0  0
 13 11  1  0  0  0  0
 15 12  1  0  0  0  0
 17 13  1  0  0  0  0
 17 15  2  0  0  0  0
 18 19  1  0  0  0  0
 19 15  1  0  0  0  0
 20 21  1  0  0  0  0
 21 24  1  0  0  0  0
 23 24  1  0  0  0  0
 23 25  1  0  0  0  0
 24 25  1  0  0  0  0
 24 22  1  0  0  0  0
 26  3  1  0  0  0  0
 27 28  1  0  0  0  0
 27 26  1  0  0  0  0
M  END
>  <MODEL>
5

>  <REMARK>
 VINA RESULT:      -5.9      1.564      1.838
  Name = 
  9 active torsions:
  status: ('A' for Active; 'I' for Inactive)
    1  A    between atoms: N_2  and  C_22
    2  A    between atoms: O_4  and  C_13
    3  A    between atoms: O_4  and  C_15
    4  A    between atoms: O_9  and  C_17
    5  A    between atoms: C_10  and  C_25
    6  A    between atoms: N_12  and  C_22
    7  A    between atoms: C_13  and  C_24
    8  A    between atoms: C_14  and  C_17
    9  A    between atoms: C_19  and  O_28
                            x       y       z     vdW  Elec       q    Type
                         _______ _______ _______ _____ _____    ______ ____

>  <TORSDO>
F 9

$$$$
=
 OpenBabel11042414413D

 28 30  0  0  1  0  0  0  0  0999 V2000
  190.1010  176.1020  147.1870 S   0  0  0  0  0  0  0  0  0  0  0  0
  191.1070  175.9640  145.8410 C   0  0  0  0  0  0  0  0  0  0  0  0
  188.7220  176.3240  146.2530 C   0  0  0  0  0  0  0  0  0  0  0  0
  190.4150  176.0950  144.6860 N   0  0  0  0  0  0  0  0  0  0  0  0
  189.0920  176.3080  144.9110 C   0  0  0  0  0  0  0  0  0  0  0  0
  193.4410  176.6840  145.2910 N   0  0  0  0  0  2  0  0  0  0  0  0
  193.0120  174.7130  146.4660 O   0  0  0  0  0  0  0  0  0  0  0  0
  192.5540  175.7370  145.8920 C   0  0  0  0  0  0  0  0  0  0  0  0
  194.8900  176.5550  145.3530 C   0  0  0  0  0  2  0  0  0  0  0  0
  195.3590  175.6550  144.3070 N   0  0  0  0  0  2  0  0  0  0  0  0
  196.1510  174.4940  144.5700 C   0  0  0  0  0  0  0  0  0  0  0  0
  197.3320  172.5310  143.7360 C   0  0  2  0  0  3  0  0  0  0  0  0
  196.6040  174.1710  145.9670 C   0  0  0  0  0  2  0  0  0  0  0  0
  196.9720  171.5810  142.6970 N   0  0  0  0  0  1  0  0  0  0  0  0
  197.1780  171.9170  145.1200 C   0  0  0  0  0  0  0  0  0  0  0  0
  196.4980  173.7280  143.5800 N   0  0  0  0  0  0  0  0  0  0  0  0
  196.8060  172.6960  146.1380 C   0  0  0  0  0  3  0  0  0  0  0  0
  196.6730  169.7720  146.2640 C   0  0  0  0  0  1  0  0  0  0  0  0
  197.4580  170.5740  145.3950 O   0  0  0  0  0  0  0  0  0  0  0  0
  188.1250  176.4660  143.7880 C   0  0  0  0  0  2  0  0  0  0  0  0
  187.8520  177.8260  143.5900 O   0  0  0  0  0  0  0  0  0  0  0  0
  185.5900  176.7130  143.6870 C   0  0  0  0  0  1  0  0  0  0  0  0
  185.8550  179.3190  143.5420 C   0  0  0  0  0  2  0  0  0  0  0  0
  186.4620  177.9330  143.4440 C   0  0  0  0  0  0  0  0  0  0  0  0
  186.0860  178.6740  142.1820 C   0  0  0  0  0  2  0  0  0  0  0  0
  187.3560  176.5710  146.7920 C   0  0  0  0  0  2  0  0  0  0  0  0
  187.1740  177.9370  147.0040 O   0  0  0  0  0  0  0  0  0  0  0  0
  185.8560  178.0640  147.2850 N   0  0  0  0  0  1  0  0  0  0  0  0
  2  8  1  0  0  0  0
  2  1  1  0  0  0  0
  3 26  1  0  0  0  0
  3  1  1  0  0  0  0
  4  5  1  0  0  0  0
  4  2  2  0  0  0  0
  5  3  2  0  0  0  0
  6  9  1  0  0  0  0
  6  8  1  0  0  0  0
  8  7  2  0  0  0  0
 10 11  1  0  0  0  0
 10  9  1  0  0  0  0
 11 13  1  0  0  0  0
 12 14  1  6  0  0  0
 12 15  1  0  0  0  0
 13 17  1  0  0  0  0
 15 19  1  0  0  0  0
 15 17  2  0  0  0  0
 16 12  1  0  0  0  0
 16 11  2  0  0  0  0
 19 18  1  0  0  0  0
 20  5  1  0  0  0  0
 21 20  1  0  0  0  0
 24 23  1  0  0  0  0
 24 21  1  0  0  0  0
 24 22  1  0  0  0  0
 25 24  1  0  0  0  0
 25 23  1  0  0  0  0
 26 27  1  0  0  0  0
 27 28  1  0  0  0  0
M  END
>  <MODEL>
6

>  <REMARK>
 VINA RESULT:      -5.8      3.220      4.850
  Name = 
  9 active torsions:
  status: ('A' for Active; 'I' for Inactive)
    1  A    between atoms: N_2  and  C_22
    2  A    between atoms: O_4  and  C_13
    3  A    between atoms: O_4  and  C_15
    4  A    between atoms: O_9  and  C_17
    5  A    between atoms: C_10  and  C_25
    6  A    between atoms: N_12  and  C_22
    7  A    between atoms: C_13  and  C_24
    8  A    between atoms: C_14  and  C_17
    9  A    between atoms: C_19  and  O_28
                            x       y       z     vdW  Elec       q    Type
                         _______ _______ _______ _____ _____    ______ ____

>  <TORSDO>
F 9

$$$$
=
 OpenBabel11042414413D

 28 30  0  0  1  0  0  0  0  0999 V2000
  186.7010  176.7530  146.2170 S   0  0  0  0  0  0  0  0  0  0  0  0
  188.3380  176.7930  145.8140 C   0  0  0  0  0  0  0  0  0  0  0  0
  186.2440  177.6040  144.8420 C   0  0  0  0  0  0  0  0  0  0  0  0
  188.5500  177.4540  144.6530 N   0  0  0  0  0  0  0  0  0  0  0  0
  187.3910  177.9170  144.1170 C   0  0  0  0  0  0  0  0  0  0  0  0
  190.5540  176.9880  146.9640 N   0  0  0  0  0  2  0  0  0  0  0  0
  189.3320  174.9980  146.9860 O   0  0  0  0  0  0  0  0  0  0  0  0
  189.4150  176.1990  146.6120 C   0  0  0  0  0  0  0  0  0  0  0  0
  191.6330  176.4830  147.8010 C   0  0  0  0  0  2  0  0  0  0  0  0
  192.9230  176.7910  147.1980 N   0  0  0  0  0  2  0  0  0  0  0  0
  193.5660  175.9380  146.2470 C   0  0  0  0  0  0  0  0  0  0  0  0
  195.4580  175.4940  144.7750 C   0  0  2  0  0  3  0  0  0  0  0  0
  192.9600  174.6170  145.8640 C   0  0  0  0  0  2  0  0  0  0  0  0
  196.2160  176.3850  143.9130 N   0  0  0  0  0  1  0  0  0  0  0  0
  194.5430  174.5900  143.9620 C   0  0  0  0  0  0  0  0  0  0  0  0
  194.7020  176.3060  145.7330 N   0  0  0  0  0  0  0  0  0  0  0  0
  193.3690  174.2200  144.4770 C   0  0  0  0  0  3  0  0  0  0  0  0
  194.2750  174.4820  141.4950 C   0  0  0  0  0  1  0  0  0  0  0  0
  194.8930  174.0780  142.7070 O   0  0  0  0  0  0  0  0  0  0  0  0
  187.3710  178.6630  142.8260 C   0  0  0  0  0  2  0  0  0  0  0  0
  188.1670  177.9960  141.8860 O   0  0  0  0  0  0  0  0  0  0  0  0
  187.6610  175.5970  141.2910 C   0  0  0  0  0  1  0  0  0  0  0  0
  185.9070  177.5160  140.9470 C   0  0  0  0  0  2  0  0  0  0  0  0
  187.3280  177.0790  141.2370 C   0  0  0  0  0  0  0  0  0  0  0  0
  186.9600  177.5420  139.8470 C   0  0  0  0  0  2  0  0  0  0  0  0
  184.8490  178.0100  144.5120 C   0  0  0  0  0  2  0  0  0  0  0  0
  184.5470  179.2120  145.1500 O   0  0  0  0  0  0  0  0  0  0  0  0
  183.6920  178.8650  146.1410 N   0  0  0  0  0  1  0  0  0  0  0  0
  2  1  1  0  0  0  0
  2  8  1  0  0  0  0
  3  1  1  0  0  0  0
  4  2  2  0  0  0  0
  5  4  1  0  0  0  0
  5  3  2  0  0  0  0
  6  9  1  0  0  0  0
  8  6  1  0  0  0  0
  8  7  2  0  0  0  0
 10  9  1  0  0  0  0
 11 10  1  0  0  0  0
 12 14  1  6  0  0  0
 12 16  1  0  0  0  0
 13 11  1  0  0  0  0
 15 17  2  0  0  0  0
 15 12  1  0  0  0  0
 16 11  2  0  0  0  0
 17 13  1  0  0  0  0
 18 19  1  0  0  0  0
 19 15  1  0  0  0  0
 20  5  1  0  0  0  0
 21 20  1  0  0  0  0
 23 24  1  0  0  0  0
 24 22  1  0  0  0  0
 24 21  1  0  0  0  0
 25 23  1  0  0  0  0
 25 24  1  0  0  0  0
 26  3  1  0  0  0  0
 26 27  1  0  0  0  0
 27 28  1  0  0  0  0
M  END
>  <MODEL>
7

>  <REMARK>
 VINA RESULT:      -5.7      2.893      4.345
  Name = 
  9 active torsions:
  status: ('A' for Active; 'I' for Inactive)
    1  A    between atoms: N_2  and  C_22
    2  A    between atoms: O_4  and  C_13
    3  A    between atoms: O_4  and  C_15
    4  A    between atoms: O_9  and  C_17
    5  A    between atoms: C_10  and  C_25
    6  A    between atoms: N_12  and  C_22
    7  A    between atoms: C_13  and  C_24
    8  A    between atoms: C_14  and  C_17
    9  A    between atoms: C_19  and  O_28
                            x       y       z     vdW  Elec       q    Type
                         _______ _______ _______ _____ _____    ______ ____

>  <TORSDO>
F 9

$$$$
=
 OpenBabel11042414413D

 28 30  0  0  1  0  0  0  0  0999 V2000
  185.8770  178.3490  142.5630 S   0  0  0  0  0  0  0  0  0  0  0  0
  187.0250  177.1190  142.4560 C   0  0  0  0  0  0  0  0  0  0  0  0
  186.0490  178.4950  144.2280 C   0  0  0  0  0  0  0  0  0  0  0  0
  187.5330  176.8050  143.6700 N   0  0  0  0  0  0  0  0  0  0  0  0
  186.9840  177.5580  144.6580 C   0  0  0  0  0  0  0  0  0  0  0  0
  188.1810  175.2370  141.2760 N   0  0  0  0  0  2  0  0  0  0  0  0
  187.1170  176.9520  140.1010 O   0  0  0  0  0  0  0  0  0  0  0  0
  187.4310  176.4530  141.2150 C   0  0  0  0  0  0  0  0  0  0  0  0
  188.5680  174.4910  140.0870 C   0  0  0  0  0  2  0  0  0  0  0  0
  189.1750  173.2220  140.4660 N   0  0  0  0  0  2  0  0  0  0  0  0
  190.3620  173.1270  141.2580 C   0  0  0  0  0  0  0  0  0  0  0  0
  192.0390  171.7420  142.3610 C   0  0  2  0  0  3  0  0  0  0  0  0
  191.0970  174.3630  141.6950 C   0  0  0  0  0  2  0  0  0  0  0  0
  191.9010  170.5040  143.1080 N   0  0  0  0  0  1  0  0  0  0  0  0
  192.3180  172.9160  143.2890 C   0  0  0  0  0  0  0  0  0  0  0  0
  190.8160  171.9520  141.5790 N   0  0  0  0  0  0  0  0  0  0  0  0
  191.8410  174.1220  142.9740 C   0  0  0  0  0  3  0  0  0  0  0  0
  193.2140  173.8370  145.4140 C   0  0  0  0  0  1  0  0  0  0  0  0
  193.1010  172.8070  144.4440 O   0  0  0  0  0  0  0  0  0  0  0  0
  187.4000  177.4030  146.0810 C   0  0  0  0  0  2  0  0  0  0  0  0
  187.5550  176.0430  146.3800 O   0  0  0  0  0  0  0  0  0  0  0  0
  189.7900  177.0800  146.9240 C   0  0  0  0  0  1  0  0  0  0  0  0
  189.2990  174.5350  147.3310 C   0  0  0  0  0  2  0  0  0  0  0  0
  188.9040  175.8630  146.7160 C   0  0  0  0  0  0  0  0  0  0  0  0
  189.5590  174.8080  145.8550 C   0  0  0  0  0  2  0  0  0  0  0  0
  185.2660  179.4250  145.0890 C   0  0  0  0  0  2  0  0  0  0  0  0
  184.0240  178.8620  145.3810 O   0  0  0  0  0  0  0  0  0  0  0  0
  184.1010  178.5340  146.6920 N   0  0  0  0  0  1  0  0  0  0  0  0
  1  3  1  0  0  0  0
  2  1  1  0  0  0  0
  2  4  2  0  0  0  0
  3  5  2  0  0  0  0
  3 26  1  0  0  0  0
  4  5  1  0  0  0  0
  5 20  1  0  0  0  0
  7  8  2  0  0  0  0
  8  6  1  0  0  0  0
  8  2  1  0  0  0  0
  9 10  1  0  0  0  0
  9  6  1  0  0  0  0
 10 11  1  0  0  0  0
 11 16  2  0  0  0  0
 11 13  1  0  0  0  0
 12 14  1  1  0  0  0
 12 15  1  0  0  0  0
 13 17  1  0  0  0  0
 15 19  1  0  0  0  0
 16 12  1  0  0  0  0
 17 15  2  0  0  0  0
 19 18  1  0  0  0  0
 20 21  1  0  0  0  0
 21 24  1  0  0  0  0
 24 22  1  0  0  0  0
 24 23  1  0  0  0  0
 25 24  1  0  0  0  0
 25 23  1  0  0  0  0
 26 27  1  0  0  0  0
 27 28  1  0  0  0  0
M  END
>  <MODEL>
8

>  <REMARK>
 VINA RESULT:      -5.7      2.990      4.134
  Name = 
  9 active torsions:
  status: ('A' for Active; 'I' for Inactive)
    1  A    between atoms: N_2  and  C_22
    2  A    between atoms: O_4  and  C_13
    3  A    between atoms: O_4  and  C_15
    4  A    between atoms: O_9  and  C_17
    5  A    between atoms: C_10  and  C_25
    6  A    between atoms: N_12  and  C_22
    7  A    between atoms: C_13  and  C_24
    8  A    between atoms: C_14  and  C_17
    9  A    between atoms: C_19  and  O_28
                            x       y       z     vdW  Elec       q    Type
                         _______ _______ _______ _____ _____    ______ ____

>  <TORSDO>
F 9

$$$$
=
 OpenBabel11042414413D

 28 30  0  0  1  0  0  0  0  0999 V2000
  186.9750  176.7490  140.4360 S   0  0  0  0  0  0  0  0  0  0  0  0
  187.5350  175.9870  141.8320 C   0  0  0  0  0  0  0  0  0  0  0  0
  185.8040  177.6210  141.2660 C   0  0  0  0  0  0  0  0  0  0  0  0
  186.8390  176.3760  142.9250 N   0  0  0  0  0  0  0  0  0  0  0  0
  185.8670  177.2730  142.6120 C   0  0  0  0  0  0  0  0  0  0  0  0
  188.8040  174.1970  143.0370 N   0  0  0  0  0  2  0  0  0  0  0  0
  189.4190  174.9080  140.9000 O   0  0  0  0  0  0  0  0  0  0  0  0
  188.6330  175.0170  141.8790 C   0  0  0  0  0  0  0  0  0  0  0  0
  189.8350  173.1730  143.1300 C   0  0  0  0  0  2  0  0  0  0  0  0
  191.0810  173.7570  143.6120 N   0  0  0  0  0  2  0  0  0  0  0  0
  191.1470  174.6490  144.7280 C   0  0  0  0  0  0  0  0  0  0  0  0
  192.4820  176.0370  146.2220 C   0  0  2  0  0  3  0  0  0  0  0  0
  189.8970  175.0900  145.4360 C   0  0  0  0  0  2  0  0  0  0  0  0
  193.7840  175.8010  146.8230 N   0  0  0  0  0  1  0  0  0  0  0  0
  191.3690  175.9030  147.2520 C   0  0  0  0  0  0  0  0  0  0  0  0
  192.3050  175.0970  145.1110 N   0  0  0  0  0  0  0  0  0  0  0  0
  190.1820  175.4290  146.8680 C   0  0  0  0  0  3  0  0  0  0  0  0
  191.5800  177.6610  148.9940 C   0  0  0  0  0  1  0  0  0  0  0  0
  191.5100  176.3030  148.5860 O   0  0  0  0  0  0  0  0  0  0  0  0
  184.9800  177.8590  143.6570 C   0  0  0  0  0  2  0  0  0  0  0  0
  184.9410  177.0100  144.7710 O   0  0  0  0  0  0  0  0  0  0  0  0
  186.6050  177.1300  146.6640 C   0  0  0  0  0  1  0  0  0  0  0  0
  185.2870  179.2400  145.8320 C   0  0  0  0  0  2  0  0  0  0  0  0
  185.4810  177.7370  145.8410 C   0  0  0  0  0  0  0  0  0  0  0  0
  184.4010  178.3550  146.6990 C   0  0  0  0  0  2  0  0  0  0  0  0
  184.8220  178.5480  140.6360 C   0  0  0  0  0  2  0  0  0  0  0  0
  183.8080  177.8130  140.0240 O   0  0  0  0  0  0  0  0  0  0  0  0
  182.6620  178.3540  140.5020 N   0  0  0  0  0  1  0  0  0  0  0  0
  1  3  1  0  0  0  0
  1  2  1  0  0  0  0
  2  8  1  0  0  0  0
  2  4  2  0  0  0  0
  3  5  2  0  0  0  0
  5  4  1  0  0  0  0
  5 20  1  0  0  0  0
  6  9  1  0  0  0  0
  7  8  2  0  0  0  0
  8  6  1  0  0  0  0
  9 10  1  0  0  0  0
 10 11  1  0  0  0  0
 11 16  2  0  0  0  0
 11 13  1  0  0  0  0
 12 14  1  1  0  0  0
 12 15  1  0  0  0  0
 13 17  1  0  0  0  0
 15 19  1  0  0  0  0
 16 12  1  0  0  0  0
 17 15  2  0  0  0  0
 19 18  1  0  0  0  0
 20 21  1  0  0  0  0
 21 24  1  0  0  0  0
 23 24  1  0  0  0  0
 23 25  1  0  0  0  0
 24 22  1  0  0  0  0
 24 25  1  0  0  0  0
 26  3  1  0  0  0  0
 27 28  1  0  0  0  0
 27 26  1  0  0  0  0
M  END
>  <MODEL>
9

>  <REMARK>
 VINA RESULT:      -5.6      2.207      2.630
  Name = 
  9 active torsions:
  status: ('A' for Active; 'I' for Inactive)
    1  A    between atoms: N_2  and  C_22
    2  A    between atoms: O_4  and  C_13
    3  A    between atoms: O_4  and  C_15
    4  A    between atoms: O_9  and  C_17
    5  A    between atoms: C_10  and  C_25
    6  A    between atoms: N_12  and  C_22
    7  A    between atoms: C_13  and  C_24
    8  A    between atoms: C_14  and  C_17
    9  A    between atoms: C_19  and  O_28
                            x       y       z     vdW  Elec       q    Type
                         _______ _______ _______ _____ _____    ______ ____

>  <TORSDO>
F 9

$$$$
