=
 OpenBabel11042414413D

 28 33  0  0  1  0  0  0  0  0999 V2000
  187.3770  176.4420  143.1040 C   0  0  0  0  0  0  0  0  0  0  0  0
  190.3170  174.5730  142.2960 C   0  0  0  0  0  0  0  0  0  0  0  0
  189.4570  174.0770  141.1790 C   0  0  2  0  0  0  0  0  0  0  0  0
  188.2190  174.8740  141.2460 C   0  0  1  0  0  3  0  0  0  0  0  0
  187.6510  176.8710  144.5270 C   0  0  1  0  0  3  0  0  0  0  0  0
  191.5210  174.0780  142.7930 C   0  0  0  0  0  3  0  0  0  0  0  0
  194.2150  176.3020  146.4260 C   0  0  0  0  0  0  0  0  0  0  0  0
  194.4420  175.1210  143.9360 N   0  0  0  0  0  2  0  0  0  0  0  0
  192.0780  174.6760  143.9400 C   0  0  0  0  0  0  0  0  0  0  0  0
  188.2070  173.5040  141.7940 N   0  0  1  0  0  0  0  0  0  0  0  0
  191.4030  175.7700  144.5830 C   0  0  0  0  0  0  0  0  0  0  0  0
  190.2060  176.2550  144.0120 C   0  0  0  0  0  0  0  0  0  0  0  0
  188.4250  175.8430  142.3310 N   0  0  0  0  0  0  0  0  0  0  0  0
  189.3000  177.6620  144.6760 S   0  0  0  0  0  0  0  0  0  0  0  0
  192.8190  175.9100  146.7660 C   0  0  0  0  0  2  0  0  0  0  0  0
  193.4170  174.1720  144.3610 C   0  0  0  0  0  2  0  0  0  0  0  0
  189.2160  172.6490  141.1540 C   0  0  0  0  0  2  0  0  0  0  0  0
  191.8810  176.4230  145.7770 N   0  0  0  0  0  2  0  0  0  0  0  0
  195.1550  175.2770  146.1140 N   0  0  0  0  0  2  0  0  0  0  0  0
  194.5460  177.5150  146.3550 O   0  0  0  0  0  0  0  0  0  0  0  0
  186.2130  176.5210  142.6270 O   0  0  0  0  0  0  0  0  0  0  0  0
  195.5610  175.0160  144.7900 N   0  0  0  0  0  2  0  0  0  0  0  0
  189.7100  175.6370  142.8750 C   0  0  0  0  0  0  0  0  0  0  0  0
  186.6290  177.7970  144.9930 N   0  0  0  0  0  2  0  0  0  0  0  0
  185.7950  177.0810  145.9470 C   0  0  1  0  0  3  0  0  0  0  0  0
  186.5980  176.7520  147.1920 C   0  0  0  0  0  1  0  0  0  0  0  0
  184.5540  177.8970  146.2990 C   0  0  0  0  0  2  0  0  0  0  0  0
  184.1470  178.7380  145.1840 N   0  0  0  0  0  1  0  0  0  0  0  0
  1  5  1  0  0  0  0
  2  6  2  0  0  0  0
  2 23  1  0  0  0  0
  3 17  1  6  0  0  0
  3  4  1  0  0  0  0
  3 10  1  0  0  0  0
  3  2  1  0  0  0  0
  4 10  1  0  0  0  0
  4 13  1  1  0  0  0
  5 14  1  0  0  0  0
  5 24  1  6  0  0  0
  6  9  1  0  0  0  0
  7 15  1  0  0  0  0
  8 16  1  0  0  0  0
  8 22  1  0  0  0  0
  9 16  1  0  0  0  0
  9 11  2  0  0  0  0
 10 17  1  6  0  0  0
 11 18  1  0  0  0  0
 12 11  1  0  0  0  0
 12 14  1  0  0  0  0
 13 23  1  0  0  0  0
 13  1  1  0  0  0  0
 18 15  1  0  0  0  0
 19  7  1  0  0  0  0
 20  7  2  0  0  0  0
 21  1  2  0  0  0  0
 22 19  1  0  0  0  0
 23 12  2  0  0  0  0
 24 25  1  0  0  0  0
 25 27  1  0  0  0  0
 25 26  1  1  0  0  0
 28 27  1  0  0  0  0
M  END
>  <MODEL>
1

>  <REMARK>
 VINA RESULT:      -7.4      0.000      0.000
  Name = 
  3 active torsions:
  status: ('A' for Active; 'I' for Inactive)
    1  A    between atoms: C_1  and  C_7
    2  A    between atoms: N_6  and  C_7
    3  A    between atoms: N_6  and  C_8
                            x       y       z     vdW  Elec       q    Type
                         _______ _______ _______ _____ _____    ______ ____

>  <TORSDO>
F 3

$$$$
=
 OpenBabel11042414413D

 28 33  0  0  1  0  0  0  0  0999 V2000
  187.2610  177.6140  144.6500 C   0  0  0  0  0  0  0  0  0  0  0  0
  189.4800  174.9360  145.4800 C   0  0  0  0  0  0  0  0  0  0  0  0
  189.2910  175.4690  146.8630 C   0  0  2  0  0  0  0  0  0  0  0  0
  188.2530  176.5090  146.7510 C   0  0  1  0  0  3  0  0  0  0  0  0
  187.4500  177.7360  143.1550 C   0  0  1  0  0  3  0  0  0  0  0  0
  190.4350  174.0550  144.9780 C   0  0  0  0  0  3  0  0  0  0  0  0
  190.4720  172.3110  140.2490 C   0  0  0  0  0  0  0  0  0  0  0  0
  190.7250  171.5130  142.8850 N   0  0  0  0  0  2  0  0  0  0  0  0
  190.4580  173.7960  143.5930 C   0  0  0  0  0  0  0  0  0  0  0  0
  189.6650  176.9280  146.8370 N   0  0  1  0  0  0  0  0  0  0  0  0
  189.5130  174.4420  142.7230 C   0  0  0  0  0  0  0  0  0  0  0  0
  188.5430  175.2940  143.2940 C   0  0  0  0  0  0  0  0  0  0  0  0
  187.8230  176.4940  145.3450 N   0  0  0  0  0  0  0  0  0  0  0  0
  187.2610  176.1090  142.3270 S   0  0  0  0  0  0  0  0  0  0  0  0
  190.5470  173.7880  140.4230 C   0  0  0  0  0  2  0  0  0  0  0  0
  191.4320  172.7660  143.1320 C   0  0  0  0  0  2  0  0  0  0  0  0
  190.4910  175.9300  147.5310 C   0  0  0  0  0  2  0  0  0  0  0  0
  189.4800  174.2620  141.2930 N   0  0  0  0  0  2  0  0  0  0  0  0
  191.5460  171.5110  140.7390 N   0  0  0  0  0  2  0  0  0  0  0  0
  189.4570  171.7720  139.7350 O   0  0  0  0  0  0  0  0  0  0  0  0
  186.6960  178.5360  145.2980 O   0  0  0  0  0  0  0  0  0  0  0  0
  191.4320  170.7570  141.9240 N   0  0  0  0  0  2  0  0  0  0  0  0
  188.5590  175.5030  144.6640 C   0  0  0  0  0  0  0  0  0  0  0  0
  186.4960  178.6790  142.5890 N   0  0  0  0  0  2  0  0  0  0  0  0
  185.3820  177.9060  142.0610 C   0  0  1  0  0  3  0  0  0  0  0  0
  184.1360  178.1640  142.8870 C   0  0  0  0  0  1  0  0  0  0  0  0
  185.1400  178.2420  140.5910 C   0  0  0  0  0  2  0  0  0  0  0  0
  183.7200  178.2170  140.2770 N   0  0  0  0  0  1  0  0  0  0  0  0
  1 21  2  0  0  0  0
  1 13  1  0  0  0  0
  2  3  1  0  0  0  0
  3 17  1  1  0  0  0
  4 13  1  6  0  0  0
  4 10  1  0  0  0  0
  4  3  1  0  0  0  0
  5 24  1  6  0  0  0
  5  1  1  0  0  0  0
  6  2  1  0  0  0  0
  7 15  1  0  0  0  0
  7 19  1  0  0  0  0
  8 16  1  0  0  0  0
  9  6  2  0  0  0  0
 10  3  1  0  0  0  0
 10 17  1  1  0  0  0
 11 12  2  0  0  0  0
 11  9  1  0  0  0  0
 12 23  1  0  0  0  0
 14  5  1  0  0  0  0
 14 12  1  0  0  0  0
 15 18  1  0  0  0  0
 16  9  1  0  0  0  0
 18 11  1  0  0  0  0
 19 22  1  0  0  0  0
 20  7  2  0  0  0  0
 22  8  1  0  0  0  0
 23 13  1  0  0  0  0
 23  2  2  0  0  0  0
 25 24  1  0  0  0  0
 25 26  1  1  0  0  0
 27 25  1  0  0  0  0
 28 27  1  0  0  0  0
M  END
>  <MODEL>
2

>  <REMARK>
 VINA RESULT:      -6.9      3.213      5.107
  Name = 
  3 active torsions:
  status: ('A' for Active; 'I' for Inactive)
    1  A    between atoms: C_1  and  C_7
    2  A    between atoms: N_6  and  C_7
    3  A    between atoms: N_6  and  C_8
                            x       y       z     vdW  Elec       q    Type
                         _______ _______ _______ _____ _____    ______ ____

>  <TORSDO>
F 3

$$$$
=
 OpenBabel11042414413D

 28 33  0  0  1  0  0  0  0  0999 V2000
  192.0870  175.3430  143.7480 C   0  0  0  0  0  0  0  0  0  0  0  0
  190.1190  176.7490  146.3830 C   0  0  0  0  0  0  0  0  0  0  0  0
  191.3690  176.5230  147.1710 C   0  0  2  0  0  0  0  0  0  0  0  0
  192.3820  176.0830  146.1940 C   0  0  1  0  0  3  0  0  0  0  0  0
  191.0370  174.9820  142.7220 C   0  0  1  0  0  3  0  0  0  0  0  0
  188.8220  177.0200  146.8120 C   0  0  0  0  0  3  0  0  0  0  0  0
  184.9650  178.0070  143.7200 C   0  0  0  0  0  0  0  0  0  0  0  0
  186.2040  178.8830  146.0320 N   0  0  0  0  0  2  0  0  0  0  0  0
  187.7910  177.0830  145.8540 C   0  0  0  0  0  0  0  0  0  0  0  0
  191.7270  175.0660  147.0380 N   0  0  1  0  0  0  0  0  0  0  0  0
  188.0820  176.8610  144.4640 C   0  0  0  0  0  0  0  0  0  0  0  0
  189.4230  176.6290  144.0840 C   0  0  0  0  0  0  0  0  0  0  0  0
  191.7220  176.1410  144.8820 N   0  0  0  0  0  0  0  0  0  0  0  0
  189.9330  176.4050  142.3720 S   0  0  0  0  0  0  0  0  0  0  0  0
  185.6490  176.6950  143.5460 C   0  0  0  0  0  2  0  0  0  0  0  0
  186.4450  177.4800  146.3600 C   0  0  0  0  0  2  0  0  0  0  0  0
  191.2460  175.6320  148.3060 C   0  0  0  0  0  2  0  0  0  0  0  0
  187.0890  176.8750  143.4190 N   0  0  0  0  0  2  0  0  0  0  0  0
  184.2790  178.2620  144.9430 N   0  0  0  0  0  2  0  0  0  0  0  0
  185.0410  178.8970  142.8320 O   0  0  0  0  0  0  0  0  0  0  0  0
  193.2520  174.8700  143.6610 O   0  0  0  0  0  0  0  0  0  0  0  0
  184.8140  179.1080  145.9350 N   0  0  0  0  0  2  0  0  0  0  0  0
  190.3990  176.5910  145.0660 C   0  0  0  0  0  0  0  0  0  0  0  0
  191.6580  174.5380  141.4820 N   0  0  0  0  0  2  0  0  0  0  0  0
  190.6490  173.8100  140.7270 C   0  0  1  0  0  3  0  0  0  0  0  0
  191.2500  173.2820  139.4370 C   0  0  0  0  0  1  0  0  0  0  0  0
  190.0640  172.6730  141.5610 C   0  0  0  0  0  2  0  0  0  0  0  0
  188.6100  172.6760  141.5010 N   0  0  0  0  0  1  0  0  0  0  0  0
  1 13  1  0  0  0  0
  2  6  1  0  0  0  0
  2  3  1  0  0  0  0
  3 17  1  1  0  0  0
  4 13  1  6  0  0  0
  4 10  1  0  0  0  0
  4  3  1  0  0  0  0
  5 24  1  6  0  0  0
  5  1  1  0  0  0  0
  7 19  1  0  0  0  0
  8 16  1  0  0  0  0
  9 16  1  0  0  0  0
  9  6  2  0  0  0  0
 10  3  1  0  0  0  0
 10 17  1  1  0  0  0
 11  9  1  0  0  0  0
 12 11  2  0  0  0  0
 12 23  1  0  0  0  0
 13 23  1  0  0  0  0
 14  5  1  0  0  0  0
 14 12  1  0  0  0  0
 15  7  1  0  0  0  0
 18 15  1  0  0  0  0
 18 11  1  0  0  0  0
 19 22  1  0  0  0  0
 20  7  2  0  0  0  0
 21  1  2  0  0  0  0
 22  8  1  0  0  0  0
 23  2  2  0  0  0  0
 25 26  1  6  0  0  0
 25 24  1  0  0  0  0
 25 27  1  0  0  0  0
 28 27  1  0  0  0  0
M  END
>  <MODEL>
3

>  <REMARK>
 VINA RESULT:      -6.9      1.977      7.255
  Name = 
  3 active torsions:
  status: ('A' for Active; 'I' for Inactive)
    1  A    between atoms: C_1  and  C_7
    2  A    between atoms: N_6  and  C_7
    3  A    between atoms: N_6  and  C_8
                            x       y       z     vdW  Elec       q    Type
                         _______ _______ _______ _____ _____    ______ ____

>  <TORSDO>
F 3

$$$$
=
 OpenBabel11042414413D

 28 33  0  0  1  0  0  0  0  0999 V2000
  192.9080  176.2830  144.2930 C   0  0  0  0  0  0  0  0  0  0  0  0
  190.3100  176.7300  146.7110 C   0  0  0  0  0  0  0  0  0  0  0  0
  191.4210  176.4400  147.6680 C   0  0  2  0  0  0  0  0  0  0  0  0
  192.6460  176.3820  146.8510 C   0  0  1  0  0  3  0  0  0  0  0  0
  192.1250  176.0940  143.0140 C   0  0  1  0  0  3  0  0  0  0  0  0
  188.9320  176.7390  146.9090 C   0  0  0  0  0  3  0  0  0  0  0  0
  185.5750  178.0860  143.3970 C   0  0  0  0  0  0  0  0  0  0  0  0
  186.2340  178.4500  146.0580 N   0  0  0  0  0  2  0  0  0  0  0  0
  188.0890  176.9400  145.7980 C   0  0  0  0  0  0  0  0  0  0  0  0
  192.0200  175.1150  147.2740 N   0  0  1  0  0  0  0  0  0  0  0  0
  188.6520  177.1240  144.4880 C   0  0  0  0  0  0  0  0  0  0  0  0
  190.0580  177.1440  144.3550 C   0  0  0  0  0  0  0  0  0  0  0  0
  192.2290  176.7120  145.4810 N   0  0  0  0  0  0  0  0  0  0  0  0
  190.8920  177.4330  142.7860 S   0  0  0  0  0  0  0  0  0  0  0  0
  186.4760  176.9460  143.0670 C   0  0  0  0  0  2  0  0  0  0  0  0
  186.6300  177.0450  146.0890 C   0  0  0  0  0  2  0  0  0  0  0  0
  191.2410  175.2740  148.5090 C   0  0  0  0  0  2  0  0  0  0  0  0
  187.8690  177.3050  143.2910 N   0  0  0  0  0  2  0  0  0  0  0  0
  184.6520  177.9360  144.4730 N   0  0  0  0  0  2  0  0  0  0  0  0
  185.6660  179.1800  142.7810 O   0  0  0  0  0  0  0  0  0  0  0  0
  194.1290  175.9770  144.3450 O   0  0  0  0  0  0  0  0  0  0  0  0
  184.8650  178.5440  145.7270 N   0  0  0  0  0  2  0  0  0  0  0  0
  190.8390  176.9540  145.4840 C   0  0  0  0  0  0  0  0  0  0  0  0
  193.0170  176.0590  141.8640 N   0  0  0  0  0  2  0  0  0  0  0  0
  193.0460  174.6890  141.3770 C   0  0  1  0  0  3  0  0  0  0  0  0
  191.6430  174.1100  141.3750 C   0  0  0  0  0  1  0  0  0  0  0  0
  193.6630  174.6240  139.9820 C   0  0  0  0  0  2  0  0  0  0  0  0
  194.8180  175.5020  139.8800 N   0  0  0  0  0  1  0  0  0  0  0  0
  1 21  2  0  0  0  0
  1 13  1  0  0  0  0
  2  6  1  0  0  0  0
  2  3  1  0  0  0  0
  3 17  1  1  0  0  0
  4 13  1  6  0  0  0
  4 10  1  0  0  0  0
  4  3  1  0  0  0  0
  5 24  1  6  0  0  0
  5  1  1  0  0  0  0
  7 19  1  0  0  0  0
  8 16  1  0  0  0  0
  9 16  1  0  0  0  0
  9  6  2  0  0  0  0
 10  3  1  0  0  0  0
 10 17  1  1  0  0  0
 11  9  1  0  0  0  0
 12 11  2  0  0  0  0
 12 23  1  0  0  0  0
 13 23  1  0  0  0  0
 14  5  1  0  0  0  0
 14 12  1  0  0  0  0
 15 18  1  0  0  0  0
 15  7  1  0  0  0  0
 18 11  1  0  0  0  0
 19 22  1  0  0  0  0
 20  7  2  0  0  0  0
 22  8  1  0  0  0  0
 23  2  2  0  0  0  0
 25 26  1  6  0  0  0
 25 24  1  0  0  0  0
 27 25  1  0  0  0  0
 28 27  1  0  0  0  0
M  END
>  <MODEL>
4

>  <REMARK>
 VINA RESULT:      -6.7      2.171      7.562
  Name = 
  3 active torsions:
  status: ('A' for Active; 'I' for Inactive)
    1  A    between atoms: C_1  and  C_7
    2  A    between atoms: N_6  and  C_7
    3  A    between atoms: N_6  and  C_8
                            x       y       z     vdW  Elec       q    Type
                         _______ _______ _______ _____ _____    ______ ____

>  <TORSDO>
F 3

$$$$
=
 OpenBabel11042414413D

 28 33  0  0  1  0  0  0  0  0999 V2000
  188.8140  176.0070  144.9390 C   0  0  0  0  0  0  0  0  0  0  0  0
  192.0950  175.9850  146.3640 C   0  0  0  0  0  0  0  0  0  0  0  0
  191.3250  176.0190  147.6450 C   0  0  2  0  0  0  0  0  0  0  0  0
  189.9090  175.8670  147.2630 C   0  0  1  0  0  3  0  0  0  0  0  0
  189.0910  176.3920  143.5030 C   0  0  1  0  0  3  0  0  0  0  0  0
  193.4420  176.2380  146.1170 C   0  0  0  0  0  3  0  0  0  0  0  0
  195.6470  175.7000  141.6160 C   0  0  0  0  0  0  0  0  0  0  0  0
  195.9660  175.1160  144.3010 N   0  0  0  0  0  2  0  0  0  0  0  0
  193.8970  176.2450  144.7840 C   0  0  0  0  0  0  0  0  0  0  0  0
  190.4110  177.2150  147.5890 N   0  0  1  0  0  0  0  0  0  0  0  0
  192.9780  176.0040  143.7060 C   0  0  0  0  0  0  0  0  0  0  0  0
  191.6310  175.7160  144.0200 C   0  0  0  0  0  0  0  0  0  0  0  0
  189.9070  175.6760  145.8050 N   0  0  0  0  0  0  0  0  0  0  0  0
  190.3930  175.3270  142.7700 S   0  0  0  0  0  0  0  0  0  0  0  0
  194.5050  176.6540  141.6980 C   0  0  0  0  0  2  0  0  0  0  0  0
  195.3660  176.4160  144.5910 C   0  0  0  0  0  2  0  0  0  0  0  0
  191.5660  177.1650  148.4960 C   0  0  0  0  0  2  0  0  0  0  0  0
  193.3460  176.0220  142.3120 N   0  0  0  0  0  2  0  0  0  0  0  0
  196.8300  175.9870  142.3580 N   0  0  0  0  0  2  0  0  0  0  0  0
  195.5490  174.6320  140.9560 O   0  0  0  0  0  0  0  0  0  0  0  0
  187.6430  176.0680  145.4010 O   0  0  0  0  0  0  0  0  0  0  0  0
  197.1470  175.3030  143.5490 N   0  0  0  0  0  2  0  0  0  0  0  0
  191.2410  175.7090  145.3490 C   0  0  0  0  0  0  0  0  0  0  0  0
  187.8810  176.2950  142.7000 N   0  0  0  0  0  2  0  0  0  0  0  0
  187.6080  177.6190  142.1620 C   0  0  1  0  0  3  0  0  0  0  0  0
  187.1590  177.5070  140.7170 C   0  0  0  0  0  1  0  0  0  0  0  0
  186.5590  178.3390  143.0050 C   0  0  0  0  0  2  0  0  0  0  0  0
  185.3510  177.5390  143.1320 N   0  0  0  0  0  1  0  0  0  0  0  0
  1 21  2  0  0  0  0
  1 13  1  0  0  0  0
  2  3  1  0  0  0  0
  3 17  1  1  0  0  0
  4 13  1  6  0  0  0
  4 10  1  0  0  0  0
  4  3  1  0  0  0  0
  5 24  1  6  0  0  0
  5  1  1  0  0  0  0
  6  2  1  0  0  0  0
  7 15  1  0  0  0  0
  7 19  1  0  0  0  0
  8 16  1  0  0  0  0
  9  6  2  0  0  0  0
 10  3  1  0  0  0  0
 10 17  1  1  0  0  0
 11 12  2  0  0  0  0
 11  9  1  0  0  0  0
 12 23  1  0  0  0  0
 14  5  1  0  0  0  0
 14 12  1  0  0  0  0
 15 18  1  0  0  0  0
 16  9  1  0  0  0  0
 18 11  1  0  0  0  0
 19 22  1  0  0  0  0
 20  7  2  0  0  0  0
 22  8  1  0  0  0  0
 23 13  1  0  0  0  0
 23  2  2  0  0  0  0
 25 26  1  6  0  0  0
 25 24  1  0  0  0  0
 25 27  1  0  0  0  0
 27 28  1  0  0  0  0
M  END
>  <MODEL>
5

>  <REMARK>
 VINA RESULT:      -6.7      2.614      4.466
  Name = 
  3 active torsions:
  status: ('A' for Active; 'I' for Inactive)
    1  A    between atoms: C_1  and  C_7
    2  A    between atoms: N_6  and  C_7
    3  A    between atoms: N_6  and  C_8
                            x       y       z     vdW  Elec       q    Type
                         _______ _______ _______ _____ _____    ______ ____

>  <TORSDO>
F 3

$$$$
=
 OpenBabel11042414413D

 28 33  0  0  1  0  0  0  0  0999 V2000
  187.2450  178.1100  144.1700 C   0  0  0  0  0  0  0  0  0  0  0  0
  187.7890  176.3560  141.1020 C   0  0  0  0  0  0  0  0  0  0  0  0
  187.1170  177.5580  140.5220 C   0  0  2  0  0  0  0  0  0  0  0  0
  186.9520  178.5010  141.6440 C   0  0  1  0  0  3  0  0  0  0  0  0
  187.4440  177.0230  145.2010 C   0  0  1  0  0  3  0  0  0  0  0  0
  188.0460  175.1090  140.5360 C   0  0  0  0  0  3  0  0  0  0  0  0
  190.6360  171.4400  142.8240 C   0  0  0  0  0  0  0  0  0  0  0  0
  190.3940  172.7840  140.4190 N   0  0  0  0  0  2  0  0  0  0  0  0
  188.6040  174.1000  141.3450 C   0  0  0  0  0  0  0  0  0  0  0  0
  185.7860  177.7060  141.2130 N   0  0  1  0  0  0  0  0  0  0  0  0
  188.8910  174.3600  142.7290 C   0  0  0  0  0  0  0  0  0  0  0  0
  188.6470  175.6550  143.2370 C   0  0  0  0  0  0  0  0  0  0  0  0
  187.5910  177.8600  142.8020 N   0  0  0  0  0  0  0  0  0  0  0  0
  189.0260  176.1340  144.9310 S   0  0  0  0  0  0  0  0  0  0  0  0
  189.4110  171.9310  143.5140 C   0  0  0  0  0  2  0  0  0  0  0  0
  188.9530  172.8230  140.6580 C   0  0  0  0  0  2  0  0  0  0  0  0
  185.8860  177.3080  139.8020 C   0  0  0  0  0  2  0  0  0  0  0  0
  189.4340  173.3820  143.6380 N   0  0  0  0  0  2  0  0  0  0  0  0
  190.4950  170.7930  141.5610 N   0  0  0  0  0  2  0  0  0  0  0  0
  191.7790  171.6430  143.3130 O   0  0  0  0  0  0  0  0  0  0  0  0
  186.6910  179.1970  144.4880 O   0  0  0  0  0  0  0  0  0  0  0  0
  190.8210  171.4400  140.3520 N   0  0  0  0  0  2  0  0  0  0  0  0
  188.1080  176.6140  142.3930 C   0  0  0  0  0  0  0  0  0  0  0  0
  187.4260  177.5770  146.5460 N   0  0  0  0  0  2  0  0  0  0  0  0
  186.2790  177.0090  147.2370 C   0  0  1  0  0  3  0  0  0  0  0  0
  185.8550  177.9200  148.3740 C   0  0  0  0  0  1  0  0  0  0  0  0
  185.1240  176.7760  146.2660 C   0  0  0  0  0  2  0  0  0  0  0  0
  184.1520  177.8560  146.3410 N   0  0  0  0  0  1  0  0  0  0  0  0
  1 21  2  0  0  0  0
  1  5  1  0  0  0  0
  2 23  1  0  0  0  0
  3 17  1  6  0  0  0
  3  2  1  0  0  0  0
  3 10  1  0  0  0  0
  3  4  1  0  0  0  0
  4 13  1  1  0  0  0
  5 24  1  1  0  0  0
  6  2  2  0  0  0  0
  6  9  1  0  0  0  0
  7 20  2  0  0  0  0
  7 15  1  0  0  0  0
  8 16  1  0  0  0  0
  9 11  2  0  0  0  0
 10 17  1  6  0  0  0
 10  4  1  0  0  0  0
 11 12  1  0  0  0  0
 11 18  1  0  0  0  0
 12 14  1  0  0  0  0
 13  1  1  0  0  0  0
 14  5  1  0  0  0  0
 15 18  1  0  0  0  0
 16  9  1  0  0  0  0
 19  7  1  0  0  0  0
 22  8  1  0  0  0  0
 22 19  1  0  0  0  0
 23 13  1  0  0  0  0
 23 12  2  0  0  0  0
 24 25  1  0  0  0  0
 25 26  1  1  0  0  0
 27 28  1  0  0  0  0
 27 25  1  0  0  0  0
M  END
>  <MODEL>
6

>  <REMARK>
 VINA RESULT:      -6.5      3.493      4.389
  Name = 
  3 active torsions:
  status: ('A' for Active; 'I' for Inactive)
    1  A    between atoms: C_1  and  C_7
    2  A    between atoms: N_6  and  C_7
    3  A    between atoms: N_6  and  C_8
                            x       y       z     vdW  Elec       q    Type
                         _______ _______ _______ _____ _____    ______ ____

>  <TORSDO>
F 3

$$$$
=
 OpenBabel11042414413D

 28 33  0  0  1  0  0  0  0  0999 V2000
  188.3540  177.1600  146.0770 C   0  0  0  0  0  0  0  0  0  0  0  0
  190.6670  174.5840  145.1800 C   0  0  0  0  0  0  0  0  0  0  0  0
  191.2030  174.8610  146.5470 C   0  0  2  0  0  0  0  0  0  0  0  0
  190.2570  175.8110  147.1610 C   0  0  1  0  0  3  0  0  0  0  0  0
  187.7680  177.5450  144.7380 C   0  0  1  0  0  3  0  0  0  0  0  0
  191.2340  173.8860  144.1160 C   0  0  0  0  0  3  0  0  0  0  0  0
  188.8760  172.9650  139.7570 C   0  0  0  0  0  0  0  0  0  0  0  0
  190.4120  171.7640  141.7190 N   0  0  0  0  0  2  0  0  0  0  0  0
  190.5560  173.8650  142.8810 C   0  0  0  0  0  0  0  0  0  0  0  0
  191.5250  176.3310  146.6150 N   0  0  1  0  0  0  0  0  0  0  0  0
  189.3070  174.5620  142.7320 C   0  0  0  0  0  0  0  0  0  0  0  0
  188.7620  175.2190  143.8570 C   0  0  0  0  0  0  0  0  0  0  0  0
  189.1800  175.9930  146.1780 N   0  0  0  0  0  0  0  0  0  0  0  0
  187.1750  176.0690  143.8240 S   0  0  0  0  0  0  0  0  0  0  0  0
  189.0410  174.3940  140.1450 C   0  0  0  0  0  2  0  0  0  0  0  0
  191.1580  173.0160  141.8140 C   0  0  0  0  0  2  0  0  0  0  0  0
  192.5800  175.3080  146.6070 C   0  0  0  0  0  2  0  0  0  0  0  0
  188.5590  174.6200  141.5010 N   0  0  0  0  0  2  0  0  0  0  0  0
  190.0440  172.1910  139.4910 N   0  0  0  0  0  2  0  0  0  0  0  0
  187.7360  172.4330  139.7220 O   0  0  0  0  0  0  0  0  0  0  0  0
  188.1980  177.9080  147.0790 O   0  0  0  0  0  0  0  0  0  0  0  0
  190.5350  171.2430  140.4120 N   0  0  0  0  0  2  0  0  0  0  0  0
  189.4660  175.1970  145.0500 C   0  0  0  0  0  0  0  0  0  0  0  0
  186.6660  178.4820  144.9060 N   0  0  0  0  0  2  0  0  0  0  0  0
  185.4290  177.7260  144.7840 C   0  0  1  0  0  3  0  0  0  0  0  0
  184.8160  177.5120  146.1560 C   0  0  0  0  0  1  0  0  0  0  0  0
  184.4490  178.4390  143.8560 C   0  0  0  0  0  2  0  0  0  0  0  0
  185.0600  178.7150  142.5640 N   0  0  0  0  0  1  0  0  0  0  0  0
  1 13  1  0  0  0  0
  1 21  2  0  0  0  0
  2  3  1  0  0  0  0
  3 17  1  1  0  0  0
  3 10  1  0  0  0  0
  3  4  1  0  0  0  0
  4 13  1  6  0  0  0
  5 24  1  1  0  0  0
  5  1  1  0  0  0  0
  6  2  2  0  0  0  0
  7 15  1  0  0  0  0
  8 16  1  0  0  0  0
  9  6  1  0  0  0  0
 10 17  1  1  0  0  0
 10  4  1  0  0  0  0
 11  9  2  0  0  0  0
 11 12  1  0  0  0  0
 12 23  2  0  0  0  0
 14 12  1  0  0  0  0
 14  5  1  0  0  0  0
 15 18  1  0  0  0  0
 16  9  1  0  0  0  0
 18 11  1  0  0  0  0
 19  7  1  0  0  0  0
 19 22  1  0  0  0  0
 20  7  2  0  0  0  0
 22  8  1  0  0  0  0
 23  2  1  0  0  0  0
 23 13  1  0  0  0  0
 25 24  1  0  0  0  0
 25 26  1  1  0  0  0
 27 25  1  0  0  0  0
 28 27  1  0  0  0  0
M  END
>  <MODEL>
7

>  <REMARK>
 VINA RESULT:      -6.5      2.490      5.184
  Name = 
  3 active torsions:
  status: ('A' for Active; 'I' for Inactive)
    1  A    between atoms: C_1  and  C_7
    2  A    between atoms: N_6  and  C_7
    3  A    between atoms: N_6  and  C_8
                            x       y       z     vdW  Elec       q    Type
                         _______ _______ _______ _____ _____    ______ ____

>  <TORSDO>
F 3

$$$$
=
 OpenBabel11042414413D

 28 33  0  0  1  0  0  0  0  0999 V2000
  190.9610  176.4880  146.6440 C   0  0  0  0  0  0  0  0  0  0  0  0
  188.2210  176.3840  144.3470 C   0  0  0  0  0  0  0  0  0  0  0  0
  187.5790  177.2560  145.3780 C   0  0  2  0  0  0  0  0  0  0  0  0
  188.6370  177.5550  146.3610 C   0  0  1  0  0  3  0  0  0  0  0  0
  191.8160  175.3330  146.1750 C   0  0  1  0  0  3  0  0  0  0  0  0
  187.6570  175.6860  143.2830 C   0  0  0  0  0  3  0  0  0  0  0  0
  190.3130  173.0950  139.8710 C   0  0  0  0  0  0  0  0  0  0  0  0
  188.2500  174.9190  140.1220 N   0  0  0  0  0  2  0  0  0  0  0  0
  188.4810  174.8390  142.5150 C   0  0  0  0  0  0  0  0  0  0  0  0
  187.6390  176.5180  146.6900 N   0  0  1  0  0  0  0  0  0  0  0  0
  189.8750  174.7000  142.8400 C   0  0  0  0  0  0  0  0  0  0  0  0
  190.3990  175.4630  143.9060 C   0  0  0  0  0  0  0  0  0  0  0  0
  189.8570  176.9230  145.8400 N   0  0  0  0  0  0  0  0  0  0  0  0
  192.1380  175.4360  144.3720 S   0  0  0  0  0  0  0  0  0  0  0  0
  190.4660  172.6860  141.2950 C   0  0  0  0  0  2  0  0  0  0  0  0
  187.8450  174.2000  141.3270 C   0  0  0  0  0  2  0  0  0  0  0  0
  186.3700  176.7340  145.9810 C   0  0  0  0  0  2  0  0  0  0  0  0
  190.7860  173.8350  142.1320 N   0  0  0  0  0  2  0  0  0  0  0  0
  189.0390  172.9440  139.2510 N   0  0  0  0  0  2  0  0  0  0  0  0
  191.2720  173.6180  139.2430 O   0  0  0  0  0  0  0  0  0  0  0  0
  191.1540  177.0050  147.7770 O   0  0  0  0  0  0  0  0  0  0  0  0
  188.1910  174.0450  139.0140 N   0  0  0  0  0  2  0  0  0  0  0  0
  189.5450  176.2900  144.6190 C   0  0  0  0  0  0  0  0  0  0  0  0
  193.0840  175.3060  146.8900 N   0  0  0  0  0  2  0  0  0  0  0  0
  194.0960  175.8590  146.0030 C   0  0  1  0  0  3  0  0  0  0  0  0
  194.5260  177.2280  146.4980 C   0  0  0  0  0  1  0  0  0  0  0  0
  195.2930  174.9190  145.8960 C   0  0  0  0  0  2  0  0  0  0  0  0
  195.9200  175.0180  144.5870 N   0  0  0  0  0  1  0  0  0  0  0  0
  1 21  2  0  0  0  0
  2 23  1  0  0  0  0
  2  3  1  0  0  0  0
  3 17  1  6  0  0  0
  3  4  1  0  0  0  0
  3 10  1  0  0  0  0
  4 13  1  6  0  0  0
  4 10  1  0  0  0  0
  5  1  1  0  0  0  0
  5 24  1  1  0  0  0
  6  2  2  0  0  0  0
  7 15  1  0  0  0  0
  8 16  1  0  0  0  0
  9 11  2  0  0  0  0
  9  6  1  0  0  0  0
 10 17  1  1  0  0  0
 11 12  1  0  0  0  0
 12 14  1  0  0  0  0
 12 23  2  0  0  0  0
 13  1  1  0  0  0  0
 14  5  1  0  0  0  0
 15 18  1  0  0  0  0
 16  9  1  0  0  0  0
 18 11  1  0  0  0  0
 19  7  1  0  0  0  0
 20  7  2  0  0  0  0
 22 19  1  0  0  0  0
 22  8  1  0  0  0  0
 23 13  1  0  0  0  0
 25 26  1  1  0  0  0
 25 24  1  0  0  0  0
 27 25  1  0  0  0  0
 28 27  1  0  0  0  0
M  END
>  <MODEL>
8

>  <REMARK>
 VINA RESULT:      -6.4      2.304      6.749
  Name = 
  3 active torsions:
  status: ('A' for Active; 'I' for Inactive)
    1  A    between atoms: C_1  and  C_7
    2  A    between atoms: N_6  and  C_7
    3  A    between atoms: N_6  and  C_8
                            x       y       z     vdW  Elec       q    Type
                         _______ _______ _______ _____ _____    ______ ____

>  <TORSDO>
F 3

$$$$
=
 OpenBabel11042414413D

 28 33  0  0  1  0  0  0  0  0999 V2000
  192.0870  172.3980  144.1330 C   0  0  0  0  0  0  0  0  0  0  0  0
  189.1520  173.1200  142.2210 C   0  0  0  0  0  0  0  0  0  0  0  0
  189.5370  171.8570  141.5200 C   0  0  2  0  0  0  0  0  0  0  0  0
  190.6670  171.3040  142.2880 C   0  0  1  0  0  3  0  0  0  0  0  0
  192.3630  173.7220  144.8090 C   0  0  1  0  0  3  0  0  0  0  0  0
  188.2570  174.1190  141.8480 C   0  0  0  0  0  3  0  0  0  0  0  0
  187.0730  178.0820  144.7280 C   0  0  0  0  0  0  0  0  0  0  0  0
  185.9580  176.1120  143.1400 N   0  0  0  0  0  2  0  0  0  0  0  0
  188.1590  175.2750  142.6480 C   0  0  0  0  0  0  0  0  0  0  0  0
  190.9520  172.0260  141.0340 N   0  0  1  0  0  0  0  0  0  0  0  0
  188.9780  175.4120  143.8210 C   0  0  0  0  0  0  0  0  0  0  0  0
  189.8390  174.3490  144.1710 C   0  0  0  0  0  0  0  0  0  0  0  0
  190.8510  172.2050  143.4350 N   0  0  0  0  0  0  0  0  0  0  0  0
  190.8650  174.3630  145.6510 S   0  0  0  0  0  0  0  0  0  0  0  0
  188.5090  177.9160  144.3690 C   0  0  0  0  0  2  0  0  0  0  0  0
  187.1100  176.2600  142.2550 C   0  0  0  0  0  2  0  0  0  0  0  0
  189.8150  171.9810  140.1040 C   0  0  0  0  0  2  0  0  0  0  0  0
  188.9680  176.5690  144.6810 N   0  0  0  0  0  2  0  0  0  0  0  0
  186.1340  178.3370  143.6860 N   0  0  0  0  0  2  0  0  0  0  0  0
  186.6850  177.9420  145.9180 O   0  0  0  0  0  0  0  0  0  0  0  0
  192.9720  171.5010  144.1020 O   0  0  0  0  0  0  0  0  0  0  0  0
  185.2610  177.3380  143.2100 N   0  0  0  0  0  2  0  0  0  0  0  0
  189.8860  173.2300  143.3550 C   0  0  0  0  0  0  0  0  0  0  0  0
  193.4420  173.5920  145.7770 N   0  0  0  0  0  2  0  0  0  0  0  0
  194.5860  174.3250  145.2560 C   0  0  1  0  0  3  0  0  0  0  0  0
  194.8760  175.5260  146.1380 C   0  0  0  0  0  1  0  0  0  0  0  0
  195.8090  173.4180  145.1510 C   0  0  0  0  0  2  0  0  0  0  0  0
  196.8210  173.7900  146.1280 N   0  0  0  0  0  1  0  0  0  0  0  0
  1  5  1  0  0  0  0
  2 23  1  0  0  0  0
  3 17  1  6  0  0  0
  3  2  1  0  0  0  0
  3  4  1  0  0  0  0
  4 13  1  1  0  0  0
  5 14  1  0  0  0  0
  5 24  1  1  0  0  0
  6  2  2  0  0  0  0
  6  9  1  0  0  0  0
  7 20  2  0  0  0  0
  8 22  1  0  0  0  0
  9 11  2  0  0  0  0
 10 17  1  6  0  0  0
 10  3  1  0  0  0  0
 10  4  1  0  0  0  0
 11 12  1  0  0  0  0
 11 18  1  0  0  0  0
 12 14  1  0  0  0  0
 13  1  1  0  0  0  0
 15 18  1  0  0  0  0
 15  7  1  0  0  0  0
 16  9  1  0  0  0  0
 16  8  1  0  0  0  0
 19  7  1  0  0  0  0
 21  1  2  0  0  0  0
 22 19  1  0  0  0  0
 23 13  1  0  0  0  0
 23 12  2  0  0  0  0
 25 24  1  0  0  0  0
 25 26  1  1  0  0  0
 27 25  1  0  0  0  0
 27 28  1  0  0  0  0
M  END
>  <MODEL>
9

>  <REMARK>
 VINA RESULT:      -6.4      2.495      6.842
  Name = 
  3 active torsions:
  status: ('A' for Active; 'I' for Inactive)
    1  A    between atoms: C_1  and  C_7
    2  A    between atoms: N_6  and  C_7
    3  A    between atoms: N_6  and  C_8
                            x       y       z     vdW  Elec       q    Type
                         _______ _______ _______ _____ _____    ______ ____

>  <TORSDO>
F 3

$$$$
