=
 OpenBabel11042414523D

 32 36  0  0  1  0  0  0  0  0999 V2000
  191.3470  175.7620  147.3830 C   0  0  0  0  0  2  0  0  0  0  0  0
  187.9010  176.7740  146.4070 C   0  0  0  0  0  2  0  0  0  0  0  0
  187.2110  177.8460  144.2160 C   0  0  2  0  0  3  0  0  0  0  0  0
  185.2300  178.5180  146.1870 C   0  0  0  0  0  2  0  0  0  0  0  0
  192.3740  177.0680  144.3190 C   0  0  0  0  0  2  0  0  0  0  0  0
  192.9070  176.7910  145.7310 C   0  0  1  0  0  3  0  0  0  0  0  0
  192.3930  175.4620  146.3150 C   0  0  1  0  0  3  0  0  0  0  0  0
  189.4340  174.4080  147.3290 O   0  0  0  0  0  0  0  0  0  0  0  0
  188.0380  177.2170  143.0820 C   0  0  2  0  0  3  0  0  0  0  0  0
  193.4180  174.7030  146.8880 O   0  0  0  0  0  1  0  0  0  0  0  0
  189.1590  178.1000  142.7690 N   0  0  0  0  0  2  0  0  0  0  0  0
  186.8500  176.8030  145.2940 C   0  0  2  0  0  3  0  0  0  0  0  0
  185.4610  177.0350  145.8980 C   0  0  0  0  0  2  0  0  0  0  0  0
  186.0220  178.6920  143.7450 C   0  0  0  0  0  2  0  0  0  0  0  0
  189.2320  176.2570  145.8800 C   0  0  2  0  0  3  0  0  0  0  0  0
  194.4230  176.9100  145.7140 C   0  0  0  0  0  1  0  0  0  0  0  0
  189.9640  175.4230  146.9040 C   0  0  0  0  0  0  0  0  0  0  0  0
  185.3340  179.3880  144.9250 C   0  0  0  0  0  2  0  0  0  0  0  0
  190.8700  176.8550  144.1530 C   0  0  2  0  0  3  0  0  0  0  0  0
  190.3990  177.3200  142.7620 C   0  0  0  0  0  2  0  0  0  0  0  0
  190.0660  177.4040  145.3250 C   0  0  0  0  0  2  0  0  0  0  0  0
  187.2200  176.8490  141.8260 C   0  0  1  0  0  3  0  0  0  0  0  0
  187.2870  177.9160  140.7380 C   0  0  0  0  0  1  0  0  0  0  0  0
  187.5920  175.5320  141.3000 N   0  0  0  0  0  2  0  0  0  0  0  0
  187.7270  174.5620  142.3880 C   0  0  1  0  0  3  0  0  0  0  0  0
  189.4940  172.9400  143.3450 C   0  0  0  0  0  2  0  0  0  0  0  0
  189.7180  173.7310  140.8630 C   0  0  0  0  0  2  0  0  0  0  0  0
  187.4410  173.1580  141.8610 C   0  0  0  0  0  2  0  0  0  0  0  0
  188.8630  173.5870  142.1210 C   0  0  0  0  0  0  0  0  0  0  0  0
  190.9140  173.4770  143.5150 C   0  0  0  0  0  2  0  0  0  0  0  0
  191.1160  174.1960  141.2630 C   0  0  0  0  0  2  0  0  0  0  0  0
  191.6750  173.3040  142.2780 N   0  0  0  0  0  2  0  0  0  0  0  0
  3 14  1  6  0  0  0
  3 12  1  0  0  0  0
  5  6  1  0  0  0  0
  6 16  1  6  0  0  0
  6  7  1  0  0  0  0
  7 10  1  1  0  0  0
  7  1  1  0  0  0  0
  9 22  1  6  0  0  0
  9  3  1  0  0  0  0
 11  9  1  0  0  0  0
 12 13  1  1  0  0  0
 12  2  1  0  0  0  0
 13  4  1  0  0  0  0
 14 18  1  0  0  0  0
 15 21  1  1  0  0  0
 15  2  1  0  0  0  0
 15 17  1  0  0  0  0
 17  8  2  0  0  0  0
 17  1  1  0  0  0  0
 18  4  1  0  0  0  0
 19 20  1  6  0  0  0
 19  5  1  0  0  0  0
 19 21  1  0  0  0  0
 20 11  1  0  0  0  0
 22 23  1  6  0  0  0
 24 22  1  0  0  0  0
 25 24  1  6  0  0  0
 26 30  1  0  0  0  0
 27 31  1  0  0  0  0
 27 29  1  0  0  0  0
 28 29  1  0  0  0  0
 28 25  1  0  0  0  0
 29 25  1  0  0  0  0
 29 26  1  0  0  0  0
 31 32  1  0  0  0  0
 32 30  1  0  0  0  0
M  END
>  <MODEL>
1

>  <REMARK>
 VINA RESULT:      -9.1      0.000      0.000
  Name = 
  3 active torsions:
  status: ('A' for Active; 'I' for Inactive)
    1  A    between atoms: N_2  and  C_3
    2  A    between atoms: N_2  and  C_15
    3  A    between atoms: C_14  and  C_15
                            x       y       z     vdW  Elec       q    Type
                         _______ _______ _______ _____ _____    ______ ____

>  <TORSDO>
F 3

$$$$
=
 OpenBabel11042414523D

 32 36  0  0  1  0  0  0  0  0999 V2000
  191.5710  175.8060  147.3420 C   0  0  0  0  0  2  0  0  0  0  0  0
  188.0860  176.8280  146.5260 C   0  0  0  0  0  2  0  0  0  0  0  0
  187.2740  177.7780  144.3220 C   0  0  2  0  0  3  0  0  0  0  0  0
  185.4370  178.6110  146.3690 C   0  0  0  0  0  2  0  0  0  0  0  0
  192.4190  176.8990  144.1430 C   0  0  0  0  0  2  0  0  0  0  0  0
  193.0370  176.6980  145.5320 C   0  0  1  0  0  3  0  0  0  0  0  0
  192.5390  175.4180  146.2310 C   0  0  1  0  0  3  0  0  0  0  0  0
  189.6350  174.4920  147.4960 O   0  0  0  0  0  0  0  0  0  0  0  0
  188.0140  177.0640  143.1790 C   0  0  2  0  0  3  0  0  0  0  0  0
  193.5870  174.6750  146.7830 O   0  0  0  0  0  1  0  0  0  0  0  0
  189.1270  177.9020  142.7400 N   0  0  0  0  0  2  0  0  0  0  0  0
  186.9660  176.8120  145.4840 C   0  0  2  0  0  3  0  0  0  0  0  0
  185.6240  177.1100  146.1600 C   0  0  0  0  0  2  0  0  0  0  0  0
  186.0710  178.6190  143.8760 C   0  0  0  0  0  2  0  0  0  0  0  0
  189.3710  176.2520  145.9500 C   0  0  2  0  0  3  0  0  0  0  0  0
  194.5510  176.7840  145.4110 C   0  0  0  0  0  1  0  0  0  0  0  0
  190.1540  175.4670  146.9750 C   0  0  0  0  0  0  0  0  0  0  0  0
  185.4740  179.4000  145.0510 C   0  0  0  0  0  2  0  0  0  0  0  0
  190.9030  176.7080  144.0880 C   0  0  2  0  0  3  0  0  0  0  0  0
  190.3510  177.0970  142.7030 C   0  0  0  0  0  2  0  0  0  0  0  0
  190.1870  177.3450  145.2710 C   0  0  0  0  0  2  0  0  0  0  0  0
  187.1100  176.6360  142.0040 C   0  0  1  0  0  3  0  0  0  0  0  0
  187.4270  177.3770  140.7080 C   0  0  0  0  0  1  0  0  0  0  0  0
  187.1280  175.1840  141.8010 N   0  0  0  0  0  2  0  0  0  0  0  0
  188.3000  174.5890  142.4460 C   0  0  1  0  0  3  0  0  0  0  0  0
  190.4460  173.3090  141.7930 C   0  0  0  0  0  2  0  0  0  0  0  0
  188.4190  173.3040  140.1410 C   0  0  0  0  0  2  0  0  0  0  0  0
  188.0650  173.0960  142.6590 C   0  0  0  0  0  2  0  0  0  0  0  0
  188.9660  173.5630  141.5430 C   0  0  0  0  0  0  0  0  0  0  0  0
  191.2490  173.8520  140.6120 C   0  0  0  0  0  2  0  0  0  0  0  0
  189.4090  173.8480  139.1130 C   0  0  0  0  0  2  0  0  0  0  0  0
  190.7430  173.2990  139.3560 N   0  0  0  0  0  2  0  0  0  0  0  0
  3 14  1  6  0  0  0
  3 12  1  0  0  0  0
  5  6  1  0  0  0  0
  6 16  1  6  0  0  0
  6  7  1  0  0  0  0
  7 10  1  1  0  0  0
  7  1  1  0  0  0  0
  9 22  1  6  0  0  0
  9  3  1  0  0  0  0
 11  9  1  0  0  0  0
 12 13  1  1  0  0  0
 12  2  1  0  0  0  0
 13  4  1  0  0  0  0
 14 18  1  0  0  0  0
 15 21  1  1  0  0  0
 15  2  1  0  0  0  0
 15 17  1  0  0  0  0
 17  1  1  0  0  0  0
 17  8  2  0  0  0  0
 18  4  1  0  0  0  0
 19 20  1  6  0  0  0
 19  5  1  0  0  0  0
 19 21  1  0  0  0  0
 20 11  1  0  0  0  0
 22 23  1  6  0  0  0
 24 22  1  0  0  0  0
 25 24  1  6  0  0  0
 25 28  1  0  0  0  0
 27 29  1  0  0  0  0
 29 26  1  0  0  0  0
 29 25  1  0  0  0  0
 29 28  1  0  0  0  0
 30 26  1  0  0  0  0
 31 32  1  0  0  0  0
 31 27  1  0  0  0  0
 32 30  1  0  0  0  0
M  END
>  <MODEL>
2

>  <REMARK>
 VINA RESULT:      -8.5      0.806      1.051
  Name = 
  3 active torsions:
  status: ('A' for Active; 'I' for Inactive)
    1  A    between atoms: N_2  and  C_3
    2  A    between atoms: N_2  and  C_15
    3  A    between atoms: C_14  and  C_15
                            x       y       z     vdW  Elec       q    Type
                         _______ _______ _______ _____ _____    ______ ____

>  <TORSDO>
F 3

$$$$
=
 OpenBabel11042414523D

 32 36  0  0  1  0  0  0  0  0999 V2000
  185.9950  178.2760  141.6050 C   0  0  0  0  0  2  0  0  0  0  0  0
  189.4740  177.2520  142.4430 C   0  0  0  0  0  2  0  0  0  0  0  0
  190.3380  176.5940  144.7320 C   0  0  2  0  0  3  0  0  0  0  0  0
  192.5800  177.4760  143.1660 C   0  0  0  0  0  2  0  0  0  0  0  0
  185.2960  177.9290  145.0010 C   0  0  0  0  0  2  0  0  0  0  0  0
  184.8160  178.6950  143.7620 C   0  0  1  0  0  3  0  0  0  0  0  0
  184.8300  177.8360  142.4840 C   0  0  1  0  0  3  0  0  0  0  0  0
  187.2350  176.5410  140.6320 O   0  0  0  0  0  0  0  0  0  0  0  0
  189.2440  175.7920  145.4570 C   0  0  2  0  0  3  0  0  0  0  0  0
  183.6440  177.9540  141.7540 O   0  0  0  0  0  1  0  0  0  0  0  0
  188.5230  176.6850  146.3610 N   0  0  0  0  0  2  0  0  0  0  0  0
  190.3610  176.2790  143.2230 C   0  0  2  0  0  3  0  0  0  0  0  0
  191.7780  176.2870  142.6400 C   0  0  0  0  0  2  0  0  0  0  0  0
  191.7170  176.5390  145.4010 C   0  0  0  0  0  2  0  0  0  0  0  0
  188.0080  177.0520  142.7990 C   0  0  2  0  0  3  0  0  0  0  0  0
  183.4640  179.3220  144.0680 C   0  0  0  0  0  1  0  0  0  0  0  0
  187.0990  177.2580  141.6110 C   0  0  0  0  0  0  0  0  0  0  0  0
  192.7130  177.4670  144.6960 C   0  0  0  0  0  2  0  0  0  0  0  0
  186.5860  177.1350  144.7980 C   0  0  2  0  0  3  0  0  0  0  0  0
  187.0830  176.5440  146.1310 C   0  0  0  0  0  2  0  0  0  0  0  0
  187.6320  177.9060  144.0040 C   0  0  0  0  0  2  0  0  0  0  0  0
  189.7530  174.5250  146.1760 C   0  0  1  0  0  3  0  0  0  0  0  0
  189.1620  174.3540  147.5720 C   0  0  0  0  0  1  0  0  0  0  0  0
  189.5520  173.3190  145.3650 N   0  0  0  0  0  2  0  0  0  0  0  0
  190.6740  173.1260  144.4450 C   0  0  1  0  0  3  0  0  0  0  0  0
  191.0800  172.6790  141.9340 C   0  0  0  0  0  2  0  0  0  0  0  0
  188.7570  172.0670  142.9660 C   0  0  0  0  0  2  0  0  0  0  0  0
  190.9210  171.6330  144.2450 C   0  0  0  0  0  2  0  0  0  0  0  0
  190.2270  172.4290  143.1690 C   0  0  0  0  0  0  0  0  0  0  0  0
  190.2800  173.5160  140.9380 C   0  0  0  0  0  2  0  0  0  0  0  0
  188.1720  172.9620  141.8760 C   0  0  0  0  0  2  0  0  0  0  0  0
  188.9880  172.8850  140.6650 N   0  0  0  0  0  2  0  0  0  0  0  0
  1 17  1  0  0  0  0
  1  7  1  0  0  0  0
  3 14  1  1  0  0  0
  3  9  1  0  0  0  0
  4 18  1  0  0  0  0
  6 16  1  1  0  0  0
  6  5  1  0  0  0  0
  7 10  1  6  0  0  0
  7  6  1  0  0  0  0
  8 17  2  0  0  0  0
  9 22  1  1  0  0  0
  9 11  1  0  0  0  0
 12  2  1  6  0  0  0
 12  3  1  0  0  0  0
 13  4  1  0  0  0  0
 13 12  1  0  0  0  0
 15  2  1  6  0  0  0
 15 21  1  0  0  0  0
 17 15  1  0  0  0  0
 18 14  1  0  0  0  0
 19 21  1  1  0  0  0
 19  5  1  0  0  0  0
 19 20  1  0  0  0  0
 20 11  1  0  0  0  0
 22 23  1  1  0  0  0
 24 22  1  0  0  0  0
 25 24  1  1  0  0  0
 26 29  1  0  0  0  0
 27 29  1  0  0  0  0
 28 25  1  0  0  0  0
 29 28  1  0  0  0  0
 29 25  1  0  0  0  0
 30 26  1  0  0  0  0
 31 27  1  0  0  0  0
 32 30  1  0  0  0  0
 32 31  1  0  0  0  0
M  END
>  <MODEL>
3

>  <REMARK>
 VINA RESULT:      -7.5      2.561      6.046
  Name = 
  3 active torsions:
  status: ('A' for Active; 'I' for Inactive)
    1  A    between atoms: N_2  and  C_3
    2  A    between atoms: N_2  and  C_15
    3  A    between atoms: C_14  and  C_15
                            x       y       z     vdW  Elec       q    Type
                         _______ _______ _______ _____ _____    ______ ____

>  <TORSDO>
F 3

$$$$
=
 OpenBabel11042414523D

 32 36  0  0  1  0  0  0  0  0999 V2000
  187.4250  175.2700  139.8910 C   0  0  0  0  0  2  0  0  0  0  0  0
  186.4980  177.0270  143.0390 C   0  0  0  0  0  2  0  0  0  0  0  0
  187.3000  176.4550  145.3730 C   0  0  2  0  0  3  0  0  0  0  0  0
  184.8160  177.8780  145.6210 C   0  0  0  0  0  2  0  0  0  0  0  0
  189.2780  173.1010  141.8930 C   0  0  0  0  0  2  0  0  0  0  0  0
  188.5460  173.1400  140.5450 C   0  0  1  0  0  3  0  0  0  0  0  0
  188.7250  174.4800  139.8050 C   0  0  1  0  0  3  0  0  0  0  0  0
  187.6630  177.5540  140.3630 O   0  0  0  0  0  0  0  0  0  0  0  0
  188.7740  176.0240  145.2930 C   0  0  2  0  0  3  0  0  0  0  0  0
  189.0560  174.3000  138.4590 O   0  0  0  0  0  1  0  0  0  0  0  0
  188.8400  174.5650  145.2800 N   0  0  0  0  0  2  0  0  0  0  0  0
  186.9890  177.5890  144.3750 C   0  0  2  0  0  3  0  0  0  0  0  0
  185.9700  178.5940  144.9220 C   0  0  0  0  0  2  0  0  0  0  0  0
  186.7900  176.7200  146.7950 C   0  0  0  0  0  2  0  0  0  0  0  0
  187.6070  176.2610  142.3330 C   0  0  2  0  0  3  0  0  0  0  0  0
  188.9590  171.9260  139.7290 C   0  0  0  0  0  1  0  0  0  0  0  0
  187.5530  176.4330  140.8340 C   0  0  0  0  0  0  0  0  0  0  0  0
  185.2860  177.0120  146.8000 C   0  0  0  0  0  2  0  0  0  0  0  0
  189.0600  174.3320  142.7710 C   0  0  2  0  0  3  0  0  0  0  0  0
  189.6860  174.1310  144.1650 C   0  0  0  0  0  2  0  0  0  0  0  0
  187.6120  174.8030  142.7750 C   0  0  0  0  0  2  0  0  0  0  0  0
  189.6780  176.6380  146.3830 C   0  0  1  0  0  3  0  0  0  0  0  0
  190.3070  175.5890  147.2950 C   0  0  0  0  0  1  0  0  0  0  0  0
  190.6980  177.5230  145.8120 N   0  0  0  0  0  2  0  0  0  0  0  0
  190.7760  177.3490  144.3610 C   0  0  1  0  0  3  0  0  0  0  0  0
  192.3570  176.3070  142.6040 C   0  0  0  0  0  2  0  0  0  0  0  0
  193.3210  176.9530  144.9470 C   0  0  0  0  0  2  0  0  0  0  0  0
  191.6380  178.4550  143.7580 C   0  0  0  0  0  2  0  0  0  0  0  0
  192.2020  177.0660  143.9140 C   0  0  0  0  0  0  0  0  0  0  0  0
  192.9050  174.9120  142.9000 C   0  0  0  0  0  2  0  0  0  0  0  0
  193.7790  175.4980  145.0270 C   0  0  0  0  0  2  0  0  0  0  0  0
  194.1290  175.0040  143.6960 N   0  0  0  0  0  2  0  0  0  0  0  0
  1 17  1  0  0  0  0
  3 14  1  1  0  0  0
  4 18  1  0  0  0  0
  6 16  1  6  0  0  0
  6  5  1  0  0  0  0
  7 10  1  6  0  0  0
  7  1  1  0  0  0  0
  7  6  1  0  0  0  0
  8 17  2  0  0  0  0
  9  3  1  0  0  0  0
  9 22  1  1  0  0  0
 11  9  1  0  0  0  0
 12  2  1  6  0  0  0
 12 13  1  0  0  0  0
 12  3  1  0  0  0  0
 13  4  1  0  0  0  0
 14 18  1  0  0  0  0
 15 21  1  6  0  0  0
 15  2  1  0  0  0  0
 17 15  1  0  0  0  0
 19  5  1  1  0  0  0
 19 21  1  0  0  0  0
 19 20  1  0  0  0  0
 20 11  1  0  0  0  0
 22 23  1  6  0  0  0
 24 22  1  0  0  0  0
 25 24  1  1  0  0  0
 26 30  1  0  0  0  0
 26 29  1  0  0  0  0
 27 31  1  0  0  0  0
 28 29  1  0  0  0  0
 28 25  1  0  0  0  0
 29 25  1  0  0  0  0
 29 27  1  0  0  0  0
 30 32  1  0  0  0  0
 32 31  1  0  0  0  0
M  END
>  <MODEL>
4

>  <REMARK>
 VINA RESULT:      -7.1      2.672      5.450
  Name = 
  3 active torsions:
  status: ('A' for Active; 'I' for Inactive)
    1  A    between atoms: N_2  and  C_3
    2  A    between atoms: N_2  and  C_15
    3  A    between atoms: C_14  and  C_15
                            x       y       z     vdW  Elec       q    Type
                         _______ _______ _______ _____ _____    ______ ____

>  <TORSDO>
F 3

$$$$
=
 OpenBabel11042414523D

 32 36  0  0  1  0  0  0  0  0999 V2000
  189.3920  171.9830  142.5420 C   0  0  0  0  0  2  0  0  0  0  0  0
  192.6340  171.8790  144.3670 C   0  0  0  0  0  2  0  0  0  0  0  0
  194.2780  173.7900  144.6250 C   0  0  2  0  0  3  0  0  0  0  0  0
  195.7260  171.3320  144.9700 C   0  0  0  0  0  2  0  0  0  0  0  0
  190.2010  175.2710  141.7150 C   0  0  0  0  0  2  0  0  0  0  0  0
  189.3760  174.0850  141.2000 C   0  0  1  0  0  3  0  0  0  0  0  0
  188.6710  173.3090  142.3290 C   0  0  1  0  0  3  0  0  0  0  0  0
  189.7410  171.3750  144.7790 O   0  0  0  0  0  0  0  0  0  0  0  0
  193.4860  175.0960  144.8040 C   0  0  2  0  0  3  0  0  0  0  0  0
  187.3290  173.0520  142.0360 O   0  0  0  0  0  1  0  0  0  0  0  0
  193.4110  175.7840  143.5170 N   0  0  0  0  0  2  0  0  0  0  0  0
  193.5800  172.6070  145.3250 C   0  0  2  0  0  3  0  0  0  0  0  0
  194.5730  171.6110  145.9320 C   0  0  0  0  0  2  0  0  0  0  0  0
  195.7750  173.9040  144.9380 C   0  0  0  0  0  2  0  0  0  0  0  0
  191.4640  172.7700  143.9790 C   0  0  2  0  0  3  0  0  0  0  0  0
  188.4340  174.5810  140.1130 C   0  0  0  0  0  1  0  0  0  0  0  0
  190.1810  171.9900  143.8210 C   0  0  0  0  0  0  0  0  0  0  0  0
  196.5120  172.6010  144.6080 C   0  0  0  0  0  2  0  0  0  0  0  0
  191.1030  174.9480  142.9070 C   0  0  2  0  0  3  0  0  0  0  0  0
  192.0160  176.1420  143.2440 C   0  0  0  0  0  2  0  0  0  0  0  0
  191.8160  173.6110  142.7590 C   0  0  0  0  0  2  0  0  0  0  0  0
  194.0180  176.0150  145.9240 C   0  0  1  0  0  3  0  0  0  0  0  0
  194.7260  177.2560  145.3900 C   0  0  0  0  0  1  0  0  0  0  0  0
  192.9660  176.3770  146.8790 N   0  0  0  0  0  2  0  0  0  0  0  0
  192.0440  175.2570  147.0770 C   0  0  1  0  0  3  0  0  0  0  0  0
  189.5300  174.7300  146.8050 C   0  0  0  0  0  2  0  0  0  0  0  0
  190.2810  177.2240  147.0380 C   0  0  0  0  0  2  0  0  0  0  0  0
  191.3640  175.3880  148.4380 C   0  0  0  0  0  2  0  0  0  0  0  0
  190.6050  175.7390  147.1830 C   0  0  0  0  0  0  0  0  0  0  0  0
  188.8600  175.1820  145.5080 C   0  0  0  0  0  2  0  0  0  0  0  0
  189.5420  177.4450  145.7200 C   0  0  0  0  0  2  0  0  0  0  0  0
  188.3820  176.5590  145.6360 N   0  0  0  0  0  2  0  0  0  0  0  0
  1 17  1  0  0  0  0
  3  9  1  0  0  0  0
  3 14  1  1  0  0  0
  3 12  1  0  0  0  0
  4 13  1  0  0  0  0
  6 16  1  6  0  0  0
  6  5  1  0  0  0  0
  6  7  1  0  0  0  0
  7 10  1  6  0  0  0
  7  1  1  0  0  0  0
  9 22  1  1  0  0  0
 11  9  1  0  0  0  0
 12  2  1  6  0  0  0
 12 13  1  0  0  0  0
 15 21  1  6  0  0  0
 15  2  1  0  0  0  0
 17 15  1  0  0  0  0
 17  8  2  0  0  0  0
 18 14  1  0  0  0  0
 18  4  1  0  0  0  0
 19  5  1  6  0  0  0
 19 20  1  0  0  0  0
 20 11  1  0  0  0  0
 21 19  1  0  0  0  0
 22 23  1  6  0  0  0
 22 24  1  0  0  0  0
 25 24  1  1  0  0  0
 25 29  1  0  0  0  0
 25 28  1  0  0  0  0
 26 29  1  0  0  0  0
 27 29  1  0  0  0  0
 29 28  1  0  0  0  0
 30 32  1  0  0  0  0
 30 26  1  0  0  0  0
 31 27  1  0  0  0  0
 32 31  1  0  0  0  0
M  END
>  <MODEL>
5

>  <REMARK>
 VINA RESULT:      -6.9      2.764      7.177
  Name = 
  3 active torsions:
  status: ('A' for Active; 'I' for Inactive)
    1  A    between atoms: N_2  and  C_3
    2  A    between atoms: N_2  and  C_15
    3  A    between atoms: C_14  and  C_15
                            x       y       z     vdW  Elec       q    Type
                         _______ _______ _______ _____ _____    ______ ____

>  <TORSDO>
F 3

$$$$
=
 OpenBabel11042414523D

 32 36  0  0  1  0  0  0  0  0999 V2000
  188.5510  173.1590  140.7880 C   0  0  0  0  0  2  0  0  0  0  0  0
  187.2140  175.6860  143.1700 C   0  0  0  0  0  2  0  0  0  0  0  0
  187.9050  175.9870  145.5890 C   0  0  2  0  0  3  0  0  0  0  0  0
  185.2670  177.0880  145.2840 C   0  0  0  0  0  2  0  0  0  0  0  0
  190.4830  171.9860  143.4410 C   0  0  0  0  0  2  0  0  0  0  0  0
  189.8500  171.5050  142.1290 C   0  0  1  0  0  3  0  0  0  0  0  0
  189.9340  172.5530  141.0040 C   0  0  1  0  0  3  0  0  0  0  0  0
  188.5030  175.4850  140.5060 O   0  0  0  0  0  0  0  0  0  0  0  0
  189.4190  175.7440  145.7000 C   0  0  2  0  0  3  0  0  0  0  0  0
  190.3790  172.0020  139.7990 O   0  0  0  0  0  1  0  0  0  0  0  0
  189.6460  174.3760  146.1600 N   0  0  0  0  0  2  0  0  0  0  0  0
  187.5430  176.6980  144.2700 C   0  0  2  0  0  3  0  0  0  0  0  0
  186.3830  177.6860  144.4300 C   0  0  0  0  0  2  0  0  0  0  0  0
  187.2680  176.6200  146.8330 C   0  0  0  0  0  2  0  0  0  0  0  0
  188.4480  174.8840  142.7850 C   0  0  2  0  0  3  0  0  0  0  0  0
  190.4520  170.1570  141.7610 C   0  0  0  0  0  1  0  0  0  0  0  0
  188.4840  174.5650  141.3090 C   0  0  0  0  0  0  0  0  0  0  0  0
  185.7440  176.7050  146.6930 C   0  0  0  0  0  2  0  0  0  0  0  0
  190.0690  173.3930  143.8690 C   0  0  2  0  0  3  0  0  0  0  0  0
  190.6120  173.7230  145.2720 C   0  0  0  0  0  2  0  0  0  0  0  0
  188.5810  173.6530  143.6730 C   0  0  0  0  0  2  0  0  0  0  0  0
  190.1690  176.7800  146.5640 C   0  0  1  0  0  3  0  0  0  0  0  0
  190.9440  176.1460  147.7150 C   0  0  0  0  0  1  0  0  0  0  0  0
  191.0360  177.6410  145.7530 N   0  0  0  0  0  2  0  0  0  0  0  0
  191.1680  177.1070  144.3960 C   0  0  1  0  0  3  0  0  0  0  0  0
  192.8830  175.8030  142.9720 C   0  0  0  0  0  2  0  0  0  0  0  0
  193.7220  177.1200  145.0700 C   0  0  0  0  0  2  0  0  0  0  0  0
  191.9400  178.0970  143.5290 C   0  0  0  0  0  2  0  0  0  0  0  0
  192.6250  176.8550  144.0410 C   0  0  0  0  0  0  0  0  0  0  0  0
  193.5480  174.5900  143.6200 C   0  0  0  0  0  2  0  0  0  0  0  0
  194.3090  175.7850  145.5240 C   0  0  0  0  0  2  0  0  0  0  0  0
  194.7380  175.0000  144.3670 N   0  0  0  0  0  2  0  0  0  0  0  0
  1  7  1  0  0  0  0
  1 17  1  0  0  0  0
  3  9  1  0  0  0  0
  3 14  1  1  0  0  0
  4 18  1  0  0  0  0
  6 16  1  6  0  0  0
  6  5  1  0  0  0  0
  7 10  1  6  0  0  0
  7  6  1  0  0  0  0
  8 17  2  0  0  0  0
  9 11  1  0  0  0  0
  9 22  1  1  0  0  0
 12  2  1  6  0  0  0
 12 13  1  0  0  0  0
 12  3  1  0  0  0  0
 13  4  1  0  0  0  0
 15  2  1  6  0  0  0
 15 21  1  0  0  0  0
 17 15  1  0  0  0  0
 18 14  1  0  0  0  0
 19  5  1  1  0  0  0
 19 20  1  0  0  0  0
 20 11  1  0  0  0  0
 21 19  1  0  0  0  0
 22 23  1  1  0  0  0
 24 22  1  0  0  0  0
 25 24  1  1  0  0  0
 26 30  1  0  0  0  0
 26 29  1  0  0  0  0
 27 31  1  0  0  0  0
 28 29  1  0  0  0  0
 28 25  1  0  0  0  0
 29 25  1  0  0  0  0
 29 27  1  0  0  0  0
 30 32  1  0  0  0  0
 32 31  1  0  0  0  0
M  END
>  <MODEL>
6

>  <REMARK>
 VINA RESULT:      -6.8      2.666      5.334
  Name = 
  3 active torsions:
  status: ('A' for Active; 'I' for Inactive)
    1  A    between atoms: N_2  and  C_3
    2  A    between atoms: N_2  and  C_15
    3  A    between atoms: C_14  and  C_15
                            x       y       z     vdW  Elec       q    Type
                         _______ _______ _______ _____ _____    ______ ____

>  <TORSDO>
F 3

$$$$
=
 OpenBabel11042414523D

 32 36  0  0  1  0  0  0  0  0999 V2000
  195.6110  174.3610  140.6580 C   0  0  0  0  0  2  0  0  0  0  0  0
  192.1260  173.3360  141.4690 C   0  0  0  0  0  2  0  0  0  0  0  0
  190.7300  174.1600  143.4170 C   0  0  2  0  0  3  0  0  0  0  0  0
  189.6910  171.6050  142.6090 C   0  0  0  0  0  2  0  0  0  0  0  0
  195.4840  176.3170  143.5400 C   0  0  0  0  0  2  0  0  0  0  0  0
  196.4930  175.5890  142.6430 C   0  0  1  0  0  3  0  0  0  0  0  0
  196.1520  175.7010  141.1450 C   0  0  1  0  0  3  0  0  0  0  0  0
  193.7350  174.4810  139.2570 O   0  0  0  0  0  0  0  0  0  0  0  0
  191.0220  175.6540  143.6320 C   0  0  2  0  0  3  0  0  0  0  0  0
  197.2660  176.0450  140.3730 O   0  0  0  0  0  1  0  0  0  0  0  0
  191.9960  175.7950  144.7110 N   0  0  0  0  0  2  0  0  0  0  0  0
  190.7360  173.7940  141.9190 C   0  0  2  0  0  3  0  0  0  0  0  0
  189.6980  172.7230  141.5680 C   0  0  0  0  0  2  0  0  0  0  0  0
  189.5090  173.6320  144.1810 C   0  0  0  0  0  2  0  0  0  0  0  0
  193.1210  174.4850  141.5320 C   0  0  2  0  0  3  0  0  0  0  0  0
  197.8940  176.0660  142.9930 C   0  0  0  0  0  1  0  0  0  0  0  0
  194.1310  174.4270  140.4110 C   0  0  0  0  0  0  0  0  0  0  0  0
  189.3670  172.1150  144.0210 C   0  0  0  0  0  2  0  0  0  0  0  0
  194.0190  176.0340  143.2110 C   0  0  2  0  0  3  0  0  0  0  0  0
  193.0880  176.6650  144.2640 C   0  0  0  0  0  2  0  0  0  0  0  0
  193.7560  174.5630  142.9150 C   0  0  0  0  0  2  0  0  0  0  0  0
  189.7670  176.5220  143.8640 C   0  0  1  0  0  3  0  0  0  0  0  0
  190.0960  177.9150  144.3920 C   0  0  0  0  0  1  0  0  0  0  0  0
  188.9250  176.5960  142.6660 N   0  0  0  0  0  2  0  0  0  0  0  0
  188.2960  177.9140  142.5600 C   0  0  1  0  0  3  0  0  0  0  0  0
  186.2300  179.1670  143.4710 C   0  0  0  0  0  2  0  0  0  0  0  0
  186.2200  176.5520  143.4610 C   0  0  0  0  0  2  0  0  0  0  0  0
  187.1920  177.8710  141.5070 C   0  0  0  0  0  2  0  0  0  0  0  0
  186.8330  177.8620  142.9710 C   0  0  0  0  0  0  0  0  0  0  0  0
  185.9410  179.0400  144.9660 C   0  0  0  0  0  2  0  0  0  0  0  0
  185.9330  176.6670  144.9570 C   0  0  0  0  0  2  0  0  0  0  0  0
  185.1240  177.8550  145.2270 N   0  0  0  0  0  2  0  0  0  0  0  0
  1  7  1  0  0  0  0
  3  9  1  0  0  0  0
  3 14  1  6  0  0  0
  4 18  1  0  0  0  0
  6 16  1  6  0  0  0
  6  5  1  0  0  0  0
  7 10  1  6  0  0  0
  7  6  1  0  0  0  0
  8 17  2  0  0  0  0
  9 22  1  1  0  0  0
  9 11  1  0  0  0  0
 12  2  1  1  0  0  0
 12  3  1  0  0  0  0
 13 12  1  0  0  0  0
 13  4  1  0  0  0  0
 15  2  1  1  0  0  0
 15 21  1  0  0  0  0
 17  1  1  0  0  0  0
 17 15  1  0  0  0  0
 18 14  1  0  0  0  0
 19 21  1  1  0  0  0
 19  5  1  0  0  0  0
 19 20  1  0  0  0  0
 20 11  1  0  0  0  0
 22 23  1  6  0  0  0
 24 22  1  0  0  0  0
 25 24  1  1  0  0  0
 25 29  1  0  0  0  0
 26 30  1  0  0  0  0
 27 31  1  0  0  0  0
 28 25  1  0  0  0  0
 28 29  1  0  0  0  0
 29 27  1  0  0  0  0
 29 26  1  0  0  0  0
 30 32  1  0  0  0  0
 31 32  1  0  0  0  0
M  END
>  <MODEL>
7

>  <REMARK>
 VINA RESULT:      -6.6      3.027      6.088
  Name = 
  3 active torsions:
  status: ('A' for Active; 'I' for Inactive)
    1  A    between atoms: N_2  and  C_3
    2  A    between atoms: N_2  and  C_15
    3  A    between atoms: C_14  and  C_15
                            x       y       z     vdW  Elec       q    Type
                         _______ _______ _______ _____ _____    ______ ____

>  <TORSDO>
F 3

$$$$
=
 OpenBabel11042414523D

 32 36  0  0  1  0  0  0  0  0999 V2000
  196.3650  170.7700  145.7270 C   0  0  0  0  0  2  0  0  0  0  0  0
  196.5440  173.9490  143.8010 C   0  0  0  0  0  2  0  0  0  0  0  0
  194.6860  174.9760  142.4180 C   0  0  2  0  0  3  0  0  0  0  0  0
  197.1850  175.9910  141.4260 C   0  0  0  0  0  2  0  0  0  0  0  0
  193.1260  170.4410  144.4830 C   0  0  0  0  0  2  0  0  0  0  0  0
  194.2920  169.5890  144.9980 C   0  0  1  0  0  3  0  0  0  0  0  0
  195.0190  170.2290  146.1960 C   0  0  1  0  0  3  0  0  0  0  0  0
  196.9380  172.8910  146.5440 O   0  0  0  0  0  0  0  0  0  0  0  0
  193.3500  174.7430  143.1420 C   0  0  2  0  0  3  0  0  0  0  0  0
  195.2360  169.3160  147.2330 O   0  0  0  0  0  1  0  0  0  0  0  0
  192.6870  173.5840  142.5490 N   0  0  0  0  0  2  0  0  0  0  0  0
  195.8290  175.2470  143.4170 C   0  0  2  0  0  3  0  0  0  0  0  0
  196.8460  176.2640  142.8900 C   0  0  0  0  0  2  0  0  0  0  0  0
  194.6180  175.9840  141.2620 C   0  0  0  0  0  2  0  0  0  0  0  0
  195.6200  173.0360  144.5940 C   0  0  2  0  0  3  0  0  0  0  0  0
  193.7870  168.1790  145.2660 C   0  0  0  0  0  1  0  0  0  0  0  0
  196.3590  172.2700  145.6660 C   0  0  0  0  0  0  0  0  0  0  0  0
  195.9520  176.0580  140.5120 C   0  0  0  0  0  2  0  0  0  0  0  0
  193.4540  171.9220  144.2950 C   0  0  2  0  0  3  0  0  0  0  0  0
  192.2860  172.6610  143.6150 C   0  0  0  0  0  2  0  0  0  0  0  0
  194.8190  172.1440  143.6550 C   0  0  0  0  0  2  0  0  0  0  0  0
  192.4270  175.9790  143.1890 C   0  0  1  0  0  3  0  0  0  0  0  0
  190.9790  175.6550  142.8330 C   0  0  0  0  0  1  0  0  0  0  0  0
  192.5120  176.6750  144.4770 N   0  0  0  0  0  2  0  0  0  0  0  0
  192.4320  175.7200  145.5840 C   0  0  1  0  0  3  0  0  0  0  0  0
  190.7230  174.9130  147.3440 C   0  0  0  0  0  2  0  0  0  0  0  0
  190.3850  177.2570  146.2360 C   0  0  0  0  0  2  0  0  0  0  0  0
  192.7080  176.4390  146.9020 C   0  0  0  0  0  2  0  0  0  0  0  0
  191.2940  176.0660  146.5320 C   0  0  0  0  0  0  0  0  0  0  0  0
  189.3070  174.6140  146.8550 C   0  0  0  0  0  2  0  0  0  0  0  0
  189.0010  176.7410  145.8490 C   0  0  0  0  0  2  0  0  0  0  0  0
  188.4950  175.8300  146.8750 N   0  0  0  0  0  2  0  0  0  0  0  0
  1  7  1  0  0  0  0
  2 15  1  0  0  0  0
  3 14  1  6  0  0  0
  3  9  1  0  0  0  0
  3 12  1  0  0  0  0
  4 13  1  0  0  0  0
  5  6  1  0  0  0  0
  6 16  1  1  0  0  0
  6  7  1  0  0  0  0
  7 10  1  1  0  0  0
  9 22  1  6  0  0  0
 11  9  1  0  0  0  0
 11 20  1  0  0  0  0
 12 13  1  6  0  0  0
 12  2  1  0  0  0  0
 15 21  1  6  0  0  0
 15 17  1  0  0  0  0
 17  1  1  0  0  0  0
 17  8  2  0  0  0  0
 18 14  1  0  0  0  0
 18  4  1  0  0  0  0
 19 20  1  6  0  0  0
 19  5  1  0  0  0  0
 21 19  1  0  0  0  0
 22 23  1  1  0  0  0
 22 24  1  0  0  0  0
 25 24  1  6  0  0  0
 25 29  1  0  0  0  0
 25 28  1  0  0  0  0
 27 29  1  0  0  0  0
 29 28  1  0  0  0  0
 29 26  1  0  0  0  0
 30 32  1  0  0  0  0
 30 26  1  0  0  0  0
 31 27  1  0  0  0  0
 31 32  1  0  0  0  0
M  END
>  <MODEL>
8

>  <REMARK>
 VINA RESULT:      -6.6      3.789      7.474
  Name = 
  3 active torsions:
  status: ('A' for Active; 'I' for Inactive)
    1  A    between atoms: N_2  and  C_3
    2  A    between atoms: N_2  and  C_15
    3  A    between atoms: C_14  and  C_15
                            x       y       z     vdW  Elec       q    Type
                         _______ _______ _______ _____ _____    ______ ____

>  <TORSDO>
F 3

$$$$
=
 OpenBabel11042414523D

 32 36  0  0  1  0  0  0  0  0999 V2000
  189.4650  171.9370  139.9520 C   0  0  0  0  0  2  0  0  0  0  0  0
  188.1400  174.9810  141.6330 C   0  0  0  0  0  2  0  0  0  0  0  0
  188.5950  175.7000  144.0200 C   0  0  2  0  0  3  0  0  0  0  0  0
  186.1290  176.9200  143.1890 C   0  0  0  0  0  2  0  0  0  0  0  0
  190.9750  171.1660  142.9970 C   0  0  0  0  0  2  0  0  0  0  0  0
  190.4410  170.4860  141.7300 C   0  0  1  0  0  3  0  0  0  0  0  0
  190.7490  171.2810  140.4470 C   0  0  1  0  0  3  0  0  0  0  0  0
  189.6800  174.1590  139.2360 O   0  0  0  0  0  0  0  0  0  0  0  0
  190.0570  175.3680  144.3620 C   0  0  2  0  0  3  0  0  0  0  0  0
  191.2620  170.4690  139.4320 O   0  0  0  0  0  1  0  0  0  0  0  0
  190.0950  174.1050  145.0950 N   0  0  0  0  0  2  0  0  0  0  0  0
  188.4490  176.1630  142.5560 C   0  0  2  0  0  3  0  0  0  0  0  0
  187.3840  177.2500  142.3830 C   0  0  0  0  0  2  0  0  0  0  0  0
  187.8950  176.6150  145.0340 C   0  0  0  0  0  2  0  0  0  0  0  0
  189.3220  174.0260  141.5620 C   0  0  2  0  0  3  0  0  0  0  0  0
  190.9410  169.0490  141.6990 C   0  0  0  0  0  1  0  0  0  0  0  0
  189.4830  173.4200  140.1880 C   0  0  0  0  0  0  0  0  0  0  0  0
  186.4110  176.7880  144.6930 C   0  0  0  0  0  2  0  0  0  0  0  0
  190.6610  172.6580  143.0980 C   0  0  2  0  0  3  0  0  0  0  0  0
  191.0800  173.2160  144.4720 C   0  0  0  0  0  2  0  0  0  0  0  0
  189.2360  172.9890  142.6740 C   0  0  0  0  0  2  0  0  0  0  0  0
  190.8100  176.4930  145.1020 C   0  0  1  0  0  3  0  0  0  0  0  0
  191.2640  176.0850  146.5000 C   0  0  0  0  0  1  0  0  0  0  0  0
  191.9320  177.0110  144.3120 N   0  0  0  0  0  2  0  0  0  0  0  0
  192.5240  175.9460  143.5000 C   0  0  1  0  0  3  0  0  0  0  0  0
  194.5630  174.3640  143.5480 C   0  0  0  0  0  2  0  0  0  0  0  0
  194.6440  176.5720  144.9460 C   0  0  0  0  0  2  0  0  0  0  0  0
  193.6190  176.5300  142.6110 C   0  0  0  0  0  2  0  0  0  0  0  0
  193.9910  175.7430  143.8420 C   0  0  0  0  0  0  0  0  0  0  0  0
  194.8700  173.6600  144.8690 C   0  0  0  0  0  2  0  0  0  0  0  0
  194.9410  175.6650  146.1380 C   0  0  0  0  0  2  0  0  0  0  0  0
  195.7210  174.5040  145.7090 N   0  0  0  0  0  2  0  0  0  0  0  0
  1 17  1  0  0  0  0
  1  7  1  0  0  0  0
  3  9  1  0  0  0  0
  3 14  1  1  0  0  0
  4 18  1  0  0  0  0
  5 19  1  0  0  0  0
  6 16  1  6  0  0  0
  6  5  1  0  0  0  0
  7 10  1  6  0  0  0
  7  6  1  0  0  0  0
  8 17  2  0  0  0  0
  9 11  1  0  0  0  0
  9 22  1  1  0  0  0
 12  2  1  6  0  0  0
 12  3  1  0  0  0  0
 13 12  1  0  0  0  0
 13  4  1  0  0  0  0
 15  2  1  6  0  0  0
 15 21  1  0  0  0  0
 17 15  1  0  0  0  0
 18 14  1  0  0  0  0
 19 21  1  1  0  0  0
 19 20  1  0  0  0  0
 20 11  1  0  0  0  0
 22 23  1  1  0  0  0
 24 22  1  0  0  0  0
 25 29  1  0  0  0  0
 25 24  1  1  0  0  0
 26 29  1  0  0  0  0
 26 30  1  0  0  0  0
 27 31  1  0  0  0  0
 28 25  1  0  0  0  0
 28 29  1  0  0  0  0
 29 27  1  0  0  0  0
 30 32  1  0  0  0  0
 32 31  1  0  0  0  0
M  END
>  <MODEL>
9

>  <REMARK>
 VINA RESULT:      -6.6      3.055      5.870
  Name = 
  3 active torsions:
  status: ('A' for Active; 'I' for Inactive)
    1  A    between atoms: N_2  and  C_3
    2  A    between atoms: N_2  and  C_15
    3  A    between atoms: C_14  and  C_15
                            x       y       z     vdW  Elec       q    Type
                         _______ _______ _______ _____ _____    ______ ____

>  <TORSDO>
F 3

$$$$
