=
 OpenBabel11042413503D

 25 27  0  0  1  0  0  0  0  0999 V2000
  188.6170  176.7330  145.1390 C   0  0  0  0  0  0  0  0  0  0  0  0
  185.0010  177.8220  145.4020 C   0  0  0  0  0  0  0  0  0  0  0  0
  187.0520  177.7950  143.6050 N   0  0  0  0  0  0  0  0  0  0  0  0
  186.2870  177.2850  145.7560 C   0  0  0  0  0  0  0  0  0  0  0  0
  188.8460  176.2880  146.4640 C   0  0  0  0  0  0  0  0  0  0  0  0
  185.8400  178.3070  143.2780 N   0  0  0  0  0  0  0  0  0  0  0  0
  184.7840  178.3510  144.1080 C   0  0  0  0  0  0  0  0  0  0  0  0
  184.0620  177.8340  146.2460 O   0  0  0  0  0  0  0  0  0  0  0  0
  186.5300  176.8060  147.0450 C   0  0  0  0  0  3  0  0  0  0  0  0
  187.3510  177.2560  144.8040 C   0  0  0  0  0  0  0  0  0  0  0  0
  187.5750  178.1480  142.2950 C   0  0  0  0  0  2  0  0  0  0  0  0
  183.6830  178.8470  143.7480 O   0  0  0  0  0  0  0  0  0  0  0  0
  186.3120  178.6600  141.9470 C   0  0  1  0  0  3  0  0  0  0  0  0
  187.7910  176.3210  147.3910 C   0  0  0  0  0  3  0  0  0  0  0  0
  190.5420  174.6210  146.5360 O   0  0  0  0  0  0  0  0  0  0  0  0
  190.1560  175.7590  146.9190 C   0  0  0  0  0  0  0  0  0  0  0  0
  190.9960  176.5040  147.7950 N   0  0  0  0  0  1  0  0  0  0  0  0
  185.6490  177.7760  140.8910 C   0  0  1  0  0  3  0  0  0  0  0  0
  184.4400  178.4180  140.4010 N   0  0  0  0  0  1  0  0  0  0  0  0
  185.9620  176.7970  138.7350 O   0  0  0  0  0  1  0  0  0  0  0  0
  186.5990  177.5430  139.7270 C   0  0  0  0  0  2  0  0  0  0  0  0
  189.6350  176.6470  144.1860 O   0  0  0  0  0  0  0  0  0  0  0  0
  190.6470  177.6390  144.0870 C   0  0  0  0  0  2  0  0  0  0  0  0
  192.8070  177.0460  144.9010 O   0  0  0  0  0  1  0  0  0  0  0  0
  191.9800  176.9860  143.7800 C   0  0  0  0  0  2  0  0  0  0  0  0
  1  5  1  0  0  0  0
  2  4  1  0  0  0  0
  2  8  2  0  0  0  0
  3 10  1  0  0  0  0
  4  9  2  0  0  0  0
  5 16  1  0  0  0  0
  5 14  2  0  0  0  0
  6  3  1  0  0  0  0
  6  7  1  0  0  0  0
  7  2  1  0  0  0  0
  9 14  1  0  0  0  0
 10  1  2  0  0  0  0
 10  4  1  0  0  0  0
 11  3  1  0  0  0  0
 12  7  2  0  0  0  0
 13 18  1  6  0  0  0
 13 11  1  0  0  0  0
 13  6  1  0  0  0  0
 15 16  2  0  0  0  0
 16 17  1  0  0  0  0
 18 19  1  6  0  0  0
 20 21  1  0  0  0  0
 21 18  1  0  0  0  0
 22  1  1  0  0  0  0
 23 22  1  0  0  0  0
 25 23  1  0  0  0  0
 25 24  1  0  0  0  0
M  END
>  <MODEL>
1

>  <REMARK>
 VINA RESULT:      -6.5      0.000      0.000
  Name = 
  6 active torsions:
  status: ('A' for Active; 'I' for Inactive)
    1  A    between atoms: C_1  and  O_22
    2  A    between atoms: C_5  and  C_10
    3  A    between atoms: CA_15  and  C_20
    4  A    between atoms: CA_15  and  C_25
    5  A    between atoms: C_16  and  C_24
    6  A    between atoms: O_22  and  C_24
                            x       y       z     vdW  Elec       q    Type
                         _______ _______ _______ _____ _____    ______ ____

>  <TORSDO>
F 6

$$$$
=
 OpenBabel11042413503D

 25 27  0  0  1  0  0  0  0  0999 V2000
  189.1090  175.6800  144.5410 C   0  0  0  0  0  0  0  0  0  0  0  0
  186.3590  177.1930  146.6580 C   0  0  0  0  0  0  0  0  0  0  0  0
  187.2930  177.2400  144.0950 N   0  0  0  0  0  0  0  0  0  0  0  0
  187.5090  176.4190  146.2750 C   0  0  0  0  0  0  0  0  0  0  0  0
  189.8160  174.9490  145.5260 C   0  0  0  0  0  0  0  0  0  0  0  0
  186.2130  177.9720  144.4620 N   0  0  0  0  0  0  0  0  0  0  0  0
  185.6950  177.9970  145.7010 C   0  0  0  0  0  0  0  0  0  0  0  0
  185.9420  177.1660  147.8490 O   0  0  0  0  0  0  0  0  0  0  0  0
  188.2050  175.6600  147.2190 C   0  0  0  0  0  3  0  0  0  0  0  0
  187.9820  176.4330  144.9280 C   0  0  0  0  0  0  0  0  0  0  0  0
  187.2200  177.7730  142.7440 C   0  0  0  0  0  2  0  0  0  0  0  0
  184.6920  178.7050  145.9840 O   0  0  0  0  0  0  0  0  0  0  0  0
  186.0860  178.5170  143.1170 C   0  0  1  0  0  3  0  0  0  0  0  0
  189.3420  174.9430  146.8490 C   0  0  0  0  0  3  0  0  0  0  0  0
  190.9300  172.9750  144.8050 O   0  0  0  0  0  0  0  0  0  0  0  0
  191.0360  174.1600  145.2210 C   0  0  0  0  0  0  0  0  0  0  0  0
  192.3400  174.7050  145.3980 N   0  0  0  0  0  1  0  0  0  0  0  0
  184.8350  177.9670  142.4320 C   0  0  1  0  0  3  0  0  0  0  0  0
  183.6540  178.6360  142.9540 N   0  0  0  0  0  1  0  0  0  0  0  0
  183.6350  178.3780  140.4080 O   0  0  0  0  0  1  0  0  0  0  0  0
  184.9150  178.1910  140.9310 C   0  0  0  0  0  2  0  0  0  0  0  0
  189.5290  175.6450  143.2090 O   0  0  0  0  0  0  0  0  0  0  0  0
  189.0460  174.6640  142.3020 C   0  0  0  0  0  2  0  0  0  0  0  0
  191.3710  174.7900  141.7960 O   0  0  0  0  0  1  0  0  0  0  0  0
  190.1940  174.1130  141.4800 C   0  0  0  0  0  2  0  0  0  0  0  0
  1 10  2  0  0  0  0
  1  5  1  0  0  0  0
  2  8  2  0  0  0  0
  3  6  1  0  0  0  0
  3 10  1  0  0  0  0
  4  2  1  0  0  0  0
  4  9  2  0  0  0  0
  5 14  2  0  0  0  0
  6  7  1  0  0  0  0
  7 12  2  0  0  0  0
  7  2  1  0  0  0  0
 10  4  1  0  0  0  0
 11 13  1  0  0  0  0
 11  3  1  0  0  0  0
 13 18  1  6  0  0  0
 13  6  1  0  0  0  0
 14  9  1  0  0  0  0
 15 16  2  0  0  0  0
 16 17  1  0  0  0  0
 16  5  1  0  0  0  0
 18 19  1  1  0  0  0
 20 21  1  0  0  0  0
 21 18  1  0  0  0  0
 22  1  1  0  0  0  0
 23 22  1  0  0  0  0
 25 24  1  0  0  0  0
 25 23  1  0  0  0  0
M  END
>  <MODEL>
2

>  <REMARK>
 VINA RESULT:      -6.4      2.064      2.369
  Name = 
  6 active torsions:
  status: ('A' for Active; 'I' for Inactive)
    1  A    between atoms: C_1  and  O_22
    2  A    between atoms: C_5  and  C_10
    3  A    between atoms: CA_15  and  C_20
    4  A    between atoms: CA_15  and  C_25
    5  A    between atoms: C_16  and  C_24
    6  A    between atoms: O_22  and  C_24
                            x       y       z     vdW  Elec       q    Type
                         _______ _______ _______ _____ _____    ______ ____

>  <TORSDO>
F 6

$$$$
=
 OpenBabel11042413503D

 25 27  0  0  1  0  0  0  0  0999 V2000
  189.0910  175.6410  144.5130 C   0  0  0  0  0  0  0  0  0  0  0  0
  186.3980  177.2210  146.6540 C   0  0  0  0  0  0  0  0  0  0  0  0
  187.2940  177.2260  144.0780 N   0  0  0  0  0  0  0  0  0  0  0  0
  187.5300  176.4250  146.2630 C   0  0  0  0  0  0  0  0  0  0  0  0
  189.8010  174.9090  145.4960 C   0  0  0  0  0  0  0  0  0  0  0  0
  186.2320  177.9800  144.4530 N   0  0  0  0  0  0  0  0  0  0  0  0
  185.7330  178.0260  145.6990 C   0  0  0  0  0  0  0  0  0  0  0  0
  185.9990  177.2140  147.8520 O   0  0  0  0  0  0  0  0  0  0  0  0
  188.2270  175.6640  147.2050 C   0  0  0  0  0  3  0  0  0  0  0  0
  187.9820  176.4170  144.9090 C   0  0  0  0  0  0  0  0  0  0  0  0
  187.2090  177.7460  142.7220 C   0  0  0  0  0  2  0  0  0  0  0  0
  184.7460  178.7540  145.9890 O   0  0  0  0  0  0  0  0  0  0  0  0
  186.0930  178.5120  143.1040 C   0  0  1  0  0  3  0  0  0  0  0  0
  189.3460  174.9250  146.8250 C   0  0  0  0  0  3  0  0  0  0  0  0
  192.1500  174.5420  145.4530 O   0  0  0  0  0  0  0  0  0  0  0  0
  191.0030  174.0970  145.1810 C   0  0  0  0  0  0  0  0  0  0  0  0
  190.8970  172.8190  144.5610 N   0  0  0  0  0  1  0  0  0  0  0  0
  184.8230  177.9750  142.4440 C   0  0  1  0  0  3  0  0  0  0  0  0
  183.6610  178.6660  142.9810 N   0  0  0  0  0  1  0  0  0  0  0  0
  183.5900  178.2120  140.4120 O   0  0  0  0  0  1  0  0  0  0  0  0
  184.8810  178.1880  140.9400 C   0  0  0  0  0  2  0  0  0  0  0  0
  189.4890  175.5850  143.1750 O   0  0  0  0  0  0  0  0  0  0  0  0
  190.7110  176.1640  142.7390 C   0  0  0  0  0  2  0  0  0  0  0  0
  191.9530  177.6800  144.0940 O   0  0  0  0  0  1  0  0  0  0  0  0
  190.8320  177.5780  143.2720 C   0  0  0  0  0  2  0  0  0  0  0  0
  1 10  2  0  0  0  0
  1  5  1  0  0  0  0
  2  8  2  0  0  0  0
  3  6  1  0  0  0  0
  3 10  1  0  0  0  0
  4  2  1  0  0  0  0
  4  9  2  0  0  0  0
  5 14  2  0  0  0  0
  6  7  1  0  0  0  0
  7 12  2  0  0  0  0
  7  2  1  0  0  0  0
 10  4  1  0  0  0  0
 11 13  1  0  0  0  0
 11  3  1  0  0  0  0
 13 18  1  6  0  0  0
 13  6  1  0  0  0  0
 14  9  1  0  0  0  0
 16 15  2  0  0  0  0
 16  5  1  0  0  0  0
 17 16  1  0  0  0  0
 18 19  1  1  0  0  0
 20 21  1  0  0  0  0
 21 18  1  0  0  0  0
 22  1  1  0  0  0  0
 23 22  1  0  0  0  0
 23 25  1  0  0  0  0
 25 24  1  0  0  0  0
M  END
>  <MODEL>
3

>  <REMARK>
 VINA RESULT:      -6.3      1.823      2.121
  Name = 
  6 active torsions:
  status: ('A' for Active; 'I' for Inactive)
    1  A    between atoms: C_1  and  O_22
    2  A    between atoms: C_5  and  C_10
    3  A    between atoms: CA_15  and  C_20
    4  A    between atoms: CA_15  and  C_25
    5  A    between atoms: C_16  and  C_24
    6  A    between atoms: O_22  and  C_24
                            x       y       z     vdW  Elec       q    Type
                         _______ _______ _______ _____ _____    ______ ____

>  <TORSDO>
F 6

$$$$
=
 OpenBabel11042413503D

 25 27  0  0  1  0  0  0  0  0999 V2000
  186.6730  177.9230  145.2700 C   0  0  0  0  0  0  0  0  0  0  0  0
  185.1760  178.1040  141.7970 C   0  0  0  0  0  0  0  0  0  0  0  0
  187.4050  177.1790  143.0700 N   0  0  0  0  0  0  0  0  0  0  0  0
  185.3400  178.2700  143.2160 C   0  0  0  0  0  0  0  0  0  0  0  0
  185.7030  178.6500  146.0030 C   0  0  0  0  0  0  0  0  0  0  0  0
  187.2490  177.0310  141.7320 N   0  0  0  0  0  0  0  0  0  0  0  0
  186.1800  177.4560  141.0380 C   0  0  0  0  0  0  0  0  0  0  0  0
  184.1430  178.5420  141.2210 O   0  0  0  0  0  0  0  0  0  0  0  0
  184.3820  178.9500  143.9710 C   0  0  0  0  0  3  0  0  0  0  0  0
  186.5000  177.7660  143.8800 C   0  0  0  0  0  0  0  0  0  0  0  0
  188.7160  176.5530  143.0060 C   0  0  0  0  0  2  0  0  0  0  0  0
  186.0950  177.2960  139.7910 O   0  0  0  0  0  0  0  0  0  0  0  0
  188.5460  176.3790  141.6200 C   0  0  1  0  0  3  0  0  0  0  0  0
  184.5660  179.1400  145.3390 C   0  0  0  0  0  3  0  0  0  0  0  0
  185.4950  178.0000  148.2820 O   0  0  0  0  0  0  0  0  0  0  0  0
  185.8200  178.9010  147.4620 C   0  0  0  0  0  0  0  0  0  0  0  0
  186.2820  180.1490  147.9680 N   0  0  0  0  0  1  0  0  0  0  0  0
  188.3760  174.8980  141.2840 C   0  0  1  0  0  3  0  0  0  0  0  0
  188.2830  174.7290  139.8430 N   0  0  0  0  0  1  0  0  0  0  0  0
  189.1070  172.9960  142.5310 O   0  0  0  0  0  1  0  0  0  0  0  0
  189.5600  174.1000  141.8060 C   0  0  0  0  0  2  0  0  0  0  0  0
  187.7770  177.3730  145.9250 O   0  0  0  0  0  0  0  0  0  0  0  0
  187.7300  176.0740  146.4990 C   0  0  0  0  0  2  0  0  0  0  0  0
  189.0890  174.4350  147.5680 O   0  0  0  0  0  1  0  0  0  0  0  0
  189.1370  175.5810  146.7750 C   0  0  0  0  0  2  0  0  0  0  0  0
  1 22  1  0  0  0  0
  1  5  1  0  0  0  0
  2  4  1  0  0  0  0
  3 10  1  0  0  0  0
  4 10  1  0  0  0  0
  4  9  2  0  0  0  0
  5 16  1  0  0  0  0
  6  3  1  0  0  0  0
  7  6  1  0  0  0  0
  7  2  1  0  0  0  0
  8  2  2  0  0  0  0
  9 14  1  0  0  0  0
 10  1  2  0  0  0  0
 11  3  1  0  0  0  0
 12  7  2  0  0  0  0
 13 18  1  1  0  0  0
 13  6  1  0  0  0  0
 13 11  1  0  0  0  0
 14  5  2  0  0  0  0
 16 17  1  0  0  0  0
 16 15  2  0  0  0  0
 18 19  1  6  0  0  0
 18 21  1  0  0  0  0
 21 20  1  0  0  0  0
 22 23  1  0  0  0  0
 23 25  1  0  0  0  0
 25 24  1  0  0  0  0
M  END
>  <MODEL>
4

>  <REMARK>
 VINA RESULT:      -6.3      2.459      4.252
  Name = 
  6 active torsions:
  status: ('A' for Active; 'I' for Inactive)
    1  A    between atoms: C_1  and  O_22
    2  A    between atoms: C_5  and  C_10
    3  A    between atoms: CA_15  and  C_20
    4  A    between atoms: CA_15  and  C_25
    5  A    between atoms: C_16  and  C_24
    6  A    between atoms: O_22  and  C_24
                            x       y       z     vdW  Elec       q    Type
                         _______ _______ _______ _____ _____    ______ ____

>  <TORSDO>
F 6

$$$$
=
 OpenBabel11042413503D

 25 27  0  0  1  0  0  0  0  0999 V2000
  190.5380  176.9320  145.7180 C   0  0  0  0  0  0  0  0  0  0  0  0
  188.5680  178.0120  142.6710 C   0  0  0  0  0  0  0  0  0  0  0  0
  188.1780  177.3480  145.2880 N   0  0  0  0  0  0  0  0  0  0  0  0
  189.6730  177.6330  143.5110 C   0  0  0  0  0  0  0  0  0  0  0  0
  191.8340  176.8210  145.1580 C   0  0  0  0  0  0  0  0  0  0  0  0
  187.1400  177.7000  144.4910 N   0  0  0  0  0  0  0  0  0  0  0  0
  187.2550  178.0420  143.1970 C   0  0  0  0  0  0  0  0  0  0  0  0
  188.7630  178.3110  141.4600 O   0  0  0  0  0  0  0  0  0  0  0  0
  190.9680  177.5510  142.9940 C   0  0  0  0  0  3  0  0  0  0  0  0
  189.4640  177.3060  144.8850 C   0  0  0  0  0  0  0  0  0  0  0  0
  187.2700  177.1100  146.3990 C   0  0  0  0  0  2  0  0  0  0  0  0
  186.2500  178.3520  142.5040 O   0  0  0  0  0  0  0  0  0  0  0  0
  186.1930  177.4950  145.5790 C   0  0  1  0  0  3  0  0  0  0  0  0
  192.0270  177.1470  143.8040 C   0  0  0  0  0  3  0  0  0  0  0  0
  193.5670  177.2070  146.7410 O   0  0  0  0  0  0  0  0  0  0  0  0
  193.0180  176.3960  145.9470 C   0  0  0  0  0  0  0  0  0  0  0  0
  193.5650  175.0870  145.8220 N   0  0  0  0  0  1  0  0  0  0  0  0
  185.6160  178.8310  146.0460 C   0  0  1  0  0  3  0  0  0  0  0  0
  184.3130  179.0430  145.4370 N   0  0  0  0  0  1  0  0  0  0  0  0
  186.3010  179.8130  148.1130 O   0  0  0  0  0  1  0  0  0  0  0  0
  185.4690  178.8400  147.5590 C   0  0  0  0  0  2  0  0  0  0  0  0
  190.3400  176.6750  147.0770 O   0  0  0  0  0  0  0  0  0  0  0  0
  190.4830  175.3690  147.6160 C   0  0  0  0  0  2  0  0  0  0  0  0
  189.4600  173.7950  146.1470 O   0  0  0  0  0  1  0  0  0  0  0  0
  189.2490  174.5440  147.3050 C   0  0  0  0  0  2  0  0  0  0  0  0
  1 22  1  0  0  0  0
  2  7  1  0  0  0  0
  2  4  1  0  0  0  0
  3 11  1  0  0  0  0
  4 10  1  0  0  0  0
  5  1  1  0  0  0  0
  5 16  1  0  0  0  0
  6  3  1  0  0  0  0
  6 13  1  0  0  0  0
  7  6  1  0  0  0  0
  8  2  2  0  0  0  0
  9  4  2  0  0  0  0
  9 14  1  0  0  0  0
 10  3  1  0  0  0  0
 10  1  2  0  0  0  0
 12  7  2  0  0  0  0
 13 18  1  1  0  0  0
 13 11  1  0  0  0  0
 14  5  2  0  0  0  0
 16 15  2  0  0  0  0
 17 16  1  0  0  0  0
 18 19  1  6  0  0  0
 18 21  1  0  0  0  0
 21 20  1  0  0  0  0
 22 23  1  0  0  0  0
 24 25  1  0  0  0  0
 25 23  1  0  0  0  0
M  END
>  <MODEL>
5

>  <REMARK>
 VINA RESULT:      -6.1      2.330      4.708
  Name = 
  6 active torsions:
  status: ('A' for Active; 'I' for Inactive)
    1  A    between atoms: C_1  and  O_22
    2  A    between atoms: C_5  and  C_10
    3  A    between atoms: CA_15  and  C_20
    4  A    between atoms: CA_15  and  C_25
    5  A    between atoms: C_16  and  C_24
    6  A    between atoms: O_22  and  C_24
                            x       y       z     vdW  Elec       q    Type
                         _______ _______ _______ _____ _____    ______ ____

>  <TORSDO>
F 6

$$$$
=
 OpenBabel11042413503D

 25 27  0  0  1  0  0  0  0  0999 V2000
  186.7810  177.0230  143.9710 C   0  0  0  0  0  0  0  0  0  0  0  0
  189.6240  175.1640  145.6440 C   0  0  0  0  0  0  0  0  0  0  0  0
  188.1890  175.1430  143.3240 N   0  0  0  0  0  0  0  0  0  0  0  0
  188.5610  176.1070  145.4230 C   0  0  0  0  0  0  0  0  0  0  0  0
  186.4200  177.9200  145.0050 C   0  0  0  0  0  0  0  0  0  0  0  0
  189.1870  174.2520  143.5390 N   0  0  0  0  0  0  0  0  0  0  0  0
  189.9370  174.2030  144.6520 C   0  0  0  0  0  0  0  0  0  0  0  0
  190.2750  175.1810  146.7250 O   0  0  0  0  0  0  0  0  0  0  0  0
  188.2070  177.0280  146.4120 C   0  0  0  0  0  3  0  0  0  0  0  0
  187.8260  176.1040  144.1990 C   0  0  0  0  0  0  0  0  0  0  0  0
  187.8950  174.5330  142.0370 C   0  0  0  0  0  2  0  0  0  0  0  0
  190.8480  173.3450  144.7980 O   0  0  0  0  0  0  0  0  0  0  0  0
  188.9450  173.6210  142.2490 C   0  0  1  0  0  3  0  0  0  0  0  0
  187.1510  177.9140  146.2060 C   0  0  0  0  0  3  0  0  0  0  0  0
  184.1590  178.5980  145.2930 O   0  0  0  0  0  0  0  0  0  0  0  0
  185.3090  178.8950  144.8720 C   0  0  0  0  0  0  0  0  0  0  0  0
  185.5030  180.1680  144.2640 N   0  0  0  0  0  1  0  0  0  0  0  0
  190.1010  173.9030  141.2900 C   0  0  1  0  0  3  0  0  0  0  0  0
  191.1750  172.9500  141.5210 N   0  0  0  0  0  1  0  0  0  0  0  0
  190.6900  173.3940  139.0310 O   0  0  0  0  0  1  0  0  0  0  0  0
  189.6300  173.7870  139.8490 C   0  0  0  0  0  2  0  0  0  0  0  0
  186.1090  177.0590  142.7470 O   0  0  0  0  0  0  0  0  0  0  0  0
  186.5360  177.9040  141.6890 C   0  0  0  0  0  2  0  0  0  0  0  0
  184.1830  178.2720  141.5940 O   0  0  0  0  0  1  0  0  0  0  0  0
  185.3490  178.2940  140.8290 C   0  0  0  0  0  2  0  0  0  0  0  0
  1 10  2  0  0  0  0
  1  5  1  0  0  0  0
  2  8  2  0  0  0  0
  3  6  1  0  0  0  0
  3 10  1  0  0  0  0
  4  2  1  0  0  0  0
  4  9  2  0  0  0  0
  5 14  2  0  0  0  0
  6  7  1  0  0  0  0
  7 12  2  0  0  0  0
  7  2  1  0  0  0  0
 10  4  1  0  0  0  0
 11 13  1  0  0  0  0
 11  3  1  0  0  0  0
 13 18  1  6  0  0  0
 13  6  1  0  0  0  0
 14  9  1  0  0  0  0
 16  5  1  0  0  0  0
 16 15  2  0  0  0  0
 17 16  1  0  0  0  0
 18 19  1  1  0  0  0
 20 21  1  0  0  0  0
 21 18  1  0  0  0  0
 22  1  1  0  0  0  0
 23 22  1  0  0  0  0
 25 24  1  0  0  0  0
 25 23  1  0  0  0  0
M  END
>  <MODEL>
6

>  <REMARK>
 VINA RESULT:      -5.8      2.991      5.705
  Name = 
  6 active torsions:
  status: ('A' for Active; 'I' for Inactive)
    1  A    between atoms: C_1  and  O_22
    2  A    between atoms: C_5  and  C_10
    3  A    between atoms: CA_15  and  C_20
    4  A    between atoms: CA_15  and  C_25
    5  A    between atoms: C_16  and  C_24
    6  A    between atoms: O_22  and  C_24
                            x       y       z     vdW  Elec       q    Type
                         _______ _______ _______ _____ _____    ______ ____

>  <TORSDO>
F 6

$$$$
=
 OpenBabel11042413503D

 25 27  0  0  1  0  0  0  0  0999 V2000
  187.4100  177.9090  144.0850 C   0  0  0  0  0  0  0  0  0  0  0  0
  188.8420  175.3740  146.5050 C   0  0  0  0  0  0  0  0  0  0  0  0
  189.3350  176.4180  144.0340 N   0  0  0  0  0  0  0  0  0  0  0  0
  187.9770  176.3730  145.9380 C   0  0  0  0  0  0  0  0  0  0  0  0
  186.2400  178.2950  144.7830 C   0  0  0  0  0  0  0  0  0  0  0  0
  190.1440  175.4720  144.5700 N   0  0  0  0  0  0  0  0  0  0  0  0
  189.9670  174.9160  145.7790 C   0  0  0  0  0  0  0  0  0  0  0  0
  188.5980  174.8950  147.6470 O   0  0  0  0  0  0  0  0  0  0  0  0
  186.8350  176.8000  146.6210 C   0  0  0  0  0  3  0  0  0  0  0  0
  188.2510  176.9300  144.6520 C   0  0  0  0  0  0  0  0  0  0  0  0
  190.1270  176.4320  142.8140 C   0  0  0  0  0  2  0  0  0  0  0  0
  190.7500  174.0330  146.2210 O   0  0  0  0  0  0  0  0  0  0  0  0
  190.9800  175.4660  143.3780 C   0  0  1  0  0  3  0  0  0  0  0  0
  185.9800  177.7400  146.0480 C   0  0  0  0  0  3  0  0  0  0  0  0
  185.5660  180.5140  144.2550 O   0  0  0  0  0  0  0  0  0  0  0  0
  185.2750  179.2880  144.2470 C   0  0  0  0  0  0  0  0  0  0  0  0
  184.0090  178.8910  143.7290 N   0  0  0  0  0  1  0  0  0  0  0  0
  192.3500  176.0730  143.6800 C   0  0  1  0  0  3  0  0  0  0  0  0
  193.1500  175.1260  144.4410 N   0  0  0  0  0  1  0  0  0  0  0  0
  194.3990  175.9840  142.4550 O   0  0  0  0  0  1  0  0  0  0  0  0
  193.0730  176.4130  142.3870 C   0  0  0  0  0  2  0  0  0  0  0  0
  187.7180  178.4980  142.8560 O   0  0  0  0  0  0  0  0  0  0  0  0
  186.9160  178.2780  141.7040 C   0  0  0  0  0  2  0  0  0  0  0  0
  187.4970  176.3060  140.4990 O   0  0  0  0  0  1  0  0  0  0  0  0
  186.6780  176.7920  141.5170 C   0  0  0  0  0  2  0  0  0  0  0  0
  1 10  2  0  0  0  0
  1  5  1  0  0  0  0
  2  8  2  0  0  0  0
  3  6  1  0  0  0  0
  3 10  1  0  0  0  0
  4  2  1  0  0  0  0
  4  9  2  0  0  0  0
  5 14  2  0  0  0  0
  6  7  1  0  0  0  0
  7 12  2  0  0  0  0
  7  2  1  0  0  0  0
 10  4  1  0  0  0  0
 11 13  1  0  0  0  0
 11  3  1  0  0  0  0
 13 18  1  1  0  0  0
 13  6  1  0  0  0  0
 14  9  1  0  0  0  0
 16 15  2  0  0  0  0
 16  5  1  0  0  0  0
 17 16  1  0  0  0  0
 18 19  1  6  0  0  0
 21 20  1  0  0  0  0
 21 18  1  0  0  0  0
 22  1  1  0  0  0  0
 23 22  1  0  0  0  0
 24 25  1  0  0  0  0
 25 23  1  0  0  0  0
M  END
>  <MODEL>
7

>  <REMARK>
 VINA RESULT:      -5.8      2.009      5.888
  Name = 
  6 active torsions:
  status: ('A' for Active; 'I' for Inactive)
    1  A    between atoms: C_1  and  O_22
    2  A    between atoms: C_5  and  C_10
    3  A    between atoms: CA_15  and  C_20
    4  A    between atoms: CA_15  and  C_25
    5  A    between atoms: C_16  and  C_24
    6  A    between atoms: O_22  and  C_24
                            x       y       z     vdW  Elec       q    Type
                         _______ _______ _______ _____ _____    ______ ____

>  <TORSDO>
F 6

$$$$
=
 OpenBabel11042413503D

 25 27  0  0  1  0  0  0  0  0999 V2000
  186.7070  176.8970  144.2530 C   0  0  0  0  0  0  0  0  0  0  0  0
  190.0760  175.3440  145.0070 C   0  0  0  0  0  0  0  0  0  0  0  0
  188.0550  175.1730  143.1840 N   0  0  0  0  0  0  0  0  0  0  0  0
  188.9060  176.1710  145.1210 C   0  0  0  0  0  0  0  0  0  0  0  0
  186.5650  177.7530  145.3730 C   0  0  0  0  0  0  0  0  0  0  0  0
  189.1560  174.3900  143.0850 N   0  0  0  0  0  0  0  0  0  0  0  0
  190.1910  174.4200  143.9410 C   0  0  0  0  0  0  0  0  0  0  0  0
  191.0010  175.4290  145.8620 O   0  0  0  0  0  0  0  0  0  0  0  0
  188.7560  177.0510  146.1950 C   0  0  0  0  0  3  0  0  0  0  0  0
  187.8600  176.0920  144.1520 C   0  0  0  0  0  0  0  0  0  0  0  0
  187.4720  174.5350  142.0140 C   0  0  0  0  0  2  0  0  0  0  0  0
  191.1870  173.6610  143.8000 O   0  0  0  0  0  0  0  0  0  0  0  0
  188.6250  173.7370  141.8970 C   0  0  1  0  0  3  0  0  0  0  0  0
  187.6020  177.8230  146.3190 C   0  0  0  0  0  3  0  0  0  0  0  0
  185.2930  179.7320  145.0190 O   0  0  0  0  0  0  0  0  0  0  0  0
  185.3700  178.6070  145.5850 C   0  0  0  0  0  0  0  0  0  0  0  0
  184.2990  178.1940  146.4280 N   0  0  0  0  0  1  0  0  0  0  0  0
  189.4290  174.1360  140.6600 C   0  0  1  0  0  3  0  0  0  0  0  0
  190.5730  173.2520  140.5120 N   0  0  0  0  0  1  0  0  0  0  0  0
  188.2190  172.7130  139.1710 O   0  0  0  0  0  1  0  0  0  0  0  0
  188.5600  174.0440  139.4150 C   0  0  0  0  0  2  0  0  0  0  0  0
  185.7160  176.8620  143.2690 O   0  0  0  0  0  0  0  0  0  0  0  0
  185.7530  177.7300  142.1460 C   0  0  0  0  0  2  0  0  0  0  0  0
  184.1860  178.4660  140.5090 O   0  0  0  0  0  1  0  0  0  0  0  0
  184.3690  178.2890  141.8790 C   0  0  0  0  0  2  0  0  0  0  0  0
  1  5  1  0  0  0  0
  2  4  1  0  0  0  0
  2  8  2  0  0  0  0
  3 10  1  0  0  0  0
  4  9  2  0  0  0  0
  5 16  1  0  0  0  0
  5 14  2  0  0  0  0
  6  3  1  0  0  0  0
  6  7  1  0  0  0  0
  7  2  1  0  0  0  0
  9 14  1  0  0  0  0
 10  1  2  0  0  0  0
 10  4  1  0  0  0  0
 11  3  1  0  0  0  0
 12  7  2  0  0  0  0
 13 18  1  6  0  0  0
 13 11  1  0  0  0  0
 13  6  1  0  0  0  0
 15 16  2  0  0  0  0
 16 17  1  0  0  0  0
 18 19  1  6  0  0  0
 20 21  1  0  0  0  0
 21 18  1  0  0  0  0
 22  1  1  0  0  0  0
 23 22  1  0  0  0  0
 24 25  1  0  0  0  0
 25 23  1  0  0  0  0
M  END
>  <MODEL>
8

>  <REMARK>
 VINA RESULT:      -5.7      3.018      5.640
  Name = 
  6 active torsions:
  status: ('A' for Active; 'I' for Inactive)
    1  A    between atoms: C_1  and  O_22
    2  A    between atoms: C_5  and  C_10
    3  A    between atoms: CA_15  and  C_20
    4  A    between atoms: CA_15  and  C_25
    5  A    between atoms: C_16  and  C_24
    6  A    between atoms: O_22  and  C_24
                            x       y       z     vdW  Elec       q    Type
                         _______ _______ _______ _____ _____    ______ ____

>  <TORSDO>
F 6

$$$$
=
 OpenBabel11042413503D

 25 27  0  0  1  0  0  0  0  0999 V2000
  193.4360  176.3180  143.9840 C   0  0  0  0  0  0  0  0  0  0  0  0
  191.0770  176.6640  146.9250 C   0  0  0  0  0  0  0  0  0  0  0  0
  191.1000  176.9680  144.2140 N   0  0  0  0  0  0  0  0  0  0  0  0
  192.2710  176.4160  146.1630 C   0  0  0  0  0  0  0  0  0  0  0  0
  194.6380  175.9910  144.6580 C   0  0  0  0  0  0  0  0  0  0  0  0
  189.9800  177.2070  144.9370 N   0  0  0  0  0  0  0  0  0  0  0  0
  189.8920  177.0760  146.2710 C   0  0  0  0  0  0  0  0  0  0  0  0
  191.0830  176.5260  148.1790 O   0  0  0  0  0  0  0  0  0  0  0  0
  193.4620  176.0570  146.7980 C   0  0  0  0  0  3  0  0  0  0  0  0
  192.2720  176.5570  144.7420 C   0  0  0  0  0  0  0  0  0  0  0  0
  190.4180  177.3570  142.9900 C   0  0  0  0  0  2  0  0  0  0  0  0
  188.8220  177.3210  146.8900 O   0  0  0  0  0  0  0  0  0  0  0  0
  189.2470  177.5850  143.7360 C   0  0  1  0  0  3  0  0  0  0  0  0
  194.6250  175.8550  146.0570 C   0  0  0  0  0  3  0  0  0  0  0  0
  196.3150  174.5840  143.7280 O   0  0  0  0  0  0  0  0  0  0  0  0
  195.9210  175.7610  143.9480 C   0  0  0  0  0  0  0  0  0  0  0  0
  196.7370  176.8440  143.5130 N   0  0  0  0  0  1  0  0  0  0  0  0
  188.1870  176.5360  143.4030 C   0  0  1  0  0  3  0  0  0  0  0  0
  186.9750  176.8040  144.1610 N   0  0  0  0  0  1  0  0  0  0  0  0
  187.9630  175.2820  141.3820 O   0  0  0  0  0  1  0  0  0  0  0  0
  187.8640  176.5670  141.9170 C   0  0  0  0  0  2  0  0  0  0  0  0
  193.4150  176.3940  142.5890 O   0  0  0  0  0  0  0  0  0  0  0  0
  193.1380  175.2560  141.7860 C   0  0  0  0  0  2  0  0  0  0  0  0
  194.9440  176.2820  140.6180 O   0  0  0  0  0  1  0  0  0  0  0  0
  194.2070  175.1030  140.7210 C   0  0  0  0  0  2  0  0  0  0  0  0
  1  5  2  0  0  0  0
  1 10  1  0  0  0  0
  2  8  2  0  0  0  0
  3 10  1  0  0  0  0
  3  6  1  0  0  0  0
  4  9  1  0  0  0  0
  4  2  1  0  0  0  0
  5 14  1  0  0  0  0
  6  7  1  0  0  0  0
  7 12  2  0  0  0  0
  7  2  1  0  0  0  0
 10  4  2  0  0  0  0
 11 13  1  0  0  0  0
 11  3  1  0  0  0  0
 13 18  1  6  0  0  0
 13  6  1  0  0  0  0
 14  9  2  0  0  0  0
 15 16  2  0  0  0  0
 16  5  1  0  0  0  0
 17 16  1  0  0  0  0
 18 19  1  1  0  0  0
 20 21  1  0  0  0  0
 21 18  1  0  0  0  0
 22  1  1  0  0  0  0
 23 22  1  0  0  0  0
 24 25  1  0  0  0  0
 25 23  1  0  0  0  0
M  END
>  <MODEL>
9

>  <REMARK>
 VINA RESULT:      -5.7      3.168      5.351
  Name = 
  6 active torsions:
  status: ('A' for Active; 'I' for Inactive)
    1  A    between atoms: C_1  and  O_22
    2  A    between atoms: C_5  and  C_10
    3  A    between atoms: CA_15  and  C_20
    4  A    between atoms: CA_15  and  C_25
    5  A    between atoms: C_16  and  C_24
    6  A    between atoms: O_22  and  C_24
                            x       y       z     vdW  Elec       q    Type
                         _______ _______ _______ _____ _____    ______ ____

>  <TORSDO>
F 6

$$$$
