=
 OpenBabel11042418013D

 61 65  0  0  1  0  0  0  0  0999 V2000
  187.8430  174.7850  141.7030 N   0  0  0  0  0  0  0  0  0  0  0  0
  187.6640  175.7350  142.5690 C   0  0  0  0  0  0  0  0  0  0  0  0
  189.1860  177.7800  143.4530 C   0  0  2  0  0  3  0  0  0  0  0  0
  190.1060  176.1660  145.3470 C   0  0  2  0  0  3  0  0  0  0  0  0
  190.2790  177.9510  144.8570 S   0  0  0  0  0  0  0  0  0  0  0  0
  189.1560  175.5150  144.5280 O   0  0  0  0  0  0  0  0  0  0  0  0
  188.8860  176.2960  143.3460 C   0  0  1  0  0  3  0  0  0  0  0  0
  189.8990  178.0710  142.3430 O   0  0  0  0  0  1  0  0  0  0  0  0
  190.0220  175.9220  146.8690 C   0  0  0  0  0  2  0  0  0  0  0  0
  191.3550  175.3370  147.3640 C   0  0  2  0  0  3  0  0  0  0  0  0
  193.3370  175.2030  146.0040 N   0  0  0  0  0  0  0  0  0  0  0  0
  192.3310  176.4860  147.6020 C   0  0  0  0  0  2  0  0  0  0  0  0
  193.3150  176.4540  146.7130 C   0  0  0  0  0  2  0  0  0  0  0  0
  192.0860  174.5120  146.3060 C   0  0  0  0  0  2  0  0  0  0  0  0
  194.6350  174.6770  145.5850 C   0  0  0  0  0  0  0  0  0  0  0  0
  195.6290  175.0500  146.2230 O   0  0  0  0  0  0  0  0  0  0  0  0
  195.5400  175.2630  143.4520 O   0  0  0  0  0  1  0  0  0  0  0  0
  194.8280  174.2940  144.1660 C   0  0  1  0  0  3  0  0  0  0  0  0
  195.5970  172.9980  144.2090 C   0  0  0  0  0  2  0  0  0  0  0  0
  194.8910  171.6200  144.0910 C   0  0  2  0  0  3  0  0  0  0  0  0
  194.3260  171.3220  145.4130 N   0  0  0  0  0  1  0  0  0  0  0  0
  195.7640  170.3980  143.5880 C   0  0  0  0  0  2  0  0  0  0  0  0
  195.6940  170.2660  142.1700 O   0  0  0  0  0  1  0  0  0  0  0  0
  186.7040  177.4210  140.3890 S   0  0  0  0  0  0  0  0  0  0  0  0
  184.6790  177.9010  141.6780 C   0  0  0  0  0  0  0  0  0  0  0  0
  185.4830  177.1170  142.5350 C   0  0  0  0  0  3  0  0  0  0  0  0
  185.2400  178.1610  140.4770 C   0  0  0  0  0  3  0  0  0  0  0  0
  186.7010  176.6940  141.9720 C   0  0  0  0  0  0  0  0  0  0  0  0
  183.3980  178.4880  142.0220 C   0  0  0  0  0  2  0  0  0  0  0  0
  182.2810  177.7690  141.5450 O   0  0  0  0  0  0  0  0  0  0  0  0
  181.5720  178.6530  140.7230 C   0  0  0  0  0  2  0  0  0  0  0  0
  179.4220  179.3350  139.9920 O   0  0  0  0  0  0  0  0  0  0  0  0
  180.2500  179.1700  141.0750 C   0  0  2  0  0  3  0  0  0  0  0  0
  180.0660  180.5290  140.4460 C   0  0  0  0  0  2  0  0  0  0  0  0
  188.9000  173.9730  141.4500 O   0  0  0  0  0  0  0  0  0  0  0  0
  189.2270  173.9050  140.0470 C   0  0  0  0  0  2  0  0  0  0  0  0
  187.9310  173.0920  138.3650 O   0  0  0  0  0  1  0  0  0  0  0  0
  188.8280  172.6340  139.3230 C   0  0  1  0  0  3  0  0  0  0  0  0
  189.9810  171.8930  138.7550 C   0  0  0  0  0  0  0  0  0  0  0  0
  190.9280  171.2450  139.6110 C   0  0  0  0  0  3  0  0  0  0  0  0
  191.0930  171.3260  141.2700 C   0  0  1  0  0  3  0  0  0  0  0  0
  189.9560  170.9130  142.0310 O   0  0  0  0  0  1  0  0  0  0  0  0
  192.2790  170.5930  141.8260 N   0  0  0  0  0  1  0  0  0  0  0  0
  189.9350  171.9260  137.1840 C   0  0  0  0  0  2  0  0  0  0  0  0
  193.2890  174.2360  136.3310 C   0  0  0  0  0  0  0  0  0  0  0  0
  192.2600  172.0320  136.3790 C   0  0  0  0  0  3  0  0  0  0  0  0
  192.0650  174.8710  136.5290 C   0  0  0  0  0  3  0  0  0  0  0  0
  193.3910  172.8720  136.2040 C   0  0  0  0  0  3  0  0  0  0  0  0
  191.1020  172.7040  136.7190 C   0  0  0  0  0  0  0  0  0  0  0  0
  190.9890  173.9990  136.6910 N   0  0  0  0  0  0  0  0  0  0  0  0
  195.4450  175.2590  137.1490 C   0  0  0  0  0  0  0  0  0  0  0  0
  194.4740  175.0820  136.1000 N   0  0  0  0  0  2  0  0  0  0  0  0
  196.6090  175.7580  136.8840 O   0  0  0  0  0  0  0  0  0  0  0  0
  195.1740  175.0510  138.5150 O   0  0  0  0  0  0  0  0  0  0  0  0
  196.2840  175.9950  140.2920 O   0  0  0  0  0  1  0  0  0  0  0  0
  196.1880  174.8570  139.4780 C   0  0  1  0  0  3  0  0  0  0  0  0
  195.8540  173.6630  140.2940 C   0  0  0  0  0  0  0  0  0  0  0  0
  196.7660  173.1550  140.9880 O   0  0  0  0  0  0  0  0  0  0  0  0
  194.4420  173.0560  140.2700 C   0  0  0  0  0  3  0  0  0  0  0  0
  193.5540  173.5360  141.2860 F   0  0  0  0  0  0  0  0  0  0  0  0
  194.2290  171.8480  139.5350 F   0  0  0  0  0  0  0  0  0  0  0  0
  1  2  2  0  0  0  0
  3  8  1  6  0  0  0
  3  5  1  0  0  0  0
  4  9  1  1  0  0  0
  5  4  1  0  0  0  0
  6  4  1  0  0  0  0
  7  2  1  1  0  0  0
  7  3  1  0  0  0  0
  7  6  1  0  0  0  0
 10  9  1  6  0  0  0
 10 12  1  0  0  0  0
 11 14  1  0  0  0  0
 11 13  1  0  0  0  0
 13 12  1  0  0  0  0
 14 10  1  0  0  0  0
 15 11  1  0  0  0  0
 15 16  2  0  0  0  0
 18 17  1  6  0  0  0
 18 19  1  0  0  0  0
 18 15  1  0  0  0  0
 20 19  1  0  0  0  0
 20 21  1  1  0  0  0
 22 20  1  0  0  0  0
 23 22  1  0  0  0  0
 24 27  1  0  0  0  0
 24 28  1  0  0  0  0
 25 29  1  0  0  0  0
 25 26  1  0  0  0  0
 27 25  2  0  0  0  0
 28 26  2  0  0  0  0
 28  2  1  0  0  0  0
 30 29  1  0  0  0  0
 31 30  1  0  0  0  0
 32 34  1  0  0  0  0
 32 33  1  0  0  0  0
 33 31  1  6  0  0  0
 34 33  1  0  0  0  0
 35  1  1  0  0  0  0
 36 35  1  0  0  0  0
 38 37  1  6  0  0  0
 38 36  1  0  0  0  0
 39 38  1  0  0  0  0
 39 40  2  0  0  0  0
 40 41  1  0  0  0  0
 41 43  1  1  0  0  0
 41 42  1  0  0  0  0
 44 39  1  0  0  0  0
 45 47  1  0  0  0  0
 46 49  2  0  0  0  0
 47 50  2  0  0  0  0
 48 45  2  0  0  0  0
 48 46  1  0  0  0  0
 49 44  1  0  0  0  0
 50 49  1  0  0  0  0
 51 54  1  0  0  0  0
 52 45  1  0  0  0  0
 52 51  1  0  0  0  0
 53 51  2  0  0  0  0
 54 56  1  0  0  0  0
 56 55  1  1  0  0  0
 56 57  1  0  0  0  0
 57 58  2  0  0  0  0
 59 57  1  0  0  0  0
 59 60  1  0  0  0  0
 61 59  1  0  0  0  0
M  END
>  <MODEL>
1

>  <REMARK>
 VINA RESULT:      -5.7      0.000      0.000
  Name = 
  24 active torsions:
  status: ('A' for Active; 'I' for Inactive)
    1  A    between atoms: C_2  and  O_55
    2  A    between atoms: C_3  and  C_47
    3  A    between atoms: CA_4  and  C_11
    4  A    between atoms: CA_4  and  C_25
    5  A    between atoms: C_7  and  C_9
    6  A    between atoms: C_7  and  C_24
    7  A    between atoms: C_8  and  C_47
    8  A    between atoms: C_10  and  C_30
    9  A    between atoms: C_10  and  C_50
   10  A    between atoms: C_14  and  N_37
   11  A    between atoms: C_15  and  C_16
   12  A    between atoms: N_22  and  O_60
   13  A    between atoms: C_24  and  O_55
   14  A    between atoms: C_25  and  C_56
   15  A    between atoms: C_30  and  C_58
   16  A    between atoms: C_32  and  O_38
   17  A    between atoms: C_32  and  C_44
   18  A    between atoms: C_33  and  C_34
   19  A    between atoms: C_33  and  O_38
   20  A    between atoms: C_42  and  C_45
   21  A    between atoms: C_45  and  C_61
   22  A    between atoms: C_50  and  C_53
   23  A    between atoms: C_51  and  C_56
   24  A    between atoms: C_58  and  O_60
                            x       y       z     vdW  Elec       q    Type
                         _______ _______ _______ _____ _____    ______ ____

>  <TORSDO>
F 24

$$$$
=
 OpenBabel11042418013D

 61 65  0  0  1  0  0  0  0  0999 V2000
  185.3820  177.6780  141.3460 N   0  0  0  0  0  0  0  0  0  0  0  0
  184.8570  177.6930  142.5320 C   0  0  0  0  0  0  0  0  0  0  0  0
  185.1680  179.2970  144.6800 C   0  0  2  0  0  3  0  0  0  0  0  0
  187.0560  177.6410  145.5370 C   0  0  2  0  0  3  0  0  0  0  0  0
  186.1870  179.1690  146.1440 S   0  0  0  0  0  0  0  0  0  0  0  0
  186.4920  177.1990  144.3190 O   0  0  0  0  0  0  0  0  0  0  0  0
  185.6900  178.2380  143.7250 C   0  0  1  0  0  3  0  0  0  0  0  0
  185.4570  180.4750  144.0840 O   0  0  0  0  0  1  0  0  0  0  0  0
  187.3250  176.5800  146.6260 C   0  0  0  0  0  2  0  0  0  0  0  0
  188.3440  175.5570  146.0960 C   0  0  2  0  0  3  0  0  0  0  0  0
  190.7270  175.8070  146.3350 N   0  0  0  0  0  0  0  0  0  0  0  0
  188.9170  174.7850  147.2800 C   0  0  0  0  0  2  0  0  0  0  0  0
  190.1950  175.0920  147.4640 C   0  0  0  0  0  2  0  0  0  0  0  0
  189.5950  176.2010  145.5000 C   0  0  0  0  0  2  0  0  0  0  0  0
  192.1320  175.5940  145.9920 C   0  0  0  0  0  0  0  0  0  0  0  0
  192.6490  174.5280  146.3560 O   0  0  0  0  0  0  0  0  0  0  0  0
  193.8330  176.9700  146.9540 O   0  0  0  0  0  1  0  0  0  0  0  0
  193.0170  176.7730  145.8360 C   0  0  1  0  0  3  0  0  0  0  0  0
  193.8540  176.4780  144.6170 C   0  0  0  0  0  2  0  0  0  0  0  0
  195.3850  176.2290  144.7120 C   0  0  2  0  0  3  0  0  0  0  0  0
  195.9560  176.6200  143.4170 N   0  0  0  0  0  1  0  0  0  0  0  0
  195.8600  174.7680  145.0940 C   0  0  0  0  0  2  0  0  0  0  0  0
  196.3990  174.0910  143.9620 O   0  0  0  0  0  1  0  0  0  0  0  0
  182.4700  179.0820  143.4750 S   0  0  0  0  0  0  0  0  0  0  0  0
  181.4080  178.6910  141.3050 C   0  0  0  0  0  0  0  0  0  0  0  0
  182.6490  178.0210  141.2330 C   0  0  0  0  0  3  0  0  0  0  0  0
  181.1730  179.2970  142.4890 C   0  0  0  0  0  3  0  0  0  0  0  0
  183.4510  178.1460  142.3820 C   0  0  0  0  0  0  0  0  0  0  0  0
  180.3860  178.6930  140.2750 C   0  0  0  0  0  2  0  0  0  0  0  0
  179.1080  179.0870  140.7240 O   0  0  0  0  0  0  0  0  0  0  0  0
  178.6540  180.0470  139.8120 C   0  0  0  0  0  2  0  0  0  0  0  0
  178.0110  182.2310  139.1480 O   0  0  0  0  0  0  0  0  0  0  0  0
  178.6220  181.4760  140.1200 C   0  0  2  0  0  3  0  0  0  0  0  0
  179.4410  182.2220  139.0950 C   0  0  0  0  0  2  0  0  0  0  0  0
  186.6550  177.8530  140.9120 O   0  0  0  0  0  0  0  0  0  0  0  0
  187.1860  176.6810  140.2600 C   0  0  0  0  0  2  0  0  0  0  0  0
  188.6560  176.8580  141.9860 O   0  0  0  0  0  1  0  0  0  0  0  0
  188.4900  176.1360  140.8090 C   0  0  1  0  0  3  0  0  0  0  0  0
  188.4770  174.6660  141.0070 C   0  0  0  0  0  0  0  0  0  0  0  0
  188.6650  173.7760  139.9020 C   0  0  0  0  0  3  0  0  0  0  0  0
  188.7200  174.1080  138.2670 C   0  0  1  0  0  3  0  0  0  0  0  0
  189.0250  173.0020  137.4150 O   0  0  0  0  0  1  0  0  0  0  0  0
  187.4870  174.7600  137.7100 N   0  0  0  0  0  1  0  0  0  0  0  0
  188.2760  174.3190  142.5270 C   0  0  0  0  0  2  0  0  0  0  0  0
  191.6060  172.3240  144.0260 C   0  0  0  0  0  0  0  0  0  0  0  0
  189.1890  172.3930  143.7610 C   0  0  0  0  0  3  0  0  0  0  0  0
  191.7920  173.3340  143.0860 C   0  0  0  0  0  3  0  0  0  0  0  0
  190.3610  171.8230  144.3230 C   0  0  0  0  0  3  0  0  0  0  0  0
  189.4220  173.4860  142.9500 C   0  0  0  0  0  0  0  0  0  0  0  0
  190.6080  173.8540  142.5650 N   0  0  0  0  0  0  0  0  0  0  0  0
  193.4100  170.5640  143.9150 C   0  0  0  0  0  0  0  0  0  0  0  0
  192.8060  171.6810  144.5930 N   0  0  0  0  0  2  0  0  0  0  0  0
  194.6000  170.1700  144.2360 O   0  0  0  0  0  0  0  0  0  0  0  0
  192.7340  169.7470  142.9860 O   0  0  0  0  0  0  0  0  0  0  0  0
  192.5980  168.3800  141.1450 O   0  0  0  0  0  1  0  0  0  0  0  0
  193.1990  169.5330  141.6710 C   0  0  1  0  0  3  0  0  0  0  0  0
  192.8640  170.7180  140.8430 C   0  0  0  0  0  0  0  0  0  0  0  0
  193.7790  171.5390  140.5980 O   0  0  0  0  0  0  0  0  0  0  0  0
  191.4360  170.9430  140.3220 C   0  0  0  0  0  3  0  0  0  0  0  0
  191.3310  171.7960  139.1770 F   0  0  0  0  0  0  0  0  0  0  0  0
  190.3370  170.6280  141.1810 F   0  0  0  0  0  0  0  0  0  0  0  0
  1  2  2  0  0  0  0
  3  8  1  6  0  0  0
  3  5  1  0  0  0  0
  4  5  1  0  0  0  0
  4  9  1  1  0  0  0
  6  4  1  0  0  0  0
  7  2  1  1  0  0  0
  7  6  1  0  0  0  0
  7  3  1  0  0  0  0
 10  9  1  1  0  0  0
 10 12  1  0  0  0  0
 11 13  1  0  0  0  0
 12 13  1  0  0  0  0
 14 10  1  0  0  0  0
 14 11  1  0  0  0  0
 15 11  1  0  0  0  0
 15 16  2  0  0  0  0
 18 15  1  0  0  0  0
 18 17  1  1  0  0  0
 19 20  1  0  0  0  0
 19 18  1  0  0  0  0
 20 21  1  6  0  0  0
 20 22  1  0  0  0  0
 23 22  1  0  0  0  0
 25 27  2  0  0  0  0
 26 25  1  0  0  0  0
 26 28  2  0  0  0  0
 27 24  1  0  0  0  0
 28  2  1  0  0  0  0
 28 24  1  0  0  0  0
 29 30  1  0  0  0  0
 29 25  1  0  0  0  0
 31 30  1  0  0  0  0
 32 33  1  0  0  0  0
 33 31  1  6  0  0  0
 34 32  1  0  0  0  0
 34 33  1  0  0  0  0
 35  1  1  0  0  0  0
 36 38  1  0  0  0  0
 36 35  1  0  0  0  0
 38 39  1  0  0  0  0
 38 37  1  1  0  0  0
 39 44  1  0  0  0  0
 40 39  2  0  0  0  0
 41 42  1  6  0  0  0
 41 40  1  0  0  0  0
 43 41  1  0  0  0  0
 44 49  1  0  0  0  0
 45 48  1  0  0  0  0
 45 52  1  0  0  0  0
 46 48  2  0  0  0  0
 47 45  2  0  0  0  0
 49 46  1  0  0  0  0
 50 49  2  0  0  0  0
 50 47  1  0  0  0  0
 51 53  2  0  0  0  0
 51 52  1  0  0  0  0
 54 51  1  0  0  0  0
 56 55  1  6  0  0  0
 56 54  1  0  0  0  0
 57 56  1  0  0  0  0
 58 57  2  0  0  0  0
 59 57  1  0  0  0  0
 59 61  1  0  0  0  0
 60 59  1  0  0  0  0
M  END
>  <MODEL>
2

>  <REMARK>
 VINA RESULT:      -5.6      3.054      5.062
  Name = 
  24 active torsions:
  status: ('A' for Active; 'I' for Inactive)
    1  A    between atoms: C_2  and  O_55
    2  A    between atoms: C_3  and  C_47
    3  A    between atoms: CA_4  and  C_11
    4  A    between atoms: CA_4  and  C_25
    5  A    between atoms: C_7  and  C_9
    6  A    between atoms: C_7  and  C_24
    7  A    between atoms: C_8  and  C_47
    8  A    between atoms: C_10  and  C_30
    9  A    between atoms: C_10  and  C_50
   10  A    between atoms: C_14  and  N_37
   11  A    between atoms: C_15  and  C_16
   12  A    between atoms: N_22  and  O_60
   13  A    between atoms: C_24  and  O_55
   14  A    between atoms: C_25  and  C_56
   15  A    between atoms: C_30  and  C_58
   16  A    between atoms: C_32  and  O_38
   17  A    between atoms: C_32  and  C_44
   18  A    between atoms: C_33  and  C_34
   19  A    between atoms: C_33  and  O_38
   20  A    between atoms: C_42  and  C_45
   21  A    between atoms: C_45  and  C_61
   22  A    between atoms: C_50  and  C_53
   23  A    between atoms: C_51  and  C_56
   24  A    between atoms: C_58  and  O_60
                            x       y       z     vdW  Elec       q    Type
                         _______ _______ _______ _____ _____    ______ ____

>  <TORSDO>
F 24

$$$$
=
 OpenBabel11042418013D

 61 65  0  0  1  0  0  0  0  0999 V2000
  186.3610  176.8090  141.7540 N   0  0  0  0  0  0  0  0  0  0  0  0
  185.5560  177.2440  142.6730 C   0  0  0  0  0  0  0  0  0  0  0  0
  185.3100  178.8550  144.8240 C   0  0  2  0  0  3  0  0  0  0  0  0
  187.4760  177.7000  145.8310 C   0  0  2  0  0  3  0  0  0  0  0  0
  186.2200  178.9650  146.3600 S   0  0  0  0  0  0  0  0  0  0  0  0
  187.1270  177.1450  144.5790 O   0  0  0  0  0  0  0  0  0  0  0  0
  186.1420  177.9640  143.9190 C   0  0  1  0  0  3  0  0  0  0  0  0
  185.3470  180.0740  144.2400 O   0  0  0  0  0  1  0  0  0  0  0  0
  187.9150  176.7260  146.9460 C   0  0  0  0  0  2  0  0  0  0  0  0
  188.8580  175.6660  146.3510 C   0  0  2  0  0  3  0  0  0  0  0  0
  191.2580  175.8160  146.4480 N   0  0  0  0  0  0  0  0  0  0  0  0
  189.4680  174.8620  147.4950 C   0  0  0  0  0  2  0  0  0  0  0  0
  190.7660  175.1150  147.6040 C   0  0  0  0  0  2  0  0  0  0  0  0
  190.0960  176.2620  145.6840 C   0  0  0  0  0  2  0  0  0  0  0  0
  192.6310  175.5490  146.0200 C   0  0  0  0  0  0  0  0  0  0  0  0
  193.1240  174.4600  146.3470 O   0  0  0  0  0  0  0  0  0  0  0  0
  194.0460  177.1900  147.0270 O   0  0  0  0  0  1  0  0  0  0  0  0
  193.5530  176.6920  145.8180 C   0  0  1  0  0  3  0  0  0  0  0  0
  194.6770  176.1460  144.9740 C   0  0  0  0  0  2  0  0  0  0  0  0
  194.4790  175.7860  143.4760 C   0  0  2  0  0  3  0  0  0  0  0  0
  195.6650  176.2780  142.7650 N   0  0  0  0  0  1  0  0  0  0  0  0
  193.1650  176.3180  142.7690 C   0  0  0  0  0  2  0  0  0  0  0  0
  192.5390  175.2880  142.0070 O   0  0  0  0  0  1  0  0  0  0  0  0
  184.1980  178.2640  140.3010 S   0  0  0  0  0  0  0  0  0  0  0  0
  182.1490  178.5370  141.6130 C   0  0  0  0  0  0  0  0  0  0  0  0
  183.1260  178.1080  142.5400 C   0  0  0  0  0  3  0  0  0  0  0  0
  182.6100  178.6850  140.3510 C   0  0  0  0  0  3  0  0  0  0  0  0
  184.3930  177.8540  141.9820 C   0  0  0  0  0  0  0  0  0  0  0  0
  180.7810  178.8950  141.9310 C   0  0  0  0  0  2  0  0  0  0  0  0
  179.8740  177.8140  141.8990 O   0  0  0  0  0  0  0  0  0  0  0  0
  178.7160  178.2960  141.2750 C   0  0  0  0  0  2  0  0  0  0  0  0
  178.9870  177.4330  139.0830 O   0  0  0  0  0  0  0  0  0  0  0  0
  178.1100  177.6380  140.1200 C   0  0  2  0  0  3  0  0  0  0  0  0
  178.1420  178.5780  138.9400 C   0  0  0  0  0  2  0  0  0  0  0  0
  187.7080  176.6480  141.7270 O   0  0  0  0  0  0  0  0  0  0  0  0
  188.1110  175.4540  141.0250 C   0  0  0  0  0  2  0  0  0  0  0  0
  188.9710  174.7980  143.0250 O   0  0  0  0  0  1  0  0  0  0  0  0
  189.2150  174.6360  141.6660 C   0  0  1  0  0  3  0  0  0  0  0  0
  189.2300  173.2190  141.2270 C   0  0  0  0  0  0  0  0  0  0  0  0
  189.4310  172.8810  139.8500 C   0  0  0  0  0  3  0  0  0  0  0  0
  189.4760  173.8710  138.5070 C   0  0  1  0  0  3  0  0  0  0  0  0
  190.6010  173.7010  137.6430 O   0  0  0  0  0  1  0  0  0  0  0  0
  188.2500  173.8210  137.6410 N   0  0  0  0  0  1  0  0  0  0  0  0
  189.0390  172.2600  142.4580 C   0  0  0  0  0  2  0  0  0  0  0  0
  192.5000  170.2440  143.5840 C   0  0  0  0  0  0  0  0  0  0  0  0
  190.6200  170.4160  142.0510 C   0  0  0  0  0  3  0  0  0  0  0  0
  192.2540  171.5090  144.1130 C   0  0  0  0  0  3  0  0  0  0  0  0
  191.7540  169.7260  142.5530 C   0  0  0  0  0  3  0  0  0  0  0  0
  190.3350  171.5960  142.7110 C   0  0  0  0  0  0  0  0  0  0  0  0
  191.1320  172.1410  143.5810 N   0  0  0  0  0  0  0  0  0  0  0  0
  195.0080  169.9840  143.6740 C   0  0  0  0  0  0  0  0  0  0  0  0
  193.6980  169.5220  144.0530 N   0  0  0  0  0  2  0  0  0  0  0  0
  196.0590  169.5440  144.2880 O   0  0  0  0  0  0  0  0  0  0  0  0
  195.2610  170.8040  142.5570 O   0  0  0  0  0  0  0  0  0  0  0  0
  194.8480  169.1500  141.0170 O   0  0  0  0  0  1  0  0  0  0  0  0
  195.6170  170.2910  141.2910 C   0  0  1  0  0  3  0  0  0  0  0  0
  195.3810  171.3360  140.2650 C   0  0  0  0  0  0  0  0  0  0  0  0
  195.9960  171.2370  139.1770 O   0  0  0  0  0  0  0  0  0  0  0  0
  194.4310  172.5130  140.5350 C   0  0  0  0  0  3  0  0  0  0  0  0
  195.0720  173.7540  140.8550 F   0  0  0  0  0  0  0  0  0  0  0  0
  193.0580  172.2330  140.8160 F   0  0  0  0  0  0  0  0  0  0  0  0
  1  2  2  0  0  0  0
  3  8  1  6  0  0  0
  3  5  1  0  0  0  0
  4  5  1  0  0  0  0
  4  9  1  1  0  0  0
  6  4  1  0  0  0  0
  7  2  1  1  0  0  0
  7  6  1  0  0  0  0
  7  3  1  0  0  0  0
 10  9  1  1  0  0  0
 10 12  1  0  0  0  0
 11 13  1  0  0  0  0
 12 13  1  0  0  0  0
 14 10  1  0  0  0  0
 14 11  1  0  0  0  0
 15 16  2  0  0  0  0
 15 11  1  0  0  0  0
 18 15  1  0  0  0  0
 18 17  1  1  0  0  0
 19 18  1  0  0  0  0
 20 21  1  6  0  0  0
 20 19  1  0  0  0  0
 22 20  1  0  0  0  0
 23 22  1  0  0  0  0
 24 27  1  0  0  0  0
 24 28  1  0  0  0  0
 25 29  1  0  0  0  0
 25 26  1  0  0  0  0
 27 25  2  0  0  0  0
 28 26  2  0  0  0  0
 28  2  1  0  0  0  0
 30 29  1  0  0  0  0
 31 30  1  0  0  0  0
 32 33  1  0  0  0  0
 33 31  1  1  0  0  0
 34 32  1  0  0  0  0
 34 33  1  0  0  0  0
 35  1  1  0  0  0  0
 36 38  1  0  0  0  0
 36 35  1  0  0  0  0
 38 37  1  1  0  0  0
 39 38  1  0  0  0  0
 39 44  1  0  0  0  0
 40 39  2  0  0  0  0
 41 43  1  6  0  0  0
 41 40  1  0  0  0  0
 42 41  1  0  0  0  0
 44 49  1  0  0  0  0
 45 52  1  0  0  0  0
 45 47  1  0  0  0  0
 46 48  1  0  0  0  0
 46 49  2  0  0  0  0
 48 45  2  0  0  0  0
 49 50  1  0  0  0  0
 50 47  2  0  0  0  0
 51 52  1  0  0  0  0
 51 53  2  0  0  0  0
 54 51  1  0  0  0  0
 56 55  1  6  0  0  0
 56 54  1  0  0  0  0
 57 59  1  0  0  0  0
 57 56  1  0  0  0  0
 58 57  2  0  0  0  0
 59 61  1  0  0  0  0
 59 60  1  0  0  0  0
M  END
>  <MODEL>
3

>  <REMARK>
 VINA RESULT:      -5.6      2.627      4.603
  Name = 
  24 active torsions:
  status: ('A' for Active; 'I' for Inactive)
    1  A    between atoms: C_2  and  O_55
    2  A    between atoms: C_3  and  C_47
    3  A    between atoms: CA_4  and  C_11
    4  A    between atoms: CA_4  and  C_25
    5  A    between atoms: C_7  and  C_9
    6  A    between atoms: C_7  and  C_24
    7  A    between atoms: C_8  and  C_47
    8  A    between atoms: C_10  and  C_30
    9  A    between atoms: C_10  and  C_50
   10  A    between atoms: C_14  and  N_37
   11  A    between atoms: C_15  and  C_16
   12  A    between atoms: N_22  and  O_60
   13  A    between atoms: C_24  and  O_55
   14  A    between atoms: C_25  and  C_56
   15  A    between atoms: C_30  and  C_58
   16  A    between atoms: C_32  and  O_38
   17  A    between atoms: C_32  and  C_44
   18  A    between atoms: C_33  and  C_34
   19  A    between atoms: C_33  and  O_38
   20  A    between atoms: C_42  and  C_45
   21  A    between atoms: C_45  and  C_61
   22  A    between atoms: C_50  and  C_53
   23  A    between atoms: C_51  and  C_56
   24  A    between atoms: C_58  and  O_60
                            x       y       z     vdW  Elec       q    Type
                         _______ _______ _______ _____ _____    ______ ____

>  <TORSDO>
F 24

$$$$
=
 OpenBabel11042418013D

 61 65  0  0  1  0  0  0  0  0999 V2000
  192.9910  174.5820  144.5030 N   0  0  0  0  0  0  0  0  0  0  0  0
  191.8290  174.9820  144.0850 C   0  0  0  0  0  0  0  0  0  0  0  0
  190.2170  172.8630  143.6430 C   0  0  2  0  0  3  0  0  0  0  0  0
  189.4500  174.0250  141.3840 C   0  0  2  0  0  3  0  0  0  0  0  0
  189.0230  172.5020  142.3620 S   0  0  0  0  0  0  0  0  0  0  0  0
  190.3840  174.8210  142.0860 O   0  0  0  0  0  0  0  0  0  0  0  0
  191.0030  174.0630  143.1440 C   0  0  1  0  0  3  0  0  0  0  0  0
  191.1100  171.8490  143.6670 O   0  0  0  0  0  1  0  0  0  0  0  0
  188.2390  174.7400  140.7470 C   0  0  0  0  0  2  0  0  0  0  0  0
  188.0450  176.1080  141.4220 C   0  0  2  0  0  3  0  0  0  0  0  0
  185.9080  177.1960  141.6360 N   0  0  0  0  0  0  0  0  0  0  0  0
  187.3900  175.8910  142.7820 C   0  0  0  0  0  2  0  0  0  0  0  0
  186.1500  176.3650  142.7850 C   0  0  0  0  0  2  0  0  0  0  0  0
  187.0220  176.9950  140.7130 C   0  0  0  0  0  2  0  0  0  0  0  0
  184.9960  178.3280  141.7910 C   0  0  0  0  0  0  0  0  0  0  0  0
  184.8510  178.7850  142.9340 O   0  0  0  0  0  0  0  0  0  0  0  0
  184.0230  177.6640  139.7120 O   0  0  0  0  0  1  0  0  0  0  0  0
  183.8690  178.4750  140.8400 C   0  0  1  0  0  3  0  0  0  0  0  0
  182.6430  178.0710  141.6180 C   0  0  0  0  0  2  0  0  0  0  0  0
  181.2110  178.2280  141.0350 C   0  0  2  0  0  3  0  0  0  0  0  0
  181.0990  179.6140  140.5630 N   0  0  0  0  0  1  0  0  0  0  0  0
  179.9970  177.8820  141.9910 C   0  0  0  0  0  2  0  0  0  0  0  0
  178.7500  178.0730  141.3260 O   0  0  0  0  0  1  0  0  0  0  0  0
  191.8230  176.2690  146.7040 S   0  0  0  0  0  0  0  0  0  0  0  0
  189.4250  176.7010  146.4640 C   0  0  0  0  0  0  0  0  0  0  0  0
  189.7800  175.9500  145.3220 C   0  0  0  0  0  3  0  0  0  0  0  0
  190.4490  176.9290  147.3170 C   0  0  0  0  0  3  0  0  0  0  0  0
  191.1440  175.6160  145.2380 C   0  0  0  0  0  0  0  0  0  0  0  0
  188.0870  177.1430  146.8050 C   0  0  0  0  0  2  0  0  0  0  0  0
  187.0570  176.3160  146.3090 O   0  0  0  0  0  0  0  0  0  0  0  0
  185.8560  176.8750  146.7620 C   0  0  0  0  0  2  0  0  0  0  0  0
  184.6620  178.7330  147.6250 O   0  0  0  0  0  0  0  0  0  0  0  0
  185.5780  178.3090  146.6940 C   0  0  2  0  0  3  0  0  0  0  0  0
  184.1330  178.5160  146.3130 C   0  0  0  0  0  2  0  0  0  0  0  0
  193.7940  173.5600  144.1160 O   0  0  0  0  0  0  0  0  0  0  0  0
  194.4910  172.9510  145.2220 C   0  0  0  0  0  2  0  0  0  0  0  0
  196.3900  171.9980  146.0320 O   0  0  0  0  0  1  0  0  0  0  0  0
  196.0050  173.0400  145.1960 C   0  0  1  0  0  3  0  0  0  0  0  0
  196.5770  172.9540  143.8300 C   0  0  0  0  0  0  0  0  0  0  0  0
  197.0910  174.1190  143.1760 C   0  0  0  0  0  3  0  0  0  0  0  0
  196.9940  175.7230  143.6290 C   0  0  1  0  0  3  0  0  0  0  0  0
  197.9410  176.6020  143.0190 O   0  0  0  0  0  1  0  0  0  0  0  0
  195.6410  176.3500  143.4540 N   0  0  0  0  0  1  0  0  0  0  0  0
  196.5450  171.4690  143.3140 C   0  0  0  0  0  2  0  0  0  0  0  0
  195.4020  171.1620  139.3250 C   0  0  0  0  0  0  0  0  0  0  0  0
  194.7860  170.9550  141.6690 C   0  0  0  0  0  3  0  0  0  0  0  0
  196.5830  171.8310  139.6390 C   0  0  0  0  0  3  0  0  0  0  0  0
  194.5000  170.7810  140.2900 C   0  0  0  0  0  3  0  0  0  0  0  0
  196.0330  171.4890  141.9280 C   0  0  0  0  0  0  0  0  0  0  0  0
  196.8100  171.9770  141.0070 N   0  0  0  0  0  0  0  0  0  0  0  0
  194.1220  171.9140  137.2850 C   0  0  0  0  0  0  0  0  0  0  0  0
  195.0560  171.0070  137.9000 N   0  0  0  0  0  2  0  0  0  0  0  0
  194.0180  171.9710  135.9970 O   0  0  0  0  0  0  0  0  0  0  0  0
  193.1790  172.6790  138.0010 O   0  0  0  0  0  0  0  0  0  0  0  0
  191.4360  172.1780  139.4110 O   0  0  0  0  0  1  0  0  0  0  0  0
  191.8100  172.3420  138.0690 C   0  0  1  0  0  3  0  0  0  0  0  0
  191.0170  173.4250  137.4370 C   0  0  0  0  0  0  0  0  0  0  0  0
  191.6400  174.3920  136.9380 O   0  0  0  0  0  0  0  0  0  0  0  0
  189.4820  173.3750  137.4160 C   0  0  0  0  0  3  0  0  0  0  0  0
  188.9170  172.1540  136.9230 F   0  0  0  0  0  0  0  0  0  0  0  0
  188.7550  174.6030  137.5140 F   0  0  0  0  0  0  0  0  0  0  0  0
  2  1  2  0  0  0  0
  2 28  1  0  0  0  0
  3  8  1  6  0  0  0
  4  9  1  1  0  0  0
  4  6  1  0  0  0  0
  4  5  1  0  0  0  0
  5  3  1  0  0  0  0
  6  7  1  0  0  0  0
  7  3  1  0  0  0  0
  7  2  1  1  0  0  0
 10  9  1  6  0  0  0
 10 12  1  0  0  0  0
 11 15  1  0  0  0  0
 11 13  1  0  0  0  0
 12 13  1  0  0  0  0
 14 10  1  0  0  0  0
 14 11  1  0  0  0  0
 15 16  2  0  0  0  0
 18 17  1  6  0  0  0
 18 19  1  0  0  0  0
 18 15  1  0  0  0  0
 20 21  1  1  0  0  0
 20 19  1  0  0  0  0
 20 22  1  0  0  0  0
 23 22  1  0  0  0  0
 24 27  1  0  0  0  0
 25 29  1  0  0  0  0
 25 27  2  0  0  0  0
 26 25  1  0  0  0  0
 28 26  2  0  0  0  0
 28 24  1  0  0  0  0
 30 31  1  0  0  0  0
 30 29  1  0  0  0  0
 33 31  1  1  0  0  0
 33 32  1  0  0  0  0
 34 33  1  0  0  0  0
 34 32  1  0  0  0  0
 35  1  1  0  0  0  0
 35 36  1  0  0  0  0
 38 36  1  0  0  0  0
 38 37  1  1  0  0  0
 39 38  1  0  0  0  0
 40 41  1  0  0  0  0
 40 39  2  0  0  0  0
 41 42  1  6  0  0  0
 43 41  1  0  0  0  0
 44 39  1  0  0  0  0
 45 47  2  0  0  0  0
 45 48  1  0  0  0  0
 46 49  1  0  0  0  0
 47 50  1  0  0  0  0
 48 46  2  0  0  0  0
 49 44  1  0  0  0  0
 50 49  2  0  0  0  0
 51 52  1  0  0  0  0
 51 54  1  0  0  0  0
 52 45  1  0  0  0  0
 53 51  2  0  0  0  0
 54 56  1  0  0  0  0
 56 55  1  1  0  0  0
 57 56  1  0  0  0  0
 58 57  2  0  0  0  0
 59 57  1  0  0  0  0
 59 61  1  0  0  0  0
 60 59  1  0  0  0  0
M  END
>  <MODEL>
4

>  <REMARK>
 VINA RESULT:      -5.5      3.031      8.439
  Name = 
  24 active torsions:
  status: ('A' for Active; 'I' for Inactive)
    1  A    between atoms: C_2  and  O_55
    2  A    between atoms: C_3  and  C_47
    3  A    between atoms: CA_4  and  C_11
    4  A    between atoms: CA_4  and  C_25
    5  A    between atoms: C_7  and  C_9
    6  A    between atoms: C_7  and  C_24
    7  A    between atoms: C_8  and  C_47
    8  A    between atoms: C_10  and  C_30
    9  A    between atoms: C_10  and  C_50
   10  A    between atoms: C_14  and  N_37
   11  A    between atoms: C_15  and  C_16
   12  A    between atoms: N_22  and  O_60
   13  A    between atoms: C_24  and  O_55
   14  A    between atoms: C_25  and  C_56
   15  A    between atoms: C_30  and  C_58
   16  A    between atoms: C_32  and  O_38
   17  A    between atoms: C_32  and  C_44
   18  A    between atoms: C_33  and  C_34
   19  A    between atoms: C_33  and  O_38
   20  A    between atoms: C_42  and  C_45
   21  A    between atoms: C_45  and  C_61
   22  A    between atoms: C_50  and  C_53
   23  A    between atoms: C_51  and  C_56
   24  A    between atoms: C_58  and  O_60
                            x       y       z     vdW  Elec       q    Type
                         _______ _______ _______ _____ _____    ______ ____

>  <TORSDO>
F 24

$$$$
=
 OpenBabel11042418013D

 61 65  0  0  1  0  0  0  0  0999 V2000
  188.2400  177.6670  141.7510 N   0  0  0  0  0  0  0  0  0  0  0  0
  187.3610  177.3580  140.8480 C   0  0  0  0  0  0  0  0  0  0  0  0
  187.7270  175.7930  138.6800 C   0  0  2  0  0  3  0  0  0  0  0  0
  188.3050  173.7930  140.3250 C   0  0  2  0  0  3  0  0  0  0  0  0
  188.2710  174.1000  138.4910 S   0  0  0  0  0  0  0  0  0  0  0  0
  188.0240  174.9830  141.0340 O   0  0  0  0  0  0  0  0  0  0  0  0
  187.4350  175.9670  140.1600 C   0  0  1  0  0  3  0  0  0  0  0  0
  186.5240  175.9050  138.0740 O   0  0  0  0  0  1  0  0  0  0  0  0
  189.4950  172.9380  140.8110 C   0  0  0  0  0  2  0  0  0  0  0  0
  190.3900  172.5850  139.6110 C   0  0  2  0  0  3  0  0  0  0  0  0
  192.5580  171.5600  139.8240 N   0  0  0  0  0  0  0  0  0  0  0  0
  190.3650  171.0720  139.4150 C   0  0  0  0  0  2  0  0  0  0  0  0
  191.5470  170.5440  139.7090 C   0  0  0  0  0  2  0  0  0  0  0  0
  191.8740  172.8500  139.8630 C   0  0  0  0  0  2  0  0  0  0  0  0
  193.9190  171.2190  139.4130 C   0  0  0  0  0  0  0  0  0  0  0  0
  194.0490  170.2980  138.5940 O   0  0  0  0  0  0  0  0  0  0  0  0
  196.0480  170.5130  140.2360 O   0  0  0  0  0  1  0  0  0  0  0  0
  195.0350  171.4670  140.3570 C   0  0  1  0  0  3  0  0  0  0  0  0
  195.5540  172.8370  140.0000 C   0  0  0  0  0  2  0  0  0  0  0  0
  195.3980  173.4280  138.5720 C   0  0  2  0  0  3  0  0  0  0  0  0
  196.6810  173.2220  137.8890 N   0  0  0  0  0  1  0  0  0  0  0  0
  194.9630  174.9470  138.4590 C   0  0  0  0  0  2  0  0  0  0  0  0
  194.3390  175.3930  139.6600 O   0  0  0  0  0  1  0  0  0  0  0  0
  184.5260  177.9500  140.4930 S   0  0  0  0  0  0  0  0  0  0  0  0
  184.3480  178.4420  142.8840 C   0  0  0  0  0  0  0  0  0  0  0  0
  185.7190  178.1820  142.6630 C   0  0  0  0  0  3  0  0  0  0  0  0
  183.5840  178.3700  141.7720 C   0  0  0  0  0  3  0  0  0  0  0  0
  186.0450  177.8370  141.3380 C   0  0  0  0  0  0  0  0  0  0  0  0
  183.7560  178.8470  144.1450 C   0  0  0  0  0  2  0  0  0  0  0  0
  184.6710  179.3980  145.0670 O   0  0  0  0  0  0  0  0  0  0  0  0
  184.9810  178.3730  145.9680 C   0  0  0  0  0  2  0  0  0  0  0  0
  186.7560  176.8000  146.0000 O   0  0  0  0  0  0  0  0  0  0  0  0
  186.3520  178.0600  146.3680 C   0  0  2  0  0  3  0  0  0  0  0  0
  186.3320  176.9240  147.3610 C   0  0  0  0  0  2  0  0  0  0  0  0
  189.4150  177.0920  142.1110 O   0  0  0  0  0  0  0  0  0  0  0  0
  189.7480  177.3270  143.4950 C   0  0  0  0  0  2  0  0  0  0  0  0
  190.1890  175.0990  143.3770 O   0  0  0  0  0  1  0  0  0  0  0  0
  190.3860  176.1710  144.2400 C   0  0  1  0  0  3  0  0  0  0  0  0
  191.8100  176.4070  144.5840 C   0  0  0  0  0  0  0  0  0  0  0  0
  192.2360  176.4470  145.9510 C   0  0  0  0  0  3  0  0  0  0  0  0
  191.3250  176.4600  147.3490 C   0  0  1  0  0  3  0  0  0  0  0  0
  190.2260  177.3730  147.3700 O   0  0  0  0  0  1  0  0  0  0  0  0
  190.7880  175.1220  147.7680 N   0  0  0  0  0  1  0  0  0  0  0  0
  192.6750  176.5480  143.2790 C   0  0  0  0  0  2  0  0  0  0  0  0
  195.9620  174.1730  144.2090 C   0  0  0  0  0  0  0  0  0  0  0  0
  193.7880  174.3570  143.1340 C   0  0  0  0  0  3  0  0  0  0  0  0
  196.0620  175.5540  144.3640 C   0  0  0  0  0  3  0  0  0  0  0  0
  194.8970  173.5860  143.5710 C   0  0  0  0  0  3  0  0  0  0  0  0
  193.8740  175.7000  143.4440 C   0  0  0  0  0  0  0  0  0  0  0  0
  194.9480  176.2610  143.9140 N   0  0  0  0  0  0  0  0  0  0  0  0
  196.9260  171.9650  144.9560 C   0  0  0  0  0  0  0  0  0  0  0  0
  197.1170  173.3500  144.6130 N   0  0  0  0  0  2  0  0  0  0  0  0
  197.9410  171.1660  145.0390 O   0  0  0  0  0  0  0  0  0  0  0  0
  195.6910  171.4150  145.3540 O   0  0  0  0  0  0  0  0  0  0  0  0
  194.8070  169.7510  146.6670 O   0  0  0  0  0  1  0  0  0  0  0  0
  195.4680  170.0250  145.4620 C   0  0  1  0  0  3  0  0  0  0  0  0
  194.6500  169.5790  144.3070 C   0  0  0  0  0  0  0  0  0  0  0  0
  195.2500  169.2630  143.2520 O   0  0  0  0  0  0  0  0  0  0  0  0
  193.1170  169.5280  144.3940 C   0  0  0  0  0  3  0  0  0  0  0  0
  192.4640  170.8020  144.4390 F   0  0  0  0  0  0  0  0  0  0  0  0
  192.4950  168.3030  144.7920 F   0  0  0  0  0  0  0  0  0  0  0  0
  1 35  1  0  0  0  0
  2 28  1  0  0  0  0
  2  1  2  0  0  0  0
  3  8  1  6  0  0  0
  3  7  1  0  0  0  0
  4  9  1  1  0  0  0
  4  6  1  0  0  0  0
  5  3  1  0  0  0  0
  5  4  1  0  0  0  0
  7  2  1  1  0  0  0
  7  6  1  0  0  0  0
 10 14  1  0  0  0  0
 10  9  1  1  0  0  0
 11 14  1  0  0  0  0
 12 10  1  0  0  0  0
 12 13  1  0  0  0  0
 13 11  1  0  0  0  0
 15 11  1  0  0  0  0
 15 18  1  0  0  0  0
 16 15  2  0  0  0  0
 18 17  1  6  0  0  0
 19 18  1  0  0  0  0
 20 21  1  1  0  0  0
 20 19  1  0  0  0  0
 22 20  1  0  0  0  0
 22 23  1  0  0  0  0
 24 28  1  0  0  0  0
 24 27  1  0  0  0  0
 25 29  1  0  0  0  0
 26 25  1  0  0  0  0
 27 25  2  0  0  0  0
 28 26  2  0  0  0  0
 29 30  1  0  0  0  0
 30 31  1  0  0  0  0
 32 33  1  0  0  0  0
 32 34  1  0  0  0  0
 33 31  1  6  0  0  0
 33 34  1  0  0  0  0
 35 36  1  0  0  0  0
 36 38  1  0  0  0  0
 38 37  1  6  0  0  0
 38 39  1  0  0  0  0
 39 40  2  0  0  0  0
 40 41  1  0  0  0  0
 41 42  1  6  0  0  0
 41 43  1  0  0  0  0
 44 49  1  0  0  0  0
 44 39  1  0  0  0  0
 45 47  1  0  0  0  0
 45 52  1  0  0  0  0
 46 49  2  0  0  0  0
 46 48  1  0  0  0  0
 48 45  2  0  0  0  0
 49 50  1  0  0  0  0
 50 47  2  0  0  0  0
 51 53  2  0  0  0  0
 51 54  1  0  0  0  0
 52 51  1  0  0  0  0
 54 56  1  0  0  0  0
 56 55  1  1  0  0  0
 57 59  1  0  0  0  0
 57 56  1  0  0  0  0
 58 57  2  0  0  0  0
 59 60  1  0  0  0  0
 59 61  1  0  0  0  0
M  END
>  <MODEL>
5

>  <REMARK>
 VINA RESULT:      -5.3      2.818      6.785
  Name = 
  24 active torsions:
  status: ('A' for Active; 'I' for Inactive)
    1  A    between atoms: C_2  and  O_55
    2  A    between atoms: C_3  and  C_47
    3  A    between atoms: CA_4  and  C_11
    4  A    between atoms: CA_4  and  C_25
    5  A    between atoms: C_7  and  C_9
    6  A    between atoms: C_7  and  C_24
    7  A    between atoms: C_8  and  C_47
    8  A    between atoms: C_10  and  C_30
    9  A    between atoms: C_10  and  C_50
   10  A    between atoms: C_14  and  N_37
   11  A    between atoms: C_15  and  C_16
   12  A    between atoms: N_22  and  O_60
   13  A    between atoms: C_24  and  O_55
   14  A    between atoms: C_25  and  C_56
   15  A    between atoms: C_30  and  C_58
   16  A    between atoms: C_32  and  O_38
   17  A    between atoms: C_32  and  C_44
   18  A    between atoms: C_33  and  C_34
   19  A    between atoms: C_33  and  O_38
   20  A    between atoms: C_42  and  C_45
   21  A    between atoms: C_45  and  C_61
   22  A    between atoms: C_50  and  C_53
   23  A    between atoms: C_51  and  C_56
   24  A    between atoms: C_58  and  O_60
                            x       y       z     vdW  Elec       q    Type
                         _______ _______ _______ _____ _____    ______ ____

>  <TORSDO>
F 24

$$$$
=
 OpenBabel11042418013D

 61 65  0  0  1  0  0  0  0  0999 V2000
  187.9020  174.4640  142.0610 N   0  0  0  0  0  0  0  0  0  0  0  0
  187.9500  175.5580  142.7570 C   0  0  0  0  0  0  0  0  0  0  0  0
  189.5550  177.5520  143.6110 C   0  0  2  0  0  3  0  0  0  0  0  0
  191.1600  175.7050  144.6390 C   0  0  2  0  0  3  0  0  0  0  0  0
  191.0490  177.5610  144.5950 S   0  0  0  0  0  0  0  0  0  0  0  0
  190.0290  175.1250  144.0220 O   0  0  0  0  0  0  0  0  0  0  0  0
  189.3270  176.1010  143.2270 C   0  0  1  0  0  3  0  0  0  0  0  0
  189.8300  178.1800  142.4470 O   0  0  0  0  0  1  0  0  0  0  0  0
  191.6130  175.1210  145.9940 C   0  0  0  0  0  2  0  0  0  0  0  0
  193.0710  174.6450  145.8800 C   0  0  2  0  0  3  0  0  0  0  0  0
  194.6240  175.4950  144.2490 N   0  0  0  0  0  0  0  0  0  0  0  0
  193.9830  175.7400  146.4270 C   0  0  0  0  0  2  0  0  0  0  0  0
  194.6960  176.2850  145.4490 C   0  0  0  0  0  2  0  0  0  0  0  0
  193.5560  174.5170  144.4370 C   0  0  0  0  0  2  0  0  0  0  0  0
  195.8020  175.4610  143.3830 C   0  0  0  0  0  0  0  0  0  0  0  0
  196.8980  175.7020  143.9080 O   0  0  0  0  0  0  0  0  0  0  0  0
  196.3990  176.8870  141.5600 O   0  0  0  0  0  1  0  0  0  0  0  0
  195.6400  175.7770  141.9440 C   0  0  1  0  0  3  0  0  0  0  0  0
  196.1060  174.5420  141.2160 C   0  0  0  0  0  2  0  0  0  0  0  0
  195.7480  173.1130  141.7100 C   0  0  2  0  0  3  0  0  0  0  0  0
  197.0120  172.3710  141.8010 N   0  0  0  0  0  1  0  0  0  0  0  0
  194.6980  172.2910  140.8560 C   0  0  0  0  0  2  0  0  0  0  0  0
  195.3260  171.6550  139.7450 O   0  0  0  0  0  1  0  0  0  0  0  0
  186.9930  177.2210  140.5580 S   0  0  0  0  0  0  0  0  0  0  0  0
  184.9560  177.6970  141.8290 C   0  0  0  0  0  0  0  0  0  0  0  0
  185.7600  176.9240  142.6980 C   0  0  0  0  0  3  0  0  0  0  0  0
  185.5230  177.9520  140.6300 C   0  0  0  0  0  3  0  0  0  0  0  0
  186.9850  176.5060  142.1460 C   0  0  0  0  0  0  0  0  0  0  0  0
  183.6680  178.2770  142.1600 C   0  0  0  0  0  2  0  0  0  0  0  0
  182.9210  178.7090  141.0440 O   0  0  0  0  0  0  0  0  0  0  0  0
  181.6840  178.0600  141.1290 C   0  0  0  0  0  2  0  0  0  0  0  0
  179.9490  179.0650  142.3960 O   0  0  0  0  0  0  0  0  0  0  0  0
  180.4120  178.7810  141.1350 C   0  0  2  0  0  3  0  0  0  0  0  0
  179.3550  177.9190  141.7800 C   0  0  0  0  0  2  0  0  0  0  0  0
  188.8300  173.5080  141.8060 O   0  0  0  0  0  0  0  0  0  0  0  0
  189.4260  173.6460  140.4990 C   0  0  0  0  0  2  0  0  0  0  0  0
  188.0430  172.5360  139.0770 O   0  0  0  0  0  1  0  0  0  0  0  0
  189.3330  172.4400  139.5850 C   0  0  1  0  0  3  0  0  0  0  0  0
  190.3860  172.4100  138.5410 C   0  0  0  0  0  0  0  0  0  0  0  0
  191.3170  171.3250  138.4710 C   0  0  0  0  0  3  0  0  0  0  0  0
  191.5750  170.0720  139.5440 C   0  0  1  0  0  3  0  0  0  0  0  0
  190.5310  169.0990  139.6300 O   0  0  0  0  0  1  0  0  0  0  0  0
  192.8580  169.3190  139.3440 N   0  0  0  0  0  1  0  0  0  0  0  0
  190.2610  173.6620  137.5990 C   0  0  0  0  0  2  0  0  0  0  0  0
  194.2530  174.4120  136.6970 C   0  0  0  0  0  0  0  0  0  0  0  0
  191.9740  174.1420  135.8950 C   0  0  0  0  0  3  0  0  0  0  0  0
  193.8350  174.4950  138.0230 C   0  0  0  0  0  3  0  0  0  0  0  0
  193.3640  174.2950  135.6560 C   0  0  0  0  0  3  0  0  0  0  0  0
  191.6300  174.0830  137.2310 C   0  0  0  0  0  0  0  0  0  0  0  0
  192.4600  174.3410  138.1980 N   0  0  0  0  0  0  0  0  0  0  0  0
  196.5370  173.4760  136.1730 C   0  0  0  0  0  0  0  0  0  0  0  0
  195.6870  174.6130  136.4140 N   0  0  0  0  0  2  0  0  0  0  0  0
  197.7130  173.6380  135.6570 O   0  0  0  0  0  0  0  0  0  0  0  0
  196.2370  172.1650  136.5920 O   0  0  0  0  0  0  0  0  0  0  0  0
  197.2780  170.5360  135.3520 O   0  0  0  0  0  1  0  0  0  0  0  0
  196.0380  171.0970  135.6910 C   0  0  1  0  0  3  0  0  0  0  0  0
  195.1670  170.0820  136.3330 C   0  0  0  0  0  0  0  0  0  0  0  0
  195.6560  169.3920  137.2590 O   0  0  0  0  0  0  0  0  0  0  0  0
  193.7200  169.8680  135.8630 C   0  0  0  0  0  3  0  0  0  0  0  0
  192.9930  171.0640  135.5590 F   0  0  0  0  0  0  0  0  0  0  0  0
  193.1000  168.6030  136.1120 F   0  0  0  0  0  0  0  0  0  0  0  0
  1  2  2  0  0  0  0
  3  8  1  6  0  0  0
  3  5  1  0  0  0  0
  4  9  1  1  0  0  0
  5  4  1  0  0  0  0
  6  4  1  0  0  0  0
  7  2  1  1  0  0  0
  7  3  1  0  0  0  0
  7  6  1  0  0  0  0
 10  9  1  6  0  0  0
 10 12  1  0  0  0  0
 11 14  1  0  0  0  0
 11 13  1  0  0  0  0
 13 12  1  0  0  0  0
 14 10  1  0  0  0  0
 15 16  2  0  0  0  0
 15 11  1  0  0  0  0
 18 17  1  6  0  0  0
 18 15  1  0  0  0  0
 19 20  1  0  0  0  0
 19 18  1  0  0  0  0
 20 21  1  6  0  0  0
 22 20  1  0  0  0  0
 23 22  1  0  0  0  0
 24 27  1  0  0  0  0
 24 28  1  0  0  0  0
 25 29  1  0  0  0  0
 25 26  1  0  0  0  0
 27 25  2  0  0  0  0
 28 26  2  0  0  0  0
 28  2  1  0  0  0  0
 30 31  1  0  0  0  0
 30 29  1  0  0  0  0
 33 31  1  1  0  0  0
 33 34  1  0  0  0  0
 33 32  1  0  0  0  0
 34 32  1  0  0  0  0
 35  1  1  0  0  0  0
 36 35  1  0  0  0  0
 38 37  1  6  0  0  0
 38 36  1  0  0  0  0
 39 38  1  0  0  0  0
 40 39  2  0  0  0  0
 40 41  1  0  0  0  0
 41 43  1  6  0  0  0
 41 42  1  0  0  0  0
 44 39  1  0  0  0  0
 45 47  1  0  0  0  0
 46 49  2  0  0  0  0
 47 50  2  0  0  0  0
 48 46  1  0  0  0  0
 48 45  2  0  0  0  0
 49 44  1  0  0  0  0
 49 50  1  0  0  0  0
 51 52  1  0  0  0  0
 51 54  1  0  0  0  0
 52 45  1  0  0  0  0
 53 51  2  0  0  0  0
 56 55  1  1  0  0  0
 56 57  1  0  0  0  0
 56 54  1  0  0  0  0
 57 58  2  0  0  0  0
 59 61  1  0  0  0  0
 59 57  1  0  0  0  0
 60 59  1  0  0  0  0
M  END
>  <MODEL>
6

>  <REMARK>
 VINA RESULT:      -5.2      2.086      2.729
  Name = 
  24 active torsions:
  status: ('A' for Active; 'I' for Inactive)
    1  A    between atoms: C_2  and  O_55
    2  A    between atoms: C_3  and  C_47
    3  A    between atoms: CA_4  and  C_11
    4  A    between atoms: CA_4  and  C_25
    5  A    between atoms: C_7  and  C_9
    6  A    between atoms: C_7  and  C_24
    7  A    between atoms: C_8  and  C_47
    8  A    between atoms: C_10  and  C_30
    9  A    between atoms: C_10  and  C_50
   10  A    between atoms: C_14  and  N_37
   11  A    between atoms: C_15  and  C_16
   12  A    between atoms: N_22  and  O_60
   13  A    between atoms: C_24  and  O_55
   14  A    between atoms: C_25  and  C_56
   15  A    between atoms: C_30  and  C_58
   16  A    between atoms: C_32  and  O_38
   17  A    between atoms: C_32  and  C_44
   18  A    between atoms: C_33  and  C_34
   19  A    between atoms: C_33  and  O_38
   20  A    between atoms: C_42  and  C_45
   21  A    between atoms: C_45  and  C_61
   22  A    between atoms: C_50  and  C_53
   23  A    between atoms: C_51  and  C_56
   24  A    between atoms: C_58  and  O_60
                            x       y       z     vdW  Elec       q    Type
                         _______ _______ _______ _____ _____    ______ ____

>  <TORSDO>
F 24

$$$$
=
 OpenBabel11042418013D

 61 65  0  0  1  0  0  0  0  0999 V2000
  187.5230  177.9140  141.3490 N   0  0  0  0  0  0  0  0  0  0  0  0
  186.6600  177.6100  140.4280 C   0  0  0  0  0  0  0  0  0  0  0  0
  187.0350  176.4510  138.0210 C   0  0  2  0  0  3  0  0  0  0  0  0
  188.1970  174.4210  139.2740 C   0  0  2  0  0  3  0  0  0  0  0  0
  187.8660  174.9480  137.5210 S   0  0  0  0  0  0  0  0  0  0  0  0
  187.7860  175.4240  140.1810 O   0  0  0  0  0  0  0  0  0  0  0  0
  186.9110  176.3670  139.5310 C   0  0  1  0  0  3  0  0  0  0  0  0
  185.7650  176.3860  137.5630 O   0  0  0  0  0  1  0  0  0  0  0  0
  189.5820  173.7780  139.5010 C   0  0  0  0  0  2  0  0  0  0  0  0
  190.0600  173.1270  138.1920 C   0  0  2  0  0  3  0  0  0  0  0  0
  192.3510  172.5250  137.7640 N   0  0  0  0  0  0  0  0  0  0  0  0
  190.3590  171.6550  138.4620 C   0  0  0  0  0  2  0  0  0  0  0  0
  191.6620  171.4190  138.3740 C   0  0  0  0  0  2  0  0  0  0  0  0
  191.4160  173.6460  137.7160 C   0  0  0  0  0  2  0  0  0  0  0  0
  193.5220  172.2290  136.9400 C   0  0  0  0  0  0  0  0  0  0  0  0
  193.5900  171.0970  136.4390 O   0  0  0  0  0  0  0  0  0  0  0  0
  194.8290  174.2050  136.6340 O   0  0  0  0  0  1  0  0  0  0  0  0
  194.7930  172.9370  137.2210 C   0  0  1  0  0  3  0  0  0  0  0  0
  194.8560  173.0490  138.7230 C   0  0  0  0  0  2  0  0  0  0  0  0
  195.3570  174.3390  139.4310 C   0  0  2  0  0  3  0  0  0  0  0  0
  196.8100  174.1980  139.5830 N   0  0  0  0  0  1  0  0  0  0  0  0
  194.6990  174.7030  140.8240 C   0  0  0  0  0  2  0  0  0  0  0  0
  194.6360  176.1150  141.0080 O   0  0  0  0  0  1  0  0  0  0  0  0
  184.8570  178.0890  142.6720 S   0  0  0  0  0  0  0  0  0  0  0  0
  182.9850  178.2720  141.1050 C   0  0  0  0  0  0  0  0  0  0  0  0
  184.1000  177.9260  140.3080 C   0  0  0  0  0  3  0  0  0  0  0  0
  183.2570  178.3720  142.4250 C   0  0  0  0  0  3  0  0  0  0  0  0
  185.3100  177.8010  141.0150 C   0  0  0  0  0  0  0  0  0  0  0  0
  181.6230  178.4290  140.6320 C   0  0  0  0  0  2  0  0  0  0  0  0
  180.9240  179.5040  141.2190 O   0  0  0  0  0  0  0  0  0  0  0  0
  179.6270  179.0360  141.4670 C   0  0  0  0  0  2  0  0  0  0  0  0
  178.1460  177.1850  141.4600 O   0  0  0  0  0  0  0  0  0  0  0  0
  179.3520  177.6690  141.9040 C   0  0  2  0  0  3  0  0  0  0  0  0
  178.1420  177.6710  142.8050 C   0  0  0  0  0  2  0  0  0  0  0  0
  188.7850  177.4810  141.5900 O   0  0  0  0  0  0  0  0  0  0  0  0
  188.9280  176.8790  142.8920 C   0  0  0  0  0  2  0  0  0  0  0  0
  190.3870  175.3960  141.9750 O   0  0  0  0  0  1  0  0  0  0  0  0
  189.3690  175.4280  142.9200 C   0  0  1  0  0  3  0  0  0  0  0  0
  189.7880  174.9650  144.2660 C   0  0  0  0  0  0  0  0  0  0  0  0
  189.8400  173.5690  144.5770 C   0  0  0  0  0  3  0  0  0  0  0  0
  189.2990  172.2610  143.6920 C   0  0  1  0  0  3  0  0  0  0  0  0
  188.2720  172.5350  142.7370 O   0  0  0  0  0  1  0  0  0  0  0  0
  190.3710  171.4960  142.9710 N   0  0  0  0  0  1  0  0  0  0  0  0
  190.1630  176.1910  145.1760 C   0  0  0  0  0  2  0  0  0  0  0  0
  194.2720  175.7180  145.6300 C   0  0  0  0  0  0  0  0  0  0  0  0
  192.4250  176.4930  144.2500 C   0  0  0  0  0  3  0  0  0  0  0  0
  193.4490  175.5730  146.7450 C   0  0  0  0  0  3  0  0  0  0  0  0
  193.8040  176.2110  144.4360 C   0  0  0  0  0  3  0  0  0  0  0  0
  191.6320  176.1920  145.3400 C   0  0  0  0  0  0  0  0  0  0  0  0
  192.1080  175.8670  146.5060 N   0  0  0  0  0  0  0  0  0  0  0  0
  196.2580  174.1630  145.5680 C   0  0  0  0  0  0  0  0  0  0  0  0
  195.7170  175.4760  145.8050 N   0  0  0  0  0  2  0  0  0  0  0  0
  197.5350  173.9950  145.4440 O   0  0  0  0  0  0  0  0  0  0  0  0
  195.4930  172.9800  145.5930 O   0  0  0  0  0  0  0  0  0  0  0  0
  195.9570  170.7970  145.0480 O   0  0  0  0  0  1  0  0  0  0  0  0
  195.5130  172.0300  144.5490 C   0  0  1  0  0  3  0  0  0  0  0  0
  194.1450  171.9020  143.9900 C   0  0  0  0  0  0  0  0  0  0  0  0
  193.2410  172.6160  144.4850 O   0  0  0  0  0  0  0  0  0  0  0  0
  193.8410  170.9100  142.8560 C   0  0  0  0  0  3  0  0  0  0  0  0
  193.8910  171.4590  141.5340 F   0  0  0  0  0  0  0  0  0  0  0  0
  193.1890  169.6790  143.1800 F   0  0  0  0  0  0  0  0  0  0  0  0
  1 35  1  0  0  0  0
  2 28  1  0  0  0  0
  2  1  2  0  0  0  0
  3  8  1  6  0  0  0
  3  7  1  0  0  0  0
  4  9  1  6  0  0  0
  4  6  1  0  0  0  0
  5  3  1  0  0  0  0
  5  4  1  0  0  0  0
  7  6  1  0  0  0  0
  7  2  1  1  0  0  0
 10 12  1  0  0  0  0
 10  9  1  1  0  0  0
 11 13  1  0  0  0  0
 13 12  1  0  0  0  0
 14 11  1  0  0  0  0
 14 10  1  0  0  0  0
 15 18  1  0  0  0  0
 15 11  1  0  0  0  0
 16 15  2  0  0  0  0
 18 17  1  6  0  0  0
 18 19  1  0  0  0  0
 19 20  1  0  0  0  0
 20 21  1  1  0  0  0
 20 22  1  0  0  0  0
 22 23  1  0  0  0  0
 25 27  2  0  0  0  0
 26 28  2  0  0  0  0
 26 25  1  0  0  0  0
 27 24  1  0  0  0  0
 28 24  1  0  0  0  0
 29 25  1  0  0  0  0
 29 30  1  0  0  0  0
 30 31  1  0  0  0  0
 32 33  1  0  0  0  0
 32 34  1  0  0  0  0
 33 31  1  6  0  0  0
 33 34  1  0  0  0  0
 35 36  1  0  0  0  0
 36 38  1  0  0  0  0
 38 37  1  6  0  0  0
 38 39  1  0  0  0  0
 39 40  2  0  0  0  0
 39 44  1  0  0  0  0
 41 42  1  6  0  0  0
 41 40  1  0  0  0  0
 43 41  1  0  0  0  0
 44 49  1  0  0  0  0
 45 52  1  0  0  0  0
 45 47  1  0  0  0  0
 46 48  1  0  0  0  0
 46 49  2  0  0  0  0
 48 45  2  0  0  0  0
 49 50  1  0  0  0  0
 50 47  2  0  0  0  0
 51 54  1  0  0  0  0
 51 52  1  0  0  0  0
 53 51  2  0  0  0  0
 56 55  1  1  0  0  0
 56 54  1  0  0  0  0
 57 58  2  0  0  0  0
 57 56  1  0  0  0  0
 59 61  1  0  0  0  0
 59 57  1  0  0  0  0
 60 59  1  0  0  0  0
M  END
>  <MODEL>
7

>  <REMARK>
 VINA RESULT:      -4.9      2.226      6.480
  Name = 
  24 active torsions:
  status: ('A' for Active; 'I' for Inactive)
    1  A    between atoms: C_2  and  O_55
    2  A    between atoms: C_3  and  C_47
    3  A    between atoms: CA_4  and  C_11
    4  A    between atoms: CA_4  and  C_25
    5  A    between atoms: C_7  and  C_9
    6  A    between atoms: C_7  and  C_24
    7  A    between atoms: C_8  and  C_47
    8  A    between atoms: C_10  and  C_30
    9  A    between atoms: C_10  and  C_50
   10  A    between atoms: C_14  and  N_37
   11  A    between atoms: C_15  and  C_16
   12  A    between atoms: N_22  and  O_60
   13  A    between atoms: C_24  and  O_55
   14  A    between atoms: C_25  and  C_56
   15  A    between atoms: C_30  and  C_58
   16  A    between atoms: C_32  and  O_38
   17  A    between atoms: C_32  and  C_44
   18  A    between atoms: C_33  and  C_34
   19  A    between atoms: C_33  and  O_38
   20  A    between atoms: C_42  and  C_45
   21  A    between atoms: C_45  and  C_61
   22  A    between atoms: C_50  and  C_53
   23  A    between atoms: C_51  and  C_56
   24  A    between atoms: C_58  and  O_60
                            x       y       z     vdW  Elec       q    Type
                         _______ _______ _______ _____ _____    ______ ____

>  <TORSDO>
F 24

$$$$
=
 OpenBabel11042418013D

 61 65  0  0  1  0  0  0  0  0999 V2000
  187.8210  174.5950  141.9580 N   0  0  0  0  0  0  0  0  0  0  0  0
  187.7600  175.6430  142.7210 C   0  0  0  0  0  0  0  0  0  0  0  0
  189.3100  177.6920  143.5460 C   0  0  2  0  0  3  0  0  0  0  0  0
  190.6020  175.9760  145.1040 C   0  0  2  0  0  3  0  0  0  0  0  0
  190.6100  177.8060  144.7690 S   0  0  0  0  0  0  0  0  0  0  0  0
  189.5610  175.3440  144.3870 O   0  0  0  0  0  0  0  0  0  0  0  0
  189.0650  176.2080  143.3440 C   0  0  1  0  0  3  0  0  0  0  0  0
  189.8170  178.1240  142.3700 O   0  0  0  0  0  1  0  0  0  0  0  0
  190.7800  175.5950  146.5890 C   0  0  0  0  0  2  0  0  0  0  0  0
  192.2390  175.1770  146.8350 C   0  0  2  0  0  3  0  0  0  0  0  0
  193.8950  175.0370  145.0920 N   0  0  0  0  0  0  0  0  0  0  0  0
  193.1220  176.4170  146.7380 C   0  0  0  0  0  2  0  0  0  0  0  0
  193.8970  176.3570  145.6620 C   0  0  0  0  0  2  0  0  0  0  0  0
  192.8110  174.2920  145.7280 C   0  0  0  0  0  2  0  0  0  0  0  0
  195.1230  174.5670  144.4520 C   0  0  0  0  0  0  0  0  0  0  0  0
  196.1860  175.0880  144.8170 O   0  0  0  0  0  0  0  0  0  0  0  0
  196.2640  174.1770  142.3900 O   0  0  0  0  0  1  0  0  0  0  0  0
  195.0520  174.0370  143.0700 C   0  0  1  0  0  3  0  0  0  0  0  0
  194.7000  172.5790  143.2260 C   0  0  0  0  0  2  0  0  0  0  0  0
  195.1710  171.7470  144.4510 C   0  0  2  0  0  3  0  0  0  0  0  0
  196.3860  171.0360  144.0350 N   0  0  0  0  0  1  0  0  0  0  0  0
  194.1340  170.7260  145.0770 C   0  0  0  0  0  2  0  0  0  0  0  0
  194.7260  169.9760  146.1340 O   0  0  0  0  0  1  0  0  0  0  0  0
  186.8570  177.3010  140.4950 S   0  0  0  0  0  0  0  0  0  0  0  0
  184.7910  177.7830  141.7160 C   0  0  0  0  0  0  0  0  0  0  0  0
  185.5730  177.0120  142.6060 C   0  0  0  0  0  3  0  0  0  0  0  0
  185.3870  178.0340  140.5300 C   0  0  0  0  0  3  0  0  0  0  0  0
  186.8100  176.5910  142.0850 C   0  0  0  0  0  0  0  0  0  0  0  0
  183.4970  178.3650  142.0150 C   0  0  0  0  0  2  0  0  0  0  0  0
  182.4180  177.7700  141.3270 O   0  0  0  0  0  0  0  0  0  0  0  0
  181.6260  178.8260  140.8580 C   0  0  0  0  0  2  0  0  0  0  0  0
  179.3340  178.2200  140.8950 O   0  0  0  0  0  0  0  0  0  0  0  0
  180.2830  179.0920  141.3690 C   0  0  2  0  0  3  0  0  0  0  0  0
  179.3840  179.4810  140.2210 C   0  0  0  0  0  2  0  0  0  0  0  0
  188.8090  173.6940  141.7290 O   0  0  0  0  0  0  0  0  0  0  0  0
  189.6000  174.0190  140.5670 C   0  0  0  0  0  2  0  0  0  0  0  0
  189.3560  173.3740  138.4010 O   0  0  0  0  0  1  0  0  0  0  0  0
  189.8680  172.8860  139.5970 C   0  0  1  0  0  3  0  0  0  0  0  0
  191.2990  172.5020  139.5210 C   0  0  0  0  0  0  0  0  0  0  0  0
  191.6960  171.2740  138.9010 C   0  0  0  0  0  3  0  0  0  0  0  0
  190.7590  170.0020  138.3630 C   0  0  1  0  0  3  0  0  0  0  0  0
  191.2820  169.2660  137.2550 O   0  0  0  0  0  1  0  0  0  0  0  0
  190.3860  168.9990  139.4160 N   0  0  0  0  0  1  0  0  0  0  0  0
  192.2020  173.6200  140.1580 C   0  0  0  0  0  2  0  0  0  0  0  0
  194.8510  174.7630  137.1600 C   0  0  0  0  0  0  0  0  0  0  0  0
  192.5750  174.1810  137.7890 C   0  0  0  0  0  3  0  0  0  0  0  0
  195.2460  174.8830  138.4900 C   0  0  0  0  0  3  0  0  0  0  0  0
  193.5550  174.4770  136.8060 C   0  0  0  0  0  3  0  0  0  0  0  0
  193.0560  174.1700  139.0840 C   0  0  0  0  0  0  0  0  0  0  0  0
  194.2440  174.5840  139.4120 N   0  0  0  0  0  0  0  0  0  0  0  0
  196.7470  174.1070  135.6300 C   0  0  0  0  0  0  0  0  0  0  0  0
  195.8340  175.1090  136.1160 N   0  0  0  0  0  2  0  0  0  0  0  0
  197.4150  174.3060  134.5400 O   0  0  0  0  0  0  0  0  0  0  0  0
  197.0850  172.9380  136.3400 O   0  0  0  0  0  0  0  0  0  0  0  0
  197.2880  170.8210  135.4710 O   0  0  0  0  0  1  0  0  0  0  0  0
  196.4300  171.7030  136.1440 C   0  0  1  0  0  3  0  0  0  0  0  0
  196.0450  171.1470  137.4650 C   0  0  0  0  0  0  0  0  0  0  0  0
  196.6690  171.5520  138.4740 O   0  0  0  0  0  0  0  0  0  0  0  0
  194.9330  170.0940  137.5890 C   0  0  0  0  0  3  0  0  0  0  0  0
  194.4850  169.8330  138.9240 F   0  0  0  0  0  0  0  0  0  0  0  0
  194.6980  169.2140  136.4860 F   0  0  0  0  0  0  0  0  0  0  0  0
  1  2  2  0  0  0  0
  3  8  1  6  0  0  0
  3  5  1  0  0  0  0
  4  9  1  1  0  0  0
  5  4  1  0  0  0  0
  6  4  1  0  0  0  0
  7  2  1  1  0  0  0
  7  3  1  0  0  0  0
  7  6  1  0  0  0  0
 10  9  1  6  0  0  0
 11 13  1  0  0  0  0
 11 14  1  0  0  0  0
 12 10  1  0  0  0  0
 13 12  1  0  0  0  0
 14 10  1  0  0  0  0
 15 16  2  0  0  0  0
 15 11  1  0  0  0  0
 18 17  1  1  0  0  0
 18 19  1  0  0  0  0
 18 15  1  0  0  0  0
 19 20  1  0  0  0  0
 20 21  1  6  0  0  0
 20 22  1  0  0  0  0
 22 23  1  0  0  0  0
 24 27  1  0  0  0  0
 24 28  1  0  0  0  0
 25 29  1  0  0  0  0
 25 26  1  0  0  0  0
 27 25  2  0  0  0  0
 28 26  2  0  0  0  0
 28  2  1  0  0  0  0
 30 29  1  0  0  0  0
 31 30  1  0  0  0  0
 32 33  1  0  0  0  0
 33 31  1  6  0  0  0
 34 32  1  0  0  0  0
 34 33  1  0  0  0  0
 35  1  1  0  0  0  0
 36 35  1  0  0  0  0
 38 37  1  6  0  0  0
 38 36  1  0  0  0  0
 39 38  1  0  0  0  0
 39 44  1  0  0  0  0
 40 39  2  0  0  0  0
 41 42  1  6  0  0  0
 41 40  1  0  0  0  0
 41 43  1  0  0  0  0
 45 47  1  0  0  0  0
 46 49  2  0  0  0  0
 47 50  2  0  0  0  0
 48 45  2  0  0  0  0
 48 46  1  0  0  0  0
 49 50  1  0  0  0  0
 49 44  1  0  0  0  0
 51 52  1  0  0  0  0
 51 54  1  0  0  0  0
 52 45  1  0  0  0  0
 53 51  2  0  0  0  0
 56 55  1  1  0  0  0
 56 54  1  0  0  0  0
 56 57  1  0  0  0  0
 57 59  1  0  0  0  0
 57 58  2  0  0  0  0
 59 60  1  0  0  0  0
 61 59  1  0  0  0  0
M  END
>  <MODEL>
8

>  <REMARK>
 VINA RESULT:      -4.9      1.959      2.420
  Name = 
  24 active torsions:
  status: ('A' for Active; 'I' for Inactive)
    1  A    between atoms: C_2  and  O_55
    2  A    between atoms: C_3  and  C_47
    3  A    between atoms: CA_4  and  C_11
    4  A    between atoms: CA_4  and  C_25
    5  A    between atoms: C_7  and  C_9
    6  A    between atoms: C_7  and  C_24
    7  A    between atoms: C_8  and  C_47
    8  A    between atoms: C_10  and  C_30
    9  A    between atoms: C_10  and  C_50
   10  A    between atoms: C_14  and  N_37
   11  A    between atoms: C_15  and  C_16
   12  A    between atoms: N_22  and  O_60
   13  A    between atoms: C_24  and  O_55
   14  A    between atoms: C_25  and  C_56
   15  A    between atoms: C_30  and  C_58
   16  A    between atoms: C_32  and  O_38
   17  A    between atoms: C_32  and  C_44
   18  A    between atoms: C_33  and  C_34
   19  A    between atoms: C_33  and  O_38
   20  A    between atoms: C_42  and  C_45
   21  A    between atoms: C_45  and  C_61
   22  A    between atoms: C_50  and  C_53
   23  A    between atoms: C_51  and  C_56
   24  A    between atoms: C_58  and  O_60
                            x       y       z     vdW  Elec       q    Type
                         _______ _______ _______ _____ _____    ______ ____

>  <TORSDO>
F 24

$$$$
=
 OpenBabel11042418013D

 61 65  0  0  1  0  0  0  0  0999 V2000
  191.2730  171.1000  138.7230 N   0  0  0  0  0  0  0  0  0  0  0  0
  190.8960  171.8410  137.7270 C   0  0  0  0  0  0  0  0  0  0  0  0
  188.7730  173.4270  137.2200 C   0  0  2  0  0  3  0  0  0  0  0  0
  189.0200  174.4010  139.6750 C   0  0  2  0  0  3  0  0  0  0  0  0
  187.8570  174.5790  138.2350 S   0  0  0  0  0  0  0  0  0  0  0  0
  189.9910  173.4080  139.4110 O   0  0  0  0  0  0  0  0  0  0  0  0
  190.0320  173.1020  138.0030 C   0  0  1  0  0  3  0  0  0  0  0  0
  189.2060  174.0980  136.1300 O   0  0  0  0  0  1  0  0  0  0  0  0
  188.3320  174.3750  141.0570 C   0  0  0  0  0  2  0  0  0  0  0  0
  188.4240  175.7710  141.6960 C   0  0  2  0  0  3  0  0  0  0  0  0
  188.1390  176.1780  144.0520 N   0  0  0  0  0  0  0  0  0  0  0  0
  189.7430  175.8710  142.4570 C   0  0  0  0  0  2  0  0  0  0  0  0
  189.5250  175.9250  143.7650 C   0  0  0  0  0  2  0  0  0  0  0  0
  187.3980  176.0000  142.8060 C   0  0  0  0  0  2  0  0  0  0  0  0
  187.8200  176.9670  145.2410 C   0  0  0  0  0  0  0  0  0  0  0  0
  188.6950  177.7370  145.6600 O   0  0  0  0  0  0  0  0  0  0  0  0
  187.0880  176.8970  147.5150 O   0  0  0  0  0  1  0  0  0  0  0  0
  186.8500  176.4240  146.2210 C   0  0  1  0  0  3  0  0  0  0  0  0
  185.4990  176.8810  145.7320 C   0  0  0  0  0  2  0  0  0  0  0  0
  185.1350  178.3860  145.6120 C   0  0  2  0  0  3  0  0  0  0  0  0
  183.9890  178.6140  146.5000 N   0  0  0  0  0  1  0  0  0  0  0  0
  184.8170  178.9420  144.1640 C   0  0  0  0  0  2  0  0  0  0  0  0
  185.5980  180.0990  143.8750 O   0  0  0  0  0  1  0  0  0  0  0  0
  192.2430  171.3720  135.1820 S   0  0  0  0  0  0  0  0  0  0  0  0
  194.0920  172.7980  135.9190 C   0  0  0  0  0  0  0  0  0  0  0  0
  193.2220  172.7190  137.0290 C   0  0  0  0  0  3  0  0  0  0  0  0
  193.6840  172.0850  134.8450 C   0  0  0  0  0  3  0  0  0  0  0  0
  192.0560  171.9620  136.8100 C   0  0  0  0  0  0  0  0  0  0  0  0
  195.3690  173.4830  135.8910 C   0  0  0  0  0  2  0  0  0  0  0  0
  195.3340  174.8000  136.3980 O   0  0  0  0  0  0  0  0  0  0  0  0
  194.8210  175.5990  135.3690 C   0  0  0  0  0  2  0  0  0  0  0  0
  192.7270  176.0970  136.3640 O   0  0  0  0  0  0  0  0  0  0  0  0
  193.7520  176.5730  135.5850 C   0  0  2  0  0  3  0  0  0  0  0  0
  192.4800  176.0610  134.9560 C   0  0  0  0  0  2  0  0  0  0  0  0
  190.8880  171.0580  140.0230 O   0  0  0  0  0  0  0  0  0  0  0  0
  192.0030  171.1090  140.9360 C   0  0  0  0  0  2  0  0  0  0  0  0
  192.2050  168.8470  141.0510 O   0  0  0  0  0  1  0  0  0  0  0  0
  192.1390  169.9460  141.9000 C   0  0  1  0  0  3  0  0  0  0  0  0
  193.3030  170.0690  142.8110 C   0  0  0  0  0  0  0  0  0  0  0  0
  194.6400  169.9590  142.3110 C   0  0  0  0  0  3  0  0  0  0  0  0
  195.1750  169.4990  140.7980 C   0  0  1  0  0  3  0  0  0  0  0  0
  194.8810  170.4030  139.7310 O   0  0  0  0  0  1  0  0  0  0  0  0
  196.6410  169.1850  140.7130 N   0  0  0  0  0  1  0  0  0  0  0  0
  192.8220  170.3560  144.2800 C   0  0  0  0  0  2  0  0  0  0  0  0
  193.6700  174.2070  145.6090 C   0  0  0  0  0  0  0  0  0  0  0  0
  194.4500  171.9320  145.2440 C   0  0  0  0  0  3  0  0  0  0  0  0
  192.5250  173.9940  144.8450 C   0  0  0  0  0  3  0  0  0  0  0  0
  194.6330  173.2390  145.7660 C   0  0  0  0  0  3  0  0  0  0  0  0
  193.2320  171.7340  144.6230 C   0  0  0  0  0  0  0  0  0  0  0  0
  192.3990  172.6950  144.3550 N   0  0  0  0  0  0  0  0  0  0  0  0
  194.8300  176.4410  145.4450 C   0  0  0  0  0  0  0  0  0  0  0  0
  193.9100  175.5670  146.1260 N   0  0  0  0  0  2  0  0  0  0  0  0
  194.8450  177.7080  145.7110 O   0  0  0  0  0  0  0  0  0  0  0  0
  195.8460  175.9940  144.5780 O   0  0  0  0  0  0  0  0  0  0  0  0
  197.4430  176.5170  143.0120 O   0  0  0  0  0  1  0  0  0  0  0  0
  196.0720  176.5590  143.3040 C   0  0  1  0  0  3  0  0  0  0  0  0
  195.3020  175.7910  142.2940 C   0  0  0  0  0  0  0  0  0  0  0  0
  194.3980  176.3920  141.6670 O   0  0  0  0  0  0  0  0  0  0  0  0
  195.5890  174.3030  142.0420 C   0  0  0  0  0  3  0  0  0  0  0  0
  196.8290  174.0230  141.3820 F   0  0  0  0  0  0  0  0  0  0  0  0
  194.5040  173.3740  142.1220 F   0  0  0  0  0  0  0  0  0  0  0  0
  1 35  1  0  0  0  0
  2  1  2  0  0  0  0
  3  8  1  6  0  0  0
  3  7  1  0  0  0  0
  3  5  1  0  0  0  0
  4  9  1  1  0  0  0
  5  4  1  0  0  0  0
  6  4  1  0  0  0  0
  7  2  1  1  0  0  0
  7  6  1  0  0  0  0
 10  9  1  1  0  0  0
 10 12  1  0  0  0  0
 10 14  1  0  0  0  0
 11 15  1  0  0  0  0
 12 13  1  0  0  0  0
 13 11  1  0  0  0  0
 14 11  1  0  0  0  0
 15 16  2  0  0  0  0
 15 18  1  0  0  0  0
 18 17  1  1  0  0  0
 19 18  1  0  0  0  0
 20 19  1  0  0  0  0
 20 21  1  1  0  0  0
 22 20  1  0  0  0  0
 23 22  1  0  0  0  0
 24 28  1  0  0  0  0
 25 26  1  0  0  0  0
 27 24  1  0  0  0  0
 27 25  2  0  0  0  0
 28 26  2  0  0  0  0
 28  2  1  0  0  0  0
 29 25  1  0  0  0  0
 29 30  1  0  0  0  0
 31 30  1  0  0  0  0
 33 31  1  6  0  0  0
 33 32  1  0  0  0  0
 34 33  1  0  0  0  0
 34 32  1  0  0  0  0
 35 36  1  0  0  0  0
 36 38  1  0  0  0  0
 38 37  1  6  0  0  0
 38 39  1  0  0  0  0
 39 44  1  0  0  0  0
 40 39  2  0  0  0  0
 41 42  1  6  0  0  0
 41 40  1  0  0  0  0
 43 41  1  0  0  0  0
 44 49  1  0  0  0  0
 45 48  1  0  0  0  0
 45 52  1  0  0  0  0
 46 48  2  0  0  0  0
 47 45  2  0  0  0  0
 49 46  1  0  0  0  0
 50 49  2  0  0  0  0
 50 47  1  0  0  0  0
 51 53  2  0  0  0  0
 51 52  1  0  0  0  0
 54 51  1  0  0  0  0
 56 55  1  6  0  0  0
 56 54  1  0  0  0  0
 57 56  1  0  0  0  0
 58 57  2  0  0  0  0
 59 61  1  0  0  0  0
 59 57  1  0  0  0  0
 60 59  1  0  0  0  0
M  END
>  <MODEL>
9

>  <REMARK>
 VINA RESULT:      -4.8      2.943      8.684
  Name = 
  24 active torsions:
  status: ('A' for Active; 'I' for Inactive)
    1  A    between atoms: C_2  and  O_55
    2  A    between atoms: C_3  and  C_47
    3  A    between atoms: CA_4  and  C_11
    4  A    between atoms: CA_4  and  C_25
    5  A    between atoms: C_7  and  C_9
    6  A    between atoms: C_7  and  C_24
    7  A    between atoms: C_8  and  C_47
    8  A    between atoms: C_10  and  C_30
    9  A    between atoms: C_10  and  C_50
   10  A    between atoms: C_14  and  N_37
   11  A    between atoms: C_15  and  C_16
   12  A    between atoms: N_22  and  O_60
   13  A    between atoms: C_24  and  O_55
   14  A    between atoms: C_25  and  C_56
   15  A    between atoms: C_30  and  C_58
   16  A    between atoms: C_32  and  O_38
   17  A    between atoms: C_32  and  C_44
   18  A    between atoms: C_33  and  C_34
   19  A    between atoms: C_33  and  O_38
   20  A    between atoms: C_42  and  C_45
   21  A    between atoms: C_45  and  C_61
   22  A    between atoms: C_50  and  C_53
   23  A    between atoms: C_51  and  C_56
   24  A    between atoms: C_58  and  O_60
                            x       y       z     vdW  Elec       q    Type
                         _______ _______ _______ _____ _____    ______ ____

>  <TORSDO>
F 24

$$$$
