=
 OpenBabel11042414023D

 31 34  0  0  1  0  0  0  0  0999 V2000
  189.8510  176.1230  143.3720 C   0  0  0  0  0  2  0  0  0  0  0  0
  191.0270  176.3270  145.5720 C   0  0  0  0  0  0  0  0  0  0  0  0
  191.4200  177.8470  149.5370 C   0  0  0  0  0  1  0  0  0  0  0  0
  191.4780  174.4540  141.3410 N   0  0  0  0  0  2  0  0  0  0  0  0
  192.2230  175.2180  143.6950 C   0  0  0  0  0  0  0  0  0  0  0  0
  189.5990  173.2730  140.6670 O   0  0  0  0  0  0  0  0  0  0  0  0
  193.5050  175.4910  141.7390 O   0  0  0  0  0  0  0  0  0  0  0  0
  192.2880  176.4520  147.6700 C   0  0  0  0  0  2  0  0  0  0  0  0
  190.0980  177.6090  147.4420 C   0  0  0  0  0  3  0  0  0  0  0  0
  191.0320  175.9190  144.2720 C   0  0  1  0  0  3  0  0  0  0  0  0
  188.8950  172.5170  143.1400 O   0  0  0  0  0  1  0  0  0  0  0  0
  192.1950  175.9790  146.4280 C   0  0  0  0  0  0  0  0  0  0  0  0
  189.9320  177.1480  146.1950 C   0  0  0  0  0  0  0  0  0  0  0  0
  190.2610  173.7510  141.6280 C   0  0  0  0  0  0  0  0  0  0  0  0
  193.2070  174.9780  145.9740 C   0  0  0  0  0  2  0  0  0  0  0  0
  192.4250  175.0720  142.2320 C   0  0  0  0  0  0  0  0  0  0  0  0
  189.7230  173.6350  143.0200 C   0  0  1  0  0  3  0  0  0  0  0  0
  191.2790  177.3180  148.1940 N   0  0  0  0  0  0  0  0  0  0  0  0
  188.9490  174.8920  143.3960 C   0  0  0  0  0  2  0  0  0  0  0  0
  193.2430  174.8590  144.4840 C   0  0  0  0  0  3  0  0  0  0  0  0
  187.1250  176.5230  146.9080 O   0  0  0  0  0  0  0  0  0  0  0  0
  188.7280  177.4560  145.4720 N   0  0  0  0  0  2  0  0  0  0  0  0
  187.3740  177.1400  145.8330 C   0  0  0  0  0  0  0  0  0  0  0  0
  184.1250  178.1010  142.6200 C   0  0  0  0  0  0  0  0  0  0  0  0
  183.3920  178.1300  141.4020 N   0  0  0  0  0  1  0  0  0  0  0  0
  186.2680  177.0620  143.6940 C   0  0  0  0  0  3  0  0  0  0  0  0
  185.2510  178.4410  145.4990 C   0  0  0  0  0  3  0  0  0  0  0  0
  183.6720  178.7900  143.6210 N   0  0  0  0  0  0  0  0  0  0  0  0
  184.1610  178.9670  144.9510 C   0  0  0  0  0  3  0  0  0  0  0  0
  185.3150  177.3100  142.6620 N   0  0  0  0  0  2  0  0  0  0  0  0
  186.2670  177.5410  144.9370 C   0  0  0  0  0  0  0  0  0  0  0  0
  1 19  1  0  0  0  0
  2 13  1  0  0  0  0
  2 12  2  0  0  0  0
  4 14  1  0  0  0  0
  4 16  1  0  0  0  0
  5 10  1  0  0  0  0
  5 20  2  0  0  0  0
  6 14  2  0  0  0  0
  7 16  2  0  0  0  0
  8 18  1  0  0  0  0
  9 18  1  0  0  0  0
 10  1  1  1  0  0  0
 10  2  1  0  0  0  0
 12  8  1  0  0  0  0
 13  9  2  0  0  0  0
 14 17  1  0  0  0  0
 15 12  1  0  0  0  0
 16  5  1  0  0  0  0
 17 11  1  6  0  0  0
 17 19  1  0  0  0  0
 18  3  1  0  0  0  0
 20 15  1  0  0  0  0
 22 23  1  0  0  0  0
 22 13  1  0  0  0  0
 23 21  2  0  0  0  0
 24 30  1  0  0  0  0
 24 28  2  0  0  0  0
 25 24  1  0  0  0  0
 26 31  2  0  0  0  0
 28 29  1  0  0  0  0
 29 27  2  0  0  0  0
 30 26  1  0  0  0  0
 31 27  1  0  0  0  0
 31 23  1  0  0  0  0
M  END
>  <MODEL>
1

>  <REMARK>
 VINA RESULT:      -8.3      0.000      0.000
  Name = 
  2 active torsions:
  status: ('A' for Active; 'I' for Inactive)
    1  A    between atoms: C_19  and  N_26
    2  A    between atoms: C_27  and  C_31
                            x       y       z     vdW  Elec       q    Type
                         _______ _______ _______ _____ _____    ______ ____

>  <TORSDO>
F 2

$$$$
=
 OpenBabel11042414023D

 31 34  0  0  1  0  0  0  0  0999 V2000
  189.8440  174.9440  143.8950 C   0  0  0  0  0  2  0  0  0  0  0  0
  190.0250  174.2200  141.5060 C   0  0  0  0  0  0  0  0  0  0  0  0
  188.4860  173.7580  137.5550 C   0  0  0  0  0  1  0  0  0  0  0  0
  192.3260  174.1170  145.5440 N   0  0  0  0  0  2  0  0  0  0  0  0
  191.7910  173.4870  143.0950 C   0  0  0  0  0  0  0  0  0  0  0  0
  192.4490  176.1930  146.5710 O   0  0  0  0  0  0  0  0  0  0  0  0
  192.4310  171.9470  144.7570 O   0  0  0  0  0  0  0  0  0  0  0  0
  190.3280  173.4500  139.1990 C   0  0  0  0  0  2  0  0  0  0  0  0
  188.2490  174.6390  139.8700 C   0  0  0  0  0  3  0  0  0  0  0  0
  190.5210  174.2130  142.7740 C   0  0  1  0  0  3  0  0  0  0  0  0
  192.4570  177.5890  144.2830 O   0  0  0  0  0  1  0  0  0  0  0  0
  190.8220  173.5670  140.4300 C   0  0  0  0  0  0  0  0  0  0  0  0
  188.6960  174.8110  141.1210 C   0  0  0  0  0  0  0  0  0  0  0  0
  192.2720  175.5500  145.5010 C   0  0  0  0  0  0  0  0  0  0  0  0
  192.2430  173.1690  140.6640 C   0  0  0  0  0  2  0  0  0  0  0  0
  192.1820  173.1510  144.4870 C   0  0  0  0  0  0  0  0  0  0  0  0
  191.9410  176.2920  144.2440 C   0  0  1  0  0  3  0  0  0  0  0  0
  189.0160  173.9280  138.8950 N   0  0  0  0  0  0  0  0  0  0  0  0
  190.4310  176.3450  144.0420 C   0  0  0  0  0  2  0  0  0  0  0  0
  192.5300  172.9540  142.1150 C   0  0  0  0  0  3  0  0  0  0  0  0
  187.8770  177.6570  141.0720 O   0  0  0  0  0  0  0  0  0  0  0  0
  187.9000  175.5360  142.0740 N   0  0  0  0  0  2  0  0  0  0  0  0
  187.5160  176.9200  142.0340 C   0  0  0  0  0  0  0  0  0  0  0  0
  184.9680  178.2010  145.7310 C   0  0  0  0  0  0  0  0  0  0  0  0
  184.2820  178.1780  146.9770 N   0  0  0  0  0  1  0  0  0  0  0  0
  186.4180  176.6930  144.1670 C   0  0  0  0  0  3  0  0  0  0  0  0
  186.2490  178.8730  142.9780 C   0  0  0  0  0  3  0  0  0  0  0  0
  184.9380  179.2970  145.0380 N   0  0  0  0  0  0  0  0  0  0  0  0
  185.5130  179.6390  143.7760 C   0  0  0  0  0  3  0  0  0  0  0  0
  185.6510  177.0130  145.3250 N   0  0  0  0  0  2  0  0  0  0  0  0
  186.6950  177.4820  143.1290 C   0  0  0  0  0  0  0  0  0  0  0  0
  1 19  1  0  0  0  0
  2 10  1  0  0  0  0
  3 18  1  0  0  0  0
  5 16  1  0  0  0  0
  8 12  1  0  0  0  0
  9 13  2  0  0  0  0
 10  5  1  0  0  0  0
 10  1  1  6  0  0  0
 12 15  1  0  0  0  0
 12  2  2  0  0  0  0
 13  2  1  0  0  0  0
 13 22  1  0  0  0  0
 14  4  1  0  0  0  0
 14  6  2  0  0  0  0
 15 20  1  0  0  0  0
 16  7  2  0  0  0  0
 16  4  1  0  0  0  0
 17 11  1  1  0  0  0
 17 14  1  0  0  0  0
 18  8  1  0  0  0  0
 18  9  1  0  0  0  0
 19 17  1  0  0  0  0
 20  5  2  0  0  0  0
 21 23  2  0  0  0  0
 23 22  1  0  0  0  0
 23 31  1  0  0  0  0
 24 25  1  0  0  0  0
 26 30  1  0  0  0  0
 27 31  1  0  0  0  0
 27 29  2  0  0  0  0
 28 24  2  0  0  0  0
 29 28  1  0  0  0  0
 30 24  1  0  0  0  0
 31 26  2  0  0  0  0
M  END
>  <MODEL>
2

>  <REMARK>
 VINA RESULT:      -7.9      2.675      5.370
  Name = 
  2 active torsions:
  status: ('A' for Active; 'I' for Inactive)
    1  A    between atoms: C_19  and  N_26
    2  A    between atoms: C_27  and  C_31
                            x       y       z     vdW  Elec       q    Type
                         _______ _______ _______ _____ _____    ______ ____

>  <TORSDO>
F 2

$$$$
=
 OpenBabel11042414023D

 31 34  0  0  1  0  0  0  0  0999 V2000
  188.1500  175.3930  143.3270 C   0  0  0  0  0  2  0  0  0  0  0  0
  190.0320  175.8540  144.9110 C   0  0  0  0  0  0  0  0  0  0  0  0
  193.9860  175.2400  146.3870 C   0  0  0  0  0  1  0  0  0  0  0  0
  185.5790  176.9220  144.1090 N   0  0  0  0  0  2  0  0  0  0  0  0
  187.7900  176.7910  145.4410 C   0  0  0  0  0  0  0  0  0  0  0  0
  185.1800  177.5580  141.9150 O   0  0  0  0  0  0  0  0  0  0  0  0
  185.6570  176.3990  146.3590 O   0  0  0  0  0  0  0  0  0  0  0  0
  191.7850  176.3890  146.5390 C   0  0  0  0  0  2  0  0  0  0  0  0
  192.2330  174.8040  144.6760 C   0  0  0  0  0  3  0  0  0  0  0  0
  188.7190  175.9950  144.5760 C   0  0  1  0  0  3  0  0  0  0  0  0
  187.6080  178.6270  141.5330 O   0  0  0  0  0  1  0  0  0  0  0  0
  190.5400  176.5840  146.1070 C   0  0  0  0  0  0  0  0  0  0  0  0
  191.0020  174.9720  144.1750 C   0  0  0  0  0  0  0  0  0  0  0  0
  186.0270  177.4150  142.8380 C   0  0  0  0  0  0  0  0  0  0  0  0
  189.7250  177.6560  146.7530 C   0  0  0  0  0  2  0  0  0  0  0  0
  186.3140  176.6860  145.3240 C   0  0  0  0  0  0  0  0  0  0  0  0
  187.4710  177.6920  142.5610 C   0  0  1  0  0  3  0  0  0  0  0  0
  192.6460  175.4610  145.8770 N   0  0  0  0  0  0  0  0  0  0  0  0
  188.1940  176.4050  142.1850 C   0  0  0  0  0  2  0  0  0  0  0  0
  188.2650  177.4890  146.4790 C   0  0  0  0  0  3  0  0  0  0  0  0
  190.7470  172.0650  143.6640 O   0  0  0  0  0  0  0  0  0  0  0  0
  190.6230  174.3000  142.9620 N   0  0  0  0  0  2  0  0  0  0  0  0
  190.5090  172.8860  142.7330 C   0  0  0  0  0  0  0  0  0  0  0  0
  189.6400  170.9470  138.5750 C   0  0  0  0  0  0  0  0  0  0  0  0
  189.6960  170.0890  137.4420 N   0  0  0  0  0  1  0  0  0  0  0  0
  190.7490  171.3290  140.9090 C   0  0  0  0  0  3  0  0  0  0  0  0
  189.0350  173.1240  140.7120 C   0  0  0  0  0  3  0  0  0  0  0  0
  188.7750  171.9140  138.5650 N   0  0  0  0  0  0  0  0  0  0  0  0
  188.4720  172.9270  139.5260 C   0  0  0  0  0  3  0  0  0  0  0  0
  190.5390  170.6850  139.6540 N   0  0  0  0  0  2  0  0  0  0  0  0
  190.1100  172.3930  141.3960 C   0  0  0  0  0  0  0  0  0  0  0  0
  2 12  2  0  0  0  0
  4 16  1  0  0  0  0
  5 20  2  0  0  0  0
  6 14  2  0  0  0  0
  9 18  1  0  0  0  0
 10  1  1  6  0  0  0
 10  2  1  0  0  0  0
 10  5  1  0  0  0  0
 12  8  1  0  0  0  0
 12 15  1  0  0  0  0
 13  9  2  0  0  0  0
 13  2  1  0  0  0  0
 14  4  1  0  0  0  0
 16  5  1  0  0  0  0
 16  7  2  0  0  0  0
 17 11  1  6  0  0  0
 17 14  1  0  0  0  0
 18  3  1  0  0  0  0
 18  8  1  0  0  0  0
 19 17  1  0  0  0  0
 19  1  1  0  0  0  0
 20 15  1  0  0  0  0
 22 13  1  0  0  0  0
 23 22  1  0  0  0  0
 23 21  2  0  0  0  0
 24 30  1  0  0  0  0
 25 24  1  0  0  0  0
 26 31  2  0  0  0  0
 27 31  1  0  0  0  0
 28 24  2  0  0  0  0
 28 29  1  0  0  0  0
 29 27  2  0  0  0  0
 30 26  1  0  0  0  0
 31 23  1  0  0  0  0
M  END
>  <MODEL>
3

>  <REMARK>
 VINA RESULT:      -7.5      2.673      6.336
  Name = 
  2 active torsions:
  status: ('A' for Active; 'I' for Inactive)
    1  A    between atoms: C_19  and  N_26
    2  A    between atoms: C_27  and  C_31
                            x       y       z     vdW  Elec       q    Type
                         _______ _______ _______ _____ _____    ______ ____

>  <TORSDO>
F 2

$$$$
=
 OpenBabel11042414023D

 31 34  0  0  1  0  0  0  0  0999 V2000
  190.8820  175.8430  143.5340 C   0  0  0  0  0  2  0  0  0  0  0  0
  189.6950  176.7150  145.5570 C   0  0  0  0  0  0  0  0  0  0  0  0
  186.3040  178.3650  147.5500 C   0  0  0  0  0  1  0  0  0  0  0  0
  193.8480  175.1960  144.1220 N   0  0  0  0  0  2  0  0  0  0  0  0
  192.1460  176.3250  145.7070 C   0  0  0  0  0  0  0  0  0  0  0  0
  193.7300  173.1820  142.9780 O   0  0  0  0  0  0  0  0  0  0  0  0
  194.3050  177.1540  145.2610 O   0  0  0  0  0  0  0  0  0  0  0  0
  188.6570  177.5610  147.6110 C   0  0  0  0  0  2  0  0  0  0  0  0
  187.3400  177.3920  145.5080 C   0  0  0  0  0  3  0  0  0  0  0  0
  190.8510  176.3210  144.9550 C   0  0  1  0  0  3  0  0  0  0  0  0
  191.6070  172.2640  144.3310 O   0  0  0  0  0  1  0  0  0  0  0  0
  189.7350  177.0630  147.0050 C   0  0  0  0  0  0  0  0  0  0  0  0
  188.3790  176.8650  144.8450 C   0  0  0  0  0  0  0  0  0  0  0  0
  193.1770  173.9720  143.7910 C   0  0  0  0  0  0  0  0  0  0  0  0
  190.9240  176.7220  147.8430 C   0  0  0  0  0  2  0  0  0  0  0  0
  193.4610  176.2510  145.0210 C   0  0  0  0  0  0  0  0  0  0  0  0
  191.8180  173.6440  144.3230 C   0  0  1  0  0  3  0  0  0  0  0  0
  187.4530  177.7900  146.8770 N   0  0  0  0  0  0  0  0  0  0  0  0
  190.7420  174.3240  143.4850 C   0  0  0  0  0  2  0  0  0  0  0  0
  192.1640  176.5830  147.0200 C   0  0  0  0  0  3  0  0  0  0  0  0
  186.9700  178.2740  142.6530 O   0  0  0  0  0  0  0  0  0  0  0  0
  188.2270  176.4700  143.4710 N   0  0  0  0  0  2  0  0  0  0  0  0
  187.5350  177.1680  142.4220 C   0  0  0  0  0  0  0  0  0  0  0  0
  187.0840  175.7530  137.9950 C   0  0  0  0  0  0  0  0  0  0  0  0
  186.7230  175.6990  136.6210 N   0  0  0  0  0  1  0  0  0  0  0  0
  186.8350  177.2550  140.1180 C   0  0  0  0  0  3  0  0  0  0  0  0
  188.1660  175.2930  140.8740 C   0  0  0  0  0  3  0  0  0  0  0  0
  187.7800  174.7730  138.4820 N   0  0  0  0  0  0  0  0  0  0  0  0
  188.2930  174.5310  139.7930 C   0  0  0  0  0  3  0  0  0  0  0  0
  186.6560  176.8870  138.7520 N   0  0  0  0  0  2  0  0  0  0  0  0
  187.4860  176.5810  141.0650 C   0  0  0  0  0  0  0  0  0  0  0  0
  2 12  2  0  0  0  0
  4 16  1  0  0  0  0
  5 20  2  0  0  0  0
  6 14  2  0  0  0  0
  9 18  1  0  0  0  0
 10  1  1  1  0  0  0
 10  2  1  0  0  0  0
 10  5  1  0  0  0  0
 12  8  1  0  0  0  0
 12 15  1  0  0  0  0
 13  9  2  0  0  0  0
 13  2  1  0  0  0  0
 14  4  1  0  0  0  0
 14 17  1  0  0  0  0
 16  7  2  0  0  0  0
 16  5  1  0  0  0  0
 17 11  1  6  0  0  0
 18  3  1  0  0  0  0
 18  8  1  0  0  0  0
 19  1  1  0  0  0  0
 19 17  1  0  0  0  0
 20 15  1  0  0  0  0
 22 13  1  0  0  0  0
 23 21  2  0  0  0  0
 23 22  1  0  0  0  0
 24 28  2  0  0  0  0
 24 30  1  0  0  0  0
 25 24  1  0  0  0  0
 26 31  2  0  0  0  0
 27 31  1  0  0  0  0
 28 29  1  0  0  0  0
 29 27  2  0  0  0  0
 30 26  1  0  0  0  0
 31 23  1  0  0  0  0
M  END
>  <MODEL>
4

>  <REMARK>
 VINA RESULT:      -7.5      2.811      4.151
  Name = 
  2 active torsions:
  status: ('A' for Active; 'I' for Inactive)
    1  A    between atoms: C_19  and  N_26
    2  A    between atoms: C_27  and  C_31
                            x       y       z     vdW  Elec       q    Type
                         _______ _______ _______ _____ _____    ______ ____

>  <TORSDO>
F 2

$$$$
=
 OpenBabel11042414023D

 31 34  0  0  1  0  0  0  0  0999 V2000
  189.0960  175.8080  142.2920 C   0  0  0  0  0  2  0  0  0  0  0  0
  189.9540  176.2450  144.6020 C   0  0  0  0  0  0  0  0  0  0  0  0
  189.8970  178.2860  148.3480 C   0  0  0  0  0  1  0  0  0  0  0  0
  190.8510  173.7630  140.7750 N   0  0  0  0  0  2  0  0  0  0  0  0
  191.3090  174.8040  143.0960 C   0  0  0  0  0  0  0  0  0  0  0  0
  188.9950  172.6250  139.9780 O   0  0  0  0  0  0  0  0  0  0  0  0
  192.8800  174.7120  141.3440 O   0  0  0  0  0  0  0  0  0  0  0  0
  190.9040  176.5850  146.8360 C   0  0  0  0  0  2  0  0  0  0  0  0
  188.8780  177.8390  146.1220 C   0  0  0  0  0  3  0  0  0  0  0  0
  190.1120  175.6570  143.3850 C   0  0  1  0  0  3  0  0  0  0  0  0
  187.8770  172.2760  142.3880 O   0  0  0  0  0  1  0  0  0  0  0  0
  190.9520  175.9470  145.6680 C   0  0  0  0  0  0  0  0  0  0  0  0
  188.8550  177.2170  144.9350 C   0  0  0  0  0  0  0  0  0  0  0  0
  189.5490  173.1900  140.9590 C   0  0  0  0  0  0  0  0  0  0  0  0
  191.9280  174.8280  145.5120 C   0  0  0  0  0  2  0  0  0  0  0  0
  191.7080  174.4390  141.7140 C   0  0  0  0  0  0  0  0  0  0  0  0
  188.8070  173.3080  142.2530 C   0  0  1  0  0  3  0  0  0  0  0  0
  189.9080  177.5810  147.0800 N   0  0  0  0  0  0  0  0  0  0  0  0
  188.0980  174.6540  142.3370 C   0  0  0  0  0  2  0  0  0  0  0  0
  192.1690  174.4950  144.0740 C   0  0  0  0  0  3  0  0  0  0  0  0
  185.9280  176.9380  145.2980 O   0  0  0  0  0  0  0  0  0  0  0  0
  187.8000  177.4970  144.0000 N   0  0  0  0  0  2  0  0  0  0  0  0
  186.3840  177.3510  144.1940 C   0  0  0  0  0  0  0  0  0  0  0  0
  183.0720  178.4600  141.0950 C   0  0  0  0  0  0  0  0  0  0  0  0
  181.8230  178.8180  140.5170 N   0  0  0  0  0  1  0  0  0  0  0  0
  184.1920  177.9630  143.4020 C   0  0  0  0  0  3  0  0  0  0  0  0
  186.0160  177.6880  141.7320 C   0  0  0  0  0  3  0  0  0  0  0  0
  184.0860  178.2940  140.3020 N   0  0  0  0  0  0  0  0  0  0  0  0
  185.4460  177.9420  140.5600 C   0  0  0  0  0  3  0  0  0  0  0  0
  183.1300  178.3080  142.5140 N   0  0  0  0  0  2  0  0  0  0  0  0
  185.4570  177.6870  143.0900 C   0  0  0  0  0  0  0  0  0  0  0  0
  1 19  1  0  0  0  0
  2 13  1  0  0  0  0
  2 12  2  0  0  0  0
  4 14  1  0  0  0  0
  4 16  1  0  0  0  0
  5 10  1  0  0  0  0
  5 20  2  0  0  0  0
  6 14  2  0  0  0  0
  7 16  2  0  0  0  0
  8 18  1  0  0  0  0
  9 18  1  0  0  0  0
 10  1  1  1  0  0  0
 10  2  1  0  0  0  0
 12  8  1  0  0  0  0
 13  9  2  0  0  0  0
 14 17  1  0  0  0  0
 15 12  1  0  0  0  0
 16  5  1  0  0  0  0
 17 19  1  0  0  0  0
 17 11  1  6  0  0  0
 18  3  1  0  0  0  0
 20 15  1  0  0  0  0
 22 23  1  0  0  0  0
 22 13  1  0  0  0  0
 23 21  2  0  0  0  0
 24 30  1  0  0  0  0
 25 24  1  0  0  0  0
 27 31  1  0  0  0  0
 28 29  1  0  0  0  0
 28 24  2  0  0  0  0
 29 27  2  0  0  0  0
 30 26  1  0  0  0  0
 31 26  2  0  0  0  0
 31 23  1  0  0  0  0
M  END
>  <MODEL>
5

>  <REMARK>
 VINA RESULT:      -7.4      1.390      1.979
  Name = 
  2 active torsions:
  status: ('A' for Active; 'I' for Inactive)
    1  A    between atoms: C_19  and  N_26
    2  A    between atoms: C_27  and  C_31
                            x       y       z     vdW  Elec       q    Type
                         _______ _______ _______ _____ _____    ______ ____

>  <TORSDO>
F 2

$$$$
=
 OpenBabel11042414023D

 31 34  0  0  1  0  0  0  0  0999 V2000
  192.3450  174.5230  143.4580 C   0  0  0  0  0  2  0  0  0  0  0  0
  191.0230  175.7090  145.2220 C   0  0  0  0  0  0  0  0  0  0  0  0
  187.3930  177.2350  146.8600 C   0  0  0  0  0  1  0  0  0  0  0  0
  195.3800  174.5960  144.0430 N   0  0  0  0  0  2  0  0  0  0  0  0
  193.5050  175.8110  145.3420 C   0  0  0  0  0  0  0  0  0  0  0  0
  195.6300  172.3530  143.5080 O   0  0  0  0  0  0  0  0  0  0  0  0
  195.4750  176.8450  144.5700 O   0  0  0  0  0  0  0  0  0  0  0  0
  189.8530  176.9040  147.0140 C   0  0  0  0  0  2  0  0  0  0  0  0
  188.5840  175.9220  145.1140 C   0  0  0  0  0  3  0  0  0  0  0  0
  192.2300  175.3690  144.6910 C   0  0  1  0  0  3  0  0  0  0  0  0
  193.7130  171.4970  145.1740 O   0  0  0  0  0  1  0  0  0  0  0  0
  191.0020  176.4510  146.5130 C   0  0  0  0  0  0  0  0  0  0  0  0
  189.7000  175.4200  144.5680 C   0  0  0  0  0  0  0  0  0  0  0  0
  194.9440  173.2300  144.0990 C   0  0  0  0  0  0  0  0  0  0  0  0
  192.2350  176.5730  147.3480 C   0  0  0  0  0  2  0  0  0  0  0  0
  194.8100  175.7770  144.6340 C   0  0  0  0  0  0  0  0  0  0  0  0
  193.6680  172.8340  144.7730 C   0  0  1  0  0  3  0  0  0  0  0  0
  188.6260  176.7030  146.3110 N   0  0  0  0  0  0  0  0  0  0  0  0
  192.4850  173.0520  143.8380 C   0  0  0  0  0  2  0  0  0  0  0  0
  193.4780  176.4260  146.5300 C   0  0  0  0  0  3  0  0  0  0  0  0
  188.7890  176.2380  141.8710 O   0  0  0  0  0  0  0  0  0  0  0  0
  189.6200  174.6340  143.3670 N   0  0  0  0  0  2  0  0  0  0  0  0
  189.1710  175.0500  142.0660 C   0  0  0  0  0  0  0  0  0  0  0  0
  189.4200  171.6450  138.8800 C   0  0  0  0  0  0  0  0  0  0  0  0
  189.7220  170.4160  138.2320 N   0  0  0  0  0  1  0  0  0  0  0  0
  189.7750  172.9090  141.1380 C   0  0  0  0  0  3  0  0  0  0  0  0
  188.4530  174.4770  139.7280 C   0  0  0  0  0  3  0  0  0  0  0  0
  188.7320  172.5280  138.2240 N   0  0  0  0  0  0  0  0  0  0  0  0
  188.2720  173.8320  138.5810 C   0  0  0  0  0  3  0  0  0  0  0  0
  189.8920  171.8280  140.2160 N   0  0  0  0  0  2  0  0  0  0  0  0
  189.1560  174.0750  140.9540 C   0  0  0  0  0  0  0  0  0  0  0  0
  1 19  1  0  0  0  0
  2 12  2  0  0  0  0
  4 14  1  0  0  0  0
  4 16  1  0  0  0  0
  5 20  2  0  0  0  0
  6 14  2  0  0  0  0
  7 16  2  0  0  0  0
  9 18  1  0  0  0  0
 10  1  1  1  0  0  0
 10  2  1  0  0  0  0
 10  5  1  0  0  0  0
 12  8  1  0  0  0  0
 12 15  1  0  0  0  0
 13  9  2  0  0  0  0
 13  2  1  0  0  0  0
 14 17  1  0  0  0  0
 16  5  1  0  0  0  0
 17 11  1  6  0  0  0
 18  3  1  0  0  0  0
 18  8  1  0  0  0  0
 19 17  1  0  0  0  0
 20 15  1  0  0  0  0
 21 23  2  0  0  0  0
 22 13  1  0  0  0  0
 23 22  1  0  0  0  0
 24 30  1  0  0  0  0
 25 24  1  0  0  0  0
 27 31  1  0  0  0  0
 28 29  1  0  0  0  0
 28 24  2  0  0  0  0
 29 27  2  0  0  0  0
 30 26  1  0  0  0  0
 31 26  2  0  0  0  0
 31 23  1  0  0  0  0
M  END
>  <MODEL>
6

>  <REMARK>
 VINA RESULT:      -7.3      3.090      5.375
  Name = 
  2 active torsions:
  status: ('A' for Active; 'I' for Inactive)
    1  A    between atoms: C_19  and  N_26
    2  A    between atoms: C_27  and  C_31
                            x       y       z     vdW  Elec       q    Type
                         _______ _______ _______ _____ _____    ______ ____

>  <TORSDO>
F 2

$$$$
=
 OpenBabel11042414023D

 31 34  0  0  1  0  0  0  0  0999 V2000
  189.8690  175.2150  142.2480 C   0  0  0  0  0  2  0  0  0  0  0  0
  192.0320  175.3680  143.4960 C   0  0  0  0  0  0  0  0  0  0  0  0
  194.5630  177.0030  146.5150 C   0  0  0  0  0  1  0  0  0  0  0  0
  190.0500  173.2640  139.8550 N   0  0  0  0  0  2  0  0  0  0  0  0
  191.9750  174.0340  141.3990 C   0  0  0  0  0  0  0  0  0  0  0  0
  188.0040  172.3010  140.3690 O   0  0  0  0  0  0  0  0  0  0  0  0
  192.0660  174.0550  139.0460 O   0  0  0  0  0  0  0  0  0  0  0  0
  194.2080  175.4270  144.6230 C   0  0  0  0  0  2  0  0  0  0  0  0
  192.3280  176.8390  145.4340 C   0  0  0  0  0  3  0  0  0  0  0  0
  191.3240  174.9040  142.4300 C   0  0  1  0  0  3  0  0  0  0  0  0
  188.6330  171.7510  142.9150 O   0  0  0  0  0  1  0  0  0  0  0  0
  193.4420  174.9140  143.6620 C   0  0  0  0  0  0  0  0  0  0  0  0
  191.4970  176.3470  144.5050 C   0  0  0  0  0  0  0  0  0  0  0  0
  189.1070  172.7340  140.7980 C   0  0  0  0  0  0  0  0  0  0  0  0
  193.9790  173.7740  142.8600 C   0  0  0  0  0  2  0  0  0  0  0  0
  191.3700  173.7980  140.0640 C   0  0  0  0  0  0  0  0  0  0  0  0
  189.3680  172.7490  142.2710 C   0  0  1  0  0  3  0  0  0  0  0  0
  193.6990  176.4350  145.4980 N   0  0  0  0  0  0  0  0  0  0  0  0
  189.0120  174.1090  142.8590 C   0  0  0  0  0  2  0  0  0  0  0  0
  193.2220  173.5850  141.5850 C   0  0  0  0  0  3  0  0  0  0  0  0
  189.4300  176.0990  146.6120 O   0  0  0  0  0  0  0  0  0  0  0  0
  190.1240  176.7710  144.4740 N   0  0  0  0  0  2  0  0  0  0  0  0
  189.1350  176.6380  145.5080 C   0  0  0  0  0  0  0  0  0  0  0  0
  184.9860  178.3960  144.2800 C   0  0  0  0  0  0  0  0  0  0  0  0
  183.9510  179.0400  143.5490 N   0  0  0  0  0  1  0  0  0  0  0  0
  187.5140  177.7580  144.1190 C   0  0  0  0  0  3  0  0  0  0  0  0
  186.7770  176.9000  146.3360 C   0  0  0  0  0  3  0  0  0  0  0  0
  184.6970  177.9140  145.4500 N   0  0  0  0  0  0  0  0  0  0  0  0
  185.4920  177.2240  146.4160 C   0  0  0  0  0  3  0  0  0  0  0  0
  186.2790  178.3180  143.6780 N   0  0  0  0  0  2  0  0  0  0  0  0
  187.7610  177.1360  145.2720 C   0  0  0  0  0  0  0  0  0  0  0  0
  1 19  1  0  0  0  0
  2 12  2  0  0  0  0
  2 13  1  0  0  0  0
  4 16  1  0  0  0  0
  4 14  1  0  0  0  0
  5 20  2  0  0  0  0
  5 10  1  0  0  0  0
  6 14  2  0  0  0  0
  7 16  2  0  0  0  0
  8 18  1  0  0  0  0
  9 18  1  0  0  0  0
 10  1  1  1  0  0  0
 10  2  1  0  0  0  0
 12  8  1  0  0  0  0
 13  9  2  0  0  0  0
 14 17  1  0  0  0  0
 15 12  1  0  0  0  0
 16  5  1  0  0  0  0
 17 19  1  0  0  0  0
 17 11  1  1  0  0  0
 18  3  1  0  0  0  0
 20 15  1  0  0  0  0
 22 13  1  0  0  0  0
 22 23  1  0  0  0  0
 23 21  2  0  0  0  0
 24 28  2  0  0  0  0
 25 24  1  0  0  0  0
 26 31  2  0  0  0  0
 27 29  2  0  0  0  0
 28 29  1  0  0  0  0
 30 26  1  0  0  0  0
 30 24  1  0  0  0  0
 31 23  1  0  0  0  0
 31 27  1  0  0  0  0
M  END
>  <MODEL>
7

>  <REMARK>
 VINA RESULT:      -7.2      1.885      2.515
  Name = 
  2 active torsions:
  status: ('A' for Active; 'I' for Inactive)
    1  A    between atoms: C_19  and  N_26
    2  A    between atoms: C_27  and  C_31
                            x       y       z     vdW  Elec       q    Type
                         _______ _______ _______ _____ _____    ______ ____

>  <TORSDO>
F 2

$$$$
=
 OpenBabel11042414023D

 31 34  0  0  1  0  0  0  0  0999 V2000
  191.9460  175.3720  143.5080 C   0  0  0  0  0  2  0  0  0  0  0  0
  190.1540  176.1170  145.0880 C   0  0  0  0  0  0  0  0  0  0  0  0
  186.1570  177.2860  146.0140 C   0  0  0  0  0  1  0  0  0  0  0  0
  194.7100  175.2160  144.8860 N   0  0  0  0  0  2  0  0  0  0  0  0
  192.5070  176.1200  145.8910 C   0  0  0  0  0  0  0  0  0  0  0  0
  195.1870  173.1710  143.9030 O   0  0  0  0  0  0  0  0  0  0  0  0
  194.5660  177.2610  145.9550 O   0  0  0  0  0  0  0  0  0  0  0  0
  188.4990  176.8610  146.7370 C   0  0  0  0  0  2  0  0  0  0  0  0
  187.8250  176.4160  144.3850 C   0  0  0  0  0  3  0  0  0  0  0  0
  191.4720  175.8880  144.8340 C   0  0  1  0  0  3  0  0  0  0  0  0
  192.9330  171.9800  144.7300 O   0  0  0  0  0  1  0  0  0  0  0  0
  189.7580  176.5170  146.4680 C   0  0  0  0  0  0  0  0  0  0  0  0
  189.0660  176.0350  144.0520 C   0  0  0  0  0  0  0  0  0  0  0  0
  194.3320  173.8920  144.4850 C   0  0  0  0  0  0  0  0  0  0  0  0
  190.7180  176.3950  147.6060 C   0  0  0  0  0  2  0  0  0  0  0  0
  193.9530  176.2280  145.5740 C   0  0  0  0  0  0  0  0  0  0  0  0
  192.9400  173.3750  144.6730 C   0  0  1  0  0  3  0  0  0  0  0  0
  187.5130  176.8740  145.7030 N   0  0  0  0  0  0  0  0  0  0  0  0
  192.0410  173.8490  143.5380 C   0  0  0  0  0  2  0  0  0  0  0  0
  192.1390  176.4230  147.1420 C   0  0  0  0  0  3  0  0  0  0  0  0
  187.5200  174.1350  142.3880 O   0  0  0  0  0  0  0  0  0  0  0  0
  189.3420  175.5740  142.7190 N   0  0  0  0  0  2  0  0  0  0  0  0
  188.5790  174.6470  141.9280 C   0  0  0  0  0  0  0  0  0  0  0  0
  189.5470  173.6750  137.4650 C   0  0  0  0  0  0  0  0  0  0  0  0
  189.4290  173.5170  136.0570 N   0  0  0  0  0  1  0  0  0  0  0  0
  188.1910  174.4530  139.5580 C   0  0  0  0  0  3  0  0  0  0  0  0
  190.4190  173.7910  140.4480 C   0  0  0  0  0  3  0  0  0  0  0  0
  190.6740  173.3550  138.0220 N   0  0  0  0  0  0  0  0  0  0  0  0
  191.1070  173.3970  139.3820 C   0  0  0  0  0  3  0  0  0  0  0  0
  188.4150  174.1790  138.1760 N   0  0  0  0  0  2  0  0  0  0  0  0
  189.0440  174.2930  140.5690 C   0  0  0  0  0  0  0  0  0  0  0  0
  1 19  1  0  0  0  0
  2 12  2  0  0  0  0
  4 16  1  0  0  0  0
  5 20  2  0  0  0  0
  6 14  2  0  0  0  0
  9 18  1  0  0  0  0
 10  1  1  1  0  0  0
 10  2  1  0  0  0  0
 10  5  1  0  0  0  0
 12  8  1  0  0  0  0
 12 15  1  0  0  0  0
 13  9  2  0  0  0  0
 13  2  1  0  0  0  0
 14 17  1  0  0  0  0
 14  4  1  0  0  0  0
 16  5  1  0  0  0  0
 16  7  2  0  0  0  0
 17 11  1  6  0  0  0
 18  3  1  0  0  0  0
 18  8  1  0  0  0  0
 19 17  1  0  0  0  0
 20 15  1  0  0  0  0
 22 13  1  0  0  0  0
 23 21  2  0  0  0  0
 23 22  1  0  0  0  0
 24 28  2  0  0  0  0
 24 30  1  0  0  0  0
 25 24  1  0  0  0  0
 26 31  2  0  0  0  0
 27 31  1  0  0  0  0
 28 29  1  0  0  0  0
 29 27  2  0  0  0  0
 30 26  1  0  0  0  0
 31 23  1  0  0  0  0
M  END
>  <MODEL>
8

>  <REMARK>
 VINA RESULT:      -7.2      2.651      5.477
  Name = 
  2 active torsions:
  status: ('A' for Active; 'I' for Inactive)
    1  A    between atoms: C_19  and  N_26
    2  A    between atoms: C_27  and  C_31
                            x       y       z     vdW  Elec       q    Type
                         _______ _______ _______ _____ _____    ______ ____

>  <TORSDO>
F 2

$$$$
=
 OpenBabel11042414023D

 31 34  0  0  1  0  0  0  0  0999 V2000
  186.8830  176.9180  143.7250 C   0  0  0  0  0  2  0  0  0  0  0  0
  189.0100  176.8900  145.0430 C   0  0  0  0  0  0  0  0  0  0  0  0
  193.1890  176.1600  145.4870 C   0  0  0  0  0  1  0  0  0  0  0  0
  184.4520  177.6990  145.4710 N   0  0  0  0  0  2  0  0  0  0  0  0
  186.8770  177.2740  146.2610 C   0  0  0  0  0  0  0  0  0  0  0  0
  183.6300  179.1330  143.8450 O   0  0  0  0  0  0  0  0  0  0  0  0
  184.9670  176.3080  147.2440 O   0  0  0  0  0  0  0  0  0  0  0  0
  191.0170  176.8950  146.4510 C   0  0  0  0  0  2  0  0  0  0  0  0
  191.1630  176.2770  144.0460 C   0  0  0  0  0  3  0  0  0  0  0  0
  187.6550  177.0120  145.0080 C   0  0  1  0  0  3  0  0  0  0  0  0
  185.9060  180.5230  143.5820 O   0  0  0  0  0  1  0  0  0  0  0  0
  189.7070  177.1130  146.3410 C   0  0  0  0  0  0  0  0  0  0  0  0
  189.8550  176.5010  143.8610 C   0  0  0  0  0  0  0  0  0  0  0  0
  184.6380  178.7170  144.4770 C   0  0  0  0  0  0  0  0  0  0  0  0
  188.9920  177.7290  147.4990 C   0  0  0  0  0  2  0  0  0  0  0  0
  185.4080  177.0660  146.3400 C   0  0  0  0  0  0  0  0  0  0  0  0
  185.9950  179.2390  144.1230 C   0  0  1  0  0  3  0  0  0  0  0  0
  191.7710  176.4230  145.3330 N   0  0  0  0  0  0  0  0  0  0  0  0
  186.6790  178.3080  143.1290 C   0  0  0  0  0  2  0  0  0  0  0  0
  187.5130  177.5300  147.4090 C   0  0  0  0  0  3  0  0  0  0  0  0
  189.0310  174.0190  142.4700 O   0  0  0  0  0  0  0  0  0  0  0  0
  189.2800  176.3500  142.5530 N   0  0  0  0  0  2  0  0  0  0  0  0
  188.8900  175.1350  141.8930 C   0  0  0  0  0  0  0  0  0  0  0  0
  186.8340  175.7820  137.7510 C   0  0  0  0  0  0  0  0  0  0  0  0
  186.0450  176.3270  136.7000 N   0  0  0  0  0  1  0  0  0  0  0  0
  187.5050  176.2090  140.2390 C   0  0  0  0  0  3  0  0  0  0  0  0
  188.7060  174.1250  139.6000 C   0  0  0  0  0  3  0  0  0  0  0  0
  187.4980  174.6930  137.5120 N   0  0  0  0  0  0  0  0  0  0  0  0
  188.3650  173.9100  138.3340 C   0  0  0  0  0  3  0  0  0  0  0  0
  186.8440  176.4700  139.0020 N   0  0  0  0  0  2  0  0  0  0  0  0
  188.3210  175.1960  140.5280 C   0  0  0  0  0  0  0  0  0  0  0  0
  2 12  2  0  0  0  0
  4 16  1  0  0  0  0
  5 16  1  0  0  0  0
  5 20  2  0  0  0  0
  6 14  2  0  0  0  0
  9 18  1  0  0  0  0
 10  1  1  6  0  0  0
 10  2  1  0  0  0  0
 10  5  1  0  0  0  0
 12  8  1  0  0  0  0
 12 15  1  0  0  0  0
 13  9  2  0  0  0  0
 13  2  1  0  0  0  0
 14  4  1  0  0  0  0
 16  7  2  0  0  0  0
 17 11  1  6  0  0  0
 17 14  1  0  0  0  0
 18  3  1  0  0  0  0
 18  8  1  0  0  0  0
 19  1  1  0  0  0  0
 19 17  1  0  0  0  0
 20 15  1  0  0  0  0
 22 13  1  0  0  0  0
 23 21  2  0  0  0  0
 23 22  1  0  0  0  0
 24 30  1  0  0  0  0
 25 24  1  0  0  0  0
 26 31  2  0  0  0  0
 27 31  1  0  0  0  0
 28 24  2  0  0  0  0
 28 29  1  0  0  0  0
 29 27  2  0  0  0  0
 30 26  1  0  0  0  0
 31 23  1  0  0  0  0
M  END
>  <MODEL>
9

>  <REMARK>
 VINA RESULT:      -7.2      2.912      6.088
  Name = 
  2 active torsions:
  status: ('A' for Active; 'I' for Inactive)
    1  A    between atoms: C_19  and  N_26
    2  A    between atoms: C_27  and  C_31
                            x       y       z     vdW  Elec       q    Type
                         _______ _______ _______ _____ _____    ______ ____

>  <TORSDO>
F 2

$$$$
