=
 OpenBabel11042414203D

 27 31  0  0  1  0  0  0  0  0999 V2000
  187.1180  177.3360  145.8010 C   0  0  0  0  0  0  0  0  0  0  0  0
  187.9140  177.2450  142.4890 C   0  0  0  0  0  3  0  0  0  0  0  0
  185.8880  177.6430  145.2760 C   0  0  0  0  0  0  0  0  0  0  0  0
  186.5080  178.4330  147.8570 C   0  0  0  0  0  3  0  0  0  0  0  0
  184.9290  178.3520  145.9990 C   0  0  0  0  0  3  0  0  0  0  0  0
  185.2510  178.7480  147.3080 C   0  0  0  0  0  3  0  0  0  0  0  0
  185.8290  177.1180  143.9230 C   0  0  0  0  0  0  0  0  0  0  0  0
  187.2650  177.5930  141.4060 C   0  0  0  0  0  0  0  0  0  0  0  0
  187.4560  177.7230  147.1030 C   0  0  0  0  0  3  0  0  0  0  0  0
  186.4580  177.9470  140.4420 C   0  0  0  0  0  3  0  0  0  0  0  0
  187.9380  176.6350  144.8600 N   0  0  0  0  0  0  0  0  0  0  0  0
  184.3580  177.9420  141.9370 C   0  0  0  0  0  3  0  0  0  0  0  0
  185.0460  178.1360  140.6830 N   0  0  0  0  0  2  0  0  0  0  0  0
  185.0050  177.5330  142.9960 C   0  0  0  0  0  0  0  0  0  0  0  0
  187.1880  176.5130  143.6000 C   0  0  2  0  0  3  0  0  0  0  0  0
  191.6590  174.7930  145.6120 C   0  0  0  0  0  0  0  0  0  0  0  0
  190.5440  173.9710  145.4770 C   0  0  0  0  0  3  0  0  0  0  0  0
  192.9600  174.4270  145.8530 O   0  0  0  0  0  0  0  0  0  0  0  0
  190.3730  176.7830  145.2590 C   0  0  0  0  0  3  0  0  0  0  0  0
  192.9450  176.6950  145.6950 C   0  0  0  0  0  2  0  0  0  0  0  0
  189.3080  174.5900  145.2270 C   0  0  0  0  0  3  0  0  0  0  0  0
  193.8120  175.5200  145.9370 N   0  0  0  0  0  0  0  0  0  0  0  0
  191.5810  176.1370  145.5090 C   0  0  0  0  0  0  0  0  0  0  0  0
  189.2080  175.9990  145.1150 C   0  0  0  0  0  0  0  0  0  0  0  0
  194.7350  175.4350  144.8160 C   0  0  0  0  0  2  0  0  0  0  0  0
  196.1670  176.4800  143.5040 C   0  0  0  0  0  1  0  0  0  0  0  0
  195.3130  176.6830  144.5860 O   0  0  0  0  0  0  0  0  0  0  0  0
  1  9  1  0  0  0  0
  3  1  2  0  0  0  0
  3  5  1  0  0  0  0
  5  6  2  0  0  0  0
  6  4  1  0  0  0  0
  7  3  1  0  0  0  0
  8  2  2  0  0  0  0
  9  4  2  0  0  0  0
 10 13  1  0  0  0  0
 10  8  2  0  0  0  0
 11 24  1  0  0  0  0
 11  1  1  0  0  0  0
 12 14  2  0  0  0  0
 13 12  1  0  0  0  0
 14  7  2  0  0  0  0
 15  2  1  6  0  0  0
 15  7  1  0  0  0  0
 15 11  1  0  0  0  0
 16 18  1  0  0  0  0
 17 16  2  0  0  0  0
 18 22  1  0  0  0  0
 19 23  2  0  0  0  0
 20 22  1  0  0  0  0
 21 17  1  0  0  0  0
 23 16  1  0  0  0  0
 23 20  1  0  0  0  0
 24 21  2  0  0  0  0
 24 19  1  0  0  0  0
 25 22  1  0  0  0  0
 26 27  1  0  0  0  0
 27 25  1  0  0  0  0
M  END
>  <MODEL>
1

>  <REMARK>
 VINA RESULT:      -8.3      0.000      0.000
  Name = 
  3 active torsions:
  status: ('A' for Active; 'I' for Inactive)
    1  A    between atoms: O_14  and  C_17
    2  A    between atoms: C_17  and  N_24
    3  A    between atoms: N_20  and  C_27
                            x       y       z     vdW  Elec       q    Type
                         _______ _______ _______ _____ _____    ______ ____

>  <TORSDO>
F 3

$$$$
=
 OpenBabel11042414203D

 27 31  0  0  1  0  0  0  0  0999 V2000
  188.2740  176.7380  143.2140 C   0  0  0  0  0  0  0  0  0  0  0  0
  187.6870  176.6690  146.5700 C   0  0  0  0  0  3  0  0  0  0  0  0
  187.1840  177.5700  143.2590 C   0  0  0  0  0  0  0  0  0  0  0  0
  187.7810  176.2230  140.9130 C   0  0  0  0  0  3  0  0  0  0  0  0
  186.3510  177.7600  142.1560 C   0  0  0  0  0  3  0  0  0  0  0  0
  186.6610  177.0750  140.9710 C   0  0  0  0  0  3  0  0  0  0  0  0
  187.1040  178.1400  144.5920 C   0  0  0  0  0  0  0  0  0  0  0  0
  186.7030  177.1090  147.3120 C   0  0  0  0  0  0  0  0  0  0  0  0
  188.5980  176.0470  142.0420 C   0  0  0  0  0  3  0  0  0  0  0  0
  185.6650  177.6520  147.8930 C   0  0  0  0  0  3  0  0  0  0  0  0
  188.9520  176.6810  144.4740 N   0  0  0  0  0  0  0  0  0  0  0  0
  185.0000  179.0500  145.8310 C   0  0  0  0  0  3  0  0  0  0  0  0
  184.8180  178.5840  147.1850 N   0  0  0  0  0  2  0  0  0  0  0  0
  186.0220  178.6520  145.1220 C   0  0  0  0  0  0  0  0  0  0  0  0
  188.2120  177.5190  145.4310 C   0  0  2  0  0  3  0  0  0  0  0  0
  192.6860  174.8930  145.2900 C   0  0  0  0  0  0  0  0  0  0  0  0
  191.5800  174.0580  145.1700 C   0  0  0  0  0  3  0  0  0  0  0  0
  193.9890  174.5460  145.5480 O   0  0  0  0  0  0  0  0  0  0  0  0
  191.3830  176.8620  144.8830 C   0  0  0  0  0  3  0  0  0  0  0  0
  193.9530  176.8090  145.3350 C   0  0  0  0  0  2  0  0  0  0  0  0
  190.3390  174.6590  144.8980 C   0  0  0  0  0  3  0  0  0  0  0  0
  194.8300  175.6490  145.6090 N   0  0  0  0  0  0  0  0  0  0  0  0
  192.5950  176.2340  145.1550 C   0  0  0  0  0  0  0  0  0  0  0  0
  190.2260  176.0640  144.7510 C   0  0  0  0  0  0  0  0  0  0  0  0
  195.7600  175.5450  144.4960 C   0  0  0  0  0  2  0  0  0  0  0  0
  197.1030  176.6640  143.1510 C   0  0  0  0  0  1  0  0  0  0  0  0
  195.9540  176.8030  143.9260 O   0  0  0  0  0  0  0  0  0  0  0  0
  1  3  1  0  0  0  0
  1 11  1  0  0  0  0
  2  8  2  0  0  0  0
  3  7  1  0  0  0  0
  4  6  2  0  0  0  0
  4  9  1  0  0  0  0
  5  3  2  0  0  0  0
  6  5  1  0  0  0  0
  7 14  2  0  0  0  0
  7 15  1  0  0  0  0
  8 10  2  0  0  0  0
  9  1  2  0  0  0  0
 11 24  1  0  0  0  0
 11 15  1  0  0  0  0
 12 13  1  0  0  0  0
 13 10  1  0  0  0  0
 14 12  2  0  0  0  0
 15  2  1  1  0  0  0
 16 18  1  0  0  0  0
 17 16  1  0  0  0  0
 18 22  1  0  0  0  0
 19 23  1  0  0  0  0
 20 22  1  0  0  0  0
 21 17  2  0  0  0  0
 23 16  2  0  0  0  0
 23 20  1  0  0  0  0
 24 19  2  0  0  0  0
 24 21  1  0  0  0  0
 25 22  1  0  0  0  0
 26 27  1  0  0  0  0
 27 25  1  0  0  0  0
M  END
>  <MODEL>
2

>  <REMARK>
 VINA RESULT:      -8.0      1.549      3.645
  Name = 
  3 active torsions:
  status: ('A' for Active; 'I' for Inactive)
    1  A    between atoms: O_14  and  C_17
    2  A    between atoms: C_17  and  N_24
    3  A    between atoms: N_20  and  C_27
                            x       y       z     vdW  Elec       q    Type
                         _______ _______ _______ _____ _____    ______ ____

>  <TORSDO>
F 3

$$$$
=
 OpenBabel11042414203D

 27 31  0  0  1  0  0  0  0  0999 V2000
  187.4410  177.6310  142.4720 C   0  0  0  0  0  0  0  0  0  0  0  0
  187.2170  177.0530  145.8240 C   0  0  0  0  0  3  0  0  0  0  0  0
  186.2230  178.2170  142.7110 C   0  0  0  0  0  0  0  0  0  0  0  0
  186.8250  177.3000  140.1680 C   0  0  0  0  0  3  0  0  0  0  0  0
  185.2630  178.3630  141.7100 C   0  0  0  0  0  3  0  0  0  0  0  0
  185.5770  177.8980  140.4230 C   0  0  0  0  0  3  0  0  0  0  0  0
  186.1710  178.6000  144.1100 C   0  0  0  0  0  0  0  0  0  0  0  0
  186.2470  177.1990  146.6900 C   0  0  0  0  0  0  0  0  0  0  0  0
  187.7710  177.1600  141.1970 C   0  0  0  0  0  3  0  0  0  0  0  0
  185.1890  177.4510  147.4150 C   0  0  0  0  0  3  0  0  0  0  0  0
  188.2410  177.5640  143.6590 N   0  0  0  0  0  0  0  0  0  0  0  0
  184.0690  178.9190  145.6160 C   0  0  0  0  0  3  0  0  0  0  0  0
  184.1150  178.2710  146.9050 N   0  0  0  0  0  2  0  0  0  0  0  0
  185.0710  178.8190  144.7840 C   0  0  0  0  0  0  0  0  0  0  0  0
  187.4550  178.1190  144.7730 C   0  0  2  0  0  3  0  0  0  0  0  0
  192.2970  176.4370  143.9330 C   0  0  0  0  0  0  0  0  0  0  0  0
  192.0120  177.7730  143.6690 C   0  0  0  0  0  3  0  0  0  0  0  0
  193.5270  175.8410  144.0680 O   0  0  0  0  0  0  0  0  0  0  0  0
  189.9780  175.8430  144.0190 C   0  0  0  0  0  3  0  0  0  0  0  0
  191.9790  174.2040  144.3700 C   0  0  0  0  0  2  0  0  0  0  0  0
  190.6600  178.1420  143.5790 C   0  0  0  0  0  3  0  0  0  0  0  0
  193.4320  174.4790  144.3200 N   0  0  0  0  0  0  0  0  0  0  0  0
  191.3270  175.5120  144.1000 C   0  0  0  0  0  0  0  0  0  0  0  0
  189.6290  177.1850  143.7530 C   0  0  0  0  0  0  0  0  0  0  0  0
  193.9560  174.2490  145.6580 C   0  0  0  0  0  2  0  0  0  0  0  0
  196.1580  174.1550  145.7250 C   0  0  0  0  0  1  0  0  0  0  0  0
  195.0880  175.0370  145.8610 O   0  0  0  0  0  0  0  0  0  0  0  0
  1  3  1  0  0  0  0
  1 11  1  0  0  0  0
  2  8  2  0  0  0  0
  3  7  1  0  0  0  0
  4  6  2  0  0  0  0
  4  9  1  0  0  0  0
  5  3  2  0  0  0  0
  6  5  1  0  0  0  0
  7 15  1  0  0  0  0
  7 14  2  0  0  0  0
  8 10  2  0  0  0  0
  9  1  2  0  0  0  0
 11 24  1  0  0  0  0
 11 15  1  0  0  0  0
 12 13  1  0  0  0  0
 13 10  1  0  0  0  0
 14 12  2  0  0  0  0
 15  2  1  1  0  0  0
 16 18  1  0  0  0  0
 16 23  1  0  0  0  0
 17 16  2  0  0  0  0
 18 22  1  0  0  0  0
 19 23  2  0  0  0  0
 21 17  1  0  0  0  0
 21 24  2  0  0  0  0
 22 20  1  0  0  0  0
 22 25  1  0  0  0  0
 23 20  1  0  0  0  0
 24 19  1  0  0  0  0
 25 27  1  0  0  0  0
 26 27  1  0  0  0  0
M  END
>  <MODEL>
3

>  <REMARK>
 VINA RESULT:      -7.8      1.791      3.977
  Name = 
  3 active torsions:
  status: ('A' for Active; 'I' for Inactive)
    1  A    between atoms: O_14  and  C_17
    2  A    between atoms: C_17  and  N_24
    3  A    between atoms: N_20  and  C_27
                            x       y       z     vdW  Elec       q    Type
                         _______ _______ _______ _____ _____    ______ ____

>  <TORSDO>
F 3

$$$$
=
 OpenBabel11042414203D

 27 31  0  0  1  0  0  0  0  0999 V2000
  190.4820  176.0020  145.3020 C   0  0  0  0  0  0  0  0  0  0  0  0
  192.5200  176.0260  142.5700 C   0  0  0  0  0  3  0  0  0  0  0  0
  191.6850  176.1980  145.9320 C   0  0  0  0  0  0  0  0  0  0  0  0
  189.5790  175.0620  147.3270 C   0  0  0  0  0  3  0  0  0  0  0  0
  191.8920  175.8350  147.2630 C   0  0  0  0  0  3  0  0  0  0  0  0
  190.8190  175.2620  147.9640 C   0  0  0  0  0  3  0  0  0  0  0  0
  192.6030  176.8000  144.9810 C   0  0  0  0  0  0  0  0  0  0  0  0
  193.8210  176.0110  142.4280 C   0  0  0  0  0  0  0  0  0  0  0  0
  189.4020  175.4310  145.9830 C   0  0  0  0  0  3  0  0  0  0  0  0
  195.1270  176.0400  142.4800 C   0  0  0  0  0  3  0  0  0  0  0  0
  190.5250  176.4210  143.9330 N   0  0  0  0  0  0  0  0  0  0  0  0
  195.2060  176.7020  144.9700 C   0  0  0  0  0  3  0  0  0  0  0  0
  195.8170  176.3590  143.7080 N   0  0  0  0  0  2  0  0  0  0  0  0
  193.9070  176.7760  145.0830 C   0  0  0  0  0  0  0  0  0  0  0  0
  191.8880  176.8930  143.6400 C   0  0  2  0  0  3  0  0  0  0  0  0
  187.2690  176.7770  141.2730 C   0  0  0  0  0  0  0  0  0  0  0  0
  188.1000  175.6700  141.1360 C   0  0  0  0  0  3  0  0  0  0  0  0
  186.1580  177.1030  140.5350 O   0  0  0  0  0  0  0  0  0  0  0  0
  188.5360  177.6390  143.1150 C   0  0  0  0  0  3  0  0  0  0  0  0
  186.4070  178.7460  142.0860 C   0  0  0  0  0  2  0  0  0  0  0  0
  189.1820  175.5560  142.0250 C   0  0  0  0  0  3  0  0  0  0  0  0
  185.5770  178.2940  140.9470 N   0  0  0  0  0  0  0  0  0  0  0  0
  187.4750  177.7210  142.2170 C   0  0  0  0  0  0  0  0  0  0  0  0
  189.4120  176.5360  143.0220 C   0  0  0  0  0  0  0  0  0  0  0  0
  184.2620  177.9720  141.4800 C   0  0  0  0  0  2  0  0  0  0  0  0
  182.0950  178.2910  141.2280 C   0  0  0  0  0  1  0  0  0  0  0  0
  183.2890  178.2230  140.5130 O   0  0  0  0  0  0  0  0  0  0  0  0
  1  3  2  0  0  0  0
  1  9  1  0  0  0  0
  3  5  1  0  0  0  0
  4  6  1  0  0  0  0
  5  6  2  0  0  0  0
  7 14  2  0  0  0  0
  7  3  1  0  0  0  0
  8 10  2  0  0  0  0
  8  2  2  0  0  0  0
  9  4  2  0  0  0  0
 10 13  1  0  0  0  0
 11  1  1  0  0  0  0
 12 14  2  0  0  0  0
 13 12  1  0  0  0  0
 15  2  1  6  0  0  0
 15 11  1  0  0  0  0
 15  7  1  0  0  0  0
 16 23  1  0  0  0  0
 17 16  2  0  0  0  0
 17 21  1  0  0  0  0
 18 22  1  0  0  0  0
 18 16  1  0  0  0  0
 20 23  1  0  0  0  0
 21 24  2  0  0  0  0
 22 25  1  0  0  0  0
 22 20  1  0  0  0  0
 23 19  2  0  0  0  0
 24 19  1  0  0  0  0
 24 11  1  0  0  0  0
 27 26  1  0  0  0  0
 27 25  1  0  0  0  0
M  END
>  <MODEL>
4

>  <REMARK>
 VINA RESULT:      -7.7      3.486      7.734
  Name = 
  3 active torsions:
  status: ('A' for Active; 'I' for Inactive)
    1  A    between atoms: O_14  and  C_17
    2  A    between atoms: C_17  and  N_24
    3  A    between atoms: N_20  and  C_27
                            x       y       z     vdW  Elec       q    Type
                         _______ _______ _______ _____ _____    ______ ____

>  <TORSDO>
F 3

$$$$
=
 OpenBabel11042414203D

 27 31  0  0  1  0  0  0  0  0999 V2000
  187.0630  177.5200  145.6060 C   0  0  0  0  0  0  0  0  0  0  0  0
  187.3700  177.8150  142.2250 C   0  0  0  0  0  3  0  0  0  0  0  0
  185.7360  177.6440  145.2800 C   0  0  0  0  0  0  0  0  0  0  0  0
  186.5900  178.3380  147.8220 C   0  0  0  0  0  3  0  0  0  0  0  0
  184.7910  178.1190  146.1890 C   0  0  0  0  0  3  0  0  0  0  0  0
  185.2310  178.4660  147.4760 C   0  0  0  0  0  3  0  0  0  0  0  0
  185.5660  177.2180  143.9020 C   0  0  0  0  0  0  0  0  0  0  0  0
  186.5210  178.1230  141.2770 C   0  0  0  0  0  0  0  0  0  0  0  0
  187.5210  177.8630  146.8830 C   0  0  0  0  0  3  0  0  0  0  0  0
  185.5340  178.3990  140.4660 C   0  0  0  0  0  3  0  0  0  0  0  0
  187.8410  177.0450  144.5010 N   0  0  0  0  0  0  0  0  0  0  0  0
  183.7050  177.9150  142.2170 C   0  0  0  0  0  3  0  0  0  0  0  0
  184.1610  178.3190  140.9090 N   0  0  0  0  0  2  0  0  0  0  0  0
  184.5580  177.5490  143.1360 C   0  0  0  0  0  0  0  0  0  0  0  0
  186.9440  176.8860  143.3450 C   0  0  2  0  0  3  0  0  0  0  0  0
  191.8710  175.7970  144.5580 C   0  0  0  0  0  0  0  0  0  0  0  0
  191.6150  177.1640  144.6000 C   0  0  0  0  0  3  0  0  0  0  0  0
  193.0860  175.1590  144.5690 O   0  0  0  0  0  0  0  0  0  0  0  0
  189.5390  175.2500  144.4830 C   0  0  0  0  0  3  0  0  0  0  0  0
  191.5030  173.5310  144.4760 C   0  0  0  0  0  2  0  0  0  0  0  0
  190.2710  177.5740  144.5810 C   0  0  0  0  0  3  0  0  0  0  0  0
  192.9620  173.7780  144.5050 N   0  0  0  0  0  0  0  0  0  0  0  0
  190.8810  174.8790  144.5010 C   0  0  0  0  0  0  0  0  0  0  0  0
  189.2200  176.6250  144.5230 C   0  0  0  0  0  0  0  0  0  0  0  0
  193.4600  173.2410  145.7620 C   0  0  0  0  0  2  0  0  0  0  0  0
  194.5650  171.3350  145.6590 C   0  0  0  0  0  1  0  0  0  0  0  0
  194.7380  172.7150  145.5750 O   0  0  0  0  0  0  0  0  0  0  0  0
  1  9  1  0  0  0  0
  3  1  2  0  0  0  0
  3  5  1  0  0  0  0
  5  6  2  0  0  0  0
  6  4  1  0  0  0  0
  7  3  1  0  0  0  0
  8  2  2  0  0  0  0
  9  4  2  0  0  0  0
 10 13  1  0  0  0  0
 10  8  2  0  0  0  0
 11 24  1  0  0  0  0
 11  1  1  0  0  0  0
 12 14  2  0  0  0  0
 13 12  1  0  0  0  0
 14  7  2  0  0  0  0
 15  2  1  6  0  0  0
 15  7  1  0  0  0  0
 15 11  1  0  0  0  0
 16 18  1  0  0  0  0
 16 17  1  0  0  0  0
 19 23  1  0  0  0  0
 19 24  2  0  0  0  0
 20 23  1  0  0  0  0
 20 22  1  0  0  0  0
 21 17  2  0  0  0  0
 22 18  1  0  0  0  0
 22 25  1  0  0  0  0
 23 16  2  0  0  0  0
 24 21  1  0  0  0  0
 27 26  1  0  0  0  0
 27 25  1  0  0  0  0
M  END
>  <MODEL>
5

>  <REMARK>
 VINA RESULT:      -7.5      1.470      2.081
  Name = 
  3 active torsions:
  status: ('A' for Active; 'I' for Inactive)
    1  A    between atoms: O_14  and  C_17
    2  A    between atoms: C_17  and  N_24
    3  A    between atoms: N_20  and  C_27
                            x       y       z     vdW  Elec       q    Type
                         _______ _______ _______ _____ _____    ______ ____

>  <TORSDO>
F 3

$$$$
=
 OpenBabel11042414203D

 27 31  0  0  1  0  0  0  0  0999 V2000
  187.7640  176.5550  144.6430 C   0  0  0  0  0  0  0  0  0  0  0  0
  187.2600  176.9350  141.2930 C   0  0  0  0  0  3  0  0  0  0  0  0
  186.5060  177.1020  144.6750 C   0  0  0  0  0  0  0  0  0  0  0  0
  188.1620  177.3490  146.8810 C   0  0  0  0  0  3  0  0  0  0  0  0
  186.0270  177.7920  145.7880 C   0  0  0  0  0  3  0  0  0  0  0  0
  186.8710  177.9120  146.9030 C   0  0  0  0  0  3  0  0  0  0  0  0
  185.8600  176.8300  143.4030 C   0  0  0  0  0  0  0  0  0  0  0  0
  186.3360  177.5450  140.5950 C   0  0  0  0  0  0  0  0  0  0  0  0
  188.6200  176.6650  145.7440 C   0  0  0  0  0  3  0  0  0  0  0  0
  185.3110  178.1600  140.0660 C   0  0  0  0  0  3  0  0  0  0  0  0
  188.0390  175.9280  143.3850 N   0  0  0  0  0  0  0  0  0  0  0  0
  183.9430  178.1650  142.2510 C   0  0  0  0  0  3  0  0  0  0  0  0
  184.1470  178.4830  140.8580 N   0  0  0  0  0  2  0  0  0  0  0  0
  184.8450  177.5000  142.9220 C   0  0  0  0  0  0  0  0  0  0  0  0
  186.8700  176.1210  142.5110 C   0  0  2  0  0  3  0  0  0  0  0  0
  191.3440  173.4920  142.4110 C   0  0  0  0  0  0  0  0  0  0  0  0
  191.5400  174.8690  142.4390 C   0  0  0  0  0  3  0  0  0  0  0  0
  192.2590  172.5090  142.1270 O   0  0  0  0  0  0  0  0  0  0  0  0
  189.0330  173.6960  143.0110 C   0  0  0  0  0  3  0  0  0  0  0  0
  190.2950  171.4540  142.5710 C   0  0  0  0  0  2  0  0  0  0  0  0
  190.4350  175.6750  142.7640 C   0  0  0  0  0  3  0  0  0  0  0  0
  191.7080  171.2370  142.1840 N   0  0  0  0  0  0  0  0  0  0  0  0
  190.1470  172.9280  142.6830 C   0  0  0  0  0  0  0  0  0  0  0  0
  189.1730  175.1000  143.0540 C   0  0  0  0  0  0  0  0  0  0  0  0
  192.3480  170.5370  143.2860 C   0  0  0  0  0  2  0  0  0  0  0  0
  193.8670  170.9430  144.8320 C   0  0  0  0  0  1  0  0  0  0  0  0
  193.6450  171.0180  143.4590 O   0  0  0  0  0  0  0  0  0  0  0  0
  1  3  2  0  0  0  0
  1  9  1  0  0  0  0
  3  5  1  0  0  0  0
  4  6  1  0  0  0  0
  5  6  2  0  0  0  0
  7  3  1  0  0  0  0
  8  2  2  0  0  0  0
  9  4  2  0  0  0  0
 10  8  2  0  0  0  0
 10 13  1  0  0  0  0
 11  1  1  0  0  0  0
 12 14  2  0  0  0  0
 13 12  1  0  0  0  0
 14  7  2  0  0  0  0
 15  2  1  6  0  0  0
 15 11  1  0  0  0  0
 15  7  1  0  0  0  0
 16 17  2  0  0  0  0
 16 23  1  0  0  0  0
 17 21  1  0  0  0  0
 18 22  1  0  0  0  0
 18 16  1  0  0  0  0
 19 24  1  0  0  0  0
 20 23  1  0  0  0  0
 21 24  2  0  0  0  0
 22 20  1  0  0  0  0
 22 25  1  0  0  0  0
 23 19  2  0  0  0  0
 24 11  1  0  0  0  0
 25 27  1  0  0  0  0
 27 26  1  0  0  0  0
M  END
>  <MODEL>
6

>  <REMARK>
 VINA RESULT:      -7.1      2.713      3.371
  Name = 
  3 active torsions:
  status: ('A' for Active; 'I' for Inactive)
    1  A    between atoms: O_14  and  C_17
    2  A    between atoms: C_17  and  N_24
    3  A    between atoms: N_20  and  C_27
                            x       y       z     vdW  Elec       q    Type
                         _______ _______ _______ _____ _____    ______ ____

>  <TORSDO>
F 3

$$$$
=
 OpenBabel11042414203D

 27 31  0  0  1  0  0  0  0  0999 V2000
  187.7540  176.9770  144.9230 C   0  0  0  0  0  0  0  0  0  0  0  0
  187.3500  177.3490  141.5600 C   0  0  0  0  0  3  0  0  0  0  0  0
  186.4320  177.3430  144.9050 C   0  0  0  0  0  0  0  0  0  0  0  0
  187.9380  177.7750  147.1880 C   0  0  0  0  0  3  0  0  0  0  0  0
  185.8120  177.9390  146.0030 C   0  0  0  0  0  3  0  0  0  0  0  0
  186.5820  178.1520  147.1580 C   0  0  0  0  0  3  0  0  0  0  0  0
  185.8870  177.0090  143.6000 C   0  0  0  0  0  0  0  0  0  0  0  0
  186.3820  177.8380  140.8270 C   0  0  0  0  0  0  0  0  0  0  0  0
  188.5370  177.1830  146.0640 C   0  0  0  0  0  3  0  0  0  0  0  0
  185.3060  178.3160  140.2600 C   0  0  0  0  0  3  0  0  0  0  0  0
  188.1690  176.4190  143.6720 N   0  0  0  0  0  0  0  0  0  0  0  0
  183.8550  178.0880  142.3780 C   0  0  0  0  0  3  0  0  0  0  0  0
  184.0740  178.4590  141.0010 N   0  0  0  0  0  2  0  0  0  0  0  0
  184.8100  177.5420  143.0820 C   0  0  0  0  0  0  0  0  0  0  0  0
  187.0250  176.4650  142.7470 C   0  0  2  0  0  3  0  0  0  0  0  0
  191.8410  174.5200  142.8290 C   0  0  0  0  0  0  0  0  0  0  0  0
  190.7330  173.7120  143.0630 C   0  0  0  0  0  3  0  0  0  0  0  0
  193.1260  174.1350  142.5350 O   0  0  0  0  0  0  0  0  0  0  0  0
  190.5790  176.5330  143.1360 C   0  0  0  0  0  3  0  0  0  0  0  0
  193.1230  176.4090  142.5640 C   0  0  0  0  0  2  0  0  0  0  0  0
  189.5130  174.3500  143.3430 C   0  0  0  0  0  3  0  0  0  0  0  0
  193.9810  175.2170  142.3730 N   0  0  0  0  0  0  0  0  0  0  0  0
  191.7720  175.8690  142.8640 C   0  0  0  0  0  0  0  0  0  0  0  0
  189.4210  175.7640  143.3820 C   0  0  0  0  0  0  0  0  0  0  0  0
  194.4130  175.2220  140.9840 C   0  0  0  0  0  2  0  0  0  0  0  0
  196.5870  175.5650  141.1170 C   0  0  0  0  0  1  0  0  0  0  0  0
  195.3890  176.2010  140.7990 O   0  0  0  0  0  0  0  0  0  0  0  0
  1  9  1  0  0  0  0
  3  1  2  0  0  0  0
  3  5  1  0  0  0  0
  5  6  2  0  0  0  0
  6  4  1  0  0  0  0
  7  3  1  0  0  0  0
  8  2  2  0  0  0  0
  9  4  2  0  0  0  0
 10  8  2  0  0  0  0
 10 13  1  0  0  0  0
 11  1  1  0  0  0  0
 12 14  2  0  0  0  0
 13 12  1  0  0  0  0
 14  7  2  0  0  0  0
 15  2  1  6  0  0  0
 15  7  1  0  0  0  0
 15 11  1  0  0  0  0
 16 23  2  0  0  0  0
 16 17  1  0  0  0  0
 17 21  2  0  0  0  0
 18 16  1  0  0  0  0
 19 24  2  0  0  0  0
 20 23  1  0  0  0  0
 21 24  1  0  0  0  0
 22 18  1  0  0  0  0
 22 20  1  0  0  0  0
 23 19  1  0  0  0  0
 24 11  1  0  0  0  0
 25 22  1  0  0  0  0
 27 25  1  0  0  0  0
 27 26  1  0  0  0  0
M  END
>  <MODEL>
7

>  <REMARK>
 VINA RESULT:      -7.0      2.003      2.113
  Name = 
  3 active torsions:
  status: ('A' for Active; 'I' for Inactive)
    1  A    between atoms: O_14  and  C_17
    2  A    between atoms: C_17  and  N_24
    3  A    between atoms: N_20  and  C_27
                            x       y       z     vdW  Elec       q    Type
                         _______ _______ _______ _____ _____    ______ ____

>  <TORSDO>
F 3

$$$$
=
 OpenBabel11042414203D

 27 31  0  0  1  0  0  0  0  0999 V2000
  192.3020  176.1930  144.9210 C   0  0  0  0  0  0  0  0  0  0  0  0
  190.7150  174.4110  142.4860 C   0  0  0  0  0  3  0  0  0  0  0  0
  193.3100  176.1520  143.9910 C   0  0  0  0  0  0  0  0  0  0  0  0
  193.9300  176.5070  146.6670 C   0  0  0  0  0  3  0  0  0  0  0  0
  194.6530  176.2780  144.3490 C   0  0  0  0  0  3  0  0  0  0  0  0
  194.9580  176.4590  145.7070 C   0  0  0  0  0  3  0  0  0  0  0  0
  192.7130  175.9570  142.6820 C   0  0  0  0  0  0  0  0  0  0  0  0
  191.1270  173.8610  141.3730 C   0  0  0  0  0  0  0  0  0  0  0  0
  192.5870  176.3710  146.2780 C   0  0  0  0  0  3  0  0  0  0  0  0
  191.7020  173.4210  140.2850 C   0  0  0  0  0  3  0  0  0  0  0  0
  191.0160  176.0080  144.3180 N   0  0  0  0  0  0  0  0  0  0  0  0
  193.7930  174.9030  140.5580 C   0  0  0  0  0  3  0  0  0  0  0  0
  193.0020  173.9030  139.8810 N   0  0  0  0  0  2  0  0  0  0  0  0
  193.3440  175.4920  141.6350 C   0  0  0  0  0  0  0  0  0  0  0  0
  191.2120  175.7890  142.8760 C   0  0  2  0  0  3  0  0  0  0  0  0
  187.2400  176.4890  146.1390 C   0  0  0  0  0  0  0  0  0  0  0  0
  188.1780  175.6950  146.7920 C   0  0  0  0  0  3  0  0  0  0  0  0
  185.9610  176.7920  146.5340 O   0  0  0  0  0  0  0  0  0  0  0  0
  188.7370  176.9660  144.3300 C   0  0  0  0  0  3  0  0  0  0  0  0
  186.2960  177.8630  144.5580 C   0  0  0  0  0  2  0  0  0  0  0  0
  189.4330  175.5390  146.1810 C   0  0  0  0  0  3  0  0  0  0  0  0
  185.3030  177.6090  145.6260 N   0  0  0  0  0  0  0  0  0  0  0  0
  187.5040  177.0970  144.9620 C   0  0  0  0  0  0  0  0  0  0  0  0
  189.7280  176.1710  144.9470 C   0  0  0  0  0  0  0  0  0  0  0  0
  185.0570  178.8810  146.2880 C   0  0  0  0  0  2  0  0  0  0  0  0
  186.1840  179.6840  148.0040 C   0  0  0  0  0  1  0  0  0  0  0  0
  185.2230  178.7340  147.6650 O   0  0  0  0  0  0  0  0  0  0  0  0
  1  9  1  0  0  0  0
  3  5  1  0  0  0  0
  3  1  2  0  0  0  0
  5  6  2  0  0  0  0
  6  4  1  0  0  0  0
  7 15  1  0  0  0  0
  7  3  1  0  0  0  0
  8  2  2  0  0  0  0
  9  4  2  0  0  0  0
 10  8  2  0  0  0  0
 11  1  1  0  0  0  0
 11 24  1  0  0  0  0
 12 14  2  0  0  0  0
 13 10  1  0  0  0  0
 13 12  1  0  0  0  0
 14  7  2  0  0  0  0
 15  2  1  1  0  0  0
 15 11  1  0  0  0  0
 16 18  1  0  0  0  0
 16 17  1  0  0  0  0
 19 24  2  0  0  0  0
 19 23  1  0  0  0  0
 20 23  1  0  0  0  0
 20 22  1  0  0  0  0
 21 17  2  0  0  0  0
 22 25  1  0  0  0  0
 22 18  1  0  0  0  0
 23 16  2  0  0  0  0
 24 21  1  0  0  0  0
 25 27  1  0  0  0  0
 27 26  1  0  0  0  0
M  END
>  <MODEL>
8

>  <REMARK>
 VINA RESULT:      -6.8      3.425      7.194
  Name = 
  3 active torsions:
  status: ('A' for Active; 'I' for Inactive)
    1  A    between atoms: O_14  and  C_17
    2  A    between atoms: C_17  and  N_24
    3  A    between atoms: N_20  and  C_27
                            x       y       z     vdW  Elec       q    Type
                         _______ _______ _______ _____ _____    ______ ____

>  <TORSDO>
F 3

$$$$
=
 OpenBabel11042414203D

 27 31  0  0  1  0  0  0  0  0999 V2000
  190.7820  173.1450  144.3220 C   0  0  0  0  0  0  0  0  0  0  0  0
  192.6090  175.8480  145.3100 C   0  0  0  0  0  3  0  0  0  0  0  0
  192.0200  172.5570  144.3850 C   0  0  0  0  0  0  0  0  0  0  0  0
  190.0690  171.4660  142.7500 C   0  0  0  0  0  3  0  0  0  0  0  0
  192.3390  171.4200  143.6430 C   0  0  0  0  0  3  0  0  0  0  0  0
  191.3440  170.8710  142.8180 C   0  0  0  0  0  3  0  0  0  0  0  0
  192.8400  173.3240  145.3050 C   0  0  0  0  0  0  0  0  0  0  0  0
  193.8950  176.0630  145.4180 C   0  0  0  0  0  0  0  0  0  0  0  0
  189.7790  172.6140  143.5040 C   0  0  0  0  0  3  0  0  0  0  0  0
  195.1990  176.0810  145.5080 C   0  0  0  0  0  3  0  0  0  0  0  0
  190.7070  174.3150  145.1450 N   0  0  0  0  0  0  0  0  0  0  0  0
  195.4380  173.5180  145.3720 C   0  0  0  0  0  3  0  0  0  0  0  0
  195.9660  174.8570  145.4720 N   0  0  0  0  0  2  0  0  0  0  0  0
  194.1490  173.3110  145.3290 C   0  0  0  0  0  0  0  0  0  0  0  0
  192.0250  174.5250  145.7650 C   0  0  2  0  0  3  0  0  0  0  0  0
  187.2480  176.5460  146.0710 C   0  0  0  0  0  0  0  0  0  0  0  0
  187.8820  175.8740  147.1100 C   0  0  0  0  0  3  0  0  0  0  0  0
  186.1220  177.3300  146.1280 O   0  0  0  0  0  0  0  0  0  0  0  0
  188.8410  175.7810  144.4530 C   0  0  0  0  0  3  0  0  0  0  0  0
  186.8000  177.3310  143.9580 C   0  0  0  0  0  2  0  0  0  0  0  0
  189.0330  175.1320  146.7960 C   0  0  0  0  0  3  0  0  0  0  0  0
  185.7640  177.8370  144.8860 N   0  0  0  0  0  0  0  0  0  0  0  0
  187.7020  176.5040  144.7990 C   0  0  0  0  0  0  0  0  0  0  0  0
  189.5260  175.0780  145.4680 C   0  0  0  0  0  0  0  0  0  0  0  0
  185.9190  179.2820  144.9490 C   0  0  0  0  0  2  0  0  0  0  0  0
  183.8710  179.0920  144.1520 C   0  0  0  0  0  1  0  0  0  0  0  0
  185.0110  179.8910  144.0830 O   0  0  0  0  0  0  0  0  0  0  0  0
  1  3  1  0  0  0  0
  1 11  1  0  0  0  0
  2  8  2  0  0  0  0
  3  7  1  0  0  0  0
  4  6  2  0  0  0  0
  4  9  1  0  0  0  0
  5  3  2  0  0  0  0
  6  5  1  0  0  0  0
  7 14  2  0  0  0  0
  7 15  1  0  0  0  0
  8 10  2  0  0  0  0
  9  1  2  0  0  0  0
 11 24  1  0  0  0  0
 11 15  1  0  0  0  0
 12 13  1  0  0  0  0
 13 10  1  0  0  0  0
 14 12  2  0  0  0  0
 15  2  1  6  0  0  0
 16 18  1  0  0  0  0
 16 17  1  0  0  0  0
 19 23  1  0  0  0  0
 19 24  2  0  0  0  0
 20 23  1  0  0  0  0
 20 22  1  0  0  0  0
 21 17  2  0  0  0  0
 22 25  1  0  0  0  0
 22 18  1  0  0  0  0
 23 16  2  0  0  0  0
 24 21  1  0  0  0  0
 27 26  1  0  0  0  0
 27 25  1  0  0  0  0
M  END
>  <MODEL>
9

>  <REMARK>
 VINA RESULT:      -6.8      3.152      8.112
  Name = 
  3 active torsions:
  status: ('A' for Active; 'I' for Inactive)
    1  A    between atoms: O_14  and  C_17
    2  A    between atoms: C_17  and  N_24
    3  A    between atoms: N_20  and  C_27
                            x       y       z     vdW  Elec       q    Type
                         _______ _______ _______ _____ _____    ______ ____

>  <TORSDO>
F 3

$$$$
