=
 OpenBabel11042417163D

 31 36  0  0  1  0  0  0  0  0999 V2000
  184.7970  178.2740  140.5130 C   0  0  0  0  0  3  0  0  0  0  0  0
  185.3220  178.2320  143.5480 C   0  0  0  0  0  0  0  0  0  0  0  0
  187.9590  177.3320  146.6360 C   0  0  0  0  0  0  0  0  0  0  0  0
  186.0810  177.9160  140.6210 C   0  0  0  0  0  3  0  0  0  0  0  0
  183.7260  178.1600  141.5540 C   0  0  0  0  0  2  0  0  0  0  0  0
  187.2540  177.7810  147.6760 C   0  0  0  0  0  3  0  0  0  0  0  0
  187.4690  177.2660  144.0840 C   0  0  0  0  0  3  0  0  0  0  0  0
  184.1390  178.5470  142.9300 C   0  0  0  0  0  0  0  0  0  0  0  0
  185.0940  178.5310  144.8690 C   0  0  0  0  0  0  0  0  0  0  0  0
  183.3200  179.0380  143.8440 O   0  0  0  0  0  0  0  0  0  0  0  0
  186.0420  178.2070  145.8280 C   0  0  0  0  0  0  0  0  0  0  0  0
  187.2070  177.5920  145.4290 C   0  0  0  0  0  0  0  0  0  0  0  0
  186.8250  177.4480  141.8120 C   0  0  0  0  0  3  0  0  0  0  0  0
  185.9920  178.3470  147.1480 C   0  0  0  0  0  3  0  0  0  0  0  0
  183.8640  179.0480  145.0350 N   0  0  0  0  0  0  0  0  0  0  0  0
  186.5100  177.6170  143.1020 C   0  0  0  0  0  0  0  0  0  0  0  0
  190.8490  175.0420  146.4800 C   0  0  0  0  0  2  0  0  0  0  0  0
  189.2740  176.7720  146.7010 N   0  0  0  0  0  0  0  0  0  0  0  0
  189.5180  175.4050  146.9290 C   0  0  0  0  0  0  0  0  0  0  0  0
  191.3530  176.4160  146.0200 C   0  0  2  0  0  3  0  0  0  0  0  0
  188.6780  174.6060  147.4200 O   0  0  0  0  0  0  0  0  0  0  0  0
  190.3380  177.4110  146.1490 O   0  0  0  0  0  0  0  0  0  0  0  0
  193.2670  176.1400  144.3580 N   0  0  0  0  0  0  0  0  0  0  0  0
  191.0630  176.4720  143.6480 O   0  0  0  0  0  0  0  0  0  0  0  0
  196.4080  174.9160  145.2080 O   0  0  0  0  0  0  0  0  0  0  0  0
  194.5660  177.0410  146.1380 N   0  0  0  0  0  1  0  0  0  0  0  0
  194.2200  175.8300  145.4120 C   0  0  2  0  0  3  0  0  0  0  0  0
  195.2120  175.3690  143.1930 C   0  0  0  0  0  3  0  0  0  0  0  0
  193.7890  175.8920  143.0180 C   0  0  0  0  0  3  0  0  0  0  0  0
  195.4000  175.3410  144.6660 C   0  0  0  0  0  0  0  0  0  0  0  0
  191.8690  176.3610  144.6110 C   0  0  0  0  0  0  0  0  0  0  0  0
  1  4  2  0  0  0  0
  1  5  1  0  0  0  0
  2  9  1  0  0  0  0
  3 18  1  0  0  0  0
  3  6  2  0  0  0  0
  4 13  1  0  0  0  0
  5  8  1  0  0  0  0
  7 12  2  0  0  0  0
  8  2  2  0  0  0  0
  8 10  1  0  0  0  0
  9 15  2  0  0  0  0
  9 11  1  0  0  0  0
 10 15  1  0  0  0  0
 11 14  2  0  0  0  0
 12 11  1  0  0  0  0
 12  3  1  0  0  0  0
 13 16  2  0  0  0  0
 14  6  1  0  0  0  0
 16  2  1  0  0  0  0
 16  7  1  0  0  0  0
 17 19  1  0  0  0  0
 18 19  1  0  0  0  0
 19 21  2  0  0  0  0
 20 31  1  6  0  0  0
 20 22  1  0  0  0  0
 20 17  1  0  0  0  0
 22 18  1  0  0  0  0
 23 31  1  0  0  0  0
 23 27  1  0  0  0  0
 24 31  2  0  0  0  0
 27 26  1  6  0  0  0
 28 30  1  0  0  0  0
 29 28  2  0  0  0  0
 29 23  1  0  0  0  0
 30 25  2  0  0  0  0
 30 27  1  0  0  0  0
M  END
>  <MODEL>
1

>  <REMARK>
 VINA RESULT:      -9.7      0.000      0.000
  Name = 
  2 active torsions:
  status: ('A' for Active; 'I' for Inactive)
    1  A    between atoms: C_6  and  N_9
    2  A    between atoms: C_26  and  C_29
                            x       y       z     vdW  Elec       q    Type
                         _______ _______ _______ _____ _____    ______ ____

>  <TORSDO>
F 2

$$$$
=
 OpenBabel11042417163D

 31 36  0  0  1  0  0  0  0  0999 V2000
  185.0290  178.2910  140.7190 C   0  0  0  0  0  3  0  0  0  0  0  0
  186.0630  177.4710  143.5030 C   0  0  0  0  0  0  0  0  0  0  0  0
  189.1240  175.7600  145.7390 C   0  0  0  0  0  0  0  0  0  0  0  0
  186.2850  177.8890  140.5000 C   0  0  0  0  0  3  0  0  0  0  0  0
  184.1470  177.9410  141.8790 C   0  0  0  0  0  2  0  0  0  0  0  0
  188.6400  175.9470  146.9690 C   0  0  0  0  0  3  0  0  0  0  0  0
  188.2000  176.3540  143.3830 C   0  0  0  0  0  3  0  0  0  0  0  0
  184.8160  177.9580  143.2080 C   0  0  0  0  0  0  0  0  0  0  0  0
  186.0860  177.4310  144.8760 C   0  0  0  0  0  0  0  0  0  0  0  0
  184.2000  178.2190  144.3480 O   0  0  0  0  0  0  0  0  0  0  0  0
  187.1600  176.8540  145.5360 C   0  0  0  0  0  0  0  0  0  0  0  0
  188.1950  176.3340  144.7920 C   0  0  0  0  0  0  0  0  0  0  0  0
  187.1890  177.1190  141.3830 C   0  0  0  0  0  3  0  0  0  0  0  0
  187.3480  176.6560  146.8360 C   0  0  0  0  0  3  0  0  0  0  0  0
  184.9400  177.9160  145.3850 N   0  0  0  0  0  0  0  0  0  0  0  0
  187.1120  176.9620  142.7100 C   0  0  0  0  0  0  0  0  0  0  0  0
  191.7960  173.6430  144.3280 C   0  0  0  0  0  2  0  0  0  0  0  0
  190.3890  175.1740  145.4230 N   0  0  0  0  0  0  0  0  0  0  0  0
  190.5380  173.8320  145.0240 C   0  0  0  0  0  0  0  0  0  0  0  0
  192.3740  175.0590  144.4420 C   0  0  2  0  0  3  0  0  0  0  0  0
  189.6750  172.9350  145.2160 O   0  0  0  0  0  0  0  0  0  0  0  0
  191.4570  175.9430  145.0860 O   0  0  0  0  0  0  0  0  0  0  0  0
  194.1200  176.0400  142.8640 N   0  0  0  0  0  0  0  0  0  0  0  0
  191.9310  175.6120  142.1590 O   0  0  0  0  0  0  0  0  0  0  0  0
  197.5350  176.0380  143.5130 O   0  0  0  0  0  0  0  0  0  0  0  0
  195.0520  176.8930  144.8820 N   0  0  0  0  0  1  0  0  0  0  0  0
  195.1840  175.8840  143.8440 C   0  0  2  0  0  3  0  0  0  0  0  0
  196.1290  176.4720  141.6340 C   0  0  0  0  0  3  0  0  0  0  0  0
  194.6090  176.3900  141.5350 C   0  0  0  0  0  3  0  0  0  0  0  0
  196.4090  176.1370  143.0540 C   0  0  0  0  0  0  0  0  0  0  0  0
  192.7740  175.5920  143.0970 C   0  0  0  0  0  0  0  0  0  0  0  0
  1  5  1  0  0  0  0
  2  9  1  0  0  0  0
  3  6  2  0  0  0  0
  4  1  2  0  0  0  0
  4 13  1  0  0  0  0
  5  8  1  0  0  0  0
  7 12  2  0  0  0  0
  8  2  2  0  0  0  0
  8 10  1  0  0  0  0
  9 15  2  0  0  0  0
  9 11  1  0  0  0  0
 10 15  1  0  0  0  0
 11 14  2  0  0  0  0
 12 11  1  0  0  0  0
 12  3  1  0  0  0  0
 13 16  2  0  0  0  0
 14  6  1  0  0  0  0
 16  7  1  0  0  0  0
 16  2  1  0  0  0  0
 17 20  1  0  0  0  0
 17 19  1  0  0  0  0
 18  3  1  0  0  0  0
 19 21  2  0  0  0  0
 19 18  1  0  0  0  0
 20 31  1  6  0  0  0
 20 22  1  0  0  0  0
 22 18  1  0  0  0  0
 23 31  1  0  0  0  0
 23 27  1  0  0  0  0
 24 31  2  0  0  0  0
 27 26  1  1  0  0  0
 28 30  1  0  0  0  0
 29 28  2  0  0  0  0
 29 23  1  0  0  0  0
 30 25  2  0  0  0  0
 30 27  1  0  0  0  0
M  END
>  <MODEL>
2

>  <REMARK>
 VINA RESULT:      -9.2      1.519      1.840
  Name = 
  2 active torsions:
  status: ('A' for Active; 'I' for Inactive)
    1  A    between atoms: C_6  and  N_9
    2  A    between atoms: C_26  and  C_29
                            x       y       z     vdW  Elec       q    Type
                         _______ _______ _______ _____ _____    ______ ____

>  <TORSDO>
F 2

$$$$
=
 OpenBabel11042417163D

 31 36  0  0  1  0  0  0  0  0999 V2000
  184.0660  178.6230  146.2350 C   0  0  0  0  0  3  0  0  0  0  0  0
  185.8220  177.3490  144.0480 C   0  0  0  0  0  0  0  0  0  0  0  0
  189.2500  175.1820  143.1290 C   0  0  0  0  0  0  0  0  0  0  0  0
  185.0000  177.9480  146.9130 C   0  0  0  0  0  3  0  0  0  0  0  0
  184.1370  179.1070  144.8190 C   0  0  0  0  0  3  0  0  0  0  0  0
  189.0870  175.0440  141.8120 C   0  0  0  0  0  3  0  0  0  0  0  0
  187.8230  176.3520  144.9600 C   0  0  0  0  0  3  0  0  0  0  0  0
  184.7220  178.1420  143.8500 C   0  0  0  0  0  0  0  0  0  0  0  0
  186.1350  176.8970  142.7900 C   0  0  0  0  0  0  0  0  0  0  0  0
  184.4110  178.0950  142.5660 O   0  0  0  0  0  0  0  0  0  0  0  0
  187.2940  176.1650  142.5830 C   0  0  0  0  0  0  0  0  0  0  0  0
  188.1120  175.8980  143.6570 C   0  0  1  0  0  3  0  0  0  0  0  0
  186.2780  177.3780  146.4320 C   0  0  0  0  0  3  0  0  0  0  0  0
  187.8090  175.6970  141.4510 C   0  0  0  0  0  3  0  0  0  0  0  0
  185.2440  177.3450  141.8880 N   0  0  0  0  0  0  0  0  0  0  0  0
  186.6280  177.0820  145.1740 C   0  0  0  0  0  0  0  0  0  0  0  0
  191.8070  172.9250  144.5410 C   0  0  0  0  0  2  0  0  0  0  0  0
  190.3250  174.6320  143.8960 N   0  0  0  0  0  0  0  0  0  0  0  0
  190.4400  173.2590  144.1880 C   0  0  0  0  0  0  0  0  0  0  0  0
  192.4440  174.3190  144.4700 C   0  0  2  0  0  3  0  0  0  0  0  0
  189.4900  172.4370  144.1140 O   0  0  0  0  0  0  0  0  0  0  0  0
  191.5000  175.2990  144.0400 O   0  0  0  0  0  0  0  0  0  0  0  0
  194.9730  174.3160  144.1490 N   0  0  0  0  0  0  0  0  0  0  0  0
  193.5050  174.2810  142.3290 O   0  0  0  0  0  0  0  0  0  0  0  0
  197.2460  173.6220  146.6860 O   0  0  0  0  0  0  0  0  0  0  0  0
  194.9550  175.4460  146.2450 N   0  0  0  0  0  1  0  0  0  0  0  0
  195.2170  174.1820  145.5760 C   0  0  2  0  0  3  0  0  0  0  0  0
  197.3150  173.8400  144.3110 C   0  0  0  0  0  3  0  0  0  0  0  0
  196.1730  174.1280  143.3400 C   0  0  0  0  0  3  0  0  0  0  0  0
  196.6610  173.8710  145.6440 C   0  0  0  0  0  0  0  0  0  0  0  0
  193.6530  174.3180  143.5800 C   0  0  0  0  0  0  0  0  0  0  0  0
  1  4  1  0  0  0  0
  2 16  1  0  0  0  0
  3 12  1  0  0  0  0
  3 18  1  0  0  0  0
  5  1  2  0  0  0  0
  6  3  2  0  0  0  0
  7 16  2  0  0  0  0
  8  2  2  0  0  0  0
  8  5  1  0  0  0  0
  9  2  1  0  0  0  0
 10  8  1  0  0  0  0
 11  9  1  0  0  0  0
 11 12  1  0  0  0  0
 12  7  1  6  0  0  0
 13  4  2  0  0  0  0
 14  6  1  0  0  0  0
 14 11  2  0  0  0  0
 15 10  1  0  0  0  0
 15  9  2  0  0  0  0
 16 13  1  0  0  0  0
 18 22  1  0  0  0  0
 18 19  1  0  0  0  0
 19 17  1  0  0  0  0
 20 31  1  6  0  0  0
 20 17  1  0  0  0  0
 21 19  2  0  0  0  0
 22 20  1  0  0  0  0
 23 27  1  0  0  0  0
 24 31  2  0  0  0  0
 27 30  1  0  0  0  0
 27 26  1  1  0  0  0
 28 30  1  0  0  0  0
 29 23  1  0  0  0  0
 29 28  2  0  0  0  0
 30 25  2  0  0  0  0
 31 23  1  0  0  0  0
M  END
>  <MODEL>
3

>  <REMARK>
 VINA RESULT:      -9.0      2.229      3.604
  Name = 
  2 active torsions:
  status: ('A' for Active; 'I' for Inactive)
    1  A    between atoms: C_6  and  N_9
    2  A    between atoms: C_26  and  C_29
                            x       y       z     vdW  Elec       q    Type
                         _______ _______ _______ _____ _____    ______ ____

>  <TORSDO>
F 2

$$$$
=
 OpenBabel11042417163D

 31 36  0  0  1  0  0  0  0  0999 V2000
  185.1960  178.6830  142.4820 C   0  0  0  0  0  3  0  0  0  0  0  0
  186.5810  177.1750  144.7840 C   0  0  0  0  0  0  0  0  0  0  0  0
  189.8000  174.8450  146.0100 C   0  0  0  0  0  0  0  0  0  0  0  0
  186.3650  178.2900  141.9640 C   0  0  0  0  0  3  0  0  0  0  0  0
  184.4810  178.1040  143.6640 C   0  0  0  0  0  2  0  0  0  0  0  0
  189.5310  174.7530  147.3140 C   0  0  0  0  0  3  0  0  0  0  0  0
  188.5720  176.0260  144.0460 C   0  0  0  0  0  3  0  0  0  0  0  0
  185.3480  177.7730  144.8270 C   0  0  0  0  0  0  0  0  0  0  0  0
  186.8150  176.8060  146.0860 C   0  0  0  0  0  0  0  0  0  0  0  0
  184.9410  177.7810  146.0850 O   0  0  0  0  0  0  0  0  0  0  0  0
  187.9260  176.0410  146.4020 C   0  0  0  0  0  0  0  0  0  0  0  0
  188.7860  175.6700  145.3930 C   0  0  0  0  0  0  0  0  0  0  0  0
  187.3280  177.2920  142.4780 C   0  0  0  0  0  3  0  0  0  0  0  0
  188.2980  175.5290  147.5700 C   0  0  0  0  0  3  0  0  0  0  0  0
  185.8070  177.2050  146.8820 N   0  0  0  0  0  0  0  0  0  0  0  0
  187.4470  176.8260  143.7270 C   0  0  0  0  0  0  0  0  0  0  0  0
  192.0330  173.0150  143.7110 C   0  0  0  0  0  2  0  0  0  0  0  0
  190.9470  174.2960  145.3560 N   0  0  0  0  0  0  0  0  0  0  0  0
  190.9180  173.0860  144.6360 C   0  0  0  0  0  0  0  0  0  0  0  0
  192.7400  174.3330  144.0520 C   0  0  2  0  0  3  0  0  0  0  0  0
  190.0220  172.2100  144.7570 O   0  0  0  0  0  0  0  0  0  0  0  0
  192.0110  175.0750  145.0300 O   0  0  0  0  0  0  0  0  0  0  0  0
  194.2230  175.8410  142.6280 N   0  0  0  0  0  0  0  0  0  0  0  0
  192.0760  175.2230  141.9360 O   0  0  0  0  0  0  0  0  0  0  0  0
  197.6390  176.2370  143.1370 O   0  0  0  0  0  0  0  0  0  0  0  0
  195.1540  176.4390  144.7360 N   0  0  0  0  0  1  0  0  0  0  0  0
  195.3590  175.6700  143.5190 C   0  0  2  0  0  3  0  0  0  0  0  0
  196.0660  176.7910  141.4300 C   0  0  0  0  0  3  0  0  0  0  0  0
  194.5690  176.5000  141.3730 C   0  0  0  0  0  3  0  0  0  0  0  0
  196.4820  176.2470  142.7480 C   0  0  0  0  0  0  0  0  0  0  0  0
  192.9720  175.1590  142.8210 C   0  0  0  0  0  0  0  0  0  0  0  0
  1  5  1  0  0  0  0
  2  8  2  0  0  0  0
  2  9  1  0  0  0  0
  3  6  2  0  0  0  0
  4 13  1  0  0  0  0
  4  1  2  0  0  0  0
  5  8  1  0  0  0  0
  6 14  1  0  0  0  0
  7 12  2  0  0  0  0
  8 10  1  0  0  0  0
  9 11  1  0  0  0  0
  9 15  2  0  0  0  0
 10 15  1  0  0  0  0
 11 14  2  0  0  0  0
 12  3  1  0  0  0  0
 12 11  1  0  0  0  0
 13 16  2  0  0  0  0
 16  7  1  0  0  0  0
 16  2  1  0  0  0  0
 17 20  1  0  0  0  0
 17 19  1  0  0  0  0
 18  3  1  0  0  0  0
 19 21  2  0  0  0  0
 19 18  1  0  0  0  0
 20 31  1  6  0  0  0
 20 22  1  0  0  0  0
 22 18  1  0  0  0  0
 23 31  1  0  0  0  0
 23 27  1  0  0  0  0
 24 31  2  0  0  0  0
 27 26  1  1  0  0  0
 28 30  1  0  0  0  0
 29 28  2  0  0  0  0
 29 23  1  0  0  0  0
 30 25  2  0  0  0  0
 30 27  1  0  0  0  0
M  END
>  <MODEL>
4

>  <REMARK>
 VINA RESULT:      -9.0      2.000      2.681
  Name = 
  2 active torsions:
  status: ('A' for Active; 'I' for Inactive)
    1  A    between atoms: C_6  and  N_9
    2  A    between atoms: C_26  and  C_29
                            x       y       z     vdW  Elec       q    Type
                         _______ _______ _______ _____ _____    ______ ____

>  <TORSDO>
F 2

$$$$
=
 OpenBabel11042417163D

 31 36  0  0  1  0  0  0  0  0999 V2000
  184.6860  179.7930  144.4390 C   0  0  0  0  0  3  0  0  0  0  0  0
  186.4850  177.6350  145.7020 C   0  0  0  0  0  0  0  0  0  0  0  0
  189.6340  174.9650  145.1990 C   0  0  0  0  0  0  0  0  0  0  0  0
  185.6080  179.5430  143.5030 C   0  0  0  0  0  3  0  0  0  0  0  0
  184.2740  178.9080  145.5750 C   0  0  0  0  0  2  0  0  0  0  0  0
  189.7370  174.4960  146.4440 C   0  0  0  0  0  3  0  0  0  0  0  0
  188.0420  176.7060  144.1070 C   0  0  0  0  0  3  0  0  0  0  0  0
  185.3910  178.2240  146.2810 C   0  0  0  0  0  0  0  0  0  0  0  0
  187.0350  176.8900  146.7160 C   0  0  0  0  0  0  0  0  0  0  0  0
  185.3610  177.8680  147.5530 O   0  0  0  0  0  0  0  0  0  0  0  0
  188.0960  176.0370  146.4550 C   0  0  0  0  0  0  0  0  0  0  0  0
  188.5870  175.9610  145.1720 C   0  0  0  0  0  0  0  0  0  0  0  0
  186.5580  178.4120  143.4040 C   0  0  0  0  0  3  0  0  0  0  0  0
  188.7220  175.1910  147.2670 C   0  0  0  0  0  3  0  0  0  0  0  0
  186.3460  177.0590  147.8580 N   0  0  0  0  0  0  0  0  0  0  0  0
  186.9710  177.5930  144.3790 C   0  0  0  0  0  0  0  0  0  0  0  0
  192.4720  173.8170  143.1370 C   0  0  0  0  0  2  0  0  0  0  0  0
  190.4790  174.6060  144.1020 N   0  0  0  0  0  0  0  0  0  0  0  0
  191.8840  174.6580  144.1630 C   0  0  0  0  0  0  0  0  0  0  0  0
  191.1970  173.3260  142.4390 C   0  0  2  0  0  3  0  0  0  0  0  0
  192.5330  175.3150  145.0190 O   0  0  0  0  0  0  0  0  0  0  0  0
  190.0260  173.8140  143.0950 O   0  0  0  0  0  0  0  0  0  0  0  0
  190.7390  171.1830  141.1370 N   0  0  0  0  0  0  0  0  0  0  0  0
  191.5660  171.1370  143.3240 O   0  0  0  0  0  0  0  0  0  0  0  0
  190.2360  171.0770  137.6980 O   0  0  0  0  0  0  0  0  0  0  0  0
  189.1290  172.5390  140.0240 N   0  0  0  0  0  1  0  0  0  0  0  0
  190.4380  171.9150  139.9160 C   0  0  2  0  0  3  0  0  0  0  0  0
  190.6400  169.4960  139.4400 C   0  0  0  0  0  3  0  0  0  0  0  0
  190.8700  169.7450  140.9280 C   0  0  0  0  0  3  0  0  0  0  0  0
  190.4010  170.8540  138.8870 C   0  0  0  0  0  0  0  0  0  0  0  0
  191.1710  171.8290  142.3460 C   0  0  0  0  0  0  0  0  0  0  0  0
  1  5  1  0  0  0  0
  2  8  2  0  0  0  0
  2  9  1  0  0  0  0
  3  6  2  0  0  0  0
  4  1  2  0  0  0  0
  5  8  1  0  0  0  0
  6 14  1  0  0  0  0
  7 16  1  0  0  0  0
  7 12  2  0  0  0  0
  8 10  1  0  0  0  0
  9 15  2  0  0  0  0
 10 15  1  0  0  0  0
 11  9  1  0  0  0  0
 11 14  2  0  0  0  0
 12  3  1  0  0  0  0
 12 11  1  0  0  0  0
 13  4  1  0  0  0  0
 13 16  2  0  0  0  0
 16  2  1  0  0  0  0
 17 19  1  0  0  0  0
 18 19  1  0  0  0  0
 18  3  1  0  0  0  0
 19 21  2  0  0  0  0
 20 31  1  1  0  0  0
 20 22  1  0  0  0  0
 20 17  1  0  0  0  0
 22 18  1  0  0  0  0
 23 31  1  0  0  0  0
 25 30  2  0  0  0  0
 27 26  1  1  0  0  0
 27 23  1  0  0  0  0
 28 29  2  0  0  0  0
 29 23  1  0  0  0  0
 30 28  1  0  0  0  0
 30 27  1  0  0  0  0
 31 24  2  0  0  0  0
M  END
>  <MODEL>
5

>  <REMARK>
 VINA RESULT:      -8.7      4.052      5.199
  Name = 
  2 active torsions:
  status: ('A' for Active; 'I' for Inactive)
    1  A    between atoms: C_6  and  N_9
    2  A    between atoms: C_26  and  C_29
                            x       y       z     vdW  Elec       q    Type
                         _______ _______ _______ _____ _____    ______ ____

>  <TORSDO>
F 2

$$$$
=
 OpenBabel11042417163D

 31 36  0  0  1  0  0  0  0  0999 V2000
  183.9170  179.0410  144.3320 C   0  0  0  0  0  3  0  0  0  0  0  0
  186.3430  177.5540  145.5120 C   0  0  0  0  0  0  0  0  0  0  0  0
  189.4710  174.8900  144.8700 C   0  0  0  0  0  0  0  0  0  0  0  0
  184.4770  178.4350  143.2790 C   0  0  0  0  0  3  0  0  0  0  0  0
  184.0660  178.6820  145.7780 C   0  0  0  0  0  2  0  0  0  0  0  0
  190.0740  174.9540  146.0590 C   0  0  0  0  0  3  0  0  0  0  0  0
  187.3590  176.0610  143.9090 C   0  0  0  0  0  3  0  0  0  0  0  0
  185.4480  178.3290  146.2020 C   0  0  0  0  0  0  0  0  0  0  0  0
  187.3180  177.2710  146.4370 C   0  0  0  0  0  0  0  0  0  0  0  0
  185.9210  178.5090  147.4240 O   0  0  0  0  0  0  0  0  0  0  0  0
  188.3330  176.3800  146.1260 C   0  0  0  0  0  0  0  0  0  0  0  0
  188.3470  175.7980  144.8790 C   0  0  0  0  0  0  0  0  0  0  0  0
  185.4870  177.3540  143.2500 C   0  0  0  0  0  3  0  0  0  0  0  0
  189.3230  175.9240  146.8860 C   0  0  0  0  0  3  0  0  0  0  0  0
  187.0580  177.8840  147.6050 N   0  0  0  0  0  0  0  0  0  0  0  0
  186.3340  176.9880  144.2200 C   0  0  0  0  0  0  0  0  0  0  0  0
  189.8130  172.3230  142.2400 C   0  0  0  0  0  2  0  0  0  0  0  0
  189.9200  174.1210  143.7500 N   0  0  0  0  0  0  0  0  0  0  0  0
  189.6910  172.7370  143.6250 C   0  0  0  0  0  0  0  0  0  0  0  0
  190.2060  173.6600  141.6000 C   0  0  2  0  0  3  0  0  0  0  0  0
  189.3860  171.9790  144.5830 O   0  0  0  0  0  0  0  0  0  0  0  0
  190.2190  174.7130  142.5650 O   0  0  0  0  0  0  0  0  0  0  0  0
  189.6720  173.6530  139.1080 N   0  0  0  0  0  0  0  0  0  0  0  0
  188.1940  174.5590  140.6770 O   0  0  0  0  0  0  0  0  0  0  0  0
  191.3690  171.7190  136.7690 O   0  0  0  0  0  0  0  0  0  0  0  0
  192.0430  173.6760  138.8880 N   0  0  0  0  0  1  0  0  0  0  0  0
  190.8460  172.8540  138.7950 C   0  0  2  0  0  3  0  0  0  0  0  0
  189.3650  173.0140  136.8200 C   0  0  0  0  0  3  0  0  0  0  0  0
  188.7530  173.7900  137.9830 C   0  0  0  0  0  3  0  0  0  0  0  0
  190.6210  172.4600  137.3870 C   0  0  0  0  0  0  0  0  0  0  0  0
  189.3010  174.0000  140.4530 C   0  0  0  0  0  0  0  0  0  0  0  0
  1  5  1  0  0  0  0
  2  8  2  0  0  0  0
  2  9  1  0  0  0  0
  3 12  1  0  0  0  0
  3  6  2  0  0  0  0
  4  1  2  0  0  0  0
  5  8  1  0  0  0  0
  6 14  1  0  0  0  0
  7 16  1  0  0  0  0
  7 12  2  0  0  0  0
  8 10  1  0  0  0  0
  9 15  2  0  0  0  0
 10 15  1  0  0  0  0
 11  9  1  0  0  0  0
 11 14  2  0  0  0  0
 12 11  1  0  0  0  0
 13  4  1  0  0  0  0
 13 16  2  0  0  0  0
 16  2  1  0  0  0  0
 17 19  1  0  0  0  0
 18  3  1  0  0  0  0
 19 18  1  0  0  0  0
 19 21  2  0  0  0  0
 20 31  1  6  0  0  0
 20 17  1  0  0  0  0
 20 22  1  0  0  0  0
 22 18  1  0  0  0  0
 23 31  1  0  0  0  0
 25 30  2  0  0  0  0
 27 26  1  6  0  0  0
 27 23  1  0  0  0  0
 28 30  1  0  0  0  0
 28 29  2  0  0  0  0
 29 23  1  0  0  0  0
 30 27  1  0  0  0  0
 31 24  2  0  0  0  0
M  END
>  <MODEL>
6

>  <REMARK>
 VINA RESULT:      -8.6      4.045      5.263
  Name = 
  2 active torsions:
  status: ('A' for Active; 'I' for Inactive)
    1  A    between atoms: C_6  and  N_9
    2  A    between atoms: C_26  and  C_29
                            x       y       z     vdW  Elec       q    Type
                         _______ _______ _______ _____ _____    ______ ____

>  <TORSDO>
F 2

$$$$
=
 OpenBabel11042417163D

 31 36  0  0  1  0  0  0  0  0999 V2000
  197.2610  175.7150  141.3870 C   0  0  0  0  0  3  0  0  0  0  0  0
  195.3310  175.4420  143.7720 C   0  0  0  0  0  0  0  0  0  0  0  0
  191.4650  175.9330  145.2250 C   0  0  0  0  0  0  0  0  0  0  0  0
  196.0610  176.0080  140.8760 C   0  0  0  0  0  3  0  0  0  0  0  0
  197.6800  175.7710  142.8240 C   0  0  0  0  0  2  0  0  0  0  0  0
  191.6130  175.4140  146.4460 C   0  0  0  0  0  3  0  0  0  0  0  0
  193.1220  176.2640  143.2490 C   0  0  0  0  0  3  0  0  0  0  0  0
  196.6860  175.2370  143.7940 C   0  0  0  0  0  0  0  0  0  0  0  0
  194.9150  175.0270  145.0130 C   0  0  0  0  0  0  0  0  0  0  0  0
  196.9990  174.6940  144.9580 O   0  0  0  0  0  0  0  0  0  0  0  0
  193.5990  175.2180  145.4040 C   0  0  0  0  0  0  0  0  0  0  0  0
  192.7260  175.8200  144.5270 C   0  0  0  0  0  0  0  0  0  0  0  0
  194.7980  176.3280  141.5770 C   0  0  0  0  0  3  0  0  0  0  0  0
  193.0140  174.9540  146.5680 C   0  0  0  0  0  3  0  0  0  0  0  0
  195.9490  174.5470  145.7260 N   0  0  0  0  0  0  0  0  0  0  0  0
  194.4620  176.0490  142.8420 C   0  0  0  0  0  0  0  0  0  0  0  0
  188.0090  176.2370  143.9660 C   0  0  0  0  0  2  0  0  0  0  0  0
  190.2420  176.4290  144.6740 N   0  0  0  0  0  0  0  0  0  0  0  0
  189.3210  175.6160  143.9880 C   0  0  0  0  0  0  0  0  0  0  0  0
  188.3310  177.5530  144.6850 C   0  0  2  0  0  3  0  0  0  0  0  0
  189.5960  174.4900  143.4970 O   0  0  0  0  0  0  0  0  0  0  0  0
  189.6910  177.5890  145.1170 O   0  0  0  0  0  0  0  0  0  0  0  0
  186.0930  178.3390  145.6170 N   0  0  0  0  0  0  0  0  0  0  0  0
  187.7550  177.4520  147.0020 O   0  0  0  0  0  0  0  0  0  0  0  0
  183.2910  178.9680  143.6560 O   0  0  0  0  0  0  0  0  0  0  0  0
  186.1360  179.7890  143.7290 N   0  0  0  0  0  1  0  0  0  0  0  0
  185.5530  178.5800  144.2880 C   0  0  2  0  0  3  0  0  0  0  0  0
  183.7570  178.7210  145.9840 C   0  0  0  0  0  3  0  0  0  0  0  0
  185.0840  178.4090  146.6690 C   0  0  0  0  0  3  0  0  0  0  0  0
  184.1120  178.7940  144.5430 C   0  0  0  0  0  0  0  0  0  0  0  0
  187.4000  177.7830  145.8390 C   0  0  0  0  0  0  0  0  0  0  0  0
  1  5  1  0  0  0  0
  2  8  2  0  0  0  0
  2  9  1  0  0  0  0
  3  6  2  0  0  0  0
  4  1  2  0  0  0  0
  4 13  1  0  0  0  0
  5  8  1  0  0  0  0
  6 14  1  0  0  0  0
  7 12  2  0  0  0  0
  8 10  1  0  0  0  0
  9 11  1  0  0  0  0
  9 15  2  0  0  0  0
 10 15  1  0  0  0  0
 11 14  2  0  0  0  0
 12  3  1  0  0  0  0
 12 11  1  0  0  0  0
 13 16  2  0  0  0  0
 16  7  1  0  0  0  0
 16  2  1  0  0  0  0
 17 19  1  0  0  0  0
 17 20  1  0  0  0  0
 18 22  1  0  0  0  0
 18  3  1  0  0  0  0
 19 18  1  0  0  0  0
 20 22  1  0  0  0  0
 20 31  1  1  0  0  0
 21 19  2  0  0  0  0
 23 31  1  0  0  0  0
 23 29  1  0  0  0  0
 25 30  2  0  0  0  0
 27 26  1  1  0  0  0
 27 30  1  0  0  0  0
 27 23  1  0  0  0  0
 28 29  2  0  0  0  0
 30 28  1  0  0  0  0
 31 24  2  0  0  0  0
M  END
>  <MODEL>
7

>  <REMARK>
 VINA RESULT:      -8.5      1.935      8.989
  Name = 
  2 active torsions:
  status: ('A' for Active; 'I' for Inactive)
    1  A    between atoms: C_6  and  N_9
    2  A    between atoms: C_26  and  C_29
                            x       y       z     vdW  Elec       q    Type
                         _______ _______ _______ _____ _____    ______ ____

>  <TORSDO>
F 2

$$$$
=
 OpenBabel11042417163D

 31 36  0  0  1  0  0  0  0  0999 V2000
  185.7340  178.3480  143.3000 C   0  0  0  0  0  3  0  0  0  0  0  0
  187.8900  177.1590  145.1520 C   0  0  0  0  0  0  0  0  0  0  0  0
  191.9240  176.3590  145.7700 C   0  0  0  0  0  0  0  0  0  0  0  0
  186.8900  178.6690  142.7100 C   0  0  0  0  0  3  0  0  0  0  0  0
  185.4880  177.2490  144.2880 C   0  0  0  0  0  2  0  0  0  0  0  0
  191.8700  175.8540  147.0040 C   0  0  0  0  0  3  0  0  0  0  0  0
  190.0900  177.2620  144.1640 C   0  0  0  0  0  3  0  0  0  0  0  0
  186.5330  177.0940  145.3350 C   0  0  0  0  0  0  0  0  0  0  0  0
  188.4050  176.6490  146.3180 C   0  0  0  0  0  0  0  0  0  0  0  0
  186.3070  176.6220  146.5490 O   0  0  0  0  0  0  0  0  0  0  0  0
  189.7690  176.4310  146.4380 C   0  0  0  0  0  0  0  0  0  0  0  0
  190.5880  176.7420  145.3760 C   0  0  0  0  0  0  0  0  0  0  0  0
  188.2490  178.1380  142.9600 C   0  0  0  0  0  3  0  0  0  0  0  0
  190.4560  175.8920  147.4400 C   0  0  0  0  0  3  0  0  0  0  0  0
  187.4200  176.3430  147.1800 N   0  0  0  0  0  0  0  0  0  0  0  0
  188.6990  177.5030  144.0490 C   0  0  0  0  0  0  0  0  0  0  0  0
  195.4450  176.6650  144.7090 C   0  0  0  0  0  2  0  0  0  0  0  0
  193.1160  176.5680  145.0080 N   0  0  0  0  0  0  0  0  0  0  0  0
  194.3310  176.9910  145.5800 C   0  0  0  0  0  0  0  0  0  0  0  0
  194.6830  176.0520  143.5270 C   0  0  2  0  0  3  0  0  0  0  0  0
  194.4320  177.5400  146.7080 O   0  0  0  0  0  0  0  0  0  0  0  0
  193.2810  175.9920  143.7890 O   0  0  0  0  0  0  0  0  0  0  0  0
  195.9490  174.4880  141.9620 N   0  0  0  0  0  0  0  0  0  0  0  0
  195.0590  173.7370  143.9890 O   0  0  0  0  0  0  0  0  0  0  0  0
  197.9410  175.5790  139.3290 O   0  0  0  0  0  0  0  0  0  0  0  0
  195.1700  175.9920  140.2890 N   0  0  0  0  0  1  0  0  0  0  0  0
  196.3220  175.5770  141.0730 C   0  0  2  0  0  3  0  0  0  0  0  0
  197.5690  173.5230  140.4840 C   0  0  0  0  0  3  0  0  0  0  0  0
  196.6480  173.2410  141.6680 C   0  0  0  0  0  3  0  0  0  0  0  0
  197.3320  174.9590  140.1870 C   0  0  0  0  0  0  0  0  0  0  0  0
  195.2200  174.6930  143.1830 C   0  0  0  0  0  0  0  0  0  0  0  0
  1  5  1  0  0  0  0
  2  8  2  0  0  0  0
  2  9  1  0  0  0  0
  3  6  2  0  0  0  0
  4 13  1  0  0  0  0
  4  1  2  0  0  0  0
  5  8  1  0  0  0  0
  6 14  1  0  0  0  0
  7 12  2  0  0  0  0
  8 10  1  0  0  0  0
  9 11  1  0  0  0  0
  9 15  2  0  0  0  0
 10 15  1  0  0  0  0
 11 14  2  0  0  0  0
 12  3  1  0  0  0  0
 12 11  1  0  0  0  0
 13 16  2  0  0  0  0
 16  7  1  0  0  0  0
 16  2  1  0  0  0  0
 17 19  1  0  0  0  0
 18 19  1  0  0  0  0
 18  3  1  0  0  0  0
 19 21  2  0  0  0  0
 20 31  1  1  0  0  0
 20 22  1  0  0  0  0
 20 17  1  0  0  0  0
 22 18  1  0  0  0  0
 23 31  1  0  0  0  0
 25 30  2  0  0  0  0
 27 26  1  6  0  0  0
 27 23  1  0  0  0  0
 28 29  2  0  0  0  0
 29 23  1  0  0  0  0
 30 28  1  0  0  0  0
 30 27  1  0  0  0  0
 31 24  2  0  0  0  0
M  END
>  <MODEL>
8

>  <REMARK>
 VINA RESULT:      -8.1      2.408      4.342
  Name = 
  2 active torsions:
  status: ('A' for Active; 'I' for Inactive)
    1  A    between atoms: C_6  and  N_9
    2  A    between atoms: C_26  and  C_29
                            x       y       z     vdW  Elec       q    Type
                         _______ _______ _______ _____ _____    ______ ____

>  <TORSDO>
F 2

$$$$
=
 OpenBabel11042417163D

 31 36  0  0  1  0  0  0  0  0999 V2000
  197.1920  172.5500  145.9080 C   0  0  0  0  0  3  0  0  0  0  0  0
  194.2180  172.4150  145.1130 C   0  0  0  0  0  0  0  0  0  0  0  0
  190.6740  174.4840  144.4410 C   0  0  0  0  0  0  0  0  0  0  0  0
  196.8160  173.8290  145.8140 C   0  0  0  0  0  3  0  0  0  0  0  0
  196.3140  171.3540  146.1180 C   0  0  0  0  0  2  0  0  0  0  0  0
  189.9010  173.4820  144.0170 C   0  0  0  0  0  3  0  0  0  0  0  0
  193.1530  174.5790  145.2170 C   0  0  0  0  0  3  0  0  0  0  0  0
  195.0530  171.3490  145.3280 C   0  0  0  0  0  0  0  0  0  0  0  0
  193.0730  171.8420  144.6170 C   0  0  0  0  0  0  0  0  0  0  0  0
  194.4290  170.2540  144.9290 O   0  0  0  0  0  0  0  0  0  0  0  0
  191.9430  172.6180  144.4090 C   0  0  0  0  0  0  0  0  0  0  0  0
  191.9960  173.9620  144.7010 C   0  0  0  0  0  0  0  0  0  0  0  0
  195.4540  174.4030  145.7510 C   0  0  0  0  0  3  0  0  0  0  0  0
  190.7300  172.2560  144.0050 C   0  0  0  0  0  3  0  0  0  0  0  0
  193.2230  170.5120  144.4870 N   0  0  0  0  0  0  0  0  0  0  0  0
  194.3140  173.7900  145.4090 C   0  0  0  0  0  0  0  0  0  0  0  0
  189.8910  178.0070  143.6700 C   0  0  0  0  0  2  0  0  0  0  0  0
  190.2810  175.8560  144.5340 N   0  0  0  0  0  0  0  0  0  0  0  0
  190.7770  176.8590  143.6790 C   0  0  0  0  0  0  0  0  0  0  0  0
  188.8480  177.5410  144.6940 C   0  0  2  0  0  3  0  0  0  0  0  0
  191.8260  176.7490  142.9910 O   0  0  0  0  0  0  0  0  0  0  0  0
  189.1260  176.2170  145.1500 O   0  0  0  0  0  0  0  0  0  0  0  0
  186.3270  177.7500  145.0110 N   0  0  0  0  0  0  0  0  0  0  0  0
  187.2910  177.6380  142.8830 O   0  0  0  0  0  0  0  0  0  0  0  0
  184.8220  178.6650  148.0080 O   0  0  0  0  0  0  0  0  0  0  0  0
  186.7810  176.6500  147.0740 N   0  0  0  0  0  1  0  0  0  0  0  0
  186.4600  177.9230  146.4490 C   0  0  2  0  0  3  0  0  0  0  0  0
  184.1450  178.4220  145.7330 C   0  0  0  0  0  3  0  0  0  0  0  0
  184.9820  178.0270  144.5200 C   0  0  0  0  0  3  0  0  0  0  0  0
  185.1070  178.3540  146.8630 C   0  0  0  0  0  0  0  0  0  0  0  0
  187.4590  177.6310  144.1330 C   0  0  0  0  0  0  0  0  0  0  0  0
  1  5  1  0  0  0  0
  2  8  2  0  0  0  0
  2 16  1  0  0  0  0
  3 18  1  0  0  0  0
  3 12  1  0  0  0  0
  4  1  2  0  0  0  0
  6  3  2  0  0  0  0
  7 16  1  0  0  0  0
  8  5  1  0  0  0  0
  9  2  1  0  0  0  0
 10  8  1  0  0  0  0
 11  9  1  0  0  0  0
 11 12  1  0  0  0  0
 12  7  2  0  0  0  0
 13  4  1  0  0  0  0
 14  6  1  0  0  0  0
 14 11  2  0  0  0  0
 15  9  2  0  0  0  0
 15 10  1  0  0  0  0
 16 13  2  0  0  0  0
 17 19  1  0  0  0  0
 17 20  1  0  0  0  0
 18 22  1  0  0  0  0
 19 18  1  0  0  0  0
 20 31  1  6  0  0  0
 20 22  1  0  0  0  0
 21 19  2  0  0  0  0
 23 27  1  0  0  0  0
 24 31  2  0  0  0  0
 27 30  1  0  0  0  0
 27 26  1  1  0  0  0
 28 30  1  0  0  0  0
 29 23  1  0  0  0  0
 29 28  2  0  0  0  0
 30 25  2  0  0  0  0
 31 23  1  0  0  0  0
M  END
>  <MODEL>
9

>  <REMARK>
 VINA RESULT:      -8.1      2.946      9.189
  Name = 
  2 active torsions:
  status: ('A' for Active; 'I' for Inactive)
    1  A    between atoms: C_6  and  N_9
    2  A    between atoms: C_26  and  C_29
                            x       y       z     vdW  Elec       q    Type
                         _______ _______ _______ _____ _____    ______ ____

>  <TORSDO>
F 2

$$$$
