=
 OpenBabel11042414443D

 36 40  0  0  1  0  0  0  0  0999 V2000
  191.9210  172.5040  144.6260 C   0  0  0  0  0  2  0  0  0  0  0  0
  188.8630  175.8490  141.1690 N   0  0  0  0  0  0  0  0  0  0  0  0
  187.9280  176.8020  141.6310 C   0  0  0  0  0  0  0  0  0  0  0  0
  193.0660  173.4150  144.1570 C   0  0  1  0  0  0  0  0  0  0  0  0
  186.1240  178.3240  141.5640 N   0  0  0  0  0  0  0  0  0  0  0  0
  189.3470  172.3330  145.1590 O   0  0  0  0  0  0  0  0  0  0  0  0
  186.8350  177.3330  140.9550 C   0  0  0  0  0  0  0  0  0  0  0  0
  186.4500  176.8510  139.6000 C   0  0  0  0  0  1  0  0  0  0  0  0
  189.7540  175.7350  142.1080 C   0  0  0  0  0  0  0  0  0  0  0  0
  188.2650  177.2800  142.8570 C   0  0  0  0  0  0  0  0  0  0  0  0
  192.1630  175.1390  142.5950 C   0  0  0  0  0  0  0  0  0  0  0  0
  192.4470  176.2510  143.1150 O   0  0  0  0  0  0  0  0  0  0  0  0
  187.5610  178.2780  143.4490 N   0  0  0  0  0  0  0  0  0  0  0  0
  190.9330  174.9530  141.8940 N   0  0  0  0  0  2  0  0  0  0  0  0
  186.4800  178.7970  142.7980 C   0  0  0  0  0  3  0  0  0  0  0  0
  189.4770  176.5670  143.3590 C   0  0  1  0  0  3  0  0  0  0  0  0
  190.2800  173.2030  144.3260 S   0  0  1  0  0  0  0  0  0  0  0  0
  189.0960  175.6950  144.5860 C   0  0  1  0  0  3  0  0  0  0  0  0
  193.7470  174.2440  145.2240 C   0  0  0  0  0  2  0  0  0  0  0  0
  194.4600  173.0290  144.6460 C   0  0  1  0  0  3  0  0  0  0  0  0
  193.1000  173.9860  142.7410 C   0  0  0  0  0  2  0  0  0  0  0  0
  190.2710  174.8380  145.1190 C   0  0  1  0  0  3  0  0  0  0  0  0
  188.2780  178.0790  147.2180 C   0  0  0  0  0  3  0  0  0  0  0  0
  189.1300  177.5200  146.2820 C   0  0  0  0  0  3  0  0  0  0  0  0
  188.4950  176.5220  145.6370 N   0  0  0  0  0  0  0  0  0  0  0  0
  187.2460  176.4090  146.1250 C   0  0  0  0  0  3  0  0  0  0  0  0
  187.0970  177.3710  147.0980 C   0  0  0  0  0  0  0  0  0  0  0  0
  185.8810  177.5690  147.9370 C   0  0  0  0  0  2  0  0  0  0  0  0
  184.0590  177.5210  146.3920 O   0  0  0  0  0  1  0  0  0  0  0  0
  184.8310  178.3720  147.1840 C   0  0  2  0  0  3  0  0  0  0  0  0
  185.5180  179.3900  146.3000 C   0  0  0  0  0  1  0  0  0  0  0  0
  190.3420  174.7090  146.6160 C   0  0  0  0  0  0  0  0  0  0  0  0
  191.4100  175.1470  147.2640 C   0  0  0  0  0  2  0  0  0  0  0  0
  189.2870  174.1580  147.3330 O   0  0  0  0  0  1  0  0  0  0  0  0
  194.4170  171.9870  145.5760 O   0  0  0  0  0  0  0  0  0  0  0  0
  195.7520  171.6320  145.7670 C   0  0  0  0  0  1  0  0  0  0  0  0
  2  3  1  0  0  0  0
  2  9  2  0  0  0  0
  3 10  1  0  0  0  0
  4 21  1  6  0  0  0
  4  1  1  0  0  0  0
  4 20  1  0  0  0  0
  4 19  1  0  0  0  0
  5 15  2  0  0  0  0
  7  5  1  0  0  0  0
  7  3  2  0  0  0  0
  8  7  1  0  0  0  0
 10 16  1  0  0  0  0
 10 13  2  0  0  0  0
 11 21  1  0  0  0  0
 11 12  2  0  0  0  0
 14  9  1  0  0  0  0
 14 11  1  0  0  0  0
 15 13  1  0  0  0  0
 16  9  1  6  0  0  0
 16 18  1  0  0  0  0
 17  1  1  0  0  0  0
 17 22  1  0  0  0  0
 17  6  2  1  0  0  0
 18 22  1  0  0  0  0
 18 25  1  1  0  0  0
 20 19  1  0  0  0  0
 20 35  1  1  0  0  0
 22 32  1  1  0  0  0
 24 23  2  0  0  0  0
 25 26  1  0  0  0  0
 25 24  1  0  0  0  0
 26 27  2  0  0  0  0
 27 23  1  0  0  0  0
 27 28  1  0  0  0  0
 29 30  1  0  0  0  0
 30 31  1  6  0  0  0
 30 28  1  0  0  0  0
 32 33  2  0  0  0  0
 32 34  1  0  0  0  0
 35 36  1  0  0  0  0
M  END
>  <MODEL>
1

>  <REMARK>
 VINA RESULT:      -7.4      0.000      0.000
  Name = 
  5 active torsions:
  status: ('A' for Active; 'I' for Inactive)
    1  A    between atoms: C_1  and  C_30
    2  A    between atoms: C_1  and  C_36
    3  A    between atoms: N_10  and  C_25
    4  A    between atoms: C_18  and  C_33
    5  A    between atoms: O_27  and  C_28
                            x       y       z     vdW  Elec       q    Type
                         _______ _______ _______ _____ _____    ______ ____

>  <TORSDO>
F 5

$$$$
=
 OpenBabel11042414443D

 36 40  0  0  1  0  0  0  0  0999 V2000
  188.7240  175.4710  145.6930 C   0  0  0  0  0  2  0  0  0  0  0  0
  194.0640  176.2170  143.8450 N   0  0  0  0  0  0  0  0  0  0  0  0
  194.6130  175.5260  142.7420 C   0  0  0  0  0  0  0  0  0  0  0  0
  188.5410  176.8770  145.1000 C   0  0  1  0  0  0  0  0  0  0  0  0
  196.2580  174.6660  141.2830 N   0  0  0  0  0  0  0  0  0  0  0  0
  190.0030  173.1760  145.5090 O   0  0  0  0  0  0  0  0  0  0  0  0
  195.9510  175.2640  142.4690 C   0  0  0  0  0  0  0  0  0  0  0  0
  197.0270  175.6340  143.4290 C   0  0  0  0  0  1  0  0  0  0  0  0
  192.7870  176.2960  143.6220 C   0  0  0  0  0  0  0  0  0  0  0  0
  193.6570  175.1960  141.8340 C   0  0  0  0  0  0  0  0  0  0  0  0
  190.6950  177.6360  144.0950 C   0  0  0  0  0  0  0  0  0  0  0  0
  190.4410  177.8720  142.8840 O   0  0  0  0  0  0  0  0  0  0  0  0
  193.9740  174.6140  140.6490 N   0  0  0  0  0  0  0  0  0  0  0  0
  191.9490  177.0730  144.4820 N   0  0  0  0  0  2  0  0  0  0  0  0
  195.2830  174.3430  140.3780 C   0  0  0  0  0  3  0  0  0  0  0  0
  192.3140  175.5950  142.3490 C   0  0  1  0  0  3  0  0  0  0  0  0
  190.2050  174.6260  145.0890 S   0  0  1  0  0  0  0  0  0  0  0  0
  191.4710  174.3240  142.6420 C   0  0  1  0  0  3  0  0  0  0  0  0
  187.5650  177.0020  143.9510 C   0  0  0  0  0  2  0  0  0  0  0  0
  187.1750  177.5180  145.3300 C   0  0  1  0  0  3  0  0  0  0  0  0
  189.6650  177.9100  145.1410 C   0  0  0  0  0  2  0  0  0  0  0  0
  190.0920  174.6350  143.2750 C   0  0  1  0  0  3  0  0  0  0  0  0
  191.5120  171.7480  140.0650 C   0  0  0  0  0  3  0  0  0  0  0  0
  191.7610  172.2190  141.3430 C   0  0  0  0  0  3  0  0  0  0  0  0
  191.3520  173.4980  141.4370 N   0  0  0  0  0  0  0  0  0  0  0  0
  190.8390  173.8830  140.2530 C   0  0  0  0  0  3  0  0  0  0  0  0
  190.9260  172.8080  139.3990 C   0  0  0  0  0  0  0  0  0  0  0  0
  190.5200  172.8090  137.9650 C   0  0  0  0  0  2  0  0  0  0  0  0
  188.1640  173.1910  138.0890 O   0  0  0  0  0  1  0  0  0  0  0  0
  189.3750  173.7830  137.7300 C   0  0  2  0  0  3  0  0  0  0  0  0
  189.3310  174.1600  136.2640 C   0  0  0  0  0  1  0  0  0  0  0  0
  188.9600  173.7640  142.8030 C   0  0  0  0  0  0  0  0  0  0  0  0
  187.9890  174.2880  142.0710 C   0  0  0  0  0  2  0  0  0  0  0  0
  188.9330  172.4080  143.1030 O   0  0  0  0  0  1  0  0  0  0  0  0
  186.2710  176.6260  145.9140 O   0  0  0  0  0  0  0  0  0  0  0  0
  185.1330  177.3930  146.1630 C   0  0  0  0  0  1  0  0  0  0  0  0
  3  2  1  0  0  0  0
  4 19  1  6  0  0  0
  4 21  1  0  0  0  0
  4 20  1  0  0  0  0
  4  1  1  0  0  0  0
  5  7  2  0  0  0  0
  7  3  1  0  0  0  0
  7  8  1  0  0  0  0
  9  2  2  0  0  0  0
  9 14  1  0  0  0  0
 10  3  2  0  0  0  0
 11 14  1  0  0  0  0
 11 21  1  0  0  0  0
 12 11  2  0  0  0  0
 13 10  1  0  0  0  0
 15 13  2  0  0  0  0
 15  5  1  0  0  0  0
 16 10  1  6  0  0  0
 16 18  1  0  0  0  0
 16  9  1  0  0  0  0
 17  6  2  1  0  0  0
 17  1  1  0  0  0  0
 18 25  1  6  0  0  0
 18 22  1  0  0  0  0
 19 20  1  0  0  0  0
 20 35  1  1  0  0  0
 22 32  1  1  0  0  0
 22 17  1  0  0  0  0
 23 24  2  0  0  0  0
 24 25  1  0  0  0  0
 26 25  1  0  0  0  0
 27 23  1  0  0  0  0
 27 26  2  0  0  0  0
 28 27  1  0  0  0  0
 30 31  1  6  0  0  0
 30 28  1  0  0  0  0
 30 29  1  0  0  0  0
 32 34  1  0  0  0  0
 33 32  2  0  0  0  0
 35 36  1  0  0  0  0
M  END
>  <MODEL>
2

>  <REMARK>
 VINA RESULT:      -7.1      3.062      7.586
  Name = 
  5 active torsions:
  status: ('A' for Active; 'I' for Inactive)
    1  A    between atoms: C_1  and  C_30
    2  A    between atoms: C_1  and  C_36
    3  A    between atoms: N_10  and  C_25
    4  A    between atoms: C_18  and  C_33
    5  A    between atoms: O_27  and  C_28
                            x       y       z     vdW  Elec       q    Type
                         _______ _______ _______ _____ _____    ______ ____

>  <TORSDO>
F 5

$$$$
=
 OpenBabel11042414443D

 36 40  0  0  1  0  0  0  0  0999 V2000
  188.7990  175.4860  145.5800 C   0  0  0  0  0  2  0  0  0  0  0  0
  194.1260  176.1600  143.6680 N   0  0  0  0  0  0  0  0  0  0  0  0
  194.6650  175.4330  142.5830 C   0  0  0  0  0  0  0  0  0  0  0  0
  188.6140  176.8730  144.9440 C   0  0  1  0  0  0  0  0  0  0  0  0
  196.2970  174.5220  141.1400 N   0  0  0  0  0  0  0  0  0  0  0  0
  190.0720  173.1830  145.4600 O   0  0  0  0  0  0  0  0  0  0  0  0
  196.0000  175.1600  142.3080 C   0  0  0  0  0  0  0  0  0  0  0  0
  197.0850  175.5570  143.2470 C   0  0  0  0  0  1  0  0  0  0  0  0
  192.8480  176.2350  143.4520 C   0  0  0  0  0  0  0  0  0  0  0  0
  193.7020  175.0760  141.6940 C   0  0  0  0  0  0  0  0  0  0  0  0
  190.7620  177.5940  143.8990 C   0  0  0  0  0  0  0  0  0  0  0  0
  190.4990  177.7920  142.6820 O   0  0  0  0  0  0  0  0  0  0  0  0
  194.0080  174.4550  140.5260 N   0  0  0  0  0  0  0  0  0  0  0  0
  192.0180  177.0410  144.2940 N   0  0  0  0  0  2  0  0  0  0  0  0
  195.3140  174.1730  140.2530 C   0  0  0  0  0  3  0  0  0  0  0  0
  192.3640  175.4950  142.2060 C   0  0  1  0  0  3  0  0  0  0  0  0
  190.2740  174.6190  144.9920 S   0  0  1  0  0  0  0  0  0  0  0  0
  191.5200  174.2360  142.5470 C   0  0  1  0  0  3  0  0  0  0  0  0
  187.6300  176.9630  143.8000 C   0  0  0  0  0  2  0  0  0  0  0  0
  187.2520  177.5230  145.1640 C   0  0  1  0  0  3  0  0  0  0  0  0
  189.7420  177.9040  144.9430 C   0  0  0  0  0  2  0  0  0  0  0  0
  190.1470  174.5700  143.1800 C   0  0  1  0  0  3  0  0  0  0  0  0
  190.8420  172.6790  139.3220 C   0  0  0  0  0  3  0  0  0  0  0  0
  190.8050  173.7380  140.2130 C   0  0  0  0  0  3  0  0  0  0  0  0
  191.3900  173.3720  141.3700 N   0  0  0  0  0  0  0  0  0  0  0  0
  191.8100  172.0970  141.2640 C   0  0  0  0  0  3  0  0  0  0  0  0
  191.4840  171.6600  140.0010 C   0  0  0  0  0  0  0  0  0  0  0  0
  191.7200  170.2860  139.4750 C   0  0  0  0  0  2  0  0  0  0  0  0
  190.3800  168.3390  139.8280 O   0  0  0  0  0  1  0  0  0  0  0  0
  190.4010  169.5820  139.1950 C   0  0  2  0  0  3  0  0  0  0  0  0
  190.2450  169.3840  137.7020 C   0  0  0  0  0  1  0  0  0  0  0  0
  189.0090  173.6870  142.7450 C   0  0  0  0  0  0  0  0  0  0  0  0
  188.0160  174.1980  142.0340 C   0  0  0  0  0  2  0  0  0  0  0  0
  189.0000  172.3340  143.0570 O   0  0  0  0  0  1  0  0  0  0  0  0
  186.3510  176.6540  145.7830 O   0  0  0  0  0  0  0  0  0  0  0  0
  185.1600  177.3750  145.8570 C   0  0  0  0  0  1  0  0  0  0  0  0
  3  2  1  0  0  0  0
  4 19  1  6  0  0  0
  4 20  1  0  0  0  0
  4  1  1  0  0  0  0
  5  7  2  0  0  0  0
  7  3  1  0  0  0  0
  7  8  1  0  0  0  0
  9  2  2  0  0  0  0
  9 14  1  0  0  0  0
 10  3  2  0  0  0  0
 11 14  1  0  0  0  0
 11 21  1  0  0  0  0
 12 11  2  0  0  0  0
 13 10  1  0  0  0  0
 15 13  2  0  0  0  0
 15  5  1  0  0  0  0
 16 10  1  1  0  0  0
 16 18  1  0  0  0  0
 16  9  1  0  0  0  0
 17  6  2  1  0  0  0
 17  1  1  0  0  0  0
 18 25  1  6  0  0  0
 18 22  1  0  0  0  0
 19 20  1  0  0  0  0
 20 35  1  1  0  0  0
 21  4  1  0  0  0  0
 22 32  1  1  0  0  0
 22 17  1  0  0  0  0
 23 27  1  0  0  0  0
 23 24  2  0  0  0  0
 24 25  1  0  0  0  0
 26 25  1  0  0  0  0
 27 26  2  0  0  0  0
 28 27  1  0  0  0  0
 30 31  1  6  0  0  0
 30 28  1  0  0  0  0
 30 29  1  0  0  0  0
 32 34  1  0  0  0  0
 33 32  2  0  0  0  0
 35 36  1  0  0  0  0
M  END
>  <MODEL>
3

>  <REMARK>
 VINA RESULT:      -6.9      3.258      7.919
  Name = 
  5 active torsions:
  status: ('A' for Active; 'I' for Inactive)
    1  A    between atoms: C_1  and  C_30
    2  A    between atoms: C_1  and  C_36
    3  A    between atoms: N_10  and  C_25
    4  A    between atoms: C_18  and  C_33
    5  A    between atoms: O_27  and  C_28
                            x       y       z     vdW  Elec       q    Type
                         _______ _______ _______ _____ _____    ______ ____

>  <TORSDO>
F 5

$$$$
=
 OpenBabel11042414443D

 36 40  0  0  1  0  0  0  0  0999 V2000
  194.3680  176.0190  144.1120 C   0  0  0  0  0  2  0  0  0  0  0  0
  189.0250  177.8920  144.7690 N   0  0  0  0  0  0  0  0  0  0  0  0
  187.9190  177.3630  144.0660 C   0  0  0  0  0  0  0  0  0  0  0  0
  194.1230  175.4510  145.5190 C   0  0  1  0  0  0  0  0  0  0  0  0
  185.7360  177.2350  143.1750 N   0  0  0  0  0  0  0  0  0  0  0  0
  193.2840  176.6540  141.7970 O   0  0  0  0  0  0  0  0  0  0  0  0
  186.7050  177.9770  143.7830 C   0  0  0  0  0  0  0  0  0  0  0  0
  186.4520  179.4010  144.1390 C   0  0  0  0  0  1  0  0  0  0  0  0
  189.8860  176.9240  144.8670 C   0  0  0  0  0  0  0  0  0  0  0  0
  188.1090  176.0560  143.7470 C   0  0  0  0  0  0  0  0  0  0  0  0
  191.8000  176.0060  146.2410 C   0  0  0  0  0  0  0  0  0  0  0  0
  191.2440  174.9000  146.4770 O   0  0  0  0  0  0  0  0  0  0  0  0
  187.1340  175.3190  143.1560 N   0  0  0  0  0  0  0  0  0  0  0  0
  191.0660  177.0840  145.6600 N   0  0  0  0  0  2  0  0  0  0  0  0
  185.9430  175.9180  142.8640 C   0  0  0  0  0  3  0  0  0  0  0  0
  189.4760  175.6290  144.1690 C   0  0  1  0  0  3  0  0  0  0  0  0
  192.8440  176.4600  143.2420 S   0  0  1  0  0  0  0  0  0  0  0  0
  190.3370  175.3260  142.9120 C   0  0  1  0  0  3  0  0  0  0  0  0
  194.1730  173.9460  145.6550 C   0  0  0  0  0  2  0  0  0  0  0  0
  195.3270  174.7870  146.1810 C   0  0  1  0  0  3  0  0  0  0  0  0
  193.2520  176.1880  146.5340 C   0  0  0  0  0  2  0  0  0  0  0  0
  191.8060  174.9680  143.2470 C   0  0  1  0  0  3  0  0  0  0  0  0
  188.8110  172.3510  141.4650 C   0  0  0  0  0  3  0  0  0  0  0  0
  189.3950  173.0570  142.5020 C   0  0  0  0  0  3  0  0  0  0  0  0
  189.6940  174.3020  142.0840 N   0  0  0  0  0  0  0  0  0  0  0  0
  189.3220  174.4330  140.7970 C   0  0  0  0  0  3  0  0  0  0  0  0
  188.7680  173.2370  140.4050 C   0  0  0  0  0  0  0  0  0  0  0  0
  188.2680  172.9230  139.0360 C   0  0  0  0  0  2  0  0  0  0  0  0
  187.7440  174.7760  137.6220 O   0  0  0  0  0  1  0  0  0  0  0  0
  188.7840  173.9400  138.0290 C   0  0  2  0  0  3  0  0  0  0  0  0
  189.3410  173.2130  136.8230 C   0  0  0  0  0  1  0  0  0  0  0  0
  192.4130  173.8890  142.3920 C   0  0  0  0  0  0  0  0  0  0  0  0
  192.7250  172.7210  142.9310 C   0  0  0  0  0  2  0  0  0  0  0  0
  192.6260  174.0930  141.0350 O   0  0  0  0  0  1  0  0  0  0  0  0
  196.4110  174.6780  145.3060 O   0  0  0  0  0  0  0  0  0  0  0  0
  197.1700  173.6250  145.8160 C   0  0  0  0  0  1  0  0  0  0  0  0
  2  9  2  0  0  0  0
  3  2  1  0  0  0  0
  4  1  1  6  0  0  0
  4 19  1  0  0  0  0
  4 20  1  0  0  0  0
  4 21  1  0  0  0  0
  5  7  2  0  0  0  0
  7  3  1  0  0  0  0
  7  8  1  0  0  0  0
  9 14  1  0  0  0  0
 10  3  2  0  0  0  0
 11 12  2  0  0  0  0
 11 21  1  0  0  0  0
 13 10  1  0  0  0  0
 14 11  1  0  0  0  0
 15 13  2  0  0  0  0
 15  5  1  0  0  0  0
 16 10  1  6  0  0  0
 16  9  1  0  0  0  0
 17  6  2  6  0  0  0
 17 22  1  0  0  0  0
 17  1  1  0  0  0  0
 18 25  1  1  0  0  0
 18 22  1  0  0  0  0
 18 16  1  0  0  0  0
 19 20  1  0  0  0  0
 20 35  1  6  0  0  0
 22 32  1  6  0  0  0
 23 24  2  0  0  0  0
 25 24  1  0  0  0  0
 26 25  1  0  0  0  0
 27 26  2  0  0  0  0
 27 23  1  0  0  0  0
 28 27  1  0  0  0  0
 29 30  1  0  0  0  0
 30 31  1  6  0  0  0
 30 28  1  0  0  0  0
 32 33  2  0  0  0  0
 34 32  1  0  0  0  0
 35 36  1  0  0  0  0
M  END
>  <MODEL>
4

>  <REMARK>
 VINA RESULT:      -6.8      2.719      5.454
  Name = 
  5 active torsions:
  status: ('A' for Active; 'I' for Inactive)
    1  A    between atoms: C_1  and  C_30
    2  A    between atoms: C_1  and  C_36
    3  A    between atoms: N_10  and  C_25
    4  A    between atoms: C_18  and  C_33
    5  A    between atoms: O_27  and  C_28
                            x       y       z     vdW  Elec       q    Type
                         _______ _______ _______ _____ _____    ______ ____

>  <TORSDO>
F 5

$$$$
=
 OpenBabel11042414443D

 36 40  0  0  1  0  0  0  0  0999 V2000
  189.1130  172.4850  141.3240 C   0  0  0  0  0  2  0  0  0  0  0  0
  186.2060  176.3790  144.3030 N   0  0  0  0  0  0  0  0  0  0  0  0
  186.6750  176.9510  145.5070 C   0  0  0  0  0  0  0  0  0  0  0  0
  189.2880  173.6600  140.3490 C   0  0  1  0  0  0  0  0  0  0  0  0
  186.6080  178.1140  147.5610 N   0  0  0  0  0  0  0  0  0  0  0  0
  188.8450  171.7600  143.8420 O   0  0  0  0  0  0  0  0  0  0  0  0
  185.9330  177.5280  146.5320 C   0  0  0  0  0  0  0  0  0  0  0  0
  184.4440  177.5230  146.5120 C   0  0  0  0  0  1  0  0  0  0  0  0
  187.2640  176.0610  143.6190 C   0  0  0  0  0  0  0  0  0  0  0  0
  188.0320  176.9930  145.5450 C   0  0  0  0  0  0  0  0  0  0  0  0
  188.1710  175.6840  141.2890 C   0  0  0  0  0  0  0  0  0  0  0  0
  189.0740  176.5600  141.3810 O   0  0  0  0  0  0  0  0  0  0  0  0
  188.6960  177.5920  146.5660 N   0  0  0  0  0  0  0  0  0  0  0  0
  187.1410  175.5910  142.2740 N   0  0  0  0  0  2  0  0  0  0  0  0
  187.9760  178.1500  147.5820 C   0  0  0  0  0  3  0  0  0  0  0  0
  188.5900  176.3290  144.3300 C   0  0  1  0  0  3  0  0  0  0  0  0
  188.6170  172.9990  142.9860 S   0  0  1  0  0  0  0  0  0  0  0  0
  189.3250  175.0240  144.7410 C   0  0  1  0  0  3  0  0  0  0  0  0
  190.7040  174.1330  140.1100 C   0  0  0  0  0  2  0  0  0  0  0  0
  189.9870  173.3300  139.0340 C   0  0  1  0  0  3  0  0  0  0  0  0
  188.1910  174.7080  140.1610 C   0  0  0  0  0  2  0  0  0  0  0  0
  189.8550  174.2120  143.5330 C   0  0  1  0  0  3  0  0  0  0  0  0
  191.5020  175.3720  147.6420 C   0  0  0  0  0  3  0  0  0  0  0  0
  190.3630  174.9150  147.0030 C   0  0  0  0  0  3  0  0  0  0  0  0
  190.3790  175.3140  145.7170 N   0  0  0  0  0  0  0  0  0  0  0  0
  191.5010  176.0250  145.4930 C   0  0  0  0  0  3  0  0  0  0  0  0
  192.2070  176.0610  146.6730 C   0  0  0  0  0  0  0  0  0  0  0  0
  193.4890  176.7880  146.8910 C   0  0  0  0  0  2  0  0  0  0  0  0
  195.3170  175.5930  145.9210 O   0  0  0  0  0  1  0  0  0  0  0  0
  194.4100  176.6280  145.6910 C   0  0  2  0  0  3  0  0  0  0  0  0
  195.1700  177.9170  145.4660 C   0  0  0  0  0  1  0  0  0  0  0  0
  191.1940  173.5570  143.7400 C   0  0  0  0  0  0  0  0  0  0  0  0
  192.2390  173.9610  143.0350 C   0  0  0  0  0  2  0  0  0  0  0  0
  191.3540  172.5500  144.6830 O   0  0  0  0  0  1  0  0  0  0  0  0
  190.4890  172.0250  139.0220 O   0  0  0  0  0  0  0  0  0  0  0  0
  191.1700  171.9220  137.8100 C   0  0  0  0  0  1  0  0  0  0  0  0
  1 17  1  0  0  0  0
  2  3  1  0  0  0  0
  3 10  2  0  0  0  0
  3  7  1  0  0  0  0
  4 19  1  1  0  0  0
  4  1  1  0  0  0  0
  5 15  1  0  0  0  0
  7  5  2  0  0  0  0
  8  7  1  0  0  0  0
  9  2  2  0  0  0  0
 10 13  1  0  0  0  0
 11 12  2  0  0  0  0
 11 14  1  0  0  0  0
 13 15  2  0  0  0  0
 14  9  1  0  0  0  0
 16  9  1  6  0  0  0
 16 18  1  0  0  0  0
 16 10  1  0  0  0  0
 17 22  1  0  0  0  0
 17  6  2  1  0  0  0
 18 25  1  1  0  0  0
 20 35  1  1  0  0  0
 20 19  1  0  0  0  0
 20  4  1  0  0  0  0
 21  4  1  0  0  0  0
 21 11  1  0  0  0  0
 22 32  1  1  0  0  0
 22 18  1  0  0  0  0
 24 23  2  0  0  0  0
 25 24  1  0  0  0  0
 26 25  1  0  0  0  0
 26 27  2  0  0  0  0
 27 28  1  0  0  0  0
 27 23  1  0  0  0  0
 30 31  1  1  0  0  0
 30 29  1  0  0  0  0
 30 28  1  0  0  0  0
 32 34  1  0  0  0  0
 33 32  2  0  0  0  0
 36 35  1  0  0  0  0
M  END
>  <MODEL>
5

>  <REMARK>
 VINA RESULT:      -6.8      2.572      5.481
  Name = 
  5 active torsions:
  status: ('A' for Active; 'I' for Inactive)
    1  A    between atoms: C_1  and  C_30
    2  A    between atoms: C_1  and  C_36
    3  A    between atoms: N_10  and  C_25
    4  A    between atoms: C_18  and  C_33
    5  A    between atoms: O_27  and  C_28
                            x       y       z     vdW  Elec       q    Type
                         _______ _______ _______ _____ _____    ______ ____

>  <TORSDO>
F 5

$$$$
=
 OpenBabel11042414443D

 36 40  0  0  1  0  0  0  0  0999 V2000
  189.8530  177.2500  144.8020 C   0  0  0  0  0  2  0  0  0  0  0  0
  191.8870  174.1630  140.4640 N   0  0  0  0  0  0  0  0  0  0  0  0
  193.2040  173.6530  140.4170 C   0  0  0  0  0  0  0  0  0  0  0  0
  189.0490  175.9680  145.0690 C   0  0  1  0  0  0  0  0  0  0  0  0
  195.1740  172.7310  139.4980 N   0  0  0  0  0  0  0  0  0  0  0  0
  192.1030  178.2610  143.8790 O   0  0  0  0  0  0  0  0  0  0  0  0
  193.9520  173.3030  139.2990 C   0  0  0  0  0  0  0  0  0  0  0  0
  193.4410  173.5290  137.9190 C   0  0  0  0  0  1  0  0  0  0  0  0
  191.5770  174.2460  141.7220 C   0  0  0  0  0  0  0  0  0  0  0  0
  193.6910  173.4130  141.6620 C   0  0  0  0  0  0  0  0  0  0  0  0
  189.6630  174.2410  143.3750 C   0  0  0  0  0  0  0  0  0  0  0  0
  190.0900  173.2550  144.0330 O   0  0  0  0  0  0  0  0  0  0  0  0
  194.9010  172.8290  141.8520 N   0  0  0  0  0  0  0  0  0  0  0  0
  190.2460  174.5890  142.1180 N   0  0  0  0  0  2  0  0  0  0  0  0
  195.6480  172.4930  140.7600 C   0  0  0  0  0  3  0  0  0  0  0  0
  192.6980  173.8570  142.6850 C   0  0  1  0  0  3  0  0  0  0  0  0
  191.2800  176.9890  143.7210 S   0  0  1  0  0  0  0  0  0  0  0  0
  193.2650  175.0720  143.4680 C   0  0  1  0  0  3  0  0  0  0  0  0
  189.3140  175.2660  146.3820 C   0  0  0  0  0  2  0  0  0  0  0  0
  188.0240  176.0530  146.1960 C   0  0  1  0  0  3  0  0  0  0  0  0
  188.5590  175.0830  143.9230 C   0  0  0  0  0  2  0  0  0  0  0  0
  192.2640  175.6670  144.4880 C   0  0  1  0  0  3  0  0  0  0  0  0
  196.7130  174.8020  144.6170 C   0  0  0  0  0  3  0  0  0  0  0  0
  195.6980  175.4020  143.8930 C   0  0  0  0  0  3  0  0  0  0  0  0
  194.5480  174.7290  144.0890 N   0  0  0  0  0  0  0  0  0  0  0  0
  194.7800  173.6990  144.9240 C   0  0  0  0  0  3  0  0  0  0  0  0
  196.1130  173.7380  145.2640 C   0  0  0  0  0  0  0  0  0  0  0  0
  196.8120  172.7480  146.1310 C   0  0  0  0  0  2  0  0  0  0  0  0
  196.8170  170.3940  146.5370 O   0  0  0  0  0  1  0  0  0  0  0  0
  196.7360  171.3540  145.5280 C   0  0  2  0  0  3  0  0  0  0  0  0
  197.8860  171.1610  144.5630 C   0  0  0  0  0  1  0  0  0  0  0  0
  192.8700  176.1320  145.7840 C   0  0  0  0  0  0  0  0  0  0  0  0
  192.5460  175.5260  146.9160 C   0  0  0  0  0  2  0  0  0  0  0  0
  193.7880  177.1740  145.8060 O   0  0  0  0  0  1  0  0  0  0  0  0
  188.1170  177.2590  146.8960 O   0  0  0  0  0  0  0  0  0  0  0  0
  186.7990  177.5790  147.2200 C   0  0  0  0  0  1  0  0  0  0  0  0
  1  4  1  0  0  0  0
  2  9  2  0  0  0  0
  3  2  1  0  0  0  0
  3 10  1  0  0  0  0
  4 21  1  6  0  0  0
  4 20  1  0  0  0  0
  4 19  1  0  0  0  0
  5 15  2  0  0  0  0
  7  5  1  0  0  0  0
  7  3  2  0  0  0  0
  8  7  1  0  0  0  0
  9 14  1  0  0  0  0
  9 16  1  0  0  0  0
 10 13  2  0  0  0  0
 11 21  1  0  0  0  0
 11 12  2  0  0  0  0
 14 11  1  0  0  0  0
 15 13  1  0  0  0  0
 16 10  1  6  0  0  0
 16 18  1  0  0  0  0
 17  6  2  1  0  0  0
 17 22  1  0  0  0  0
 17  1  1  0  0  0  0
 18 25  1  1  0  0  0
 18 22  1  0  0  0  0
 20 19  1  0  0  0  0
 20 35  1  1  0  0  0
 22 32  1  1  0  0  0
 23 27  1  0  0  0  0
 24 25  1  0  0  0  0
 24 23  2  0  0  0  0
 25 26  1  0  0  0  0
 26 27  2  0  0  0  0
 27 28  1  0  0  0  0
 30 31  1  6  0  0  0
 30 28  1  0  0  0  0
 30 29  1  0  0  0  0
 32 34  1  0  0  0  0
 32 33  2  0  0  0  0
 35 36  1  0  0  0  0
M  END
>  <MODEL>
6

>  <REMARK>
 VINA RESULT:      -6.7      2.678      7.809
  Name = 
  5 active torsions:
  status: ('A' for Active; 'I' for Inactive)
    1  A    between atoms: C_1  and  C_30
    2  A    between atoms: C_1  and  C_36
    3  A    between atoms: N_10  and  C_25
    4  A    between atoms: C_18  and  C_33
    5  A    between atoms: O_27  and  C_28
                            x       y       z     vdW  Elec       q    Type
                         _______ _______ _______ _____ _____    ______ ____

>  <TORSDO>
F 5

$$$$
=
 OpenBabel11042414443D

 36 40  0  0  1  0  0  0  0  0999 V2000
  191.0110  171.5960  139.8850 C   0  0  0  0  0  2  0  0  0  0  0  0
  194.9380  174.6060  142.7140 N   0  0  0  0  0  0  0  0  0  0  0  0
  194.6360  175.4570  143.8010 C   0  0  0  0  0  0  0  0  0  0  0  0
  191.6870  170.4210  140.6080 C   0  0  1  0  0  0  0  0  0  0  0  0
  194.9330  177.1650  145.4050 N   0  0  0  0  0  0  0  0  0  0  0  0
  190.3630  174.1460  140.0000 O   0  0  0  0  0  0  0  0  0  0  0  0
  195.3630  176.5470  144.2690 C   0  0  0  0  0  0  0  0  0  0  0  0
  196.5840  177.0260  143.5650 C   0  0  0  0  0  1  0  0  0  0  0  0
  194.0280  173.6790  142.7200 C   0  0  0  0  0  0  0  0  0  0  0  0
  193.5390  175.0310  144.4800 C   0  0  0  0  0  0  0  0  0  0  0  0
  193.5200  171.2910  142.0600 C   0  0  0  0  0  0  0  0  0  0  0  0
  193.2370  170.9130  143.2290 O   0  0  0  0  0  0  0  0  0  0  0  0
  193.1270  175.6430  145.6190 N   0  0  0  0  0  0  0  0  0  0  0  0
  194.1280  172.5630  141.8310 N   0  0  0  0  0  2  0  0  0  0  0  0
  193.8270  176.7200  146.0790 C   0  0  0  0  0  3  0  0  0  0  0  0
  192.9530  173.8430  143.7920 C   0  0  1  0  0  3  0  0  0  0  0  0
  191.3820  173.2040  140.6270 S   0  0  1  0  0  0  0  0  0  0  0  0
  191.5660  174.2170  143.2000 C   0  0  1  0  0  3  0  0  0  0  0  0
  190.8270  169.6400  141.5750 C   0  0  0  0  0  2  0  0  0  0  0  0
  191.1840  169.0320  140.2260 C   0  0  1  0  0  3  0  0  0  0  0  0
  193.1880  170.4210  140.8940 C   0  0  0  0  0  2  0  0  0  0  0  0
  190.9200  173.0730  142.3800 C   0  0  1  0  0  3  0  0  0  0  0  0
  189.5030  174.7950  146.1470 C   0  0  0  0  0  3  0  0  0  0  0  0
  190.3840  174.0470  145.3850 C   0  0  0  0  0  3  0  0  0  0  0  0
  190.6750  174.7140  144.2520 N   0  0  0  0  0  0  0  0  0  0  0  0
  190.0080  175.8830  144.2480 C   0  0  0  0  0  3  0  0  0  0  0  0
  189.2860  175.9490  145.4170 C   0  0  0  0  0  0  0  0  0  0  0  0
  188.3610  177.0530  145.8000 C   0  0  0  0  0  2  0  0  0  0  0  0
  186.9820  178.2680  144.2740 O   0  0  0  0  0  1  0  0  0  0  0  0
  187.1170  177.0420  144.9260 C   0  0  2  0  0  3  0  0  0  0  0  0
  185.8980  176.8000  145.7910 C   0  0  0  0  0  1  0  0  0  0  0  0
  189.4300  172.9380  142.5350 C   0  0  0  0  0  0  0  0  0  0  0  0
  188.9300  171.9130  143.2070 C   0  0  0  0  0  2  0  0  0  0  0  0
  188.5700  173.8900  142.0020 O   0  0  0  0  0  1  0  0  0  0  0  0
  190.0690  169.0930  139.3850 O   0  0  0  0  0  0  0  0  0  0  0  0
  190.3850  168.2510  138.3200 C   0  0  0  0  0  1  0  0  0  0  0  0
  1 17  1  0  0  0  0
  2  9  2  0  0  0  0
  2  3  1  0  0  0  0
  3  7  2  0  0  0  0
  3 10  1  0  0  0  0
  4  1  1  6  0  0  0
  4 21  1  0  0  0  0
  4 19  1  0  0  0  0
  5 15  2  0  0  0  0
  7  5  1  0  0  0  0
  8  7  1  0  0  0  0
 10 13  2  0  0  0  0
 11 12  2  0  0  0  0
 13 15  1  0  0  0  0
 14 11  1  0  0  0  0
 14  9  1  0  0  0  0
 16  9  1  6  0  0  0
 16 10  1  0  0  0  0
 17  6  2  6  0  0  0
 17 22  1  0  0  0  0
 18 16  1  0  0  0  0
 18 25  1  1  0  0  0
 20 35  1  6  0  0  0
 20  4  1  0  0  0  0
 20 19  1  0  0  0  0
 21 11  1  0  0  0  0
 22 32  1  6  0  0  0
 22 18  1  0  0  0  0
 24 23  2  0  0  0  0
 25 24  1  0  0  0  0
 26 25  1  0  0  0  0
 26 27  2  0  0  0  0
 27 28  1  0  0  0  0
 27 23  1  0  0  0  0
 29 30  1  0  0  0  0
 30 31  1  1  0  0  0
 30 28  1  0  0  0  0
 32 33  2  0  0  0  0
 34 32  1  0  0  0  0
 36 35  1  0  0  0  0
M  END
>  <MODEL>
7

>  <REMARK>
 VINA RESULT:      -6.6      3.541      5.791
  Name = 
  5 active torsions:
  status: ('A' for Active; 'I' for Inactive)
    1  A    between atoms: C_1  and  C_30
    2  A    between atoms: C_1  and  C_36
    3  A    between atoms: N_10  and  C_25
    4  A    between atoms: C_18  and  C_33
    5  A    between atoms: O_27  and  C_28
                            x       y       z     vdW  Elec       q    Type
                         _______ _______ _______ _____ _____    ______ ____

>  <TORSDO>
F 5

$$$$
=
 OpenBabel11042414443D

 36 40  0  0  1  0  0  0  0  0999 V2000
  188.3230  177.9630  143.6350 C   0  0  0  0  0  2  0  0  0  0  0  0
  189.5990  174.2010  139.5480 N   0  0  0  0  0  0  0  0  0  0  0  0
  190.6550  173.2670  139.6470 C   0  0  0  0  0  0  0  0  0  0  0  0
  187.1010  177.0480  143.8110 C   0  0  1  0  0  0  0  0  0  0  0  0
  192.2670  171.6890  138.9510 N   0  0  0  0  0  0  0  0  0  0  0  0
  190.8670  178.1020  142.9660 O   0  0  0  0  0  0  0  0  0  0  0  0
  191.3480  172.6380  138.6190 C   0  0  0  0  0  0  0  0  0  0  0  0
  191.0920  172.9740  137.1910 C   0  0  0  0  0  1  0  0  0  0  0  0
  189.2090  174.4340  140.7650 C   0  0  0  0  0  0  0  0  0  0  0  0
  190.8970  172.9220  140.9390 C   0  0  0  0  0  0  0  0  0  0  0  0
  187.2510  175.1520  142.1950 C   0  0  0  0  0  0  0  0  0  0  0  0
  187.2390  174.1050  142.8970 O   0  0  0  0  0  0  0  0  0  0  0  0
  191.8030  171.9650  141.2610 N   0  0  0  0  0  0  0  0  0  0  0  0
  188.0460  175.2290  141.0110 N   0  0  0  0  0  2  0  0  0  0  0  0
  192.4960  171.3500  140.2580 C   0  0  0  0  0  3  0  0  0  0  0  0
  190.0190  173.7190  141.8450 C   0  0  1  0  0  3  0  0  0  0  0  0
  189.6750  177.1850  142.7190 S   0  0  1  0  0  0  0  0  0  0  0  0
  190.8880  174.6940  142.6860 C   0  0  1  0  0  3  0  0  0  0  0  0
  186.9700  176.3480  145.1460 C   0  0  0  0  0  2  0  0  0  0  0  0
  186.0590  177.5240  144.8190 C   0  0  1  0  0  3  0  0  0  0  0  0
  186.4570  176.3430  142.6190 C   0  0  0  0  0  2  0  0  0  0  0  0
  190.0550  175.6360  143.5900 C   0  0  1  0  0  3  0  0  0  0  0  0
  192.8120  172.5320  144.9000 C   0  0  0  0  0  3  0  0  0  0  0  0
  191.6280  173.0150  144.3710 C   0  0  0  0  0  3  0  0  0  0  0  0
  191.9000  173.9540  143.4450 N   0  0  0  0  0  0  0  0  0  0  0  0
  193.2350  174.1030  143.3520 C   0  0  0  0  0  3  0  0  0  0  0  0
  193.8100  173.2240  144.2410 C   0  0  0  0  0  0  0  0  0  0  0  0
  195.2710  173.0910  144.5020 C   0  0  0  0  0  2  0  0  0  0  0  0
  196.1010  175.2950  144.9090 O   0  0  0  0  0  1  0  0  0  0  0  0
  195.7270  174.1070  145.5390 C   0  0  2  0  0  3  0  0  0  0  0  0
  196.9130  173.5510  146.2980 C   0  0  0  0  0  1  0  0  0  0  0  0
  190.6470  175.9120  144.9450 C   0  0  0  0  0  0  0  0  0  0  0  0
  190.0500  175.4450  146.0300 C   0  0  0  0  0  2  0  0  0  0  0  0
  191.8280  176.6320  145.0710 O   0  0  0  0  0  1  0  0  0  0  0  0
  186.4910  178.6500  145.5250 O   0  0  0  0  0  0  0  0  0  0  0  0
  185.4810  178.8880  146.4570 C   0  0  0  0  0  1  0  0  0  0  0  0
  1  4  1  0  0  0  0
  2  3  1  0  0  0  0
  2  9  2  0  0  0  0
  3 10  1  0  0  0  0
  4 21  1  6  0  0  0
  4 20  1  0  0  0  0
  4 19  1  0  0  0  0
  5 15  2  0  0  0  0
  7  5  1  0  0  0  0
  7  3  2  0  0  0  0
  8  7  1  0  0  0  0
  9 14  1  0  0  0  0
 10 13  2  0  0  0  0
 10 16  1  0  0  0  0
 11 21  1  0  0  0  0
 11 12  2  0  0  0  0
 14 11  1  0  0  0  0
 15 13  1  0  0  0  0
 16  9  1  6  0  0  0
 16 18  1  0  0  0  0
 17  6  2  1  0  0  0
 17 22  1  0  0  0  0
 17  1  1  0  0  0  0
 18 25  1  1  0  0  0
 18 22  1  0  0  0  0
 20 19  1  0  0  0  0
 20 35  1  1  0  0  0
 22 32  1  1  0  0  0
 24 23  2  0  0  0  0
 25 24  1  0  0  0  0
 26 25  1  0  0  0  0
 26 27  2  0  0  0  0
 27 28  1  0  0  0  0
 27 23  1  0  0  0  0
 28 30  1  0  0  0  0
 29 30  1  0  0  0  0
 30 31  1  6  0  0  0
 32 34  1  0  0  0  0
 32 33  2  0  0  0  0
 35 36  1  0  0  0  0
M  END
>  <MODEL>
8

>  <REMARK>
 VINA RESULT:      -6.5      2.575      7.319
  Name = 
  5 active torsions:
  status: ('A' for Active; 'I' for Inactive)
    1  A    between atoms: C_1  and  C_30
    2  A    between atoms: C_1  and  C_36
    3  A    between atoms: N_10  and  C_25
    4  A    between atoms: C_18  and  C_33
    5  A    between atoms: O_27  and  C_28
                            x       y       z     vdW  Elec       q    Type
                         _______ _______ _______ _____ _____    ______ ____

>  <TORSDO>
F 5

$$$$
=
 OpenBabel11042414443D

 36 40  0  0  1  0  0  0  0  0999 V2000
  188.6720  175.2080  145.7740 C   0  0  0  0  0  2  0  0  0  0  0  0
  194.3630  174.9760  145.5590 N   0  0  0  0  0  0  0  0  0  0  0  0
  195.0810  174.3770  144.5000 C   0  0  0  0  0  0  0  0  0  0  0  0
  188.9270  176.6980  145.4990 C   0  0  1  0  0  0  0  0  0  0  0  0
  196.9040  173.4180  143.3440 N   0  0  0  0  0  0  0  0  0  0  0  0
  189.5170  172.7430  145.3900 O   0  0  0  0  0  0  0  0  0  0  0  0
  196.3710  173.8580  144.5200 C   0  0  0  0  0  0  0  0  0  0  0  0
  197.1620  173.7900  145.7790 C   0  0  0  0  0  1  0  0  0  0  0  0
  193.2450  175.3930  145.0460 C   0  0  0  0  0  0  0  0  0  0  0  0
  194.3950  174.4450  143.3300 C   0  0  0  0  0  0  0  0  0  0  0  0
  191.3810  177.0870  145.2750 C   0  0  0  0  0  0  0  0  0  0  0  0
  191.5440  177.5840  144.1280 O   0  0  0  0  0  0  0  0  0  0  0  0
  194.9380  174.0200  142.1610 N   0  0  0  0  0  0  0  0  0  0  0  0
  192.3430  176.1850  145.8240 N   0  0  0  0  0  2  0  0  0  0  0  0
  196.1990  173.4980  142.1730 C   0  0  0  0  0  3  0  0  0  0  0  0
  193.0540  175.0560  143.5680 C   0  0  1  0  0  3  0  0  0  0  0  0
  190.0900  174.1540  145.3840 S   0  0  1  0  0  0  0  0  0  0  0  0
  191.9480  173.9900  143.3350 C   0  0  1  0  0  3  0  0  0  0  0  0
  188.3740  177.2480  144.2030 C   0  0  0  0  0  2  0  0  0  0  0  0
  187.6920  177.5940  145.5190 C   0  0  1  0  0  3  0  0  0  0  0  0
  190.1550  177.4120  146.0610 C   0  0  0  0  0  2  0  0  0  0  0  0
  190.5220  174.5040  143.6540 C   0  0  1  0  0  3  0  0  0  0  0  0
  192.2640  171.9610  140.3240 C   0  0  0  0  0  3  0  0  0  0  0  0
  192.1910  172.1290  141.6960 C   0  0  0  0  0  3  0  0  0  0  0  0
  192.0450  173.4380  141.9800 N   0  0  0  0  0  0  0  0  0  0  0  0
  192.0210  174.1360  140.8300 C   0  0  0  0  0  3  0  0  0  0  0  0
  192.1480  173.2340  139.7990 C   0  0  0  0  0  0  0  0  0  0  0  0
  192.2220  173.5810  138.3510 C   0  0  0  0  0  2  0  0  0  0  0  0
  194.1310  174.4840  137.2350 O   0  0  0  0  0  1  0  0  0  0  0  0
  193.6170  173.3190  137.8040 C   0  0  2  0  0  3  0  0  0  0  0  0
  193.5470  172.2360  136.7490 C   0  0  0  0  0  1  0  0  0  0  0  0
  189.4440  174.0210  142.7220 C   0  0  0  0  0  0  0  0  0  0  0  0
  188.8900  174.8650  141.8650 C   0  0  0  0  0  2  0  0  0  0  0  0
  189.0400  172.6930  142.7310 O   0  0  0  0  0  1  0  0  0  0  0  0
  186.5110  176.8540  145.6330 O   0  0  0  0  0  0  0  0  0  0  0  0
  185.6680  177.6560  146.4020 C   0  0  0  0  0  1  0  0  0  0  0  0
  3  7  1  0  0  0  0
  3  2  1  0  0  0  0
  4 19  1  6  0  0  0
  4 20  1  0  0  0  0
  4  1  1  0  0  0  0
  4 21  1  0  0  0  0
  5  7  2  0  0  0  0
  7  8  1  0  0  0  0
  9  2  2  0  0  0  0
  9 14  1  0  0  0  0
 10  3  2  0  0  0  0
 11 14  1  0  0  0  0
 11 21  1  0  0  0  0
 12 11  2  0  0  0  0
 13 15  2  0  0  0  0
 13 10  1  0  0  0  0
 15  5  1  0  0  0  0
 16 10  1  1  0  0  0
 16  9  1  0  0  0  0
 17  6  2  6  0  0  0
 17  1  1  0  0  0  0
 18 25  1  6  0  0  0
 18 16  1  0  0  0  0
 18 22  1  0  0  0  0
 19 20  1  0  0  0  0
 20 35  1  6  0  0  0
 22 32  1  6  0  0  0
 22 17  1  0  0  0  0
 23 24  2  0  0  0  0
 24 25  1  0  0  0  0
 26 25  1  0  0  0  0
 27 23  1  0  0  0  0
 27 26  2  0  0  0  0
 28 27  1  0  0  0  0
 29 30  1  0  0  0  0
 30 31  1  6  0  0  0
 30 28  1  0  0  0  0
 32 34  1  0  0  0  0
 33 32  2  0  0  0  0
 35 36  1  0  0  0  0
M  END
>  <MODEL>
9

>  <REMARK>
 VINA RESULT:      -6.4      3.020      8.236
  Name = 
  5 active torsions:
  status: ('A' for Active; 'I' for Inactive)
    1  A    between atoms: C_1  and  C_30
    2  A    between atoms: C_1  and  C_36
    3  A    between atoms: N_10  and  C_25
    4  A    between atoms: C_18  and  C_33
    5  A    between atoms: O_27  and  C_28
                            x       y       z     vdW  Elec       q    Type
                         _______ _______ _______ _____ _____    ______ ____

>  <TORSDO>
F 5

$$$$
