=
 OpenBabel11042417393D

 54 59  0  0  1  0  0  0  0  0999 V2000
  194.7490  174.2700  144.1160 C   0  0  1  0  0  3  0  0  0  0  0  0
  193.3800  174.7870  144.5280 C   0  0  1  0  0  3  0  0  0  0  0  0
  194.1750  172.8690  143.9620 C   0  0  2  0  0  3  0  0  0  0  0  0
  192.8050  173.3920  144.3610 C   0  0  0  0  0  2  0  0  0  0  0  0
  192.2070  175.4280  146.7100 N   0  0  0  0  0  0  0  0  0  0  0  0
  191.4800  175.8350  147.9480 C   0  0  0  0  0  2  0  0  0  0  0  0
  190.7200  175.4110  146.8760 C   0  0  1  0  0  3  0  0  0  0  0  0
  193.4050  175.2500  145.9570 C   0  0  0  0  0  0  0  0  0  0  0  0
  194.5150  175.4790  146.5030 O   0  0  0  0  0  0  0  0  0  0  0  0
  189.7890  177.5990  146.7600 O   0  0  0  0  0  0  0  0  0  0  0  0
  190.0970  176.5770  146.1610 C   0  0  0  0  0  0  0  0  0  0  0  0
  189.9030  176.5040  144.6840 C   0  0  0  0  0  2  0  0  0  0  0  0
  188.7490  177.2970  144.2990 N   0  0  0  0  0  2  0  0  0  0  0  0
  187.6190  176.4900  144.5090 N   0  0  0  0  0  2  0  0  0  0  0  0
  185.7990  177.6800  142.2520 O   0  0  0  0  0  1  0  0  0  0  0  0
  183.5350  178.7250  143.9920 O   0  0  0  0  0  1  0  0  0  0  0  0
  186.4100  178.3040  143.3380 C   0  0  1  0  0  3  0  0  0  0  0  0
  185.7180  179.6430  143.6290 C   0  0  0  0  0  2  0  0  0  0  0  0
  186.2800  178.0730  145.8810 C   0  0  2  0  0  3  0  0  0  0  0  0
  184.5400  179.4900  144.5920 C   0  0  2  0  0  3  0  0  0  0  0  0
  186.3630  177.1750  146.9490 O   0  0  0  0  0  1  0  0  0  0  0  0
  183.9350  178.1450  146.5170 O   0  0  0  0  0  1  0  0  0  0  0  0
  184.9740  178.8890  145.9470 C   0  0  1  0  0  3  0  0  0  0  0  0
  186.4290  177.3430  144.5410 C   0  0  2  0  0  3  0  0  0  0  0  0
  194.6780  172.0440  144.9840 O   0  0  0  0  0  0  0  0  0  0  0  0
  195.1210  170.8150  144.4330 C   0  0  1  0  0  3  0  0  0  0  0  0
  197.6310  170.9040  144.5000 C   0  0  0  0  0  1  0  0  0  0  0  0
  196.3770  170.3610  146.4470 F   0  0  0  0  0  0  0  0  0  0  0  0
  196.3920  170.2430  145.0690 C   0  0  1  0  0  3  0  0  0  0  0  0
  194.0140  169.7730  144.2650 C   0  0  0  0  0  2  0  0  0  0  0  0
  193.1250  169.5290  140.6540 C   0  0  0  0  0  0  0  0  0  0  0  0
  193.7300  168.4050  140.8400 N   0  0  0  0  0  0  0  0  0  0  0  0
  191.6900  170.6600  142.2280 N   0  0  0  0  0  0  0  0  0  0  0  0
  191.0330  170.3140  139.9200 C   0  0  0  0  0  0  0  0  0  0  0  0
  190.7460  170.6910  141.3300 C   0  0  0  0  0  3  0  0  0  0  0  0
  194.1690  168.3860  142.1900 C   0  0  0  0  0  3  0  0  0  0  0  0
  192.1490  169.7030  139.6270 N   0  0  0  0  0  0  0  0  0  0  0  0
  193.7710  169.4840  142.8200 C   0  0  0  0  0  0  0  0  0  0  0  0
  193.0850  170.3910  141.8660 C   0  0  1  0  0  3  0  0  0  0  0  0
  189.9600  170.4890  138.8840 C   0  0  1  0  0  3  0  0  0  0  0  0
  189.9400  171.8590  138.3840 N   0  0  0  0  0  2  0  0  0  0  0  0
  188.8740  172.7750  138.6470 C   0  0  0  0  0  0  0  0  0  0  0  0
  188.9220  174.0780  138.0840 N   0  0  0  0  0  1  0  0  0  0  0  0
  187.9090  172.4470  139.3870 O   0  0  0  0  0  0  0  0  0  0  0  0
  190.3300  170.2970  136.4150 C   0  0  0  0  0  1  0  0  0  0  0  0
  190.1740  169.5340  137.7190 C   0  0  0  0  0  2  0  0  0  0  0  0
  195.1300  174.8620  142.7590 C   0  0  2  0  0  3  0  0  0  0  0  0
  196.8060  176.0990  143.9210 O   0  0  0  0  0  0  0  0  0  0  0  0
  197.2310  176.1480  142.5820 C   0  0  0  0  0  2  0  0  0  0  0  0
  195.8000  176.2170  142.9440 C   0  0  1  0  0  3  0  0  0  0  0  0
  193.9810  175.0170  141.9780 O   0  0  0  0  0  0  0  0  0  0  0  0
  194.3080  174.4650  140.7390 C   0  0  0  0  0  2  0  0  0  0  0  0
  191.8500  174.1200  140.8900 C   0  0  0  0  0  1  0  0  0  0  0  0
  193.1220  173.6930  140.1870 C   0  0  0  0  0  2  0  0  0  0  0  0
  1 47  1  6  0  0  0
  1  2  1  0  0  0  0
  2  8  1  1  0  0  0
  3  1  1  0  0  0  0
  3  4  1  0  0  0  0
  3 25  1  1  0  0  0
  4  2  1  0  0  0  0
  5  7  1  0  0  0  0
  5  6  1  0  0  0  0
  7 11  1  6  0  0  0
  7  6  1  0  0  0  0
  8  9  2  0  0  0  0
  8  5  1  0  0  0  0
 11 10  2  0  0  0  0
 12 11  1  0  0  0  0
 13 14  1  0  0  0  0
 13 12  1  0  0  0  0
 17 15  1  6  0  0  0
 17 18  1  0  0  0  0
 17 24  1  0  0  0  0
 18 20  1  0  0  0  0
 19 23  1  0  0  0  0
 19 21  1  1  0  0  0
 20 16  1  6  0  0  0
 20 23  1  0  0  0  0
 23 22  1  6  0  0  0
 24 14  1  1  0  0  0
 24 19  1  0  0  0  0
 26 30  1  1  0  0  0
 26 25  1  0  0  0  0
 26 29  1  0  0  0  0
 29 27  1  6  0  0  0
 29 28  1  0  0  0  0
 31 32  2  0  0  0  0
 32 36  1  0  0  0  0
 34 35  1  0  0  0  0
 35 33  2  0  0  0  0
 36 38  2  0  0  0  0
 37 34  2  0  0  0  0
 37 31  1  0  0  0  0
 38 30  1  0  0  0  0
 39 31  1  6  0  0  0
 39 33  1  0  0  0  0
 39 38  1  0  0  0  0
 40 46  1  6  0  0  0
 40 34  1  0  0  0  0
 41 42  1  0  0  0  0
 41 40  1  0  0  0  0
 42 44  2  0  0  0  0
 43 42  1  0  0  0  0
 45 46  1  0  0  0  0
 47 51  1  6  0  0  0
 49 50  1  0  0  0  0
 49 48  1  0  0  0  0
 50 47  1  6  0  0  0
 50 48  1  0  0  0  0
 52 51  1  0  0  0  0
 54 52  1  0  0  0  0
 54 53  1  0  0  0  0
M  END
>  <MODEL>
1

>  <REMARK>
 VINA RESULT:      -6.3      0.000      0.000
  Name = 
  19 active torsions:
  status: ('A' for Active; 'I' for Inactive)
    1  A    between atoms: C_2  and  C_7
    2  A    between atoms: C_2  and  C_39
    3  A    between atoms: C_3  and  C_24
    4  A    between atoms: C_3  and  O_26
    5  A    between atoms: N_4  and  C_21
    6  A    between atoms: C_5  and  C_15
    7  A    between atoms: C_5  and  O_26
    8  A    between atoms: C_5  and  C_45
    9  A    between atoms: C_7  and  N_16
   10  A    between atoms: N_8  and  N_16
   11  A    between atoms: N_8  and  C_46
   12  A    between atoms: C_21  and  C_25
   13  A    between atoms: C_21  and  C_36
   14  A    between atoms: C_22  and  C_41
   15  A    between atoms: O_23  and  C_42
   16  A    between atoms: O_23  and  C_47
   17  A    between atoms: C_33  and  C_42
   18  A    between atoms: C_33  and  C_51
   19  A    between atoms: C_42  and  C_53
                            x       y       z     vdW  Elec       q    Type
                         _______ _______ _______ _____ _____    ______ ____

>  <TORSDO>
F 19

$$$$
=
 OpenBabel11042417393D

 54 59  0  0  1  0  0  0  0  0999 V2000
  187.9370  176.7520  142.8420 C   0  0  1  0  0  3  0  0  0  0  0  0
  189.1310  177.6910  142.8930 C   0  0  1  0  0  3  0  0  0  0  0  0
  187.6300  177.0620  144.3010 C   0  0  2  0  0  3  0  0  0  0  0  0
  188.8160  178.0100  144.3440 C   0  0  0  0  0  2  0  0  0  0  0  0
  190.4450  175.6690  142.0350 N   0  0  0  0  0  0  0  0  0  0  0  0
  191.1630  174.4520  141.5560 C   0  0  0  0  0  2  0  0  0  0  0  0
  189.8100  174.5350  141.2940 C   0  0  1  0  0  3  0  0  0  0  0  0
  190.4090  176.9200  142.7200 C   0  0  0  0  0  0  0  0  0  0  0  0
  191.4750  177.3970  143.1860 O   0  0  0  0  0  0  0  0  0  0  0  0
  187.8110  173.7890  142.3500 O   0  0  0  0  0  0  0  0  0  0  0  0
  189.0240  173.6650  142.2340 C   0  0  0  0  0  0  0  0  0  0  0  0
  189.7300  172.5950  142.9960 C   0  0  0  0  0  2  0  0  0  0  0  0
  189.6370  171.3370  142.2780 N   0  0  0  0  0  2  0  0  0  0  0  0
  190.8860  170.7060  142.4090 N   0  0  0  0  0  2  0  0  0  0  0  0
  190.2490  170.4610  139.3500 O   0  0  0  0  0  1  0  0  0  0  0  0
  192.7050  171.8820  138.2550 O   0  0  0  0  0  1  0  0  0  0  0  0
  191.3300  169.9770  140.0860 C   0  0  1  0  0  3  0  0  0  0  0  0
  192.5050  169.6680  139.1480 C   0  0  0  0  0  2  0  0  0  0  0  0
  193.1810  171.0230  141.5060 C   0  0  2  0  0  3  0  0  0  0  0  0
  193.4100  170.8820  138.9320 C   0  0  2  0  0  3  0  0  0  0  0  0
  193.4490  171.8920  142.5670 O   0  0  0  0  0  1  0  0  0  0  0  0
  194.2190  172.7870  140.1940 O   0  0  0  0  0  1  0  0  0  0  0  0
  194.0010  171.4060  140.2580 C   0  0  1  0  0  3  0  0  0  0  0  0
  191.6780  170.9740  141.2060 C   0  0  2  0  0  3  0  0  0  0  0  0
  187.9060  175.9290  145.0870 O   0  0  0  0  0  0  0  0  0  0  0  0
  187.9980  176.3020  146.4510 C   0  0  1  0  0  3  0  0  0  0  0  0
  186.5730  178.0180  147.6080 C   0  0  0  0  0  1  0  0  0  0  0  0
  185.5850  176.2850  146.3130 F   0  0  0  0  0  0  0  0  0  0  0  0
  186.6560  176.5810  147.1360 C   0  0  1  0  0  3  0  0  0  0  0  0
  188.9200  175.4080  147.2800 C   0  0  0  0  0  2  0  0  0  0  0  0
  192.4600  176.2560  146.4830 C   0  0  0  0  0  0  0  0  0  0  0  0
  192.3530  176.7250  147.6800 N   0  0  0  0  0  0  0  0  0  0  0  0
  191.4270  174.2490  145.6350 N   0  0  0  0  0  0  0  0  0  0  0  0
  193.7830  174.7140  145.2970 C   0  0  0  0  0  0  0  0  0  0  0  0
  192.5990  173.8150  145.2640 C   0  0  0  0  0  3  0  0  0  0  0  0
  191.0140  176.5050  148.0970 C   0  0  0  0  0  3  0  0  0  0  0  0
  193.7160  175.8500  145.9380 N   0  0  0  0  0  0  0  0  0  0  0  0
  190.3410  175.8500  147.1590 C   0  0  0  0  0  0  0  0  0  0  0  0
  191.2000  175.6600  145.9630 C   0  0  1  0  0  3  0  0  0  0  0  0
  195.0880  174.2270  144.7380 C   0  0  1  0  0  3  0  0  0  0  0  0
  196.0170  175.3350  144.5450 N   0  0  0  0  0  2  0  0  0  0  0  0
  196.2700  175.9350  143.2720 C   0  0  0  0  0  0  0  0  0  0  0  0
  197.2220  176.9840  143.1740 N   0  0  0  0  0  1  0  0  0  0  0  0
  195.6450  175.5590  142.2460 O   0  0  0  0  0  0  0  0  0  0  0  0
  197.1910  173.5070  145.8910 C   0  0  0  0  0  1  0  0  0  0  0  0
  195.7220  173.1980  145.6620 C   0  0  0  0  0  2  0  0  0  0  0  0
  186.8680  177.3350  141.9180 C   0  0  2  0  0  3  0  0  0  0  0  0
  187.4090  176.2950  139.8420 O   0  0  0  0  0  0  0  0  0  0  0  0
  186.4100  177.2200  139.4940 C   0  0  0  0  0  2  0  0  0  0  0  0
  187.4310  177.5300  140.5170 C   0  0  1  0  0  3  0  0  0  0  0  0
  186.4420  178.5700  142.4190 O   0  0  0  0  0  0  0  0  0  0  0  0
  185.0490  178.5360  142.3250 C   0  0  0  0  0  2  0  0  0  0  0  0
  184.6860  179.3740  144.6390 C   0  0  0  0  0  1  0  0  0  0  0  0
  184.4470  178.2220  143.6830 C   0  0  0  0  0  2  0  0  0  0  0  0
  1 47  1  6  0  0  0
  1  2  1  0  0  0  0
  1  3  1  0  0  0  0
  2  8  1  1  0  0  0
  2  4  1  0  0  0  0
  3  4  1  0  0  0  0
  3 25  1  1  0  0  0
  5  8  1  0  0  0  0
  6  5  1  0  0  0  0
  7  6  1  0  0  0  0
  7  5  1  0  0  0  0
  7 11  1  1  0  0  0
  8  9  2  0  0  0  0
 11 10  2  0  0  0  0
 11 12  1  0  0  0  0
 13 14  1  0  0  0  0
 13 12  1  0  0  0  0
 17 15  1  6  0  0  0
 17 24  1  0  0  0  0
 18 17  1  0  0  0  0
 19 21  1  1  0  0  0
 20 16  1  1  0  0  0
 20 18  1  0  0  0  0
 20 23  1  0  0  0  0
 23 22  1  6  0  0  0
 23 19  1  0  0  0  0
 24 19  1  0  0  0  0
 24 14  1  1  0  0  0
 25 26  1  0  0  0  0
 26 29  1  0  0  0  0
 26 30  1  1  0  0  0
 28 29  1  0  0  0  0
 29 27  1  6  0  0  0
 31 32  2  0  0  0  0
 32 36  1  0  0  0  0
 34 37  2  0  0  0  0
 35 34  1  0  0  0  0
 35 33  2  0  0  0  0
 37 31  1  0  0  0  0
 38 30  1  0  0  0  0
 38 36  2  0  0  0  0
 39 33  1  1  0  0  0
 39 31  1  0  0  0  0
 39 38  1  0  0  0  0
 40 34  1  0  0  0  0
 40 46  1  1  0  0  0
 41 40  1  0  0  0  0
 42 41  1  0  0  0  0
 43 42  1  0  0  0  0
 44 42  2  0  0  0  0
 46 45  1  0  0  0  0
 47 51  1  1  0  0  0
 48 50  1  0  0  0  0
 49 48  1  0  0  0  0
 49 50  1  0  0  0  0
 50 47  1  1  0  0  0
 52 51  1  0  0  0  0
 52 54  1  0  0  0  0
 54 53  1  0  0  0  0
M  END
>  <MODEL>
2

>  <REMARK>
 VINA RESULT:      -6.2      2.953      9.210
  Name = 
  19 active torsions:
  status: ('A' for Active; 'I' for Inactive)
    1  A    between atoms: C_2  and  C_7
    2  A    between atoms: C_2  and  C_39
    3  A    between atoms: C_3  and  C_24
    4  A    between atoms: C_3  and  O_26
    5  A    between atoms: N_4  and  C_21
    6  A    between atoms: C_5  and  C_15
    7  A    between atoms: C_5  and  O_26
    8  A    between atoms: C_5  and  C_45
    9  A    between atoms: C_7  and  N_16
   10  A    between atoms: N_8  and  N_16
   11  A    between atoms: N_8  and  C_46
   12  A    between atoms: C_21  and  C_25
   13  A    between atoms: C_21  and  C_36
   14  A    between atoms: C_22  and  C_41
   15  A    between atoms: O_23  and  C_42
   16  A    between atoms: O_23  and  C_47
   17  A    between atoms: C_33  and  C_42
   18  A    between atoms: C_33  and  C_51
   19  A    between atoms: C_42  and  C_53
                            x       y       z     vdW  Elec       q    Type
                         _______ _______ _______ _____ _____    ______ ____

>  <TORSDO>
F 19

$$$$
=
 OpenBabel11042417393D

 54 59  0  0  1  0  0  0  0  0999 V2000
  193.5670  174.5380  143.9290 C   0  0  1  0  0  3  0  0  0  0  0  0
  193.0940  175.8430  144.5490 C   0  0  1  0  0  3  0  0  0  0  0  0
  192.1810  174.3150  143.3400 C   0  0  2  0  0  3  0  0  0  0  0  0
  191.7160  175.6250  143.9500 C   0  0  0  0  0  2  0  0  0  0  0  0
  191.9050  175.6640  146.8090 N   0  0  0  0  0  0  0  0  0  0  0  0
  191.1700  175.6050  148.1060 C   0  0  0  0  0  2  0  0  0  0  0  0
  190.4160  175.6280  146.9500 C   0  0  1  0  0  3  0  0  0  0  0  0
  193.1100  175.7440  146.0480 C   0  0  0  0  0  0  0  0  0  0  0  0
  194.2170  175.7240  146.6460 O   0  0  0  0  0  0  0  0  0  0  0  0
  189.9650  177.8920  147.5340 O   0  0  0  0  0  0  0  0  0  0  0  0
  189.8310  176.9920  146.7140 C   0  0  0  0  0  0  0  0  0  0  0  0
  189.1240  177.2670  145.4300 C   0  0  0  0  0  2  0  0  0  0  0  0
  188.3090  176.1230  145.0620 N   0  0  0  0  0  2  0  0  0  0  0  0
  187.0840  176.2690  145.7340 N   0  0  0  0  0  2  0  0  0  0  0  0
  186.2970  179.1190  146.7730 O   0  0  0  0  0  1  0  0  0  0  0  0
  185.2880  180.2970  144.1580 O   0  0  0  0  0  1  0  0  0  0  0  0
  185.5130  178.1270  146.1850 C   0  0  1  0  0  3  0  0  0  0  0  0
  184.2200  178.7410  145.6330 C   0  0  0  0  0  2  0  0  0  0  0  0
  185.4960  176.9150  143.9340 C   0  0  2  0  0  3  0  0  0  0  0  0
  184.3790  179.2350  144.1950 C   0  0  2  0  0  3  0  0  0  0  0  0
  186.2700  176.1870  143.0270 O   0  0  0  0  0  1  0  0  0  0  0  0
  185.5710  178.5990  142.1810 O   0  0  0  0  0  1  0  0  0  0  0  0
  184.7980  178.1000  143.2360 C   0  0  1  0  0  3  0  0  0  0  0  0
  186.3420  177.3750  145.1270 C   0  0  2  0  0  3  0  0  0  0  0  0
  191.5600  173.2410  144.0030 O   0  0  0  0  0  0  0  0  0  0  0  0
  191.3180  172.1870  143.0870 C   0  0  1  0  0  3  0  0  0  0  0  0
  191.8260  169.8560  142.2980 C   0  0  0  0  0  1  0  0  0  0  0  0
  193.5020  171.1830  143.3390 F   0  0  0  0  0  0  0  0  0  0  0  0
  192.1450  170.9190  143.3290 C   0  0  1  0  0  3  0  0  0  0  0  0
  189.8360  171.8980  142.8460 C   0  0  0  0  0  2  0  0  0  0  0  0
  188.6730  173.7020  139.8000 C   0  0  0  0  0  0  0  0  0  0  0  0
  188.3610  174.5450  140.7250 N   0  0  0  0  0  0  0  0  0  0  0  0
  190.6240  172.2850  139.7540 N   0  0  0  0  0  0  0  0  0  0  0  0
  189.9720  173.6240  137.8400 C   0  0  0  0  0  0  0  0  0  0  0  0
  190.9340  172.7680  138.5830 C   0  0  0  0  0  3  0  0  0  0  0  0
  188.7160  173.9530  141.9660 C   0  0  0  0  0  3  0  0  0  0  0  0
  188.9300  174.1120  138.4570 N   0  0  0  0  0  0  0  0  0  0  0  0
  189.2930  172.7750  141.7670 C   0  0  0  0  0  0  0  0  0  0  0  0
  189.2810  172.4470  140.3190 C   0  0  1  0  0  3  0  0  0  0  0  0
  190.3040  174.0520  136.4400 C   0  0  1  0  0  3  0  0  0  0  0  0
  191.7470  174.0880  136.2360 N   0  0  0  0  0  2  0  0  0  0  0  0
  192.4520  175.2580  135.8120 C   0  0  0  0  0  0  0  0  0  0  0  0
  193.8550  175.1860  135.6010 N   0  0  0  0  0  1  0  0  0  0  0  0
  191.8480  176.3500  135.6460 O   0  0  0  0  0  0  0  0  0  0  0  0
  190.7100  172.1380  134.8770 C   0  0  0  0  0  1  0  0  0  0  0  0
  189.6770  173.1090  135.4240 C   0  0  0  0  0  2  0  0  0  0  0  0
  194.5900  174.8360  142.8340 C   0  0  2  0  0  3  0  0  0  0  0  0
  196.1540  176.3290  143.8400 O   0  0  0  0  0  0  0  0  0  0  0  0
  196.4700  176.3970  142.4720 C   0  0  0  0  0  2  0  0  0  0  0  0
  195.0730  176.2760  142.9400 C   0  0  1  0  0  3  0  0  0  0  0  0
  194.0030  174.6370  141.5800 O   0  0  0  0  0  0  0  0  0  0  0  0
  194.6980  173.5620  141.0220 C   0  0  0  0  0  2  0  0  0  0  0  0
  194.3540  175.1510  139.1390 C   0  0  0  0  0  1  0  0  0  0  0  0
  194.9720  173.8300  139.5530 C   0  0  0  0  0  2  0  0  0  0  0  0
  1 47  1  6  0  0  0
  1  2  1  0  0  0  0
  2  8  1  1  0  0  0
  3  1  1  0  0  0  0
  3  4  1  0  0  0  0
  3 25  1  1  0  0  0
  4  2  1  0  0  0  0
  5  7  1  0  0  0  0
  5  6  1  0  0  0  0
  7 11  1  1  0  0  0
  7  6  1  0  0  0  0
  8  9  2  0  0  0  0
  8  5  1  0  0  0  0
 11 10  2  0  0  0  0
 12 11  1  0  0  0  0
 13 12  1  0  0  0  0
 13 14  1  0  0  0  0
 17 15  1  6  0  0  0
 18 17  1  0  0  0  0
 19 21  1  6  0  0  0
 19 24  1  0  0  0  0
 20 16  1  1  0  0  0
 20 18  1  0  0  0  0
 23 22  1  6  0  0  0
 23 19  1  0  0  0  0
 23 20  1  0  0  0  0
 24 14  1  1  0  0  0
 24 17  1  0  0  0  0
 26 30  1  1  0  0  0
 26 29  1  0  0  0  0
 26 25  1  0  0  0  0
 29 27  1  6  0  0  0
 29 28  1  0  0  0  0
 31 39  1  0  0  0  0
 31 32  2  0  0  0  0
 32 36  1  0  0  0  0
 34 37  2  0  0  0  0
 34 35  1  0  0  0  0
 35 33  2  0  0  0  0
 37 31  1  0  0  0  0
 38 36  2  0  0  0  0
 38 30  1  0  0  0  0
 39 33  1  6  0  0  0
 39 38  1  0  0  0  0
 40 46  1  6  0  0  0
 40 34  1  0  0  0  0
 41 40  1  0  0  0  0
 42 41  1  0  0  0  0
 43 42  1  0  0  0  0
 44 42  2  0  0  0  0
 45 46  1  0  0  0  0
 47 51  1  6  0  0  0
 49 50  1  0  0  0  0
 49 48  1  0  0  0  0
 50 47  1  6  0  0  0
 50 48  1  0  0  0  0
 52 51  1  0  0  0  0
 53 54  1  0  0  0  0
 54 52  1  0  0  0  0
M  END
>  <MODEL>
3

>  <REMARK>
 VINA RESULT:      -6.1      2.267      3.649
  Name = 
  19 active torsions:
  status: ('A' for Active; 'I' for Inactive)
    1  A    between atoms: C_2  and  C_7
    2  A    between atoms: C_2  and  C_39
    3  A    between atoms: C_3  and  C_24
    4  A    between atoms: C_3  and  O_26
    5  A    between atoms: N_4  and  C_21
    6  A    between atoms: C_5  and  C_15
    7  A    between atoms: C_5  and  O_26
    8  A    between atoms: C_5  and  C_45
    9  A    between atoms: C_7  and  N_16
   10  A    between atoms: N_8  and  N_16
   11  A    between atoms: N_8  and  C_46
   12  A    between atoms: C_21  and  C_25
   13  A    between atoms: C_21  and  C_36
   14  A    between atoms: C_22  and  C_41
   15  A    between atoms: O_23  and  C_42
   16  A    between atoms: O_23  and  C_47
   17  A    between atoms: C_33  and  C_42
   18  A    between atoms: C_33  and  C_51
   19  A    between atoms: C_42  and  C_53
                            x       y       z     vdW  Elec       q    Type
                         _______ _______ _______ _____ _____    ______ ____

>  <TORSDO>
F 19

$$$$
=
 OpenBabel11042417393D

 54 59  0  0  1  0  0  0  0  0999 V2000
  196.1950  173.5230  143.9500 C   0  0  1  0  0  3  0  0  0  0  0  0
  197.3270  172.8720  144.7270 C   0  0  1  0  0  3  0  0  0  0  0  0
  195.8060  174.3220  145.1860 C   0  0  2  0  0  3  0  0  0  0  0  0
  196.9470  173.6790  145.9550 C   0  0  0  0  0  2  0  0  0  0  0  0
  196.5870  170.6010  143.8060 N   0  0  0  0  0  0  0  0  0  0  0  0
  196.1040  169.3070  143.2410 C   0  0  0  0  0  2  0  0  0  0  0  0
  196.1130  170.4030  142.4010 C   0  0  1  0  0  3  0  0  0  0  0  0
  197.0730  171.3990  144.8840 C   0  0  0  0  0  0  0  0  0  0  0  0
  197.3040  170.8570  145.9950 O   0  0  0  0  0  0  0  0  0  0  0  0
  194.4580  171.7110  141.2990 O   0  0  0  0  0  0  0  0  0  0  0  0
  194.7290  170.9610  142.2280 C   0  0  0  0  0  0  0  0  0  0  0  0
  193.6540  170.5460  143.1750 C   0  0  0  0  0  2  0  0  0  0  0  0
  192.3660  170.5820  142.5050 N   0  0  0  0  0  2  0  0  0  0  0  0
  191.5850  171.5300  143.1880 N   0  0  0  0  0  2  0  0  0  0  0  0
  191.5260  172.0470  140.0970 O   0  0  0  0  0  1  0  0  0  0  0  0
  188.5400  172.5150  139.7680 O   0  0  0  0  0  1  0  0  0  0  0  0
  191.1510  172.8740  141.1550 C   0  0  1  0  0  3  0  0  0  0  0  0
  190.2180  173.9810  140.6480 C   0  0  0  0  0  2  0  0  0  0  0  0
  189.4250  172.7520  143.0380 C   0  0  2  0  0  3  0  0  0  0  0  0
  188.7480  173.5600  140.6740 C   0  0  2  0  0  3  0  0  0  0  0  0
  188.9420  171.9700  144.0900 O   0  0  0  0  0  1  0  0  0  0  0  0
  187.2750  172.2050  142.0430 O   0  0  0  0  0  1  0  0  0  0  0  0
  188.2810  173.1760  142.0950 C   0  0  1  0  0  3  0  0  0  0  0  0
  190.5430  172.0210  142.2840 C   0  0  2  0  0  3  0  0  0  0  0  0
  194.5780  173.8460  145.6810 O   0  0  0  0  0  0  0  0  0  0  0  0
  193.6780  174.9270  145.8510 C   0  0  1  0  0  3  0  0  0  0  0  0
  193.5940  177.2950  145.0130 C   0  0  0  0  0  1  0  0  0  0  0  0
  194.4140  176.8000  147.1900 F   0  0  0  0  0  0  0  0  0  0  0  0
  194.3330  176.3120  145.8980 C   0  0  1  0  0  3  0  0  0  0  0  0
  192.4590  174.8730  144.9290 C   0  0  0  0  0  2  0  0  0  0  0  0
  189.0590  175.3050  146.3940 C   0  0  0  0  0  0  0  0  0  0  0  0
  189.7730  175.1480  147.4570 N   0  0  0  0  0  0  0  0  0  0  0  0
  189.7200  176.4660  144.3860 N   0  0  0  0  0  0  0  0  0  0  0  0
  187.5900  176.8900  145.4650 C   0  0  0  0  0  0  0  0  0  0  0  0
  188.6580  177.2150  144.4830 C   0  0  0  0  0  3  0  0  0  0  0  0
  191.1100  174.9240  147.0340 C   0  0  0  0  0  3  0  0  0  0  0  0
  187.8230  176.0190  146.4090 N   0  0  0  0  0  0  0  0  0  0  0  0
  191.1940  175.0050  145.7120 C   0  0  0  0  0  0  0  0  0  0  0  0
  189.8430  175.2100  145.1320 C   0  0  1  0  0  3  0  0  0  0  0  0
  186.3210  177.6910  145.4590 C   0  0  1  0  0  3  0  0  0  0  0  0
  185.5070  177.3680  144.2920 N   0  0  0  0  0  2  0  0  0  0  0  0
  185.1060  178.3370  143.3210 C   0  0  0  0  0  0  0  0  0  0  0  0
  184.2800  177.9360  142.2370 N   0  0  0  0  0  1  0  0  0  0  0  0
  185.4950  179.5320  143.4040 O   0  0  0  0  0  0  0  0  0  0  0  0
  184.3110  178.3590  146.7960 C   0  0  0  0  0  1  0  0  0  0  0  0
  185.5120  177.4310  146.7210 C   0  0  0  0  0  2  0  0  0  0  0  0
  196.7760  174.4310  142.8670 C   0  0  2  0  0  3  0  0  0  0  0  0
  196.8610  176.7410  143.4500 O   0  0  0  0  0  0  0  0  0  0  0  0
  196.7870  176.7610  142.0470 C   0  0  0  0  0  2  0  0  0  0  0  0
  196.0440  175.7660  142.8490 C   0  0  1  0  0  3  0  0  0  0  0  0
  196.6420  173.8140  141.6190 O   0  0  0  0  0  0  0  0  0  0  0  0
  197.9330  173.4080  141.2750 C   0  0  0  0  0  2  0  0  0  0  0  0
  196.6140  173.1270  139.1850 C   0  0  0  0  0  1  0  0  0  0  0  0
  197.9410  172.8510  139.8630 C   0  0  0  0  0  2  0  0  0  0  0  0
  1 47  1  6  0  0  0
  1  2  1  0  0  0  0
  1  3  1  0  0  0  0
  2  8  1  1  0  0  0
  2  4  1  0  0  0  0
  3 25  1  1  0  0  0
  3  4  1  0  0  0  0
  5  8  1  0  0  0  0
  6  5  1  0  0  0  0
  7 11  1  1  0  0  0
  7  6  1  0  0  0  0
  7  5  1  0  0  0  0
  8  9  2  0  0  0  0
 10 11  2  0  0  0  0
 11 12  1  0  0  0  0
 13 12  1  0  0  0  0
 13 14  1  0  0  0  0
 17 15  1  6  0  0  0
 17 24  1  0  0  0  0
 18 20  1  0  0  0  0
 18 17  1  0  0  0  0
 19 21  1  1  0  0  0
 20 16  1  6  0  0  0
 20 23  1  0  0  0  0
 23 22  1  6  0  0  0
 23 19  1  0  0  0  0
 24 19  1  0  0  0  0
 24 14  1  1  0  0  0
 25 26  1  0  0  0  0
 26 30  1  6  0  0  0
 26 29  1  0  0  0  0
 29 27  1  6  0  0  0
 29 28  1  0  0  0  0
 30 38  1  0  0  0  0
 31 37  1  0  0  0  0
 31 32  2  0  0  0  0
 33 35  2  0  0  0  0
 34 37  2  0  0  0  0
 35 34  1  0  0  0  0
 36 32  1  0  0  0  0
 38 36  2  0  0  0  0
 39 33  1  1  0  0  0
 39 38  1  0  0  0  0
 39 31  1  0  0  0  0
 40 34  1  0  0  0  0
 40 46  1  1  0  0  0
 41 40  1  0  0  0  0
 42 44  2  0  0  0  0
 42 41  1  0  0  0  0
 43 42  1  0  0  0  0
 46 45  1  0  0  0  0
 47 51  1  6  0  0  0
 49 50  1  0  0  0  0
 49 48  1  0  0  0  0
 50 47  1  6  0  0  0
 50 48  1  0  0  0  0
 52 51  1  0  0  0  0
 53 54  1  0  0  0  0
 54 52  1  0  0  0  0
M  END
>  <MODEL>
4

>  <REMARK>
 VINA RESULT:      -6.0      2.677      7.339
  Name = 
  19 active torsions:
  status: ('A' for Active; 'I' for Inactive)
    1  A    between atoms: C_2  and  C_7
    2  A    between atoms: C_2  and  C_39
    3  A    between atoms: C_3  and  C_24
    4  A    between atoms: C_3  and  O_26
    5  A    between atoms: N_4  and  C_21
    6  A    between atoms: C_5  and  C_15
    7  A    between atoms: C_5  and  O_26
    8  A    between atoms: C_5  and  C_45
    9  A    between atoms: C_7  and  N_16
   10  A    between atoms: N_8  and  N_16
   11  A    between atoms: N_8  and  C_46
   12  A    between atoms: C_21  and  C_25
   13  A    between atoms: C_21  and  C_36
   14  A    between atoms: C_22  and  C_41
   15  A    between atoms: O_23  and  C_42
   16  A    between atoms: O_23  and  C_47
   17  A    between atoms: C_33  and  C_42
   18  A    between atoms: C_33  and  C_51
   19  A    between atoms: C_42  and  C_53
                            x       y       z     vdW  Elec       q    Type
                         _______ _______ _______ _____ _____    ______ ____

>  <TORSDO>
F 19

$$$$
=
 OpenBabel11042417393D

 54 59  0  0  1  0  0  0  0  0999 V2000
  194.4110  174.1480  143.9650 C   0  0  1  0  0  3  0  0  0  0  0  0
  193.8080  175.5440  143.9480 C   0  0  1  0  0  3  0  0  0  0  0  0
  193.2710  173.6440  143.0910 C   0  0  2  0  0  3  0  0  0  0  0  0
  192.6790  175.0430  143.0650 C   0  0  0  0  0  2  0  0  0  0  0  0
  191.9700  176.0480  145.6570 N   0  0  0  0  0  0  0  0  0  0  0  0
  190.8690  176.3760  146.6080 C   0  0  0  0  0  2  0  0  0  0  0  0
  190.5120  175.9920  145.3310 C   0  0  1  0  0  3  0  0  0  0  0  0
  193.3540  175.9330  145.3260 C   0  0  0  0  0  0  0  0  0  0  0  0
  194.2190  176.1570  146.2110 O   0  0  0  0  0  0  0  0  0  0  0  0
  190.0920  178.3090  144.9760 O   0  0  0  0  0  0  0  0  0  0  0  0
  190.1110  177.1800  144.5020 C   0  0  0  0  0  0  0  0  0  0  0  0
  189.7850  176.9830  143.0600 C   0  0  0  0  0  2  0  0  0  0  0  0
  188.5170  177.6180  142.7500 N   0  0  0  0  0  2  0  0  0  0  0  0
  187.5110  176.7110  143.1220 N   0  0  0  0  0  2  0  0  0  0  0  0
  185.2500  178.5610  141.9870 O   0  0  0  0  0  1  0  0  0  0  0  0
  183.5690  178.8280  144.5070 O   0  0  0  0  0  1  0  0  0  0  0  0
  186.1530  178.7780  143.0270 C   0  0  1  0  0  3  0  0  0  0  0  0
  185.6380  179.8960  143.9430 C   0  0  0  0  0  2  0  0  0  0  0  0
  186.6620  177.6470  145.2630 C   0  0  2  0  0  3  0  0  0  0  0  0
  184.7370  179.3640  145.0580 C   0  0  2  0  0  3  0  0  0  0  0  0
  186.9610  176.4300  145.8820 O   0  0  0  0  0  1  0  0  0  0  0  0
  184.5650  177.3980  146.4670 O   0  0  0  0  0  1  0  0  0  0  0  0
  185.4660  178.3350  145.9490 C   0  0  1  0  0  3  0  0  0  0  0  0
  186.4220  177.4510  143.7610 C   0  0  2  0  0  3  0  0  0  0  0  0
  192.4420  172.7980  143.8480 O   0  0  0  0  0  0  0  0  0  0  0  0
  192.0320  171.6950  143.0580 C   0  0  1  0  0  3  0  0  0  0  0  0
  193.6460  170.0650  142.0320 C   0  0  0  0  0  1  0  0  0  0  0  0
  193.6750  170.5030  144.3690 F   0  0  0  0  0  0  0  0  0  0  0  0
  192.8420  170.4120  143.2690 C   0  0  1  0  0  3  0  0  0  0  0  0
  190.5210  171.4560  143.0570 C   0  0  0  0  0  2  0  0  0  0  0  0
  189.0640  173.2860  140.1560 C   0  0  0  0  0  0  0  0  0  0  0  0
  188.6820  174.0290  141.1390 N   0  0  0  0  0  0  0  0  0  0  0  0
  191.1650  172.1170  139.9770 N   0  0  0  0  0  0  0  0  0  0  0  0
  190.3030  173.4790  138.1670 C   0  0  0  0  0  0  0  0  0  0  0  0
  191.3810  172.7020  138.8330 C   0  0  0  0  0  3  0  0  0  0  0  0
  189.1410  173.4110  142.3320 C   0  0  0  0  0  3  0  0  0  0  0  0
  189.2290  173.8020  138.8360 N   0  0  0  0  0  0  0  0  0  0  0  0
  189.8460  172.3240  142.0470 C   0  0  0  0  0  0  0  0  0  0  0  0
  189.8300  172.0840  140.5820 C   0  0  1  0  0  3  0  0  0  0  0  0
  190.5400  174.0270  136.7880 C   0  0  1  0  0  3  0  0  0  0  0  0
  191.8980  173.7390  136.3410 N   0  0  0  0  0  2  0  0  0  0  0  0
  192.9100  174.7400  136.2080 C   0  0  0  0  0  0  0  0  0  0  0  0
  194.1940  174.3720  135.7260 N   0  0  0  0  0  1  0  0  0  0  0  0
  192.6810  175.9350  136.5310 O   0  0  0  0  0  0  0  0  0  0  0  0
  189.6970  171.9270  135.7170 C   0  0  0  0  0  1  0  0  0  0  0  0
  189.5500  173.4360  135.7950 C   0  0  0  0  0  2  0  0  0  0  0  0
  195.7320  174.1550  143.1980 C   0  0  2  0  0  3  0  0  0  0  0  0
  195.3230  173.9590  140.8570 O   0  0  0  0  0  0  0  0  0  0  0  0
  196.6670  173.5680  140.9880 C   0  0  0  0  0  2  0  0  0  0  0  0
  195.6530  173.2130  142.0030 C   0  0  1  0  0  3  0  0  0  0  0  0
  196.7660  173.7410  144.0440 O   0  0  0  0  0  0  0  0  0  0  0  0
  196.4470  172.4260  144.3880 C   0  0  0  0  0  2  0  0  0  0  0  0
  196.6540  170.7060  146.1730 C   0  0  0  0  0  1  0  0  0  0  0  0
  196.7610  172.1830  145.8530 C   0  0  0  0  0  2  0  0  0  0  0  0
  1 47  1  6  0  0  0
  2  1  1  0  0  0  0
  2  8  1  1  0  0  0
  3 25  1  1  0  0  0
  3  1  1  0  0  0  0
  4  3  1  0  0  0  0
  4  2  1  0  0  0  0
  5  6  1  0  0  0  0
  7 11  1  6  0  0  0
  7  5  1  0  0  0  0
  7  6  1  0  0  0  0
  8  5  1  0  0  0  0
  8  9  2  0  0  0  0
 11 10  2  0  0  0  0
 12 11  1  0  0  0  0
 13 12  1  0  0  0  0
 13 14  1  0  0  0  0
 17 15  1  6  0  0  0
 17 24  1  0  0  0  0
 17 18  1  0  0  0  0
 18 20  1  0  0  0  0
 19 21  1  1  0  0  0
 19 23  1  0  0  0  0
 20 16  1  6  0  0  0
 20 23  1  0  0  0  0
 23 22  1  6  0  0  0
 24 14  1  6  0  0  0
 24 19  1  0  0  0  0
 26 30  1  1  0  0  0
 26 29  1  0  0  0  0
 26 25  1  0  0  0  0
 29 27  1  6  0  0  0
 29 28  1  0  0  0  0
 31 39  1  0  0  0  0
 31 32  2  0  0  0  0
 32 36  1  0  0  0  0
 34 35  1  0  0  0  0
 34 37  2  0  0  0  0
 35 33  2  0  0  0  0
 37 31  1  0  0  0  0
 38 36  2  0  0  0  0
 38 30  1  0  0  0  0
 39 33  1  6  0  0  0
 39 38  1  0  0  0  0
 40 46  1  6  0  0  0
 40 34  1  0  0  0  0
 41 40  1  0  0  0  0
 42 41  1  0  0  0  0
 42 44  2  0  0  0  0
 43 42  1  0  0  0  0
 45 46  1  0  0  0  0
 47 51  1  1  0  0  0
 48 49  1  0  0  0  0
 48 50  1  0  0  0  0
 49 50  1  0  0  0  0
 50 47  1  1  0  0  0
 51 52  1  0  0  0  0
 52 54  1  0  0  0  0
 54 53  1  0  0  0  0
M  END
>  <MODEL>
5

>  <REMARK>
 VINA RESULT:      -6.0      2.125      3.589
  Name = 
  19 active torsions:
  status: ('A' for Active; 'I' for Inactive)
    1  A    between atoms: C_2  and  C_7
    2  A    between atoms: C_2  and  C_39
    3  A    between atoms: C_3  and  C_24
    4  A    between atoms: C_3  and  O_26
    5  A    between atoms: N_4  and  C_21
    6  A    between atoms: C_5  and  C_15
    7  A    between atoms: C_5  and  O_26
    8  A    between atoms: C_5  and  C_45
    9  A    between atoms: C_7  and  N_16
   10  A    between atoms: N_8  and  N_16
   11  A    between atoms: N_8  and  C_46
   12  A    between atoms: C_21  and  C_25
   13  A    between atoms: C_21  and  C_36
   14  A    between atoms: C_22  and  C_41
   15  A    between atoms: O_23  and  C_42
   16  A    between atoms: O_23  and  C_47
   17  A    between atoms: C_33  and  C_42
   18  A    between atoms: C_33  and  C_51
   19  A    between atoms: C_42  and  C_53
                            x       y       z     vdW  Elec       q    Type
                         _______ _______ _______ _____ _____    ______ ____

>  <TORSDO>
F 19

$$$$
=
 OpenBabel11042417393D

 54 59  0  0  1  0  0  0  0  0999 V2000
  192.2860  172.9490  139.6790 C   0  0  1  0  0  3  0  0  0  0  0  0
  192.0920  171.6460  140.4370 C   0  0  1  0  0  3  0  0  0  0  0  0
  193.7950  172.7540  139.7300 C   0  0  2  0  0  3  0  0  0  0  0  0
  193.5960  171.4450  140.4750 C   0  0  0  0  0  2  0  0  0  0  0  0
  190.1310  172.2990  141.9470 N   0  0  0  0  0  0  0  0  0  0  0  0
  188.9740  172.7280  142.7850 C   0  0  0  0  0  2  0  0  0  0  0  0
  188.7730  172.6440  141.4220 C   0  0  1  0  0  3  0  0  0  0  0  0
  191.4960  171.9120  141.7900 C   0  0  0  0  0  0  0  0  0  0  0  0
  192.2190  171.7830  142.8100 O   0  0  0  0  0  0  0  0  0  0  0  0
  188.6970  174.1460  139.5770 O   0  0  0  0  0  0  0  0  0  0  0  0
  188.7830  174.0070  140.7900 C   0  0  0  0  0  0  0  0  0  0  0  0
  188.8410  175.2140  141.6650 C   0  0  0  0  0  2  0  0  0  0  0  0
  187.5660  175.9070  141.6340 N   0  0  0  0  0  2  0  0  0  0  0  0
  186.8490  175.4800  142.7640 N   0  0  0  0  0  2  0  0  0  0  0  0
  184.7460  177.5440  141.6970 O   0  0  0  0  0  1  0  0  0  0  0  0
  184.0820  178.9220  144.3250 O   0  0  0  0  0  1  0  0  0  0  0  0
  185.9670  177.7520  142.3370 C   0  0  1  0  0  3  0  0  0  0  0  0
  186.0130  179.1680  142.9280 C   0  0  0  0  0  2  0  0  0  0  0  0
  186.9570  177.1380  144.6130 C   0  0  2  0  0  3  0  0  0  0  0  0
  185.4470  179.2230  144.3480 C   0  0  2  0  0  3  0  0  0  0  0  0
  187.2010  176.0890  145.5030 O   0  0  0  0  0  1  0  0  0  0  0  0
  185.3720  177.8210  146.3250 O   0  0  0  0  0  1  0  0  0  0  0  0
  186.2150  178.2940  145.3130 C   0  0  1  0  0  3  0  0  0  0  0  0
  186.1990  176.6400  143.3770 C   0  0  2  0  0  3  0  0  0  0  0  0
  194.3600  173.7070  140.5970 O   0  0  0  0  0  0  0  0  0  0  0  0
  195.7650  173.7500  140.4110 C   0  0  1  0  0  3  0  0  0  0  0  0
  197.6050  174.5660  138.9070 C   0  0  0  0  0  1  0  0  0  0  0  0
  195.3500  175.2280  138.5440 F   0  0  0  0  0  0  0  0  0  0  0  0
  196.2640  174.8990  139.5290 C   0  0  1  0  0  3  0  0  0  0  0  0
  196.5690  173.5940  141.7030 C   0  0  0  0  0  2  0  0  0  0  0  0
  195.5570  176.0960  144.2720 C   0  0  0  0  0  0  0  0  0  0  0  0
  196.3560  176.7970  143.5400 N   0  0  0  0  0  0  0  0  0  0  0  0
  194.0280  174.3980  143.5010 N   0  0  0  0  0  0  0  0  0  0  0  0
  193.3270  176.1560  145.0170 C   0  0  0  0  0  0  0  0  0  0  0  0
  193.0500  175.0270  144.0900 C   0  0  0  0  0  3  0  0  0  0  0  0
  196.8590  175.9360  142.5290 C   0  0  0  0  0  3  0  0  0  0  0  0
  194.5160  176.6950  145.0440 N   0  0  0  0  0  0  0  0  0  0  0  0
  196.3090  174.7330  142.6320 C   0  0  0  0  0  0  0  0  0  0  0  0
  195.4290  174.6820  143.8270 C   0  0  1  0  0  3  0  0  0  0  0  0
  192.1910  176.7710  145.7830 C   0  0  1  0  0  3  0  0  0  0  0  0
  191.0230  176.9480  144.9270 N   0  0  0  0  0  2  0  0  0  0  0  0
  190.8720  178.0450  144.0220 C   0  0  0  0  0  0  0  0  0  0  0  0
  189.6810  178.1560  143.2570 N   0  0  0  0  0  1  0  0  0  0  0  0
  191.7890  178.8960  143.8810 O   0  0  0  0  0  0  0  0  0  0  0  0
  190.3080  175.8990  147.1840 C   0  0  0  0  0  1  0  0  0  0  0  0
  191.8120  175.9040  146.9740 C   0  0  0  0  0  2  0  0  0  0  0  0
  191.7580  172.7940  138.2540 C   0  0  2  0  0  3  0  0  0  0  0  0
  192.5720  174.9010  137.4880 O   0  0  0  0  0  0  0  0  0  0  0  0
  191.9970  174.3340  136.3380 C   0  0  0  0  0  2  0  0  0  0  0  0
  191.3940  174.1550  137.6750 C   0  0  1  0  0  3  0  0  0  0  0  0
  190.6230  171.9770  138.2630 O   0  0  0  0  0  0  0  0  0  0  0  0
  190.8080  171.0880  137.2030 C   0  0  0  0  0  2  0  0  0  0  0  0
  190.4190  168.9970  138.4920 C   0  0  0  0  0  1  0  0  0  0  0  0
  189.9030  169.8820  137.3750 C   0  0  0  0  0  2  0  0  0  0  0  0
  1 47  1  6  0  0  0
  1  3  1  0  0  0  0
  1  2  1  0  0  0  0
  2  4  1  0  0  0  0
  2  8  1  1  0  0  0
  3  4  1  0  0  0  0
  3 25  1  1  0  0  0
  5  6  1  0  0  0  0
  7 11  1  6  0  0  0
  7  5  1  0  0  0  0
  7  6  1  0  0  0  0
  8  5  1  0  0  0  0
  8  9  2  0  0  0  0
 10 11  2  0  0  0  0
 11 12  1  0  0  0  0
 13 12  1  0  0  0  0
 13 14  1  0  0  0  0
 17 15  1  1  0  0  0
 17 18  1  0  0  0  0
 17 24  1  0  0  0  0
 18 20  1  0  0  0  0
 19 23  1  0  0  0  0
 19 21  1  1  0  0  0
 20 16  1  6  0  0  0
 20 23  1  0  0  0  0
 23 22  1  1  0  0  0
 24 14  1  6  0  0  0
 24 19  1  0  0  0  0
 26 25  1  0  0  0  0
 26 30  1  1  0  0  0
 28 29  1  0  0  0  0
 29 27  1  6  0  0  0
 29 26  1  0  0  0  0
 30 38  1  0  0  0  0
 31 37  1  0  0  0  0
 32 31  2  0  0  0  0
 33 39  1  0  0  0  0
 33 35  2  0  0  0  0
 34 37  2  0  0  0  0
 34 40  1  0  0  0  0
 35 34  1  0  0  0  0
 36 38  2  0  0  0  0
 36 32  1  0  0  0  0
 39 38  1  6  0  0  0
 39 31  1  0  0  0  0
 40 46  1  1  0  0  0
 41 40  1  0  0  0  0
 42 41  1  0  0  0  0
 43 42  1  0  0  0  0
 44 42  2  0  0  0  0
 46 45  1  0  0  0  0
 47 51  1  1  0  0  0
 48 50  1  0  0  0  0
 49 48  1  0  0  0  0
 49 50  1  0  0  0  0
 50 47  1  1  0  0  0
 52 54  1  0  0  0  0
 52 51  1  0  0  0  0
 54 53  1  0  0  0  0
M  END
>  <MODEL>
6

>  <REMARK>
 VINA RESULT:      -5.8      2.773      6.288
  Name = 
  19 active torsions:
  status: ('A' for Active; 'I' for Inactive)
    1  A    between atoms: C_2  and  C_7
    2  A    between atoms: C_2  and  C_39
    3  A    between atoms: C_3  and  C_24
    4  A    between atoms: C_3  and  O_26
    5  A    between atoms: N_4  and  C_21
    6  A    between atoms: C_5  and  C_15
    7  A    between atoms: C_5  and  O_26
    8  A    between atoms: C_5  and  C_45
    9  A    between atoms: C_7  and  N_16
   10  A    between atoms: N_8  and  N_16
   11  A    between atoms: N_8  and  C_46
   12  A    between atoms: C_21  and  C_25
   13  A    between atoms: C_21  and  C_36
   14  A    between atoms: C_22  and  C_41
   15  A    between atoms: O_23  and  C_42
   16  A    between atoms: O_23  and  C_47
   17  A    between atoms: C_33  and  C_42
   18  A    between atoms: C_33  and  C_51
   19  A    between atoms: C_42  and  C_53
                            x       y       z     vdW  Elec       q    Type
                         _______ _______ _______ _____ _____    ______ ____

>  <TORSDO>
F 19

$$$$
=
 OpenBabel11042417393D

 54 59  0  0  1  0  0  0  0  0999 V2000
  193.8310  173.4730  141.7060 C   0  0  1  0  0  3  0  0  0  0  0  0
  193.8720  173.8750  140.2410 C   0  0  1  0  0  3  0  0  0  0  0  0
  193.8940  174.9400  142.1100 C   0  0  2  0  0  3  0  0  0  0  0  0
  193.9220  175.3370  140.6450 C   0  0  0  0  0  2  0  0  0  0  0  0
  195.8150  174.1510  138.5970 N   0  0  0  0  0  0  0  0  0  0  0  0
  196.9040  174.3320  137.5940 C   0  0  0  0  0  2  0  0  0  0  0  0
  195.9590  175.3320  137.6910 C   0  0  1  0  0  3  0  0  0  0  0  0
  195.1440  173.3930  139.6030 C   0  0  0  0  0  0  0  0  0  0  0  0
  195.6330  172.2950  139.9740 O   0  0  0  0  0  0  0  0  0  0  0  0
  195.1600  174.5160  135.6030 O   0  0  0  0  0  0  0  0  0  0  0  0
  194.9720  175.2540  136.5610 C   0  0  0  0  0  0  0  0  0  0  0  0
  193.7130  176.0500  136.6390 C   0  0  0  0  0  2  0  0  0  0  0  0
  192.5790  175.2150  136.2830 N   0  0  0  0  0  2  0  0  0  0  0  0
  192.2340  174.4920  137.4360 N   0  0  0  0  0  2  0  0  0  0  0  0
  189.2000  174.1360  136.7370 O   0  0  0  0  0  1  0  0  0  0  0  0
  189.3110  171.3010  135.6430 O   0  0  0  0  0  1  0  0  0  0  0  0
  190.0110  173.4200  137.6160 C   0  0  1  0  0  3  0  0  0  0  0  0
  189.3770  172.0550  137.9160 C   0  0  0  0  0  2  0  0  0  0  0  0
  192.1310  172.0080  137.3980 C   0  0  2  0  0  3  0  0  0  0  0  0
  189.8040  170.9830  136.9120 C   0  0  2  0  0  3  0  0  0  0  0  0
  193.4410  171.9880  136.9130 O   0  0  0  0  0  1  0  0  0  0  0  0
  191.7690  170.3890  135.6210 O   0  0  0  0  0  1  0  0  0  0  0  0
  191.3360  170.7890  136.8900 C   0  0  1  0  0  3  0  0  0  0  0  0
  191.4370  173.3280  137.0430 C   0  0  2  0  0  3  0  0  0  0  0  0
  195.1460  175.2090  142.6940 O   0  0  0  0  0  0  0  0  0  0  0  0
  195.0280  175.2030  144.1060 C   0  0  1  0  0  3  0  0  0  0  0  0
  195.7670  173.3140  145.5900 C   0  0  0  0  0  1  0  0  0  0  0  0
  197.2540  174.2690  143.9980 F   0  0  0  0  0  0  0  0  0  0  0  0
  196.2050  174.5620  144.8500 C   0  0  1  0  0  3  0  0  0  0  0  0
  194.6020  176.5450  144.7020 C   0  0  0  0  0  2  0  0  0  0  0  0
  191.1660  176.2010  146.1000 C   0  0  0  0  0  0  0  0  0  0  0  0
  191.8650  176.3180  147.1780 N   0  0  0  0  0  0  0  0  0  0  0  0
  191.5630  177.3290  144.0060 N   0  0  0  0  0  0  0  0  0  0  0  0
  189.3660  177.2730  145.0310 C   0  0  0  0  0  0  0  0  0  0  0  0
  190.3420  177.7840  144.0320 C   0  0  0  0  0  3  0  0  0  0  0  0
  193.2260  176.4140  146.7850 C   0  0  0  0  0  3  0  0  0  0  0  0
  189.7880  176.5700  146.0470 N   0  0  0  0  0  0  0  0  0  0  0  0
  193.3250  176.4090  145.4610 C   0  0  0  0  0  0  0  0  0  0  0  0
  191.9830  176.2110  144.8570 C   0  0  1  0  0  3  0  0  0  0  0  0
  187.9340  177.7160  144.9480 C   0  0  1  0  0  3  0  0  0  0  0  0
  187.4800  177.7520  143.5620 N   0  0  0  0  0  2  0  0  0  0  0  0
  186.3860  178.5570  143.1150 C   0  0  0  0  0  0  0  0  0  0  0  0
  185.9900  178.4960  141.7520 N   0  0  0  0  0  1  0  0  0  0  0  0
  185.7870  179.3300  143.9080 O   0  0  0  0  0  0  0  0  0  0  0  0
  186.4900  177.4830  146.9810 C   0  0  0  0  0  1  0  0  0  0  0  0
  187.0330  176.7850  145.7460 C   0  0  0  0  0  2  0  0  0  0  0  0
  192.4640  172.8710  142.0310 C   0  0  2  0  0  3  0  0  0  0  0  0
  193.6770  171.4180  143.4830 O   0  0  0  0  0  0  0  0  0  0  0  0
  192.3720  171.3870  144.0030 C   0  0  0  0  0  2  0  0  0  0  0  0
  192.6240  171.4480  142.5480 C   0  0  1  0  0  3  0  0  0  0  0  0
  191.6740  172.8560  140.8770 O   0  0  0  0  0  0  0  0  0  0  0  0
  190.3620  172.9790  141.3360 C   0  0  0  0  0  2  0  0  0  0  0  0
  188.6090  174.6280  141.9650 C   0  0  0  0  0  1  0  0  0  0  0  0
  190.0950  174.4120  141.7630 C   0  0  0  0  0  2  0  0  0  0  0  0
  1 47  1  6  0  0  0
  1  3  1  0  0  0  0
  2  8  1  1  0  0  0
  2  4  1  0  0  0  0
  2  1  1  0  0  0  0
  3 25  1  1  0  0  0
  4  3  1  0  0  0  0
  5  8  1  0  0  0  0
  6  7  1  0  0  0  0
  6  5  1  0  0  0  0
  7 11  1  6  0  0  0
  7  5  1  0  0  0  0
  8  9  2  0  0  0  0
 10 11  2  0  0  0  0
 11 12  1  0  0  0  0
 13 12  1  0  0  0  0
 13 14  1  0  0  0  0
 17 15  1  6  0  0  0
 17 18  1  0  0  0  0
 19 21  1  6  0  0  0
 20 16  1  6  0  0  0
 20 18  1  0  0  0  0
 23 22  1  6  0  0  0
 23 20  1  0  0  0  0
 23 19  1  0  0  0  0
 24 19  1  0  0  0  0
 24 14  1  1  0  0  0
 24 17  1  0  0  0  0
 25 26  1  0  0  0  0
 26 30  1  1  0  0  0
 26 29  1  0  0  0  0
 28 29  1  0  0  0  0
 29 27  1  6  0  0  0
 30 38  1  0  0  0  0
 31 32  2  0  0  0  0
 33 35  2  0  0  0  0
 34 37  2  0  0  0  0
 35 34  1  0  0  0  0
 36 32  1  0  0  0  0
 37 31  1  0  0  0  0
 38 36  2  0  0  0  0
 39 33  1  6  0  0  0
 39 38  1  0  0  0  0
 39 31  1  0  0  0  0
 40 34  1  0  0  0  0
 40 46  1  1  0  0  0
 41 40  1  0  0  0  0
 42 41  1  0  0  0  0
 42 44  2  0  0  0  0
 43 42  1  0  0  0  0
 46 45  1  0  0  0  0
 47 51  1  6  0  0  0
 48 49  1  0  0  0  0
 50 47  1  1  0  0  0
 50 48  1  0  0  0  0
 50 49  1  0  0  0  0
 51 52  1  0  0  0  0
 52 54  1  0  0  0  0
 54 53  1  0  0  0  0
M  END
>  <MODEL>
7

>  <REMARK>
 VINA RESULT:      -5.8      2.888      8.598
  Name = 
  19 active torsions:
  status: ('A' for Active; 'I' for Inactive)
    1  A    between atoms: C_2  and  C_7
    2  A    between atoms: C_2  and  C_39
    3  A    between atoms: C_3  and  C_24
    4  A    between atoms: C_3  and  O_26
    5  A    between atoms: N_4  and  C_21
    6  A    between atoms: C_5  and  C_15
    7  A    between atoms: C_5  and  O_26
    8  A    between atoms: C_5  and  C_45
    9  A    between atoms: C_7  and  N_16
   10  A    between atoms: N_8  and  N_16
   11  A    between atoms: N_8  and  C_46
   12  A    between atoms: C_21  and  C_25
   13  A    between atoms: C_21  and  C_36
   14  A    between atoms: C_22  and  C_41
   15  A    between atoms: O_23  and  C_42
   16  A    between atoms: O_23  and  C_47
   17  A    between atoms: C_33  and  C_42
   18  A    between atoms: C_33  and  C_51
   19  A    between atoms: C_42  and  C_53
                            x       y       z     vdW  Elec       q    Type
                         _______ _______ _______ _____ _____    ______ ____

>  <TORSDO>
F 19

$$$$
=
 OpenBabel11042417393D

 54 59  0  0  1  0  0  0  0  0999 V2000
  193.1400  173.1090  137.7070 C   0  0  1  0  0  3  0  0  0  0  0  0
  194.3310  174.0410  137.8600 C   0  0  1  0  0  3  0  0  0  0  0  0
  192.4690  173.7690  138.9030 C   0  0  2  0  0  3  0  0  0  0  0  0
  193.6540  174.7080  139.0440 C   0  0  0  0  0  2  0  0  0  0  0  0
  196.2390  173.4890  139.4740 N   0  0  0  0  0  0  0  0  0  0  0  0
  197.3610  173.2310  140.4230 C   0  0  0  0  0  2  0  0  0  0  0  0
  196.4320  174.1870  140.7820 C   0  0  1  0  0  3  0  0  0  0  0  0
  195.5580  173.2630  138.2400 C   0  0  0  0  0  0  0  0  0  0  0  0
  195.9900  172.3830  137.4520 O   0  0  0  0  0  0  0  0  0  0  0  0
  197.8500  175.7910  139.7400 O   0  0  0  0  0  0  0  0  0  0  0  0
  196.9730  175.5730  140.5660 C   0  0  0  0  0  0  0  0  0  0  0  0
  196.3880  176.7090  141.3350 C   0  0  0  0  0  2  0  0  0  0  0  0
  195.2040  176.2630  142.0470 N   0  0  0  0  0  2  0  0  0  0  0  0
  195.4850  176.3950  143.4170 N   0  0  0  0  0  2  0  0  0  0  0  0
  192.5760  177.1720  144.2870 O   0  0  0  0  0  1  0  0  0  0  0  0
  191.6590  174.4550  145.2980 O   0  0  0  0  0  1  0  0  0  0  0  0
  193.6360  176.6680  145.0390 C   0  0  1  0  0  3  0  0  0  0  0  0
  193.1070  176.0540  146.3420 C   0  0  0  0  0  2  0  0  0  0  0  0
  195.0410  174.5320  145.0030 C   0  0  2  0  0  3  0  0  0  0  0  0
  192.7370  174.5790  146.1800 C   0  0  2  0  0  3  0  0  0  0  0  0
  195.8270  173.6990  144.2010 O   0  0  0  0  0  1  0  0  0  0  0  0
  193.5180  172.6380  144.9530 O   0  0  0  0  0  1  0  0  0  0  0  0
  193.9410  173.7270  145.7230 C   0  0  1  0  0  3  0  0  0  0  0  0
  194.4560  175.6870  144.1800 C   0  0  2  0  0  3  0  0  0  0  0  0
  192.4510  172.8700  139.9840 O   0  0  0  0  0  0  0  0  0  0  0  0
  191.1200  172.6900  140.4370 C   0  0  1  0  0  3  0  0  0  0  0  0
  191.8030  170.2790  140.2490 C   0  0  0  0  0  1  0  0  0  0  0  0
  190.0610  170.9420  141.7260 F   0  0  0  0  0  0  0  0  0  0  0  0
  190.6550  171.2320  140.5110 C   0  0  1  0  0  3  0  0  0  0  0  0
  190.7740  173.4940  141.6900 C   0  0  0  0  0  2  0  0  0  0  0  0
  188.1470  176.1280  141.4790 C   0  0  0  0  0  0  0  0  0  0  0  0
  187.8220  175.3690  140.4870 N   0  0  0  0  0  0  0  0  0  0  0  0
  189.0360  175.4080  143.6020 N   0  0  0  0  0  0  0  0  0  0  0  0
  187.1870  176.9690  143.4540 C   0  0  0  0  0  0  0  0  0  0  0  0
  188.0750  176.0450  144.2080 C   0  0  0  0  0  3  0  0  0  0  0  0
  188.7870  174.3290  140.4240 C   0  0  0  0  0  3  0  0  0  0  0  0
  187.1910  176.9500  142.1490 N   0  0  0  0  0  0  0  0  0  0  0  0
  189.6560  174.4450  141.4210 C   0  0  0  0  0  0  0  0  0  0  0  0
  189.3680  175.6760  142.1990 C   0  0  1  0  0  3  0  0  0  0  0  0
  186.1770  177.7890  144.2050 C   0  0  1  0  0  3  0  0  0  0  0  0
  186.5810  177.9650  145.5950 N   0  0  0  0  0  2  0  0  0  0  0  0
  185.8310  177.4580  146.7020 C   0  0  0  0  0  0  0  0  0  0  0  0
  186.2820  177.7130  148.0240 N   0  0  0  0  0  1  0  0  0  0  0  0
  184.7910  176.7720  146.5160 O   0  0  0  0  0  0  0  0  0  0  0  0
  184.8810  179.9310  144.2270 C   0  0  0  0  0  1  0  0  0  0  0  0
  186.0020  179.1540  143.5580 C   0  0  0  0  0  2  0  0  0  0  0  0
  192.4000  173.4350  136.4100 C   0  0  2  0  0  3  0  0  0  0  0  0
  191.1390  171.4370  136.7370 O   0  0  0  0  0  0  0  0  0  0  0  0
  190.3880  172.1460  135.7840 C   0  0  0  0  0  2  0  0  0  0  0  0
  191.8660  172.1590  135.7720 C   0  0  1  0  0  3  0  0  0  0  0  0
  193.2760  174.0650  135.5190 O   0  0  0  0  0  0  0  0  0  0  0  0
  192.4550  174.8210  134.6810 C   0  0  0  0  0  2  0  0  0  0  0  0
  190.4420  176.2660  134.8980 C   0  0  0  0  0  1  0  0  0  0  0  0
  191.8100  175.9490  135.4670 C   0  0  0  0  0  2  0  0  0  0  0  0
  1 47  1  6  0  0  0
  1  2  1  0  0  0  0
  1  3  1  0  0  0  0
  2  8  1  1  0  0  0
  2  4  1  0  0  0  0
  3  4  1  0  0  0  0
  3 25  1  1  0  0  0
  5  6  1  0  0  0  0
  5  7  1  0  0  0  0
  6  7  1  0  0  0  0
  7 11  1  6  0  0  0
  8  5  1  0  0  0  0
  9  8  2  0  0  0  0
 10 11  2  0  0  0  0
 11 12  1  0  0  0  0
 12 13  1  0  0  0  0
 13 14  1  0  0  0  0
 17 15  1  6  0  0  0
 17 18  1  0  0  0  0
 19 21  1  6  0  0  0
 19 23  1  0  0  0  0
 20 16  1  6  0  0  0
 20 18  1  0  0  0  0
 23 22  1  6  0  0  0
 23 20  1  0  0  0  0
 24 14  1  1  0  0  0
 24 19  1  0  0  0  0
 24 17  1  0  0  0  0
 25 26  1  0  0  0  0
 26 29  1  0  0  0  0
 26 30  1  1  0  0  0
 29 27  1  1  0  0  0
 29 28  1  0  0  0  0
 31 37  1  0  0  0  0
 31 39  1  0  0  0  0
 32 31  2  0  0  0  0
 33 35  2  0  0  0  0
 34 40  1  0  0  0  0
 34 35  1  0  0  0  0
 36 32  1  0  0  0  0
 36 38  2  0  0  0  0
 37 34  2  0  0  0  0
 38 30  1  0  0  0  0
 39 38  1  6  0  0  0
 39 33  1  0  0  0  0
 40 46  1  6  0  0  0
 40 41  1  0  0  0  0
 41 42  1  0  0  0  0
 42 43  1  0  0  0  0
 44 42  2  0  0  0  0
 46 45  1  0  0  0  0
 47 51  1  6  0  0  0
 49 48  1  0  0  0  0
 50 49  1  0  0  0  0
 50 47  1  1  0  0  0
 50 48  1  0  0  0  0
 52 54  1  0  0  0  0
 52 51  1  0  0  0  0
 53 54  1  0  0  0  0
M  END
>  <MODEL>
8

>  <REMARK>
 VINA RESULT:      -5.8      3.203      8.499
  Name = 
  19 active torsions:
  status: ('A' for Active; 'I' for Inactive)
    1  A    between atoms: C_2  and  C_7
    2  A    between atoms: C_2  and  C_39
    3  A    between atoms: C_3  and  C_24
    4  A    between atoms: C_3  and  O_26
    5  A    between atoms: N_4  and  C_21
    6  A    between atoms: C_5  and  C_15
    7  A    between atoms: C_5  and  O_26
    8  A    between atoms: C_5  and  C_45
    9  A    between atoms: C_7  and  N_16
   10  A    between atoms: N_8  and  N_16
   11  A    between atoms: N_8  and  C_46
   12  A    between atoms: C_21  and  C_25
   13  A    between atoms: C_21  and  C_36
   14  A    between atoms: C_22  and  C_41
   15  A    between atoms: O_23  and  C_42
   16  A    between atoms: O_23  and  C_47
   17  A    between atoms: C_33  and  C_42
   18  A    between atoms: C_33  and  C_51
   19  A    between atoms: C_42  and  C_53
                            x       y       z     vdW  Elec       q    Type
                         _______ _______ _______ _____ _____    ______ ____

>  <TORSDO>
F 19

$$$$
=
 OpenBabel11042417393D

 54 59  0  0  1  0  0  0  0  0999 V2000
  189.6510  173.9310  141.8890 C   0  0  1  0  0  3  0  0  0  0  0  0
  188.9530  172.8140  141.1280 C   0  0  1  0  0  3  0  0  0  0  0  0
  188.3040  174.4290  142.3930 C   0  0  2  0  0  3  0  0  0  0  0  0
  187.6120  173.3040  141.6430 C   0  0  0  0  0  2  0  0  0  0  0  0
  190.3170  172.6070  138.9710 N   0  0  0  0  0  0  0  0  0  0  0  0
  191.1640  172.5070  137.7470 C   0  0  0  0  0  2  0  0  0  0  0  0
  191.6940  172.0250  138.9270 C   0  0  1  0  0  3  0  0  0  0  0  0
  189.1250  173.0060  139.6480 C   0  0  0  0  0  0  0  0  0  0  0  0
  188.1880  173.5250  138.9880 O   0  0  0  0  0  0  0  0  0  0  0  0
  192.5680  174.1980  139.3540 O   0  0  0  0  0  0  0  0  0  0  0  0
  192.6930  172.9890  139.5030 C   0  0  0  0  0  0  0  0  0  0  0  0
  193.8240  172.4610  140.3190 C   0  0  0  0  0  2  0  0  0  0  0  0
  194.3900  173.5290  141.1240 N   0  0  0  0  0  2  0  0  0  0  0  0
  193.7690  173.4560  142.3820 N   0  0  0  0  0  2  0  0  0  0  0  0
  194.5480  175.8970  144.1860 O   0  0  0  0  0  1  0  0  0  0  0  0
  196.4200  174.4670  146.1090 O   0  0  0  0  0  1  0  0  0  0  0  0
  195.3460  175.0700  143.3970 C   0  0  1  0  0  3  0  0  0  0  0  0
  196.8090  175.1670  143.8510 C   0  0  0  0  0  2  0  0  0  0  0  0
  195.8840  172.5710  143.3420 C   0  0  2  0  0  3  0  0  0  0  0  0
  197.1430  174.1600  144.9520 C   0  0  2  0  0  3  0  0  0  0  0  0
  195.3320  171.2880  143.3060 O   0  0  0  0  0  1  0  0  0  0  0  0
  196.5340  171.9000  145.5870 O   0  0  0  0  0  1  0  0  0  0  0  0
  196.8940  172.7040  144.5000 C   0  0  1  0  0  3  0  0  0  0  0  0
  194.7840  173.6370  143.4210 C   0  0  2  0  0  3  0  0  0  0  0  0
  188.0010  175.6580  141.7810 O   0  0  0  0  0  0  0  0  0  0  0  0
  187.3740  176.5180  142.7160 C   0  0  1  0  0  3  0  0  0  0  0  0
  189.0690  177.7180  144.1310 C   0  0  0  0  0  1  0  0  0  0  0  0
  187.1400  176.7320  145.1120 F   0  0  0  0  0  0  0  0  0  0  0  0
  188.0570  176.5920  144.0860 C   0  0  1  0  0  3  0  0  0  0  0  0
  187.0120  177.8930  142.1530 C   0  0  0  0  0  2  0  0  0  0  0  0
  183.5450  178.7330  143.2280 C   0  0  0  0  0  0  0  0  0  0  0  0
  184.2310  179.6010  143.8920 N   0  0  0  0  0  0  0  0  0  0  0  0
  184.0120  177.9410  140.9990 N   0  0  0  0  0  0  0  0  0  0  0  0
  181.7990  178.6850  141.6530 C   0  0  0  0  0  0  0  0  0  0  0  0
  182.8060  178.2800  140.6370 C   0  0  0  0  0  3  0  0  0  0  0  0
  185.6000  179.3600  143.6040 C   0  0  0  0  0  3  0  0  0  0  0  0
  182.1810  178.9580  142.8710 N   0  0  0  0  0  0  0  0  0  0  0  0
  185.7190  178.3770  142.7200 C   0  0  0  0  0  0  0  0  0  0  0  0
  184.3810  177.8120  142.4120 C   0  0  1  0  0  3  0  0  0  0  0  0
  180.3840  178.9390  141.2200 C   0  0  1  0  0  3  0  0  0  0  0  0
  179.9520  177.9430  140.2460 N   0  0  0  0  0  2  0  0  0  0  0  0
  178.9030  178.1700  139.3010 C   0  0  0  0  0  0  0  0  0  0  0  0
  178.5250  177.1260  138.4160 N   0  0  0  0  0  1  0  0  0  0  0  0
  178.3310  179.2900  139.2310 O   0  0  0  0  0  0  0  0  0  0  0  0
  178.7660  177.5590  142.5420 C   0  0  0  0  0  1  0  0  0  0  0  0
  179.4410  178.9140  142.4130 C   0  0  0  0  0  2  0  0  0  0  0  0
  190.4780  173.3320  143.0260 C   0  0  2  0  0  3  0  0  0  0  0  0
  191.3210  171.2120  142.3330 O   0  0  0  0  0  0  0  0  0  0  0  0
  191.4460  171.1730  143.7320 C   0  0  0  0  0  2  0  0  0  0  0  0
  190.2920  171.8220  143.0760 C   0  0  1  0  0  3  0  0  0  0  0  0
  190.0700  173.8880  144.2430 O   0  0  0  0  0  0  0  0  0  0  0  0
  191.1670  174.6280  144.6880 C   0  0  0  0  0  2  0  0  0  0  0  0
  189.6310  174.5420  146.6420 C   0  0  0  0  0  1  0  0  0  0  0  0
  191.0090  174.9520  146.1630 C   0  0  0  0  0  2  0  0  0  0  0  0
  1  3  1  0  0  0  0
  1 47  1  1  0  0  0
  2  8  1  6  0  0  0
  2  4  1  0  0  0  0
  2  1  1  0  0  0  0
  3 25  1  6  0  0  0
  4  3  1  0  0  0  0
  5  8  1  0  0  0  0
  6  7  1  0  0  0  0
  6  5  1  0  0  0  0
  7  5  1  0  0  0  0
  7 11  1  1  0  0  0
  9  8  2  0  0  0  0
 10 11  2  0  0  0  0
 11 12  1  0  0  0  0
 12 13  1  0  0  0  0
 13 14  1  0  0  0  0
 17 24  1  0  0  0  0
 17 18  1  0  0  0  0
 17 15  1  1  0  0  0
 18 20  1  0  0  0  0
 19 21  1  1  0  0  0
 19 24  1  0  0  0  0
 19 23  1  0  0  0  0
 20 16  1  1  0  0  0
 23 20  1  0  0  0  0
 23 22  1  1  0  0  0
 24 14  1  6  0  0  0
 25 26  1  0  0  0  0
 26 30  1  6  0  0  0
 26 29  1  0  0  0  0
 29 27  1  6  0  0  0
 29 28  1  0  0  0  0
 30 38  1  0  0  0  0
 31 32  2  0  0  0  0
 34 37  2  0  0  0  0
 35 33  2  0  0  0  0
 35 34  1  0  0  0  0
 36 32  1  0  0  0  0
 37 31  1  0  0  0  0
 38 36  2  0  0  0  0
 39 33  1  6  0  0  0
 39 38  1  0  0  0  0
 39 31  1  0  0  0  0
 40 34  1  0  0  0  0
 40 46  1  1  0  0  0
 41 40  1  0  0  0  0
 42 41  1  0  0  0  0
 43 42  1  0  0  0  0
 44 42  2  0  0  0  0
 46 45  1  0  0  0  0
 47 51  1  1  0  0  0
 48 50  1  0  0  0  0
 48 49  1  0  0  0  0
 50 47  1  6  0  0  0
 50 49  1  0  0  0  0
 51 52  1  0  0  0  0
 52 54  1  0  0  0  0
 54 53  1  0  0  0  0
M  END
>  <MODEL>
9

>  <REMARK>
 VINA RESULT:      -5.7      4.042     10.405
  Name = 
  19 active torsions:
  status: ('A' for Active; 'I' for Inactive)
    1  A    between atoms: C_2  and  C_7
    2  A    between atoms: C_2  and  C_39
    3  A    between atoms: C_3  and  C_24
    4  A    between atoms: C_3  and  O_26
    5  A    between atoms: N_4  and  C_21
    6  A    between atoms: C_5  and  C_15
    7  A    between atoms: C_5  and  O_26
    8  A    between atoms: C_5  and  C_45
    9  A    between atoms: C_7  and  N_16
   10  A    between atoms: N_8  and  N_16
   11  A    between atoms: N_8  and  C_46
   12  A    between atoms: C_21  and  C_25
   13  A    between atoms: C_21  and  C_36
   14  A    between atoms: C_22  and  C_41
   15  A    between atoms: O_23  and  C_42
   16  A    between atoms: O_23  and  C_47
   17  A    between atoms: C_33  and  C_42
   18  A    between atoms: C_33  and  C_51
   19  A    between atoms: C_42  and  C_53
                            x       y       z     vdW  Elec       q    Type
                         _______ _______ _______ _____ _____    ______ ____

>  <TORSDO>
F 19

$$$$
